data_PCOD9368730
_publ_section_title
;
Structure prediction by ZEFSAII (Michael W. Deem and Ramdas Pophale) SiO2 
 PCOD9368730
Probable space group: F M M 2
;
_chemical_formula_sum "Si O2"
_cell_formula_units_Z 96
_cell_length_a 16.805075
_cell_length_b 14.306113
_cell_length_c 20.355899
_cell_angle_alpha 90.000000
_cell_angle_beta 90.000000
_cell_angle_gamma 90.000000
_cell_volume 4893.869604
_symmetry_space_group_name_H-M "F M M 2"
_symmetry_group_IT_number 42
_symmetry_cell_setting 'orthorhombic'
loop_
_space_group_symop_operation_xyz
x,y,z
-x,-y,z
-x,y,z
x,-y,z
x,1/2+y,1/2+z
-x,1/2-y,1/2+z
-x,1/2+y,1/2+z
x,1/2-y,1/2+z
1/2+x,y,1/2+z
1/2-x,-y,1/2+z
1/2-x,y,1/2+z
1/2+x,-y,1/2+z
1/2+x,1/2+y,z
1/2-x,1/2-y,z
1/2-x,1/2+y,z
1/2+x,1/2-y,z
loop_
_atom_site_type_symbol
_atom_site_label
_atom_site_fract_x
_atom_site_fract_y
_atom_site_fract_z
Si Si1 0.164103 0.200058 0.571260
Si Si2 0.158488 0.500000 0.889088
Si Si3 0.404946 0.500000 0.783699
Si Si4 0.094880 0.000000 0.528320
Si Si5 0.163347 0.296159 0.831840
Si Si6 0.093423 0.806168 0.712189
Si Si7 0.665921 0.000000 0.429788
Si Si8 0.408722 0.191532 0.457358
O O1 0.250000 0.250000 0.557082
O O2 0.143619 0.091565 0.553503
O O3 0.144250 0.212623 0.647597
O O4 0.102635 0.254095 0.524601
O O5 0.160363 0.406433 0.845706
O O6 0.240275 0.500000 0.929480
O O7 0.094892 0.500000 0.948265
O O8 0.500000 0.500000 0.795918
O O9 0.385415 0.592785 0.743057
O O10 0.362032 0.500000 0.853678
O O11 0.000000 0.000000 0.549645
O O12 0.250000 0.250000 0.820482
O O13 0.110555 0.267316 0.769841
O O14 0.131637 0.248470 0.898417
O O15 0.000000 0.807727 0.695347
O O16 0.632806 0.907823 0.462554
O O17 0.500000 0.177894 0.439885
#
# Coordination Sequence:
#
# PCOD9368730 Si02
#       8
#    16   8   8   8  16  16   8  16
#     4  12  26  45  67  98 137 179 224 279 341 405
#     4  12  24  39  66  99 134 170 222 271 331 397
#     4  10  19  36  66  99 131 167 222 287 331 379
#     4  12  25  44  72 101 133 175 231 290 338 392
#     4  12  23  41  64  96 133 177 217 272 330 399
#     4  11  23  41  66  96 133 176 224 276 335 396
#     4  12  22  39  66  99 136 168 221 278 332 392
#     4  12  23  40  66  97 131 170 218 272 334 394
#
# _framework density 19.616379999999999
#
# number of rings (size 3 to 8) (size 9 to 14) (size 15 to 20)
#    0.000    0.333    5.000    5.250    0.000    1.333 
#    0.000    3.333    0.000    0.000    0.000    0.000 
#    0.000    0.000    0.000    0.000    0.000    0.000 
#
# Total GULP energy -134163.228435 kJ/mol
# GULP energy per Si atom -5590.134518 kJ/mol
# Density = 1.957173 g / cm^3
# Si number density = 19.616380 Si / 1000 Ang^3
#
#
#
# Elastic Constant Matrix: (Units=GPa)
#
#
# Indices 1 2 3 4 5 6 
#
# 1 71.3520 27.3968 -3.6663 0.0000 0.0000 0.0000
# 2 27.3968 172.2740 28.6685 0.0000 0.0000 0.0000
# 3 -3.6663 28.6685 75.0284 0.0000 0.0000 0.0000
# 4 0.0000 0.0000 0.0000 165.1641 0.0000 0.0000
# 5 0.0000 0.0000 0.0000 0.0000 65.2699 0.0000
# 6 0.0000 0.0000 0.0000 0.0000 0.0000 22.5460
#
#
#
# Elastic Compliance Matrix: (Units=1/GPa)
#
#
# Indices 1 2 3 4 5 6 
#
# 1 0.015144 -0.002703 0.001773 0.000000 0.000000 0.000000
# 2 -0.002703 0.006681 -0.002685 0.000000 0.000000 0.000000
# 3 0.001773 -0.002685 0.014441 0.000000 0.000000 0.000000
# 4 0.000000 0.000000 0.000000 0.006055 0.000000 0.000000
# 5 0.000000 0.000000 0.000000 0.000000 0.015321 0.000000
# 6 0.000000 0.000000 0.000000 0.000000 0.000000 0.044354
#
#
# Mechanical properties :
#
#
# Convention : Reuss Voigt Hill
#
# Bulk Modulus (GPa) = 34.44061 47.05026 40.74544
# Shear Modulus (GPa) = 42.05023 68.34636 55.19830
#
# Velocity S-wave (km/s) = 4.63496 5.90907 5.31036
# Velocity P-wave (km/s) = 6.79992 8.40199 7.64305
#
# Compressibility (1/GPa) = 0.02903549
#
# Stress axis : x y z
#
# Youngs Moduli (GPa) = 66.03209 149.66770 69.24769
#
# Poissons Ratio (x) = 0.40462 -0.12278
# Poissons Ratio (y) = 0.17851 0.18594
# Poissons Ratio (z) = -0.11708 0.40187
#
# Static dielectric constant tensor:
#      x y z
#    x 1.690500 0.000000 0.000000 
#    y 0.000000 1.693940 0.000000 
#    z 0.000000 0.000000 1.669680 
# 
# From -- ./inp_files/25155.got.cif
#   From: 2010.05.17/outbox.cif.g08.bks.cpg/sg42_13_cif.got.tgz:25155.got - 2010.06.03 19:03:34.
