data_PCOD9368971
_publ_section_title
;
Structure prediction by ZEFSAII (Michael W. Deem and Ramdas Pophale) SiO2 
 PCOD9368971
Probable space group: F M M 2
;
_chemical_formula_sum "Si O2"
_cell_formula_units_Z 96
_cell_length_a 8.261397
_cell_length_b 24.196447
_cell_length_c 19.996389
_cell_angle_alpha 90.000000
_cell_angle_beta 90.000000
_cell_angle_gamma 90.000000
_cell_volume 3997.207267
_symmetry_space_group_name_H-M "F M M 2"
_symmetry_group_IT_number 42
_symmetry_cell_setting 'orthorhombic'
loop_
_space_group_symop_operation_xyz
x,y,z
-x,-y,z
-x,y,z
x,-y,z
x,1/2+y,1/2+z
-x,1/2-y,1/2+z
-x,1/2+y,1/2+z
x,1/2-y,1/2+z
1/2+x,y,1/2+z
1/2-x,-y,1/2+z
1/2-x,y,1/2+z
1/2+x,-y,1/2+z
1/2+x,1/2+y,z
1/2-x,1/2-y,z
1/2-x,1/2+y,z
1/2+x,1/2-y,z
loop_
_atom_site_type_symbol
_atom_site_label
_atom_site_fract_x
_atom_site_fract_y
_atom_site_fract_z
Si Si1 0.311835 0.438157 0.529560
Si Si2 0.683828 0.189096 0.053535
Si Si3 0.188271 0.304403 0.335011
Si Si4 0.311319 0.061312 0.234033
Si Si5 0.318512 0.829550 0.689482
Si Si6 0.309213 0.578582 0.888245
O O1 0.500000 0.436274 0.551609
O O2 0.248214 0.500000 0.552483
O O3 0.244473 0.374499 0.542253
O O4 0.294981 0.441706 0.449296
O O5 0.500000 0.185923 0.029366
O O6 0.750000 0.250000 0.031196
O O7 0.695795 0.191970 0.134395
O O8 0.250000 0.250000 0.369496
O O9 0.281928 0.310822 0.265026
O O10 0.211803 0.355909 0.382575
O O11 0.000000 0.301382 0.318303
O O12 0.500000 0.079776 0.231566
O O13 0.204471 0.104508 0.195011
O O14 0.268642 0.060158 0.312828
O O15 0.300856 0.000000 0.207396
O O16 0.500000 0.814800 0.669659
O O17 0.500000 0.565713 0.899383
#
# Coordination Sequence:
#
# PCOD9368971 Si02
#       6
#    16  16  16  16  16  16
#     4  10  23  42  63  87 116 154 199 246 297 352
#     4  11  24  43  64  86 116 155 200 248 301 359
#     4  10  20  35  55  82 116 153 192 234 288 350
#     4   9  18  34  56  83 117 156 194 235 289 350
#     4  11  22  36  56  84 116 150 192 241 295 352
#     4   9  19  35  56  83 115 151 190 234 287 346
#
# _framework density 24.016769
#
# number of rings (size 3 to 8) (size 9 to 14) (size 15 to 20)
#    0.000    2.000    0.000    4.500    0.000    7.333 
#    0.000    5.000    0.000    0.000    0.000    0.000 
#    0.000    0.000    0.000    0.000    0.000    0.000 
#
# Total GULP energy -133852.211322 kJ/mol
# GULP energy per Si atom -5577.175472 kJ/mol
# Density = 2.396211 g / cm^3
# Si number density = 24.016769 Si / 1000 Ang^3
#
#
#
# Elastic Constant Matrix: (Units=GPa)
#
#
# Indices 1 2 3 4 5 6 
#
# 1 29.6584 29.2992 -0.2676 0.0000 0.0000 0.0000
# 2 29.2992 222.6837 11.0503 0.0000 0.0000 0.0000
# 3 -0.2676 11.0503 77.9154 0.0000 0.0000 0.0000
# 4 0.0000 0.0000 0.0000 -17.2678 0.0000 0.0000
# 5 0.0000 0.0000 0.0000 0.0000 14.9697 0.0000
# 6 0.0000 0.0000 0.0000 0.0000 0.0000 16.9824
#
#
#
# Elastic Compliance Matrix: (Units=1/GPa)
#
#
# Indices 1 2 3 4 5 6 
#
# 1 0.038812 -0.005150 0.000864 0.000000 0.000000 0.000000
# 2 -0.005150 0.005206 -0.000756 0.000000 0.000000 0.000000
# 3 0.000864 -0.000756 0.012945 0.000000 0.000000 0.000000
# 4 0.000000 0.000000 0.000000 -0.057911 0.000000 0.000000
# 5 0.000000 0.000000 0.000000 0.000000 0.066802 0.000000
# 6 0.000000 0.000000 0.000000 0.000000 0.000000 0.058885
#
#
# Mechanical properties :
#
#
# Convention : Reuss Voigt Hill
#
# Bulk Modulus (GPa) = 21.33162 45.60238 33.46700
# Shear Modulus (GPa) = 33.23414 22.28188 27.75801
#
# Velocity S-wave (km/s) = 3.72397 3.04923 3.40336
# Velocity P-wave (km/s) = 5.23372 5.60589 5.42300
#
# Compressibility (1/GPa) = 0.04687877
#
# Stress axis : x y z
#
# Youngs Moduli (GPa) = 25.76509 192.09610 77.25220
#
# Poissons Ratio (x) = 0.98920 -0.06672
# Poissons Ratio (y) = 0.13268 0.05840
# Poissons Ratio (z) = -0.02225 0.14522
#
# Static dielectric constant tensor:
#      x y z
#    x 1.897550 0.000000 0.000000 
#    y 0.000000 2.076760 0.000000 
#    z 0.000000 0.000000 1.884030 
# 
# From -- ./inp_files/23736.got.cif
#   From: 2010.05.17/outbox.cif.g08.bks.cpg/sg42_12_cif.got.tgz:23736.got - 2010.06.03 19:03:34.
