data_PCOD9368577
_publ_section_title
;
Structure prediction by ZEFSAII (Michael W. Deem and Ramdas Pophale) SiO2 
 PCOD9368577
Probable space group: F M M 2
;
_chemical_formula_sum "Si O2"
_cell_formula_units_Z 116
_cell_length_a 31.238164
_cell_length_b 7.925450
_cell_length_c 25.355047
_cell_angle_alpha 90.000000
_cell_angle_beta 90.000000
_cell_angle_gamma 90.000000
_cell_volume 6277.313968
_symmetry_space_group_name_H-M "F M M 2"
_symmetry_group_IT_number 42
_symmetry_cell_setting 'orthorhombic'
loop_
_space_group_symop_operation_xyz
x,y,z
-x,-y,z
-x,y,z
x,-y,z
x,1/2+y,1/2+z
-x,1/2-y,1/2+z
-x,1/2+y,1/2+z
x,1/2-y,1/2+z
1/2+x,y,1/2+z
1/2-x,-y,1/2+z
1/2-x,y,1/2+z
1/2+x,-y,1/2+z
1/2+x,1/2+y,z
1/2-x,1/2-y,z
1/2-x,1/2+y,z
1/2+x,1/2-y,z
loop_
_atom_site_type_symbol
_atom_site_label
_atom_site_fract_x
_atom_site_fract_y
_atom_site_fract_z
Si Si1 0.547358 0.798051 0.421780
Si Si2 0.702965 0.193783 0.656362
Si Si3 0.500000 0.000000 0.766258
Si Si4 0.298967 0.308208 0.540370
Si Si5 0.563318 0.198552 0.296414
Si Si6 0.297656 0.703702 0.865582
Si Si7 0.161130 0.800566 0.759958
Si Si8 0.862475 0.301141 0.453837
O O1 0.500000 0.726981 0.433689
O O2 0.556317 0.777373 0.359302
O O3 0.589216 0.730958 0.452258
O O4 0.544714 0.000000 0.431295
O O5 0.750000 0.250000 0.675358
O O6 0.692851 0.292801 0.602843
O O7 0.670506 0.216637 0.704148
O O8 0.705773 0.000000 0.639971
O O9 0.463310 0.152482 0.769281
O O10 0.301545 0.500000 0.523204
O O11 0.250000 0.250000 0.531280
O O12 0.335018 0.214663 0.506807
O O13 0.612893 0.216357 0.280765
O O14 0.551548 0.000000 0.285252
O O15 0.300716 0.500000 0.864531
O O16 0.250000 0.750000 0.882194
O O17 0.308302 0.764901 0.806697
O O18 0.332911 0.768831 0.906720
O O19 0.169652 0.000000 0.752534
O O20 0.867336 0.500000 0.442504
#
# Coordination Sequence:
#
# PCOD9368577 Si02
#       8
#    16  16   4  16  16  16  16  16
#     4   9  16  32  56  79 107 150 188 225 280 335
#     4  11  22  37  58  82 109 144 188 238 281 334
#     4  12  22  32  56  86 112 152 198 240 280 354
#     4  11  22  38  57  80 107 143 187 234 283 336
#     4  10  20  36  55  80 117 153 188 239 292 342
#     4  10  20  32  48  74 110 154 185 216 270 335
#     4  10  20  36  55  79 113 151 188 229 283 338
#     4  10  19  34  54  79 111 145 184 226 276 337
#
# _framework density 18.479241999999999
#
# number of rings (size 3 to 8) (size 9 to 14) (size 15 to 20)
#    0.000    1.793    2.069    4.345    0.966    3.310 
#    1.241    0.000    0.000    0.000    1.793    0.000 
#    0.000    0.000    0.000    0.000    0.000    0.000 
#
# Total GULP energy -161496.291358 kJ/mol
# GULP energy per Si atom -5568.837633 kJ/mol
# Density = 1.843718 g / cm^3
# Si number density = 18.479242 Si / 1000 Ang^3
#
#
#
# Elastic Constant Matrix: (Units=GPa)
#
#
# Indices 1 2 3 4 5 6 
#
# 1 143.0585 10.8316 49.7832 0.0001 -0.0007 -0.0002
# 2 10.8316 52.2561 -3.7311 0.0000 -0.0010 -0.0004
# 3 49.7832 -3.7311 60.0903 0.0000 0.0002 0.0000
# 4 0.0001 0.0000 0.0000 13.2077 -0.0002 -0.0001
# 5 -0.0007 -0.0010 0.0002 -0.0002 217.6688 0.0013
# 6 -0.0002 -0.0004 0.0000 -0.0001 0.0013 27.5650
#
#
#
# Elastic Compliance Matrix: (Units=1/GPa)
#
#
# Indices 1 2 3 4 5 6 
#
# 1 0.010195 -0.002728 -0.008616 0.000000 0.000000 0.000000
# 2 -0.002728 0.019952 0.003499 0.000000 0.000000 0.000000
# 3 -0.008616 0.003499 0.023997 0.000000 0.000000 0.000000
# 4 0.000000 0.000000 0.000000 0.075713 0.000000 0.000000
# 5 0.000000 0.000000 0.000000 0.000000 0.004594 0.000000
# 6 0.000000 0.000000 0.000000 0.000000 0.000000 0.036278
#
#
# Mechanical properties :
#
#
# Convention : Reuss Voigt Hill
#
# Bulk Modulus (GPa) = 26.00513 41.01914 33.51213
# Shear Modulus (GPa) = 25.09584 64.92305 45.00944
#
# Velocity S-wave (km/s) = 3.68918 5.93374 4.94061
# Velocity P-wave (km/s) = 5.67890 8.31813 7.12184
#
# Compressibility (1/GPa) = 0.03845395
#
# Stress axis : x y z
#
# Youngs Moduli (GPa) = 98.08855 50.12060 41.67250
#
# Poissons Ratio (x) = 0.13675 0.35903
# Poissons Ratio (y) = 0.26762 -0.14582
# Poissons Ratio (z) = 0.84509 -0.17538
#
# Static dielectric constant tensor:
#      x y z
#    x 1.557050 0.000000 0.000000 
#    y 0.000000 1.667300 0.000000 
#    z 0.000000 0.000000 1.614380 
# 
# From -- ./inp_files/33482.got.cif
#   From: 2010.05.17/outbox.cif.g08.bks.cpg/sg42_17_cif.got.tgz:33482.got - 2010.06.03 19:03:34.
