data_PCOD9368789
_publ_section_title
;
Structure prediction by ZEFSAII (Michael W. Deem and Ramdas Pophale) SiO2 
 PCOD9368789
Probable space group: F M M 2
;
_chemical_formula_sum "Si O2"
_cell_formula_units_Z 112
_cell_length_a 22.128959
_cell_length_b 23.337642
_cell_length_c 12.181368
_cell_angle_alpha 90.000000
_cell_angle_beta 90.000000
_cell_angle_gamma 90.000000
_cell_volume 6290.917953
_symmetry_space_group_name_H-M "F M M 2"
_symmetry_group_IT_number 42
_symmetry_cell_setting 'orthorhombic'
loop_
_space_group_symop_operation_xyz
x,y,z
-x,-y,z
-x,y,z
x,-y,z
x,1/2+y,1/2+z
-x,1/2-y,1/2+z
-x,1/2+y,1/2+z
x,1/2-y,1/2+z
1/2+x,y,1/2+z
1/2-x,-y,1/2+z
1/2-x,y,1/2+z
1/2+x,-y,1/2+z
1/2+x,1/2+y,z
1/2-x,1/2-y,z
1/2-x,1/2+y,z
1/2+x,1/2-y,z
loop_
_atom_site_type_symbol
_atom_site_label
_atom_site_fract_x
_atom_site_fract_y
_atom_site_fract_z
Si Si1 0.069147 0.563782 0.760380
Si Si2 0.619668 0.324100 0.358226
Si Si3 0.832062 0.164240 0.938993
Si Si4 0.258466 0.664089 0.238219
Si Si5 0.839552 0.220350 0.582876
Si Si6 0.185026 0.934217 0.109317
Si Si7 0.569291 0.208708 0.282888
O O1 0.073693 0.500000 0.810554
O O2 0.088134 0.615563 0.838321
O O3 0.118471 0.565693 0.664023
O O4 0.000000 0.571521 0.723062
O O5 0.674483 0.314736 0.270832
O O6 0.647630 0.319733 0.478364
O O7 0.574636 0.271663 0.337594
O O8 0.779109 0.170625 0.850003
O O9 0.892966 0.168482 0.866269
O O10 0.833593 0.216870 0.026137
O O11 0.820883 0.105623 0.003064
O O12 0.218767 0.697348 0.148308
O O13 0.270540 0.600019 0.192520
O O14 0.895162 0.214118 0.667713
O O15 0.203120 0.000000 0.090472
O O16 0.500000 0.191951 0.269364
#
# Coordination Sequence:
#
# PCOD9368789 Si02
#       7
#    16  16  16  16  16  16  16
#     4   9  18  33  52  75 103 135 176 223 265 312
#     4  10  20  32  52  77 104 138 174 215 263 316
#     4  10  22  36  56  79 107 145 181 219 269 330
#     4  10  21  36  52  78 111 139 175 222 267 319
#     4  10  21  35  54  80 108 143 177 212 265 324
#     4  10  21  36  55  79 105 138 180 225 273 322
#     4  10  22  36  51  78 111 138 173 223 270 315
#
# _framework density 17.803443000000001
#
# number of rings (size 3 to 8) (size 9 to 14) (size 15 to 20)
#    0.000    2.143    0.000    3.000    0.000   16.571 
#    0.000    3.571    0.000    0.857    0.000    0.000 
#    0.000    0.000    0.000    0.000    0.000    0.000 
#
# Total GULP energy -156163.826480 kJ/mol
# GULP energy per Si atom -5577.279517 kJ/mol
# Density = 1.776292 g / cm^3
# Si number density = 17.803443 Si / 1000 Ang^3
#
#
#
# Elastic Constant Matrix: (Units=GPa)
#
#
# Indices 1 2 3 4 5 6 
#
# 1 105.5887 14.2923 23.5522 0.0000 0.0000 0.0000
# 2 14.2923 63.3715 19.7711 0.0000 0.0000 0.0000
# 3 23.5522 19.7711 94.0958 0.0000 0.0000 0.0000
# 4 0.0000 0.0000 0.0000 26.1370 0.0000 0.0000
# 5 0.0000 0.0000 0.0000 0.0000 13.8577 0.0000
# 6 0.0000 0.0000 0.0000 0.0000 0.0000 20.8972
#
#
#
# Elastic Compliance Matrix: (Units=1/GPa)
#
#
# Indices 1 2 3 4 5 6 
#
# 1 0.010181 -0.001606 -0.002211 0.000000 0.000000 0.000000
# 2 -0.001606 0.017140 -0.003199 0.000000 0.000000 0.000000
# 3 -0.002211 -0.003199 0.011853 0.000000 0.000000 0.000000
# 4 0.000000 0.000000 0.000000 0.038260 0.000000 0.000000
# 5 0.000000 0.000000 0.000000 0.000000 0.072162 0.000000
# 6 0.000000 0.000000 0.000000 0.000000 0.000000 0.047853
#
#
# Mechanical properties :
#
#
# Convention : Reuss Voigt Hill
#
# Bulk Modulus (GPa) = 39.77496 42.03191 40.90344
# Shear Modulus (GPa) = 22.74134 25.87441 24.30787
#
# Velocity S-wave (km/s) = 3.57789 3.81640 3.69907
# Velocity P-wave (km/s) = 6.28156 6.56354 6.42410
#
# Compressibility (1/GPa) = 0.02514144
#
# Stress axis : x y z
#
# Youngs Moduli (GPa) = 98.21935 58.34154 84.36618
#
# Poissons Ratio (x) = 0.09372 0.18652
# Poissons Ratio (y) = 0.15779 0.26992
# Poissons Ratio (z) = 0.21715 0.18666
#
# Static dielectric constant tensor:
#      x y z
#    x 1.617280 0.000000 0.000000 
#    y 0.000000 1.623060 0.000000 
#    z 0.000000 0.000000 1.620650 
# 
# From -- ./inp_files/9655.got.cif
#   From: 2010.05.17/outbox.cif.g08.bks.cpg/sg42_5_cif.got.tgz:9655.got - 2010.06.03 19:03:34.
