data_PCOD9368351
_publ_section_title
;
Structure prediction by ZEFSAII (Michael W. Deem and Ramdas Pophale) SiO2 
 PCOD9368351
Probable space group: F M M 2
;
_chemical_formula_sum "Si O2"
_cell_formula_units_Z 100
_cell_length_a 16.022190
_cell_length_b 18.743615
_cell_length_c 18.112729
_cell_angle_alpha 90.000000
_cell_angle_beta 90.000000
_cell_angle_gamma 90.000000
_cell_volume 5439.501765
_symmetry_space_group_name_H-M "F M M 2"
_symmetry_group_IT_number 42
_symmetry_cell_setting 'orthorhombic'
loop_
_space_group_symop_operation_xyz
x,y,z
-x,-y,z
-x,y,z
x,-y,z
x,1/2+y,1/2+z
-x,1/2-y,1/2+z
-x,1/2+y,1/2+z
x,1/2-y,1/2+z
1/2+x,y,1/2+z
1/2-x,-y,1/2+z
1/2-x,y,1/2+z
1/2+x,-y,1/2+z
1/2+x,1/2+y,z
1/2-x,1/2-y,z
1/2-x,1/2+y,z
1/2+x,1/2-y,z
loop_
_atom_site_type_symbol
_atom_site_label
_atom_site_fract_x
_atom_site_fract_y
_atom_site_fract_z
Si Si1 0.290740 0.082983 0.009060
Si Si2 0.168275 0.702333 0.526436
Si Si3 0.098386 0.328321 0.112556
Si Si4 0.405300 0.222875 0.371529
Si Si5 0.715119 0.670472 0.748428
Si Si6 0.500000 0.500000 0.334401
Si Si7 0.150545 0.114060 0.346965
O O1 0.209934 0.125667 0.039576
O O2 0.371182 0.122451 0.044552
O O3 0.289734 0.000000 0.027734
O O4 0.298492 0.091864 0.920647
O O5 0.250000 0.750000 0.506079
O O6 0.123188 0.746768 0.590754
O O7 0.108888 0.701655 0.456093
O O8 0.156367 0.351074 0.180883
O O9 0.000000 0.333942 0.125800
O O10 0.500000 0.211436 0.348496
O O11 0.342631 0.179866 0.320122
O O12 0.381800 0.305780 0.362287
O O13 0.750000 0.750000 0.731311
O O14 0.790290 0.620231 0.774939
O O15 0.573572 0.561762 0.336656
#
# Coordination Sequence:
#
# PCOD9368351 Si02
#       7
#    16  16  16  16  16   4  16
#     4  11  22  37  59  89 124 167 203 249 315 379
#     4  10  18  34  58  87 118 160 205 255 310 366
#     4  11  23  38  64  95 124 156 210 267 316 363
#     4  11  18  31  59  91 119 156 208 255 301 356
#     4  10  21  39  58  86 124 162 203 253 316 372
#     4  12  24  36  60  96 130 160 214 270 308 372
#     4  11  21  35  59  89 126 161 204 255 311 369
#
# _framework density 18.384036999999999
#
# number of rings (size 3 to 8) (size 9 to 14) (size 15 to 20)
#    0.000    1.280    6.400    2.880    1.120    0.320 
#    1.440    0.000    0.000    1.920    0.000    0.000 
#    0.000    0.000    0.000    0.000    0.000    0.000 
#
# Total GULP energy -139220.991181 kJ/mol
# GULP energy per Si atom -5568.839647 kJ/mol
# Density = 1.834219 g / cm^3
# Si number density = 18.384037 Si / 1000 Ang^3
#
#
#
# Elastic Constant Matrix: (Units=GPa)
#
#
# Indices 1 2 3 4 5 6 
#
# 1 104.9088 47.8522 29.9983 0.0000 0.0000 0.0000
# 2 47.8522 78.8826 16.0086 0.0000 0.0000 0.0000
# 3 29.9983 16.0086 72.0750 0.0000 0.0000 0.0000
# 4 0.0000 0.0000 0.0000 2.4199 0.0000 0.0000
# 5 0.0000 0.0000 0.0000 0.0000 13.2488 0.0000
# 6 0.0000 0.0000 0.0000 0.0000 0.0000 25.5520
#
#
#
# Elastic Compliance Matrix: (Units=1/GPa)
#
#
# Indices 1 2 3 4 5 6 
#
# 1 0.014306 -0.007823 -0.004217 0.000000 0.000000 0.000000
# 2 -0.007823 0.017553 -0.000643 0.000000 0.000000 0.000000
# 3 -0.004217 -0.000643 0.015772 0.000000 0.000000 0.000000
# 4 0.000000 0.000000 0.000000 0.413239 0.000000 0.000000
# 5 0.000000 0.000000 0.000000 0.000000 0.075479 0.000000
# 6 0.000000 0.000000 0.000000 0.000000 0.000000 0.039136
#
#
# Mechanical properties :
#
#
# Convention : Reuss Voigt Hill
#
# Bulk Modulus (GPa) = 44.91013 49.28718 47.09866
# Shear Modulus (GPa) = 8.22002 19.04463 13.63233
#
# Velocity S-wave (km/s) = 2.11683 3.22208 2.72606
# Velocity P-wave (km/s) = 5.51875 6.38047 5.96519
#
# Compressibility (1/GPa) = 0.02226669
#
# Stress axis : x y z
#
# Youngs Moduli (GPa) = 69.90061 56.97055 63.40231
#
# Poissons Ratio (x) = 0.44566 0.26736
# Poissons Ratio (y) = 0.54681 0.04076
# Poissons Ratio (z) = 0.29476 0.03662
#
# Static dielectric constant tensor:
#      x y z
#    x 1.624000 0.000000 0.000000 
#    y 0.000000 1.626320 0.000000 
#    z 0.000000 0.000000 1.663160 
# 
# From -- ./inp_files/20103.got.cif
#   From: 2010.05.17/outbox.cif.g08.bks.cpg/sg42_11_cif.got.tgz:20103.got - 2010.06.03 19:03:34.
