data_PCOD9368732
_publ_section_title
;
Structure prediction by ZEFSAII (Michael W. Deem and Ramdas Pophale) SiO2 
 PCOD9368732
Probable space group: F M M 2
;
_chemical_formula_sum "Si O2"
_cell_formula_units_Z 72
_cell_length_a 11.180999
_cell_length_b 20.031985
_cell_length_c 16.971400
_cell_angle_alpha 90.000000
_cell_angle_beta 90.000000
_cell_angle_gamma 90.000000
_cell_volume 3801.213513
_symmetry_space_group_name_H-M "F M M 2"
_symmetry_group_IT_number 42
_symmetry_cell_setting 'orthorhombic'
loop_
_space_group_symop_operation_xyz
x,y,z
-x,-y,z
-x,y,z
x,-y,z
x,1/2+y,1/2+z
-x,1/2-y,1/2+z
-x,1/2+y,1/2+z
x,1/2-y,1/2+z
1/2+x,y,1/2+z
1/2-x,-y,1/2+z
1/2-x,y,1/2+z
1/2+x,-y,1/2+z
1/2+x,1/2+y,z
1/2-x,1/2-y,z
1/2-x,1/2+y,z
1/2+x,1/2-y,z
loop_
_atom_site_type_symbol
_atom_site_label
_atom_site_fract_x
_atom_site_fract_y
_atom_site_fract_z
Si Si1 0.000000 0.000000 0.444230
Si Si2 0.000000 0.648236 0.997503
Si Si3 0.500000 0.500000 0.830152
Si Si4 0.000000 0.285326 0.825081
Si Si5 0.765146 0.000000 0.335517
Si Si6 0.801266 0.676174 0.123530
Si Si7 0.365546 0.387492 0.227943
Si Si8 0.000000 0.147100 0.753928
O O1 0.000000 0.068587 0.490785
O O2 0.122136 0.000000 0.393758
O O3 0.118190 0.666662 0.046694
O O4 0.000000 0.683295 0.912149
O O5 0.631323 0.500000 0.870781
O O6 0.500000 0.570342 0.781942
O O7 0.889094 0.318393 0.776329
O O8 0.000000 0.205461 0.820027
O O9 0.785094 0.936001 0.279839
O O10 0.750000 0.750000 0.123161
O O11 0.691109 0.627326 0.143286
O O12 0.887792 0.662558 0.197612
O O13 0.500000 0.416056 0.222142
#
# Coordination Sequence:
#
# PCOD9368732 Si02
#       8
#     4   8   4   8   8  16  16   8
#     4  12  22  49  70  92 143 194 226 292 346 425
#     4  11  26  41  68 101 134 188 230 278 358 420
#     4  12  26  35  62 116 137 160 230 314 336 383
#     4  10  20  42  66  97 118 181 233 266 347 420
#     4  12  20  39  70 102 134 173 233 284 332 422
#     4  11  22  41  62  97 137 167 226 296 340 401
#     4  10  19  36  72  94 123 171 229 271 336 406
#     4  11  22  39  68  92 135 173 225 286 352 405
#
# _framework density 18.941320000000001
#
# number of rings (size 3 to 8) (size 9 to 14) (size 15 to 20)
#    0.667    0.444    7.778    0.000    1.556    2.667 
#    8.000    0.000    2.444    0.000    0.000    0.000 
#    0.000    0.000    0.000    0.000    0.000    0.000 
#
# Total GULP energy -100258.370159 kJ/mol
# GULP energy per Si atom -5569.909453 kJ/mol
# Density = 1.889821 g / cm^3
# Si number density = 18.941320 Si / 1000 Ang^3
#
#
#
# Elastic Constant Matrix: (Units=GPa)
#
#
# Indices 1 2 3 4 5 6 
#
# 1 122.0366 20.6175 25.6802 0.0000 0.0000 0.0000
# 2 20.6175 131.1388 25.4784 0.0000 0.0000 0.0000
# 3 25.6802 25.4784 64.8567 0.0000 0.0000 0.0000
# 4 0.0000 0.0000 0.0000 21.4494 0.0000 0.0000
# 5 0.0000 0.0000 0.0000 0.0000 11.2698 0.0000
# 6 0.0000 0.0000 0.0000 0.0000 0.0000 28.2419
#
#
#
# Elastic Compliance Matrix: (Units=1/GPa)
#
#
# Indices 1 2 3 4 5 6 
#
# 1 0.009013 -0.000783 -0.003261 0.000000 0.000000 0.000000
# 2 -0.000783 0.008324 -0.002960 0.000000 0.000000 0.000000
# 3 -0.003261 -0.002960 0.017872 0.000000 0.000000 0.000000
# 4 0.000000 0.000000 0.000000 0.046621 0.000000 0.000000
# 5 0.000000 0.000000 0.000000 0.000000 0.088733 0.000000
# 6 0.000000 0.000000 0.000000 0.000000 0.000000 0.035408
#
#
# Mechanical properties :
#
#
# Convention : Reuss Voigt Hill
#
# Bulk Modulus (GPa) = 47.16768 51.28713 49.22740
# Shear Modulus (GPa) = 22.02193 28.60929 25.31561
#
# Velocity S-wave (km/s) = 3.41345 3.89062 3.65982
# Velocity P-wave (km/s) = 6.36330 6.87883 6.62608
#
# Compressibility (1/GPa) = 0.02120096
#
# Stress axis : x y z
#
# Youngs Moduli (GPa) = 110.95321 120.13883 55.95201
#
# Poissons Ratio (x) = 0.09412 0.18245
# Poissons Ratio (y) = 0.08693 0.16560
# Poissons Ratio (z) = 0.36180 0.35557
#
# Static dielectric constant tensor:
#      x y z
#    x 1.759030 0.000000 0.000000 
#    y 0.000000 1.658050 0.000000 
#    z 0.000000 0.000000 1.620320 
# 
# From -- ./inp_files/18855.got.cif
#   From: 2010.05.17/outbox.cif.g08.bks.cpg/sg42_10_cif.got.tgz:18855.got - 2010.06.03 19:03:34.
