data_PCOD9368095
_publ_section_title
;
Structure prediction by ZEFSAII (Michael W. Deem and Ramdas Pophale) SiO2 
 PCOD9368095
Probable space group: F M M 2
;
_chemical_formula_sum "Si O2"
_cell_formula_units_Z 88
_cell_length_a 15.466089
_cell_length_b 12.999761
_cell_length_c 20.392875
_cell_angle_alpha 90.000000
_cell_angle_beta 90.000000
_cell_angle_gamma 90.000000
_cell_volume 4100.098876
_symmetry_space_group_name_H-M "F M M 2"
_symmetry_group_IT_number 42
_symmetry_cell_setting 'orthorhombic'
loop_
_space_group_symop_operation_xyz
x,y,z
-x,-y,z
-x,y,z
x,-y,z
x,1/2+y,1/2+z
-x,1/2-y,1/2+z
-x,1/2+y,1/2+z
x,1/2-y,1/2+z
1/2+x,y,1/2+z
1/2-x,-y,1/2+z
1/2-x,y,1/2+z
1/2+x,-y,1/2+z
1/2+x,1/2+y,z
1/2-x,1/2-y,z
1/2-x,1/2+y,z
1/2+x,1/2-y,z
loop_
_atom_site_type_symbol
_atom_site_label
_atom_site_fract_x
_atom_site_fract_y
_atom_site_fract_z
Si Si1 0.150999 0.774215 0.284770
Si Si2 0.897084 0.786709 0.642903
Si Si3 0.095793 0.000000 0.289570
Si Si4 0.605332 0.882656 0.542199
Si Si5 0.632669 0.000000 0.941137
Si Si6 0.898969 0.779015 0.429787
Si Si7 0.598384 0.000000 0.091511
O O1 0.250000 0.750000 0.295059
O O2 0.117286 0.718621 0.220199
O O3 0.104004 0.750336 0.353189
O O4 0.140970 0.895302 0.270853
O O5 0.864183 0.686411 0.603783
O O6 0.860299 0.893356 0.614784
O O7 0.000000 0.787029 0.629823
O O8 0.089548 0.000000 0.368912
O O9 0.000000 0.000000 0.260769
O O10 0.500000 0.889956 0.545249
O O11 0.624254 0.814351 0.477653
O O12 0.638876 0.000000 0.540344
O O13 0.662699 0.120665 0.939150
O O14 0.593356 0.000000 0.013363
O O15 0.000000 0.808560 0.445190
O O16 0.500000 0.000000 0.118197
#
# Coordination Sequence:
#
# PCOD9368095 Si02
#       7
#    16  16   8  16   8  16   8
#     4  11  24  40  57  84 124 161 201 254 314 361
#     4  10  20  35  58  85 115 152 200 250 303 368
#     4  10  21  39  69  93 112 158 224 268 298 356
#     4   9  18  32  55  86 114 147 194 252 306 358
#     4  10  15  28  58  90 110 133 187 262 303 335
#     4  10  18  34  60  86 113 146 197 252 304 364
#     4  10  17  29  55  87 113 139 180 244 315 365
#
# _framework density 21.462897000000002
#
# number of rings (size 3 to 8) (size 9 to 14) (size 15 to 20)
#    0.000    2.000    1.818    4.364    1.273    0.727 
#    3.273    0.909    0.000    0.000    0.000    0.000 
#    0.000    0.000    0.000    0.000    0.000    0.000 
#
# Total GULP energy -122571.547173 kJ/mol
# GULP energy per Si atom -5571.433962 kJ/mol
# Density = 2.141405 g / cm^3
# Si number density = 21.462897 Si / 1000 Ang^3
#
#
#
# Elastic Constant Matrix: (Units=GPa)
#
#
# Indices 1 2 3 4 5 6 
#
# 1 41.9471 23.6645 -10.8481 0.0000 0.0000 0.0000
# 2 23.6645 144.3278 68.8671 0.0000 0.0000 0.0000
# 3 -10.8481 68.8671 136.2261 0.0000 0.0000 0.0000
# 4 0.0000 0.0000 0.0000 36.1929 0.0000 0.0000
# 5 0.0000 0.0000 0.0000 0.0000 -41.2424 0.0000
# 6 0.0000 0.0000 0.0000 0.0000 0.0000 3.3710
#
#
#
# Elastic Compliance Matrix: (Units=1/GPa)
#
#
# Indices 1 2 3 4 5 6 
#
# 1 0.030008 -0.007987 0.006427 0.000000 0.000000 0.000000
# 2 -0.007987 0.011257 -0.006327 0.000000 0.000000 0.000000
# 3 0.006427 -0.006327 0.011051 0.000000 0.000000 0.000000
# 4 0.000000 0.000000 0.000000 0.027630 0.000000 0.000000
# 5 0.000000 0.000000 0.000000 0.000000 -0.024247 0.000000
# 6 0.000000 0.000000 0.000000 0.000000 0.000000 0.296651
#
#
# Mechanical properties :
#
#
# Convention : Reuss Voigt Hill
#
# Bulk Modulus (GPa) = 27.36531 53.98534 40.67533
# Shear Modulus (GPa) = 13.14738 15.71880 14.43309
#
# Velocity S-wave (km/s) = 2.47769 2.70917 2.59601
# Velocity P-wave (km/s) = 4.57853 5.91554 5.28945
#
# Compressibility (1/GPa) = 0.03654261
#
# Stress axis : x y z
#
# Youngs Moduli (GPa) = 33.32487 88.83209 90.48911
#
# Poissons Ratio (x) = 0.70950 -0.58160
# Poissons Ratio (y) = 0.26617 0.57252
# Poissons Ratio (z) = -0.21419 0.56204
#
# Static dielectric constant tensor:
#      x y z
#    x 1.778150 0.000000 0.000000 
#    y 0.000000 1.812110 0.000000 
#    z 0.000000 0.000000 1.756500 
# 
# From -- ./inp_files/25819.got.cif
#   From: 2010.05.17/outbox.cif.g08.bks.cpg/sg42_13_cif.got.tgz:25819.got - 2010.06.03 19:03:34.
