data_PCOD9368342
_publ_section_title
;
Structure prediction by ZEFSAII (Michael W. Deem and Ramdas Pophale) SiO2 
 PCOD9368342
Probable space group: F M M 2
;
_chemical_formula_sum "Si O2"
_cell_formula_units_Z 116
_cell_length_a 31.373445
_cell_length_b 8.017827
_cell_length_c 25.426634
_cell_angle_alpha 90.000000
_cell_angle_beta 90.000000
_cell_angle_gamma 90.000000
_cell_volume 6395.989801
_symmetry_space_group_name_H-M "F M M 2"
_symmetry_group_IT_number 42
_symmetry_cell_setting 'orthorhombic'
loop_
_space_group_symop_operation_xyz
x,y,z
-x,-y,z
-x,y,z
x,-y,z
x,1/2+y,1/2+z
-x,1/2-y,1/2+z
-x,1/2+y,1/2+z
x,1/2-y,1/2+z
1/2+x,y,1/2+z
1/2-x,-y,1/2+z
1/2-x,y,1/2+z
1/2+x,-y,1/2+z
1/2+x,1/2+y,z
1/2-x,1/2-y,z
1/2-x,1/2+y,z
1/2+x,1/2-y,z
loop_
_atom_site_type_symbol
_atom_site_label
_atom_site_fract_x
_atom_site_fract_y
_atom_site_fract_z
Si Si1 0.561424 0.304575 0.073490
Si Si2 0.362591 0.799517 0.233534
Si Si3 0.702184 0.699187 0.323033
Si Si4 0.839739 0.692484 0.546417
Si Si5 0.547544 0.203149 0.193983
Si Si6 0.000000 0.500000 0.043038
Si Si7 0.297750 0.300907 0.442713
Si Si8 0.202353 0.808555 0.648026
O O1 0.550711 0.500000 0.060304
O O2 0.611191 0.281485 0.060972
O O3 0.553144 0.277608 0.135680
O O4 0.536327 0.151803 0.046436
O O5 0.335250 0.758091 0.284930
O O6 0.411647 0.742283 0.228212
O O7 0.334477 0.730181 0.184639
O O8 0.365450 0.000000 0.230271
O O9 0.701423 0.500000 0.324050
O O10 0.750000 0.750000 0.305397
O O11 0.696097 0.762344 0.382968
O O12 0.829032 0.500000 0.555375
O O13 0.829899 0.735307 0.486331
O O14 0.810612 0.791166 0.587427
O O15 0.500000 0.246873 0.213630
O O16 0.548355 0.000000 0.188311
O O17 0.300427 0.500000 0.441680
O O18 0.250000 0.250000 0.458859
O O19 0.250000 0.750000 0.657634
O O20 0.202385 0.000000 0.662790
#
# Coordination Sequence:
#
# PCOD9368342 Si02
#       8
#    16  16  16  16  16   4  16  16
#     4  11  22  35  56  85 114 151 194 235 289 348
#     4  10  21  34  54  81 111 147 186 228 283 340
#     4  10  21  37  57  81 108 144 189 237 285 338
#     4  11  23  36  54  82 113 145 188 234 279 339
#     4  10  18  34  56  81 112 149 187 233 287 341
#     4  12  22  36  60  78 120 156 186 244 288 338
#     4  10  21  37  58  80 108 145 189 237 287 338
#     4  11  22  34  50  73 113 154 188 220 275 341
#
# _framework density 18.136364
#
# number of rings (size 3 to 8) (size 9 to 14) (size 15 to 20)
#    0.000    1.517    2.759    2.690    1.931    4.414 
#    0.000    0.000    0.000    0.000    1.793    0.000 
#    0.000    0.000    0.000    0.000    0.000    0.000 
#
# Total GULP energy -161499.643178 kJ/mol
# GULP energy per Si atom -5568.953213 kJ/mol
# Density = 1.809509 g / cm^3
# Si number density = 18.136364 Si / 1000 Ang^3
#
#
#
# Elastic Constant Matrix: (Units=GPa)
#
#
# Indices 1 2 3 4 5 6 
#
# 1 162.9746 33.7157 57.3446 0.0000 0.0000 -0.0001
# 2 33.7157 53.6849 -1.6992 0.0001 0.0000 -0.0002
# 3 57.3446 -1.6992 58.2850 0.0000 0.0000 0.0000
# 4 0.0000 0.0001 0.0000 18.7076 0.0000 -0.0001
# 5 0.0000 0.0000 0.0000 0.0000 19.3391 0.0000
# 6 -0.0001 -0.0002 0.0000 -0.0001 0.0000 21.9357
#
#
#
# Elastic Compliance Matrix: (Units=1/GPa)
#
#
# Indices 1 2 3 4 5 6 
#
# 1 0.012018 -0.007929 -0.012055 0.000000 0.000000 0.000000
# 2 -0.007929 0.023876 0.008497 0.000000 0.000000 0.000000
# 3 -0.012055 0.008497 0.029266 0.000000 0.000000 0.000000
# 4 0.000000 0.000000 0.000000 0.053454 0.000000 0.000000
# 5 0.000000 0.000000 0.000000 0.000000 0.051709 0.000000
# 6 0.000000 0.000000 0.000000 0.000000 0.000000 0.045588
#
#
# Mechanical properties :
#
#
# Convention : Reuss Voigt Hill
#
# Bulk Modulus (GPa) = 23.70497 50.40741 37.05619
# Shear Modulus (GPa) = 19.76700 24.36871 22.06785
#
# Velocity S-wave (km/s) = 3.30496 3.66954 3.49201
# Velocity P-wave (km/s) = 5.25951 6.76816 6.06096
#
# Compressibility (1/GPa) = 0.04218524
#
# Stress axis : x y z
#
# Youngs Moduli (GPa) = 83.20746 41.88305 34.16975
#
# Poissons Ratio (x) = 0.33210 0.41193
# Poissons Ratio (y) = 0.65978 -0.29035
# Poissons Ratio (z) = 1.00310 -0.35590
#
# Static dielectric constant tensor:
#      x y z
#    x 1.642830 0.000000 0.000000 
#    y 0.000000 1.647280 0.000000 
#    z 0.000000 0.000000 1.619630 
# 
# From -- ./inp_files/33481.got.cif
#   From: 2010.05.17/outbox.cif.g08.bks.cpg/sg42_17_cif.got.tgz:33481.got - 2010.06.03 19:03:34.
