data_PCOD9368088
_publ_section_title
;
Structure prediction by ZEFSAII (Michael W. Deem and Ramdas Pophale) SiO2 
 PCOD9368088
Probable space group: A B A 2
;
_chemical_formula_sum "Si O2"
_cell_formula_units_Z 32
_cell_length_a 30.000000
_cell_length_b 9.000000
_cell_length_c 12.000000
_cell_angle_alpha 90.000000
_cell_angle_beta 90.000000
_cell_angle_gamma 90.000000
_cell_volume 3240.000000
_symmetry_space_group_name_H-M "A B A 2"
_symmetry_group_IT_number 41
_symmetry_cell_setting 'orthorhombic'
loop_
_space_group_symop_operation_xyz
x,y,z
-x,-y,z
1/2-x,y,1/2+z
1/2+x,-y,1/2+z
x,1/2+y,1/2+z
-x,1/2-y,1/2+z
1/2-x,1/2+y,z
1/2+x,1/2-y,z
loop_
_atom_site_type_symbol
_atom_site_label
_atom_site_fract_x
_atom_site_fract_y
_atom_site_fract_z
Si Si1 0.417277 0.822804 0.944150
Si Si2 0.385799 0.006776 0.547671
Si Si3 0.532653 0.629568 0.660745
Si Si4 0.036030 0.377568 0.715820
Si Si5 0.662091 0.949151 0.894238
Si Si6 0.704616 0.587803 0.184688
Si Si7 0.125590 0.864507 0.801359
Si Si8 0.302441 0.557181 0.648096
O O1 0.441823 0.799099 0.824711
O O2 0.378819 0.938351 0.912088
O O3 0.397824 0.677132 0.010062
O O4 0.449403 0.897251 0.035876
O O5 0.425071 0.942581 0.631761
O O6 0.337642 0.975838 0.609568
O O7 0.383105 0.930204 0.425488
O O8 0.500000 0.500000 0.702905
O O9 0.498217 0.766809 0.654705
O O10 0.577633 0.646930 0.736699
O O11 0.000000 0.500000 0.756708
O O12 0.646108 0.798043 0.831362
O O13 0.696030 0.027907 0.809401
O O14 0.681466 0.929904 0.019034
O O15 0.753941 0.526024 0.150845
O O16 0.702469 0.768788 0.184591
O O17 0.160867 0.964994 0.725696
#
# Coordination Sequence:
#
# PCOD9368088 Si02
#       8
#     8   8   8   8   8   8   8   8
#     4  12  25  47  74 104 152 200 249 314 375 448
#     4  12  27  47  76 109 155 198 251 317 379 450
#     4  12  27  42  73 107 148 198 257 310 374 447
#     4  12  26  48  72 109 149 201 256 307 379 449
#     4  12  26  49  82 109 153 201 245 310 379 453
#     4  12  28  51  79 113 152 195 251 309 381 455
#     4  12  27  50  75 112 153 200 253 311 383 448
#     4  12  29  51  78 115 152 196 251 311 379 457
#
# _framework density 9.8765429999999999
#
# number of rings (size 3 to 8) (size 9 to 14) (size 15 to 20)
#    0.000    0.000    5.000    4.125    8.750    1.500 
#    0.000    0.000    0.000    0.000    0.000    0.000 
#    0.000    0.000    0.000    0.000    0.000    0.000 
#
# Total GULP energy -178699.187233 kJ/mol
# GULP energy per Si atom -5584.349601 kJ/mol
# Density = 0.985406 g / cm^3
# Si number density = 9.876543 Si / 1000 Ang^3
#
#
#
# Elastic Constant Matrix: (Units=GPa)
#
#
# Indices 1 2 3 4 5 6 
#
# 1 164.0466 55.9336 53.9682 0.0000 0.0000 0.0000
# 2 55.9336 133.2824 32.4048 0.0000 0.0000 0.0000
# 3 53.9682 32.4048 149.1148 0.0000 0.0000 0.0000
# 4 0.0000 0.0000 0.0000 45.1692 0.0000 0.0000
# 5 0.0000 0.0000 0.0000 0.0000 48.1351 0.0000
# 6 0.0000 0.0000 0.0000 0.0000 0.0000 42.4719
#
#
#
# Elastic Compliance Matrix: (Units=1/GPa)
#
#
# Indices 1 2 3 4 5 6 
#
# 1 0.007750 -0.002714 -0.002215 0.000000 0.000000 0.000000
# 2 -0.002714 0.008872 -0.000946 0.000000 0.000000 0.000000
# 3 -0.002215 -0.000946 0.007713 0.000000 0.000000 0.000000
# 4 0.000000 0.000000 0.000000 0.022139 0.000000 0.000000
# 5 0.000000 0.000000 0.000000 0.000000 0.020775 0.000000
# 6 0.000000 0.000000 0.000000 0.000000 0.000000 0.023545
#
#
# Mechanical properties :
#
#
# Convention : Reuss Voigt Hill
#
# Bulk Modulus (GPa) = 79.45520 81.22855 80.34188
# Shear Modulus (GPa) = 46.84353 47.43105 47.13729
#
# Velocity S-wave (km/s) = 4.87504 4.90552 4.89030
# Velocity P-wave (km/s) = 8.48525 8.56135 8.52339
#
# Compressibility (1/GPa) = 0.01258571
#
# Stress axis : x y z
#
# Youngs Moduli (GPa) = 129.03476 112.71826 129.64322
#
# Poissons Ratio (x) = 0.30589 0.28717
# Poissons Ratio (y) = 0.35017 0.12261
# Poissons Ratio (z) = 0.28583 0.10661
#
# Static dielectric constant tensor:
#      x y z
#    x 1.688090 0.000000 0.000000 
#    y 0.000000 1.779340 0.000000 
#    z 0.000000 0.000000 1.693210 
# 
# From -- ./inp_files/6678.got.cif
#   From: 2010.05.17/outbox.ucp.g08.bks.cvg/sg41_4_cif.got.tgz:6678.got - 2010.06.11 16:28:22.
