data_PCOD9368821
_publ_section_title
;
Structure prediction by ZEFSAII (Michael W. Deem and Ramdas Pophale) SiO2 
 PCOD9368821
Probable space group: F M M 2
;
_chemical_formula_sum "Si O2"
_cell_formula_units_Z 80
_cell_length_a 8.567236
_cell_length_b 16.774580
_cell_length_c 29.311419
_cell_angle_alpha 90.000000
_cell_angle_beta 90.000000
_cell_angle_gamma 90.000000
_cell_volume 4212.396365
_symmetry_space_group_name_H-M "F M M 2"
_symmetry_group_IT_number 42
_symmetry_cell_setting 'orthorhombic'
loop_
_space_group_symop_operation_xyz
x,y,z
-x,-y,z
-x,y,z
x,-y,z
x,1/2+y,1/2+z
-x,1/2-y,1/2+z
-x,1/2+y,1/2+z
x,1/2-y,1/2+z
1/2+x,y,1/2+z
1/2-x,-y,1/2+z
1/2-x,y,1/2+z
1/2+x,-y,1/2+z
1/2+x,1/2+y,z
1/2-x,1/2-y,z
1/2-x,1/2+y,z
1/2+x,1/2-y,z
loop_
_atom_site_type_symbol
_atom_site_label
_atom_site_fract_x
_atom_site_fract_y
_atom_site_fract_z
Si Si1 0.688480 0.163717 0.369320
Si Si2 0.821805 0.590377 0.277825
Si Si3 0.813777 0.664174 0.051408
Si Si4 0.186421 0.500000 0.098990
Si Si5 0.818087 0.500000 0.699139
Si Si6 0.688295 0.410024 0.963262
O O1 0.500000 0.162270 0.366283
O O2 0.750000 0.250000 0.381845
O O3 0.747370 0.141617 0.318722
O O4 0.733021 0.106453 0.410918
O O5 0.830714 0.500000 0.297477
O O6 0.728428 0.575487 0.231248
O O7 0.000000 0.615094 0.267216
O O8 0.750000 0.750000 0.067305
O O9 0.754752 0.583798 0.077361
O O10 0.000000 0.666373 0.055201
O O11 0.764464 0.649944 0.998952
O O12 0.224355 0.500000 0.152480
O O13 0.000000 0.500000 0.092053
O O14 0.000000 0.500000 0.689685
O O15 0.500000 0.403126 0.966394
O O16 0.733742 0.500000 0.975902
#
# Coordination Sequence:
#
# PCOD9368821 Si02
#       6
#    16  16  16   8   8  16
#     4  10  20  33  51  78 113 153 191 232 279 336
#     4   8  16  34  56  74 101 143 183 220 272 334
#     4  11  23  40  61  88 121 156 197 243 293 350
#     4  10  22  42  63  84 115 155 194 235 297 360
#     4  10  20  34  59  88 109 133 180 239 289 342
#     4  10  20  35  57  84 115 154 199 240 285 342
#
# _framework density 18.991564
#
# number of rings (size 3 to 8) (size 9 to 14) (size 15 to 20)
#    0.600    1.600    1.000    2.400    0.000    7.200 
#    0.000    1.000    0.000    0.000    0.000    0.000 
#    0.000    0.000    0.000    0.000    0.000    0.000 
#
# Total GULP energy -111382.000691 kJ/mol
# GULP energy per Si atom -5569.100035 kJ/mol
# Density = 1.894834 g / cm^3
# Si number density = 18.991564 Si / 1000 Ang^3
#
#
#
# Elastic Constant Matrix: (Units=GPa)
#
#
# Indices 1 2 3 4 5 6 
#
# 1 11.6539 17.9452 1.3232 0.0000 0.0000 0.0000
# 2 17.9452 104.5349 35.7668 0.0000 0.0000 0.0000
# 3 1.3232 35.7668 86.0445 0.0000 0.0000 0.0000
# 4 0.0000 0.0000 0.0000 15.6560 0.0000 0.0000
# 5 0.0000 0.0000 0.0000 0.0000 23.4371 0.0000
# 6 0.0000 0.0000 0.0000 0.0000 0.0000 24.1246
#
#
#
# Elastic Compliance Matrix: (Units=1/GPa)
#
#
# Indices 1 2 3 4 5 6 
#
# 1 0.121081 -0.023489 0.007902 0.000000 0.000000 0.000000
# 2 -0.023489 0.015709 -0.006169 0.000000 0.000000 0.000000
# 3 0.007902 -0.006169 0.014065 0.000000 0.000000 0.000000
# 4 0.000000 0.000000 0.000000 0.063873 0.000000 0.000000
# 5 0.000000 0.000000 0.000000 0.000000 0.042667 0.000000
# 6 0.000000 0.000000 0.000000 0.000000 0.000000 0.041451
#
#
# Mechanical properties :
#
#
# Convention : Reuss Voigt Hill
#
# Bulk Modulus (GPa) = 9.31594 34.70041 22.00817
# Shear Modulus (GPa) = 13.22260 22.45673 17.83966
#
# Velocity S-wave (km/s) = 2.64149 3.44242 3.06820
# Velocity P-wave (km/s) = 3.77084 5.84050 4.91583
#
# Compressibility (1/GPa) = 0.10734284
#
# Stress axis : x y z
#
# Youngs Moduli (GPa) = 8.25891 63.65702 71.10056
#
# Poissons Ratio (x) = 1.49526 -0.56184
# Poissons Ratio (y) = 0.19400 0.43860
# Poissons Ratio (z) = -0.06526 0.39268
#
# Static dielectric constant tensor:
#      x y z
#    x 1.647680 0.000000 0.000000 
#    y 0.000000 1.688430 0.000000 
#    z 0.000000 0.000000 1.647100 
# 
# From -- ./inp_files/33596.got.cif
#   From: 2010.05.17/outbox.cif.g08.bks.cpg/sg42_17_cif.got.tgz:33596.got - 2010.06.03 19:03:34.
