data_PCOD9368038
_publ_section_title
;
Structure prediction by ZEFSAII (Michael W. Deem and Ramdas Pophale) SiO2 
 PCOD9368038
Probable space group: A B A 2
;
_chemical_formula_sum "Si O2"
_cell_formula_units_Z 32
_cell_length_a 13.756421
_cell_length_b 12.606619
_cell_length_c 7.039832
_cell_angle_alpha 90.000000
_cell_angle_beta 90.000000
_cell_angle_gamma 90.000000
_cell_volume 1220.861452
_symmetry_space_group_name_H-M "A B A 2"
_symmetry_group_IT_number 41
_symmetry_cell_setting 'orthorhombic'
loop_
_space_group_symop_operation_xyz
x,y,z
-x,-y,z
1/2-x,y,1/2+z
1/2+x,-y,1/2+z
x,1/2+y,1/2+z
-x,1/2-y,1/2+z
1/2-x,1/2+y,z
1/2+x,1/2-y,z
loop_
_atom_site_type_symbol
_atom_site_label
_atom_site_fract_x
_atom_site_fract_y
_atom_site_fract_z
Si Si1 0.315272 0.567452 0.781020
Si Si2 0.819174 0.585603 0.980962
Si Si3 0.862091 0.737500 0.507921
Si Si4 0.416273 0.208103 0.576223
O O1 0.214482 0.508545 0.840102
O O2 0.365513 0.474576 0.660473
O O3 0.320144 0.667669 0.638345
O O4 0.375698 0.226698 0.788349
O O5 0.887357 0.686693 0.953601
O O6 0.716424 0.644140 0.020908
O O7 0.968243 0.702142 0.572775
O O8 0.869966 0.891271 0.966796
#
# Coordination Sequence:
#
# PCOD9368038 Si02
#       4
#     8   8   8   8
#     4  12  28  49  80 118 156 217 272 334 406 483
#     4  12  28  50  80 114 166 214 268 336 406 480
#     4  12  28  53  82 119 167 213 271 341 408 488
#     4  12  28  53  82 119 167 213 271 341 408 488
#
# _framework density 26.211001
#
# number of rings (size 3 to 8) (size 9 to 14) (size 15 to 20)
#    0.000    0.000    5.000    3.000   10.500    4.000 
#    0.000    2.500    0.000    0.000    0.000    0.000 
#    0.000    0.000    0.000    0.000    0.000    0.000 
#
# Total GULP energy -89535.360234 kJ/mol
# GULP energy per Si atom -5595.960015 kJ/mol
# Density = 2.615134 g / cm^3
# Si number density = 26.211001 Si / 1000 Ang^3
#
#
#
# Elastic Constant Matrix: (Units=GPa)
#
#
# Indices 1 2 3 4 5 6 
#
# 1 117.5577 24.5866 75.3267 0.0000 0.0000 0.0000
# 2 24.5866 146.1786 83.4963 0.0000 0.0000 0.0000
# 3 75.3267 83.4963 166.2493 0.0000 0.0000 0.0000
# 4 0.0000 0.0000 0.0000 77.5746 0.0000 0.0000
# 5 0.0000 0.0000 0.0000 0.0000 36.6241 0.0000
# 6 0.0000 0.0000 0.0000 0.0000 0.0000 -8.2366
#
#
#
# Elastic Compliance Matrix: (Units=1/GPa)
#
#
# Indices 1 2 3 4 5 6 
#
# 1 0.012233 0.001554 -0.006323 0.000000 0.000000 0.000000
# 2 0.001554 0.009790 -0.005621 0.000000 0.000000 0.000000
# 3 -0.006323 -0.005621 0.011703 0.000000 0.000000 0.000000
# 4 0.000000 0.000000 0.000000 0.012891 0.000000 0.000000
# 5 0.000000 0.000000 0.000000 0.000000 0.027304 0.000000
# 6 0.000000 0.000000 0.000000 0.000000 0.000000 -0.121409
#
#
# Mechanical properties :
#
#
# Convention : Reuss Voigt Hill
#
# Bulk Modulus (GPa) = 77.24320 88.53387 82.88853
# Shear Modulus (GPa) = -223.31390 37.63080 -92.84155
#
# Velocity S-wave (km/s) = -9.24032 3.79316 -5.95800
# Velocity P-wave (km/s) = 9.18210 7.28250 3.95450
#
# Compressibility (1/GPa) = 0.01294612
#
# Stress axis : x y z
#
# Youngs Moduli (GPa) = 81.74467 102.14094 85.44509
#
# Poissons Ratio (x) = -0.15876 0.54031
# Poissons Ratio (y) = -0.12706 0.48032
# Poissons Ratio (z) = 0.51691 0.57417
#
# Static dielectric constant tensor:
#      x y z
#    x 2.004600 0.000000 0.000000 
#    y 0.000000 2.004130 0.000000 
#    z 0.000000 0.000000 2.225440 
# 
# From -- ./inp_files/2294.got.cif
#   From: 2010.05.17/outbox.cif.g08.bks.cpg/sg41_2_cif.got.tgz:2294.got - 2010.06.03 18:54:24.
