data_PCOD9368761
_publ_section_title
;
Structure prediction by ZEFSAII (Michael W. Deem and Ramdas Pophale) SiO2 
 PCOD9368761
Probable space group: F M M 2
;
_chemical_formula_sum "Si O2"
_cell_formula_units_Z 88
_cell_length_a 10.979420
_cell_length_b 14.450532
_cell_length_c 24.723542
_cell_angle_alpha 90.000000
_cell_angle_beta 90.000000
_cell_angle_gamma 90.000000
_cell_volume 3922.599101
_symmetry_space_group_name_H-M "F M M 2"
_symmetry_group_IT_number 42
_symmetry_cell_setting 'orthorhombic'
loop_
_space_group_symop_operation_xyz
x,y,z
-x,-y,z
-x,y,z
x,-y,z
x,1/2+y,1/2+z
-x,1/2-y,1/2+z
-x,1/2+y,1/2+z
x,1/2-y,1/2+z
1/2+x,y,1/2+z
1/2-x,-y,1/2+z
1/2-x,y,1/2+z
1/2+x,-y,1/2+z
1/2+x,1/2+y,z
1/2-x,1/2-y,z
1/2-x,1/2+y,z
1/2+x,1/2-y,z
loop_
_atom_site_type_symbol
_atom_site_label
_atom_site_fract_x
_atom_site_fract_y
_atom_site_fract_z
Si Si1 0.723926 0.389214 0.511490
Si Si2 0.633868 0.390650 0.911771
Si Si3 0.734484 0.607700 0.132611
Si Si4 0.250000 0.750000 0.337258
Si Si5 0.000000 0.319844 0.810081
Si Si6 0.000000 0.112176 0.435627
Si Si7 0.000000 0.181183 0.197259
Si Si8 0.000000 0.395522 0.190360
O O1 0.703844 0.500000 0.516442
O O2 0.841552 0.373271 0.474533
O O3 0.743284 0.355343 0.571815
O O4 0.614405 0.356349 0.472581
O O5 0.500000 0.358169 0.896627
O O6 0.643752 0.500000 0.903234
O O7 0.728022 0.338205 0.874838
O O8 0.694694 0.500000 0.129093
O O9 0.624436 0.659079 0.163915
O O10 0.869837 0.605847 0.158881
O O11 0.372760 0.733870 0.305665
O O12 0.000000 0.358050 0.872410
O O13 0.000000 0.376736 0.753753
O O14 0.000000 0.000000 0.434055
O O15 0.000000 0.290572 0.212678
O O16 0.000000 0.500000 0.217976
#
# Coordination Sequence:
#
# PCOD9368761 Si02
#       8
#    16  16  16   8   8   8   8   8
#     4   9  18  35  64  98 138 177 221 278 344 417
#     4  10  21  39  63  95 137 178 221 275 344 421
#     4  10  22  43  70 102 140 183 229 288 353 420
#     4  12  24  46  66  98 132 182 234 286 346 416
#     4  12  28  43  69  95 144 188 232 298 354 413
#     4  10  19  38  68 105 140 184 232 283 352 421
#     4  12  27  46  69 102 140 178 245 298 357 409
#     4  10  23  47  70  90 128 182 240 289 354 433
#
# _framework density 22.434104999999999
#
# number of rings (size 3 to 8) (size 9 to 14) (size 15 to 20)
#    0.000    1.636    2.727    1.364    3.818    2.909 
#    3.273    0.909    0.000    0.000    0.000    0.000 
#    0.000    0.000    0.000    0.000    0.000    0.000 
#
# Total GULP energy -122595.556450 kJ/mol
# GULP energy per Si atom -5572.525293 kJ/mol
# Density = 2.238304 g / cm^3
# Si number density = 22.434105 Si / 1000 Ang^3
#
#
#
# Elastic Constant Matrix: (Units=GPa)
#
#
# Indices 1 2 3 4 5 6 
#
# 1 172.1083 30.2858 71.1027 0.0000 0.0000 0.0000
# 2 30.2858 97.1107 31.8815 0.0000 0.0000 0.0000
# 3 71.1027 31.8815 149.6503 0.0000 0.0000 0.0000
# 4 0.0000 0.0000 0.0000 11.6732 0.0000 0.0000
# 5 0.0000 0.0000 0.0000 0.0000 1.0196 0.0000
# 6 0.0000 0.0000 0.0000 0.0000 0.0000 30.9841
#
#
#
# Elastic Compliance Matrix: (Units=1/GPa)
#
#
# Indices 1 2 3 4 5 6 
#
# 1 0.007364 -0.001234 -0.003236 0.000000 0.000000 0.000000
# 2 -0.001234 0.011279 -0.001816 0.000000 0.000000 0.000000
# 3 -0.003236 -0.001816 0.008607 0.000000 0.000000 0.000000
# 4 0.000000 0.000000 0.000000 0.085667 0.000000 0.000000
# 5 0.000000 0.000000 0.000000 0.000000 0.980808 0.000000
# 6 0.000000 0.000000 0.000000 0.000000 0.000000 0.032275
#
#
# Mechanical properties :
#
#
# Convention : Reuss Voigt Hill
#
# Bulk Modulus (GPa) = 68.13653 76.15660 72.14657
# Shear Modulus (GPa) = 4.37268 27.77532 16.07400
#
# Velocity S-wave (km/s) = 1.39762 3.52246 2.67965
# Velocity P-wave (km/s) = 5.74824 7.11085 6.46554
#
# Compressibility (1/GPa) = 0.01467641
#
# Stress axis : x y z
#
# Youngs Moduli (GPa) = 135.78840 88.66200 116.18808
#
# Poissons Ratio (x) = 0.10944 0.37599
# Poissons Ratio (y) = 0.16761 0.21104
# Poissons Ratio (z) = 0.43942 0.16104
#
# Static dielectric constant tensor:
#      x y z
#    x 1.883970 0.000000 0.000000 
#    y 0.000000 1.877000 0.000000 
#    z 0.000000 0.000000 1.824050 
# 
# From -- ./inp_files/28772.got.cif
#   From: 2010.05.17/outbox.cif.g08.bks.cpg/sg42_15_cif.got.tgz:28772.got - 2010.06.03 19:03:34.
