data_PCOD9368073
_publ_section_title
;
Structure prediction by ZEFSAII (Michael W. Deem and Ramdas Pophale) SiO2 
 PCOD9368073
Probable space group: A B A 2
;
_chemical_formula_sum "Si O2"
_cell_formula_units_Z 32
_cell_length_a 12.000000
_cell_length_b 30.000000
_cell_length_c 9.000000
_cell_angle_alpha 90.000000
_cell_angle_beta 90.000000
_cell_angle_gamma 90.000000
_cell_volume 3240.000000
_symmetry_space_group_name_H-M "A B A 2"
_symmetry_group_IT_number 41
_symmetry_cell_setting 'orthorhombic'
loop_
_space_group_symop_operation_xyz
x,y,z
-x,-y,z
1/2-x,y,1/2+z
1/2+x,-y,1/2+z
x,1/2+y,1/2+z
-x,1/2-y,1/2+z
1/2-x,1/2+y,z
1/2+x,1/2-y,z
loop_
_atom_site_type_symbol
_atom_site_label
_atom_site_fract_x
_atom_site_fract_y
_atom_site_fract_z
Si Si1 0.376404 0.445312 0.896610
Si Si2 0.356618 0.266953 0.293165
Si Si3 0.863693 0.448602 0.371981
Si Si4 0.483047 0.658830 0.298901
Si Si5 0.668096 0.688641 0.617920
Si Si6 0.419991 0.175372 0.136206
Si Si7 0.778509 0.895663 0.156447
Si Si8 0.690687 0.104211 0.693493
O O1 0.504773 0.438307 0.841829
O O2 0.358356 0.498643 0.903947
O O3 0.283302 0.422070 0.790813
O O4 0.362321 0.425507 0.062633
O O5 0.458048 0.297529 0.227224
O O6 0.350479 0.282665 0.466386
O O7 0.236409 0.280428 0.229695
O O8 0.379217 0.217492 0.233543
O O9 0.823717 0.416275 0.504244
O O10 0.773018 0.437186 0.246396
O O11 0.434987 0.676360 0.456399
O O12 0.381440 0.632626 0.223501
O O13 0.590483 0.624877 0.296045
O O14 0.550180 0.671088 0.679984
O O15 0.747304 0.645212 0.608885
O O16 0.328427 0.137027 0.154076
#
# Coordination Sequence:
#
# PCOD9368073 Si02
#       8
#     8   8   8   8   8   8   8   8
#     4  11  23  42  69 103 131 178 220 290 337 416
#     4  10  24  40  64  92 132 167 223 286 323 407
#     4  11  25  42  65 100 140 169 233 272 347 414
#     4  10  23  44  64  97 129 176 223 271 341 403
#     4  10  23  42  62  96 126 169 224 276 334 402
#     4  11  24  40  66  93 133 172 225 274 333 408
#     4  12  23  44  67  93 136 183 214 285 338 416
#     4  11  21  44  74  94 136 174 225 278 349 407
#
# _framework density 9.8765429999999999
#
# number of rings (size 3 to 8) (size 9 to 14) (size 15 to 20)
#    0.000    1.250    2.500    3.750    3.500    1.000 
#    2.250    0.000    0.000    0.000    0.000    0.000 
#    0.000    0.000    0.000    0.000    0.000    0.000 
#
# Total GULP energy -178352.399678 kJ/mol
# GULP energy per Si atom -5573.512490 kJ/mol
# Density = 0.985406 g / cm^3
# Si number density = 9.876543 Si / 1000 Ang^3
#
#
#
# Elastic Constant Matrix: (Units=GPa)
#
#
# Indices 1 2 3 4 5 6 
#
# 1 118.9437 25.2359 19.9297 0.0000 0.0000 0.0000
# 2 25.2359 91.2215 13.2899 0.0000 0.0000 0.0000
# 3 19.9297 13.2899 45.1626 0.0000 0.0000 0.0000
# 4 0.0000 0.0000 0.0000 31.2465 0.0000 0.0000
# 5 0.0000 0.0000 0.0000 0.0000 35.6922 0.0000
# 6 0.0000 0.0000 0.0000 0.0000 0.0000 39.1353
#
#
#
# Elastic Compliance Matrix: (Units=1/GPa)
#
#
# Indices 1 2 3 4 5 6 
#
# 1 0.009447 -0.002096 -0.003552 0.000000 0.000000 0.000000
# 2 -0.002096 0.011918 -0.002582 0.000000 0.000000 0.000000
# 3 -0.003552 -0.002582 0.024470 0.000000 0.000000 0.000000
# 4 0.000000 0.000000 0.000000 0.032004 0.000000 0.000000
# 5 0.000000 0.000000 0.000000 0.000000 0.028017 0.000000
# 6 0.000000 0.000000 0.000000 0.000000 0.000000 0.025552
#
#
# Mechanical properties :
#
#
# Convention : Reuss Voigt Hill
#
# Bulk Modulus (GPa) = 34.04328 41.35987 37.70158
# Shear Modulus (GPa) = 31.71365 34.33962 33.02663
#
# Velocity S-wave (km/s) = 4.01122 4.17399 4.09341
# Velocity P-wave (km/s) = 6.22294 6.64932 6.43966
#
# Compressibility (1/GPa) = 0.02937437
#
# Stress axis : x y z
#
# Youngs Moduli (GPa) = 105.85120 83.90399 40.86701
#
# Poissons Ratio (x) = 0.17586 0.14517
# Poissons Ratio (y) = 0.22187 0.10553
# Poissons Ratio (z) = 0.37600 0.21666
#
# Static dielectric constant tensor:
#      x y z
#    x 1.697190 0.000000 0.000000 
#    y 0.000000 1.716490 0.000000 
#    z 0.000000 0.000000 1.723810 
# 
# From -- ./inp_files/2216.got.cif
#   From: 2010.05.17/outbox.ucp.g08.bks.cvg/sg41_2_cif.got.tgz:2216.got - 2010.06.11 16:28:22.
