data_PCOD9368244
_publ_section_title
;
Structure prediction by ZEFSAII (Michael W. Deem and Ramdas Pophale) SiO2 
 PCOD9368244
Probable space group: F M M 2
;
_chemical_formula_sum "Si O2"
_cell_formula_units_Z 128
_cell_length_a 18.707080
_cell_length_b 19.704945
_cell_length_c 20.596773
_cell_angle_alpha 90.000000
_cell_angle_beta 90.000000
_cell_angle_gamma 90.000000
_cell_volume 7592.423297
_symmetry_space_group_name_H-M "F M M 2"
_symmetry_group_IT_number 42
_symmetry_cell_setting 'orthorhombic'
loop_
_space_group_symop_operation_xyz
x,y,z
-x,-y,z
-x,y,z
x,-y,z
x,1/2+y,1/2+z
-x,1/2-y,1/2+z
-x,1/2+y,1/2+z
x,1/2-y,1/2+z
1/2+x,y,1/2+z
1/2-x,-y,1/2+z
1/2-x,y,1/2+z
1/2+x,-y,1/2+z
1/2+x,1/2+y,z
1/2-x,1/2-y,z
1/2-x,1/2+y,z
1/2+x,1/2-y,z
loop_
_atom_site_type_symbol
_atom_site_label
_atom_site_fract_x
_atom_site_fract_y
_atom_site_fract_z
Si Si1 0.293298 0.574859 0.095010
Si Si2 0.187389 0.422381 0.210701
Si Si3 0.415606 0.200559 0.832171
Si Si4 0.668242 0.274577 0.459090
Si Si5 0.693234 0.921824 0.817243
Si Si6 0.711210 0.075578 0.964644
Si Si7 0.916153 0.299258 0.209622
Si Si8 0.332472 0.722625 0.098125
O O1 0.177190 0.500000 0.972341
O O2 0.221393 0.579945 0.138527
O O3 0.335821 0.642440 0.111912
O O4 0.272557 0.577904 0.019034
O O5 0.166443 0.500000 0.224022
O O6 0.251265 0.404482 0.260585
O O7 0.124164 0.369987 0.218872
O O8 0.500000 0.187783 0.840672
O O9 0.380996 0.233524 0.896528
O O10 0.371365 0.131374 0.819545
O O11 0.405478 0.250920 0.771806
O O12 0.750000 0.250000 0.444872
O O13 0.667844 0.355216 0.475877
O O14 0.645691 0.235865 0.523882
O O15 0.730810 0.919374 0.888418
O O16 0.669837 0.000000 0.807307
O O17 0.824304 0.000000 0.109265
O O18 0.880173 0.263098 0.148240
O O19 0.000000 0.308832 0.199735
O O20 0.250000 0.750000 0.103489
#
# Coordination Sequence:
#
# PCOD9368244 Si02
#       8
#    16  16  16  16  16  16  16  16
#     4  10  18  30  51  80 108 132 170 222 266 307
#     4  10  20  34  54  79 104 138 180 221 265 317
#     4  10  23  36  51  78 110 144 179 217 270 324
#     4  10  19  32  53  80 103 136 181 219 266 317
#     4   9  19  33  54  80 104 138 181 219 263 315
#     4   9  16  28  46  75 107 128 160 215 262 309
#     4  11  24  37  52  78 109 144 179 218 273 328
#     4  11  19  34  56  82 105 138 179 223 266 313
#
# _framework density 16.858912
#
# number of rings (size 3 to 8) (size 9 to 14) (size 15 to 20)
#    0.000    2.000    3.750    0.750    3.500    1.000 
#    0.000    0.000    0.000    1.125    0.000    5.250 
#    0.000    0.000    0.000    0.250    0.000    0.000 
#
# Total GULP energy -178269.113684 kJ/mol
# GULP energy per Si atom -5570.909803 kJ/mol
# Density = 1.682054 g / cm^3
# Si number density = 16.858912 Si / 1000 Ang^3
#
#
#
# Elastic Constant Matrix: (Units=GPa)
#
#
# Indices 1 2 3 4 5 6 
#
# 1 89.6357 59.5590 66.4497 0.0000 0.0000 0.0000
# 2 59.5590 106.2307 39.4246 0.0000 0.0000 0.0000
# 3 66.4497 39.4246 91.7114 0.0000 0.0000 0.0000
# 4 0.0000 0.0000 0.0000 23.1399 0.0000 0.0000
# 5 0.0000 0.0000 0.0000 0.0000 14.4452 0.0000
# 6 0.0000 0.0000 0.0000 0.0000 0.0000 17.3749
#
#
#
# Elastic Compliance Matrix: (Units=1/GPa)
#
#
# Indices 1 2 3 4 5 6 
#
# 1 0.032541 -0.011296 -0.018722 0.000000 0.000000 0.000000
# 2 -0.011296 0.015122 0.001684 0.000000 0.000000 0.000000
# 3 -0.018722 0.001684 0.023745 0.000000 0.000000 0.000000
# 4 0.000000 0.000000 0.000000 0.043215 0.000000 0.000000
# 5 0.000000 0.000000 0.000000 0.000000 0.069227 0.000000
# 6 0.000000 0.000000 0.000000 0.000000 0.000000 0.057554
#
#
# Mechanical properties :
#
#
# Convention : Reuss Voigt Hill
#
# Bulk Modulus (GPa) = 67.84278 68.71604 68.27941
# Shear Modulus (GPa) = 16.50244 19.13497 17.81870
#
# Velocity S-wave (km/s) = 3.13206 3.37264 3.25457
# Velocity P-wave (km/s) = 7.30812 7.48427 7.39672
#
# Compressibility (1/GPa) = 0.01473996
#
# Stress axis : x y z
#
# Youngs Moduli (GPa) = 30.73017 66.12968 42.11478
#
# Poissons Ratio (x) = 0.74703 0.78846
# Poissons Ratio (y) = 0.34714 -0.07094
# Poissons Ratio (z) = 0.57532 -0.11139
#
# Static dielectric constant tensor:
#      x y z
#    x 1.530690 0.000000 0.000000 
#    y 0.000000 1.602730 0.000000 
#    z 0.000000 0.000000 1.583350 
# 
# From -- ./inp_files/26217.got.cif
#   From: 2010.05.17/outbox.cif.g08.bks.cpg/sg42_14_cif.got.tgz:26217.got - 2010.06.03 19:03:34.
