data_PCOD9368640
_publ_section_title
;
Structure prediction by ZEFSAII (Michael W. Deem and Ramdas Pophale) SiO2 
 PCOD9368640
Probable space group: F M M 2
;
_chemical_formula_sum "Si O2"
_cell_formula_units_Z 112
_cell_length_a 13.693372
_cell_length_b 14.506782
_cell_length_c 29.952947
_cell_angle_alpha 90.000000
_cell_angle_beta 90.000000
_cell_angle_gamma 90.000000
_cell_volume 5950.055947
_symmetry_space_group_name_H-M "F M M 2"
_symmetry_group_IT_number 42
_symmetry_cell_setting 'orthorhombic'
loop_
_space_group_symop_operation_xyz
x,y,z
-x,-y,z
-x,y,z
x,-y,z
x,1/2+y,1/2+z
-x,1/2-y,1/2+z
-x,1/2+y,1/2+z
x,1/2-y,1/2+z
1/2+x,y,1/2+z
1/2-x,-y,1/2+z
1/2-x,y,1/2+z
1/2+x,-y,1/2+z
1/2+x,1/2+y,z
1/2-x,1/2-y,z
1/2-x,1/2+y,z
1/2+x,1/2-y,z
loop_
_atom_site_type_symbol
_atom_site_label
_atom_site_fract_x
_atom_site_fract_y
_atom_site_fract_z
Si Si1 0.384999 0.402151 0.127590
Si Si2 0.617212 0.300780 0.656626
Si Si3 0.796862 0.895277 0.470487
Si Si4 0.721585 0.854794 0.067420
Si Si5 0.617959 0.108614 0.247508
Si Si6 0.115526 0.207191 0.936869
Si Si7 0.381606 0.106594 0.346175
O O1 0.500000 0.396821 0.118252
O O2 0.366104 0.500000 0.151318
O O3 0.358063 0.307591 0.152291
O O4 0.321758 0.401338 0.082820
O O5 0.500000 0.308979 0.656030
O O6 0.656629 0.351587 0.612324
O O7 0.654135 0.340514 0.703413
O O8 0.824153 0.894776 0.522883
O O9 0.857168 0.813795 0.446231
O O10 0.685021 0.858209 0.466781
O O11 0.806366 0.000000 0.453333
O O12 0.750000 0.750000 0.056713
O O13 0.500000 0.120106 0.247877
O O14 0.653435 0.136517 0.296921
O O15 0.637234 0.000000 0.243005
O O16 0.142125 0.174298 0.886670
O O17 0.000000 0.192919 0.944081
O O18 0.500000 0.103651 0.344303
O O19 0.350235 0.000000 0.354576
#
# Coordination Sequence:
#
# PCOD9368640 Si02
#       7
#    16  16  16  16  16  16  16
#     4   9  18  32  51  72  97 138 186 226 261 301
#     4   9  18  31  52  79 109 142 174 212 265 324
#     4  11  23  38  56  82 113 149 188 232 280 332
#     4  10  19  35  51  74 106 142 179 224 269 315
#     4   8  14  26  47  79 111 136 171 219 268 319
#     4  10  21  38  59  83 110 145 186 233 283 335
#     4   8  14  28  54  83 107 133 173 228 281 325
#
# _framework density 18.823353000000001
#
# number of rings (size 3 to 8) (size 9 to 14) (size 15 to 20)
#    0.000    2.714    1.429    1.714    0.000    3.429 
#    0.000    0.000    9.429    0.857    0.000    4.000 
#    0.000    0.000    0.000    0.000    0.000    0.000 
#
# Total GULP energy -155907.913243 kJ/mol
# GULP energy per Si atom -5568.139759 kJ/mol
# Density = 1.878051 g / cm^3
# Si number density = 18.823353 Si / 1000 Ang^3
#
#
#
# Elastic Constant Matrix: (Units=GPa)
#
#
# Indices 1 2 3 4 5 6 
#
# 1 42.5619 15.2886 23.9958 0.0000 0.0000 0.0000
# 2 15.2886 102.6670 66.7674 0.0000 0.0000 0.0000
# 3 23.9958 66.7674 150.7465 0.0000 0.0000 0.0000
# 4 0.0000 0.0000 0.0000 0.6112 0.0000 0.0000
# 5 0.0000 0.0000 0.0000 0.0000 22.1398 0.0000
# 6 0.0000 0.0000 0.0000 0.0000 0.0000 10.3393
#
#
#
# Elastic Compliance Matrix: (Units=1/GPa)
#
#
# Indices 1 2 3 4 5 6 
#
# 1 0.026011 -0.001658 -0.003406 0.000000 0.000000 0.000000
# 2 -0.001658 0.013787 -0.005842 0.000000 0.000000 0.000000
# 3 -0.003406 -0.005842 0.009763 0.000000 0.000000 0.000000
# 4 0.000000 0.000000 0.000000 1.636238 0.000000 0.000000
# 5 0.000000 0.000000 0.000000 0.000000 0.045168 0.000000
# 6 0.000000 0.000000 0.000000 0.000000 0.000000 0.096718
#
#
# Mechanical properties :
#
#
# Convention : Reuss Voigt Hill
#
# Bulk Modulus (GPa) = 36.03878 56.45323 46.24600
# Shear Modulus (GPa) = 2.68998 19.27963 10.98481
#
# Velocity S-wave (km/s) = 1.19673 3.20385 2.41835
# Velocity P-wave (km/s) = 4.59314 6.61380 5.69382
#
# Compressibility (1/GPa) = 0.02774789
#
# Stress axis : x y z
#
# Youngs Moduli (GPa) = 38.44510 72.53431 102.42340
#
# Poissons Ratio (x) = 0.12030 0.34884
# Poissons Ratio (y) = 0.06376 0.59838
# Poissons Ratio (z) = 0.13094 0.42376
#
# Static dielectric constant tensor:
#      x y z
#    x 1.666120 0.000000 0.000000 
#    y 0.000000 1.711000 0.000000 
#    z 0.000000 0.000000 1.677670 
# 
# From -- ./inp_files/32621.got.cif
#   From: 2010.05.17/outbox.cif.g08.bks.cpg/sg42_17_cif.got.tgz:32621.got - 2010.06.03 19:03:34.
