data_PCOD9368495
_publ_section_title
;
Structure prediction by ZEFSAII (Michael W. Deem and Ramdas Pophale) SiO2 
 PCOD9368495
Probable space group: F M M 2
;
_chemical_formula_sum "Si O2"
_cell_formula_units_Z 116
_cell_length_a 15.533267
_cell_length_b 16.700894
_cell_length_c 22.705674
_cell_angle_alpha 90.000000
_cell_angle_beta 90.000000
_cell_angle_gamma 90.000000
_cell_volume 5890.293362
_symmetry_space_group_name_H-M "F M M 2"
_symmetry_group_IT_number 42
_symmetry_cell_setting 'orthorhombic'
loop_
_space_group_symop_operation_xyz
x,y,z
-x,-y,z
-x,y,z
x,-y,z
x,1/2+y,1/2+z
-x,1/2-y,1/2+z
-x,1/2+y,1/2+z
x,1/2-y,1/2+z
1/2+x,y,1/2+z
1/2-x,-y,1/2+z
1/2-x,y,1/2+z
1/2+x,-y,1/2+z
1/2+x,1/2+y,z
1/2-x,1/2-y,z
1/2-x,1/2+y,z
1/2+x,1/2-y,z
loop_
_atom_site_type_symbol
_atom_site_label
_atom_site_fract_x
_atom_site_fract_y
_atom_site_fract_z
Si Si1 0.500000 0.000000 0.635850
Si Si2 0.668980 0.304722 0.452205
Si Si3 0.400762 0.710482 0.662922
Si Si4 0.093121 0.146402 0.970864
Si Si5 0.354134 0.630361 0.105379
Si Si6 0.339464 0.908123 0.066976
Si Si7 0.397761 0.906612 0.269046
Si Si8 0.726267 0.410310 0.879469
O O1 0.576968 0.930832 0.632240
O O2 0.750000 0.250000 0.473275
O O3 0.597434 0.237090 0.446576
O O4 0.654455 0.370997 0.501639
O O5 0.699082 0.346610 0.392125
O O6 0.500000 0.734908 0.671152
O O7 0.349313 0.789898 0.644972
O O8 0.394161 0.649097 0.608747
O O9 0.374544 0.657936 0.719358
O O10 0.166283 0.096824 0.937607
O O11 0.000000 0.109668 0.960019
O O12 0.109099 0.151155 0.040398
O O13 0.258662 0.597640 0.091635
O O14 0.366815 0.000000 0.067821
O O15 0.500000 0.898298 0.282948
O O16 0.336997 0.893750 0.325277
O O17 0.385862 0.000000 0.249618
O O18 0.760300 0.500000 0.873735
#
# Coordination Sequence:
#
# PCOD9368495 Si02
#       8
#     4  16  16  16  16  16  16  16
#     4  12  24  36  60  88 120 156 204 256 316 358
#     4  10  19  33  50  76 116 153 189 233 292 354
#     4  11  22  39  60  82 120 163 199 252 302 360
#     4  11  21  33  53  80 118 152 192 238 289 357
#     4  12  22  37  55  87 121 158 197 249 305 363
#     4  12  22  34  55  82 119 157 203 243 297 356
#     4   9  19  37  58  86 120 155 202 253 302 352
#     4  10  20  34  58  86 114 145 187 246 305 348
#
# _framework density 19.693417
#
# number of rings (size 3 to 8) (size 9 to 14) (size 15 to 20)
#    0.000    1.241    6.207    1.655    0.966    1.655 
#    0.000    4.138    0.000    1.241    0.000    0.000 
#    0.000    0.000    0.000    0.000    0.000    0.000 
#
# Total GULP energy -161560.140807 kJ/mol
# GULP energy per Si atom -5571.039338 kJ/mol
# Density = 1.964859 g / cm^3
# Si number density = 19.693417 Si / 1000 Ang^3
#
#
#
# Elastic Constant Matrix: (Units=GPa)
#
#
# Indices 1 2 3 4 5 6 
#
# 1 24.0212 -4.9289 -5.6390 0.0000 0.0000 0.0000
# 2 -4.9289 123.9896 36.2373 0.0000 0.0000 0.0000
# 3 -5.6390 36.2373 66.5664 0.0000 0.0000 0.0000
# 4 0.0000 0.0000 0.0000 20.2075 0.0000 0.0000
# 5 0.0000 0.0000 0.0000 0.0000 17.4608 0.0000
# 6 0.0000 0.0000 0.0000 0.0000 0.0000 32.1062
#
#
#
# Elastic Compliance Matrix: (Units=1/GPa)
#
#
# Indices 1 2 3 4 5 6 
#
# 1 0.042534 0.000758 0.003190 0.000000 0.000000 0.000000
# 2 0.000758 0.009605 -0.005164 0.000000 0.000000 0.000000
# 3 0.003190 -0.005164 0.018104 0.000000 0.000000 0.000000
# 4 0.000000 0.000000 0.000000 0.049487 0.000000 0.000000
# 5 0.000000 0.000000 0.000000 0.000000 0.057271 0.000000
# 6 0.000000 0.000000 0.000000 0.000000 0.000000 0.031147
#
#
# Mechanical properties :
#
#
# Convention : Reuss Voigt Hill
#
# Bulk Modulus (GPa) = 14.74662 29.54622 22.14642
# Shear Modulus (GPa) = 21.44239 26.54874 23.99557
#
# Velocity S-wave (km/s) = 3.30329 3.67563 3.49443
# Velocity P-wave (km/s) = 4.69610 5.74886 5.24894
#
# Compressibility (1/GPa) = 0.06781213
#
# Stress axis : x y z
#
# Youngs Moduli (GPa) = 23.51039 104.11595 55.23584
#
# Poissons Ratio (x) = -0.07897 -0.17622
# Poissons Ratio (y) = -0.01783 0.28526
# Poissons Ratio (z) = -0.07501 0.53769
#
# Static dielectric constant tensor:
#      x y z
#    x 1.721930 0.000000 0.000000 
#    y 0.000000 1.704940 0.000000 
#    z 0.000000 0.000000 1.680140 
# 
# From -- ./inp_files/29643.got.cif
#   From: 2010.05.17/outbox.cif.g08.bks.cpg/sg42_15_cif.got.tgz:29643.got - 2010.06.03 19:03:34.
