data_PCOD9368584
_publ_section_title
;
Structure prediction by ZEFSAII (Michael W. Deem and Ramdas Pophale) SiO2 
 PCOD9368584
Probable space group: F M M 2
;
_chemical_formula_sum "Si O2"
_cell_formula_units_Z 100
_cell_length_a 25.927329
_cell_length_b 8.269392
_cell_length_c 20.408482
_cell_angle_alpha 90.000000
_cell_angle_beta 90.000000
_cell_angle_gamma 90.000000
_cell_volume 4375.644807
_symmetry_space_group_name_H-M "F M M 2"
_symmetry_group_IT_number 42
_symmetry_cell_setting 'orthorhombic'
loop_
_space_group_symop_operation_xyz
x,y,z
-x,-y,z
-x,y,z
x,-y,z
x,1/2+y,1/2+z
-x,1/2-y,1/2+z
-x,1/2+y,1/2+z
x,1/2-y,1/2+z
1/2+x,y,1/2+z
1/2-x,-y,1/2+z
1/2-x,y,1/2+z
1/2+x,-y,1/2+z
1/2+x,1/2+y,z
1/2-x,1/2-y,z
1/2-x,1/2+y,z
1/2+x,1/2-y,z
loop_
_atom_site_type_symbol
_atom_site_label
_atom_site_fract_x
_atom_site_fract_y
_atom_site_fract_z
Si Si1 0.084098 0.815208 0.961360
Si Si2 0.804959 0.806367 0.488863
Si Si3 0.000000 0.500000 0.761329
Si Si4 0.554881 0.191061 0.099588
Si Si5 0.333741 0.696980 0.634692
Si Si6 0.804566 0.806800 0.776284
Si Si7 0.587189 0.321945 0.329378
O O1 0.063744 0.779366 0.889102
O O2 0.075406 0.000000 0.979672
O O3 0.145272 0.777181 0.957665
O O4 0.061984 0.710811 0.021180
O O5 0.750000 0.750000 0.462753
O O6 0.808339 0.757702 0.565890
O O7 0.809768 0.000000 0.484247
O O8 0.954180 0.639760 0.772872
O O9 0.500000 0.266315 0.119138
O O10 0.607065 0.256649 0.131253
O O11 0.553463 0.000000 0.114035
O O12 0.334576 0.500000 0.636005
O O13 0.307249 0.753611 0.700736
O O14 0.750000 0.750000 0.805093
O O15 0.858245 0.746621 0.806475
O O16 0.805141 0.000000 0.777774
O O17 0.597038 0.500000 0.359515
#
# Coordination Sequence:
#
# PCOD9368584 Si02
#       7
#    16  16   4  16  16  16  16
#     4  11  22  35  55  85 118 148 194 248 296 356
#     4  10  19  34  55  82 116 157 193 237 295 358
#     4   8  24  44  70  80 120 156 210 250 308 374
#     4   9  18  34  57  82 115 158 197 238 294 356
#     4   8  17  34  55  84 117 153 198 241 293 355
#     4  11  22  39  64  93 124 160 204 255 306 363
#     4  10  22  43  63  87 114 159 204 249 309 367
#
# _framework density 22.853774000000001
#
# number of rings (size 3 to 8) (size 9 to 14) (size 15 to 20)
#    0.480    1.760    0.000    4.320    1.120    0.960 
#    1.440   11.600    0.000    0.000    0.000    0.000 
#    0.000    0.000    0.000    0.000    0.000    0.000 
#
# Total GULP energy -139279.068400 kJ/mol
# GULP energy per Si atom -5571.162736 kJ/mol
# Density = 2.280176 g / cm^3
# Si number density = 22.853774 Si / 1000 Ang^3
#
#
#
# Elastic Constant Matrix: (Units=GPa)
#
#
# Indices 1 2 3 4 5 6 
#
# 1 168.2266 5.2755 11.2222 0.0000 0.0000 0.0000
# 2 5.2755 37.9386 -12.2637 0.0000 0.0001 0.0000
# 3 11.2222 -12.2637 62.0022 0.0000 0.0000 0.0000
# 4 0.0000 0.0000 0.0000 7.1855 0.0000 0.0000
# 5 0.0000 0.0001 0.0000 0.0000 8.4070 0.0000
# 6 0.0000 0.0000 0.0000 0.0000 0.0000 27.4241
#
#
#
# Elastic Compliance Matrix: (Units=1/GPa)
#
#
# Indices 1 2 3 4 5 6 
#
# 1 0.006075 -0.001282 -0.001353 0.000000 0.000000 0.000000
# 2 -0.001282 0.028429 0.005855 0.000000 0.000000 0.000000
# 3 -0.001353 0.005855 0.017531 0.000000 0.000000 0.000000
# 4 0.000000 0.000000 0.000000 0.139169 0.000000 0.000000
# 5 0.000000 0.000000 0.000000 0.000000 0.118948 0.000000
# 6 0.000000 0.000000 0.000000 0.000000 0.000000 0.036464
#
#
# Mechanical properties :
#
#
# Convention : Reuss Voigt Hill
#
# Bulk Modulus (GPa) = 17.10113 30.73726 23.91920
# Shear Modulus (GPa) = 13.90167 26.19888 20.05028
#
# Velocity S-wave (km/s) = 2.46902 3.38948 2.96519
# Velocity P-wave (km/s) = 3.95313 5.36627 4.71296
#
# Compressibility (1/GPa) = 0.05847566
#
# Stress axis : x y z
#
# Youngs Moduli (GPa) = 164.61354 35.17488 57.04020
#
# Poissons Ratio (x) = 0.04510 0.07718
# Poissons Ratio (y) = 0.21105 -0.33398
# Poissons Ratio (z) = 0.22274 -0.20596
#
# Static dielectric constant tensor:
#      x y z
#    x 1.824470 0.000000 0.000000 
#    y 0.000000 1.827580 0.000000 
#    z 0.000000 0.000000 1.893820 
# 
# From -- ./inp_files/23825.got.cif
#   From: 2010.05.17/outbox.cif.g08.bks.cpg/sg42_12_cif.got.tgz:23825.got - 2010.06.03 19:03:34.
