data_PCOD9368464
_publ_section_title
;
Structure prediction by ZEFSAII (Michael W. Deem and Ramdas Pophale) SiO2 
 PCOD9368464
Probable space group: F M M 2
;
_chemical_formula_sum "Si O2"
_cell_formula_units_Z 104
_cell_length_a 21.883521
_cell_length_b 13.692672
_cell_length_c 19.810858
_cell_angle_alpha 90.000000
_cell_angle_beta 90.000000
_cell_angle_gamma 90.000000
_cell_volume 5936.202263
_symmetry_space_group_name_H-M "F M M 2"
_symmetry_group_IT_number 42
_symmetry_cell_setting 'orthorhombic'
loop_
_space_group_symop_operation_xyz
x,y,z
-x,-y,z
-x,y,z
x,-y,z
x,1/2+y,1/2+z
-x,1/2-y,1/2+z
-x,1/2+y,1/2+z
x,1/2-y,1/2+z
1/2+x,y,1/2+z
1/2-x,-y,1/2+z
1/2-x,y,1/2+z
1/2+x,-y,1/2+z
1/2+x,1/2+y,z
1/2-x,1/2-y,z
1/2-x,1/2+y,z
1/2+x,1/2-y,z
loop_
_atom_site_type_symbol
_atom_site_label
_atom_site_fract_x
_atom_site_fract_y
_atom_site_fract_z
Si Si1 0.927835 0.284795 0.737830
Si Si2 0.572962 0.388343 0.637545
Si Si3 0.250000 0.750000 0.563334
Si Si4 0.368732 0.689065 0.498147
Si Si5 0.155549 0.891415 0.135902
Si Si6 0.070444 0.609268 0.872751
Si Si7 0.927132 0.608873 0.504478
O O1 0.915391 0.179603 0.703078
O O2 0.879826 0.354427 0.700972
O O3 0.919730 0.307023 0.816868
O O4 0.000000 0.307162 0.723521
O O5 0.500000 0.390348 0.628950
O O6 0.594747 0.500000 0.645285
O O7 0.600039 0.341188 0.569320
O O8 0.297598 0.693609 0.515810
O O9 0.208421 0.679744 0.609220
O O10 0.387096 0.619194 0.437580
O O11 0.394236 0.795639 0.475075
O O12 0.102815 0.893568 0.078656
O O13 0.180276 0.000000 0.144293
O O14 0.076795 0.500000 0.842448
O O15 0.000000 0.618055 0.896218
O O16 0.915853 0.500000 0.474527
O O17 0.000000 0.623612 0.506711
#
# Coordination Sequence:
#
# PCOD9368464 Si02
#       7
#    16  16   8  16  16  16  16
#     4  10  19  35  56  83 115 140 173 227 289 342
#     4  10  19  32  56  86 112 143 183 227 283 342
#     4  10  22  36  50  80 106 150 194 228 272 310
#     4  11  20  35  54  77 114 148 183 236 267 324
#     4  10  19  32  51  76 105 137 182 228 268 319
#     4  10  21  35  56  86 113 142 178 222 287 350
#     4   9  16  27  48  77 103 131 171 221 279 324
#
# _framework density 17.519618000000001
#
# number of rings (size 3 to 8) (size 9 to 14) (size 15 to 20)
#    0.000    2.000    3.077    2.769    0.000    4.000 
#    0.000    1.538    0.000    2.769    0.000    0.000 
#    0.000    0.000    0.000    0.000    0.000    0.000 
#
# Total GULP energy -144776.304582 kJ/mol
# GULP energy per Si atom -5568.319407 kJ/mol
# Density = 1.747974 g / cm^3
# Si number density = 17.519618 Si / 1000 Ang^3
#
#
#
# Elastic Constant Matrix: (Units=GPa)
#
#
# Indices 1 2 3 4 5 6 
#
# 1 61.8236 21.7385 36.8594 0.0000 0.0000 0.0000
# 2 21.7385 76.2915 37.5628 0.0000 0.0000 0.0000
# 3 36.8594 37.5628 74.6286 0.0000 0.0000 0.0000
# 4 0.0000 0.0000 0.0000 21.3425 0.0000 0.0000
# 5 0.0000 0.0000 0.0000 0.0000 15.6187 0.0000
# 6 0.0000 0.0000 0.0000 0.0000 0.0000 17.8343
#
#
#
# Elastic Compliance Matrix: (Units=1/GPa)
#
#
# Indices 1 2 3 4 5 6 
#
# 1 0.023019 -0.001278 -0.010726 0.000000 0.000000 0.000000
# 2 -0.001278 0.017497 -0.008176 0.000000 0.000000 0.000000
# 3 -0.010726 -0.008176 0.022812 0.000000 0.000000 0.000000
# 4 0.000000 0.000000 0.000000 0.046855 0.000000 0.000000
# 5 0.000000 0.000000 0.000000 0.000000 0.064026 0.000000
# 6 0.000000 0.000000 0.000000 0.000000 0.000000 0.056072
#
#
# Mechanical properties :
#
#
# Convention : Reuss Voigt Hill
#
# Bulk Modulus (GPa) = 43.53618 45.00723 44.27171
# Shear Modulus (GPa) = 17.96640 18.73130 18.34885
#
# Velocity S-wave (km/s) = 3.20582 3.27335 3.23976
# Velocity P-wave (km/s) = 6.21345 6.32707 6.27052
#
# Compressibility (1/GPa) = 0.02296940
#
# Stress axis : x y z
#
# Youngs Moduli (GPa) = 43.44166 57.15231 43.83581
#
# Poissons Ratio (x) = 0.07304 0.47019
# Poissons Ratio (y) = 0.05552 0.35838
# Poissons Ratio (z) = 0.46596 0.46725
#
# Static dielectric constant tensor:
#      x y z
#    x 1.569480 0.000000 0.000000 
#    y 0.000000 1.666730 0.000000 
#    z 0.000000 0.000000 1.583300 
# 
# From -- ./inp_files/26514.got.cif
#   From: 2010.05.17/outbox.cif.g08.bks.cpg/sg42_14_cif.got.tgz:26514.got - 2010.06.03 19:03:34.
