data_PCOD9368748
_publ_section_title
;
Structure prediction by ZEFSAII (Michael W. Deem and Ramdas Pophale) SiO2 
 PCOD9368748
Probable space group: F M M 2
;
_chemical_formula_sum "Si O2"
_cell_formula_units_Z 104
_cell_length_a 14.658017
_cell_length_b 19.863805
_cell_length_c 16.629876
_cell_angle_alpha 90.000000
_cell_angle_beta 90.000000
_cell_angle_gamma 90.000000
_cell_volume 4842.021072
_symmetry_space_group_name_H-M "F M M 2"
_symmetry_group_IT_number 42
_symmetry_cell_setting 'orthorhombic'
loop_
_space_group_symop_operation_xyz
x,y,z
-x,-y,z
-x,y,z
x,-y,z
x,1/2+y,1/2+z
-x,1/2-y,1/2+z
-x,1/2+y,1/2+z
x,1/2-y,1/2+z
1/2+x,y,1/2+z
1/2-x,-y,1/2+z
1/2-x,y,1/2+z
1/2+x,-y,1/2+z
1/2+x,1/2+y,z
1/2-x,1/2-y,z
1/2-x,1/2+y,z
1/2+x,1/2-y,z
loop_
_atom_site_type_symbol
_atom_site_label
_atom_site_fract_x
_atom_site_fract_y
_atom_site_fract_z
Si Si1 0.500000 0.813618 0.127100
Si Si2 0.897279 0.077199 0.886731
Si Si3 0.655217 0.075011 0.731920
Si Si4 0.163684 0.207924 0.145870
Si Si5 0.108503 0.924281 0.421189
Si Si6 0.243076 0.173390 0.974237
Si Si7 0.629811 0.075225 0.198064
O O1 0.581320 0.756579 0.122787
O O2 0.420727 0.871214 0.144459
O O3 0.828683 0.129928 0.923996
O O4 0.900194 0.085524 0.790752
O O5 0.000000 0.085724 0.918314
O O6 0.867401 0.000000 0.902329
O O7 0.622228 0.145841 0.696553
O O8 0.640580 0.077505 0.827937
O O9 0.761017 0.077722 0.705590
O O10 0.620100 0.000000 0.706761
O O11 0.250000 0.250000 0.184781
O O12 0.207548 0.178178 0.064767
O O13 0.162097 0.866071 0.466698
O O14 0.000000 0.914037 0.424877
O O15 0.129066 0.000000 0.451382
O O16 0.250000 0.250000 0.943736
O O17 0.605464 0.000000 0.172612
#
# Coordination Sequence:
#
# PCOD9368748 Si02
#       7
#     8  16  16  16  16  16  16
#     4  12  23  40  67  92 138 174 218 278 339 408
#     4  10  20  37  63  94 126 162 216 279 334 391
#     4  10  21  41  66  95 133 172 220 280 343 406
#     4  11  26  45  60  92 137 187 224 277 344 413
#     4  10  22  43  72 102 133 174 228 291 347 405
#     4  11  25  43  62  89 134 184 225 278 341 413
#     4  10  19  37  68 101 127 162 217 284 340 391
#
# _framework density 21.478634
#
# number of rings (size 3 to 8) (size 9 to 14) (size 15 to 20)
#    0.000    1.538    3.846    0.692    2.154    3.692 
#    4.154    0.000    0.000    0.000    0.000    0.000 
#    0.000    0.000    0.000    0.000    0.000    0.000 
#
# Total GULP energy -144744.448986 kJ/mol
# GULP energy per Si atom -5567.094192 kJ/mol
# Density = 2.142975 g / cm^3
# Si number density = 21.478634 Si / 1000 Ang^3
#
#
#
# Elastic Constant Matrix: (Units=GPa)
#
#
# Indices 1 2 3 4 5 6 
#
# 1 113.1440 56.3079 18.4826 0.0000 0.0000 0.0000
# 2 56.3079 177.1919 65.5515 0.0000 0.0000 0.0000
# 3 18.4826 65.5515 40.2412 0.0000 0.0000 0.0000
# 4 0.0000 0.0000 0.0000 25.6284 0.0000 0.0000
# 5 0.0000 0.0000 0.0000 0.0000 -7.5100 0.0000
# 6 0.0000 0.0000 0.0000 0.0000 0.0000 43.9675
#
#
#
# Elastic Compliance Matrix: (Units=1/GPa)
#
#
# Indices 1 2 3 4 5 6 
#
# 1 0.010537 -0.003921 0.001547 0.000000 0.000000 0.000000
# 2 -0.003921 0.015661 -0.023711 0.000000 0.000000 0.000000
# 3 0.001547 -0.023711 0.062764 0.000000 0.000000 0.000000
# 4 0.000000 0.000000 0.000000 0.039019 0.000000 0.000000
# 5 0.000000 0.000000 0.000000 0.000000 -0.133156 0.000000
# 6 0.000000 0.000000 0.000000 0.000000 0.000000 0.022744
#
#
# Mechanical properties :
#
#
# Convention : Reuss Voigt Hill
#
# Bulk Modulus (GPa) = 27.17895 67.91789 47.54842
# Shear Modulus (GPa) = 60.97385 25.09952 43.03669
#
# Velocity S-wave (km/s) = 5.33383 3.42216 4.48112
# Velocity P-wave (km/s) = 7.11438 6.87784 6.99711
#
# Compressibility (1/GPa) = 0.03679318
#
# Stress axis : x y z
#
# Youngs Moduli (GPa) = 94.90565 63.85137 15.93271
#
# Poissons Ratio (x) = 0.25035 -0.02465
# Poissons Ratio (y) = 0.37211 0.37778
# Poissons Ratio (z) = -0.14686 1.51398
#
# Static dielectric constant tensor:
#      x y z
#    x 1.843590 0.000000 0.000000 
#    y 0.000000 1.803790 0.000000 
#    z 0.000000 0.000000 1.787780 
# 
# From -- ./inp_files/25277.got.cif
#   From: 2010.05.17/outbox.cif.g08.bks.cpg/sg42_13_cif.got.tgz:25277.got - 2010.06.03 19:03:34.
