data_PCOD9368590
_publ_section_title
;
Structure prediction by ZEFSAII (Michael W. Deem and Ramdas Pophale) SiO2 
 PCOD9368590
Probable space group: F M M 2
;
_chemical_formula_sum "Si O2"
_cell_formula_units_Z 104
_cell_length_a 7.607581
_cell_length_b 28.081054
_cell_length_c 30.204498
_cell_angle_alpha 90.000000
_cell_angle_beta 90.000000
_cell_angle_gamma 90.000000
_cell_volume 6452.553467
_symmetry_space_group_name_H-M "F M M 2"
_symmetry_group_IT_number 42
_symmetry_cell_setting 'orthorhombic'
loop_
_space_group_symop_operation_xyz
x,y,z
-x,-y,z
-x,y,z
x,-y,z
x,1/2+y,1/2+z
-x,1/2-y,1/2+z
-x,1/2+y,1/2+z
x,1/2-y,1/2+z
1/2+x,y,1/2+z
1/2-x,-y,1/2+z
1/2-x,y,1/2+z
1/2+x,-y,1/2+z
1/2+x,1/2+y,z
1/2-x,1/2-y,z
1/2-x,1/2+y,z
1/2+x,1/2-y,z
loop_
_atom_site_type_symbol
_atom_site_label
_atom_site_fract_x
_atom_site_fract_y
_atom_site_fract_z
Si Si1 0.708563 0.198406 0.167540
Si Si2 0.194921 0.057660 0.392227
Si Si3 0.500000 0.557673 0.959071
Si Si4 0.213814 0.903545 0.700160
Si Si5 0.288343 0.945392 0.295065
Si Si6 0.500000 0.379330 0.046064
Si Si7 0.500000 0.944267 0.634527
Si Si8 0.289613 0.303610 0.564931
O O1 0.500000 0.195460 0.164906
O O2 0.750000 0.250000 0.187026
O O3 0.766110 0.151472 0.192887
O O4 0.771019 0.196786 0.116679
O O5 0.334808 0.071955 0.428680
O O6 0.225592 0.074969 0.342016
O O7 0.000000 0.070042 0.406616
O O8 0.210186 0.000000 0.388939
O O9 0.500000 0.500000 0.964763
O O10 0.500000 0.584089 0.005514
O O11 0.258735 0.919065 0.749937
O O12 0.328198 0.932835 0.664672
O O13 0.000000 0.909216 0.694054
O O14 0.500000 0.946366 0.297574
O O15 0.225761 0.000000 0.291199
O O16 0.500000 0.409656 0.091808
O O17 0.670432 0.344740 0.043976
O O18 0.500000 0.000000 0.622109
O O19 0.500000 0.312266 0.562473
O O20 0.250000 0.250000 0.548126
#
# Coordination Sequence:
#
# PCOD9368590 Si02
#       8
#    16  16   8  16  16   8   8  16
#     4   9  18  30  50  73 102 137 174 223 267 301
#     4   9  17  31  52  75 100 132 176 230 275 308
#     4  10  21  38  54  74 108 145 181 220 264 318
#     4  10  21  35  49  75 110 146 182 218 261 317
#     4   9  16  29  50  74 103 137 173 219 268 313
#     4  12  23  36  56  80 109 146 182 221 260 321
#     4  12  25  36  50  74 111 157 188 209 250 313
#     4  10  19  34  56  81 106 134 173 227 276 310
#
# _framework density 16.117650000000001
#
# number of rings (size 3 to 8) (size 9 to 14) (size 15 to 20)
#    0.000    2.154    3.077    0.692    3.231    1.538 
#    0.000    0.000    0.000    2.769    0.000    1.077 
#    0.000    0.000    0.000    0.000    0.000    0.000 
#
# Total GULP energy -144872.186672 kJ/mol
# GULP energy per Si atom -5572.007180 kJ/mol
# Density = 1.608097 g / cm^3
# Si number density = 16.117650 Si / 1000 Ang^3
#
#
#
# Elastic Constant Matrix: (Units=GPa)
#
#
# Indices 1 2 3 4 5 6 
#
# 1 91.2204 32.2750 49.0577 0.0000 0.0000 0.0000
# 2 32.2750 88.0898 38.5787 0.0000 0.0000 0.0000
# 3 49.0577 38.5787 102.6892 0.0000 0.0000 0.0000
# 4 0.0000 0.0000 0.0000 8.4876 0.0000 0.0000
# 5 0.0000 0.0000 0.0000 0.0000 3.1025 0.0000
# 6 0.0000 0.0000 0.0000 0.0000 0.0000 13.1174
#
#
#
# Elastic Compliance Matrix: (Units=1/GPa)
#
#
# Indices 1 2 3 4 5 6 
#
# 1 0.015342 -0.002886 -0.006245 0.000000 0.000000 0.000000
# 2 -0.002886 0.014131 -0.003930 0.000000 0.000000 0.000000
# 3 -0.006245 -0.003930 0.014198 0.000000 0.000000 0.000000
# 4 0.000000 0.000000 0.000000 0.117819 0.000000 0.000000
# 5 0.000000 0.000000 0.000000 0.000000 0.322320 0.000000
# 6 0.000000 0.000000 0.000000 0.000000 0.000000 0.076235
#
#
# Mechanical properties :
#
#
# Convention : Reuss Voigt Hill
#
# Bulk Modulus (GPa) = 56.98490 57.98024 57.48257
# Shear Modulus (GPa) = 8.44571 15.74736 12.09653
#
# Velocity S-wave (km/s) = 2.29160 3.12913 2.74252
# Velocity P-wave (km/s) = 6.51416 7.00760 6.76538
#
# Compressibility (1/GPa) = 0.01754851
#
# Stress axis : x y z
#
# Youngs Moduli (GPa) = 65.17967 70.76862 70.43247
#
# Poissons Ratio (x) = 0.20425 0.43986
# Poissons Ratio (y) = 0.18812 0.27679
# Poissons Ratio (z) = 0.40706 0.27811
#
# Static dielectric constant tensor:
#      x y z
#    x 1.582060 0.000000 0.000000 
#    y 0.000000 1.549020 0.000000 
#    z 0.000000 0.000000 1.522940 
# 
# From -- ./inp_files/31847.got.cif
#   From: 2010.05.17/outbox.cif.g08.bks.cpg/sg42_16_cif.got.tgz:31847.got - 2010.06.03 19:03:34.
