data_PCOD9368582
_publ_section_title
;
Structure prediction by ZEFSAII (Michael W. Deem and Ramdas Pophale) SiO2 
 PCOD9368582
Probable space group: F M M 2
;
_chemical_formula_sum "Si O2"
_cell_formula_units_Z 96
_cell_length_a 24.544759
_cell_length_b 8.386385
_cell_length_c 26.123119
_cell_angle_alpha 90.000000
_cell_angle_beta 90.000000
_cell_angle_gamma 90.000000
_cell_volume 5377.229803
_symmetry_space_group_name_H-M "F M M 2"
_symmetry_group_IT_number 42
_symmetry_cell_setting 'orthorhombic'
loop_
_space_group_symop_operation_xyz
x,y,z
-x,-y,z
-x,y,z
x,-y,z
x,1/2+y,1/2+z
-x,1/2-y,1/2+z
-x,1/2+y,1/2+z
x,1/2-y,1/2+z
1/2+x,y,1/2+z
1/2-x,-y,1/2+z
1/2-x,y,1/2+z
1/2+x,-y,1/2+z
1/2+x,1/2+y,z
1/2-x,1/2-y,z
1/2-x,1/2+y,z
1/2+x,1/2-y,z
loop_
_atom_site_type_symbol
_atom_site_label
_atom_site_fract_x
_atom_site_fract_y
_atom_site_fract_z
Si Si1 0.615112 0.687362 0.940070
Si Si2 0.385100 0.693164 0.627514
Si Si3 0.500000 0.180908 0.092920
Si Si4 0.936986 0.190541 0.224551
Si Si5 0.000000 0.317697 0.971954
Si Si6 0.688503 0.190252 0.033084
Si Si7 0.062870 0.193041 0.839563
O O1 0.627031 0.500000 0.938971
O O2 0.553966 0.721723 0.958773
O O3 0.607950 0.746336 0.881232
O O4 0.655119 0.762939 0.981925
O O5 0.384122 0.500000 0.625225
O O6 0.443442 0.758131 0.608038
O O7 0.390415 0.742747 0.686667
O O8 0.340721 0.748929 0.585851
O O9 0.500000 0.000000 0.114757
O O10 0.500000 0.165746 0.032621
O O11 0.926968 0.244049 0.282737
O O12 0.000000 0.245425 0.212031
O O13 0.936953 0.000000 0.221340
O O14 0.000000 0.500000 0.950890
O O15 0.750000 0.250000 0.030261
O O16 0.688445 0.000000 0.035360
O O17 0.000000 0.241387 0.853255
O O18 0.063248 0.000000 0.839280
#
# Coordination Sequence:
#
# PCOD9368582 Si02
#       7
#    16  16   8  16   8  16  16
#     4  11  21  35  55  82 113 146 185 229 275 328
#     4  10  19  34  55  76 106 146 181 215 267 332
#     4   9  16  29  48  75 106 139 176 212 261 327
#     4  10  20  31  47  79 115 145 180 221 266 316
#     4  11  19  31  50  79 114 147 182 220 271 335
#     4  11  24  41  59  81 107 144 188 232 283 333
#     4   9  18  33  51  75 111 152 185 213 260 326
#
# _framework density 17.853058999999998
#
# number of rings (size 3 to 8) (size 9 to 14) (size 15 to 20)
#    0.000    1.833    3.333    1.750    0.000    3.333 
#    0.000    0.000    0.000    1.000    0.000    4.667 
#    0.000    0.000    0.000    0.000    0.000    0.000 
#
# Total GULP energy -133641.178143 kJ/mol
# GULP energy per Si atom -5568.382423 kJ/mol
# Density = 1.781242 g / cm^3
# Si number density = 17.853059 Si / 1000 Ang^3
#
#
#
# Elastic Constant Matrix: (Units=GPa)
#
#
# Indices 1 2 3 4 5 6 
#
# 1 108.0084 15.4917 69.7120 0.0000 0.0000 0.0001
# 2 15.4917 25.3672 25.9671 0.0000 0.0000 0.0002
# 3 69.7120 25.9671 144.7750 0.0000 0.0000 0.0000
# 4 0.0000 0.0000 0.0000 22.8773 0.0000 0.0000
# 5 0.0000 0.0000 0.0000 0.0000 15.9462 0.0000
# 6 0.0001 0.0002 0.0000 0.0000 0.0000 42.9739
#
#
#
# Elastic Compliance Matrix: (Units=1/GPa)
#
#
# Indices 1 2 3 4 5 6 
#
# 1 0.013512 -0.001950 -0.006157 0.000000 0.000000 0.000000
# 2 -0.001950 0.048568 -0.007773 0.000000 0.000000 0.000000
# 3 -0.006157 -0.007773 0.011266 0.000000 0.000000 0.000000
# 4 0.000000 0.000000 0.000000 0.043711 0.000000 0.000000
# 5 0.000000 0.000000 0.000000 0.000000 0.062711 0.000000
# 6 0.000000 0.000000 0.000000 0.000000 0.000000 0.023270
#
#
# Mechanical properties :
#
#
# Convention : Reuss Voigt Hill
#
# Bulk Modulus (GPa) = 24.04512 55.61025 39.82768
# Shear Modulus (GPa) = 20.10795 27.49146 23.79970
#
# Velocity S-wave (km/s) = 3.35968 3.92838 3.65511
# Velocity P-wave (km/s) = 5.34299 7.19671 6.33799
#
# Compressibility (1/GPa) = 0.04158848
#
# Stress axis : x y z
#
# Youngs Moduli (GPa) = 74.00955 20.58971 88.76384
#
# Poissons Ratio (x) = 0.04014 0.54648
# Poissons Ratio (y) = 0.14428 0.68992
# Poissons Ratio (z) = 0.45564 0.16003
#
# Static dielectric constant tensor:
#      x y z
#    x 1.591370 0.000000 0.000000 
#    y 0.000000 1.637830 0.000000 
#    z 0.000000 0.000000 1.685080 
# 
# From -- ./inp_files/30450.got.cif
#   From: 2010.05.17/outbox.cif.g08.bks.cpg/sg42_16_cif.got.tgz:30450.got - 2010.06.03 19:03:34.
