data_PCOD9368663
_publ_section_title
;
Structure prediction by ZEFSAII (Michael W. Deem and Ramdas Pophale) SiO2 
 PCOD9368663
Probable space group: F M M 2
;
_chemical_formula_sum "Si O2"
_cell_formula_units_Z 80
_cell_length_a 14.896291
_cell_length_b 28.571585
_cell_length_c 8.066490
_cell_angle_alpha 90.000000
_cell_angle_beta 90.000000
_cell_angle_gamma 90.000000
_cell_volume 3433.184008
_symmetry_space_group_name_H-M "F M M 2"
_symmetry_group_IT_number 42
_symmetry_cell_setting 'orthorhombic'
loop_
_space_group_symop_operation_xyz
x,y,z
-x,-y,z
-x,y,z
x,-y,z
x,1/2+y,1/2+z
-x,1/2-y,1/2+z
-x,1/2+y,1/2+z
x,1/2-y,1/2+z
1/2+x,y,1/2+z
1/2-x,-y,1/2+z
1/2-x,y,1/2+z
1/2+x,-y,1/2+z
1/2+x,1/2+y,z
1/2-x,1/2-y,z
1/2-x,1/2+y,z
1/2+x,1/2-y,z
loop_
_atom_site_type_symbol
_atom_site_label
_atom_site_fract_x
_atom_site_fract_y
_atom_site_fract_z
Si Si1 0.108999 0.398854 0.441380
Si Si2 0.609771 0.052851 0.106851
Si Si3 0.664058 0.717491 0.413369
Si Si4 0.599241 0.695097 0.767515
Si Si5 0.890390 0.618633 0.802078
O O1 0.139507 0.431463 0.290547
O O2 0.132957 0.346035 0.386097
O O3 0.137838 0.406119 0.630385
O O4 0.000000 0.402011 0.445115
O O5 0.500000 0.053355 0.107346
O O6 0.638428 0.000000 0.069901
O O7 0.636913 0.089224 0.963932
O O8 0.750000 0.750000 0.386958
O O9 0.656281 0.702470 0.603255
O O10 0.591687 0.756349 0.363955
O O11 0.650351 0.670598 0.309427
O O12 0.500000 0.679883 0.708652
O O13 0.000000 0.622921 0.803239
#
# Coordination Sequence:
#
# PCOD9368663 Si02
#       5
#    16  16  16  16  16
#     4   9  18  32  54  83 116 158 207 256 310 374
#     4   9  17  31  54  88 126 160 206 270 325 372
#     4  12  24  37  55  86 126 161 210 262 313 372
#     4  11  21  37  58  81 117 167 213 255 310 380
#     4  10  19  35  58  84 123 173 214 257 319 390
#
# _framework density 23.301983
#
# number of rings (size 3 to 8) (size 9 to 14) (size 15 to 20)
#    0.000    1.800    2.000    3.600    0.000    2.400 
#    0.000    5.000    0.000    0.000    0.000    1.400 
#    0.000    0.000    0.000    0.000    0.000    0.800 
#
# Total GULP energy -111798.626924 kJ/mol
# GULP energy per Si atom -5589.931346 kJ/mol
# Density = 2.324895 g / cm^3
# Si number density = 23.301983 Si / 1000 Ang^3
#
#
#
# Elastic Constant Matrix: (Units=GPa)
#
#
# Indices 1 2 3 4 5 6 
#
# 1 62.7767 8.2604 16.3358 0.0000 0.0000 0.0002
# 2 8.2604 123.0822 29.1476 0.0000 0.0000 -0.0003
# 3 16.3358 29.1476 129.5196 0.0000 -0.0001 0.0007
# 4 0.0000 0.0000 0.0000 28.8474 0.0000 -0.0001
# 5 0.0000 0.0000 -0.0001 0.0000 7.4909 -0.0006
# 6 0.0002 -0.0003 0.0007 -0.0001 -0.0006-3761.8042
#
#
#
# Elastic Compliance Matrix: (Units=1/GPa)
#
#
# Indices 1 2 3 4 5 6 
#
# 1 0.016519 -0.000650 -0.001937 0.000000 0.000000 0.000000
# 2 -0.000650 0.008608 -0.001855 0.000000 0.000000 0.000000
# 3 -0.001937 -0.001855 0.008383 0.000000 0.000000 0.000000
# 4 0.000000 0.000000 0.000000 0.034665 0.000000 0.000000
# 5 0.000000 0.000000 0.000000 0.000000 0.133495 0.000000
# 6 0.000000 0.000000 0.000000 0.000000 0.000000 -0.000266
#
#
# Mechanical properties :
#
#
# Convention : Reuss Voigt Hill
#
# Bulk Modulus (GPa) = 40.60936 46.98512 43.79724
# Shear Modulus (GPa) = 22.88371 -727.65085 -352.38357
#
# Velocity S-wave (km/s) = 3.13717 -17.69033 -12.31069
# Velocity P-wave (km/s) = 5.53061 19.92628 13.53641
#
# Compressibility (1/GPa) = 0.02462487
#
# Stress axis : x y z
#
# Youngs Moduli (GPa) = 60.53603 116.17657 119.29388
#
# Poissons Ratio (x) = 0.07550 0.23110
# Poissons Ratio (y) = 0.03934 0.22130
# Poissons Ratio (z) = 0.11727 0.21552
#
# Static dielectric constant tensor:
#      x y z
#    x 2.502180 0.000000 0.000000 
#    y 0.000000 1.826170 0.000000 
#    z 0.000000 0.000000 1.838080 
# 
# From -- ./inp_files/3471.got.cif
#   From: 2010.05.17/outbox.cif.g08.bks.cpg/sg42_2_cif.got.tgz:3471.got - 2010.06.03 19:03:34.
