data_PCOD9368313
_publ_section_title
;
Structure prediction by ZEFSAII (Michael W. Deem and Ramdas Pophale) SiO2 
 PCOD9368313
Probable space group: F M M 2
;
_chemical_formula_sum "Si O2"
_cell_formula_units_Z 112
_cell_length_a 13.840544
_cell_length_b 24.297744
_cell_length_c 17.820405
_cell_angle_alpha 90.000000
_cell_angle_beta 90.000000
_cell_angle_gamma 90.000000
_cell_volume 5992.895189
_symmetry_space_group_name_H-M "F M M 2"
_symmetry_group_IT_number 42
_symmetry_cell_setting 'orthorhombic'
loop_
_space_group_symop_operation_xyz
x,y,z
-x,-y,z
-x,y,z
x,-y,z
x,1/2+y,1/2+z
-x,1/2-y,1/2+z
-x,1/2+y,1/2+z
x,1/2-y,1/2+z
1/2+x,y,1/2+z
1/2-x,-y,1/2+z
1/2-x,y,1/2+z
1/2+x,-y,1/2+z
1/2+x,1/2+y,z
1/2-x,1/2-y,z
1/2-x,1/2+y,z
1/2+x,1/2-y,z
loop_
_atom_site_type_symbol
_atom_site_label
_atom_site_fract_x
_atom_site_fract_y
_atom_site_fract_z
Si Si1 0.388381 0.824611 0.213800
Si Si2 0.386204 0.265499 0.314844
Si Si3 0.320855 0.935718 0.817966
Si Si4 0.385847 0.849686 0.938145
Si Si5 0.892602 0.437768 0.285930
Si Si6 0.886674 0.857324 0.186098
Si Si7 0.738499 0.187340 0.070911
O O1 0.500000 0.808798 0.205644
O O2 0.347930 0.793363 0.287555
O O3 0.384729 0.889718 0.225117
O O4 0.331443 0.806285 0.142124
O O5 0.500000 0.258237 0.330724
O O6 0.351402 0.298034 0.387016
O O7 0.377671 0.305091 0.242441
O O8 0.374550 0.901649 0.882617
O O9 0.205235 0.931826 0.833254
O O10 0.343463 0.906737 0.737530
O O11 0.347263 0.000000 0.816100
O O12 0.500000 0.844031 0.957944
O O13 0.316643 0.849410 0.009734
O O14 0.889800 0.500000 0.255291
O O15 0.000000 0.430682 0.321573
O O16 0.831229 0.841879 0.109430
O O17 0.000000 0.867315 0.173296
O O18 0.750000 0.250000 0.042218
#
# Coordination Sequence:
#
# PCOD9368313 Si02
#       7
#    16  16  16  16  16  16  16
#     4  10  18  32  57  83 113 154 199 240 289 353
#     4   8  16  33  57  80 107 146 192 244 286 336
#     4  10  20  39  66  89 113 153 208 256 296 344
#     4  10  23  40  57  85 122 157 199 249 302 360
#     4   9  18  32  54  88 122 147 185 243 296 345
#     4  10  20  36  58  86 115 147 197 251 295 345
#     4  12  23  36  55  87 122 161 189 235 306 372
#
# _framework density 18.688797000000001
#
# number of rings (size 3 to 8) (size 9 to 14) (size 15 to 20)
#    0.000    2.143    2.857    1.714    0.000    2.857 
#    0.000    2.143    0.000    1.714    0.000    0.000 
#    0.000    0.000    0.000    0.000    0.000    0.000 
#
# Total GULP energy -155942.600863 kJ/mol
# GULP energy per Si atom -5569.378602 kJ/mol
# Density = 1.864626 g / cm^3
# Si number density = 18.688797 Si / 1000 Ang^3
#
#
#
# Elastic Constant Matrix: (Units=GPa)
#
#
# Indices 1 2 3 4 5 6 
#
# 1 115.9807 24.2738 41.7147 0.0000 0.0000 0.0000
# 2 24.2738 91.4336 22.7804 0.0000 0.0000 0.0000
# 3 41.7147 22.7804 70.6343 0.0000 0.0000 0.0000
# 4 0.0000 0.0000 0.0000 12.4896 0.0000 0.0000
# 5 0.0000 0.0000 0.0000 0.0000 29.1221 0.0000
# 6 0.0000 0.0000 0.0000 0.0000 0.0000 22.9545
#
#
#
# Elastic Compliance Matrix: (Units=1/GPa)
#
#
# Indices 1 2 3 4 5 6 
#
# 1 0.011117 -0.001431 -0.006104 0.000000 0.000000 0.000000
# 2 -0.001431 0.012077 -0.003050 0.000000 0.000000 0.000000
# 3 -0.006104 -0.003050 0.018746 0.000000 0.000000 0.000000
# 4 0.000000 0.000000 0.000000 0.080066 0.000000 0.000000
# 5 0.000000 0.000000 0.000000 0.000000 0.034338 0.000000
# 6 0.000000 0.000000 0.000000 0.000000 0.000000 0.043564
#
#
# Mechanical properties :
#
#
# Convention : Reuss Voigt Hill
#
# Bulk Modulus (GPa) = 48.14544 50.62069 49.38307
# Shear Modulus (GPa) = 21.92973 25.53189 23.73081
#
# Velocity S-wave (km/s) = 3.42923 3.70017 3.56727
# Velocity P-wave (km/s) = 6.44182 6.73795 6.59155
#
# Compressibility (1/GPa) = 0.02077040
#
# Stress axis : x y z
#
# Youngs Moduli (GPa) = 89.95280 82.80489 53.34490
#
# Poissons Ratio (x) = 0.11846 0.32562
# Poissons Ratio (y) = 0.12868 0.16270
# Poissons Ratio (z) = 0.54907 0.25255
#
# Static dielectric constant tensor:
#      x y z
#    x 1.733780 0.000000 0.000000 
#    y 0.000000 1.670620 0.000000 
#    z 0.000000 0.000000 1.609010 
# 
# From -- ./inp_files/14217.got.cif
#   From: 2010.05.17/outbox.cif.g08.bks.cpg/sg42_8_cif.got.tgz:14217.got - 2010.06.03 19:03:34.
