data_PCOD9368379
_publ_section_title
;
Structure prediction by ZEFSAII (Michael W. Deem and Ramdas Pophale) SiO2 
 PCOD9368379
Probable space group: F M M 2
;
_chemical_formula_sum "Si O2"
_cell_formula_units_Z 100
_cell_length_a 22.509473
_cell_length_b 14.866152
_cell_length_c 14.347017
_cell_angle_alpha 90.000000
_cell_angle_beta 90.000000
_cell_angle_gamma 90.000000
_cell_volume 4800.931496
_symmetry_space_group_name_H-M "F M M 2"
_symmetry_group_IT_number 42
_symmetry_cell_setting 'orthorhombic'
loop_
_space_group_symop_operation_xyz
x,y,z
-x,-y,z
-x,y,z
x,-y,z
x,1/2+y,1/2+z
-x,1/2-y,1/2+z
-x,1/2+y,1/2+z
x,1/2-y,1/2+z
1/2+x,y,1/2+z
1/2-x,-y,1/2+z
1/2-x,y,1/2+z
1/2+x,-y,1/2+z
1/2+x,1/2+y,z
1/2-x,1/2-y,z
1/2-x,1/2+y,z
1/2+x,1/2-y,z
loop_
_atom_site_type_symbol
_atom_site_label
_atom_site_fract_x
_atom_site_fract_y
_atom_site_fract_z
Si Si1 0.709835 0.890538 0.010060
Si Si2 0.500000 0.000000 0.071950
Si Si3 0.623512 0.109897 0.312750
Si Si4 0.264539 0.109727 0.809841
Si Si5 0.179932 0.395247 0.622474
Si Si6 0.908321 0.158795 0.609862
Si Si7 0.932374 0.846193 0.014243
O O1 0.774655 0.860751 0.044768
O O2 0.659554 0.855187 0.077959
O O3 0.706459 0.000000 0.011197
O O4 0.704191 0.858992 0.904310
O O5 0.448326 0.077266 0.076512
O O6 0.694244 0.130000 0.309534
O O7 0.592512 0.155583 0.222785
O O8 0.594667 0.140527 0.410618
O O9 0.617006 0.000000 0.305059
O O10 0.300523 0.145292 0.720900
O O11 0.266885 0.000000 0.811873
O O12 0.194373 0.500000 0.631448
O O13 0.113385 0.390632 0.586754
O O14 0.931099 0.245482 0.554795
O O15 0.000000 0.879989 0.014948
#
# Coordination Sequence:
#
# PCOD9368379 Si02
#       7
#    16   4  16  16  16  16  16
#     4  10  18  36  66  96 127 169 230 290 342 409
#     4  12  24  48  72  96 126 190 246 276 356 420
#     4  11  22  43  74 104 131 181 238 288 344 410
#     4   9  18  35  65  99 130 172 230 286 336 411
#     4  10  20  39  64  96 139 184 224 278 356 424
#     4  12  25  44  71 100 132 180 240 296 338 411
#     4  12  28  42  61 102 149 180 223 297 356 414
#
# _framework density 20.829291999999999
#
# number of rings (size 3 to 8) (size 9 to 14) (size 15 to 20)
#    0.000    1.280    5.600    0.480    1.120    3.200 
#    0.000    1.600    1.760    0.000    0.000    0.000 
#    0.000    0.000    0.000    0.000    0.000    0.000 
#
# Total GULP energy -139315.988891 kJ/mol
# GULP energy per Si atom -5572.639556 kJ/mol
# Density = 2.078188 g / cm^3
# Si number density = 20.829292 Si / 1000 Ang^3
#
#
#
# Elastic Constant Matrix: (Units=GPa)
#
#
# Indices 1 2 3 4 5 6 
#
# 1 128.5301 -1.3362 58.6637 0.0000 0.0000 0.0000
# 2 -1.3362 49.5006 26.5704 0.0000 0.0000 0.0000
# 3 58.6637 26.5704 163.3040 0.0000 0.0000 0.0000
# 4 0.0000 0.0000 0.0000 11.0685 0.0000 0.0000
# 5 0.0000 0.0000 0.0000 0.0000 4.5941 0.0000
# 6 0.0000 0.0000 0.0000 0.0000 0.0000 19.6318
#
#
#
# Elastic Compliance Matrix: (Units=1/GPa)
#
#
# Indices 1 2 3 4 5 6 
#
# 1 0.009539 0.002297 -0.003800 0.000000 0.000000 0.000000
# 2 0.002297 0.022688 -0.004517 0.000000 0.000000 0.000000
# 3 -0.003800 -0.004517 0.008224 0.000000 0.000000 0.000000
# 4 0.000000 0.000000 0.000000 0.090347 0.000000 0.000000
# 5 0.000000 0.000000 0.000000 0.000000 0.217670 0.000000
# 6 0.000000 0.000000 0.000000 0.000000 0.000000 0.050938
#
#
# Mechanical properties :
#
#
# Convention : Reuss Voigt Hill
#
# Bulk Modulus (GPa) = 35.19744 56.57003 45.88373
# Shear Modulus (GPa) = 11.87888 24.22134 18.05011
#
# Velocity S-wave (km/s) = 2.39068 3.41376 2.94696
# Velocity P-wave (km/s) = 4.95532 6.53882 5.80135
#
# Compressibility (1/GPa) = 0.02841116
#
# Stress axis : x y z
#
# Youngs Moduli (GPa) = 104.83560 44.07560 121.60015
#
# Poissons Ratio (x) = -0.10126 0.46213
# Poissons Ratio (y) = -0.24085 0.54924
# Poissons Ratio (z) = 0.39842 0.19908
#
# Static dielectric constant tensor:
#      x y z
#    x 1.735030 0.000000 0.000000 
#    y 0.000000 1.964570 0.000000 
#    z 0.000000 0.000000 1.774560 
# 
# From -- ./inp_files/15978.got.cif
#   From: 2010.05.17/outbox.cif.g08.bks.cpg/sg42_8_cif.got.tgz:15978.got - 2010.06.03 19:03:34.
