data_PCOD9368005
_publ_section_title
;
Structure prediction by ZEFSAII (Michael W. Deem and Ramdas Pophale) SiO2 
 PCOD9368005
Probable space group: A B A 2
;
_chemical_formula_sum "Si O2"
_cell_formula_units_Z 40
_cell_length_a 11.564942
_cell_length_b 16.274799
_cell_length_c 8.998122
_cell_angle_alpha 90.000000
_cell_angle_beta 90.000000
_cell_angle_gamma 90.000000
_cell_volume 1693.600487
_symmetry_space_group_name_H-M "A B A 2"
_symmetry_group_IT_number 41
_symmetry_cell_setting 'orthorhombic'
loop_
_space_group_symop_operation_xyz
x,y,z
-x,-y,z
1/2-x,y,1/2+z
1/2+x,-y,1/2+z
x,1/2+y,1/2+z
-x,1/2-y,1/2+z
1/2-x,1/2+y,z
1/2+x,1/2-y,z
loop_
_atom_site_type_symbol
_atom_site_label
_atom_site_fract_x
_atom_site_fract_y
_atom_site_fract_z
Si Si1 0.272463 0.169782 0.837860
Si Si2 0.499489 0.407473 0.468357
Si Si3 0.325012 0.427716 0.200670
Si Si4 0.185597 0.784785 0.577130
Si Si5 0.134763 0.512766 0.395355
O O1 0.374624 0.127876 0.933368
O O2 0.323640 0.207407 0.687275
O O3 0.174310 0.100815 0.833421
O O4 0.216395 0.246977 0.919439
O O5 0.500000 0.500000 0.532528
O O6 0.432519 0.418262 0.310852
O O7 0.426041 0.342888 0.564252
O O8 0.291988 0.342912 0.122512
O O9 0.217227 0.451412 0.304922
O O10 0.341103 0.495282 0.070783
O O11 0.000000 0.500000 0.374450
#
# Coordination Sequence:
#
# PCOD9368005 Si02
#       5
#     8   8   8   8   8
#     4  12  28  48  77 120 156 204 267 326 405 460
#     4  12  26  50  78 106 157 211 260 328 391 489
#     4  12  24  52  73 112 154 208 265 319 394 481
#     4  12  27  48  73 115 156 198 262 329 396 459
#     4  12  28  49  80 112 159 213 265 323 392 485
#
# _framework density 23.618321000000002
#
# number of rings (size 3 to 8) (size 9 to 14) (size 15 to 20)
#    0.000    0.000    6.000    1.800    5.600    5.600 
#    0.000    0.000    0.000    0.000    0.000    0.000 
#    0.000    0.000    0.000    0.000    0.000    0.000 
#
# Total GULP energy -112077.607926 kJ/mol
# GULP energy per Si atom -5603.880396 kJ/mol
# Density = 2.356456 g / cm^3
# Si number density = 23.618321 Si / 1000 Ang^3
#
#
#
# Elastic Constant Matrix: (Units=GPa)
#
#
# Indices 1 2 3 4 5 6 
#
# 1 134.6501 49.3632 12.8444 0.0000 0.0000 0.0000
# 2 49.3632 125.3152 28.4102 0.0000 0.0000 0.0000
# 3 12.8444 28.4102 88.6676 0.0000 0.0000 0.0000
# 4 0.0000 0.0000 0.0000 39.5888 0.0000 0.0000
# 5 0.0000 0.0000 0.0000 0.0000 13.9169 0.0000
# 6 0.0000 0.0000 0.0000 0.0000 0.0000 51.9765
#
#
#
# Elastic Compliance Matrix: (Units=1/GPa)
#
#
# Indices 1 2 3 4 5 6 
#
# 1 0.008683 -0.003381 -0.000175 0.000000 0.000000 0.000000
# 2 -0.003381 0.009921 -0.002689 0.000000 0.000000 0.000000
# 3 -0.000175 -0.002689 0.012165 0.000000 0.000000 0.000000
# 4 0.000000 0.000000 0.000000 0.025260 0.000000 0.000000
# 5 0.000000 0.000000 0.000000 0.000000 0.071855 0.000000
# 6 0.000000 0.000000 0.000000 0.000000 0.000000 0.019239
#
#
# Mechanical properties :
#
#
# Convention : Reuss Voigt Hill
#
# Bulk Modulus (GPa) = 54.70416 58.87429 56.78923
# Shear Modulus (GPa) = 30.17408 38.29744 34.23576
#
# Velocity S-wave (km/s) = 3.57819 4.03117 3.81142
# Velocity P-wave (km/s) = 6.34691 6.82998 6.59287
#
# Compressibility (1/GPa) = 0.01828014
#
# Stress axis : x y z
#
# Youngs Moduli (GPa) = 115.17214 100.79421 82.20295
#
# Poissons Ratio (x) = 0.34075 0.01435
# Poissons Ratio (y) = 0.38935 0.22106
# Poissons Ratio (z) = 0.02011 0.27105
#
# Static dielectric constant tensor:
#      x y z
#    x 1.837000 0.000000 0.000000 
#    y 0.000000 1.959050 0.000000 
#    z 0.000000 0.000000 1.940190 
# 
# From -- ./inp_files/1982.got.cif
#   From: 2010.05.17/outbox.cif.g08.bks.cpg/sg41_1_cif.got.tgz:1982.got - 2010.06.03 18:54:24.
