data_PCOD9368046
_publ_section_title
;
Structure prediction by ZEFSAII (Michael W. Deem and Ramdas Pophale) SiO2 
 PCOD9368046
Probable space group: A B A 2
;
_chemical_formula_sum "Si O2"
_cell_formula_units_Z 48
_cell_length_a 6.982837
_cell_length_b 26.310930
_cell_length_c 9.179327
_cell_angle_alpha 90.000000
_cell_angle_beta 90.000000
_cell_angle_gamma 90.000000
_cell_volume 1686.471261
_symmetry_space_group_name_H-M "A B A 2"
_symmetry_group_IT_number 41
_symmetry_cell_setting 'orthorhombic'
loop_
_space_group_symop_operation_xyz
x,y,z
-x,-y,z
1/2-x,y,1/2+z
1/2+x,-y,1/2+z
x,1/2+y,1/2+z
-x,1/2-y,1/2+z
1/2-x,1/2+y,z
1/2+x,1/2-y,z
loop_
_atom_site_type_symbol
_atom_site_label
_atom_site_fract_x
_atom_site_fract_y
_atom_site_fract_z
Si Si1 0.479299 0.334273 0.415250
Si Si2 0.082023 0.554899 0.820750
Si Si3 0.402928 0.692463 0.985857
Si Si4 0.026596 0.444345 0.258808
Si Si5 0.864519 0.588288 0.558272
Si Si6 0.656304 0.717381 0.713495
O O1 0.701813 0.320404 0.413505
O O2 0.488816 0.394683 0.391327
O O3 0.412813 0.316719 0.576530
O O4 0.338804 0.309628 0.293041
O O5 0.016665 0.558522 0.654808
O O6 0.309360 0.567370 0.809068
O O7 0.669271 0.585592 0.652371
O O8 0.000000 0.500000 0.871659
O O9 0.018735 0.780614 0.854669
O O10 0.532104 0.643065 0.024862
O O11 0.347009 0.729196 0.122263
O O12 0.140830 0.442351 0.408996
O O13 0.000000 0.500000 0.195183
#
# Coordination Sequence:
#
# PCOD9368046 Si02
#       6
#     8   8   8   8   8   8
#     4  12  34  62  99 143 199 265 334 424 510 624
#     4  12  29  59  95 146 198 265 338 414 507 612
#     4  12  34  63  99 142 198 264 337 431 511 620
#     4  12  29  61  97 142 202 271 337 417 511 609
#     4  12  31  58  96 145 197 266 342 420 507 603
#     4  12  36  59 100 145 195 263 344 415 525 610
#
# _framework density 28.461796
#
# number of rings (size 3 to 8) (size 9 to 14) (size 15 to 20)
#    0.000    0.000    3.333    0.500   14.000    4.000 
#    6.000    0.000    3.667    0.000    0.000    0.000 
#    0.000    0.000    0.000    0.000    0.000    0.000 
#
# Total GULP energy -134245.693126 kJ/mol
# GULP energy per Si atom -5593.570547 kJ/mol
# Density = 2.839702 g / cm^3
# Si number density = 28.461796 Si / 1000 Ang^3
#
#
#
# Elastic Constant Matrix: (Units=GPa)
#
#
# Indices 1 2 3 4 5 6 
#
# 1 201.7346 83.8114 60.9192 0.0000 0.0000 0.0000
# 2 83.8114 216.9482 70.1224 0.0000 0.0000 0.0000
# 3 60.9192 70.1224 221.7188 0.0000 0.0000 0.0000
# 4 0.0000 0.0000 0.0000 41.1950 0.0000 0.0000
# 5 0.0000 0.0000 0.0000 0.0000 45.1628 0.0000
# 6 0.0000 0.0000 0.0000 0.0000 0.0000 32.4430
#
#
#
# Elastic Compliance Matrix: (Units=1/GPa)
#
#
# Indices 1 2 3 4 5 6 
#
# 1 0.006112 -0.002026 -0.001039 0.000000 0.000000 0.000000
# 2 -0.002026 0.005805 -0.001280 0.000000 0.000000 0.000000
# 3 -0.001039 -0.001280 0.005200 0.000000 0.000000 0.000000
# 4 0.000000 0.000000 0.000000 0.024275 0.000000 0.000000
# 5 0.000000 0.000000 0.000000 0.000000 0.022142 0.000000
# 6 0.000000 0.000000 0.000000 0.000000 0.000000 0.030823
#
#
# Mechanical properties :
#
#
# Convention : Reuss Voigt Hill
#
# Bulk Modulus (GPa) = 118.61974 118.90084 118.76029
# Shear Modulus (GPa) = 47.23401 52.13008 49.68205
#
# Velocity S-wave (km/s) = 4.07819 4.28434 4.18253
# Velocity P-wave (km/s) = 7.99642 8.14496 8.07103
#
# Compressibility (1/GPa) = 0.00843030
#
# Stress axis : x y z
#
# Youngs Moduli (GPa) = 163.60723 172.25141 192.29617
#
# Poissons Ratio (x) = 0.34890 0.19975
# Poissons Ratio (y) = 0.33139 0.24605
# Poissons Ratio (z) = 0.16995 0.22040
#
# Static dielectric constant tensor:
#      x y z
#    x 2.301950 0.000000 0.000000 
#    y 0.000000 2.392680 0.000000 
#    z 0.000000 0.000000 2.140610 
# 
# From -- ./inp_files/1796.got.cif
#   From: 2010.05.17/outbox.cif.g08.bks.cpg/sg41_1_cif.got.tgz:1796.got - 2010.06.03 18:54:24.
