data_PCOD9368028
_publ_section_title
;
Structure prediction by ZEFSAII (Michael W. Deem and Ramdas Pophale) SiO2 
 PCOD9368028
Probable space group: A B A 2
;
_chemical_formula_sum "Si O2"
_cell_formula_units_Z 36
_cell_length_a 9.450144
_cell_length_b 15.457326
_cell_length_c 9.496498
_cell_angle_alpha 90.000000
_cell_angle_beta 90.000000
_cell_angle_gamma 90.000000
_cell_volume 1387.191036
_symmetry_space_group_name_H-M "A B A 2"
_symmetry_group_IT_number 41
_symmetry_cell_setting 'orthorhombic'
loop_
_space_group_symop_operation_xyz
x,y,z
-x,-y,z
1/2-x,y,1/2+z
1/2+x,-y,1/2+z
x,1/2+y,1/2+z
-x,1/2-y,1/2+z
1/2-x,1/2+y,z
1/2+x,1/2-y,z
loop_
_atom_site_type_symbol
_atom_site_label
_atom_site_fract_x
_atom_site_fract_y
_atom_site_fract_z
Si Si1 0.061286 0.635817 0.528090
Si Si2 0.213865 0.432027 0.393499
Si Si3 0.531844 0.172020 0.980910
Si Si4 0.204684 0.103508 0.313703
Si Si5 0.000000 0.000000 0.658867
O O1 0.038748 0.736693 0.557230
O O2 0.160829 0.597125 0.650174
O O3 0.144318 0.631808 0.378415
O O4 0.911683 0.586937 0.505115
O O5 0.319668 0.351642 0.404507
O O6 0.320716 0.513134 0.397481
O O7 0.131287 0.469718 0.258015
O O8 0.489981 0.092356 0.080859
O O9 0.406928 0.174069 0.868590
#
# Coordination Sequence:
#
# PCOD9368028 Si02
#       5
#     8   8   8   8   4
#     4  12  30  50  84 119 164 209 273 341 402 484
#     4  12  27  50  81 111 160 210 268 321 407 478
#     4  12  29  49  81 119 157 211 270 333 405 480
#     4  12  27  52  81 120 161 213 269 333 410 483
#     4  12  26  50  78 114 162 208 260 330 400 490
#
# _framework density 25.951726000000001
#
# number of rings (size 3 to 8) (size 9 to 14) (size 15 to 20)
#    0.000    0.000    4.444    2.667    9.333    1.778 
#    0.000    0.000    0.000    0.000    0.000    0.000 
#    0.000    0.000    0.000    0.000    0.000    0.000 
#
# Total GULP energy -100394.061136 kJ/mol
# GULP energy per Si atom -5577.447841 kJ/mol
# Density = 2.589266 g / cm^3
# Si number density = 25.951726 Si / 1000 Ang^3
#
#
#
# Elastic Constant Matrix: (Units=GPa)
#
#
# Indices 1 2 3 4 5 6 
#
# 1 141.2611 34.9692 43.1164 0.0000 0.0000 0.0000
# 2 34.9692 169.4995 70.3450 0.0000 0.0000 0.0000
# 3 43.1164 70.3450 111.9980 0.0000 0.0000 0.0000
# 4 0.0000 0.0000 0.0000 29.1459 0.0000 0.0000
# 5 0.0000 0.0000 0.0000 0.0000 35.0985 0.0000
# 6 0.0000 0.0000 0.0000 0.0000 0.0000 43.9314
#
#
#
# Elastic Compliance Matrix: (Units=1/GPa)
#
#
# Indices 1 2 3 4 5 6 
#
# 1 0.008054 -0.000507 -0.002782 0.000000 0.000000 0.000000
# 2 -0.000507 0.008012 -0.004837 0.000000 0.000000 0.000000
# 3 -0.002782 -0.004837 0.013038 0.000000 0.000000 0.000000
# 4 0.000000 0.000000 0.000000 0.034310 0.000000 0.000000
# 5 0.000000 0.000000 0.000000 0.000000 0.028491 0.000000
# 6 0.000000 0.000000 0.000000 0.000000 0.000000 0.022763
#
#
# Mechanical properties :
#
#
# Convention : Reuss Voigt Hill
#
# Bulk Modulus (GPa) = 77.81289 79.95776 78.88532
# Shear Modulus (GPa) = 36.98142 39.92370 38.45256
#
# Velocity S-wave (km/s) = 3.77902 3.92648 3.85346
# Velocity P-wave (km/s) = 7.00644 7.17171 7.08955
#
# Compressibility (1/GPa) = 0.01285134
#
# Stress axis : x y z
#
# Youngs Moduli (GPa) = 124.16586 124.81730 76.70013
#
# Poissons Ratio (x) = 0.06328 0.21339
# Poissons Ratio (y) = 0.06295 0.37099
# Poissons Ratio (z) = 0.34544 0.60373
#
# Static dielectric constant tensor:
#      x y z
#    x 2.219290 0.000000 0.000000 
#    y 0.000000 2.055020 0.000000 
#    z 0.000000 0.000000 2.177140 
# 
# From -- ./inp_files/2005.got.cif
#   From: 2010.05.17/outbox.cif.g08.bks.cpg/sg41_2_cif.got.tgz:2005.got - 2010.06.03 18:54:24.
