data_PCOD9368620
_publ_section_title
;
Structure prediction by ZEFSAII (Michael W. Deem and Ramdas Pophale) SiO2 
 PCOD9368620
Probable space group: F M M 2
;
_chemical_formula_sum "Si O2"
_cell_formula_units_Z 96
_cell_length_a 11.104625
_cell_length_b 15.231256
_cell_length_c 25.188431
_cell_angle_alpha 90.000000
_cell_angle_beta 90.000000
_cell_angle_gamma 90.000000
_cell_volume 4260.305381
_symmetry_space_group_name_H-M "F M M 2"
_symmetry_group_IT_number 42
_symmetry_cell_setting 'orthorhombic'
loop_
_space_group_symop_operation_xyz
x,y,z
-x,-y,z
-x,y,z
x,-y,z
x,1/2+y,1/2+z
-x,1/2-y,1/2+z
-x,1/2+y,1/2+z
x,1/2-y,1/2+z
1/2+x,y,1/2+z
1/2-x,-y,1/2+z
1/2-x,y,1/2+z
1/2+x,-y,1/2+z
1/2+x,1/2+y,z
1/2-x,1/2-y,z
1/2-x,1/2+y,z
1/2+x,1/2-y,z
loop_
_atom_site_type_symbol
_atom_site_label
_atom_site_fract_x
_atom_site_fract_y
_atom_site_fract_z
Si Si1 0.636924 0.892290 0.917100
Si Si2 0.250631 0.154357 0.245462
Si Si3 0.000000 0.607337 0.570153
Si Si4 0.743789 0.892914 0.029118
Si Si5 0.358574 0.599453 0.640235
Si Si6 0.135479 0.899437 0.849115
Si Si7 0.500000 0.896171 0.694104
O O1 0.500000 0.863885 0.903689
O O2 0.748099 0.862464 0.880150
O O3 0.634126 0.000000 0.915086
O O4 0.674662 0.864611 0.976570
O O5 0.250000 0.250000 0.270182
O O6 0.319680 0.156109 0.189785
O O7 0.323887 0.097909 0.287668
O O8 0.117039 0.127596 0.228449
O O9 0.118123 0.633842 0.537451
O O10 0.000000 0.500000 0.572305
O O11 0.000000 0.638191 0.632422
O O12 0.681575 0.865276 0.083719
O O13 0.739983 0.000000 0.028008
O O14 0.500000 0.591780 0.639966
O O15 0.305625 0.500000 0.647305
O O16 0.000000 0.860626 0.854554
O O17 0.125634 0.000000 0.868447
O O18 0.500000 0.000000 0.687955
#
# Coordination Sequence:
#
# PCOD9368620 Si02
#       7
#    16  16   8  16  16  16   8
#     4   9  18  32  53  85 119 149 192 250 304 355
#     4  12  26  39  59  85 121 156 202 254 311 364
#     4   9  16  28  50  83 118 151 195 239 292 353
#     4   9  16  28  50  83 119 151 188 243 297 351
#     4  10  19  34  58  84 115 155 194 237 296 363
#     4  10  22  40  61  84 114 154 200 248 302 365
#     4  11  22  40  64  91 121 165 213 255 305 371
#
# _framework density 22.533595999999999
#
# number of rings (size 3 to 8) (size 9 to 14) (size 15 to 20)
#    0.000    2.000    1.667    2.500    4.667    3.333 
#    0.000    0.000    0.000    1.000    0.000    2.333 
#    0.000    0.000    0.000    0.000    0.000    0.000 
#
# Total GULP energy -133948.193804 kJ/mol
# GULP energy per Si atom -5581.174742 kJ/mol
# Density = 2.248231 g / cm^3
# Si number density = 22.533596 Si / 1000 Ang^3
#
#
#
# Elastic Constant Matrix: (Units=GPa)
#
#
# Indices 1 2 3 4 5 6 
#
# 1 211.2955 3.5777 72.2325 0.0000 0.0000 0.0000
# 2 3.5777 30.9619 -0.2499 0.0000 0.0000 0.0000
# 3 72.2325 -0.2499 115.9624 0.0000 0.0000 0.0000
# 4 0.0000 0.0000 0.0000 -8.1225 0.0000 0.0000
# 5 0.0000 0.0000 0.0000 0.0000 34.9844 0.0000
# 6 0.0000 0.0000 0.0000 0.0000 0.0000 -7.1376
#
#
#
# Elastic Compliance Matrix: (Units=1/GPa)
#
#
# Indices 1 2 3 4 5 6 
#
# 1 0.006029 -0.000727 -0.003757 0.000000 0.000000 0.000000
# 2 -0.000727 0.032386 0.000523 0.000000 0.000000 0.000000
# 3 -0.003757 0.000523 0.010965 0.000000 0.000000 0.000000
# 4 0.000000 0.000000 0.000000 -0.123114 0.000000 0.000000
# 5 0.000000 0.000000 0.000000 0.000000 0.028584 0.000000
# 6 0.000000 0.000000 0.000000 0.000000 0.000000 -0.140104
#
#
# Mechanical properties :
#
#
# Convention : Reuss Voigt Hill
#
# Bulk Modulus (GPa) = 24.12133 56.59339 40.35736
# Shear Modulus (GPa) = -30.57898 22.78882 -3.89508
#
# Velocity S-wave (km/s) = -3.68780 3.18359 -1.31618
# Velocity P-wave (km/s) = 2.72127 6.21959 3.95462
#
# Compressibility (1/GPa) = 0.04145708
#
# Stress axis : x y z
#
# Youngs Moduli (GPa) = 165.85197 30.87759 91.19906
#
# Poissons Ratio (x) = 0.02245 0.34266
# Poissons Ratio (y) = 0.12058 -0.04767
# Poissons Ratio (z) = 0.62316 -0.01614
#
# Static dielectric constant tensor:
#      x y z
#    x 1.853820 0.000000 0.000000 
#    y 0.000000 1.870170 0.000000 
#    z 0.000000 0.000000 1.795370 
# 
# From -- ./inp_files/28844.got.cif
#   From: 2010.05.17/outbox.cif.g08.bks.cpg/sg42_15_cif.got.tgz:28844.got - 2010.06.03 19:03:34.
