data_PCOD9368744
_publ_section_title
;
Structure prediction by ZEFSAII (Michael W. Deem and Ramdas Pophale) SiO2 
 PCOD9368744
Probable space group: F M M 2
;
_chemical_formula_sum "Si O2"
_cell_formula_units_Z 104
_cell_length_a 15.190768
_cell_length_b 16.353071
_cell_length_c 18.691003
_cell_angle_alpha 90.000000
_cell_angle_beta 90.000000
_cell_angle_gamma 90.000000
_cell_volume 4643.138737
_symmetry_space_group_name_H-M "F M M 2"
_symmetry_group_IT_number 42
_symmetry_cell_setting 'orthorhombic'
loop_
_space_group_symop_operation_xyz
x,y,z
-x,-y,z
-x,y,z
x,-y,z
x,1/2+y,1/2+z
-x,1/2-y,1/2+z
-x,1/2+y,1/2+z
x,1/2-y,1/2+z
1/2+x,y,1/2+z
1/2-x,-y,1/2+z
1/2-x,y,1/2+z
1/2+x,-y,1/2+z
1/2+x,1/2+y,z
1/2-x,1/2-y,z
1/2-x,1/2+y,z
1/2+x,1/2-y,z
loop_
_atom_site_type_symbol
_atom_site_label
_atom_site_fract_x
_atom_site_fract_y
_atom_site_fract_z
Si Si1 0.159659 0.700689 0.281220
Si Si2 0.838094 0.904460 0.921060
Si Si3 0.837514 0.197354 0.053139
Si Si4 0.500000 0.296368 0.541828
Si Si5 0.627525 0.907787 0.943180
Si Si6 0.091999 0.874567 0.278222
Si Si7 0.750618 0.591266 0.675467
O O1 0.250000 0.750000 0.299440
O O2 0.141743 0.638153 0.345441
O O3 0.095184 0.776247 0.273522
O O4 0.176773 0.650225 0.208859
O O5 0.733246 0.899720 0.937621
O O6 0.863246 0.000000 0.921789
O O7 0.877246 0.848934 0.983916
O O8 0.750000 0.250000 0.034992
O O9 0.798869 0.131544 0.108589
O O10 0.919854 0.247506 0.083205
O O11 0.577282 0.344477 0.493535
O O12 0.597490 0.896911 0.861477
O O13 0.608275 0.000000 0.968028
O O14 0.175987 0.909686 0.237806
O O15 0.000000 0.904682 0.247673
O O16 0.718885 0.500000 0.660137
#
# Coordination Sequence:
#
# PCOD9368744 Si02
#       7
#    16  16  16   8  16  16  16
#     4  10  19  37  63  92 120 161 215 260 317 386
#     4  11  21  38  64  92 126 169 214 267 326 386
#     4  12  25  44  63  91 130 174 217 261 331 399
#     4  12  25  40  63  92 128 168 210 266 321 390
#     4  11  21  37  64 100 129 160 214 277 331 378
#     4  11  22  35  62  95 129 164 207 267 327 380
#     4  11  24  43  64  90 122 166 217 271 324 386
#
# _framework density 22.398641999999999
#
# number of rings (size 3 to 8) (size 9 to 14) (size 15 to 20)
#    0.000    0.923    5.385    4.385    1.077    0.923 
#    0.000    1.154    0.000    1.385    0.000    0.000 
#    0.000    0.000    0.000    0.000    0.000    0.000 
#
# Total GULP energy -144830.161577 kJ/mol
# GULP energy per Si atom -5570.390830 kJ/mol
# Density = 2.234766 g / cm^3
# Si number density = 22.398642 Si / 1000 Ang^3
#
#
#
# Elastic Constant Matrix: (Units=GPa)
#
#
# Indices 1 2 3 4 5 6 
#
# 1 58.3182 12.8715 -7.8705 0.0000 0.0000 0.0000
# 2 12.8715 132.4774 34.3733 0.0000 0.0000 0.0000
# 3 -7.8705 34.3733 65.8700 0.0000 0.0000 0.0000
# 4 0.0000 0.0000 0.0000 71.7142 0.0000 0.0000
# 5 0.0000 0.0000 0.0000 0.0000 1124.2505 0.0000
# 6 0.0000 0.0000 0.0000 0.0000 0.0000 5.7950
#
#
#
# Elastic Compliance Matrix: (Units=1/GPa)
#
#
# Indices 1 2 3 4 5 6 
#
# 1 0.018228 -0.002702 0.003588 0.000000 0.000000 0.000000
# 2 -0.002702 0.009131 -0.005088 0.000000 0.000000 0.000000
# 3 0.003588 -0.005088 0.018265 0.000000 0.000000 0.000000
# 4 0.000000 0.000000 0.000000 0.013944 0.000000 0.000000
# 5 0.000000 0.000000 0.000000 0.000000 0.000889 0.000000
# 6 0.000000 0.000000 0.000000 0.000000 0.000000 0.172562
#
#
# Mechanical properties :
#
#
# Convention : Reuss Voigt Hill
#
# Bulk Modulus (GPa) = 26.86695 37.26827 32.06761
# Shear Modulus (GPa) = 19.69820 254.83802 137.26811
#
# Velocity S-wave (km/s) = 2.96875 10.67806 7.83691
# Velocity P-wave (km/s) = 4.87568 12.98856 9.81007
#
# Compressibility (1/GPa) = 0.03722046
#
# Stress axis : x y z
#
# Youngs Moduli (GPa) = 54.86101 109.51599 54.74922
#
# Poissons Ratio (x) = 0.29591 -0.19644
# Poissons Ratio (y) = 0.14823 0.27855
# Poissons Ratio (z) = -0.19684 0.55719
#
# Static dielectric constant tensor:
#      x y z
#    x -0.004270 0.000000 0.000000 
#    y 0.000000 1.839370 0.000000 
#    z 0.000000 0.000000 1.817570 
# 
# From -- ./inp_files/25917.got.cif
#   From: 2010.05.17/outbox.cif.g08.bks.cpg/sg42_13_cif.got.tgz:25917.got - 2010.06.03 19:03:34.
