data_PCOD9368310
_publ_section_title
;
Structure prediction by ZEFSAII (Michael W. Deem and Ramdas Pophale) SiO2 
 PCOD9368310
Probable space group: F M M 2
;
_chemical_formula_sum "Si O2"
_cell_formula_units_Z 112
_cell_length_a 14.502636
_cell_length_b 22.853922
_cell_length_c 14.573899
_cell_angle_alpha 90.000000
_cell_angle_beta 90.000000
_cell_angle_gamma 90.000000
_cell_volume 4830.403864
_symmetry_space_group_name_H-M "F M M 2"
_symmetry_group_IT_number 42
_symmetry_cell_setting 'orthorhombic'
loop_
_space_group_symop_operation_xyz
x,y,z
-x,-y,z
-x,y,z
x,-y,z
x,1/2+y,1/2+z
-x,1/2-y,1/2+z
-x,1/2+y,1/2+z
x,1/2-y,1/2+z
1/2+x,y,1/2+z
1/2-x,-y,1/2+z
1/2-x,y,1/2+z
1/2+x,-y,1/2+z
1/2+x,1/2+y,z
1/2-x,1/2-y,z
1/2-x,1/2+y,z
1/2+x,1/2-y,z
loop_
_atom_site_type_symbol
_atom_site_label
_atom_site_fract_x
_atom_site_fract_y
_atom_site_fract_z
Si Si1 0.895548 0.656255 0.554410
Si Si2 0.845939 0.934786 0.724651
Si Si3 0.608549 0.785938 0.039003
Si Si4 0.856365 0.691520 0.255538
Si Si5 0.651342 0.438367 0.329647
Si Si6 0.789777 0.900608 0.520320
Si Si7 0.135316 0.316628 0.768671
O O1 0.871035 0.719452 0.510958
O O2 0.819219 0.608451 0.532337
O O3 0.890312 0.670825 0.662738
O O4 0.000000 0.640549 0.530107
O O5 0.890689 0.875449 0.767428
O O6 0.742616 0.936607 0.766005
O O7 0.834222 0.922730 0.615502
O O8 0.886029 0.000000 0.739410
O O9 0.500000 0.796426 0.025802
O O10 0.630216 0.794146 0.147547
O O11 0.670426 0.836177 0.996751
O O12 0.895397 0.751508 0.299361
O O13 0.746917 0.687263 0.274070
O O14 0.603470 0.500000 0.308866
O O15 0.684836 0.438817 0.434113
O O16 0.603004 0.376105 0.316081
#
# Coordination Sequence:
#
# PCOD9368310 Si02
#       7
#    16  16  16  16  16  16  16
#     4  10  18  32  56  84 115 151 193 241 291 348
#     4   9  17  32  54  80 112 146 188 236 281 346
#     4   9  17  30  52  81 115 148 187 240 294 343
#     4   8  14  27  53  75 107 139 181 227 275 340
#     4  10  20  33  55  83 110 153 196 241 293 347
#     4  11  19  34  56  83 108 159 197 235 290 357
#     4   9  15  32  52  80 110 140 183 236 287 339
#
# _framework density 23.186467
#
# number of rings (size 3 to 8) (size 9 to 14) (size 15 to 20)
#    0.000    2.571    4.286    0.857    0.000    0.000 
#   10.286    0.714    0.000   23.143    0.000   12.000 
#    0.000    0.000    0.000    0.000    0.000    0.000 
#
# Total GULP energy -156091.733884 kJ/mol
# GULP energy per Si atom -5574.704782 kJ/mol
# Density = 2.313369 g / cm^3
# Si number density = 23.186467 Si / 1000 Ang^3
#
#
#
# Elastic Constant Matrix: (Units=GPa)
#
#
# Indices 1 2 3 4 5 6 
#
# 1 79.5853 41.1181 -1.9187 0.0000 0.0000 0.0000
# 2 41.1181 224.3747 15.9508 0.0000 0.0000 0.0000
# 3 -1.9187 15.9508 66.4763 0.0000 0.0000 0.0000
# 4 0.0000 0.0000 0.0000 17.5424 0.0000 0.0000
# 5 0.0000 0.0000 0.0000 0.0000 -13.9964 0.0000
# 6 0.0000 0.0000 0.0000 0.0000 0.0000 -15.1148
#
#
#
# Elastic Compliance Matrix: (Units=1/GPa)
#
#
# Indices 1 2 3 4 5 6 
#
# 1 0.013949 -0.002630 0.001034 0.000000 0.000000 0.000000
# 2 -0.002630 0.005030 -0.001283 0.000000 0.000000 0.000000
# 3 0.001034 -0.001283 0.015381 0.000000 0.000000 0.000000
# 4 0.000000 0.000000 0.000000 0.057005 0.000000 0.000000
# 5 0.000000 0.000000 0.000000 0.000000 -0.071447 0.000000
# 6 0.000000 0.000000 0.000000 0.000000 0.000000 -0.066160
#
#
# Mechanical properties :
#
#
# Convention : Reuss Voigt Hill
#
# Bulk Modulus (GPa) = 34.96334 53.41521 44.18927
# Shear Modulus (GPa) = -161.54367 18.70530 -71.41919
#
# Velocity S-wave (km/s) = -8.35600 2.84339 -5.55598
# Velocity P-wave (km/s) = 8.83092 5.81954 4.69670
#
# Compressibility (1/GPa) = 0.02860138
#
# Stress axis : x y z
#
# Youngs Moduli (GPa) = 71.69138 198.80992 65.01703
#
# Poissons Ratio (x) = 0.52280 -0.06720
# Poissons Ratio (y) = 0.18852 0.08340
# Poissons Ratio (z) = -0.07410 0.25504
#
# Static dielectric constant tensor:
#      x y z
#    x 1.812240 0.000000 0.000000 
#    y 0.000000 1.999470 0.000000 
#    z 0.000000 0.000000 1.929900 
# 
# From -- ./inp_files/14250.got.cif
#   From: 2010.05.17/outbox.cif.g08.bks.cpg/sg42_8_cif.got.tgz:14250.got - 2010.06.03 19:03:34.
