data_PCOD9368811
_publ_section_title
;
Structure prediction by ZEFSAII (Michael W. Deem and Ramdas Pophale) SiO2 
 PCOD9368811
Probable space group: F M M 2
;
_chemical_formula_sum "Si O2"
_cell_formula_units_Z 96
_cell_length_a 24.477982
_cell_length_b 8.556804
_cell_length_c 26.188722
_cell_angle_alpha 90.000000
_cell_angle_beta 90.000000
_cell_angle_gamma 90.000000
_cell_volume 5485.314096
_symmetry_space_group_name_H-M "F M M 2"
_symmetry_group_IT_number 42
_symmetry_cell_setting 'orthorhombic'
loop_
_space_group_symop_operation_xyz
x,y,z
-x,-y,z
-x,y,z
x,-y,z
x,1/2+y,1/2+z
-x,1/2-y,1/2+z
-x,1/2+y,1/2+z
x,1/2-y,1/2+z
1/2+x,y,1/2+z
1/2-x,-y,1/2+z
1/2-x,y,1/2+z
1/2+x,-y,1/2+z
1/2+x,1/2+y,z
1/2-x,1/2-y,z
1/2-x,1/2+y,z
1/2+x,1/2-y,z
loop_
_atom_site_type_symbol
_atom_site_label
_atom_site_fract_x
_atom_site_fract_y
_atom_site_fract_z
Si Si1 0.936451 0.186562 0.805790
Si Si2 0.500000 0.676288 0.554767
Si Si3 0.384149 0.308957 0.520907
Si Si4 0.188661 0.812166 0.616663
Si Si5 0.114006 0.684109 0.708152
Si Si6 0.063446 0.688080 0.919057
Si Si7 0.500000 0.322566 0.674856
O O1 0.891864 0.252329 0.766072
O O2 0.926240 0.241933 0.863435
O O3 0.000000 0.236172 0.793479
O O4 0.935040 0.000000 0.803659
O O5 0.500000 0.500000 0.531365
O O6 0.557157 0.749865 0.540690
O O7 0.500000 0.659012 0.614714
O O8 0.382704 0.500000 0.522726
O O9 0.339981 0.258165 0.563157
O O10 0.390708 0.266421 0.461111
O O11 0.250000 0.750000 0.618658
O O12 0.155618 0.757757 0.667099
O O13 0.188208 0.000000 0.616604
O O14 0.122817 0.500000 0.709117
O O15 0.054105 0.730426 0.688366
O O16 0.064124 0.500000 0.915390
O O17 0.000000 0.731296 0.933714
O O18 0.500000 0.500000 0.696976
#
# Coordination Sequence:
#
# PCOD9368811 Si02
#       7
#    16   8  16  16  16  16   8
#     4  10  20  33  50  75 113 153 184 217 270 331
#     4   9  14  25  48  79 106 137 176 212 261 325
#     4   9  16  29  53  80 108 143 180 220 268 330
#     4  11  23  40  59  80 108 145 189 233 282 332
#     4  12  23  35  54  81 112 145 185 230 276 329
#     4   9  16  28  50  79 110 141 180 223 265 322
#     4  11  19  31  52  79 112 147 180 218 273 335
#
# _framework density 17.501277000000002
#
# number of rings (size 3 to 8) (size 9 to 14) (size 15 to 20)
#    0.000    1.833    3.333    2.750    0.000    0.667 
#    0.000    1.667    0.000    1.000    0.000    4.667 
#    0.000    0.000    0.000    0.000    0.000    0.000 
#
# Total GULP energy -133627.443182 kJ/mol
# GULP energy per Si atom -5567.810133 kJ/mol
# Density = 1.746144 g / cm^3
# Si number density = 17.501277 Si / 1000 Ang^3
#
#
#
# Elastic Constant Matrix: (Units=GPa)
#
#
# Indices 1 2 3 4 5 6 
#
# 1 110.7446 25.7082 70.1499 0.0000 0.0000 0.0001
# 2 25.7082 53.7278 41.6446 0.0000 0.0000 0.0001
# 3 70.1499 41.6446 162.6159 0.0000 0.0000 0.0000
# 4 0.0000 0.0000 0.0000 23.7481 0.0000 0.0000
# 5 0.0000 0.0000 0.0000 0.0000 13.9706 0.0000
# 6 0.0001 0.0001 0.0000 0.0000 0.0000 22.3838
#
#
#
# Elastic Compliance Matrix: (Units=1/GPa)
#
#
# Indices 1 2 3 4 5 6 
#
# 1 0.012644 -0.002274 -0.004872 0.000000 0.000000 0.000000
# 2 -0.002274 0.023631 -0.005071 0.000000 0.000000 0.000000
# 3 -0.004872 -0.005071 0.009550 0.000000 0.000000 0.000000
# 4 0.000000 0.000000 0.000000 0.042109 0.000000 0.000000
# 5 0.000000 0.000000 0.000000 0.000000 0.071579 0.000000
# 6 0.000000 0.000000 0.000000 0.000000 0.000000 0.044675
#
#
# Mechanical properties :
#
#
# Convention : Reuss Voigt Hill
#
# Bulk Modulus (GPa) = 46.74812 66.89930 56.82371
# Shear Modulus (GPa) = 21.20893 24.65956 22.93424
#
# Velocity S-wave (km/s) = 3.48494 3.75776 3.62392
# Velocity P-wave (km/s) = 6.55457 7.55884 7.07454
#
# Compressibility (1/GPa) = 0.02139123
#
# Stress axis : x y z
#
# Youngs Moduli (GPa) = 79.09070 42.31799 104.71436
#
# Poissons Ratio (x) = 0.09621 0.51017
# Poissons Ratio (y) = 0.17982 0.53099
# Poissons Ratio (z) = 0.38533 0.21459
#
# Static dielectric constant tensor:
#      x y z
#    x 1.578550 0.000000 0.000000 
#    y 0.000000 1.602490 0.000000 
#    z 0.000000 0.000000 1.663510 
# 
# From -- ./inp_files/33197.got.cif
#   From: 2010.05.17/outbox.cif.g08.bks.cpg/sg42_17_cif.got.tgz:33197.got - 2010.06.03 19:03:34.
