data_PCOD9368148
_publ_section_title
;
Structure prediction by ZEFSAII (Michael W. Deem and Ramdas Pophale) SiO2 
 PCOD9368148
Probable space group: F M M 2
;
_chemical_formula_sum "Si O2"
_cell_formula_units_Z 112
_cell_length_a 18.597563
_cell_length_b 16.563025
_cell_length_c 20.765316
_cell_angle_alpha 90.000000
_cell_angle_beta 90.000000
_cell_angle_gamma 90.000000
_cell_volume 6396.379760
_symmetry_space_group_name_H-M "F M M 2"
_symmetry_group_IT_number 42
_symmetry_cell_setting 'orthorhombic'
loop_
_space_group_symop_operation_xyz
x,y,z
-x,-y,z
-x,y,z
x,-y,z
x,1/2+y,1/2+z
-x,1/2-y,1/2+z
-x,1/2+y,1/2+z
x,1/2-y,1/2+z
1/2+x,y,1/2+z
1/2-x,-y,1/2+z
1/2-x,y,1/2+z
1/2+x,-y,1/2+z
1/2+x,1/2+y,z
1/2-x,1/2-y,z
1/2-x,1/2+y,z
1/2+x,1/2-y,z
loop_
_atom_site_type_symbol
_atom_site_label
_atom_site_fract_x
_atom_site_fract_y
_atom_site_fract_z
Si Si1 0.581947 0.197888 0.424330
Si Si2 0.734694 0.844984 0.733468
Si Si3 0.578852 0.596730 0.198205
Si Si4 0.610324 0.093782 0.550301
Si Si5 0.763981 0.653890 0.092379
Si Si6 0.190933 0.323622 0.961993
Si Si7 0.294814 0.908007 0.365355
O O1 0.500000 0.201181 0.402179
O O2 0.584816 0.151766 0.493481
O O3 0.619185 0.284707 0.433763
O O4 0.636547 0.148010 0.379573
O O5 0.750000 0.750000 0.743178
O O6 0.649136 0.859843 0.725840
O O7 0.770789 0.873955 0.665961
O O8 0.765167 0.891777 0.794347
O O9 0.500000 0.620425 0.223743
O O10 0.587645 0.500000 0.207107
O O11 0.578792 0.610653 0.120986
O O12 0.694691 0.110531 0.561596
O O13 0.597061 0.000000 0.534264
O O14 0.750000 0.750000 0.100175
O O15 0.821324 0.646560 0.035110
O O16 0.250000 0.250000 0.966067
O O17 0.231050 0.385405 0.915281
O O18 0.315865 0.000000 0.374989
#
# Coordination Sequence:
#
# PCOD9368148 Si02
#       7
#    16  16  16  16  16  16  16
#     4  11  21  33  54  80 110 141 172 220 279 330
#     4  10  20  33  53  76 107 147 184 219 263 327
#     4   9  18  32  51  78 112 141 172 222 277 323
#     4  10  17  27  47  81 113 137 166 210 273 332
#     4   9  15  30  53  75 103 140 179 220 260 312
#     4   9  17  34  55  75 103 137 179 222 259 318
#     4  11  22  37  55  77 106 143 184 228 272 321
#
# _framework density 17.509903999999999
#
# number of rings (size 3 to 8) (size 9 to 14) (size 15 to 20)
#    0.000    2.143    4.286    2.571    0.000    2.286 
#    0.000    2.857    0.000    2.143    0.000    0.000 
#    0.000    0.000    0.000    0.000    0.000    0.000 
#
# Total GULP energy -156012.579596 kJ/mol
# GULP energy per Si atom -5571.877843 kJ/mol
# Density = 1.747005 g / cm^3
# Si number density = 17.509904 Si / 1000 Ang^3
#
#
#
# Elastic Constant Matrix: (Units=GPa)
#
#
# Indices 1 2 3 4 5 6 
#
# 1 109.8732 32.7129 32.0825 0.0000 0.0000 0.0000
# 2 32.7129 24.1335 9.4371 0.0000 0.0000 0.0000
# 3 32.0825 9.4371 92.5062 0.0000 0.0000 0.0000
# 4 0.0000 0.0000 0.0000 11.9488 0.0000 0.0000
# 5 0.0000 0.0000 0.0000 0.0000 9.3400 0.0000
# 6 0.0000 0.0000 0.0000 0.0000 0.0000 14.2466
#
#
#
# Elastic Compliance Matrix: (Units=1/GPa)
#
#
# Indices 1 2 3 4 5 6 
#
# 1 0.016302 -0.020713 -0.003541 0.000000 0.000000 0.000000
# 2 -0.020713 0.069475 0.000096 0.000000 0.000000 0.000000
# 3 -0.003541 0.000096 0.012028 0.000000 0.000000 0.000000
# 4 0.000000 0.000000 0.000000 0.083690 0.000000 0.000000
# 5 0.000000 0.000000 0.000000 0.000000 0.107066 0.000000
# 6 0.000000 0.000000 0.000000 0.000000 0.000000 0.070192
#
#
# Mechanical properties :
#
#
# Convention : Reuss Voigt Hill
#
# Bulk Modulus (GPa) = 20.20609 41.66421 30.93515
# Shear Modulus (GPa) = 11.80451 17.25911 14.53181
#
# Velocity S-wave (km/s) = 2.59928 3.14295 2.88396
# Velocity P-wave (km/s) = 4.53577 6.08418 5.36612
#
# Compressibility (1/GPa) = 0.04949004
#
# Stress axis : x y z
#
# Youngs Moduli (GPa) = 61.34118 14.39363 83.13730
#
# Poissons Ratio (x) = 0.29814 0.29437
# Poissons Ratio (y) = 1.27056 -0.00798
# Poissons Ratio (z) = 0.21720 -0.00138
#
# Static dielectric constant tensor:
#      x y z
#    x 1.584640 0.000000 0.000000 
#    y 0.000000 1.617630 0.000000 
#    z 0.000000 0.000000 1.635300 
# 
# From -- ./inp_files/26055.got.cif
#   From: 2010.05.17/outbox.cif.g08.bks.cpg/sg42_14_cif.got.tgz:26055.got - 2010.06.03 19:03:34.
