data_PCOD9368270
_publ_section_title
;
Structure prediction by ZEFSAII (Michael W. Deem and Ramdas Pophale) SiO2 
 PCOD9368270
Probable space group: F M M 2
;
_chemical_formula_sum "Si O2"
_cell_formula_units_Z 104
_cell_length_a 16.231122
_cell_length_b 27.351886
_cell_length_c 10.204709
_cell_angle_alpha 90.000000
_cell_angle_beta 90.000000
_cell_angle_gamma 90.000000
_cell_volume 4530.398915
_symmetry_space_group_name_H-M "F M M 2"
_symmetry_group_IT_number 42
_symmetry_cell_setting 'orthorhombic'
loop_
_space_group_symop_operation_xyz
x,y,z
-x,-y,z
-x,y,z
x,-y,z
x,1/2+y,1/2+z
-x,1/2-y,1/2+z
-x,1/2+y,1/2+z
x,1/2-y,1/2+z
1/2+x,y,1/2+z
1/2-x,-y,1/2+z
1/2-x,y,1/2+z
1/2+x,-y,1/2+z
1/2+x,1/2+y,z
1/2-x,1/2-y,z
1/2-x,1/2+y,z
1/2+x,1/2-y,z
loop_
_atom_site_type_symbol
_atom_site_label
_atom_site_fract_x
_atom_site_fract_y
_atom_site_fract_z
Si Si1 0.586110 0.500000 0.853611
Si Si2 0.815970 0.417092 0.812153
Si Si3 0.734621 0.500000 0.654023
Si Si4 0.143167 0.399400 0.428554
Si Si5 0.100263 0.192464 0.758510
Si Si6 0.093253 0.660641 0.681616
Si Si7 0.406749 0.500000 0.441435
Si Si8 0.903515 0.256496 0.011331
O O1 0.500000 0.500000 0.780494
O O2 0.663982 0.500000 0.762422
O O3 0.594037 0.449910 0.929687
O O4 0.784922 0.450711 0.688913
O O5 0.738808 0.412171 0.909315
O O6 0.844485 0.361796 0.785197
O O7 0.891780 0.449704 0.862862
O O8 0.677599 0.500000 0.527311
O O9 0.122548 0.361687 0.309919
O O10 0.113265 0.371631 0.555473
O O11 0.130984 0.200781 0.607656
O O12 0.000000 0.195858 0.756774
O O13 0.128127 0.231541 0.874860
O O14 0.100578 0.714231 0.622300
O O15 0.000000 0.654477 0.727615
O O16 0.500000 0.500000 0.492672
O O17 0.000000 0.267666 0.983951
#
# Coordination Sequence:
#
# PCOD9368270 Si02
#       8
#     8  16   8  16  16  16   8  16
#     4  10  18  31  51  81 110 140 184 231 269 328
#     4  10  21  35  53  77 109 143 181 230 285 336
#     4   9  20  35  51  72 106 146 178 222 283 332
#     4  10  20  34  55  80 111 147 185 231 286 337
#     4   9  16  32  55  83 112 148 191 240 292 347
#     4  10  19  35  56  80 106 141 185 234 280 335
#     4  11  21  36  55  77 106 150 194 231 277 342
#     4   8  16  30  53  79 109 142 185 237 288 339
#
# _framework density 22.956035
#
# number of rings (size 3 to 8) (size 9 to 14) (size 15 to 20)
#    0.000    2.462    0.000    4.385    0.000    1.231 
#    0.000    7.692    0.000    9.231    0.000    0.000 
#    0.000    0.000    0.000    0.000    0.000    0.000 
#
# Total GULP energy -144744.886728 kJ/mol
# GULP energy per Si atom -5567.111028 kJ/mol
# Density = 2.290379 g / cm^3
# Si number density = 22.956035 Si / 1000 Ang^3
#
#
#
# Elastic Constant Matrix: (Units=GPa)
#
#
# Indices 1 2 3 4 5 6 
#
# 1 65.4948 7.6712 10.9493 0.0000 0.0000 0.0000
# 2 7.6712 56.3811 17.8660 0.0000 0.0000 0.0000
# 3 10.9493 17.8660 58.8656 0.0000 0.0000 0.0000
# 4 0.0000 0.0000 0.0000 19.6030 0.0000 0.0000
# 5 0.0000 0.0000 0.0000 0.0000 19.0841 0.0000
# 6 0.0000 0.0000 0.0000 0.0000 0.0000 30.3879
#
#
#
# Elastic Compliance Matrix: (Units=1/GPa)
#
#
# Indices 1 2 3 4 5 6 
#
# 1 0.015851 -0.001353 -0.002538 0.000000 0.000000 0.000000
# 2 -0.001353 0.019739 -0.005739 0.000000 0.000000 0.000000
# 3 -0.002538 -0.005739 0.019202 0.000000 0.000000 0.000000
# 4 0.000000 0.000000 0.000000 0.051013 0.000000 0.000000
# 5 0.000000 0.000000 0.000000 0.000000 0.052400 0.000000
# 6 0.000000 0.000000 0.000000 0.000000 0.000000 0.032908
#
#
# Mechanical properties :
#
#
# Convention : Reuss Voigt Hill
#
# Bulk Modulus (GPa) = 28.14319 28.19050 28.16685
# Shear Modulus (GPa) = 22.50064 23.43200 22.96632
#
# Velocity S-wave (km/s) = 3.13415 3.19836 3.16642
# Velocity P-wave (km/s) = 5.03820 5.09374 5.06604
#
# Compressibility (1/GPa) = 0.03553257
#
# Stress axis : x y z
#
# Youngs Moduli (GPa) = 63.08719 50.66081 52.07836
#
# Poissons Ratio (x) = 0.06852 0.13217
# Poissons Ratio (y) = 0.08533 0.29890
# Poissons Ratio (z) = 0.16011 0.29076
#
# Static dielectric constant tensor:
#      x y z
#    x 1.758440 0.000000 0.000000 
#    y 0.000000 2.265220 0.000000 
#    z 0.000000 0.000000 1.963580 
# 
# From -- ./inp_files/8996.got.cif
#   From: 2010.05.17/outbox.cif.g08.bks.cpg/sg42_5_cif.got.tgz:8996.got - 2010.06.03 19:03:34.
