data_PCOD9368578
_publ_section_title
;
Structure prediction by ZEFSAII (Michael W. Deem and Ramdas Pophale) SiO2 
 PCOD9368578
Probable space group: F M M 2
;
_chemical_formula_sum "Si O2"
_cell_formula_units_Z 116
_cell_length_a 7.816902
_cell_length_b 29.928214
_cell_length_c 26.043972
_cell_angle_alpha 90.000000
_cell_angle_beta 90.000000
_cell_angle_gamma 90.000000
_cell_volume 6092.880883
_symmetry_space_group_name_H-M "F M M 2"
_symmetry_group_IT_number 42
_symmetry_cell_setting 'orthorhombic'
loop_
_space_group_symop_operation_xyz
x,y,z
-x,-y,z
-x,y,z
x,-y,z
x,1/2+y,1/2+z
-x,1/2-y,1/2+z
-x,1/2+y,1/2+z
x,1/2-y,1/2+z
1/2+x,y,1/2+z
1/2-x,-y,1/2+z
1/2-x,y,1/2+z
1/2+x,-y,1/2+z
1/2+x,1/2+y,z
1/2-x,1/2-y,z
1/2-x,1/2+y,z
1/2+x,1/2-y,z
loop_
_atom_site_type_symbol
_atom_site_label
_atom_site_fract_x
_atom_site_fract_y
_atom_site_fract_z
Si Si1 0.704046 0.398483 0.881360
Si Si2 0.202571 0.117078 0.187304
Si Si3 0.500000 0.500000 0.112825
Si Si4 0.705435 0.798168 0.749621
Si Si5 0.203633 0.798715 0.366544
Si Si6 0.707352 0.947982 0.277879
Si Si7 0.309225 0.569435 0.593831
Si Si8 0.208062 0.947505 0.983826
O O1 0.500000 0.404684 0.879721
O O2 0.738151 0.345986 0.889298
O O3 0.768553 0.418651 0.827014
O O4 0.766552 0.426803 0.930101
O O5 0.270285 0.160135 0.217591
O O6 0.231625 0.074991 0.225394
O O7 0.291256 0.110246 0.132933
O O8 0.000000 0.122314 0.179675
O O9 0.651814 0.538002 0.109804
O O10 0.500000 0.801947 0.752749
O O11 0.750000 0.750000 0.727268
O O12 0.773799 0.799314 0.807964
O O13 0.250000 0.750000 0.389136
O O14 0.000000 0.800311 0.364872
O O15 0.500000 0.947352 0.277464
O O16 0.760573 0.000000 0.281946
O O17 0.500000 0.550680 0.600865
O O18 0.281948 0.577329 0.533365
O O19 0.000000 0.945540 0.986425
O O20 0.253350 0.000000 0.987926
#
# Coordination Sequence:
#
# PCOD9368578 Si02
#       8
#    16  16   4  16  16  16  16  16
#     4  10  20  34  56  82 114 153 190 236 292 342
#     4  11  22  38  55  81 119 155 192 243 298 348
#     4  12  22  44  60  86 120 152 198 264 288 340
#     4   9  19  34  56  80 110 149 190 240 296 348
#     4  10  19  34  54  80 111 144 189 238 287 348
#     4  10  21  34  49  78 114 154 195 230 278 350
#     4  12  24  39  62  88 115 158 203 246 298 346
#     4  10  19  37  59  82 115 155 198 246 288 335
#
# _framework density 19.038613999999999
#
# number of rings (size 3 to 8) (size 9 to 14) (size 15 to 20)
#    0.000    1.655    3.448    1.448    0.966    4.138 
#    0.000    0.000    0.000    3.310    0.000    3.862 
#    0.000    0.000    0.000    0.000    0.000    0.000 
#
# Total GULP energy -161546.981759 kJ/mol
# GULP energy per Si atom -5570.585578 kJ/mol
# Density = 1.899528 g / cm^3
# Si number density = 19.038614 Si / 1000 Ang^3
#
#
#
# Elastic Constant Matrix: (Units=GPa)
#
#
# Indices 1 2 3 4 5 6 
#
# 1 70.2793 -0.0498 6.4373 0.0000 0.0000 0.0000
# 2 -0.0498 80.7833 34.3593 0.0000 0.0000 0.0000
# 3 6.4373 34.3593 100.2487 0.0000 0.0000 0.0000
# 4 0.0000 0.0000 0.0000 42.9808 0.0000 0.0000
# 5 0.0000 0.0000 0.0000 0.0000 14.6931 0.0000
# 6 0.0000 0.0000 0.0000 0.0000 0.0000 -1.3757
#
#
#
# Elastic Compliance Matrix: (Units=1/GPa)
#
#
# Indices 1 2 3 4 5 6 
#
# 1 0.014328 0.000468 -0.001081 0.000000 0.000000 0.000000
# 2 0.000468 0.014507 -0.005002 0.000000 0.000000 0.000000
# 3 -0.001081 -0.005002 0.011759 0.000000 0.000000 0.000000
# 4 0.000000 0.000000 0.000000 0.023266 0.000000 0.000000
# 5 0.000000 0.000000 0.000000 0.000000 0.068059 0.000000
# 6 0.000000 0.000000 0.000000 0.000000 0.000000 -0.726919
#
#
# Mechanical properties :
#
#
# Convention : Reuss Voigt Hill
#
# Bulk Modulus (GPa) = 34.05376 36.97833 35.51604
# Shear Modulus (GPa) = -8.71107 25.29727 8.29310
#
# Velocity S-wave (km/s) = -2.14136 3.64914 2.08935
# Velocity P-wave (km/s) = 3.43681 6.10081 4.95134
#
# Compressibility (1/GPa) = 0.02936534
#
# Stress axis : x y z
#
# Youngs Moduli (GPa) = 69.79217 68.93416 85.04124
#
# Poissons Ratio (x) = -0.03229 0.09190
# Poissons Ratio (y) = -0.03269 0.42538
# Poissons Ratio (z) = 0.07542 0.34481
#
# Static dielectric constant tensor:
#      x y z
#    x 1.678130 0.000000 0.000000 
#    y 0.000000 1.667150 0.000000 
#    z 0.000000 0.000000 1.677660 
# 
# From -- ./inp_files/28460.got.cif
#   From: 2010.05.17/outbox.cif.g08.bks.cpg/sg42_15_cif.got.tgz:28460.got - 2010.06.03 19:03:34.
