data_PCOD9368808
_publ_section_title
;
Structure prediction by ZEFSAII (Michael W. Deem and Ramdas Pophale) SiO2 
 PCOD9368808
Probable space group: F M M 2
;
_chemical_formula_sum "Si O2"
_cell_formula_units_Z 80
_cell_length_a 13.725757
_cell_length_b 16.669511
_cell_length_c 19.062199
_cell_angle_alpha 90.000000
_cell_angle_beta 90.000000
_cell_angle_gamma 90.000000
_cell_volume 4361.462723
_symmetry_space_group_name_H-M "F M M 2"
_symmetry_group_IT_number 42
_symmetry_cell_setting 'orthorhombic'
loop_
_space_group_symop_operation_xyz
x,y,z
-x,-y,z
-x,y,z
x,-y,z
x,1/2+y,1/2+z
-x,1/2-y,1/2+z
-x,1/2+y,1/2+z
x,1/2-y,1/2+z
1/2+x,y,1/2+z
1/2-x,-y,1/2+z
1/2-x,y,1/2+z
1/2+x,-y,1/2+z
1/2+x,1/2+y,z
1/2-x,1/2-y,z
1/2-x,1/2+y,z
1/2+x,1/2-y,z
loop_
_atom_site_type_symbol
_atom_site_label
_atom_site_fract_x
_atom_site_fract_y
_atom_site_fract_z
Si Si1 0.736666 0.090572 0.156520
Si Si2 0.887294 0.903338 0.790812
Si Si3 0.612303 0.683194 0.066752
Si Si4 0.612282 0.128078 0.026764
Si Si5 0.224664 0.156052 0.927676
O O1 0.674896 0.121524 0.222651
O O2 0.820981 0.149894 0.129341
O O3 0.662448 0.084543 0.091411
O O4 0.773827 0.000000 0.171427
O O5 0.828479 0.877084 0.859647
O O6 0.000000 0.874123 0.790210
O O7 0.891454 0.000000 0.788923
O O8 0.500000 0.663551 0.078476
O O9 0.620365 0.778287 0.051382
O O10 0.652921 0.646140 0.994373
O O11 0.500000 0.108008 0.017404
O O12 0.675065 0.117392 0.956140
O O13 0.250000 0.250000 0.917186
#
# Coordination Sequence:
#
# PCOD9368808 Si02
#       5
#    16  16  16  16  16
#     4  10  20  33  50  74 103 133 168 208 249 297
#     4  10  21  36  52  72 102 138 173 210 252 298
#     4   9  18  34  55  77 100 128 164 208 255 300
#     4   9  18  34  54  75 101 131 164 205 253 303
#     4   9  18  32  52  77 103 128 164 210 253 298
#
# _framework density 18.342471
#
# number of rings (size 3 to 8) (size 9 to 14) (size 15 to 20)
#    0.000    2.600    0.000    3.000    0.000    7.200 
#    0.000    1.000    0.000    1.200    0.000    0.000 
#    0.000    0.000    0.000    0.000    0.000    0.000 
#
# Total GULP energy -111474.192880 kJ/mol
# GULP energy per Si atom -5573.709644 kJ/mol
# Density = 1.830072 g / cm^3
# Si number density = 18.342471 Si / 1000 Ang^3
#
#
#
# Elastic Constant Matrix: (Units=GPa)
#
#
# Indices 1 2 3 4 5 6 
#
# 1 165.6481 33.6062 70.6929 0.0000 0.0000 0.0000
# 2 33.6062 18.9201 18.6950 0.0000 0.0000 0.0000
# 3 70.6929 18.6950 119.5462 0.0000 0.0000 0.0000
# 4 0.0000 0.0000 0.0000 24.2768 0.0000 0.0000
# 5 0.0000 0.0000 0.0000 0.0000 20.7560 0.0000
# 6 0.0000 0.0000 0.0000 0.0000 0.0000 22.5780
#
#
#
# Elastic Compliance Matrix: (Units=1/GPa)
#
#
# Indices 1 2 3 4 5 6 
#
# 1 0.010863 -0.015315 -0.004029 0.000000 0.000000 0.000000
# 2 -0.015315 0.084103 -0.004096 0.000000 0.000000 0.000000
# 3 -0.004029 -0.004096 0.011388 0.000000 0.000000 0.000000
# 4 0.000000 0.000000 0.000000 0.041192 0.000000 0.000000
# 5 0.000000 0.000000 0.000000 0.000000 0.048179 0.000000
# 6 0.000000 0.000000 0.000000 0.000000 0.000000 0.044291
#
#
# Mechanical properties :
#
#
# Convention : Reuss Voigt Hill
#
# Bulk Modulus (GPa) = 16.81376 61.12251 38.96814
# Shear Modulus (GPa) = 16.30150 25.59683 20.94917
#
# Velocity S-wave (km/s) = 2.98439 3.73969 3.38318
# Velocity P-wave (km/s) = 4.58933 7.21403 6.04583
#
# Compressibility (1/GPa) = 0.05947509
#
# Stress axis : x y z
#
# Youngs Moduli (GPa) = 92.05300 11.89018 87.81118
#
# Poissons Ratio (x) = 0.18209 0.35379
# Poissons Ratio (y) = 1.40975 0.35969
# Poissons Ratio (z) = 0.37088 0.04870
#
# Static dielectric constant tensor:
#      x y z
#    x 1.637990 0.000000 0.000000 
#    y 0.000000 1.685070 0.000000 
#    z 0.000000 0.000000 1.604170 
# 
# From -- ./inp_files/13816.got.cif
#   From: 2010.05.17/outbox.cif.g08.bks.cpg/sg42_7_cif.got.tgz:13816.got - 2010.06.03 19:03:34.
