data_PCOD9368791
_publ_section_title
;
Structure prediction by ZEFSAII (Michael W. Deem and Ramdas Pophale) SiO2 
 PCOD9368791
Probable space group: F M M 2
;
_chemical_formula_sum "Si O2"
_cell_formula_units_Z 116
_cell_length_a 26.523583
_cell_length_b 7.660626
_cell_length_c 27.376151
_cell_angle_alpha 90.000000
_cell_angle_beta 90.000000
_cell_angle_gamma 90.000000
_cell_volume 5562.484825
_symmetry_space_group_name_H-M "F M M 2"
_symmetry_group_IT_number 42
_symmetry_cell_setting 'orthorhombic'
loop_
_space_group_symop_operation_xyz
x,y,z
-x,-y,z
-x,y,z
x,-y,z
x,1/2+y,1/2+z
-x,1/2-y,1/2+z
-x,1/2+y,1/2+z
x,1/2-y,1/2+z
1/2+x,y,1/2+z
1/2-x,-y,1/2+z
1/2-x,y,1/2+z
1/2+x,-y,1/2+z
1/2+x,1/2+y,z
1/2-x,1/2-y,z
1/2-x,1/2+y,z
1/2+x,1/2-y,z
loop_
_atom_site_type_symbol
_atom_site_label
_atom_site_fract_x
_atom_site_fract_y
_atom_site_fract_z
Si Si1 0.943749 0.211975 0.851800
Si Si2 0.587709 0.217723 0.532829
Si Si3 0.193620 0.806292 0.993432
Si Si4 0.911202 0.301651 0.245260
Si Si5 0.555413 0.205635 0.638001
Si Si6 0.805980 0.707767 0.781630
Si Si7 0.663963 0.204492 0.889055
Si Si8 0.500000 0.500000 0.508662
O O1 0.933602 0.275278 0.795828
O O2 0.896536 0.272917 0.883946
O O3 0.000000 0.265882 0.867332
O O4 0.941963 0.000000 0.851762
O O5 0.641952 0.276933 0.512366
O O6 0.587380 0.257980 0.591063
O O7 0.544170 0.341903 0.510887
O O8 0.580249 0.000000 0.525279
O O9 0.250000 0.750000 0.005838
O O10 0.187349 0.799941 0.934956
O O11 0.189842 0.000000 0.013053
O O12 0.928962 0.500000 0.245148
O O13 0.925832 0.229851 0.192893
O O14 0.851130 0.290659 0.251341
O O15 0.500000 0.288517 0.633088
O O16 0.550366 0.000000 0.631962
O O17 0.813818 0.500000 0.781095
O O18 0.750000 0.750000 0.764796
O O19 0.813476 0.768721 0.837606
O O20 0.675426 0.000000 0.894353
#
# Coordination Sequence:
#
# PCOD9368791 Si02
#       8
#    16  16  16  16  16  16  16   4
#     4   9  18  34  51  76 116 157 192 241 297 351
#     4  10  24  43  64  98 131 164 209 263 322 374
#     4  11  24  43  66  90 124 160 204 259 311 377
#     4  10  20  32  53  82 112 147 195 236 283 356
#     4  10  20  37  58  83 119 155 191 242 295 352
#     4  10  20  35  54  78 109 146 187 239 292 344
#     4  10  21  36  57  84 112 147 199 243 294 364
#     4  12  22  40  76  94 128 168 202 274 312 398
#
# _framework density 20.853988999999999
#
# number of rings (size 3 to 8) (size 9 to 14) (size 15 to 20)
#    0.000    1.931    0.690    2.690    2.897    4.414 
#    1.241    0.690    0.000    1.655    0.000    0.000 
#    0.000    0.000    0.000    0.000    0.000    0.000 
#
# Total GULP energy -161459.946234 kJ/mol
# GULP energy per Si atom -5567.584353 kJ/mol
# Density = 2.080652 g / cm^3
# Si number density = 20.853989 Si / 1000 Ang^3
#
#
#
# Elastic Constant Matrix: (Units=GPa)
#
#
# Indices 1 2 3 4 5 6 
#
# 1 148.0217 18.8434 22.5304 0.0001 0.0000 -0.0005
# 2 18.8434 66.9931 1.0615 0.0002 0.0000 -0.0006
# 3 22.5304 1.0615 40.4624 0.0000 0.0000 0.0000
# 4 0.0001 0.0002 0.0000 8.2071 -0.0001 0.0000
# 5 0.0000 0.0000 0.0000 -0.0001 8.1224 0.0000
# 6 -0.0005 -0.0006 0.0000 0.0000 0.0000 31.5973
#
#
#
# Elastic Compliance Matrix: (Units=1/GPa)
#
#
# Indices 1 2 3 4 5 6 
#
# 1 0.007663 -0.002089 -0.004212 0.000000 0.000000 0.000000
# 2 -0.002089 0.015502 0.000756 0.000000 0.000000 0.000000
# 3 -0.004212 0.000756 0.027040 0.000000 0.000000 0.000000
# 4 0.000000 0.000000 0.000000 0.121845 0.000001 0.000000
# 5 0.000000 0.000000 0.000000 0.000001 0.123117 0.000000
# 6 0.000000 0.000000 0.000000 0.000000 0.000000 0.031648
#
#
# Mechanical properties :
#
#
# Convention : Reuss Voigt Hill
#
# Bulk Modulus (GPa) = 25.56478 37.81643 31.69061
# Shear Modulus (GPa) = 14.24734 23.78816 19.01775
#
# Velocity S-wave (km/s) = 2.61664 3.38109 3.02312
# Velocity P-wave (km/s) = 4.62759 5.78063 5.23594
#
# Compressibility (1/GPa) = 0.03911631
#
# Stress axis : x y z
#
# Youngs Moduli (GPa) = 130.50134 64.50618 36.98248
#
# Poissons Ratio (x) = 0.13473 0.15577
# Poissons Ratio (y) = 0.27256 -0.02797
# Poissons Ratio (z) = 0.54967 -0.04878
#
# Static dielectric constant tensor:
#      x y z
#    x 1.786500 0.000000 0.000000 
#    y 0.000000 1.812900 0.000000 
#    z 0.000000 0.000000 1.744000 
# 
# From -- ./inp_files/31763.got.cif
#   From: 2010.05.17/outbox.cif.g08.bks.cpg/sg42_16_cif.got.tgz:31763.got - 2010.06.03 19:03:34.
