data_PCOD9368601
_publ_section_title
;
Structure prediction by ZEFSAII (Michael W. Deem and Ramdas Pophale) SiO2 
 PCOD9368601
Probable space group: F M M 2
;
_chemical_formula_sum "Si O2"
_cell_formula_units_Z 116
_cell_length_a 29.159838
_cell_length_b 8.719252
_cell_length_c 25.056147
_cell_angle_alpha 90.000000
_cell_angle_beta 90.000000
_cell_angle_gamma 90.000000
_cell_volume 6370.574881
_symmetry_space_group_name_H-M "F M M 2"
_symmetry_group_IT_number 42
_symmetry_cell_setting 'orthorhombic'
loop_
_space_group_symop_operation_xyz
x,y,z
-x,-y,z
-x,y,z
x,-y,z
x,1/2+y,1/2+z
-x,1/2-y,1/2+z
-x,1/2+y,1/2+z
x,1/2-y,1/2+z
1/2+x,y,1/2+z
1/2-x,-y,1/2+z
1/2-x,y,1/2+z
1/2+x,-y,1/2+z
1/2+x,1/2+y,z
1/2-x,1/2-y,z
1/2-x,1/2+y,z
1/2+x,1/2-y,z
loop_
_atom_site_type_symbol
_atom_site_label
_atom_site_fract_x
_atom_site_fract_y
_atom_site_fract_z
Si Si1 0.619670 0.686399 0.507040
Si Si2 0.800942 0.184442 0.427707
Si Si3 0.903485 0.170941 0.624636
Si Si4 0.000000 0.000000 0.630140
Si Si5 0.871601 0.822928 0.232107
Si Si6 0.445533 0.677984 0.412761
Si Si7 0.445426 0.675055 0.801064
Si Si8 0.301038 0.182594 0.314118
O O1 0.618523 0.500000 0.509684
O O2 0.666457 0.730012 0.476926
O O3 0.609346 0.738888 0.566837
O O4 0.579782 0.730305 0.465839
O O5 0.750000 0.250000 0.434608
O O6 0.818507 0.247392 0.370561
O O7 0.799695 0.000000 0.424678
O O8 0.882657 0.266634 0.672801
O O9 0.881910 0.000000 0.628189
O O10 0.958132 0.132063 0.629252
O O11 0.918416 0.791089 0.264264
O O12 0.833388 0.730082 0.265241
O O13 0.858850 0.000000 0.233121
O O14 0.500000 0.678988 0.420901
O O15 0.431983 0.500000 0.401330
O O16 0.435231 0.782980 0.362121
O O17 0.500000 0.686288 0.793288
O O18 0.431659 0.500000 0.788365
O O19 0.250000 0.250000 0.306514
O O20 0.298759 0.000000 0.319244
#
# Coordination Sequence:
#
# PCOD9368601 Si02
#       8
#    16  16  16   4  16  16  16  16
#     4   9  18  32  55  81 108 142 188 234 284 340
#     4  10  19  34  56  86 119 152 190 235 283 344
#     4   9  20  37  58  83 108 149 194 241 289 343
#     4   8  20  36  66  80 112 144 206 248 292 342
#     4  12  24  38  56  81 114 148 192 243 290 347
#     4   9  17  29  50  79 108 137 174 223 282 344
#     4  10  21  35  52  76 109 147 186 230 288 350
#     4  11  22  39  63  90 118 154 192 237 292 351
#
# _framework density 18.208717
#
# number of rings (size 3 to 8) (size 9 to 14) (size 15 to 20)
#    0.414    1.655    0.000    4.966    1.931    1.931 
#    0.000    3.448    0.000    1.655    0.000    0.000 
#    0.000    0.000    0.000    0.000    0.000    0.000 
#
# Total GULP energy -161465.656295 kJ/mol
# GULP energy per Si atom -5567.781252 kJ/mol
# Density = 1.816727 g / cm^3
# Si number density = 18.208717 Si / 1000 Ang^3
#
#
#
# Elastic Constant Matrix: (Units=GPa)
#
#
# Indices 1 2 3 4 5 6 
#
# 1 55.8745 17.6301 33.6498 0.0000 0.0000 0.0001
# 2 17.6301 66.5455 15.8571 0.0000 0.0000 0.0001
# 3 33.6498 15.8571 100.6053 0.0000 0.0000 0.0000
# 4 0.0000 0.0000 0.0000 19.4892 0.0000 0.0000
# 5 0.0000 0.0000 0.0000 0.0000 36.9538 0.0000
# 6 0.0001 0.0001 0.0000 0.0000 0.0000 17.8566
#
#
#
# Elastic Compliance Matrix: (Units=1/GPa)
#
#
# Indices 1 2 3 4 5 6 
#
# 1 0.023670 -0.004556 -0.007199 0.000000 0.000000 0.000000
# 2 -0.004556 0.016490 -0.001075 0.000000 0.000000 0.000000
# 3 -0.007199 -0.001075 0.012517 0.000000 0.000000 0.000000
# 4 0.000000 0.000000 0.000000 0.051310 0.000000 0.000000
# 5 0.000000 0.000000 0.000000 0.000000 0.027061 0.000000
# 6 0.000000 0.000000 0.000000 0.000000 0.000000 0.056002
#
#
# Mechanical properties :
#
#
# Convention : Reuss Voigt Hill
#
# Bulk Modulus (GPa) = 37.01258 39.69991 38.35625
# Shear Modulus (GPa) = 22.55129 25.25249 23.90189
#
# Velocity S-wave (km/s) = 3.52303 3.72806 3.62700
# Velocity P-wave (km/s) = 6.07618 6.35463 6.21697
#
# Compressibility (1/GPa) = 0.02701784
#
# Stress axis : x y z
#
# Youngs Moduli (GPa) = 42.24722 60.64098 79.88992
#
# Poissons Ratio (x) = 0.27625 0.57513
# Poissons Ratio (y) = 0.19246 0.08592
# Poissons Ratio (z) = 0.30414 0.06522
#
# Static dielectric constant tensor:
#      x y z
#    x 1.631860 0.000000 0.000000 
#    y 0.000000 1.628120 0.000000 
#    z 0.000000 0.000000 1.648900 
# 
# From -- ./inp_files/30875.got.cif
#   From: 2010.05.17/outbox.cif.g08.bks.cpg/sg42_16_cif.got.tgz:30875.got - 2010.06.03 19:03:34.
