data_PCOD9368934
_publ_section_title
;
Structure prediction by ZEFSAII (Michael W. Deem and Ramdas Pophale) SiO2 
 PCOD9368934
Probable space group: F M M 2
;
_chemical_formula_sum "Si O2"
_cell_formula_units_Z 112
_cell_length_a 27.292439
_cell_length_b 13.997804
_cell_length_c 12.788165
_cell_angle_alpha 90.000000
_cell_angle_beta 90.000000
_cell_angle_gamma 90.000000
_cell_volume 4885.516536
_symmetry_space_group_name_H-M "F M M 2"
_symmetry_group_IT_number 42
_symmetry_cell_setting 'orthorhombic'
loop_
_space_group_symop_operation_xyz
x,y,z
-x,-y,z
-x,y,z
x,-y,z
x,1/2+y,1/2+z
-x,1/2-y,1/2+z
-x,1/2+y,1/2+z
x,1/2-y,1/2+z
1/2+x,y,1/2+z
1/2-x,-y,1/2+z
1/2-x,y,1/2+z
1/2+x,-y,1/2+z
1/2+x,1/2+y,z
1/2-x,1/2-y,z
1/2-x,1/2+y,z
1/2+x,1/2-y,z
loop_
_atom_site_type_symbol
_atom_site_label
_atom_site_fract_x
_atom_site_fract_y
_atom_site_fract_z
Si Si1 0.620352 0.886830 0.182490
Si Si2 0.821153 0.888104 0.880606
Si Si3 0.943467 0.255833 0.068882
Si Si4 0.874076 0.390560 0.674905
Si Si5 0.213255 0.385316 0.815638
Si Si6 0.304924 0.275390 0.531546
Si Si7 0.942926 0.893036 0.377863
O O1 0.634484 0.869982 0.302490
O O2 0.569385 0.837548 0.153914
O O3 0.660595 0.832792 0.110413
O O4 0.622053 0.000000 0.163369
O O5 0.771351 0.864538 0.814832
O O6 0.818271 0.000000 0.905364
O O7 0.822594 0.825377 0.983698
O O8 0.907594 0.169877 0.096862
O O9 0.000000 0.227698 0.071749
O O10 0.932752 0.309820 0.960248
O O11 0.868712 0.500000 0.640215
O O12 0.821312 0.354213 0.719140
O O13 0.906843 0.388838 0.780775
O O14 0.207439 0.500000 0.820054
O O15 0.197376 0.340048 0.925843
O O16 0.250000 0.250000 0.568171
O O17 0.000000 0.885051 0.345281
O O18 0.937205 0.000000 0.425810
#
# Coordination Sequence:
#
# PCOD9368934 Si02
#       7
#    16  16  16  16  16  16  16
#     4  11  23  39  60  85 113 151 197 240 286 343
#     4   9  20  38  58  83 119 155 186 228 283 343
#     4  11  23  37  57  86 116 147 192 250 302 344
#     4  10  20  36  61  88 116 153 194 235 285 350
#     4   9  17  32  55  84 117 152 189 231 279 334
#     4  10  20  34  58  87 118 152 190 232 280 339
#     4   9  18  34  56  81 109 145 192 243 291 342
#
# _framework density 22.924904999999999
#
# number of rings (size 3 to 8) (size 9 to 14) (size 15 to 20)
#    0.000    2.143    0.000    3.000    0.000    6.286 
#    0.000    0.714    0.000    3.429    0.000    4.000 
#    0.000    0.000    0.000    0.000    0.000    0.000 
#
# Total GULP energy -156598.964350 kJ/mol
# GULP energy per Si atom -5592.820155 kJ/mol
# Density = 2.287273 g / cm^3
# Si number density = 22.924905 Si / 1000 Ang^3
#
#
#
# Elastic Constant Matrix: (Units=GPa)
#
#
# Indices 1 2 3 4 5 6 
#
# 1 102.6592 28.9561 38.4555 0.0000 0.0000 0.0000
# 2 28.9561 96.5326 20.0232 0.0000 0.0000 0.0000
# 3 38.4555 20.0232 52.1029 0.0000 0.0000 0.0000
# 4 0.0000 0.0000 0.0000 42.3357 0.0000 0.0000
# 5 0.0000 0.0000 0.0000 0.0000 33.5149 0.0000
# 6 0.0000 0.0000 0.0000 0.0000 0.0000 36.1541
#
#
#
# Elastic Compliance Matrix: (Units=1/GPa)
#
#
# Indices 1 2 3 4 5 6 
#
# 1 0.013886 -0.002216 -0.009397 0.000000 0.000000 0.000000
# 2 -0.002216 0.011610 -0.002826 0.000000 0.000000 0.000000
# 3 -0.009397 -0.002826 0.027215 0.000000 0.000000 0.000000
# 4 0.000000 0.000000 0.000000 0.023621 0.000000 0.000000
# 5 0.000000 0.000000 0.000000 0.000000 0.029837 0.000000
# 6 0.000000 0.000000 0.000000 0.000000 0.000000 0.027659
#
#
# Mechanical properties :
#
#
# Convention : Reuss Voigt Hill
#
# Bulk Modulus (GPa) = 41.96048 47.35159 44.65604
# Shear Modulus (GPa) = 29.29941 33.32493 31.31217
#
# Velocity S-wave (km/s) = 3.57888 3.81682 3.69976
# Velocity P-wave (km/s) = 5.95155 6.33436 6.14594
#
# Compressibility (1/GPa) = 0.02383195
#
# Stress axis : x y z
#
# Youngs Moduli (GPa) = 72.01383 86.13153 36.74478
#
# Poissons Ratio (x) = 0.19088 0.34530
# Poissons Ratio (y) = 0.15959 0.10385
# Poissons Ratio (z) = 0.67674 0.24342
#
# Static dielectric constant tensor:
#      x y z
#    x 1.857800 0.000000 0.000000 
#    y 0.000000 1.884850 0.000000 
#    z 0.000000 0.000000 1.866720 
# 
# From -- ./inp_files/17064.got.cif
#   From: 2010.05.17/outbox.cif.g08.bks.cpg/sg42_9_cif.got.tgz:17064.got - 2010.06.03 19:03:34.
