data_PCOD9368384
_publ_section_title
;
Structure prediction by ZEFSAII (Michael W. Deem and Ramdas Pophale) SiO2 
 PCOD9368384
Probable space group: F M M 2
;
_chemical_formula_sum "Si O2"
_cell_formula_units_Z 52
_cell_length_a 20.128328
_cell_length_b 14.892313
_cell_length_c 8.027029
_cell_angle_alpha 90.000000
_cell_angle_beta 90.000000
_cell_angle_gamma 90.000000
_cell_volume 2406.161028
_symmetry_space_group_name_H-M "F M M 2"
_symmetry_group_IT_number 42
_symmetry_cell_setting 'orthorhombic'
loop_
_space_group_symop_operation_xyz
x,y,z
-x,-y,z
-x,y,z
x,-y,z
x,1/2+y,1/2+z
-x,1/2-y,1/2+z
-x,1/2+y,1/2+z
x,1/2-y,1/2+z
1/2+x,y,1/2+z
1/2-x,-y,1/2+z
1/2-x,y,1/2+z
1/2+x,-y,1/2+z
1/2+x,1/2+y,z
1/2-x,1/2-y,z
1/2-x,1/2+y,z
1/2+x,1/2-y,z
loop_
_atom_site_type_symbol
_atom_site_label
_atom_site_fract_x
_atom_site_fract_y
_atom_site_fract_z
Si Si1 0.614557 0.862225 0.843520
Si Si2 0.715012 0.000000 0.960668
Si Si3 0.078785 0.668948 0.459879
Si Si4 0.000000 0.500000 0.946616
Si Si5 0.352484 0.000000 0.318751
O O1 0.613884 0.761883 0.913970
O O2 0.594582 0.858164 0.649550
O O3 0.558400 0.922052 0.933361
O O4 0.684007 0.912753 0.870800
O O5 0.793957 0.000000 0.955263
O O6 0.686027 0.000000 0.145761
O O7 0.103147 0.587936 0.343728
O O8 0.000000 0.681267 0.440744
#
# Coordination Sequence:
#
# PCOD9368384 Si02
#       5
#    16   8  16   4   8
#     4  11  23  41  69  96 140 170 226 266 336 385
#     4  11  26  47  66  99 127 186 220 283 326 400
#     4  12  23  42  67 105 134 180 215 278 328 400
#     4  10  18  38  60  94 130 172 202 270 312 392
#     4  12  26  45  69  95 138 172 234 267 340 392
#
# _framework density 21.611187000000001
#
# number of rings (size 3 to 8) (size 9 to 14) (size 15 to 20)
#    0.000    0.615    3.077    6.000    0.000    1.231 
#   11.077    6.154    0.000    0.000    0.000    0.000 
#    0.000    0.000    0.000    0.000    0.000    0.000 
#
# Total GULP energy -72556.599674 kJ/mol
# GULP energy per Si atom -5581.276898 kJ/mol
# Density = 2.156200 g / cm^3
# Si number density = 21.611187 Si / 1000 Ang^3
#
#
#
# Elastic Constant Matrix: (Units=GPa)
#
#
# Indices 1 2 3 4 5 6 
#
# 1 40.6044 17.4209 4.2454 0.0000 0.0000 0.0000
# 2 17.4209 175.3953 14.6895 0.0000 0.0000 0.0000
# 3 4.2454 14.6895 73.1963 0.0000 0.0000 0.0000
# 4 0.0000 0.0000 0.0000 11.0023 0.0000 0.0000
# 5 0.0000 0.0000 0.0000 0.0000 22.4128 0.0000
# 6 0.0000 0.0000 0.0000 0.0000 0.0000 13.2719
#
#
#
# Elastic Compliance Matrix: (Units=1/GPa)
#
#
# Indices 1 2 3 4 5 6 
#
# 1 0.025796 -0.002478 -0.000999 0.000000 0.000000 0.000000
# 2 -0.002478 0.006037 -0.001068 0.000000 0.000000 0.000000
# 3 -0.000999 -0.001068 0.013934 0.000000 0.000000 0.000000
# 4 0.000000 0.000000 0.000000 0.090890 0.000000 0.000000
# 5 0.000000 0.000000 0.000000 0.000000 0.044617 0.000000
# 6 0.000000 0.000000 0.000000 0.000000 0.000000 0.075347
#
#
# Mechanical properties :
#
#
# Convention : Reuss Voigt Hill
#
# Bulk Modulus (GPa) = 27.26524 40.21195 33.73859
# Shear Modulus (GPa) = 17.98966 26.19341 22.09153
#
# Velocity S-wave (km/s) = 2.88831 3.48520 3.20070
# Velocity P-wave (km/s) = 4.87511 5.90279 5.41339
#
# Compressibility (1/GPa) = 0.03667674
#
# Stress axis : x y z
#
# Youngs Moduli (GPa) = 38.76619 165.64506 71.76633
#
# Poissons Ratio (x) = 0.41055 0.07168
# Poissons Ratio (y) = 0.09608 0.07663
# Poissons Ratio (z) = 0.03872 0.17687
#
# Static dielectric constant tensor:
#      x y z
#    x 1.741210 0.000000 0.000000 
#    y 0.000000 1.738130 0.000000 
#    z 0.000000 0.000000 1.839340 
# 
# From -- ./inp_files/2543.got.cif
#   From: 2010.05.17/outbox.cif.g08.bks.cpg/sg42_2_cif.got.tgz:2543.got - 2010.06.03 19:03:34.
