data_PCOD9368522
_publ_section_title
;
Structure prediction by ZEFSAII (Michael W. Deem and Ramdas Pophale) SiO2 
 PCOD9368522
Probable space group: F M M 2
;
_chemical_formula_sum "Si O2"
_cell_formula_units_Z 96
_cell_length_a 8.582894
_cell_length_b 18.964944
_cell_length_c 31.885721
_cell_angle_alpha 90.000000
_cell_angle_beta 90.000000
_cell_angle_gamma 90.000000
_cell_volume 5190.169668
_symmetry_space_group_name_H-M "F M M 2"
_symmetry_group_IT_number 42
_symmetry_cell_setting 'orthorhombic'
loop_
_space_group_symop_operation_xyz
x,y,z
-x,-y,z
-x,y,z
x,-y,z
x,1/2+y,1/2+z
-x,1/2-y,1/2+z
-x,1/2+y,1/2+z
x,1/2-y,1/2+z
1/2+x,y,1/2+z
1/2-x,-y,1/2+z
1/2-x,y,1/2+z
1/2+x,-y,1/2+z
1/2+x,1/2+y,z
1/2-x,1/2-y,z
1/2-x,1/2+y,z
1/2+x,1/2-y,z
loop_
_atom_site_type_symbol
_atom_site_label
_atom_site_fract_x
_atom_site_fract_y
_atom_site_fract_z
Si Si1 0.187433 0.917804 0.686860
Si Si2 0.689985 0.918944 0.938216
Si Si3 0.313789 0.082165 0.596575
Si Si4 0.813246 0.170756 0.519109
Si Si5 0.187201 0.670477 0.857388
Si Si6 0.687238 0.670863 0.767809
O O1 0.261632 0.894426 0.642983
O O2 0.236640 0.874368 0.727626
O O3 0.000000 0.912356 0.683128
O O4 0.227456 0.000000 0.692683
O O5 0.500000 0.919882 0.938568
O O6 0.737250 0.879235 0.895674
O O7 0.742826 0.000000 0.939974
O O8 0.740444 0.874179 0.978641
O O9 0.500000 0.084503 0.593712
O O10 0.241572 0.130466 0.560725
O O11 0.263495 0.000000 0.591385
O O12 0.750000 0.250000 0.517562
O O13 0.000000 0.173195 0.518510
O O14 0.250000 0.750000 0.863557
O O15 0.248466 0.644352 0.812390
O O16 0.000000 0.673346 0.856307
O O17 0.500000 0.671762 0.769729
O O18 0.750000 0.750000 0.762963
#
# Coordination Sequence:
#
# PCOD9368522 Si02
#       6
#    16  16  16  16  16  16
#     4   9  19  36  56  77 104 141 181 219 264 317
#     4   9  19  35  55  80 107 138 177 218 263 317
#     4  10  21  37  57  82 111 141 178 224 270 320
#     4  11  22  37  58  81 109 144 181 222 268 320
#     4  10  19  33  54  77 105 139 175 217 262 312
#     4  10  20  34  53  77 106 139 176 218 263 314
#
# _framework density 18.496504000000002
#
# number of rings (size 3 to 8) (size 9 to 14) (size 15 to 20)
#    0.000    2.167    0.000    4.000    0.000    4.333 
#    0.000    4.167    0.000    5.500    0.000    0.000 
#    0.000    0.000    0.000    0.000    0.000    0.000 
#
# Total GULP energy -134009.677937 kJ/mol
# GULP energy per Si atom -5583.736581 kJ/mol
# Density = 1.845441 g / cm^3
# Si number density = 18.496504 Si / 1000 Ang^3
#
#
#
# Elastic Constant Matrix: (Units=GPa)
#
#
# Indices 1 2 3 4 5 6 
#
# 1 41.3991 32.6288 48.3488 0.0000 0.0000 0.0000
# 2 32.6288 118.6441 119.2397 0.0000 0.0000 0.0000
# 3 48.3488 119.2397 216.5914 0.0000 0.0000 0.0000
# 4 0.0000 0.0000 0.0000 42.5821 0.0000 0.0000
# 5 0.0000 0.0000 0.0000 0.0000 17.6503 0.0000
# 6 0.0000 0.0000 0.0000 0.0000 0.0000 20.8648
#
#
#
# Elastic Compliance Matrix: (Units=1/GPa)
#
#
# Indices 1 2 3 4 5 6 
#
# 1 0.033417 -0.003790 -0.005373 0.000000 0.000000 0.000000
# 2 -0.003790 0.019298 -0.009778 0.000000 0.000000 0.000000
# 3 -0.005373 -0.009778 0.011199 0.000000 0.000000 0.000000
# 4 0.000000 0.000000 0.000000 0.023484 0.000000 0.000000
# 5 0.000000 0.000000 0.000000 0.000000 0.056656 0.000000
# 6 0.000000 0.000000 0.000000 0.000000 0.000000 0.047928
#
#
# Mechanical properties :
#
#
# Convention : Reuss Voigt Hill
#
# Bulk Modulus (GPa) = 38.41385 86.34103 62.37744
# Shear Modulus (GPa) = 20.96059 27.98060 24.47059
#
# Velocity S-wave (km/s) = 3.36998 3.89363 3.64123
# Velocity P-wave (km/s) = 5.99630 8.18503 7.17462
#
# Compressibility (1/GPa) = 0.02603228
#
# Stress axis : x y z
#
# Youngs Moduli (GPa) = 29.92458 51.81852 89.29002
#
# Poissons Ratio (x) = 0.19641 0.47975
# Poissons Ratio (y) = 0.11342 0.87308
# Poissons Ratio (z) = 0.16078 0.50668
#
# Static dielectric constant tensor:
#      x y z
#    x 1.625870 0.000000 0.000000 
#    y 0.000000 1.614840 0.000000 
#    z 0.000000 0.000000 1.624870 
# 
# From -- ./inp_files/31418.got.cif
#   From: 2010.05.17/outbox.cif.g08.bks.cpg/sg42_16_cif.got.tgz:31418.got - 2010.06.03 19:03:34.
