data_PCOD9368160
_publ_section_title
;
Structure prediction by ZEFSAII (Michael W. Deem and Ramdas Pophale) SiO2 
 PCOD9368160
Probable space group: F M M 2
;
_chemical_formula_sum "Si O2"
_cell_formula_units_Z 40
_cell_length_a 14.070253
_cell_length_b 5.508421
_cell_length_c 24.315561
_cell_angle_alpha 90.000000
_cell_angle_beta 90.000000
_cell_angle_gamma 90.000000
_cell_volume 1884.574567
_symmetry_space_group_name_H-M "F M M 2"
_symmetry_group_IT_number 42
_symmetry_cell_setting 'orthorhombic'
loop_
_space_group_symop_operation_xyz
x,y,z
-x,-y,z
-x,y,z
x,-y,z
x,1/2+y,1/2+z
-x,1/2-y,1/2+z
-x,1/2+y,1/2+z
x,1/2-y,1/2+z
1/2+x,y,1/2+z
1/2-x,-y,1/2+z
1/2-x,y,1/2+z
1/2+x,-y,1/2+z
1/2+x,1/2+y,z
1/2-x,1/2-y,z
1/2-x,1/2+y,z
1/2+x,1/2-y,z
loop_
_atom_site_type_symbol
_atom_site_label
_atom_site_fract_x
_atom_site_fract_y
_atom_site_fract_z
Si Si1 0.365148 0.000000 0.002600
Si Si2 0.116540 0.500000 0.332957
Si Si3 0.000000 0.000000 0.171691
Si Si4 0.500000 0.000000 0.103229
Si Si5 0.608094 0.000000 0.779005
Si Si6 0.652182 0.000000 0.458082
O O1 0.407496 0.000000 0.063567
O O2 0.397005 0.249612 0.974421
O O3 0.251639 0.000000 0.991752
O O4 0.145318 0.743754 0.300562
O O5 0.164030 0.500000 0.392775
O O6 0.000000 0.500000 0.339018
O O7 0.000000 0.749802 0.137806
O O8 0.090292 0.000000 0.213459
O O9 0.500000 0.000000 0.801811
#
# Coordination Sequence:
#
# PCOD9368160 Si02
#       6
#     8   8   4   4   8   8
#     4  10  23  37  53  83 117 156 204 234 271 347
#     4  10  17  29  55  85 114 151 175 216 291 359
#     4  10  20  36  55  84 123 142 196 254 290 322
#     4  12  22  36  59  84 113 158 206 236 282 328
#     4   8  17  31  49  84 119 134 186 230 283 341
#     4  10  21  38  54  81 122 157 184 235 290 337
#
# _framework density 21.224948999999999
#
# number of rings (size 3 to 8) (size 9 to 14) (size 15 to 20)
#    0.600    1.600    0.000    3.600    2.800    0.000 
#    0.000    0.000    0.000    0.000    0.000  112.000 
#    0.000    0.000    0.000    0.000    0.000    0.000 
#
# Total GULP energy -55706.650755 kJ/mol
# GULP energy per Si atom -5570.665076 kJ/mol
# Density = 2.117664 g / cm^3
# Si number density = 21.224949 Si / 1000 Ang^3
#
#
#
# Elastic Constant Matrix: (Units=GPa)
#
#
# Indices 1 2 3 4 5 6 
#
# 1 119.5444 21.5476 30.6092 0.0000 0.0000 0.0000
# 2 21.5476 293.1582 122.8895 0.0000 0.0000 0.0000
# 3 30.6092 122.8895 183.8544 0.0000 0.0000 0.0000
# 4 0.0000 0.0000 0.0000 60.7195 0.0000 0.0000
# 5 0.0000 0.0000 0.0000 0.0000 -48.9488 0.0000
# 6 0.0000 0.0000 0.0000 0.0000 0.0000 -31.9634
#
#
#
# Elastic Compliance Matrix: (Units=1/GPa)
#
#
# Indices 1 2 3 4 5 6 
#
# 1 0.008738 -0.000045 -0.001425 0.000000 0.000000 0.000000
# 2 -0.000045 0.004739 -0.003160 0.000000 0.000000 0.000000
# 3 -0.001425 -0.003160 0.007789 0.000000 0.000000 0.000000
# 4 0.000000 0.000000 0.000000 0.016469 0.000000 0.000000
# 5 0.000000 0.000000 0.000000 0.000000 -0.020430 0.000000
# 6 0.000000 0.000000 0.000000 0.000000 0.000000 -0.031286
#
#
# Mechanical properties :
#
#
# Convention : Reuss Voigt Hill
#
# Bulk Modulus (GPa) = 83.29203 105.18328 94.23765
# Shear Modulus (GPa) = -6957.09703 24.06218 -3466.51743
#
# Velocity S-wave (km/s) = -57.31412 3.37066 -40.45705
# Velocity P-wave (km/s) = 65.88285 8.05062 46.23709
#
# Compressibility (1/GPa) = 0.01200595
#
# Stress axis : x y z
#
# Youngs Moduli (GPa) = 114.44279 211.00766 128.39345
#
# Poissons Ratio (x) = 0.00951 0.18291
# Poissons Ratio (y) = 0.00516 0.40575
# Poissons Ratio (z) = 0.16304 0.66682
#
# Static dielectric constant tensor:
#      x y z
#    x 1.906910 0.000000 0.000000 
#    y 0.000000 1.782190 0.000000 
#    z 0.000000 0.000000 1.722610 
# 
# From -- ./inp_files/21287.got.cif
#   From: 2010.05.17/outbox.cif.g08.bks.cpg/sg42_11_cif.got.tgz:21287.got - 2010.06.03 19:03:34.
