data_PCOD9368607
_publ_section_title
;
Structure prediction by ZEFSAII (Michael W. Deem and Ramdas Pophale) SiO2 
 PCOD9368607
Probable space group: F M M 2
;
_chemical_formula_sum "Si O2"
_cell_formula_units_Z 80
_cell_length_a 12.556763
_cell_length_b 20.583563
_cell_length_c 12.582834
_cell_angle_alpha 90.000000
_cell_angle_beta 90.000000
_cell_angle_gamma 90.000000
_cell_volume 3252.196046
_symmetry_space_group_name_H-M "F M M 2"
_symmetry_group_IT_number 42
_symmetry_cell_setting 'orthorhombic'
loop_
_space_group_symop_operation_xyz
x,y,z
-x,-y,z
-x,y,z
x,-y,z
x,1/2+y,1/2+z
-x,1/2-y,1/2+z
-x,1/2+y,1/2+z
x,1/2-y,1/2+z
1/2+x,y,1/2+z
1/2-x,-y,1/2+z
1/2-x,y,1/2+z
1/2+x,-y,1/2+z
1/2+x,1/2+y,z
1/2-x,1/2-y,z
1/2-x,1/2+y,z
1/2+x,1/2-y,z
loop_
_atom_site_type_symbol
_atom_site_label
_atom_site_fract_x
_atom_site_fract_y
_atom_site_fract_z
Si Si1 0.339848 0.924441 0.207880
Si Si2 0.125094 0.245889 0.552878
Si Si3 0.388318 0.618648 0.931859
Si Si4 0.108845 0.575204 0.738297
Si Si5 0.655202 0.602815 0.476765
O O1 0.387391 0.883675 0.303819
O O2 0.219402 0.897179 0.199181
O O3 0.384942 0.921856 0.090014
O O4 0.339521 0.000000 0.242273
O O5 0.250000 0.250000 0.603869
O O6 0.118484 0.309259 0.479024
O O7 0.135724 0.179914 0.484619
O O8 0.000000 0.241725 0.601929
O O9 0.500000 0.587929 0.966036
O O10 0.280200 0.584962 0.968185
O O11 0.108409 0.500000 0.705880
O O12 0.000000 0.608125 0.702018
O O13 0.110934 0.577607 0.866096
#
# Coordination Sequence:
#
# PCOD9368607 Si02
#       5
#    16  16  16  16  16
#     4  10  21  36  56  85 116 147 189 240 293 347
#     4   9  18  35  57  80 111 151 193 238 288 343
#     4   9  20  38  56  78 112 152 192 235 287 348
#     4   9  18  33  52  77 113 153 190 232 286 350
#     4  10  19  34  57  83 113 149 192 241 291 344
#
# _framework density 24.598763999999999
#
# number of rings (size 3 to 8) (size 9 to 14) (size 15 to 20)
#    0.000    2.600    0.000    1.200    0.000    3.600 
#    0.000   15.000    0.000    7.200    0.000    0.000 
#    0.000    0.000    0.000    0.000    0.000    0.000 
#
# Total GULP energy -111336.453006 kJ/mol
# GULP energy per Si atom -5566.822650 kJ/mol
# Density = 2.454278 g / cm^3
# Si number density = 24.598764 Si / 1000 Ang^3
#
#
#
# Elastic Constant Matrix: (Units=GPa)
#
#
# Indices 1 2 3 4 5 6 
#
# 1 249.9361 -3.0001 20.8047 0.0000 0.0000 0.0000
# 2 -3.0001 69.2609 -3.3685 0.0000 0.0000 0.0000
# 3 20.8047 -3.3685 124.1834 0.0000 0.0000 0.0000
# 4 0.0000 0.0000 0.0000 19.8873 0.0000 0.0000
# 5 0.0000 0.0000 0.0000 0.0000 -66.5826 0.0000
# 6 0.0000 0.0000 0.0000 0.0000 0.0000 9.5543
#
#
#
# Elastic Compliance Matrix: (Units=1/GPa)
#
#
# Indices 1 2 3 4 5 6 
#
# 1 0.004059 0.000143 -0.000676 0.000000 0.000000 0.000000
# 2 0.000143 0.014462 0.000368 0.000000 0.000000 0.000000
# 3 -0.000676 0.000368 0.008176 0.000000 0.000000 0.000000
# 4 0.000000 0.000000 0.000000 0.050283 0.000000 0.000000
# 5 0.000000 0.000000 0.000000 0.000000 -0.015019 0.000000
# 6 0.000000 0.000000 0.000000 0.000000 0.000000 0.104665
#
#
# Mechanical properties :
#
#
# Convention : Reuss Voigt Hill
#
# Bulk Modulus (GPa) = 37.92556 52.47253 45.19904
# Shear Modulus (GPa) = 28.45020 21.16808 24.80914
#
# Velocity S-wave (km/s) = 3.40453 2.93667 3.17922
# Velocity P-wave (km/s) = 5.55928 5.73379 5.64721
#
# Compressibility (1/GPa) = 0.02636744
#
# Stress axis : x y z
#
# Youngs Moduli (GPa) = 246.36489 69.14546 122.31110
#
# Poissons Ratio (x) = -0.00988 0.08270
# Poissons Ratio (y) = -0.03521 -0.04505
# Poissons Ratio (z) = 0.16658 -0.02547
#
# Static dielectric constant tensor:
#      x y z
#    x 2.171600 0.000000 0.000000 
#    y 0.000000 2.021420 0.000000 
#    z 0.000000 0.000000 1.931680 
# 
# From -- ./inp_files/10013.got.cif
#   From: 2010.05.17/outbox.cif.g08.bks.cpg/sg42_6_cif.got.tgz:10013.got - 2010.06.03 19:03:34.
