data_PCOD9368408
_publ_section_title
;
Structure prediction by ZEFSAII (Michael W. Deem and Ramdas Pophale) SiO2 
 PCOD9368408
Probable space group: F M M 2
;
_chemical_formula_sum "Si O2"
_cell_formula_units_Z 104
_cell_length_a 23.587259
_cell_length_b 14.794849
_cell_length_c 18.071000
_cell_angle_alpha 90.000000
_cell_angle_beta 90.000000
_cell_angle_gamma 90.000000
_cell_volume 6306.235700
_symmetry_space_group_name_H-M "F M M 2"
_symmetry_group_IT_number 42
_symmetry_cell_setting 'orthorhombic'
loop_
_space_group_symop_operation_xyz
x,y,z
-x,-y,z
-x,y,z
x,-y,z
x,1/2+y,1/2+z
-x,1/2-y,1/2+z
-x,1/2+y,1/2+z
x,1/2-y,1/2+z
1/2+x,y,1/2+z
1/2-x,-y,1/2+z
1/2-x,y,1/2+z
1/2+x,-y,1/2+z
1/2+x,1/2+y,z
1/2-x,1/2-y,z
1/2-x,1/2+y,z
1/2+x,1/2-y,z
loop_
_atom_site_type_symbol
_atom_site_label
_atom_site_fract_x
_atom_site_fract_y
_atom_site_fract_z
Si Si1 0.067487 0.392272 0.859170
Si Si2 0.868238 0.106920 0.504460
Si Si3 0.750000 0.250000 0.854200
Si Si4 0.276464 0.849707 0.623546
Si Si5 0.263786 0.100955 0.462999
Si Si6 0.653494 0.103962 0.170649
Si Si7 0.648054 0.710460 0.250192
O O1 0.081552 0.500000 0.852409
O O2 0.097355 0.336877 0.793586
O O3 0.000000 0.383445 0.857522
O O4 0.091856 0.358702 0.938744
O O5 0.803294 0.117154 0.478100
O O6 0.870740 0.136118 0.590154
O O7 0.879357 0.000000 0.509199
O O8 0.719148 0.323126 0.905604
O O9 0.702981 0.204905 0.803143
O O10 0.250000 0.750000 0.611129
O O11 0.290856 0.889364 0.543758
O O12 0.222089 0.898716 0.659898
O O13 0.330191 0.840299 0.676488
O O14 0.271402 0.000000 0.434130
O O15 0.639637 0.183863 0.228256
O O16 0.635398 0.000000 0.186468
#
# Coordination Sequence:
#
# PCOD9368408 Si02
#       7
#    16  16   8  16  16  16  16
#     4  10  21  37  56  77 102 135 179 227 267 302
#     4   8  15  30  52  72  94 129 171 219 259 295
#     4  12  20  30  46  74 108 136 168 206 264 318
#     4   9  16  30  46  72 103 138 169 204 255 312
#     4  10  19  30  47  70 102 139 170 207 252 309
#     4   9  17  30  49  75 105 136 170 205 256 322
#     4  11  21  32  50  77 110 142 166 213 266 317
#
# _framework density 16.491613000000001
#
# number of rings (size 3 to 8) (size 9 to 14) (size 15 to 20)
#    0.000    2.308    4.615    1.385    0.000    1.846 
#    0.000    0.769    0.000    1.385    0.000    0.000 
#    0.000    0.000    0.000    0.000    0.000    0.000 
#
# Total GULP energy -144768.273655 kJ/mol
# GULP energy per Si atom -5568.010525 kJ/mol
# Density = 1.645408 g / cm^3
# Si number density = 16.491613 Si / 1000 Ang^3
#
#
#
# Elastic Constant Matrix: (Units=GPa)
#
#
# Indices 1 2 3 4 5 6 
#
# 1 40.8766 18.9799 30.1908 0.0000 0.0000 0.0000
# 2 18.9799 65.8167 35.2882 0.0000 0.0000 0.0000
# 3 30.1908 35.2882 81.3214 0.0000 0.0000 0.0000
# 4 0.0000 0.0000 0.0000 12.4603 0.0000 0.0000
# 5 0.0000 0.0000 0.0000 0.0000 14.0347 0.0000
# 6 0.0000 0.0000 0.0000 0.0000 0.0000 15.0643
#
#
#
# Elastic Compliance Matrix: (Units=1/GPa)
#
#
# Indices 1 2 3 4 5 6 
#
# 1 0.034502 -0.004016 -0.011066 0.000000 0.000000 0.000000
# 2 -0.004016 0.020268 -0.007304 0.000000 0.000000 0.000000
# 3 -0.011066 -0.007304 0.019575 0.000000 0.000000 0.000000
# 4 0.000000 0.000000 0.000000 0.080255 0.000000 0.000000
# 5 0.000000 0.000000 0.000000 0.000000 0.071252 0.000000
# 6 0.000000 0.000000 0.000000 0.000000 0.000000 0.066382
#
#
# Mechanical properties :
#
#
# Convention : Reuss Voigt Hill
#
# Bulk Modulus (GPa) = 33.81591 39.65915 36.73753
# Shear Modulus (GPa) = 14.41488 15.21558 14.81523
#
# Velocity S-wave (km/s) = 2.95968 3.04077 3.00050
# Velocity P-wave (km/s) = 5.67706 6.03562 5.85908
#
# Compressibility (1/GPa) = 0.02957188
#
# Stress axis : x y z
#
# Youngs Moduli (GPa) = 28.98389 49.33897 51.08652
#
# Poissons Ratio (x) = 0.19816 0.56533
# Poissons Ratio (y) = 0.11641 0.37313
# Poissons Ratio (z) = 0.32074 0.36037
#
# Static dielectric constant tensor:
#      x y z
#    x 1.538250 0.000000 0.000000 
#    y 0.000000 1.601840 0.000000 
#    z 0.000000 0.000000 1.598620 
# 
# From -- ./inp_files/22243.got.cif
#   From: 2010.05.17/outbox.cif.g08.bks.cpg/sg42_12_cif.got.tgz:22243.got - 2010.06.03 19:03:34.
