data_PCOD9368025
_publ_section_title
;
Structure prediction by ZEFSAII (Michael W. Deem and Ramdas Pophale) SiO2 
 PCOD9368025
Probable space group: A B A 2
;
_chemical_formula_sum "Si O2"
_cell_formula_units_Z 64
_cell_length_a 22.740206
_cell_length_b 8.666742
_cell_length_c 13.680377
_cell_angle_alpha 90.000000
_cell_angle_beta 90.000000
_cell_angle_gamma 90.000000
_cell_volume 2696.176559
_symmetry_space_group_name_H-M "A B A 2"
_symmetry_group_IT_number 41
_symmetry_cell_setting 'orthorhombic'
loop_
_space_group_symop_operation_xyz
x,y,z
-x,-y,z
1/2-x,y,1/2+z
1/2+x,-y,1/2+z
x,1/2+y,1/2+z
-x,1/2-y,1/2+z
1/2-x,1/2+y,z
1/2+x,1/2-y,z
loop_
_atom_site_type_symbol
_atom_site_label
_atom_site_fract_x
_atom_site_fract_y
_atom_site_fract_z
Si Si1 0.730991 0.909155 0.595400
Si Si2 0.355347 0.828765 0.832102
Si Si3 0.616642 0.871056 0.508139
Si Si4 0.436956 0.318415 0.981619
Si Si5 0.318517 0.160035 0.916304
Si Si6 0.739337 0.162745 0.234798
Si Si7 0.979919 0.675925 0.117387
Si Si8 0.508448 0.681570 0.306513
O O1 0.666177 0.968312 0.566672
O O2 0.773050 0.892065 0.501592
O O3 0.714741 0.743188 0.638451
O O4 0.757719 0.990138 0.692152
O O5 0.307369 0.794919 0.751260
O O6 0.421894 0.797777 0.802924
O O7 0.341691 0.005074 0.863092
O O8 0.347431 0.718133 0.925122
O O9 0.578216 0.743315 0.565362
O O10 0.572417 0.000072 0.466343
O O11 0.374777 0.237382 0.965527
O O12 0.482282 0.230385 0.910533
O O13 0.465977 0.286234 0.085890
O O14 0.207343 0.780119 0.834192
O O15 0.973909 0.709541 0.231634
O O16 0.000000 0.500000 0.097436
O O17 0.500000 0.500000 0.288729
#
# Coordination Sequence:
#
# PCOD9368025 Si02
#       8
#     8   8   8   8   8   8   8   8
#     4  12  28  49  76 110 152 204 261 323 393 470
#     4  12  26  49  76 107 159 201 252 324 394 464
#     4  12  27  50  80 108 154 208 258 329 390 469
#     4  12  27  49  78 112 153 201 259 320 395 461
#     4  12  27  51  75 112 156 206 257 325 395 473
#     4  12  28  47  74 112 152 202 261 318 394 465
#     4  12  29  49  75 114 156 204 260 316 385 467
#     4  12  27  50  78 115 155 203 256 319 390 470
#
# _framework density 23.737317999999998
#
# number of rings (size 3 to 8) (size 9 to 14) (size 15 to 20)
#    0.000    0.000    5.000    3.750   12.250    0.000 
#    0.000    0.000    0.000    0.000    0.000    0.000 
#    0.000    0.000    0.000    0.000    0.000    0.000 
#
# Total GULP energy -178809.581230 kJ/mol
# GULP energy per Si atom -5587.799413 kJ/mol
# Density = 2.368329 g / cm^3
# Si number density = 23.737318 Si / 1000 Ang^3
#
#
#
# Elastic Constant Matrix: (Units=GPa)
#
#
# Indices 1 2 3 4 5 6 
#
# 1 92.8989 11.0330 20.6410 0.0000 0.0000 0.0000
# 2 11.0330 110.2981 15.0402 0.0000 0.0000 0.0000
# 3 20.6410 15.0402 78.2448 0.0000 0.0000 0.0000
# 4 0.0000 0.0000 0.0000 30.8105 0.0000 0.0000
# 5 0.0000 0.0000 0.0000 0.0000 25.1233 0.0000
# 6 0.0000 0.0000 0.0000 0.0000 0.0000 32.7377
#
#
#
# Elastic Compliance Matrix: (Units=1/GPa)
#
#
# Indices 1 2 3 4 5 6 
#
# 1 0.011496 -0.000756 -0.002887 0.000000 0.000000 0.000000
# 2 -0.000756 0.009360 -0.001600 0.000000 0.000000 0.000000
# 3 -0.002887 -0.001600 0.013850 0.000000 0.000000 0.000000
# 4 0.000000 0.000000 0.000000 0.032456 0.000000 0.000000
# 5 0.000000 0.000000 0.000000 0.000000 0.039804 0.000000
# 6 0.000000 0.000000 0.000000 0.000000 0.000000 0.030546
#
#
# Mechanical properties :
#
#
# Convention : Reuss Voigt Hill
#
# Bulk Modulus (GPa) = 41.28971 41.65224 41.47098
# Shear Modulus (GPa) = 32.03676 33.38279 32.70978
#
# Velocity S-wave (km/s) = 3.67773 3.75419 3.71616
# Velocity P-wave (km/s) = 5.95537 6.03135 5.99348
#
# Compressibility (1/GPa) = 0.02421911
#
# Stress axis : x y z
#
# Youngs Moduli (GPa) = 86.98899 106.83623 72.20454
#
# Poissons Ratio (x) = 0.08079 0.20847
# Poissons Ratio (y) = 0.06578 0.11551
# Poissons Ratio (z) = 0.25116 0.17091
#
# Static dielectric constant tensor:
#      x y z
#    x 1.911080 0.000000 0.000000 
#    y 0.000000 1.986740 0.000000 
#    z 0.000000 0.000000 1.875500 
# 
# From -- ./inp_files/9154.got.cif
#   From: 2010.05.17/outbox.cif.g08.bks.cpg/sg41_5_cif.got.tgz:9154.got - 2010.06.03 18:54:24.
