data_PCOD9368764
_publ_section_title
;
Structure prediction by ZEFSAII (Michael W. Deem and Ramdas Pophale) SiO2 
 PCOD9368764
Probable space group: F M M 2
;
_chemical_formula_sum "Si O2"
_cell_formula_units_Z 128
_cell_length_a 23.069915
_cell_length_b 26.780682
_cell_length_c 11.284869
_cell_angle_alpha 90.000000
_cell_angle_beta 90.000000
_cell_angle_gamma 90.000000
_cell_volume 6972.108692
_symmetry_space_group_name_H-M "F M M 2"
_symmetry_group_IT_number 42
_symmetry_cell_setting 'orthorhombic'
loop_
_space_group_symop_operation_xyz
x,y,z
-x,-y,z
-x,y,z
x,-y,z
x,1/2+y,1/2+z
-x,1/2-y,1/2+z
-x,1/2+y,1/2+z
x,1/2-y,1/2+z
1/2+x,y,1/2+z
1/2-x,-y,1/2+z
1/2-x,y,1/2+z
1/2+x,-y,1/2+z
1/2+x,1/2+y,z
1/2-x,1/2-y,z
1/2-x,1/2+y,z
1/2+x,1/2-y,z
loop_
_atom_site_type_symbol
_atom_site_label
_atom_site_fract_x
_atom_site_fract_y
_atom_site_fract_z
Si Si1 0.203797 0.679185 0.340530
Si Si2 0.174377 0.133933 0.289987
Si Si3 0.431656 0.276776 0.595050
Si Si4 0.383232 0.619929 0.669940
Si Si5 0.799904 0.941562 0.497300
Si Si6 0.065760 0.940268 0.878093
Si Si7 0.174130 0.898673 0.029008
Si Si8 0.121447 0.265646 0.842111
O O1 0.265551 0.665019 0.287430
O O2 0.158188 0.650291 0.258514
O O3 0.196235 0.652479 0.467204
O O4 0.182335 0.735675 0.346391
O O5 0.185802 0.088062 0.377256
O O6 0.158287 0.113429 0.162625
O O7 0.129359 0.175027 0.334886
O O8 0.500000 0.270820 0.595679
O O9 0.415281 0.335740 0.600133
O O10 0.408068 0.254703 0.469944
O O11 0.407963 0.252409 0.718442
O O12 0.341136 0.584917 0.593433
O O13 0.424795 0.586503 0.751522
O O14 0.731569 0.933207 0.524298
O O15 0.811861 0.000000 0.489719
O O16 0.000000 0.928884 0.920837
O O17 0.070873 0.000000 0.866720
O O18 0.118550 0.920829 0.960485
#
# Coordination Sequence:
#
# PCOD9368764 Si02
#       8
#    16  16  16  16  16  16  16  16
#     4   9  20  35  58  86 121 156 197 246 303 379
#     4  11  21  38  57  91 123 159 198 249 316 384
#     4  11  23  40  61  88 123 164 212 260 313 379
#     4  10  19  39  58  88 118 158 206 257 311 359
#     4  11  22  36  59  89 125 164 204 254 314 377
#     4  10  21  38  62  89 118 162 216 264 311 369
#     4  10  21  38  58  88 126 160 204 257 318 373
#     4  11  22  38  62  90 121 163 207 256 316 376
#
# _framework density 18.358865000000002
#
# number of rings (size 3 to 8) (size 9 to 14) (size 15 to 20)
#    0.000    1.625    2.500    2.625    0.000    1.000 
#    0.000    8.125    0.000    0.000    0.000    0.000 
#    0.000    0.000    0.000    0.000    0.000    0.000 
#
# Total GULP energy -178395.771012 kJ/mol
# GULP energy per Si atom -5574.867844 kJ/mol
# Density = 1.831708 g / cm^3
# Si number density = 18.358865 Si / 1000 Ang^3
#
#
#
# Elastic Constant Matrix: (Units=GPa)
#
#
# Indices 1 2 3 4 5 6 
#
# 1 71.5983 -3.8183 16.8311 0.0000 0.0000 0.0000
# 2 -3.8183 58.4924 4.7619 0.0000 0.0000 0.0000
# 3 16.8311 4.7619 85.9946 0.0000 0.0000 0.0000
# 4 0.0000 0.0000 0.0000 14.0978 0.0000 0.0000
# 5 0.0000 0.0000 0.0000 0.0000 20.4460 0.0000
# 6 0.0000 0.0000 0.0000 0.0000 0.0000 21.1336
#
#
#
# Elastic Compliance Matrix: (Units=1/GPa)
#
#
# Indices 1 2 3 4 5 6 
#
# 1 0.014724 0.001201 -0.002948 0.000000 0.000000 0.000000
# 2 0.001201 0.017272 -0.001191 0.000000 0.000000 0.000000
# 3 -0.002948 -0.001191 0.012272 0.000000 0.000000 0.000000
# 4 0.000000 0.000000 0.000000 0.070933 0.000000 0.000000
# 5 0.000000 0.000000 0.000000 0.000000 0.048909 0.000000
# 6 0.000000 0.000000 0.000000 0.000000 0.000000 0.047318
#
#
# Mechanical properties :
#
#
# Convention : Reuss Voigt Hill
#
# Bulk Modulus (GPa) = 26.04845 27.95939 27.00392
# Shear Modulus (GPa) = 21.72952 24.35619 23.04286
#
# Velocity S-wave (km/s) = 3.44408 3.64630 3.54663
# Velocity P-wave (km/s) = 5.48041 5.74367 5.61358
#
# Compressibility (1/GPa) = 0.03839000
#
# Stress axis : x y z
#
# Youngs Moduli (GPa) = 67.91649 57.89838 81.48846
#
# Poissons Ratio (x) = -0.06955 0.24025
# Poissons Ratio (y) = -0.08158 0.09709
# Poissons Ratio (z) = 0.20024 0.06899
#
# Static dielectric constant tensor:
#      x y z
#    x 1.634170 0.000000 0.000000 
#    y 0.000000 1.634790 0.000000 
#    z 0.000000 0.000000 1.659390 
# 
# From -- ./inp_files/10382.got.cif
#   From: 2010.05.17/outbox.cif.g08.bks.cpg/sg42_6_cif.got.tgz:10382.got - 2010.06.03 19:03:34.
