data_PCOD9368488
_publ_section_title
;
Structure prediction by ZEFSAII (Michael W. Deem and Ramdas Pophale) SiO2 
 PCOD9368488
Probable space group: F M M 2
;
_chemical_formula_sum "Si O2"
_cell_formula_units_Z 80
_cell_length_a 18.053659
_cell_length_b 15.230366
_cell_length_c 15.640280
_cell_angle_alpha 90.000000
_cell_angle_beta 90.000000
_cell_angle_gamma 90.000000
_cell_volume 4300.511357
_symmetry_space_group_name_H-M "F M M 2"
_symmetry_group_IT_number 42
_symmetry_cell_setting 'orthorhombic'
loop_
_space_group_symop_operation_xyz
x,y,z
-x,-y,z
-x,y,z
x,-y,z
x,1/2+y,1/2+z
-x,1/2-y,1/2+z
-x,1/2+y,1/2+z
x,1/2-y,1/2+z
1/2+x,y,1/2+z
1/2-x,-y,1/2+z
1/2-x,y,1/2+z
1/2+x,-y,1/2+z
1/2+x,1/2+y,z
1/2-x,1/2-y,z
1/2-x,1/2+y,z
1/2+x,1/2-y,z
loop_
_atom_site_type_symbol
_atom_site_label
_atom_site_fract_x
_atom_site_fract_y
_atom_site_fract_z
Si Si1 0.739593 0.145397 0.326500
Si Si2 0.083597 0.397552 0.397491
Si Si3 0.682007 0.594793 0.154406
Si Si4 0.914578 0.769872 0.062683
Si Si5 0.289723 0.154182 0.010670
O O1 0.750000 0.250000 0.318127
O O2 0.652573 0.123771 0.336365
O O3 0.777888 0.103450 0.244920
O O4 0.778486 0.117535 0.415761
O O5 0.089710 0.500000 0.422999
O O6 0.090807 0.334176 0.479654
O O7 0.000000 0.384726 0.362380
O O8 0.643917 0.500000 0.147541
O O9 0.627552 0.676204 0.136599
O O10 0.744910 0.601281 0.081350
O O11 0.871902 0.680342 0.039350
O O12 0.000000 0.755884 0.082547
O O13 0.250000 0.250000 0.008599
#
# Coordination Sequence:
#
# PCOD9368488 Si02
#       5
#    16  16  16  16  16
#     4  11  19  35  56  79 115 152 188 230 278 340
#     4  10  19  32  55  85 112 140 181 237 292 330
#     4  11  22  34  55  85 114 148 189 232 283 337
#     4  10  19  36  58  81 110 143 186 237 284 331
#     4   9  18  36  54  77 108 146 187 228 274 333
#
# _framework density 18.602439
#
# number of rings (size 3 to 8) (size 9 to 14) (size 15 to 20)
#    0.000    1.800    6.000    3.000    0.000    2.000 
#    0.000    5.000    0.000    1.800    0.000    0.000 
#    0.000    0.000    0.000    0.000    0.000    0.000 
#
# Total GULP energy -111557.484842 kJ/mol
# GULP energy per Si atom -5577.874242 kJ/mol
# Density = 1.856010 g / cm^3
# Si number density = 18.602439 Si / 1000 Ang^3
#
#
#
# Elastic Constant Matrix: (Units=GPa)
#
#
# Indices 1 2 3 4 5 6 
#
# 1 145.3258 14.4099 36.2028 0.0000 0.0000 0.0000
# 2 14.4099 37.7238 3.2527 0.0000 0.0000 0.0000
# 3 36.2028 3.2527 102.7941 0.0000 0.0000 0.0000
# 4 0.0000 0.0000 0.0000 -5.8708 0.0000 0.0000
# 5 0.0000 0.0000 0.0000 0.0000 23.6629 0.0000
# 6 0.0000 0.0000 0.0000 0.0000 0.0000 21.4129
#
#
#
# Elastic Compliance Matrix: (Units=1/GPa)
#
#
# Indices 1 2 3 4 5 6 
#
# 1 0.007819 -0.002757 -0.002666 0.000000 0.000000 0.000000
# 2 -0.002757 0.027553 0.000099 0.000000 0.000000 0.000000
# 3 -0.002666 0.000099 0.010664 0.000000 0.000000 0.000000
# 4 0.000000 0.000000 0.000000 -0.170334 0.000000 0.000000
# 5 0.000000 0.000000 0.000000 0.000000 0.042260 0.000000
# 6 0.000000 0.000000 0.000000 0.000000 0.000000 0.046701
#
#
# Mechanical properties :
#
#
# Convention : Reuss Voigt Hill
#
# Bulk Modulus (GPa) = 28.25852 43.73049 35.99450
# Shear Modulus (GPa) = -387.79868 23.30623 -182.24623
#
# Velocity S-wave (km/s) = -14.45404 3.54341 -9.90867
# Velocity P-wave (km/s) = 16.22760 6.34823 10.56019
#
# Compressibility (1/GPa) = 0.03538756
#
# Stress axis : x y z
#
# Youngs Moduli (GPa) = 127.89894 36.29380 93.77238
#
# Poissons Ratio (x) = 0.10005 0.25004
# Poissons Ratio (y) = 0.35258 -0.00929
# Poissons Ratio (z) = 0.34103 -0.00359
#
# Static dielectric constant tensor:
#      x y z
#    x 1.664900 0.000000 0.000000 
#    y 0.000000 1.674480 0.000000 
#    z 0.000000 0.000000 1.647850 
# 
# From -- ./inp_files/14959.got.cif
#   From: 2010.05.17/outbox.cif.g08.bks.cpg/sg42_8_cif.got.tgz:14959.got - 2010.06.03 19:03:34.
