data_PCOD9368205
_publ_section_title
;
Structure prediction by ZEFSAII (Michael W. Deem and Ramdas Pophale) SiO2 
 PCOD9368205
Probable space group: F M M 2
;
_chemical_formula_sum "Si O2"
_cell_formula_units_Z 96
_cell_length_a 25.822407
_cell_length_b 8.722759
_cell_length_c 25.984859
_cell_angle_alpha 90.000000
_cell_angle_beta 90.000000
_cell_angle_gamma 90.000000
_cell_volume 5852.898061
_symmetry_space_group_name_H-M "F M M 2"
_symmetry_group_IT_number 42
_symmetry_cell_setting 'orthorhombic'
loop_
_space_group_symop_operation_xyz
x,y,z
-x,-y,z
-x,y,z
x,-y,z
x,1/2+y,1/2+z
-x,1/2-y,1/2+z
-x,1/2+y,1/2+z
x,1/2-y,1/2+z
1/2+x,y,1/2+z
1/2-x,-y,1/2+z
1/2-x,y,1/2+z
1/2+x,-y,1/2+z
1/2+x,1/2+y,z
1/2-x,1/2-y,z
1/2-x,1/2+y,z
1/2+x,1/2-y,z
loop_
_atom_site_type_symbol
_atom_site_label
_atom_site_fract_x
_atom_site_fract_y
_atom_site_fract_z
Si Si1 0.692090 0.315598 0.546570
Si Si2 0.000000 0.818112 0.742800
Si Si3 0.191507 0.183466 0.939827
Si Si4 0.614878 0.683122 0.751474
Si Si5 0.608522 0.316048 0.631267
Si Si6 0.692200 0.182245 0.833287
Si Si7 0.000000 0.320397 0.630043
O O1 0.695000 0.500000 0.542738
O O2 0.750000 0.250000 0.553406
O O3 0.669473 0.248406 0.493182
O O4 0.655598 0.272328 0.594231
O O5 0.055228 0.789927 0.769129
O O6 0.000000 0.720392 0.690796
O O7 0.000000 0.000000 0.727992
O O8 0.250000 0.250000 0.939634
O O9 0.169523 0.245359 0.886072
O O10 0.192352 0.000000 0.940312
O O11 0.624815 0.500000 0.754827
O O12 0.617411 0.728394 0.691048
O O13 0.655661 0.771283 0.786196
O O14 0.604380 0.500000 0.631257
O O15 0.554013 0.250543 0.611347
O O16 0.750000 0.250000 0.825615
O O17 0.696174 0.000000 0.838944
O O18 0.000000 0.500000 0.621597
#
# Coordination Sequence:
#
# PCOD9368205 Si02
#       7
#    16   8  16  16  16  16   8
#     4  10  19  32  50  73  99 129 161 197 239 286
#     4   8  16  32  52  69  94 129 162 194 236 288
#     4  10  18  31  50  70  93 124 161 201 238 282
#     4   9  17  32  51  73  98 128 162 196 237 286
#     4   9  19  34  51  70  99 134 163 193 239 291
#     4  11  21  33  49  71  98 129 162 200 241 285
#     4  10  18  28  48  73  96 123 164 208 238 272
#
# _framework density 16.402131000000001
#
# number of rings (size 3 to 8) (size 9 to 14) (size 15 to 20)
#    0.000    2.333    0.000    7.250    0.000    4.667 
#    0.000    1.667    0.000    1.000    0.000    4.667 
#    0.000    0.000    0.000    0.000    0.000    0.000 
#
# Total GULP energy -133726.850916 kJ/mol
# GULP energy per Si atom -5571.952121 kJ/mol
# Density = 1.636480 g / cm^3
# Si number density = 16.402131 Si / 1000 Ang^3
#
#
#
# Elastic Constant Matrix: (Units=GPa)
#
#
# Indices 1 2 3 4 5 6 
#
# 1 94.1459 40.8003 63.4059 0.0000 0.0000 0.0000
# 2 40.8003 81.8813 43.5588 0.0000 0.0000 0.0000
# 3 63.4059 43.5588 101.5963 0.0000 0.0000 0.0000
# 4 0.0000 0.0000 0.0000 13.5079 0.0000 0.0000
# 5 0.0000 0.0000 0.0000 0.0000 -2.0818 0.0000
# 6 0.0000 0.0000 0.0000 0.0000 0.0000 19.1392
#
#
#
# Elastic Compliance Matrix: (Units=1/GPa)
#
#
# Indices 1 2 3 4 5 6 
#
# 1 0.019364 -0.004171 -0.010297 0.000000 0.000000 0.000000
# 2 -0.004171 0.016720 -0.004565 0.000000 0.000000 0.000000
# 3 -0.010297 -0.004565 0.018226 0.000000 0.000000 0.000000
# 4 0.000000 0.000000 0.000000 0.074031 0.000000 0.000000
# 5 0.000000 0.000000 0.000000 0.000000 -0.480348 0.000000
# 6 0.000000 0.000000 0.000000 0.000000 0.000000 0.052249
#
#
# Mechanical properties :
#
#
# Convention : Reuss Voigt Hill
#
# Bulk Modulus (GPa) = 61.56156 63.68371 62.62263
# Shear Modulus (GPa) = -19.51016 14.77029 -2.36993
#
# Velocity S-wave (km/s) = -3.45264 3.00411 -1.20334
# Velocity P-wave (km/s) = 4.66046 7.13748 6.02758
#
# Compressibility (1/GPa) = 0.01624390
#
# Stress axis : x y z
#
# Youngs Moduli (GPa) = 51.64151 59.80895 54.86563
#
# Poissons Ratio (x) = 0.24948 0.56494
# Poissons Ratio (y) = 0.21541 0.25047
# Poissons Ratio (z) = 0.53174 0.27304
#
# Static dielectric constant tensor:
#      x y z
#    x 1.557690 0.000000 0.000000 
#    y 0.000000 1.548130 0.000000 
#    z 0.000000 0.000000 1.573640 
# 
# From -- ./inp_files/33184.got.cif
#   From: 2010.05.17/outbox.cif.g08.bks.cpg/sg42_17_cif.got.tgz:33184.got - 2010.06.03 19:03:34.
