data_PCOD9368940
_publ_section_title
;
Structure prediction by ZEFSAII (Michael W. Deem and Ramdas Pophale) SiO2 
 PCOD9368940
Probable space group: F M M 2
;
_chemical_formula_sum "Si O2"
_cell_formula_units_Z 72
_cell_length_a 11.236742
_cell_length_b 23.316749
_cell_length_c 14.051695
_cell_angle_alpha 90.000000
_cell_angle_beta 90.000000
_cell_angle_gamma 90.000000
_cell_volume 3681.604411
_symmetry_space_group_name_H-M "F M M 2"
_symmetry_group_IT_number 42
_symmetry_cell_setting 'orthorhombic'
loop_
_space_group_symop_operation_xyz
x,y,z
-x,-y,z
-x,y,z
x,-y,z
x,1/2+y,1/2+z
-x,1/2-y,1/2+z
-x,1/2+y,1/2+z
x,1/2-y,1/2+z
1/2+x,y,1/2+z
1/2-x,-y,1/2+z
1/2-x,y,1/2+z
1/2+x,-y,1/2+z
1/2+x,1/2+y,z
1/2-x,1/2-y,z
1/2-x,1/2+y,z
1/2+x,1/2-y,z
loop_
_atom_site_type_symbol
_atom_site_label
_atom_site_fract_x
_atom_site_fract_y
_atom_site_fract_z
Si Si1 0.000000 0.682140 0.537820
Si Si2 0.765031 0.407255 0.368709
Si Si3 0.355382 0.500000 0.017763
Si Si4 0.858602 0.500000 0.738995
Si Si5 0.500000 0.150271 0.319866
Si Si6 0.761499 0.180281 0.521616
Si Si7 0.500000 0.691626 0.621205
O O1 0.000000 0.679583 0.423114
O O2 0.867614 0.658992 0.562389
O O3 0.000000 0.745459 0.577804
O O4 0.804303 0.446792 0.457801
O O5 0.685516 0.444534 0.298162
O O6 0.717418 0.349537 0.419214
O O7 0.884266 0.389045 0.314616
O O8 0.500000 0.500000 0.012369
O O9 0.318995 0.500000 0.128460
O O10 0.000000 0.500000 0.737474
O O11 0.500000 0.194026 0.234143
O O12 0.750000 0.250000 0.513623
O O13 0.876025 0.164899 0.584831
#
# Coordination Sequence:
#
# PCOD9368940 Si02
#       7
#     8  16   8   8   8  16   8
#     4   8  18  40  57  83 126 168 200 236 292 376
#     4  10  21  39  64  87 121 159 205 252 305 370
#     4  10  20  40  63  81 114 162 202 252 299 366
#     4  10  24  39  60  92 121 156 209 257 314 361
#     4  10  20  37  66  87 117 164 211 247 302 382
#     4   9  19  37  62  89 129 162 196 248 310 362
#     4  10  20  34  61  92 121 156 209 258 298 346
#
# _framework density 19.556692999999999
#
# number of rings (size 3 to 8) (size 9 to 14) (size 15 to 20)
#    0.000    2.444    1.111    0.000    4.667    0.000 
#    0.000   26.667    0.000    0.000    0.000    0.000 
#    0.000    0.000    0.000    0.000    0.000    0.000 
#
# Total GULP energy -100228.975033 kJ/mol
# GULP energy per Si atom -5568.276391 kJ/mol
# Density = 1.951218 g / cm^3
# Si number density = 19.556693 Si / 1000 Ang^3
#
#
#
# Elastic Constant Matrix: (Units=GPa)
#
#
# Indices 1 2 3 4 5 6 
#
# 1 114.5746 12.7749 54.3315 0.0000 0.0000 0.0000
# 2 12.7749 50.4526 16.9181 0.0000 0.0000 0.0000
# 3 54.3315 16.9181 84.4279 0.0000 0.0000 0.0000
# 4 0.0000 0.0000 0.0000 -20.0269 0.0000 0.0000
# 5 0.0000 0.0000 0.0000 0.0000 8.2347 0.0000
# 6 0.0000 0.0000 0.0000 0.0000 0.0000 9.6373
#
#
#
# Elastic Compliance Matrix: (Units=1/GPa)
#
#
# Indices 1 2 3 4 5 6 
#
# 1 0.012573 -0.000504 -0.007990 0.000000 0.000000 0.000000
# 2 -0.000504 0.021269 -0.003937 0.000000 0.000000 0.000000
# 3 -0.007990 -0.003937 0.017775 0.000000 0.000000 0.000000
# 4 0.000000 0.000000 0.000000 -0.049933 0.000000 0.000000
# 5 0.000000 0.000000 0.000000 0.000000 0.121437 0.000000
# 6 0.000000 0.000000 0.000000 0.000000 0.000000 0.103763
#
#
# Mechanical properties :
#
#
# Convention : Reuss Voigt Hill
#
# Bulk Modulus (GPa) = 37.37837 46.38935 41.88386
# Shear Modulus (GPa) = 19.18169 10.59774 14.88971
#
# Velocity S-wave (km/s) = 3.13521 2.33040 2.76227
# Velocity P-wave (km/s) = 5.67982 5.56893 5.62465
#
# Compressibility (1/GPa) = 0.02675344
#
# Stress axis : x y z
#
# Youngs Moduli (GPa) = 79.53520 47.01765 56.25819
#
# Poissons Ratio (x) = 0.02371 0.44950
# Poissons Ratio (y) = 0.04011 0.22151
# Poissons Ratio (z) = 0.63549 0.18513
#
# Static dielectric constant tensor:
#      x y z
#    x 1.743810 0.000000 0.000000 
#    y 0.000000 1.714820 0.000000 
#    z 0.000000 0.000000 1.648190 
# 
# From -- ./inp_files/6898.got.cif
#   From: 2010.05.17/outbox.cif.g08.bks.cpg/sg42_4_cif.got.tgz:6898.got - 2010.06.03 19:03:34.
