data_PCOD9368842
_publ_section_title
;
Structure prediction by ZEFSAII (Michael W. Deem and Ramdas Pophale) SiO2 
 PCOD9368842
Probable space group: F M M 2
;
_chemical_formula_sum "Si O2"
_cell_formula_units_Z 112
_cell_length_a 14.426325
_cell_length_b 27.812612
_cell_length_c 14.118906
_cell_angle_alpha 90.000000
_cell_angle_beta 90.000000
_cell_angle_gamma 90.000000
_cell_volume 5664.982021
_symmetry_space_group_name_H-M "F M M 2"
_symmetry_group_IT_number 42
_symmetry_cell_setting 'orthorhombic'
loop_
_space_group_symop_operation_xyz
x,y,z
-x,-y,z
-x,y,z
x,-y,z
x,1/2+y,1/2+z
-x,1/2-y,1/2+z
-x,1/2+y,1/2+z
x,1/2-y,1/2+z
1/2+x,y,1/2+z
1/2-x,-y,1/2+z
1/2-x,y,1/2+z
1/2+x,-y,1/2+z
1/2+x,1/2+y,z
1/2-x,1/2-y,z
1/2-x,1/2+y,z
1/2+x,1/2-y,z
loop_
_atom_site_type_symbol
_atom_site_label
_atom_site_fract_x
_atom_site_fract_y
_atom_site_fract_z
Si Si1 0.101110 0.182240 0.717360
Si Si2 0.750163 0.945140 0.276034
Si Si3 0.109948 0.584421 0.119436
Si Si4 0.647832 0.774269 0.607389
Si Si5 0.803549 0.201053 0.912695
Si Si6 0.240282 0.599544 0.477116
Si Si7 0.111819 0.117490 0.153346
O O1 0.128565 0.140631 0.644886
O O2 0.096461 0.232883 0.664153
O O3 0.160986 0.185049 0.811034
O O4 0.000000 0.167722 0.751975
O O5 0.662741 0.942061 0.204599
O O6 0.720150 0.926470 0.378846
O O7 0.831881 0.911497 0.233624
O O8 0.782294 0.000000 0.280673
O O9 0.000000 0.575526 0.112814
O O10 0.168765 0.576454 0.024604
O O11 0.750000 0.750000 0.604489
O O12 0.624343 0.785656 0.497417
O O13 0.637969 0.825667 0.658239
O O14 0.750000 0.250000 0.895630
O O15 0.746224 0.156253 0.954357
O O16 0.157203 0.598693 0.554315
O O17 0.000000 0.112473 0.156615
#
# Coordination Sequence:
#
# PCOD9368842 Si02
#       7
#    16  16  16  16  16  16  16
#     4  11  21  33  55  87 123 161 203 248 297 361
#     4  11  24  43  65  91 123 162 209 267 334 388
#     4  10  22  42  65  93 126 163 210 263 315 377
#     4  10  20  37  58  85 126 168 205 246 305 365
#     4  10  20  33  57  83 118 165 205 239 298 365
#     4  10  22  40  63  92 125 169 207 257 319 379
#     4  10  23  42  66  95 128 166 212 264 315 376
#
# _framework density 19.770583999999999
#
# number of rings (size 3 to 8) (size 9 to 14) (size 15 to 20)
#    0.000    1.714    1.429    4.286    2.000    6.857 
#    0.000    0.714    0.000    0.000    0.000    0.000 
#    0.000    0.000    0.000    0.000    0.000    0.000 
#
# Total GULP energy -156117.161129 kJ/mol
# GULP energy per Si atom -5575.612897 kJ/mol
# Density = 1.972559 g / cm^3
# Si number density = 19.770584 Si / 1000 Ang^3
#
#
#
# Elastic Constant Matrix: (Units=GPa)
#
#
# Indices 1 2 3 4 5 6 
#
# 1 92.6704 3.8226 20.1084 0.0000 0.0000 0.0000
# 2 3.8226 80.2427 10.6919 0.0000 0.0000 0.0000
# 3 20.1084 10.6919 80.5887 0.0000 0.0000 0.0000
# 4 0.0000 0.0000 0.0000 -15.6692 0.0000 0.0000
# 5 0.0000 0.0000 0.0000 0.0000 -658.0258 0.0000
# 6 0.0000 0.0000 0.0000 0.0000 0.0000 1.3295
#
#
#
# Elastic Compliance Matrix: (Units=1/GPa)
#
#
# Indices 1 2 3 4 5 6 
#
# 1 0.011411 -0.000167 -0.002825 0.000000 0.000000 0.000000
# 2 -0.000167 0.012689 -0.001642 0.000000 0.000000 0.000000
# 3 -0.002825 -0.001642 0.013331 0.000000 0.000000 0.000000
# 4 0.000000 0.000000 0.000000 -0.063819 0.000000 0.000000
# 5 0.000000 0.000000 0.000000 0.000000 -0.001520 0.000000
# 6 0.000000 0.000000 0.000000 0.000000 0.000000 0.752158
#
#
# Mechanical properties :
#
#
# Convention : Reuss Voigt Hill
#
# Bulk Modulus (GPa) = 35.50731 35.86085 35.68408
# Shear Modulus (GPa) = 6.73032 -119.88119 -56.57543
#
# Velocity S-wave (km/s) = 1.84705 -7.79537 -5.35519
# Velocity P-wave (km/s) = 4.74842 7.92754 4.48878
#
# Compressibility (1/GPa) = 0.02816321
#
# Stress axis : x y z
#
# Youngs Moduli (GPa) = 87.63601 78.80894 75.01081
#
# Poissons Ratio (x) = 0.01317 0.21191
# Poissons Ratio (y) = 0.01465 0.12315
# Poissons Ratio (z) = 0.24758 0.12939
#
# Static dielectric constant tensor:
#      x y z
#    x 1.819340 0.000000 0.000000 
#    y 0.000000 1.702980 0.000000 
#    z 0.000000 0.000000 1.721570 
# 
# From -- ./inp_files/14374.got.cif
#   From: 2010.05.17/outbox.cif.g08.bks.cpg/sg42_8_cif.got.tgz:14374.got - 2010.06.03 19:03:34.
