data_PCOD9368220
_publ_section_title
;
Structure prediction by ZEFSAII (Michael W. Deem and Ramdas Pophale) SiO2 
 PCOD9368220
Probable space group: F M M 2
;
_chemical_formula_sum "Si O2"
_cell_formula_units_Z 116
_cell_length_a 14.626814
_cell_length_b 16.106267
_cell_length_c 24.138941
_cell_angle_alpha 90.000000
_cell_angle_beta 90.000000
_cell_angle_gamma 90.000000
_cell_volume 5686.733109
_symmetry_space_group_name_H-M "F M M 2"
_symmetry_group_IT_number 42
_symmetry_cell_setting 'orthorhombic'
loop_
_space_group_symop_operation_xyz
x,y,z
-x,-y,z
-x,y,z
x,-y,z
x,1/2+y,1/2+z
-x,1/2-y,1/2+z
-x,1/2+y,1/2+z
x,1/2-y,1/2+z
1/2+x,y,1/2+z
1/2-x,-y,1/2+z
1/2-x,y,1/2+z
1/2+x,-y,1/2+z
1/2+x,1/2+y,z
1/2-x,1/2-y,z
1/2-x,1/2+y,z
1/2+x,1/2-y,z
loop_
_atom_site_type_symbol
_atom_site_label
_atom_site_fract_x
_atom_site_fract_y
_atom_site_fract_z
Si Si1 0.388378 0.594908 0.281280
Si Si2 0.396051 0.910276 0.083931
Si Si3 0.389087 0.407225 0.153889
Si Si4 0.841625 0.357407 0.454421
Si Si5 0.000000 0.000000 0.958775
Si Si6 0.634301 0.589411 0.454639
Si Si7 0.888356 0.768386 0.066838
Si Si8 0.397263 0.271448 0.368178
O O1 0.500000 0.595436 0.284504
O O2 0.359836 0.500000 0.296326
O O3 0.361288 0.608530 0.217254
O O4 0.356252 0.671565 0.319207
O O5 0.500000 0.909416 0.106078
O O6 0.355063 0.819095 0.092487
O O7 0.354725 0.000000 0.100374
O O8 0.400487 0.910235 0.017148
O O9 0.500000 0.406556 0.154437
O O10 0.360835 0.500000 0.137707
O O11 0.361435 0.341089 0.108618
O O12 0.742920 0.398533 0.457943
O O13 0.853496 0.293454 0.505962
O O14 0.848192 0.306570 0.396614
O O15 0.920200 0.426453 0.458878
O O16 0.611756 0.500000 0.429563
O O17 0.596273 0.662313 0.417798
O O18 0.000000 0.764525 0.063437
O O19 0.500000 0.244575 0.352035
#
# Coordination Sequence:
#
# PCOD9368220 Si02
#       8
#    16  16  16  16   4  16  16  16
#     4   8  15  29  48  76 106 132 167 222 277 321
#     4   9  18  32  48  72 105 139 176 220 270 317
#     4   8  15  26  46  75 105 134 174 221 269 320
#     4  12  23  36  50  76 107 145 185 214 267 318
#     4  12  24  40  52  68 116 148 180 220 252 338
#     4  11  22  33  49  75 105 139 178 219 262 316
#     4  10  18  29  49  74 105 142 178 212 264 324
#     4  11  20  33  53  77 106 141 174 219 269 326
#
# _framework density 20.398354999999999
#
# number of rings (size 3 to 8) (size 9 to 14) (size 15 to 20)
#    0.000    2.069    3.448    2.069    0.966    1.379 
#    0.000    0.000    0.000    0.000    8.966    0.000 
#    0.000    0.000    0.000    0.000    0.000    0.000 
#
# Total GULP energy -161468.630146 kJ/mol
# GULP energy per Si atom -5567.883798 kJ/mol
# Density = 2.035193 g / cm^3
# Si number density = 20.398355 Si / 1000 Ang^3
#
#
#
# Elastic Constant Matrix: (Units=GPa)
#
#
# Indices 1 2 3 4 5 6 
#
# 1 91.2258 15.1615 2.4771 0.0000 0.0000 0.0000
# 2 15.1615 155.6936 49.2006 0.0000 0.0000 0.0000
# 3 2.4771 49.2006 69.5135 0.0000 0.0000 0.0000
# 4 0.0000 0.0000 0.0000 30.1339 0.0000 0.0000
# 5 0.0000 0.0000 0.0000 0.0000 -108.6887 0.0000
# 6 0.0000 0.0000 0.0000 0.0000 0.0000 7.3507
#
#
#
# Elastic Compliance Matrix: (Units=1/GPa)
#
#
# Indices 1 2 3 4 5 6 
#
# 1 0.011154 -0.001237 0.000478 0.000000 0.000000 0.000000
# 2 -0.001237 0.008411 -0.005909 0.000000 0.000000 0.000000
# 3 0.000478 -0.005909 0.018551 0.000000 0.000000 0.000000
# 4 0.000000 0.000000 0.000000 0.033185 0.000000 0.000000
# 5 0.000000 0.000000 0.000000 0.000000 -0.009201 0.000000
# 6 0.000000 0.000000 0.000000 0.000000 0.000000 0.136041
#
#
# Mechanical properties :
#
#
# Convention : Reuss Voigt Hill
#
# Bulk Modulus (GPa) = 40.35488 50.01235 45.18362
# Shear Modulus (GPa) = 22.75445 2.39878 12.57661
#
# Velocity S-wave (km/s) = 3.34354 1.08560 2.48574
# Velocity P-wave (km/s) = 5.89339 5.11297 5.51699
#
# Compressibility (1/GPa) = 0.02478015
#
# Stress axis : x y z
#
# Youngs Moduli (GPa) = 89.65015 118.89761 53.90606
#
# Poissons Ratio (x) = 0.14712 -0.02578
# Poissons Ratio (y) = 0.11093 0.31852
# Poissons Ratio (z) = -0.04288 0.70254
#
# Static dielectric constant tensor:
#      x y z
#    x 1.738340 0.000000 0.000000 
#    y 0.000000 1.782480 0.000000 
#    z 0.000000 0.000000 1.707470 
# 
# From -- ./inp_files/32695.got.cif
#   From: 2010.05.17/outbox.cif.g08.bks.cpg/sg42_17_cif.got.tgz:32695.got - 2010.06.03 19:03:34.
