data_PCOD9368018
_publ_section_title
;
Structure prediction by ZEFSAII (Michael W. Deem and Ramdas Pophale) SiO2 
 PCOD9368018
Probable space group: A B A 2
;
_chemical_formula_sum "Si O2"
_cell_formula_units_Z 32
_cell_length_a 11.064173
_cell_length_b 13.647465
_cell_length_c 7.964308
_cell_angle_alpha 90.000000
_cell_angle_beta 90.000000
_cell_angle_gamma 90.000000
_cell_volume 1202.593893
_symmetry_space_group_name_H-M "A B A 2"
_symmetry_group_IT_number 41
_symmetry_cell_setting 'orthorhombic'
loop_
_space_group_symop_operation_xyz
x,y,z
-x,-y,z
1/2-x,y,1/2+z
1/2+x,-y,1/2+z
x,1/2+y,1/2+z
-x,1/2-y,1/2+z
1/2-x,1/2+y,z
1/2+x,1/2-y,z
loop_
_atom_site_type_symbol
_atom_site_label
_atom_site_fract_x
_atom_site_fract_y
_atom_site_fract_z
Si Si1 0.952333 0.611191 0.547820
Si Si2 0.268621 0.334165 0.346868
Si Si3 0.127432 0.000122 0.559038
Si Si4 0.675306 0.370377 0.244754
O O1 0.871834 0.633048 0.382824
O O2 0.856817 0.636401 0.694439
O O3 0.000000 0.500000 0.546030
O O4 0.075416 0.664955 0.609205
O O5 0.335640 0.392588 0.496622
O O6 0.249438 0.218735 0.324310
O O7 0.231414 0.053488 0.662883
O O8 0.112588 0.069601 0.394696
O O9 0.000000 0.000000 0.648097
#
# Coordination Sequence:
#
# PCOD9368018 Si02
#       4
#     8   8   8   8
#     4  12  25  54  79 115 167 216 278 340 420 496
#     4  12  25  50  82 112 165 217 267 350 408 489
#     4  12  25  55  78 117 169 214 273 349 417 492
#     4  12  27  50  81 122 158 221 282 332 423 500
#
# _framework density 26.609148999999999
#
# number of rings (size 3 to 8) (size 9 to 14) (size 15 to 20)
#    0.000    0.000    7.500    1.500    0.000    4.000 
#   27.000    1.250    0.000    0.000    0.000    0.000 
#    0.000    0.000    0.000    0.000    0.000    0.000 
#
# Total GULP energy -89471.921940 kJ/mol
# GULP energy per Si atom -5591.995121 kJ/mol
# Density = 2.654859 g / cm^3
# Si number density = 26.609149 Si / 1000 Ang^3
#
#
#
# Elastic Constant Matrix: (Units=GPa)
#
#
# Indices 1 2 3 4 5 6 
#
# 1 200.5292 53.3861 79.4952 0.0000 0.0000 0.0000
# 2 53.3861 164.1248 37.5124 0.0000 0.0000 0.0000
# 3 79.4952 37.5124 92.6769 0.0000 0.0000 0.0000
# 4 0.0000 0.0000 0.0000 28.0644 0.0000 0.0000
# 5 0.0000 0.0000 0.0000 0.0000 62.9046 0.0000
# 6 0.0000 0.0000 0.0000 0.0000 0.0000 12.9181
#
#
#
# Elastic Compliance Matrix: (Units=1/GPa)
#
#
# Indices 1 2 3 4 5 6 
#
# 1 0.007733 -0.001101 -0.006187 0.000000 0.000000 0.000000
# 2 -0.001101 0.006871 -0.001837 0.000000 0.000000 0.000000
# 3 -0.006187 -0.001837 0.016841 0.000000 0.000000 0.000000
# 4 0.000000 0.000000 0.000000 0.035632 0.000000 0.000000
# 5 0.000000 0.000000 0.000000 0.000000 0.015897 0.000000
# 6 0.000000 0.000000 0.000000 0.000000 0.000000 0.077411
#
#
# Mechanical properties :
#
#
# Convention : Reuss Voigt Hill
#
# Bulk Modulus (GPa) = 75.78891 88.67980 82.23436
# Shear Modulus (GPa) = 27.31756 39.90657 33.61206
#
# Velocity S-wave (km/s) = 3.20757 3.87684 3.55798
# Velocity P-wave (km/s) = 6.50093 7.31020 6.91741
#
# Compressibility (1/GPa) = 0.01319454
#
# Stress axis : x y z
#
# Youngs Moduli (GPa) = 129.32065 145.54206 59.37992
#
# Poissons Ratio (x) = 0.16026 0.36739
# Poissons Ratio (y) = 0.14240 0.10906
# Poissons Ratio (z) = 0.80013 0.26730
#
# Static dielectric constant tensor:
#      x y z
#    x 2.061910 0.000000 0.000000 
#    y 0.000000 2.063380 0.000000 
#    z 0.000000 0.000000 2.185610 
# 
# From -- ./inp_files/1918.got.cif
#   From: 2010.05.17/outbox.cif.g08.bks.cpg/sg41_1_cif.got.tgz:1918.got - 2010.06.03 18:54:24.
