data_PCOD9368504
_publ_section_title
;
Structure prediction by ZEFSAII (Michael W. Deem and Ramdas Pophale) SiO2 
 PCOD9368504
Probable space group: F M M 2
;
_chemical_formula_sum "Si O2"
_cell_formula_units_Z 96
_cell_length_a 29.454023
_cell_length_b 7.523459
_cell_length_c 21.185473
_cell_angle_alpha 90.000000
_cell_angle_beta 90.000000
_cell_angle_gamma 90.000000
_cell_volume 4694.618923
_symmetry_space_group_name_H-M "F M M 2"
_symmetry_group_IT_number 42
_symmetry_cell_setting 'orthorhombic'
loop_
_space_group_symop_operation_xyz
x,y,z
-x,-y,z
-x,y,z
x,-y,z
x,1/2+y,1/2+z
-x,1/2-y,1/2+z
-x,1/2+y,1/2+z
x,1/2-y,1/2+z
1/2+x,y,1/2+z
1/2-x,-y,1/2+z
1/2-x,y,1/2+z
1/2+x,-y,1/2+z
1/2+x,1/2+y,z
1/2-x,1/2-y,z
1/2-x,1/2+y,z
1/2+x,1/2-y,z
loop_
_atom_site_type_symbol
_atom_site_label
_atom_site_fract_x
_atom_site_fract_y
_atom_site_fract_z
Si Si1 0.551624 0.788945 0.878150
Si Si2 0.800967 0.287208 0.556596
Si Si3 0.300950 0.787347 0.701456
Si Si4 0.606092 0.217510 0.756485
Si Si5 0.394907 0.714481 0.005986
Si Si6 0.947975 0.716825 0.631019
O O1 0.500000 0.717694 0.881637
O O2 0.580822 0.718518 0.819218
O O3 0.579002 0.765140 0.942804
O O4 0.547543 0.000000 0.867836
O O5 0.805132 0.500000 0.560205
O O6 0.750000 0.250000 0.533979
O O7 0.805154 0.219300 0.629044
O O8 0.842896 0.223035 0.514321
O O9 0.250000 0.750000 0.723830
O O10 0.342113 0.723234 0.744950
O O11 0.305574 0.000000 0.697548
O O12 0.578036 0.270007 0.694292
O O13 0.606412 0.000000 0.758583
O O14 0.394579 0.500000 0.007126
O O15 0.422159 0.775143 0.068051
O O16 0.947781 0.500000 0.630477
O O17 0.000000 0.775004 0.631275
#
# Coordination Sequence:
#
# PCOD9368504 Si02
#       6
#    16  16  16  16  16  16
#     4  10  21  35  51  73 103 138 171 205 251 304
#     4   9  17  30  50  76 103 129 163 207 254 301
#     4   9  16  29  50  75 101 126 159 205 253 298
#     4   9  16  30  50  72  98 129 166 207 247 291
#     4  10  19  33  52  76 102 131 168 210 254 300
#     4   9  15  25  47  75  96 119 162 213 249 283
#
# _framework density 20.448944999999998
#
# number of rings (size 3 to 8) (size 9 to 14) (size 15 to 20)
#    0.000    2.667    1.667    1.000    0.000    3.667 
#    0.000    1.667    0.000    5.000    0.000    0.000 
#    0.000    0.000    0.000    0.000    0.000    0.000 
#
# Total GULP energy -133935.892593 kJ/mol
# GULP energy per Si atom -5580.662191 kJ/mol
# Density = 2.040240 g / cm^3
# Si number density = 20.448945 Si / 1000 Ang^3
#
#
#
# Elastic Constant Matrix: (Units=GPa)
#
#
# Indices 1 2 3 4 5 6 
#
# 1 246.6870 4.6600 118.9952 0.0000 0.0000 0.0001
# 2 4.6600 50.0104 -0.4326 -0.0003 0.0000 0.0001
# 3 118.9952 -0.4326 161.1097 0.0000 0.0000 0.0000
# 4 0.0000 -0.0003 0.0000 -9.4468 0.0000 0.0001
# 5 0.0000 0.0000 0.0000 0.0000 27.3310 0.0000
# 6 0.0001 0.0001 0.0000 0.0001 0.0000 15.3925
#
#
#
# Elastic Compliance Matrix: (Units=1/GPa)
#
#
# Indices 1 2 3 4 5 6 
#
# 1 0.006317 -0.000629 -0.004667 0.000000 0.000000 0.000000
# 2 -0.000629 0.020059 0.000518 -0.000001 0.000000 0.000000
# 3 -0.004667 0.000518 0.009656 0.000000 0.000000 0.000000
# 4 0.000000 -0.000001 0.000000 -0.105856 0.000000 0.000001
# 5 0.000000 0.000000 0.000000 0.000000 0.036588 0.000000
# 6 0.000000 0.000000 0.000000 0.000001 0.000000 0.064967
#
#
# Mechanical properties :
#
#
# Convention : Reuss Voigt Hill
#
# Bulk Modulus (GPa) = 37.77052 78.25025 58.01038
# Shear Modulus (GPa) = 99.77692 28.96098 64.36895
#
# Velocity S-wave (km/s) = 6.99279 3.76740 5.61660
# Velocity P-wave (km/s) = 9.14929 7.56794 8.39593
#
# Compressibility (1/GPa) = 0.02647568
#
# Stress axis : x y z
#
# Youngs Moduli (GPa) = 158.30166 49.85310 103.56572
#
# Poissons Ratio (x) = 0.03136 0.48339
# Poissons Ratio (y) = 0.09957 -0.05369
# Poissons Ratio (z) = 0.73886 -0.02585
#
# Static dielectric constant tensor:
#      x y z
#    x 1.737640 0.000000 0.000000 
#    y 0.000000 1.830130 0.000000 
#    z 0.000000 0.000000 1.682710 
# 
# From -- ./inp_files/19120.got.cif
#   From: 2010.05.17/outbox.cif.g08.bks.cpg/sg42_10_cif.got.tgz:19120.got - 2010.06.03 19:03:34.
