data_PCOD9368717
_publ_section_title
;
Structure prediction by ZEFSAII (Michael W. Deem and Ramdas Pophale) SiO2 
 PCOD9368717
Probable space group: F M M 2
;
_chemical_formula_sum "Si O2"
_cell_formula_units_Z 96
_cell_length_a 22.379624
_cell_length_b 25.441816
_cell_length_c 7.653722
_cell_angle_alpha 90.000000
_cell_angle_beta 90.000000
_cell_angle_gamma 90.000000
_cell_volume 4357.863037
_symmetry_space_group_name_H-M "F M M 2"
_symmetry_group_IT_number 42
_symmetry_cell_setting 'orthorhombic'
loop_
_space_group_symop_operation_xyz
x,y,z
-x,-y,z
-x,y,z
x,-y,z
x,1/2+y,1/2+z
-x,1/2-y,1/2+z
-x,1/2+y,1/2+z
x,1/2-y,1/2+z
1/2+x,y,1/2+z
1/2-x,-y,1/2+z
1/2-x,y,1/2+z
1/2+x,-y,1/2+z
1/2+x,1/2+y,z
1/2-x,1/2-y,z
1/2-x,1/2+y,z
1/2+x,1/2-y,z
loop_
_atom_site_type_symbol
_atom_site_label
_atom_site_fract_x
_atom_site_fract_y
_atom_site_fract_z
Si Si1 0.368017 0.349188 0.375000
Si Si2 0.380135 0.670933 0.788066
Si Si3 0.500000 0.721453 0.715803
Si Si4 0.772602 0.089554 0.528133
Si Si5 0.500000 0.333422 0.334113
Si Si6 0.154403 0.943613 0.854542
Si Si7 0.791059 0.199099 0.085691
O O1 0.327374 0.195157 0.404285
O O2 0.320982 0.397386 0.377138
O O3 0.436036 0.362035 0.320651
O O4 0.370808 0.330099 0.577556
O O5 0.440718 0.702505 0.814207
O O6 0.383694 0.610091 0.854141
O O7 0.338842 0.807445 0.742201
O O8 0.500000 0.693282 0.527403
O O9 0.500000 0.783959 0.705076
O O10 0.811336 0.059995 0.670062
O O11 0.711366 0.061552 0.481017
O O12 0.750521 0.147344 0.589206
O O13 0.124013 0.000000 0.876454
O O14 0.750000 0.250000 0.094667
#
# Coordination Sequence:
#
# PCOD9368717 Si02
#       7
#    16  16   8  16   8  16  16
#     4  10  22  41  57  84 123 160 209 254 296 356
#     4   9  23  41  60  86 126 155 210 264 298 367
#     4  10  22  42  57  86 117 161 214 253 294 351
#     4  10  20  38  54  88 125 147 199 252 301 373
#     4  10  24  38  62  82 113 171 217 241 290 363
#     4  10  19  36  61  86 114 156 195 252 322 368
#     4  11  24  37  60  89 125 168 199 244 311 373
#
# _framework density 22.029147999999999
#
# number of rings (size 3 to 8) (size 9 to 14) (size 15 to 20)
#    0.000    2.000    1.667    0.500    4.667    4.000 
#    0.000    0.417    0.000    0.000    0.000    1.750 
#    0.000    0.000    0.000    0.000    0.000    0.000 
#
# Total GULP energy -134038.344817 kJ/mol
# GULP energy per Si atom -5584.931034 kJ/mol
# Density = 2.197901 g / cm^3
# Si number density = 22.029148 Si / 1000 Ang^3
#
#
#
# Elastic Constant Matrix: (Units=GPa)
#
#
# Indices 1 2 3 4 5 6 
#
# 1 97.1099 5.5237 28.7024 -0.0005 0.0031 0.0010
# 2 5.5237 85.5636 17.9823 -0.0009 0.0035 0.0000
# 3 28.7024 17.9823 61.7744 -0.0009 0.0161 0.0047
# 4 -0.0005 -0.0009 -0.0009 2.5755 -0.0007 -0.0012
# 5 0.0031 0.0035 0.0161 -0.0007 15.2751 -0.0044
# 6 0.0010 0.0000 0.0047 -0.0012 -0.0044 13.6272
#
#
#
# Elastic Compliance Matrix: (Units=1/GPa)
#
#
# Indices 1 2 3 4 5 6 
#
# 1 0.011951 0.000421 -0.005676 0.000001 0.000003 0.000001
# 2 0.000421 0.012464 -0.003824 0.000003 0.000001 0.000001
# 3 -0.005676 -0.003824 0.019938 0.000004 -0.000019 -0.000006
# 4 0.000001 0.000003 0.000004 0.388277 0.000017 0.000035
# 5 0.000003 0.000001 -0.000019 0.000017 0.065466 0.000021
# 6 0.000001 0.000001 -0.000006 0.000035 0.000021 0.073383
#
#
# Mechanical properties :
#
#
# Convention : Reuss Voigt Hill
#
# Bulk Modulus (GPa) = 38.17280 38.76272 38.46776
# Shear Modulus (GPa) = 8.35608 19.11152 13.73380
#
# Velocity S-wave (km/s) = 1.94972 2.94863 2.49958
# Velocity P-wave (km/s) = 4.73651 5.40618 5.08239
#
# Compressibility (1/GPa) = 0.02619666
#
# Stress axis : x y z
#
# Youngs Moduli (GPa) = 83.67396 80.23329 50.15525
#
# Poissons Ratio (x) = -0.03380 0.28466
# Poissons Ratio (y) = -0.03525 0.19179
# Poissons Ratio (z) = 0.47489 0.30680
#
# Static dielectric constant tensor:
#      x y z
#    x 1.819600 0.000000 0.000000 
#    y 0.000000 1.842190 0.000000 
#    z 0.000000 0.000000 1.918190 
# 
# From -- ./inp_files/9567.got.cif
#   From: 2010.05.17/outbox.cif.g08.bks.cpg/sg42_5_cif.got.tgz:9567.got - 2010.06.03 19:03:34.
