data_PCOD9368892
_publ_section_title
;
Structure prediction by ZEFSAII (Michael W. Deem and Ramdas Pophale) SiO2 
 PCOD9368892
Probable space group: F M M 2
;
_chemical_formula_sum "Si O2"
_cell_formula_units_Z 116
_cell_length_a 31.190025
_cell_length_b 7.954081
_cell_length_c 25.523245
_cell_angle_alpha 90.000000
_cell_angle_beta 90.000000
_cell_angle_gamma 90.000000
_cell_volume 6332.010429
_symmetry_space_group_name_H-M "F M M 2"
_symmetry_group_IT_number 42
_symmetry_cell_setting 'orthorhombic'
loop_
_space_group_symop_operation_xyz
x,y,z
-x,-y,z
-x,y,z
x,-y,z
x,1/2+y,1/2+z
-x,1/2-y,1/2+z
-x,1/2+y,1/2+z
x,1/2-y,1/2+z
1/2+x,y,1/2+z
1/2-x,-y,1/2+z
1/2-x,y,1/2+z
1/2+x,-y,1/2+z
1/2+x,1/2+y,z
1/2-x,1/2-y,z
1/2-x,1/2+y,z
1/2+x,1/2-y,z
loop_
_atom_site_type_symbol
_atom_site_label
_atom_site_fract_x
_atom_site_fract_y
_atom_site_fract_z
Si Si1 0.000000 0.500000 0.167935
Si Si2 0.061318 0.693349 0.637552
Si Si3 0.701664 0.799336 0.888873
Si Si4 0.652685 0.306741 0.668741
Si Si5 0.638564 0.701726 0.980403
Si Si6 0.297784 0.799187 0.570651
Si Si7 0.547311 0.201594 0.512998
Si Si8 0.798437 0.298849 0.769494
O O1 0.963238 0.652641 0.165083
O O2 0.047178 0.500000 0.648275
O O3 0.111312 0.701956 0.651847
O O4 0.054593 0.723504 0.575266
O O5 0.750000 0.750000 0.905542
O O6 0.665325 0.737687 0.928270
O O7 0.695100 0.736879 0.829209
O O8 0.700114 0.000000 0.887980
O O9 0.640996 0.500000 0.663321
O O10 0.690599 0.267678 0.627911
O O11 0.668795 0.270858 0.727092
O O12 0.635893 0.500000 0.986218
O O13 0.667062 0.765547 0.029168
O O14 0.589793 0.767290 0.983876
O O15 0.250000 0.750000 0.554557
O O16 0.300410 0.000000 0.571992
O O17 0.500000 0.270564 0.499472
O O18 0.545569 0.000000 0.504081
O O19 0.801745 0.500000 0.769399
O O20 0.750000 0.250000 0.754457
#
# Coordination Sequence:
#
# PCOD9368892 Si02
#       8
#     4  16  16  16  16  16  16  16
#     4  12  22  36  56  90 112 156 202 236 292 354
#     4  11  21  37  57  82 120 154 191 244 290 346
#     4  10  21  37  57  81 108 144 189 236 288 343
#     4  12  23  36  55  84 114 148 194 237 286 352
#     4  10  20  34  54  80 111 145 187 231 284 344
#     4  11  22  35  50  75 113 157 190 225 283 346
#     4   9  17  33  56  80 109 150 188 229 286 342
#     4  10  21  38  58  80 109 146 190 240 292 342
#
# _framework density 18.319617000000001
#
# number of rings (size 3 to 8) (size 9 to 14) (size 15 to 20)
#    0.000    1.517    2.759    3.517    0.000    3.862 
#    1.241    0.000    0.000    0.000    1.793    0.000 
#    0.000    0.000    0.000    0.000    0.000    0.000 
#
# Total GULP energy -161605.390798 kJ/mol
# GULP energy per Si atom -5572.599683 kJ/mol
# Density = 1.827792 g / cm^3
# Si number density = 18.319617 Si / 1000 Ang^3
#
#
#
# Elastic Constant Matrix: (Units=GPa)
#
#
# Indices 1 2 3 4 5 6 
#
# 1 158.1689 16.7892 55.8270 0.0000 0.0000 -0.0002
# 2 16.7892 69.0292 7.2568 -0.0001 -0.0001 -0.0006
# 3 55.8270 7.2568 65.0562 0.0000 0.0000 -0.0001
# 4 0.0000 -0.0001 0.0000 15.0296 0.0000 -0.0001
# 5 0.0000 -0.0001 0.0000 0.0000 -0.2046 0.0001
# 6 -0.0002 -0.0006 -0.0001 -0.0001 0.0001 12.8848
#
#
#
# Elastic Compliance Matrix: (Units=1/GPa)
#
#
# Indices 1 2 3 4 5 6 
#
# 1 0.009206 -0.001425 -0.007741 0.000000 0.000000 0.000000
# 2 -0.001425 0.014879 -0.000437 0.000000 -0.000008 0.000001
# 3 -0.007741 -0.000437 0.022063 0.000000 -0.000001 0.000000
# 4 0.000000 0.000000 0.000000 0.066535 0.000006 0.000001
# 5 0.000000 -0.000008 -0.000001 0.000006 -4.888557 0.000048
# 6 0.000000 0.000001 0.000000 0.000001 0.000048 0.077611
#
#
# Mechanical properties :
#
#
# Convention : Reuss Voigt Hill
#
# Bulk Modulus (GPa) = 37.11653 50.22226 43.66940
# Shear Modulus (GPa) = -1.07065 19.70071 9.31503
#
# Velocity S-wave (km/s) = -0.76531 3.28287 2.25738
# Velocity P-wave (km/s) = 4.41855 6.46867 5.53928
#
# Compressibility (1/GPa) = 0.02694218
#
# Stress axis : x y z
#
# Youngs Moduli (GPa) = 108.62649 67.20804 45.32522
#
# Poissons Ratio (x) = 0.09579 0.35086
# Poissons Ratio (y) = 0.15482 0.01979
# Poissons Ratio (z) = 0.84087 0.02935
#
# Static dielectric constant tensor:
#      x y z
#    x 1.657300 0.000000 0.000000 
#    y 0.000000 1.661910 0.000000 
#    z 0.000000 0.000000 1.617530 
# 
# From -- ./inp_files/30894.got.cif
#   From: 2010.05.17/outbox.cif.g08.bks.cpg/sg42_16_cif.got.tgz:30894.got - 2010.06.03 19:03:34.
