data_PCOD9368165
_publ_section_title
;
Structure prediction by ZEFSAII (Michael W. Deem and Ramdas Pophale) SiO2 
 PCOD9368165
Probable space group: F M M 2
;
_chemical_formula_sum "Si O2"
_cell_formula_units_Z 96
_cell_length_a 14.744057
_cell_length_b 22.644894
_cell_length_c 14.767139
_cell_angle_alpha 90.000000
_cell_angle_beta 90.000000
_cell_angle_gamma 90.000000
_cell_volume 4930.417045
_symmetry_space_group_name_H-M "F M M 2"
_symmetry_group_IT_number 42
_symmetry_cell_setting 'orthorhombic'
loop_
_space_group_symop_operation_xyz
x,y,z
-x,-y,z
-x,y,z
x,-y,z
x,1/2+y,1/2+z
-x,1/2-y,1/2+z
-x,1/2+y,1/2+z
x,1/2-y,1/2+z
1/2+x,y,1/2+z
1/2-x,-y,1/2+z
1/2-x,y,1/2+z
1/2+x,-y,1/2+z
1/2+x,1/2+y,z
1/2-x,1/2-y,z
1/2-x,1/2+y,z
1/2+x,1/2-y,z
loop_
_atom_site_type_symbol
_atom_site_label
_atom_site_fract_x
_atom_site_fract_y
_atom_site_fract_z
Si Si1 0.601763 0.789191 0.760210
Si Si2 0.605285 0.876898 0.051995
Si Si3 0.896488 0.500000 0.088614
Si Si4 0.102302 0.324363 0.379414
Si Si5 0.712881 0.882896 0.866674
Si Si6 0.857946 0.244331 0.066194
Si Si7 0.607424 0.500000 0.366695
O O1 0.500000 0.807561 0.788576
O O2 0.614571 0.723148 0.798718
O O3 0.675365 0.830375 0.805666
O O4 0.611507 0.792607 0.652805
O O5 0.500000 0.889731 0.025790
O O6 0.637681 0.933617 0.111188
O O7 0.605666 0.810210 0.086229
O O8 0.670575 0.873502 0.966003
O O9 0.000000 0.500000 0.120887
O O10 0.891111 0.500000 0.977706
O O11 0.179462 0.374153 0.373646
O O12 0.112214 0.285498 0.471957
O O13 0.000000 0.347771 0.375132
O O14 0.664991 0.943266 0.835592
O O15 0.750000 0.250000 0.063681
O O16 0.500000 0.500000 0.341433
#
# Coordination Sequence:
#
# PCOD9368165 Si02
#       7
#    16  16   8  16  16  16   8
#     4  11  22  35  56  85 118 152 192 241 298 351
#     4  10  17  30  52  79 111 140 177 230 288 341
#     4   7  14  26  46  76 104 135 171 220 281 330
#     4  11  22  37  54  80 117 157 195 236 286 348
#     4  11  19  36  56  84 113 149 186 243 296 343
#     4  12  21  34  54  82 118 159 196 236 290 348
#     4   9  18  32  59  88 110 141 190 242 296 346
#
# _framework density 19.470970000000001
#
# number of rings (size 3 to 8) (size 9 to 14) (size 15 to 20)
#    0.000    1.500    3.333    5.500    0.000    0.000 
#    0.000    0.417    0.000    5.000    0.000    3.500 
#    0.000    0.000    0.000    0.000    0.000    0.000 
#
# Total GULP energy -133766.931359 kJ/mol
# GULP energy per Si atom -5573.622140 kJ/mol
# Density = 1.942665 g / cm^3
# Si number density = 19.470970 Si / 1000 Ang^3
#
#
#
# Elastic Constant Matrix: (Units=GPa)
#
#
# Indices 1 2 3 4 5 6 
#
# 1 159.1942 52.8969 7.6066 0.0000 0.0000 0.0000
# 2 52.8969 85.6632 -4.3181 0.0000 0.0000 0.0000
# 3 7.6066 -4.3181 42.5534 0.0000 0.0000 0.0000
# 4 0.0000 0.0000 0.0000 5.9319 0.0000 0.0000
# 5 0.0000 0.0000 0.0000 0.0000 -0.0827 0.0000
# 6 0.0000 0.0000 0.0000 0.0000 0.0000 23.9355
#
#
#
# Elastic Compliance Matrix: (Units=1/GPa)
#
#
# Indices 1 2 3 4 5 6 
#
# 1 0.008062 -0.005077 -0.001956 0.000000 0.000000 0.000000
# 2 -0.005077 0.014931 0.002423 0.000000 0.000000 0.000000
# 3 -0.001956 0.002423 0.024095 0.000000 0.000000 0.000000
# 4 0.000000 0.000000 0.000000 0.168580 0.000000 0.000000
# 5 0.000000 0.000000 0.000000 0.000000-12.097328 0.000000
# 6 0.000000 0.000000 0.000000 0.000000 0.000000 0.041779
#
#
# Mechanical properties :
#
#
# Convention : Reuss Voigt Hill
#
# Bulk Modulus (GPa) = 26.40823 44.42017 35.41420
# Shear Modulus (GPa) = -0.42308 21.37197 10.47444
#
# Velocity S-wave (km/s) = -0.46665 3.31665 2.32190
# Velocity P-wave (km/s) = 3.64719 6.12617 5.04142
#
# Compressibility (1/GPa) = 0.03786698
#
# Stress axis : x y z
#
# Youngs Moduli (GPa) = 124.03764 66.97591 41.50170
#
# Poissons Ratio (x) = 0.34003 0.08119
# Poissons Ratio (y) = 0.62973 -0.10054
# Poissons Ratio (z) = 0.24266 -0.16226
#
# Static dielectric constant tensor:
#      x y z
#    x 1.717100 0.000000 0.000000 
#    y 0.000000 1.770240 0.000000 
#    z 0.000000 0.000000 1.668220 
# 
# From -- ./inp_files/14059.got.cif
#   From: 2010.05.17/outbox.cif.g08.bks.cpg/sg42_8_cif.got.tgz:14059.got - 2010.06.03 19:03:34.
