data_PCOD9368170
_publ_section_title
;
Structure prediction by ZEFSAII (Michael W. Deem and Ramdas Pophale) SiO2 
 PCOD9368170
Probable space group: F M M 2
;
_chemical_formula_sum "Si O2"
_cell_formula_units_Z 116
_cell_length_a 31.300505
_cell_length_b 7.540496
_cell_length_c 25.947944
_cell_angle_alpha 90.000000
_cell_angle_beta 90.000000
_cell_angle_gamma 90.000000
_cell_volume 6124.268325
_symmetry_space_group_name_H-M "F M M 2"
_symmetry_group_IT_number 42
_symmetry_cell_setting 'orthorhombic'
loop_
_space_group_symop_operation_xyz
x,y,z
-x,-y,z
-x,y,z
x,-y,z
x,1/2+y,1/2+z
-x,1/2-y,1/2+z
-x,1/2+y,1/2+z
x,1/2-y,1/2+z
1/2+x,y,1/2+z
1/2-x,-y,1/2+z
1/2-x,y,1/2+z
1/2+x,-y,1/2+z
1/2+x,1/2+y,z
1/2-x,1/2-y,z
1/2-x,1/2+y,z
1/2+x,1/2-y,z
loop_
_atom_site_type_symbol
_atom_site_label
_atom_site_fract_x
_atom_site_fract_y
_atom_site_fract_z
Si Si1 0.700436 0.212854 0.449780
Si Si2 0.861135 0.782585 0.040933
Si Si3 0.952410 0.785093 0.077577
Si Si4 0.702325 0.209577 0.629298
Si Si5 0.000000 0.500000 0.733066
Si Si6 0.159393 0.791866 0.731346
Si Si7 0.200559 0.213097 0.833776
Si Si8 0.066132 0.709203 0.197293
O O1 0.750000 0.250000 0.463636
O O2 0.665966 0.276562 0.491330
O O3 0.692364 0.280929 0.391705
O O4 0.696781 0.000000 0.448597
O O5 0.910526 0.726522 0.045955
O O6 0.834111 0.721239 0.090798
O O7 0.861136 0.000000 0.040894
O O8 0.945384 0.730875 0.136964
O O9 0.000000 0.725836 0.061025
O O10 0.952756 0.000000 0.076852
O O11 0.750000 0.250000 0.610639
O O12 0.695027 0.272576 0.687408
O O13 0.697501 0.000000 0.630273
O O14 0.036587 0.343039 0.728416
O O15 0.172799 0.714749 0.786437
O O16 0.114852 0.731282 0.707161
O O17 0.153698 0.000000 0.740029
O O18 0.250000 0.250000 0.822063
O O19 0.195336 0.000000 0.835863
O O20 0.060837 0.500000 0.210239
#
# Coordination Sequence:
#
# PCOD9368170 Si02
#       8
#    16  16  16  16   4  16  16  16
#     4   9  17  32  52  72  99 134 175 220 267 318
#     4   9  18  30  48  73 101 135 172 213 268 323
#     4  10  17  31  51  74 103 136 175 222 269 322
#     4  11  21  31  46  67 105 142 173 208 258 322
#     4  12  22  36  56  78 112 144 186 224 272 326
#     4  10  21  34  49  74 104 136 177 217 264 324
#     4   9  18  33  51  73 100 134 177 227 267 311
#     4  11  21  34  54  79 110 144 180 224 274 328
#
# _framework density 18.941039
#
# number of rings (size 3 to 8) (size 9 to 14) (size 15 to 20)
#    0.000    2.069    2.759    1.448    0.966    1.655 
#    0.000    1.379    0.000    0.000    1.793    0.000 
#    0.000    0.000    0.000    0.276    0.000    0.276 
#
# Total GULP energy -161491.836833 kJ/mol
# GULP energy per Si atom -5568.684029 kJ/mol
# Density = 1.889793 g / cm^3
# Si number density = 18.941039 Si / 1000 Ang^3
#
#
#
# Elastic Constant Matrix: (Units=GPa)
#
#
# Indices 1 2 3 4 5 6 
#
# 1 155.9157 7.2859 67.7392 0.0000 0.0000 -0.0001
# 2 7.2859 61.5886 2.7346 0.0002 -0.0001 -0.0001
# 3 67.7392 2.7346 92.9898 0.0000 0.0000 0.0001
# 4 0.0000 0.0002 0.0000 9.5214 0.0000 0.0000
# 5 0.0000 -0.0001 0.0000 0.0000 6.6482 0.0001
# 6 -0.0001 -0.0001 0.0001 0.0000 0.0001 21.8654
#
#
#
# Elastic Compliance Matrix: (Units=1/GPa)
#
#
# Indices 1 2 3 4 5 6 
#
# 1 0.009424 -0.000811 -0.006841 0.000000 0.000000 0.000000
# 2 -0.000811 0.016328 0.000111 0.000000 0.000000 0.000000
# 3 -0.006841 0.000111 0.015734 0.000000 0.000000 0.000000
# 4 0.000000 0.000000 0.000000 0.105027 0.000001 0.000000
# 5 0.000000 0.000000 0.000000 0.000001 0.150417 -0.000001
# 6 0.000000 0.000000 0.000000 0.000000 -0.000001 0.045734
#
#
# Mechanical properties :
#
#
# Convention : Reuss Voigt Hill
#
# Bulk Modulus (GPa) = 37.87475 51.77927 44.82701
# Shear Modulus (GPa) = 13.64081 23.12262 18.38172
#
# Velocity S-wave (km/s) = 2.68651 3.49774 3.11862
# Velocity P-wave (km/s) = 5.44635 6.61125 6.05687
#
# Compressibility (1/GPa) = 0.02640282
#
# Stress axis : x y z
#
# Youngs Moduli (GPa) = 106.11484 61.24520 63.55673
#
# Poissons Ratio (x) = 0.04967 0.43479
# Poissons Ratio (y) = 0.08607 -0.00703
# Poissons Ratio (z) = 0.72593 -0.00678
#
# Static dielectric constant tensor:
#      x y z
#    x 1.677000 0.000000 0.000000 
#    y 0.000000 1.708640 0.000000 
#    z 0.000000 0.000000 1.664560 
# 
# From -- ./inp_files/33489.got.cif
#   From: 2010.05.17/outbox.cif.g08.bks.cpg/sg42_17_cif.got.tgz:33489.got - 2010.06.03 19:03:34.
