data_PCOD9368595
_publ_section_title
;
Structure prediction by ZEFSAII (Michael W. Deem and Ramdas Pophale) SiO2 
 PCOD9368595
Probable space group: F M M 2
;
_chemical_formula_sum "Si O2"
_cell_formula_units_Z 96
_cell_length_a 29.090541
_cell_length_b 8.462879
_cell_length_c 21.185303
_cell_angle_alpha 90.000000
_cell_angle_beta 90.000000
_cell_angle_gamma 90.000000
_cell_volume 5215.603994
_symmetry_space_group_name_H-M "F M M 2"
_symmetry_group_IT_number 42
_symmetry_cell_setting 'orthorhombic'
loop_
_space_group_symop_operation_xyz
x,y,z
-x,-y,z
-x,y,z
x,-y,z
x,1/2+y,1/2+z
-x,1/2-y,1/2+z
-x,1/2+y,1/2+z
x,1/2-y,1/2+z
1/2+x,y,1/2+z
1/2-x,-y,1/2+z
1/2-x,y,1/2+z
1/2+x,-y,1/2+z
1/2+x,1/2+y,z
1/2-x,1/2-y,z
1/2-x,1/2+y,z
1/2+x,1/2-y,z
loop_
_atom_site_type_symbol
_atom_site_label
_atom_site_fract_x
_atom_site_fract_y
_atom_site_fract_z
Si Si1 0.392343 0.191314 0.785080
Si Si2 0.052679 0.192665 0.160460
Si Si3 0.199739 0.312139 0.232808
Si Si4 0.605061 0.691121 0.033455
Si Si5 0.699754 0.810597 0.590249
Si Si6 0.946932 0.690783 0.909950
O O1 0.419740 0.243359 0.722385
O O2 0.340796 0.254131 0.778091
O O3 0.419812 0.243132 0.847195
O O4 0.390856 0.000000 0.784972
O O5 0.077218 0.241882 0.095969
O O6 0.000000 0.244986 0.162457
O O7 0.052809 0.000000 0.160904
O O8 0.200706 0.500000 0.230012
O O9 0.250000 0.250000 0.251665
O O10 0.190740 0.247556 0.161826
O O11 0.603913 0.500000 0.030848
O O12 0.657923 0.739911 0.045259
O O13 0.580683 0.755939 0.971554
O O14 0.750000 0.750000 0.571258
O O15 0.700501 0.000000 0.592306
O O16 0.948174 0.500000 0.908622
O O17 0.000000 0.746587 0.910891
#
# Coordination Sequence:
#
# PCOD9368595 Si02
#       6
#    16  16  16  16  16  16
#     4  10  19  36  57  80 111 147 190 231 273 329
#     4   9  16  29  53  80 104 137 185 233 273 321
#     4  11  21  34  56  85 115 146 181 227 283 334
#     4  10  20  35  56  81 111 148 189 230 276 332
#     4  10  19  34  56  84 113 146 185 228 280 334
#     4  10  22  38  57  82 114 152 188 229 281 332
#
# _framework density 18.406306000000001
#
# number of rings (size 3 to 8) (size 9 to 14) (size 15 to 20)
#    0.000    2.000    1.667    4.000    0.000    5.000 
#    0.000    0.833    0.000    3.500    0.000    0.000 
#    0.000    0.000    0.000    0.000    0.000    0.000 
#
# Total GULP energy -133994.750490 kJ/mol
# GULP energy per Si atom -5583.114604 kJ/mol
# Density = 1.836441 g / cm^3
# Si number density = 18.406306 Si / 1000 Ang^3
#
#
#
# Elastic Constant Matrix: (Units=GPa)
#
#
# Indices 1 2 3 4 5 6 
#
# 1 200.5484 34.3675 103.5004 0.0000 0.0000 0.0000
# 2 34.3675 34.4251 24.5020 0.0000 0.0000 0.0000
# 3 103.5004 24.5020 150.8560 0.0000 0.0000 0.0000
# 4 0.0000 0.0000 0.0000 24.8444 0.0000 0.0000
# 5 0.0000 0.0000 0.0000 0.0000 32.9225 0.0000
# 6 0.0000 0.0000 0.0000 0.0000 0.0000 19.4940
#
#
#
# Elastic Compliance Matrix: (Units=1/GPa)
#
#
# Indices 1 2 3 4 5 6 
#
# 1 0.008374 -0.004829 -0.004961 0.000000 0.000000 0.000000
# 2 -0.004829 0.035630 -0.002474 0.000000 0.000000 0.000000
# 3 -0.004961 -0.002474 0.010434 0.000000 0.000000 0.000000
# 4 0.000000 0.000000 0.000000 0.040251 0.000000 0.000000
# 5 0.000000 0.000000 0.000000 0.000000 0.030374 0.000000
# 6 0.000000 0.000000 0.000000 0.000000 0.000000 0.051298
#
#
# Mechanical properties :
#
#
# Convention : Reuss Voigt Hill
#
# Bulk Modulus (GPa) = 33.43271 78.95214 56.19242
# Shear Modulus (GPa) = 23.71235 30.34947 27.03091
#
# Velocity S-wave (km/s) = 3.59315 4.06502 3.83635
# Velocity P-wave (km/s) = 5.95125 8.06348 7.08651
#
# Compressibility (1/GPa) = 0.02991083
#
# Stress axis : x y z
#
# Youngs Moduli (GPa) = 119.41347 28.06587 95.83688
#
# Poissons Ratio (x) = 0.13554 0.47546
# Poissons Ratio (y) = 0.57667 0.23708
# Poissons Ratio (z) = 0.59242 0.06943
#
# Static dielectric constant tensor:
#      x y z
#    x 1.639750 0.000000 0.000000 
#    y 0.000000 1.636200 0.000000 
#    z 0.000000 0.000000 1.602280 
# 
# From -- ./inp_files/23692.got.cif
#   From: 2010.05.17/outbox.cif.g08.bks.cpg/sg42_12_cif.got.tgz:23692.got - 2010.06.03 19:03:34.
