data_PCOD9368290
_publ_section_title
;
Structure prediction by ZEFSAII (Michael W. Deem and Ramdas Pophale) SiO2 
 PCOD9368290
Probable space group: F M M 2
;
_chemical_formula_sum "Si O2"
_cell_formula_units_Z 96
_cell_length_a 15.858856
_cell_length_b 14.775747
_cell_length_c 18.350784
_cell_angle_alpha 90.000000
_cell_angle_beta 90.000000
_cell_angle_gamma 90.000000
_cell_volume 4300.073959
_symmetry_space_group_name_H-M "F M M 2"
_symmetry_group_IT_number 42
_symmetry_cell_setting 'orthorhombic'
loop_
_space_group_symop_operation_xyz
x,y,z
-x,-y,z
-x,y,z
x,-y,z
x,1/2+y,1/2+z
-x,1/2-y,1/2+z
-x,1/2+y,1/2+z
x,1/2-y,1/2+z
1/2+x,y,1/2+z
1/2-x,-y,1/2+z
1/2-x,y,1/2+z
1/2+x,-y,1/2+z
1/2+x,1/2+y,z
1/2-x,1/2-y,z
1/2-x,1/2+y,z
1/2+x,1/2-y,z
loop_
_atom_site_type_symbol
_atom_site_label
_atom_site_fract_x
_atom_site_fract_y
_atom_site_fract_z
Si Si1 0.845402 0.717817 0.396250
Si Si2 0.594784 0.355859 0.042412
Si Si3 0.100594 0.298314 0.240515
Si Si4 0.330569 0.683357 0.593583
Si Si5 0.096966 0.901577 0.461874
Si Si6 0.102667 0.595870 0.698938
O O1 0.750000 0.750000 0.391092
O O2 0.858484 0.652678 0.465782
O O3 0.876118 0.673814 0.321778
O O4 0.894339 0.812406 0.412148
O O5 0.500000 0.387968 0.029229
O O6 0.594211 0.252802 0.072400
O O7 0.630822 0.404188 0.113984
O O8 0.151341 0.346860 0.175504
O O9 0.127214 0.191485 0.233672
O O10 0.000000 0.305819 0.229762
O O11 0.250000 0.750000 0.588180
O O12 0.338953 0.611345 0.529593
O O13 0.000000 0.903368 0.487834
O O14 0.112487 0.000000 0.426505
O O15 0.129136 0.500000 0.732697
O O16 0.000000 0.597316 0.697886
#
# Coordination Sequence:
#
# PCOD9368290 Si02
#       6
#    16  16  16  16  16  16
#     4  11  21  34  50  74 106 137 173 218 267 316
#     4   9  16  29  49  70  95 131 171 207 247 305
#     4  10  19  32  52  74  99 136 178 219 261 313
#     4  10  18  32  51  76 105 134 170 213 260 310
#     4  10  20  35  57  82 107 139 179 221 265 315
#     4   8  15  28  48  74  98 122 160 211 260 300
#
# _framework density 22.325196999999999
#
# number of rings (size 3 to 8) (size 9 to 14) (size 15 to 20)
#    0.000    2.333    0.000    7.500    0.000    0.667 
#    0.000    9.167    0.000    4.000    0.000    2.333 
#    0.000    0.000    0.000    0.000    0.000    0.000 
#
# Total GULP energy -133751.730395 kJ/mol
# GULP energy per Si atom -5572.988766 kJ/mol
# Density = 2.227438 g / cm^3
# Si number density = 22.325197 Si / 1000 Ang^3
#
#
#
# Elastic Constant Matrix: (Units=GPa)
#
#
# Indices 1 2 3 4 5 6 
#
# 1 90.0932 -11.4241 15.8418 0.0000 0.0000 0.0000
# 2 -11.4241 32.4801 -23.3875 0.0000 0.0000 0.0000
# 3 15.8418 -23.3875 120.6074 0.0000 0.0000 0.0000
# 4 0.0000 0.0000 0.0000 8.6646 0.0000 0.0000
# 5 0.0000 0.0000 0.0000 0.0000 26.1701 0.0000
# 6 0.0000 0.0000 0.0000 0.0000 0.0000 2.5277
#
#
#
# Elastic Compliance Matrix: (Units=1/GPa)
#
#
# Indices 1 2 3 4 5 6 
#
# 1 0.011694 0.003495 -0.000858 0.000000 0.000000 0.000000
# 2 0.003495 0.036829 0.006683 0.000000 0.000000 0.000000
# 3 -0.000858 0.006683 0.009700 0.000000 0.000000 0.000000
# 4 0.000000 0.000000 0.000000 0.115412 0.000000 0.000000
# 5 0.000000 0.000000 0.000000 0.000000 0.038212 0.000000
# 6 0.000000 0.000000 0.000000 0.000000 0.000000 0.395610
#
#
# Mechanical properties :
#
#
# Convention : Reuss Voigt Hill
#
# Bulk Modulus (GPa) = 13.01036 22.80456 17.90746
# Shear Modulus (GPa) = 8.13751 24.94920 16.54335
#
# Velocity S-wave (km/s) = 1.91126 3.34658 2.72512
# Velocity P-wave (km/s) = 3.27274 5.01694 4.23560
#
# Compressibility (1/GPa) = 0.07686182
#
# Stress axis : x y z
#
# Youngs Moduli (GPa) = 85.51611 27.15231 103.09316
#
# Poissons Ratio (x) = -0.09490 0.08848
# Poissons Ratio (y) = -0.29888 -0.68894
# Poissons Ratio (z) = 0.07339 -0.18145
#
# Static dielectric constant tensor:
#      x y z
#    x 1.898960 0.000000 0.000000 
#    y 0.000000 1.866070 0.000000 
#    z 0.000000 0.000000 1.869210 
# 
# From -- ./inp_files/20805.got.cif
#   From: 2010.05.17/outbox.cif.g08.bks.cpg/sg42_11_cif.got.tgz:20805.got - 2010.06.03 19:03:34.
