data_PCOD9368782
_publ_section_title
;
Structure prediction by ZEFSAII (Michael W. Deem and Ramdas Pophale) SiO2 
 PCOD9368782
Probable space group: F M M 2
;
_chemical_formula_sum "Si O2"
_cell_formula_units_Z 116
_cell_length_a 31.018304
_cell_length_b 7.836966
_cell_length_c 26.174157
_cell_angle_alpha 90.000000
_cell_angle_beta 90.000000
_cell_angle_gamma 90.000000
_cell_volume 6362.659959
_symmetry_space_group_name_H-M "F M M 2"
_symmetry_group_IT_number 42
_symmetry_cell_setting 'orthorhombic'
loop_
_space_group_symop_operation_xyz
x,y,z
-x,-y,z
-x,y,z
x,-y,z
x,1/2+y,1/2+z
-x,1/2-y,1/2+z
-x,1/2+y,1/2+z
x,1/2-y,1/2+z
1/2+x,y,1/2+z
1/2-x,-y,1/2+z
1/2-x,y,1/2+z
1/2+x,-y,1/2+z
1/2+x,1/2+y,z
1/2-x,1/2-y,z
1/2-x,1/2+y,z
1/2+x,1/2-y,z
loop_
_atom_site_type_symbol
_atom_site_label
_atom_site_fract_x
_atom_site_fract_y
_atom_site_fract_z
Si Si1 0.500000 0.500000 0.887685
Si Si2 0.701988 0.704476 0.989031
Si Si3 0.436876 0.200873 0.920570
Si Si4 0.452172 0.703939 0.540163
Si Si5 0.658330 0.291709 0.887488
Si Si6 0.300066 0.201548 0.668340
Si Si7 0.639740 0.294682 0.078015
Si Si8 0.700148 0.797295 0.283909
O O1 0.463141 0.346144 0.890758
O O2 0.698988 0.500000 0.989108
O O3 0.750000 0.750000 0.005900
O O4 0.692234 0.761528 0.931346
O O5 0.665590 0.769586 0.028016
O O6 0.387379 0.220423 0.904933
O O7 0.449490 0.000000 0.914104
O O8 0.443568 0.246630 0.980599
O O9 0.500000 0.771286 0.554147
O O10 0.454044 0.500000 0.542845
O O11 0.410822 0.756580 0.573047
O O12 0.656208 0.500000 0.887279
O O13 0.672486 0.231318 0.831464
O O14 0.250000 0.250000 0.659312
O O15 0.334093 0.272529 0.627244
O O16 0.311899 0.242236 0.726781
O O17 0.301101 0.000000 0.663071
O O18 0.642984 0.500000 0.077997
O O19 0.750000 0.750000 0.291834
O O20 0.697104 0.000000 0.284746
#
# Coordination Sequence:
#
# PCOD9368782 Si02
#       8
#     4  16  16  16  16  16  16  16
#     4  12  22  36  60  78 120 156 182 252 280 330
#     4  10  20  32  48  72 108 147 181 217 273 339
#     4  11  22  35  56  85 113 152 194 230 288 346
#     4  10  21  35  52  81 110 139 184 230 274 339
#     4  10  20  35  53  78 112 149 186 231 285 340
#     4  10  20  35  54  79 107 142 189 234 278 335
#     4  10  21  34  53  77 106 144 184 223 282 342
#     4  10  20  34  55  80 108 147 192 234 282 331
#
# _framework density 18.231368
#
# number of rings (size 3 to 8) (size 9 to 14) (size 15 to 20)
#    0.000    1.793    2.759    2.690    0.966    3.586 
#    0.000    0.000    0.000    0.000    1.793    0.000 
#    0.000    0.000    0.000    0.000    0.000    0.000 
#
# Total GULP energy -161492.191916 kJ/mol
# GULP energy per Si atom -5568.696273 kJ/mol
# Density = 1.818987 g / cm^3
# Si number density = 18.231368 Si / 1000 Ang^3
#
#
#
# Elastic Constant Matrix: (Units=GPa)
#
#
# Indices 1 2 3 4 5 6 
#
# 1 138.2169 8.2793 72.2819 0.0000 0.0001 0.0002
# 2 8.2793 47.4093 13.1731 0.0002 0.0000 0.0003
# 3 72.2819 13.1731 105.4413 0.0000 0.0001 0.0000
# 4 0.0000 0.0002 0.0000 20.5647 0.0001 0.0002
# 5 0.0001 0.0000 0.0001 0.0001 43.8580 -0.0001
# 6 0.0002 0.0003 0.0000 0.0002 -0.0001 25.2992
#
#
#
# Elastic Compliance Matrix: (Units=1/GPa)
#
#
# Indices 1 2 3 4 5 6 
#
# 1 0.011280 0.000185 -0.007756 0.000000 0.000000 0.000000
# 2 0.000185 0.021854 -0.002857 0.000000 0.000000 0.000000
# 3 -0.007756 -0.002857 0.015158 0.000000 0.000000 0.000000
# 4 0.000000 0.000000 0.000000 0.048627 0.000000 0.000000
# 5 0.000000 0.000000 0.000000 0.000000 0.022801 0.000000
# 6 0.000000 0.000000 0.000000 0.000000 0.000000 0.039527
#
#
# Mechanical properties :
#
#
# Convention : Reuss Voigt Hill
#
# Bulk Modulus (GPa) = 36.44806 53.17068 44.80937
# Shear Modulus (GPa) = 26.42040 31.09992 28.76016
#
# Velocity S-wave (km/s) = 3.81093 4.13467 3.97610
# Velocity P-wave (km/s) = 6.27691 7.21261 6.76097
#
# Compressibility (1/GPa) = 0.02743630
#
# Stress axis : x y z
#
# Youngs Moduli (GPa) = 88.65404 45.75718 65.97374
#
# Poissons Ratio (x) = -0.00847 0.51167
# Poissons Ratio (y) = -0.01641 0.18850
# Poissons Ratio (z) = 0.68757 0.13074
#
# Static dielectric constant tensor:
#      x y z
#    x 1.629310 0.000000 0.000000 
#    y 0.000000 1.657510 0.000000 
#    z 0.000000 0.000000 1.651290 
# 
# From -- ./inp_files/30895.got.cif
#   From: 2010.05.17/outbox.cif.g08.bks.cpg/sg42_16_cif.got.tgz:30895.got - 2010.06.03 19:03:34.
