data_PCOD9368570
_publ_section_title
;
Structure prediction by ZEFSAII (Michael W. Deem and Ramdas Pophale) SiO2 
 PCOD9368570
Probable space group: F M M 2
;
_chemical_formula_sum "Si O2"
_cell_formula_units_Z 60
_cell_length_a 11.233701
_cell_length_b 16.240025
_cell_length_c 14.202889
_cell_angle_alpha 90.000000
_cell_angle_beta 90.000000
_cell_angle_gamma 90.000000
_cell_volume 2591.112365
_symmetry_space_group_name_H-M "F M M 2"
_symmetry_group_IT_number 42
_symmetry_cell_setting 'orthorhombic'
loop_
_space_group_symop_operation_xyz
x,y,z
-x,-y,z
-x,y,z
x,-y,z
x,1/2+y,1/2+z
-x,1/2-y,1/2+z
-x,1/2+y,1/2+z
x,1/2-y,1/2+z
1/2+x,y,1/2+z
1/2-x,-y,1/2+z
1/2-x,y,1/2+z
1/2+x,-y,1/2+z
1/2+x,1/2+y,z
1/2-x,1/2-y,z
1/2-x,1/2+y,z
1/2+x,1/2-y,z
loop_
_atom_site_type_symbol
_atom_site_label
_atom_site_fract_x
_atom_site_fract_y
_atom_site_fract_z
Si Si1 0.702669 0.337735 0.152100
Si Si2 0.000000 0.500000 0.351856
Si Si3 0.861032 0.500000 0.876631
Si Si4 0.000000 0.405911 0.529159
Si Si5 0.643140 0.684054 0.372467
Si Si6 0.709836 0.000000 0.206958
O O1 0.750000 0.250000 0.125264
O O2 0.610639 0.362492 0.073532
O O3 0.649855 0.325147 0.257886
O O4 0.795606 0.413505 0.154937
O O5 0.000000 0.580099 0.418116
O O6 0.114348 0.500000 0.288551
O O7 0.821104 0.408461 0.909675
O O8 0.834048 0.500000 0.764389
O O9 0.000000 0.500000 0.893628
O O10 0.000000 0.500000 0.565101
O O11 0.500000 0.700891 0.395517
O O12 0.750000 0.750000 0.394841
#
# Coordination Sequence:
#
# PCOD9368570 Si02
#       6
#    16   4   8   8  16   8
#     4  10  19  33  63  95 116 161 222 273 299 372
#     4  10  24  38  58  88 134 176 194 262 350 380
#     4   8  16  29  50  71 103 155 190 228 287 364
#     4  10  20  39  65  87 118 174 224 240 319 405
#     4   9  16  27  45  77 114 138 184 245 304 342
#     4  10  19  36  55  92 133 161 204 272 322 377
#
# _framework density 23.156078999999998
#
# number of rings (size 3 to 8) (size 9 to 14) (size 15 to 20)
#    0.400    2.133    2.667    0.000    1.867    1.067 
#   14.400    1.333    0.000    0.000   10.400    0.000 
#    0.000    0.000    0.000    0.000    0.000    0.000 
#
# Total GULP energy -83584.159649 kJ/mol
# GULP energy per Si atom -5572.277310 kJ/mol
# Density = 2.310337 g / cm^3
# Si number density = 23.156079 Si / 1000 Ang^3
#
#
#
# Elastic Constant Matrix: (Units=GPa)
#
#
# Indices 1 2 3 4 5 6 
#
# 1 113.2944 103.7774 48.5827 0.0000 0.0000 0.0000
# 2 103.7774 261.6251 39.1292 0.0000 0.0000 0.0000
# 3 48.5827 39.1292 81.7185 0.0000 0.0000 0.0000
# 4 0.0000 0.0000 0.0000 -2.3061 0.0000 0.0000
# 5 0.0000 0.0000 0.0000 0.0000 23.6799 0.0000
# 6 0.0000 0.0000 0.0000 0.0000 0.0000 12.6513
#
#
#
# Elastic Compliance Matrix: (Units=1/GPa)
#
#
# Indices 1 2 3 4 5 6 
#
# 1 0.017324 -0.005743 -0.007550 0.000000 0.000000 0.000000
# 2 -0.005743 0.006021 0.000531 0.000000 0.000000 0.000000
# 3 -0.007550 0.000531 0.016471 0.000000 0.000000 0.000000
# 4 0.000000 0.000000 0.000000 -0.433623 0.000000 0.000000
# 5 0.000000 0.000000 0.000000 0.000000 0.042230 0.000000
# 6 0.000000 0.000000 0.000000 0.000000 0.000000 0.079043
#
#
# Mechanical properties :
#
#
# Convention : Reuss Voigt Hill
#
# Bulk Modulus (GPa) = 69.96076 93.29074 81.62575
# Shear Modulus (GPa) = -20.64015 24.48159 1.92072
#
# Velocity S-wave (km/s) = -2.98879 3.25505 0.91174
# Velocity P-wave (km/s) = 4.28577 7.38258 6.03615
#
# Compressibility (1/GPa) = 0.01429373
#
# Stress axis : x y z
#
# Youngs Moduli (GPa) = 57.72175 166.09115 60.71208
#
# Poissons Ratio (x) = 0.95384 0.45836
# Poissons Ratio (y) = 0.33149 -0.03225
# Poissons Ratio (z) = 0.43579 -0.08824
#
# Static dielectric constant tensor:
#      x y z
#    x 1.821160 0.000000 0.000000 
#    y 0.000000 1.908810 0.000000 
#    z 0.000000 0.000000 1.841260 
# 
# From -- ./inp_files/18629.got.cif
#   From: 2010.05.17/outbox.cif.g08.bks.cpg/sg42_10_cif.got.tgz:18629.got - 2010.06.03 19:03:34.
