data_PCOD9368751
_publ_section_title
;
Structure prediction by ZEFSAII (Michael W. Deem and Ramdas Pophale) SiO2 
 PCOD9368751
Probable space group: F M M 2
;
_chemical_formula_sum "Si O2"
_cell_formula_units_Z 96
_cell_length_a 20.970526
_cell_length_b 14.662170
_cell_length_c 14.677080
_cell_angle_alpha 90.000000
_cell_angle_beta 90.000000
_cell_angle_gamma 90.000000
_cell_volume 4512.811942
_symmetry_space_group_name_H-M "F M M 2"
_symmetry_group_IT_number 42
_symmetry_cell_setting 'orthorhombic'
loop_
_space_group_symop_operation_xyz
x,y,z
-x,-y,z
-x,y,z
x,-y,z
x,1/2+y,1/2+z
-x,1/2-y,1/2+z
-x,1/2+y,1/2+z
x,1/2-y,1/2+z
1/2+x,y,1/2+z
1/2-x,-y,1/2+z
1/2-x,y,1/2+z
1/2+x,-y,1/2+z
1/2+x,1/2+y,z
1/2-x,1/2-y,z
1/2-x,1/2+y,z
1/2+x,1/2-y,z
loop_
_atom_site_type_symbol
_atom_site_label
_atom_site_fract_x
_atom_site_fract_y
_atom_site_fract_z
Si Si1 0.239632 0.641313 0.740860
Si Si2 0.204510 0.160525 0.430849
Si Si3 0.347572 0.402619 0.610985
Si Si4 0.072858 0.772643 0.345705
Si Si5 0.614072 0.696191 0.143053
Si Si6 0.575948 0.899605 0.453911
O O1 0.250000 0.750000 0.752657
O O2 0.229765 0.608159 0.842841
O O3 0.300548 0.598489 0.696117
O O4 0.178687 0.643730 0.674421
O O5 0.250000 0.250000 0.447036
O O6 0.197916 0.106197 0.523174
O O7 0.131236 0.181544 0.399936
O O8 0.383104 0.500000 0.606981
O O9 0.380776 0.303645 0.616998
O O10 0.076495 0.800301 0.239484
O O11 0.088653 0.666833 0.368396
O O12 0.000000 0.790650 0.377888
O O13 0.592168 0.646826 0.050935
O O14 0.500000 0.908449 0.454684
O O15 0.605180 0.000000 0.446170
#
# Coordination Sequence:
#
# PCOD9368751 Si02
#       6
#    16  16  16  16  16  16
#     4   8  18  34  54  80 112 155 202 251 300 362
#     4  10  19  38  62  83 119 164 205 256 311 375
#     4  11  22  35  56  89 125 163 207 253 313 388
#     4  10  21  38  64  91 121 163 204 257 324 382
#     4  10  19  38  61  84 121 164 204 256 320 377
#     4  10  21  37  60  91 121 157 212 265 310 372
#
# _framework density 21.272767000000002
#
# number of rings (size 3 to 8) (size 9 to 14) (size 15 to 20)
#    0.000    2.167    1.667    3.000    0.000    2.000 
#    0.000    2.500    0.000    5.000    0.000    0.000 
#    0.000    0.000    0.000    0.000    0.000    0.000 
#
# Total GULP energy -133610.077263 kJ/mol
# GULP energy per Si atom -5567.086553 kJ/mol
# Density = 2.122435 g / cm^3
# Si number density = 21.272767 Si / 1000 Ang^3
#
#
#
# Elastic Constant Matrix: (Units=GPa)
#
#
# Indices 1 2 3 4 5 6 
#
# 1 46.6669 -2.4982 7.7011 0.0000 0.0000 0.0000
# 2 -2.4982 62.3211 -7.6846 0.0000 0.0000 0.0000
# 3 7.7011 -7.6846 63.3764 0.0000 0.0000 0.0000
# 4 0.0000 0.0000 0.0000 40.2414 0.0000 0.0000
# 5 0.0000 0.0000 0.0000 0.0000 16.4426 0.0000
# 6 0.0000 0.0000 0.0000 0.0000 0.0000 12.1731
#
#
#
# Elastic Compliance Matrix: (Units=1/GPa)
#
#
# Indices 1 2 3 4 5 6 
#
# 1 0.021886 0.000558 -0.002592 0.000000 0.000000 0.000000
# 2 0.000558 0.016304 0.001909 0.000000 0.000000 0.000000
# 3 -0.002592 0.001909 0.016325 0.000000 0.000000 0.000000
# 4 0.000000 0.000000 0.000000 0.024850 0.000000 0.000000
# 5 0.000000 0.000000 0.000000 0.000000 0.060818 0.000000
# 6 0.000000 0.000000 0.000000 0.000000 0.000000 0.082148
#
#
# Mechanical properties :
#
#
# Convention : Reuss Voigt Hill
#
# Bulk Modulus (GPa) = 18.42808 18.60009 18.51409
# Shear Modulus (GPa) = 20.77540 25.42782 23.10161
#
# Velocity S-wave (km/s) = 3.12848 3.46109 3.29898
# Velocity P-wave (km/s) = 4.66170 4.97341 4.82008
#
# Compressibility (1/GPa) = 0.05426500
#
# Stress axis : x y z
#
# Youngs Moduli (GPa) = 45.69122 61.33577 61.25514
#
# Poissons Ratio (x) = -0.03421 0.15876
# Poissons Ratio (y) = -0.02548 -0.11694
# Poissons Ratio (z) = 0.11842 -0.11710
#
# Static dielectric constant tensor:
#      x y z
#    x 1.814020 0.000000 0.000000 
#    y 0.000000 1.658910 0.000000 
#    z 0.000000 0.000000 1.768570 
# 
# From -- ./inp_files/14011.got.cif
#   From: 2010.05.17/outbox.cif.g08.bks.cpg/sg42_8_cif.got.tgz:14011.got - 2010.06.03 19:03:34.
