data_PCOD9368996
_publ_section_title
;
Structure prediction by ZEFSAII (Michael W. Deem and Ramdas Pophale) SiO2 
 PCOD9368996
Probable space group: F M M 2
;
_chemical_formula_sum "Si O2"
_cell_formula_units_Z 96
_cell_length_a 19.628496
_cell_length_b 8.626107
_cell_length_c 30.845313
_cell_angle_alpha 90.000000
_cell_angle_beta 90.000000
_cell_angle_gamma 90.000000
_cell_volume 5222.651492
_symmetry_space_group_name_H-M "F M M 2"
_symmetry_group_IT_number 42
_symmetry_cell_setting 'orthorhombic'
loop_
_space_group_symop_operation_xyz
x,y,z
-x,-y,z
-x,y,z
x,-y,z
x,1/2+y,1/2+z
-x,1/2-y,1/2+z
-x,1/2+y,1/2+z
x,1/2-y,1/2+z
1/2+x,y,1/2+z
1/2-x,-y,1/2+z
1/2-x,y,1/2+z
1/2+x,-y,1/2+z
1/2+x,1/2+y,z
1/2-x,1/2-y,z
1/2-x,1/2+y,z
1/2+x,1/2-y,z
loop_
_atom_site_type_symbol
_atom_site_label
_atom_site_fract_x
_atom_site_fract_y
_atom_site_fract_z
Si Si1 0.175649 0.686418 0.452850
Si Si2 0.824515 0.185857 0.300561
Si Si3 0.921122 0.687763 0.623157
Si Si4 0.175872 0.813290 0.200873
Si Si5 0.675296 0.315008 0.548794
Si Si6 0.921606 0.812771 0.874129
O O1 0.178802 0.500000 0.455416
O O2 0.250000 0.750000 0.439868
O O3 0.160520 0.752851 0.500463
O O4 0.119737 0.732123 0.417384
O O5 0.750000 0.250000 0.312935
O O6 0.837486 0.234943 0.250609
O O7 0.881262 0.248002 0.332976
O O8 0.822766 0.000000 0.302188
O O9 0.918639 0.500000 0.620715
O O10 0.881479 0.735855 0.666866
O O11 0.880367 0.755891 0.582604
O O12 0.000000 0.734743 0.623619
O O13 0.250000 0.750000 0.188038
O O14 0.178870 0.000000 0.200392
O O15 0.678189 0.500000 0.548255
O O16 0.750000 0.250000 0.561061
O O17 0.000000 0.761442 0.875268
O O18 0.920657 0.000000 0.872059
#
# Coordination Sequence:
#
# PCOD9368996 Si02
#       6
#    16  16  16  16  16  16
#     4  10  20  36  58  81 106 140 182 225 270 320
#     4  10  20  35  57  83 110 142 182 226 270 318
#     4  10  21  37  56  79 111 148 181 218 269 324
#     4   9  19  35  56  81 107 140 182 225 268 317
#     4  11  22  37  58  83 110 140 180 226 270 319
#     4  10  22  38  55  79 112 147 181 220 269 323
#
# _framework density 18.381467000000001
#
# number of rings (size 3 to 8) (size 9 to 14) (size 15 to 20)
#    0.000    2.000    0.000    4.500    0.000    7.333 
#    0.000    3.333    0.000    0.000    0.000    0.000 
#    0.000    0.000    0.000    0.000    0.000    0.000 
#
# Total GULP energy -134067.099650 kJ/mol
# GULP energy per Si atom -5586.129152 kJ/mol
# Density = 1.833963 g / cm^3
# Si number density = 18.381467 Si / 1000 Ang^3
#
#
#
# Elastic Constant Matrix: (Units=GPa)
#
#
# Indices 1 2 3 4 5 6 
#
# 1 200.9106 48.6628 133.2241 0.0000 0.0000 0.0000
# 2 48.6628 40.4171 39.1983 0.0000 0.0000 0.0000
# 3 133.2241 39.1983 125.9429 0.0000 0.0000 0.0000
# 4 0.0000 0.0000 0.0000 26.4924 0.0000 0.0000
# 5 0.0000 0.0000 0.0000 0.0000 -18.3051 0.0000
# 6 0.0000 0.0000 0.0000 0.0000 0.0000 27.5590
#
#
#
# Elastic Compliance Matrix: (Units=1/GPa)
#
#
# Indices 1 2 3 4 5 6 
#
# 1 0.017198 -0.004387 -0.016826 0.000000 0.000000 0.000000
# 2 -0.004387 0.036559 -0.006738 0.000000 0.000000 0.000000
# 3 -0.016826 -0.006738 0.027836 0.000000 0.000000 0.000000
# 4 0.000000 0.000000 0.000000 0.037747 0.000000 0.000000
# 5 0.000000 0.000000 0.000000 0.000000 -0.054630 0.000000
# 6 0.000000 0.000000 0.000000 0.000000 0.000000 0.036286
#
#
# Mechanical properties :
#
#
# Convention : Reuss Voigt Hill
#
# Bulk Modulus (GPa) = 38.92542 89.93790 64.43166
# Shear Modulus (GPa) = 30.21859 16.89495 23.55677
#
# Velocity S-wave (km/s) = 4.05899 3.03500 3.58376
# Velocity P-wave (km/s) = 6.57188 7.83048 7.22863
#
# Compressibility (1/GPa) = 0.02569016
#
# Stress axis : x y z
#
# Youngs Moduli (GPa) = 58.14783 27.35327 35.92437
#
# Poissons Ratio (x) = 0.12000 0.60448
# Poissons Ratio (y) = 0.25511 0.24205
# Poissons Ratio (z) = 0.97842 0.18430
#
# Static dielectric constant tensor:
#      x y z
#    x 1.603240 0.000000 0.000000 
#    y 0.000000 1.623720 0.000000 
#    z 0.000000 0.000000 1.625690 
# 
# From -- ./inp_files/31437.got.cif
#   From: 2010.05.17/outbox.cif.g08.bks.cpg/sg42_16_cif.got.tgz:31437.got - 2010.06.03 19:03:34.
