data_PCOD9368693
_publ_section_title
;
Structure prediction by ZEFSAII (Michael W. Deem and Ramdas Pophale) SiO2 
 PCOD9368693
Probable space group: F M M 2
;
_chemical_formula_sum "Si O2"
_cell_formula_units_Z 96
_cell_length_a 17.906585
_cell_length_b 16.415728
_cell_length_c 19.019777
_cell_angle_alpha 90.000000
_cell_angle_beta 90.000000
_cell_angle_gamma 90.000000
_cell_volume 5590.856388
_symmetry_space_group_name_H-M "F M M 2"
_symmetry_group_IT_number 42
_symmetry_cell_setting 'orthorhombic'
loop_
_space_group_symop_operation_xyz
x,y,z
-x,-y,z
-x,y,z
x,-y,z
x,1/2+y,1/2+z
-x,1/2-y,1/2+z
-x,1/2+y,1/2+z
x,1/2-y,1/2+z
1/2+x,y,1/2+z
1/2-x,-y,1/2+z
1/2-x,y,1/2+z
1/2+x,-y,1/2+z
1/2+x,1/2+y,z
1/2-x,1/2-y,z
1/2-x,1/2+y,z
1/2+x,1/2-y,z
loop_
_atom_site_type_symbol
_atom_site_label
_atom_site_fract_x
_atom_site_fract_y
_atom_site_fract_z
Si Si1 0.589438 0.168144 0.888160
Si Si2 0.826167 0.096740 0.112124
Si Si3 0.089260 0.191574 0.225154
Si Si4 0.838386 0.835837 0.643566
Si Si5 0.911579 0.000000 0.621250
Si Si6 0.662450 0.766277 0.506042
Si Si7 0.408864 0.000000 0.959407
O O1 0.500000 0.169284 0.894164
O O2 0.607457 0.172576 0.805944
O O3 0.616274 0.082417 0.921140
O O4 0.620782 0.241506 0.935347
O O5 0.886002 0.119805 0.172105
O O6 0.748497 0.139925 0.136583
O O7 0.847380 0.144386 0.040183
O O8 0.817032 0.000000 0.104122
O O9 0.137101 0.269418 0.200160
O O10 0.000000 0.206281 0.218855
O O11 0.881828 0.918786 0.656270
O O12 0.861620 0.795622 0.568727
O O13 0.883681 0.000000 0.540231
O O14 0.000000 0.000000 0.619750
O O15 0.750000 0.750000 0.494730
O O16 0.500000 0.000000 0.958920
#
# Coordination Sequence:
#
# PCOD9368693 Si02
#       7
#    16  16  16  16   8  16   8
#     4  10  20  35  55  79 111 144 178 225 274 323
#     4  10  21  37  57  81 110 146 182 224 274 328
#     4  10  22  36  55  80 111 146 183 224 273 329
#     4  10  19  36  55  80 112 140 179 226 276 325
#     4  11  18  28  57  86 107 134 179 234 280 322
#     4   9  19  33  54  79 106 140 177 223 270 325
#     4   9  18  30  51  84 108 130 171 228 279 314
#
# _framework density 17.170894000000001
#
# number of rings (size 3 to 8) (size 9 to 14) (size 15 to 20)
#    0.000    2.167    2.500    2.000    1.167    4.333 
#    0.000    0.000    1.833    0.000    0.000    0.000 
#    0.000    0.000    0.000    0.000    0.000    0.000 
#
# Total GULP energy -133801.389440 kJ/mol
# GULP energy per Si atom -5575.057893 kJ/mol
# Density = 1.713181 g / cm^3
# Si number density = 17.170894 Si / 1000 Ang^3
#
#
#
# Elastic Constant Matrix: (Units=GPa)
#
#
# Indices 1 2 3 4 5 6 
#
# 1 27.4986 22.3332 19.5576 0.0000 0.0000 0.0000
# 2 22.3332 119.1385 35.7642 0.0000 0.0000 0.0000
# 3 19.5576 35.7642 84.9103 0.0000 0.0000 0.0000
# 4 0.0000 0.0000 0.0000 11.5967 0.0000 0.0000
# 5 0.0000 0.0000 0.0000 0.0000 23.2985 0.0000
# 6 0.0000 0.0000 0.0000 0.0000 0.0000 25.4191
#
#
#
# Elastic Compliance Matrix: (Units=1/GPa)
#
#
# Indices 1 2 3 4 5 6 
#
# 1 0.047427 -0.006423 -0.008219 0.000000 0.000000 0.000000
# 2 -0.006423 0.010478 -0.002934 0.000000 0.000000 0.000000
# 3 -0.008219 -0.002934 0.014906 0.000000 0.000000 0.000000
# 4 0.000000 0.000000 0.000000 0.086231 0.000000 0.000000
# 5 0.000000 0.000000 0.000000 0.000000 0.042921 0.000000
# 6 0.000000 0.000000 0.000000 0.000000 0.000000 0.039341
#
#
# Mechanical properties :
#
#
# Convention : Reuss Voigt Hill
#
# Bulk Modulus (GPa) = 26.55344 42.98417 34.76880
# Shear Modulus (GPa) = 17.30042 22.32235 19.81139
#
# Velocity S-wave (km/s) = 3.17763 3.60948 3.40041
# Velocity P-wave (km/s) = 5.38153 6.51603 5.97576
#
# Compressibility (1/GPa) = 0.03765990
#
# Stress axis : x y z
#
# Youngs Moduli (GPa) = 21.08482 95.43393 67.08734
#
# Poissons Ratio (x) = 0.61301 0.55136
# Poissons Ratio (y) = 0.13544 0.19683
# Poissons Ratio (z) = 0.17329 0.28000
#
# Static dielectric constant tensor:
#      x y z
#    x 1.592300 0.000000 0.000000 
#    y 0.000000 1.588280 0.000000 
#    z 0.000000 0.000000 1.568040 
# 
# From -- ./inp_files/20826.got.cif
#   From: 2010.05.17/outbox.cif.g08.bks.cpg/sg42_11_cif.got.tgz:20826.got - 2010.06.03 19:03:34.
