data_PCOD9368713
_publ_section_title
;
Structure prediction by ZEFSAII (Michael W. Deem and Ramdas Pophale) SiO2 
 PCOD9368713
Probable space group: F M M 2
;
_chemical_formula_sum "Si O2"
_cell_formula_units_Z 116
_cell_length_a 29.758961
_cell_length_b 7.705235
_cell_length_c 24.972396
_cell_angle_alpha 90.000000
_cell_angle_beta 90.000000
_cell_angle_gamma 90.000000
_cell_volume 5726.165105
_symmetry_space_group_name_H-M "F M M 2"
_symmetry_group_IT_number 42
_symmetry_cell_setting 'orthorhombic'
loop_
_space_group_symop_operation_xyz
x,y,z
-x,-y,z
-x,y,z
x,-y,z
x,1/2+y,1/2+z
-x,1/2-y,1/2+z
-x,1/2+y,1/2+z
x,1/2-y,1/2+z
1/2+x,y,1/2+z
1/2-x,-y,1/2+z
1/2-x,y,1/2+z
1/2+x,-y,1/2+z
1/2+x,1/2+y,z
1/2-x,1/2-y,z
1/2-x,1/2+y,z
1/2+x,1/2-y,z
loop_
_atom_site_type_symbol
_atom_site_label
_atom_site_fract_x
_atom_site_fract_y
_atom_site_fract_z
Si Si1 0.922645 0.307240 0.820810
Si Si2 0.447030 0.707805 0.140365
Si Si3 0.802402 0.793875 0.130266
Si Si4 0.550845 0.788589 0.520312
Si Si5 0.626807 0.690807 0.720383
Si Si6 0.500000 0.000000 0.314378
Si Si7 0.121862 0.789049 0.931453
Si Si8 0.697750 0.791450 0.510581
O O1 0.943354 0.500000 0.821935
O O2 0.887855 0.301407 0.771151
O O3 0.959985 0.154647 0.815734
O O4 0.893254 0.279601 0.874335
O O5 0.500000 0.736658 0.148056
O O6 0.438869 0.500000 0.145090
O O7 0.435201 0.762802 0.080031
O O8 0.417265 0.803178 0.183110
O O9 0.750000 0.750000 0.138437
O O10 0.833159 0.736669 0.179631
O O11 0.815355 0.725982 0.070518
O O12 0.806982 0.000000 0.127671
O O13 0.500000 0.730297 0.510847
O O14 0.583623 0.735605 0.473830
O O15 0.550229 0.000000 0.521105
O O16 0.635890 0.500000 0.741674
O O17 0.122344 0.000000 0.927895
O O18 0.167558 0.730602 0.960941
O O19 0.750000 0.750000 0.503312
O O20 0.692324 0.000000 0.512281
#
# Coordination Sequence:
#
# PCOD9368713 Si02
#       8
#    16  16  16  16  16   4  16  16
#     4  12  27  45  68  96 126 171 222 270 325 381
#     4   9  18  33  54  84 115 155 203 249 311 383
#     4  10  20  38  64  97 128 167 212 261 328 394
#     4   8  15  28  52  81 113 152 195 246 315 379
#     4  12  24  40  59  86 124 167 213 269 318 378
#     4  12  26  52  68  94 128 168 222 276 320 380
#     4  10  19  36  60  88 123 166 212 265 318 381
#     4   9  19  35  61  94 131 169 211 262 326 388
#
# _framework density 20.257885000000002
#
# number of rings (size 3 to 8) (size 9 to 14) (size 15 to 20)
#    0.000    1.931    1.379    3.517    1.931    3.586 
#    0.000    2.759    0.000    2.483    0.000    0.000 
#    0.000    0.000    0.000    0.000    0.000    0.000 
#
# Total GULP energy -161592.492431 kJ/mol
# GULP energy per Si atom -5572.154911 kJ/mol
# Density = 2.021178 g / cm^3
# Si number density = 20.257885 Si / 1000 Ang^3
#
#
#
# Elastic Constant Matrix: (Units=GPa)
#
#
# Indices 1 2 3 4 5 6 
#
# 1 67.7384 24.2498 60.9911 -0.0001 0.0001 0.0002
# 2 24.2498 89.8423 15.7990 -0.0004 0.0000 0.0002
# 3 60.9911 15.7990 110.6516 0.0000 0.0000 -0.0001
# 4 -0.0001 -0.0004 0.0000 20.5357 0.0000 0.0000
# 5 0.0001 0.0000 0.0000 0.0000 34.7138 -0.0001
# 6 0.0002 0.0002 -0.0001 0.0000 -0.0001 19.8672
#
#
#
# Elastic Compliance Matrix: (Units=1/GPa)
#
#
# Indices 1 2 3 4 5 6 
#
# 1 0.031885 -0.005658 -0.016767 0.000000 0.000000 0.000000
# 2 -0.005658 0.012421 0.001345 0.000000 0.000000 0.000000
# 3 -0.016767 0.001345 0.018087 0.000000 0.000000 0.000000
# 4 0.000000 0.000000 0.000000 0.048696 0.000000 0.000000
# 5 0.000000 0.000000 0.000000 0.000000 0.028807 0.000000
# 6 0.000000 0.000000 0.000000 0.000000 0.000000 0.050334
#
#
# Mechanical properties :
#
#
# Convention : Reuss Voigt Hill
#
# Bulk Modulus (GPa) = 49.42211 52.25689 50.83950
# Shear Modulus (GPa) = 20.90866 26.16951 23.53909
#
# Velocity S-wave (km/s) = 3.21616 3.59809 3.41247
# Velocity P-wave (km/s) = 6.18393 6.56608 6.37787
#
# Compressibility (1/GPa) = 0.02023386
#
# Stress axis : x y z
#
# Youngs Moduli (GPa) = 31.36248 80.50751 55.28695
#
# Poissons Ratio (x) = 0.45549 0.92701
# Poissons Ratio (y) = 0.17744 -0.07436
# Poissons Ratio (z) = 0.52586 -0.10829
#
# Static dielectric constant tensor:
#      x y z
#    x 1.673610 0.000000 0.000000 
#    y 0.000000 1.795660 0.000000 
#    z 0.000000 0.000000 1.743840 
# 
# From -- ./inp_files/30889.got.cif
#   From: 2010.05.17/outbox.cif.g08.bks.cpg/sg42_16_cif.got.tgz:30889.got - 2010.06.03 19:03:34.
