data_PCOD9368847
_publ_section_title
;
Structure prediction by ZEFSAII (Michael W. Deem and Ramdas Pophale) SiO2 
 PCOD9368847
Probable space group: F M M 2
;
_chemical_formula_sum "Si O2"
_cell_formula_units_Z 116
_cell_length_a 7.554602
_cell_length_b 26.369565
_cell_length_c 27.522105
_cell_angle_alpha 90.000000
_cell_angle_beta 90.000000
_cell_angle_gamma 90.000000
_cell_volume 5482.721705
_symmetry_space_group_name_H-M "F M M 2"
_symmetry_group_IT_number 42
_symmetry_cell_setting 'orthorhombic'
loop_
_space_group_symop_operation_xyz
x,y,z
-x,-y,z
-x,y,z
x,-y,z
x,1/2+y,1/2+z
-x,1/2-y,1/2+z
-x,1/2+y,1/2+z
x,1/2-y,1/2+z
1/2+x,y,1/2+z
1/2-x,-y,1/2+z
1/2-x,y,1/2+z
1/2+x,-y,1/2+z
1/2+x,1/2+y,z
1/2-x,1/2-y,z
1/2-x,1/2+y,z
1/2+x,1/2-y,z
loop_
_atom_site_type_symbol
_atom_site_label
_atom_site_fract_x
_atom_site_fract_y
_atom_site_fract_z
Si Si1 0.288407 0.306399 0.110810
Si Si2 0.203403 0.555281 0.241785
Si Si3 0.706042 0.331981 0.215742
Si Si4 0.000000 0.000000 0.580432
Si Si5 0.217540 0.089700 0.058039
Si Si6 0.711504 0.804583 0.820383
Si Si7 0.292627 0.412701 0.347062
Si Si8 0.711600 0.055708 0.455080
O O1 0.500000 0.310312 0.113785
O O2 0.250000 0.250000 0.091817
O O3 0.214644 0.312482 0.165652
O O4 0.234739 0.356009 0.080917
O O5 0.280370 0.500000 0.228855
O O6 0.285759 0.606767 0.220807
O O7 0.206494 0.560383 0.300640
O O8 0.000000 0.555608 0.225602
O O9 0.500000 0.317576 0.215701
O O10 0.784659 0.309539 0.265432
O O11 0.158482 0.045042 0.579093
O O12 0.000000 0.080796 0.063632
O O13 0.256975 0.091334 0.999999
O O14 0.500000 0.808567 0.817873
O O15 0.750000 0.750000 0.841799
O O16 0.773746 0.854668 0.847854
O O17 0.500000 0.413925 0.334698
O O18 0.272972 0.434162 0.400647
O O19 0.500000 0.054707 0.452221
O O20 0.777598 0.000000 0.470020
#
# Coordination Sequence:
#
# PCOD9368847 Si02
#       8
#    16  16  16   4  16  16  16  16
#     4  10  22  41  64  89 123 160 203 258 311 372
#     4  10  20  34  49  75 113 150 186 235 289 345
#     4   9  19  36  56  80 108 145 192 237 293 351
#     4  12  22  40  72  94 124 168 202 262 320 394
#     4  10  23  42  63  96 130 160 207 264 316 372
#     4   9  18  32  50  75 104 137 181 232 278 335
#     4  10  21  33  51  78 109 142 189 232 276 350
#     4  10  20  36  57  82 115 149 185 238 293 349
#
# _framework density 21.157375999999999
#
# number of rings (size 3 to 8) (size 9 to 14) (size 15 to 20)
#    0.000    2.207    0.690    2.690    1.931    6.345 
#    1.241    0.690    0.000    3.310    0.000    0.000 
#    0.000    0.000    0.000    0.000    0.000    0.000 
#
# Total GULP energy -161455.146852 kJ/mol
# GULP energy per Si atom -5567.418857 kJ/mol
# Density = 2.110922 g / cm^3
# Si number density = 21.157376 Si / 1000 Ang^3
#
#
#
# Elastic Constant Matrix: (Units=GPa)
#
#
# Indices 1 2 3 4 5 6 
#
# 1 71.3490 8.3466 3.6744 0.0000 0.0000 0.0000
# 2 8.3466 138.0081 23.7961 0.0000 0.0000 0.0000
# 3 3.6744 23.7961 41.4901 0.0000 0.0000 0.0000
# 4 0.0000 0.0000 0.0000 16.5974 0.0000 0.0000
# 5 0.0000 0.0000 0.0000 0.0000 15.7752 0.0000
# 6 0.0000 0.0000 0.0000 0.0000 0.0000 24.7592
#
#
#
# Elastic Compliance Matrix: (Units=1/GPa)
#
#
# Indices 1 2 3 4 5 6 
#
# 1 0.014142 -0.000710 -0.000846 0.000000 0.000000 0.000000
# 2 -0.000710 0.008077 -0.004569 0.000000 0.000000 0.000000
# 3 -0.000846 -0.004569 0.026798 0.000000 0.000000 0.000000
# 4 0.000000 0.000000 0.000000 0.060251 0.000000 0.000000
# 5 0.000000 0.000000 0.000000 0.000000 0.063391 0.000000
# 6 0.000000 0.000000 0.000000 0.000000 0.000000 0.040389
#
#
# Mechanical properties :
#
#
# Convention : Reuss Voigt Hill
#
# Bulk Modulus (GPa) = 27.19781 35.83128 31.51455
# Shear Modulus (GPa) = 21.04803 25.76168 23.40486
#
# Velocity S-wave (km/s) = 3.15752 3.49323 3.32961
# Velocity P-wave (km/s) = 5.11626 5.76564 5.45063
#
# Compressibility (1/GPa) = 0.03676767
#
# Stress axis : x y z
#
# Youngs Moduli (GPa) = 70.71058 123.81209 37.31655
#
# Poissons Ratio (x) = 0.08785 0.03155
# Poissons Ratio (y) = 0.05017 0.17052
# Poissons Ratio (z) = 0.05979 0.56576
#
# Static dielectric constant tensor:
#      x y z
#    x 1.796810 0.000000 0.000000 
#    y 0.000000 1.812630 0.000000 
#    z 0.000000 0.000000 1.766080 
# 
# From -- ./inp_files/31753.got.cif
#   From: 2010.05.17/outbox.cif.g08.bks.cpg/sg42_16_cif.got.tgz:31753.got - 2010.06.03 19:03:34.
