data_PCOD9368815
_publ_section_title
;
Structure prediction by ZEFSAII (Michael W. Deem and Ramdas Pophale) SiO2 
 PCOD9368815
Probable space group: F M M 2
;
_chemical_formula_sum "Si O2"
_cell_formula_units_Z 80
_cell_length_a 8.772519
_cell_length_b 16.092224
_cell_length_c 29.795430
_cell_angle_alpha 90.000000
_cell_angle_beta 90.000000
_cell_angle_gamma 90.000000
_cell_volume 4206.201212
_symmetry_space_group_name_H-M "F M M 2"
_symmetry_group_IT_number 42
_symmetry_cell_setting 'orthorhombic'
loop_
_space_group_symop_operation_xyz
x,y,z
-x,-y,z
-x,y,z
x,-y,z
x,1/2+y,1/2+z
-x,1/2-y,1/2+z
-x,1/2+y,1/2+z
x,1/2-y,1/2+z
1/2+x,y,1/2+z
1/2-x,-y,1/2+z
1/2-x,y,1/2+z
1/2+x,-y,1/2+z
1/2+x,1/2+y,z
1/2-x,1/2-y,z
1/2-x,1/2+y,z
1/2+x,1/2-y,z
loop_
_atom_site_type_symbol
_atom_site_label
_atom_site_fract_x
_atom_site_fract_y
_atom_site_fract_z
Si Si1 0.313913 0.000000 0.963681
Si Si2 0.314281 0.500000 0.360283
Si Si3 0.323922 0.904431 0.712086
Si Si4 0.684743 0.836849 0.805378
Si Si5 0.815679 0.342055 0.022376
Si Si6 0.181358 0.159014 0.624280
O O1 0.265843 0.084141 0.989338
O O2 0.500000 0.000000 0.964557
O O3 0.265144 0.000000 0.911991
O O4 0.500000 0.500000 0.359743
O O5 0.266627 0.583712 0.334613
O O6 0.500000 0.880816 0.703939
O O7 0.263869 0.851217 0.753802
O O8 0.237594 0.895734 0.665454
O O9 0.321893 0.000000 0.727358
O O10 0.500000 0.834785 0.805243
O O11 0.750000 0.750000 0.822328
O O12 0.750000 0.250000 0.013011
O O13 0.000000 0.336433 0.020425
O O14 0.772655 0.366001 0.073717
O O15 0.250000 0.250000 0.632023
O O16 0.000000 0.163007 0.625076
#
# Coordination Sequence:
#
# PCOD9368815 Si02
#       6
#     8   8  16  16  16  16
#     4   9  18  34  58  81 103 139 179 217 264 323
#     4   9  18  36  58  79 105 139 179 215 264 327
#     4  10  20  34  52  76 109 144 179 218 263 317
#     4  10  20  36  57  80 107 141 177 218 264 315
#     4   9  19  35  55  79 109 140 177 220 263 312
#     4  10  20  33  51  75 107 142 179 220 261 312
#
# _framework density 19.019537
#
# number of rings (size 3 to 8) (size 9 to 14) (size 15 to 20)
#    0.000    2.400    1.000    1.200    1.400    4.400 
#    0.000    1.000    0.000    1.200    0.000    0.000 
#    0.000    0.000    0.000    0.000    0.000    0.000 
#
# Total GULP energy -111556.306768 kJ/mol
# GULP energy per Si atom -5577.815338 kJ/mol
# Density = 1.897625 g / cm^3
# Si number density = 19.019537 Si / 1000 Ang^3
#
#
#
# Elastic Constant Matrix: (Units=GPa)
#
#
# Indices 1 2 3 4 5 6 
#
# 1 11.3778 19.7100 24.1843 0.0000 0.0000 0.0000
# 2 19.7100 136.2383 88.7576 0.0000 0.0000 0.0000
# 3 24.1843 88.7576 129.0526 0.0000 0.0000 0.0000
# 4 0.0000 0.0000 0.0000 15.5109 0.0000 0.0000
# 5 0.0000 0.0000 0.0000 0.0000 16.2947 0.0000
# 6 0.0000 0.0000 0.0000 0.0000 0.0000 25.1049
#
#
#
# Elastic Compliance Matrix: (Units=1/GPa)
#
#
# Indices 1 2 3 4 5 6 
#
# 1 0.148815 -0.006089 -0.023700 0.000000 0.000000 0.000000
# 2 -0.006089 0.013548 -0.008177 0.000000 0.000000 0.000000
# 3 -0.023700 -0.008177 0.017814 0.000000 0.000000 0.000000
# 4 0.000000 0.000000 0.000000 0.064471 0.000000 0.000000
# 5 0.000000 0.000000 0.000000 0.000000 0.061370 0.000000
# 6 0.000000 0.000000 0.000000 0.000000 0.000000 0.039833
#
#
# Mechanical properties :
#
#
# Convention : Reuss Voigt Hill
#
# Bulk Modulus (GPa) = 9.59275 60.21917 34.90596
# Shear Modulus (GPa) = 10.95216 20.98321 15.96768
#
# Velocity S-wave (km/s) = 2.40226 3.32512 2.90063
# Velocity P-wave (km/s) = 3.57058 6.81706 5.44157
#
# Compressibility (1/GPa) = 0.10424543
#
# Stress axis : x y z
#
# Youngs Moduli (GPa) = 6.71973 73.81109 56.13649
#
# Poissons Ratio (x) = 0.44947 1.33042
# Poissons Ratio (y) = 0.04092 0.45901
# Poissons Ratio (z) = 0.15926 0.60353
#
# Static dielectric constant tensor:
#      x y z
#    x 1.653540 0.000000 0.000000 
#    y 0.000000 1.644710 0.000000 
#    z 0.000000 0.000000 1.669950 
# 
# From -- ./inp_files/31280.got.cif
#   From: 2010.05.17/outbox.cif.g08.bks.cpg/sg42_16_cif.got.tgz:31280.got - 2010.06.03 19:03:34.
