data_PCOD9368816
_publ_section_title
;
Structure prediction by ZEFSAII (Michael W. Deem and Ramdas Pophale) SiO2 
 PCOD9368816
Probable space group: F M M 2
;
_chemical_formula_sum "Si O2"
_cell_formula_units_Z 96
_cell_length_a 12.350780
_cell_length_b 16.444701
_cell_length_c 26.155971
_cell_angle_alpha 90.000000
_cell_angle_beta 90.000000
_cell_angle_gamma 90.000000
_cell_volume 5312.405462
_symmetry_space_group_name_H-M "F M M 2"
_symmetry_group_IT_number 42
_symmetry_cell_setting 'orthorhombic'
loop_
_space_group_symop_operation_xyz
x,y,z
-x,-y,z
-x,y,z
x,-y,z
x,1/2+y,1/2+z
-x,1/2-y,1/2+z
-x,1/2+y,1/2+z
x,1/2-y,1/2+z
1/2+x,y,1/2+z
1/2-x,-y,1/2+z
1/2-x,y,1/2+z
1/2+x,-y,1/2+z
1/2+x,1/2+y,z
1/2-x,1/2-y,z
1/2-x,1/2+y,z
1/2+x,1/2-y,z
loop_
_atom_site_type_symbol
_atom_site_label
_atom_site_fract_x
_atom_site_fract_y
_atom_site_fract_z
Si Si1 0.500000 0.594230 0.500000
Si Si2 0.261502 0.600166 0.360936
Si Si3 0.624430 0.901035 0.263395
Si Si4 0.500000 0.405501 0.377512
Si Si5 0.223288 0.155869 0.546115
Si Si6 0.874188 0.902052 0.648104
Si Si7 0.622897 0.097170 0.459167
O O1 0.500000 0.500000 0.517911
O O2 0.500000 0.593969 0.438924
O O3 0.608650 0.635718 0.519682
O O4 0.264105 0.500000 0.362832
O O5 0.200120 0.625393 0.309600
O O6 0.385112 0.630100 0.360837
O O7 0.195930 0.627040 0.411534
O O8 0.500000 0.877023 0.272878
O O9 0.654407 0.875471 0.205801
O O10 0.626280 0.000000 0.263424
O O11 0.500000 0.500000 0.360188
O O12 0.250000 0.250000 0.544854
O O13 0.206018 0.127982 0.604355
O O14 0.315653 0.113542 0.512169
O O15 0.000000 0.877173 0.637890
O O16 0.873627 0.000000 0.647195
O O17 0.500000 0.129983 0.458226
O O18 0.616002 0.000000 0.452946
#
# Coordination Sequence:
#
# PCOD9368816 Si02
#       7
#     8  16  16   8  16  16  16
#     4  11  20  38  62  83 107 149 197 231 273 333
#     4   9  15  26  46  76 108 135 171 227 278 320
#     4   8  14  25  46  77 106 130 169 229 282 321
#     4   9  16  26  48  79 104 135 183 223 260 319
#     4  12  24  34  54  80 111 142 180 237 283 326
#     4   9  17  32  56  81 102 136 187 233 272 323
#     4  10  20  33  51  75 107 144 176 214 278 348
#
# _framework density 18.070910000000001
#
# number of rings (size 3 to 8) (size 9 to 14) (size 15 to 20)
#    0.000    2.333    2.500    3.000    1.167    2.000 
#    0.000    0.000    1.833    1.000    0.000    0.000 
#    0.000    0.000    0.000    0.000    0.000    0.000 
#
# Total GULP energy -133800.688834 kJ/mol
# GULP energy per Si atom -5575.028701 kJ/mol
# Density = 1.802978 g / cm^3
# Si number density = 18.070910 Si / 1000 Ang^3
#
#
#
# Elastic Constant Matrix: (Units=GPa)
#
#
# Indices 1 2 3 4 5 6 
#
# 1 161.5853 19.4581 93.7320 0.0000 0.0000 0.0000
# 2 19.4581 23.2902 11.2170 0.0000 0.0000 0.0000
# 3 93.7320 11.2170 139.5676 0.0000 0.0000 0.0000
# 4 0.0000 0.0000 0.0000 -9.1056 0.0000 0.0000
# 5 0.0000 0.0000 0.0000 0.0000 29.7619 0.0000
# 6 0.0000 0.0000 0.0000 0.0000 0.0000 9.9777
#
#
#
# Elastic Compliance Matrix: (Units=1/GPa)
#
#
# Indices 1 2 3 4 5 6 
#
# 1 0.010836 -0.005772 -0.006814 0.000000 0.000000 0.000000
# 2 -0.005772 0.047740 0.000039 0.000000 0.000000 0.000000
# 3 -0.006814 0.000039 0.011738 0.000000 0.000000 0.000000
# 4 0.000000 0.000000 0.000000 -0.109822 0.000000 0.000000
# 5 0.000000 0.000000 0.000000 0.000000 0.033600 0.000000
# 6 0.000000 0.000000 0.000000 0.000000 0.000000 0.100223
#
#
# Mechanical properties :
#
#
# Convention : Reuss Voigt Hill
#
# Bulk Modulus (GPa) = 22.11324 63.69524 42.90424
# Shear Modulus (GPa) = 37.18022 19.46253 28.32138
#
# Velocity S-wave (km/s) = 4.54085 3.28534 3.96313
# Velocity P-wave (km/s) = 6.30523 7.05090 6.68846
#
# Compressibility (1/GPa) = 0.04522178
#
# Stress axis : x y z
#
# Youngs Moduli (GPa) = 92.28432 20.94697 85.19553
#
# Poissons Ratio (x) = 0.12090 0.58048
# Poissons Ratio (y) = 0.53263 -0.00335
# Poissons Ratio (z) = 0.62878 -0.00082
#
# Static dielectric constant tensor:
#      x y z
#    x 1.614550 0.000000 0.000000 
#    y 0.000000 1.596130 0.000000 
#    z 0.000000 0.000000 1.626850 
# 
# From -- ./inp_files/28848.got.cif
#   From: 2010.05.17/outbox.cif.g08.bks.cpg/sg42_15_cif.got.tgz:28848.got - 2010.06.03 19:03:34.
