data_PCOD9368441
_publ_section_title
;
Structure prediction by ZEFSAII (Michael W. Deem and Ramdas Pophale) SiO2 
 PCOD9368441
Probable space group: F M M 2
;
_chemical_formula_sum "Si O2"
_cell_formula_units_Z 104
_cell_length_a 7.555748
_cell_length_b 27.550875
_cell_length_c 19.838068
_cell_angle_alpha 90.000000
_cell_angle_beta 90.000000
_cell_angle_gamma 90.000000
_cell_volume 4129.640399
_symmetry_space_group_name_H-M "F M M 2"
_symmetry_group_IT_number 42
_symmetry_cell_setting 'orthorhombic'
loop_
_space_group_symop_operation_xyz
x,y,z
-x,-y,z
-x,y,z
x,-y,z
x,1/2+y,1/2+z
-x,1/2-y,1/2+z
-x,1/2+y,1/2+z
x,1/2-y,1/2+z
1/2+x,y,1/2+z
1/2-x,-y,1/2+z
1/2-x,y,1/2+z
1/2+x,-y,1/2+z
1/2+x,1/2+y,z
1/2-x,1/2-y,z
1/2-x,1/2+y,z
1/2+x,1/2-y,z
loop_
_atom_site_type_symbol
_atom_site_label
_atom_site_fract_x
_atom_site_fract_y
_atom_site_fract_z
Si Si1 0.500000 0.376582 0.485028
Si Si2 0.714562 0.588131 0.819186
Si Si3 0.202194 0.056556 0.969562
Si Si4 0.792171 0.694852 0.497539
Si Si5 0.705427 0.553066 0.175018
Si Si6 0.713656 0.661730 0.148042
Si Si7 0.698978 0.804576 0.292158
O O1 0.655765 0.413972 0.510315
O O2 0.342450 0.339536 0.459443
O O3 0.500000 0.587407 0.813155
O O4 0.757395 0.565436 0.891460
O O5 0.786870 0.557950 0.756353
O O6 0.783331 0.643631 0.812761
O O7 0.000000 0.073353 0.978797
O O8 0.207296 0.000000 0.983992
O O9 0.750000 0.750000 0.481679
O O10 0.741842 0.684819 0.576164
O O11 0.000000 0.685143 0.488249
O O12 0.500000 0.552798 0.152692
O O13 0.780734 0.500000 0.156247
O O14 0.777832 0.605927 0.153620
O O15 0.500000 0.662079 0.154545
O O16 0.789976 0.691585 0.210702
O O17 0.500000 0.809333 0.316955
O O18 0.750000 0.750000 0.311837
#
# Coordination Sequence:
#
# PCOD9368441 Si02
#       7
#     8  16  16  16  16  16  16
#     4  12  25  42  68  96 126 156 215 276 322 388
#     4   9  19  35  56  83 119 161 203 250 303 369
#     4  10  22  43  69  95 126 164 211 269 326 383
#     4  11  23  42  67  93 123 165 213 265 323 382
#     4   9  17  30  51  84 123 160 199 242 296 363
#     4   9  19  34  55  85 118 162 203 249 302 370
#     4  10  19  31  52  81 123 162 201 244 297 360
#
# _framework density 25.183789999999998
#
# number of rings (size 3 to 8) (size 9 to 14) (size 15 to 20)
#    0.000    2.154    0.769    2.077    2.154    2.769 
#    0.000    2.308    3.385    3.692    0.000    0.000 
#    0.000    0.000    0.000    0.000    0.000    0.000 
#
# Total GULP energy -144892.921756 kJ/mol
# GULP energy per Si atom -5572.804683 kJ/mol
# Density = 2.512647 g / cm^3
# Si number density = 25.183790 Si / 1000 Ang^3
#
#
#
# Elastic Constant Matrix: (Units=GPa)
#
#
# Indices 1 2 3 4 5 6 
#
# 1 97.3769 31.7023 2.7733 0.0000 0.0000 0.0000
# 2 31.7023 180.6894 -9.0346 0.0000 0.0000 0.0000
# 3 2.7733 -9.0346 92.4694 0.0000 0.0000 0.0000
# 4 0.0000 0.0000 0.0000 23.7490 0.0000 0.0000
# 5 0.0000 0.0000 0.0000 0.0000 -24.2716 0.0000
# 6 0.0000 0.0000 0.0000 0.0000 0.0000 16.7313
#
#
#
# Elastic Compliance Matrix: (Units=1/GPa)
#
#
# Indices 1 2 3 4 5 6 
#
# 1 0.010916 -0.001941 -0.000517 0.000000 0.000000 0.000000
# 2 -0.001941 0.005907 0.000635 0.000000 0.000000 0.000000
# 3 -0.000517 0.000635 0.010892 0.000000 0.000000 0.000000
# 4 0.000000 0.000000 0.000000 0.042107 0.000000 0.000000
# 5 0.000000 0.000000 0.000000 0.000000 -0.041200 0.000000
# 6 0.000000 0.000000 0.000000 0.000000 0.000000 0.059768
#
#
# Mechanical properties :
#
#
# Convention : Reuss Voigt Hill
#
# Bulk Modulus (GPa) = 41.54706 46.82417 44.18562
# Shear Modulus (GPa) = 49.97096 26.24806 38.10951
#
# Velocity S-wave (km/s) = 4.45933 3.23191 3.89428
# Velocity P-wave (km/s) = 6.56106 5.70616 6.14849
#
# Compressibility (1/GPa) = 0.02406909
#
# Stress axis : x y z
#
# Youngs Moduli (GPa) = 91.60819 169.29938 91.81080
#
# Poissons Ratio (x) = 0.32863 0.04747
# Poissons Ratio (y) = 0.17782 -0.05833
# Poissons Ratio (z) = 0.04736 -0.10756
#
# Static dielectric constant tensor:
#      x y z
#    x 1.672490 0.000000 0.000000 
#    y 0.000000 1.984800 0.000000 
#    z 0.000000 0.000000 2.071370 
# 
# From -- ./inp_files/28290.got.cif
#   From: 2010.05.17/outbox.cif.g08.bks.cpg/sg42_15_cif.got.tgz:28290.got - 2010.06.03 19:03:34.
