data_PCOD9368999
_publ_section_title
;
Structure prediction by ZEFSAII (Michael W. Deem and Ramdas Pophale) SiO2 
 PCOD9368999
Probable space group: F M M 2
;
_chemical_formula_sum "Si O2"
_cell_formula_units_Z 80
_cell_length_a 9.456703
_cell_length_b 30.292120
_cell_length_c 14.290922
_cell_angle_alpha 90.000000
_cell_angle_beta 90.000000
_cell_angle_gamma 90.000000
_cell_volume 4093.828707
_symmetry_space_group_name_H-M "F M M 2"
_symmetry_group_IT_number 42
_symmetry_cell_setting 'orthorhombic'
loop_
_space_group_symop_operation_xyz
x,y,z
-x,-y,z
-x,y,z
x,-y,z
x,1/2+y,1/2+z
-x,1/2-y,1/2+z
-x,1/2+y,1/2+z
x,1/2-y,1/2+z
1/2+x,y,1/2+z
1/2-x,-y,1/2+z
1/2-x,y,1/2+z
1/2+x,-y,1/2+z
1/2+x,1/2+y,z
1/2-x,1/2-y,z
1/2-x,1/2+y,z
1/2+x,1/2-y,z
loop_
_atom_site_type_symbol
_atom_site_label
_atom_site_fract_x
_atom_site_fract_y
_atom_site_fract_z
Si Si1 0.662036 0.377322 0.514390
Si Si2 0.333307 0.051655 0.169199
Si Si3 0.665604 0.118948 0.791224
Si Si4 0.837764 0.206858 0.788635
Si Si5 0.340012 0.207579 0.516889
O O1 0.500000 0.362867 0.531520
O O2 0.687078 0.421587 0.572735
O O3 0.676297 0.384916 0.403645
O O4 0.765523 0.338036 0.543403
O O5 0.500000 0.056058 0.194414
O O6 0.236209 0.076770 0.243411
O O7 0.301144 0.000000 0.160814
O O8 0.500000 0.123596 0.767259
O O9 0.754256 0.162420 0.763351
O O10 0.750000 0.250000 0.760034
O O11 0.000000 0.206894 0.755222
O O12 0.842864 0.207887 0.902739
O O13 0.500000 0.210121 0.551136
O O14 0.250000 0.250000 0.545434
#
# Coordination Sequence:
#
# PCOD9368999 Si02
#       5
#    16  16  16  16  16
#     4   9  19  36  57  80 109 145 182 220 267 324
#     4  10  22  40  59  79 106 141 181 227 279 331
#     4  10  20  35  57  84 112 143 181 225 272 322
#     4   9  16  28  49  78 112 148 183 219 263 317
#     4   9  16  27  48  78 111 145 180 218 262 314
#
# _framework density 19.541608
#
# number of rings (size 3 to 8) (size 9 to 14) (size 15 to 20)
#    0.000    2.600    0.000    1.800    0.000    7.600 
#    0.000    3.000    0.000    4.800    0.000    0.000 
#    0.000    0.000    0.000    0.000    0.000    0.000 
#
# Total GULP energy -111746.778201 kJ/mol
# GULP energy per Si atom -5587.338910 kJ/mol
# Density = 1.949713 g / cm^3
# Si number density = 19.541608 Si / 1000 Ang^3
#
#
#
# Elastic Constant Matrix: (Units=GPa)
#
#
# Indices 1 2 3 4 5 6 
#
# 1 177.8650 132.5967 51.4527 0.0000 0.0000 0.0000
# 2 132.5967 188.3686 38.4698 0.0000 0.0000 0.0000
# 3 51.4527 38.4698 58.7830 0.0000 0.0000 0.0000
# 4 0.0000 0.0000 0.0000 35.6378 0.0000 0.0000
# 5 0.0000 0.0000 0.0000 0.0000 24.7221 0.0000
# 6 0.0000 0.0000 0.0000 0.0000 0.0000 37.5326
#
#
#
# Elastic Compliance Matrix: (Units=1/GPa)
#
#
# Indices 1 2 3 4 5 6 
#
# 1 0.013724 -0.008319 -0.006568 0.000000 0.000000 0.000000
# 2 -0.008319 0.011171 -0.000029 0.000000 0.000000 0.000000
# 3 -0.006568 -0.000029 0.022780 0.000000 0.000000 0.000000
# 4 0.000000 0.000000 0.000000 0.028060 0.000000 0.000000
# 5 0.000000 0.000000 0.000000 0.000000 0.040450 0.000000
# 6 0.000000 0.000000 0.000000 0.000000 0.000000 0.026643
#
#
# Mechanical properties :
#
#
# Convention : Reuss Voigt Hill
#
# Bulk Modulus (GPa) = 56.04727 96.67278 76.36003
# Shear Modulus (GPa) = 27.99418 33.07834 30.53626
#
# Velocity S-wave (km/s) = 3.78900 4.11872 3.95730
# Velocity P-wave (km/s) = 6.91992 8.49683 7.74859
#
# Compressibility (1/GPa) = 0.01784208
#
# Stress axis : x y z
#
# Youngs Moduli (GPa) = 72.86265 89.51875 43.89867
#
# Poissons Ratio (x) = 0.74475 0.28834
# Poissons Ratio (y) = 0.60618 0.00125
# Poissons Ratio (z) = 0.47859 0.00256
#
# Static dielectric constant tensor:
#      x y z
#    x 1.668010 0.000000 0.000000 
#    y 0.000000 1.630110 0.000000 
#    z 0.000000 0.000000 1.722380 
# 
# From -- ./inp_files/18198.got.cif
#   From: 2010.05.17/outbox.cif.g08.bks.cpg/sg42_10_cif.got.tgz:18198.got - 2010.06.03 19:03:34.
