data_PCOD9368083
_publ_section_title
;
Structure prediction by ZEFSAII (Michael W. Deem and Ramdas Pophale) SiO2 
 PCOD9368083
Probable space group: A B A 2
;
_chemical_formula_sum "Si O2"
_cell_formula_units_Z 30
_cell_length_a 27.000000
_cell_length_b 12.000000
_cell_length_c 9.000000
_cell_angle_alpha 90.000000
_cell_angle_beta 90.000000
_cell_angle_gamma 90.000000
_cell_volume 2916.000000
_symmetry_space_group_name_H-M "A B A 2"
_symmetry_group_IT_number 41
_symmetry_cell_setting 'orthorhombic'
loop_
_space_group_symop_operation_xyz
x,y,z
-x,-y,z
1/2-x,y,1/2+z
1/2+x,-y,1/2+z
x,1/2+y,1/2+z
-x,1/2-y,1/2+z
1/2-x,1/2+y,z
1/2+x,1/2-y,z
loop_
_atom_site_type_symbol
_atom_site_label
_atom_site_fract_x
_atom_site_fract_y
_atom_site_fract_z
Si Si1 0.153548 0.307635 0.239230
Si Si2 0.420274 0.844676 0.518388
Si Si3 0.664069 0.845380 0.478998
Si Si4 0.226176 0.733686 0.993312
Si Si5 0.329149 0.005802 0.020019
Si Si6 0.174259 0.435314 0.670014
Si Si7 0.911422 0.380064 0.196299
Si Si8 0.000000 0.500000 0.374821
O O1 0.111013 0.332669 0.362228
O O2 0.197130 0.256192 0.339410
O O3 0.176071 0.411442 0.146937
O O4 0.136119 0.222461 0.110598
O O5 0.382658 0.905834 0.631361
O O6 0.428347 0.729563 0.606358
O O7 0.469319 0.912420 0.475847
O O8 0.715661 0.778108 0.458571
O O9 0.629662 0.858737 0.331268
O O10 0.681508 0.960646 0.556971
O O11 0.205837 0.613116 0.046059
O O12 0.207781 0.831807 0.106832
O O13 0.383937 0.049199 0.066552
O O14 0.321910 0.965457 0.847130
O O15 0.958053 0.439651 0.274056
#
# Coordination Sequence:
#
# PCOD9368083 Si02
#       8
#     8   8   8   8   8   8   8   4
#     4  11  24  45  74 105 148 197 244 306 372 444
#     4  11  24  51  76 105 146 188 249 310 377 452
#     4  12  26  46  78 105 157 203 250 312 377 449
#     4  11  27  46  70 112 149 200 252 299 373 449
#     4  12  24  48  77 104 156 194 248 309 370 450
#     4  11  23  51  74 105 152 199 245 308 373 450
#     4  12  25  50  78 110 151 196 252 317 382 449
#     4  12  26  50  80 108 150 198 248 324 390 440
#
# _framework density 10.288066000000001
#
# number of rings (size 3 to 8) (size 9 to 14) (size 15 to 20)
#    0.000    0.533    6.667    1.600    3.733    1.067 
#    7.200    0.000    0.000    0.000    0.000    0.000 
#    0.000    0.000    0.000    0.000    0.000    0.000 
#
# Total GULP energy -167623.710944 kJ/mol
# GULP energy per Si atom -5587.457031 kJ/mol
# Density = 1.026465 g / cm^3
# Si number density = 10.288066 Si / 1000 Ang^3
#
#
#
# Elastic Constant Matrix: (Units=GPa)
#
#
# Indices 1 2 3 4 5 6 
#
# 1 134.4169 45.2036 40.2666 0.0000 0.0000 0.0000
# 2 45.2036 141.0313 57.7493 0.0000 0.0000 0.0000
# 3 40.2666 57.7493 147.0768 0.0000 0.0000 0.0000
# 4 0.0000 0.0000 0.0000 57.6143 0.0000 0.0000
# 5 0.0000 0.0000 0.0000 0.0000 27.1178 0.0000
# 6 0.0000 0.0000 0.0000 0.0000 0.0000 39.1891
#
#
#
# Elastic Compliance Matrix: (Units=1/GPa)
#
#
# Indices 1 2 3 4 5 6 
#
# 1 0.008614 -0.002139 -0.001518 0.000000 0.000000 0.000000
# 2 -0.002139 0.008980 -0.002940 0.000000 0.000000 0.000000
# 3 -0.001518 -0.002940 0.008369 0.000000 0.000000 0.000000
# 4 0.000000 0.000000 0.000000 0.017357 0.000000 0.000000
# 5 0.000000 0.000000 0.000000 0.000000 0.036876 0.000000
# 6 0.000000 0.000000 0.000000 0.000000 0.000000 0.025517
#
#
# Mechanical properties :
#
#
# Convention : Reuss Voigt Hill
#
# Bulk Modulus (GPa) = 78.32315 78.77377 78.54846
# Shear Modulus (GPa) = 40.59579 43.40461 42.00020
#
# Velocity S-wave (km/s) = 4.44662 4.59787 4.52288
# Velocity P-wave (km/s) = 8.03187 8.15809 8.09522
#
# Compressibility (1/GPa) = 0.01276762
#
# Stress axis : x y z
#
# Youngs Moduli (GPa) = 116.09320 111.35454 119.48270
#
# Poissons Ratio (x) = 0.23821 0.18141
# Poissons Ratio (y) = 0.24834 0.35133
# Poissons Ratio (z) = 0.17627 0.32743
#
# Static dielectric constant tensor:
#      x y z
#    x 1.736590 0.000000 0.000000 
#    y 0.000000 1.866870 0.000000 
#    z 0.000000 0.000000 1.713990 
# 
# From -- ./inp_files/3826.got.cif
#   From: 2010.05.17/outbox.ucp.g08.bks.cvg/sg41_2_cif.got.tgz:3826.got - 2010.06.11 16:28:22.
