data_PCOD9368207
_publ_section_title
;
Structure prediction by ZEFSAII (Michael W. Deem and Ramdas Pophale) SiO2 
 PCOD9368207
Probable space group: F M M 2
;
_chemical_formula_sum "Si O2"
_cell_formula_units_Z 88
_cell_length_a 8.952969
_cell_length_b 24.795957
_cell_length_c 21.140290
_cell_angle_alpha 90.000000
_cell_angle_beta 90.000000
_cell_angle_gamma 90.000000
_cell_volume 4693.090141
_symmetry_space_group_name_H-M "F M M 2"
_symmetry_group_IT_number 42
_symmetry_cell_setting 'orthorhombic'
loop_
_space_group_symop_operation_xyz
x,y,z
-x,-y,z
-x,y,z
x,-y,z
x,1/2+y,1/2+z
-x,1/2-y,1/2+z
-x,1/2+y,1/2+z
x,1/2-y,1/2+z
1/2+x,y,1/2+z
1/2-x,-y,1/2+z
1/2-x,y,1/2+z
1/2+x,-y,1/2+z
1/2+x,1/2+y,z
1/2-x,1/2-y,z
1/2-x,1/2+y,z
1/2+x,1/2-y,z
loop_
_atom_site_type_symbol
_atom_site_label
_atom_site_fract_x
_atom_site_fract_y
_atom_site_fract_z
Si Si1 0.333124 0.000000 0.000000
Si Si2 0.820686 0.887048 0.995473
Si Si3 0.750893 0.000000 0.357639
Si Si4 0.833892 0.119919 0.857218
Si Si5 0.168150 0.000000 0.215758
Si Si6 0.180954 0.614492 0.216775
Si Si7 0.321085 0.691120 0.111945
O O1 0.248746 0.944464 0.015627
O O2 0.500000 0.000000 0.026348
O O3 0.338622 0.000000 0.923234
O O4 0.792308 0.842029 0.047558
O O5 0.000000 0.894563 0.989403
O O6 0.762371 0.869044 0.925711
O O7 0.658031 0.054756 0.357385
O O8 0.839788 0.000000 0.292386
O O9 0.766683 0.130969 0.788169
O O10 0.000000 0.143974 0.857553
O O11 0.255344 0.944938 0.200117
O O12 0.000000 0.000000 0.189404
O O13 0.244744 0.657112 0.167700
O O14 0.000000 0.612628 0.217029
O O15 0.500000 0.694016 0.121245
O O16 0.250000 0.750000 0.108774
#
# Coordination Sequence:
#
# PCOD9368207 Si02
#       7
#     8  16   8  16   8  16  16
#     4  10  18  28  49  83 117 144 174 216 265 315
#     4   9  19  36  57  80 109 145 181 217 263 320
#     4   8  14  24  42  74 115 150 175 208 259 316
#     4   8  14  28  52  80 108 140 178 217 260 314
#     4  10  18  30  51  81 117 150 182 220 265 319
#     4  10  20  35  57  84 114 146 181 222 269 322
#     4  11  24  42  61  78 102 140 184 229 277 327
#
# _framework density 18.750972999999998
#
# number of rings (size 3 to 8) (size 9 to 14) (size 15 to 20)
#    0.000    2.545    0.000    2.182    0.000    6.545 
#    0.000    2.727    0.000    2.182    0.000    0.000 
#    0.000    0.000    0.000    0.000    0.000    0.000 
#
# Total GULP energy -122543.257007 kJ/mol
# GULP energy per Si atom -5570.148046 kJ/mol
# Density = 1.870829 g / cm^3
# Si number density = 18.750973 Si / 1000 Ang^3
#
#
#
# Elastic Constant Matrix: (Units=GPa)
#
#
# Indices 1 2 3 4 5 6 
#
# 1 79.5780 54.7559 44.0999 0.0000 0.0000 0.0000
# 2 54.7559 133.9560 77.7128 0.0000 0.0000 0.0000
# 3 44.0999 77.7128 123.0370 0.0000 0.0000 0.0000
# 4 0.0000 0.0000 0.0000 -386.2222 0.0000 0.0000
# 5 0.0000 0.0000 0.0000 0.0000 -1.6196 0.0000
# 6 0.0000 0.0000 0.0000 0.0000 0.0000 8.0214
#
#
#
# Elastic Compliance Matrix: (Units=1/GPa)
#
#
# Indices 1 2 3 4 5 6 
#
# 1 0.018101 -0.005738 -0.002864 0.000000 0.000000 0.000000
# 2 -0.005738 0.013601 -0.006534 0.000000 0.000000 0.000000
# 3 -0.002864 -0.006534 0.013281 0.000000 0.000000 0.000000
# 4 0.000000 0.000000 0.000000 -0.002589 0.000000 0.000000
# 5 0.000000 0.000000 0.000000 0.000000 -0.617445 0.000000
# 6 0.000000 0.000000 0.000000 0.000000 0.000000 0.124667
#
#
# Mechanical properties :
#
#
# Convention : Reuss Voigt Hill
#
# Bulk Modulus (GPa) = 67.97125 76.63424 72.30274
# Shear Modulus (GPa) = -12.04218 -65.29725 -38.66972
#
# Velocity S-wave (km/s) = -2.53695 -5.90754 -4.54616
# Velocity P-wave (km/s) = 5.26751 2.36089 3.32963
#
# Compressibility (1/GPa) = 0.01471210
#
# Stress axis : x y z
#
# Youngs Moduli (GPa) = 55.24439 73.52279 75.29318
#
# Poissons Ratio (x) = 0.42184 0.21564
# Poissons Ratio (y) = 0.31697 0.49199
# Poissons Ratio (z) = 0.15822 0.48042
#
# Static dielectric constant tensor:
#      x y z
#    x 1.669610 0.000000 0.000000 
#    y 0.000000 1.598840 0.000000 
#    z 0.000000 0.000000 1.712460 
# 
# From -- ./inp_files/23574.got.cif
#   From: 2010.05.17/outbox.cif.g08.bks.cpg/sg42_12_cif.got.tgz:23574.got - 2010.06.03 19:03:34.
