data_PCOD9368526
_publ_section_title
;
Structure prediction by ZEFSAII (Michael W. Deem and Ramdas Pophale) SiO2 
 PCOD9368526
Probable space group: F M M 2
;
_chemical_formula_sum "Si O2"
_cell_formula_units_Z 96
_cell_length_a 19.007750
_cell_length_b 8.546904
_cell_length_c 31.901233
_cell_angle_alpha 90.000000
_cell_angle_beta 90.000000
_cell_angle_gamma 90.000000
_cell_volume 5182.591833
_symmetry_space_group_name_H-M "F M M 2"
_symmetry_group_IT_number 42
_symmetry_cell_setting 'orthorhombic'
loop_
_space_group_symop_operation_xyz
x,y,z
-x,-y,z
-x,y,z
x,-y,z
x,1/2+y,1/2+z
-x,1/2-y,1/2+z
-x,1/2+y,1/2+z
x,1/2-y,1/2+z
1/2+x,y,1/2+z
1/2-x,-y,1/2+z
1/2-x,y,1/2+z
1/2+x,-y,1/2+z
1/2+x,1/2+y,z
1/2-x,1/2-y,z
1/2-x,1/2+y,z
1/2+x,1/2-y,z
loop_
_atom_site_type_symbol
_atom_site_label
_atom_site_fract_x
_atom_site_fract_y
_atom_site_fract_z
Si Si1 0.329183 0.312793 0.141320
Si Si2 0.329054 0.688337 0.892322
Si Si3 0.581699 0.689414 0.060022
Si Si4 0.080949 0.309548 0.312901
Si Si5 0.329617 0.686547 0.482206
Si Si6 0.917640 0.688910 0.218898
O O1 0.326784 0.500000 0.140801
O O2 0.250000 0.250000 0.138998
O O3 0.375172 0.260198 0.101254
O O4 0.368402 0.257831 0.183279
O O5 0.329114 0.500000 0.893679
O O6 0.250000 0.750000 0.887923
O O7 0.373104 0.742750 0.852105
O O8 0.355340 0.751038 0.937071
O O9 0.500000 0.737450 0.062300
O O10 0.583570 0.500000 0.058284
O O11 0.620511 0.755165 0.019257
O O12 0.082265 0.500000 0.312927
O O13 0.103602 0.261168 0.266108
O O14 0.000000 0.261871 0.318372
O O15 0.326610 0.500000 0.481397
O O16 0.250000 0.750000 0.488526
O O17 0.914174 0.500000 0.217163
O O18 0.000000 0.732375 0.212681
#
# Coordination Sequence:
#
# PCOD9368526 Si02
#       6
#    16  16  16  16  16  16
#     4  11  23  38  57  82 111 143 181 223 268 320
#     4  10  19  33  54  78 107 143 181 222 269 319
#     4  10  22  40  60  82 109 141 177 219 269 324
#     4   8  16  32  54  79 106 140 181 221 264 317
#     4  11  22  37  57  81 110 143 182 225 270 320
#     4   9  18  35  58  82 110 144 182 224 270 320
#
# _framework density 18.523551000000001
#
# number of rings (size 3 to 8) (size 9 to 14) (size 15 to 20)
#    0.000    2.167    0.000    5.500    0.000    5.333 
#    0.000    5.000    0.000    3.500    0.000    0.000 
#    0.000    0.000    0.000    0.000    0.000    0.000 
#
# Total GULP energy -133992.606999 kJ/mol
# GULP energy per Si atom -5583.025292 kJ/mol
# Density = 1.848139 g / cm^3
# Si number density = 18.523551 Si / 1000 Ang^3
#
#
#
# Elastic Constant Matrix: (Units=GPa)
#
#
# Indices 1 2 3 4 5 6 
#
# 1 124.2967 37.3588 125.1746 0.0000 0.0000 0.0000
# 2 37.3588 42.4495 44.1721 0.0000 0.0000 0.0000
# 3 125.1746 44.1721 222.6175 0.0000 0.0000 0.0000
# 4 0.0000 0.0000 0.0000 27.2769 0.0000 0.0000
# 5 0.0000 0.0000 0.0000 0.0000 43.1199 0.0000
# 6 0.0000 0.0000 0.0000 0.0000 0.0000 19.0290
#
#
#
# Elastic Compliance Matrix: (Units=1/GPa)
#
#
# Indices 1 2 3 4 5 6 
#
# 1 0.020301 -0.007546 -0.009918 0.000000 0.000000 0.000000
# 2 -0.007546 0.032492 -0.002204 0.000000 0.000000 0.000000
# 3 -0.009918 -0.002204 0.010506 0.000000 0.000000 0.000000
# 4 0.000000 0.000000 0.000000 0.036661 0.000000 0.000000
# 5 0.000000 0.000000 0.000000 0.000000 0.023191 0.000000
# 6 0.000000 0.000000 0.000000 0.000000 0.000000 0.052551
#
#
# Mechanical properties :
#
#
# Convention : Reuss Voigt Hill
#
# Bulk Modulus (GPa) = 41.73061 89.19717 65.46389
# Shear Modulus (GPa) = 22.41886 30.06237 26.24061
#
# Velocity S-wave (km/s) = 3.48270 4.03293 3.76787
# Velocity P-wave (km/s) = 6.22491 8.36325 7.37202
#
# Compressibility (1/GPa) = 0.02396322
#
# Stress axis : x y z
#
# Youngs Moduli (GPa) = 49.25837 30.77661 95.18499
#
# Poissons Ratio (x) = 0.23225 0.94401
# Poissons Ratio (y) = 0.37172 0.20978
# Poissons Ratio (z) = 0.48853 0.06783
#
# Static dielectric constant tensor:
#      x y z
#    x 1.613170 0.000000 0.000000 
#    y 0.000000 1.634400 0.000000 
#    z 0.000000 0.000000 1.636530 
# 
# From -- ./inp_files/31459.got.cif
#   From: 2010.05.17/outbox.cif.g08.bks.cpg/sg42_16_cif.got.tgz:31459.got - 2010.06.03 19:03:34.
