data_PCOD9368652
_publ_section_title
;
Structure prediction by ZEFSAII (Michael W. Deem and Ramdas Pophale) SiO2 
 PCOD9368652
Probable space group: F M M 2
;
_chemical_formula_sum "Si O2"
_cell_formula_units_Z 96
_cell_length_a 25.959445
_cell_length_b 8.487803
_cell_length_c 24.360944
_cell_angle_alpha 90.000000
_cell_angle_beta 90.000000
_cell_angle_gamma 90.000000
_cell_volume 5367.657639
_symmetry_space_group_name_H-M "F M M 2"
_symmetry_group_IT_number 42
_symmetry_cell_setting 'orthorhombic'
loop_
_space_group_symop_operation_xyz
x,y,z
-x,-y,z
-x,y,z
x,-y,z
x,1/2+y,1/2+z
-x,1/2-y,1/2+z
-x,1/2+y,1/2+z
x,1/2-y,1/2+z
1/2+x,y,1/2+z
1/2-x,-y,1/2+z
1/2-x,y,1/2+z
1/2+x,-y,1/2+z
1/2+x,1/2+y,z
1/2-x,1/2-y,z
1/2-x,1/2+y,z
1/2+x,1/2-y,z
loop_
_atom_site_type_symbol
_atom_site_label
_atom_site_fract_x
_atom_site_fract_y
_atom_site_fract_z
Si Si1 0.000000 0.807871 0.663671
Si Si2 0.940213 0.809826 0.347432
Si Si3 0.307483 0.810906 0.157149
Si Si4 0.098848 0.809183 0.466772
Si Si5 0.599449 0.809580 0.233359
Si Si6 0.500000 0.307916 0.538002
Si Si7 0.192490 0.312636 0.536219
O O1 0.949218 0.758076 0.696444
O O2 0.000000 0.753971 0.600823
O O3 0.000000 0.000000 0.662706
O O4 0.914474 0.759812 0.404742
O O5 0.909558 0.751690 0.294455
O O6 0.000000 0.755857 0.344764
O O7 0.941148 0.000000 0.347253
O O8 0.250000 0.750000 0.168113
O O9 0.348482 0.758536 0.202765
O O10 0.322849 0.752493 0.096408
O O11 0.306812 0.000000 0.155794
O O12 0.151386 0.743355 0.491558
O O13 0.051127 0.759568 0.505427
O O14 0.101210 0.000000 0.467883
O O15 0.599336 0.000000 0.234771
O O16 0.500000 0.500000 0.538295
O O17 0.194154 0.500000 0.538880
O O18 0.250000 0.250000 0.524791
#
# Coordination Sequence:
#
# PCOD9368652 Si02
#       7
#     8  16  16  16  16   8  16
#     4   9  16  27  47  77 105 133 172 221 270 317
#     4  10  20  35  55  81 111 147 186 225 275 325
#     4  10  20  36  58  83 110 144 185 225 274 333
#     4  10  19  35  57  81 110 147 189 228 271 330
#     4  10  20  34  54  79 108 145 188 225 269 327
#     4   9  16  29  53  79 107 141 180 223 270 329
#     4  11  22  37  58  84 113 146 183 227 281 332
#
# _framework density 17.884896000000001
#
# number of rings (size 3 to 8) (size 9 to 14) (size 15 to 20)
#    0.000    2.000    1.667    4.000    0.000    4.667 
#    0.000    1.250    0.000    2.000    0.000    0.000 
#    0.000    0.000    0.000    0.000    0.000    0.000 
#
# Total GULP energy -134004.566430 kJ/mol
# GULP energy per Si atom -5583.523601 kJ/mol
# Density = 1.784419 g / cm^3
# Si number density = 17.884896 Si / 1000 Ang^3
#
#
#
# Elastic Constant Matrix: (Units=GPa)
#
#
# Indices 1 2 3 4 5 6 
#
# 1 113.5156 27.4087 95.4690 0.0000 0.0000 0.0000
# 2 27.4087 36.3809 28.6609 0.0000 0.0000 0.0000
# 3 95.4690 28.6609 180.1251 0.0000 0.0000 0.0000
# 4 0.0000 0.0000 0.0000 27.3621 0.0000 0.0000
# 5 0.0000 0.0000 0.0000 0.0000 31.1180 0.0000
# 6 0.0000 0.0000 0.0000 0.0000 0.0000 16.6893
#
#
#
# Elastic Compliance Matrix: (Units=1/GPa)
#
#
# Indices 1 2 3 4 5 6 
#
# 1 0.017175 -0.006595 -0.008054 0.000000 0.000000 0.000000
# 2 -0.006595 0.033958 -0.001908 0.000000 0.000000 0.000000
# 3 -0.008054 -0.001908 0.010124 0.000000 0.000000 0.000000
# 4 0.000000 0.000000 0.000000 0.036547 0.000000 0.000000
# 5 0.000000 0.000000 0.000000 0.000000 0.032136 0.000000
# 6 0.000000 0.000000 0.000000 0.000000 0.000000 0.059919
#
#
# Mechanical properties :
#
#
# Convention : Reuss Voigt Hill
#
# Bulk Modulus (GPa) = 35.53093 70.34429 52.93761
# Shear Modulus (GPa) = 21.51899 26.93274 24.22586
#
# Velocity S-wave (km/s) = 3.47247 3.88479 3.68440
# Velocity P-wave (km/s) = 5.99891 7.71617 6.91109
#
# Compressibility (1/GPa) = 0.02814449
#
# Stress axis : x y z
#
# Youngs Moduli (GPa) = 58.22429 29.44775 98.77646
#
# Poissons Ratio (x) = 0.19420 0.79551
# Poissons Ratio (y) = 0.38397 0.18848
# Poissons Ratio (z) = 0.46892 0.05619
#
# Static dielectric constant tensor:
#      x y z
#    x 1.595410 0.000000 0.000000 
#    y 0.000000 1.617520 0.000000 
#    z 0.000000 0.000000 1.589550 
# 
# From -- ./inp_files/30622.got.cif
#   From: 2010.05.17/outbox.cif.g08.bks.cpg/sg42_16_cif.got.tgz:30622.got - 2010.06.03 19:03:34.
