data_PCOD9368858
_publ_section_title
;
Structure prediction by ZEFSAII (Michael W. Deem and Ramdas Pophale) SiO2 
 PCOD9368858
Probable space group: F M M 2
;
_chemical_formula_sum "Si O2"
_cell_formula_units_Z 120
_cell_length_a 22.713744
_cell_length_b 21.308333
_cell_length_c 9.746201
_cell_angle_alpha 90.000000
_cell_angle_beta 90.000000
_cell_angle_gamma 90.000000
_cell_volume 4717.083517
_symmetry_space_group_name_H-M "F M M 2"
_symmetry_group_IT_number 42
_symmetry_cell_setting 'orthorhombic'
loop_
_space_group_symop_operation_xyz
x,y,z
-x,-y,z
-x,y,z
x,-y,z
x,1/2+y,1/2+z
-x,1/2-y,1/2+z
-x,1/2+y,1/2+z
x,1/2-y,1/2+z
1/2+x,y,1/2+z
1/2-x,-y,1/2+z
1/2-x,y,1/2+z
1/2+x,-y,1/2+z
1/2+x,1/2+y,z
1/2-x,1/2-y,z
1/2-x,1/2+y,z
1/2+x,1/2-y,z
loop_
_atom_site_type_symbol
_atom_site_label
_atom_site_fract_x
_atom_site_fract_y
_atom_site_fract_z
Si Si1 0.433950 0.104748 0.122570
Si Si2 0.760098 0.570972 0.684967
Si Si3 0.180448 0.248336 0.302879
Si Si4 0.149332 0.893354 0.852581
Si Si5 0.584199 0.271945 0.488764
Si Si6 0.392384 0.651952 0.123474
Si Si7 0.820813 0.924715 0.445184
Si Si8 0.500000 0.159970 0.776977
O O1 0.500000 0.082689 0.092131
O O2 0.408283 0.085440 0.268832
O O3 0.384881 0.086355 0.010125
O O4 0.434452 0.180225 0.106896
O O5 0.776795 0.500000 0.649070
O O6 0.704531 0.569903 0.791190
O O7 0.728915 0.601130 0.551340
O O8 0.810165 0.597262 0.788626
O O9 0.250000 0.250000 0.296365
O O10 0.160920 0.321007 0.307156
O O11 0.152443 0.221444 0.443732
O O12 0.151365 0.205123 0.186655
O O13 0.140944 0.892712 0.015605
O O14 0.569722 0.201256 0.527982
O O15 0.549845 0.296024 0.355805
O O16 0.444712 0.620848 0.209661
O O17 0.813563 0.000000 0.442769
#
# Coordination Sequence:
#
# PCOD9368858 Si02
#       8
#    16  16  16  16  16  16  16   8
#     4  11  22  36  57  83 116 154 197 240 288 348
#     4   9  19  39  64  90 118 151 197 248 299 361
#     4  10  22  36  52  78 115 151 191 236 291 346
#     4  10  22  37  55  87 114 157 189 243 295 345
#     4  10  20  35  49  76 106 145 192 230 278 331
#     4  10  21  34  53  77 106 151 193 231 280 340
#     4   9  20  39  63  91 118 149 194 246 306 359
#     4  10  20  34  52  72 103 144 189 240 268 324
#
# _framework density 25.439449
#
# number of rings (size 3 to 8) (size 9 to 14) (size 15 to 20)
#    0.000    2.133    2.000    0.400    2.800    4.533 
#    2.400    0.000    0.000    0.000    0.000    0.933 
#    0.000    5.333    0.000    0.000    0.000    0.000 
#
# Total GULP energy -167014.889827 kJ/mol
# GULP energy per Si atom -5567.162994 kJ/mol
# Density = 2.538155 g / cm^3
# Si number density = 25.439449 Si / 1000 Ang^3
#
#
#
# Elastic Constant Matrix: (Units=GPa)
#
#
# Indices 1 2 3 4 5 6 
#
# 1 172.9154 -0.5661 20.4594 -0.0001 0.0000 0.0001
# 2 -0.5661 55.9919 3.8242 0.0000 0.0000 0.0000
# 3 20.4594 3.8242 98.5151 -0.0002 0.0001 0.0001
# 4 -0.0001 0.0000 -0.0002 20.4409 0.0000 0.0000
# 5 0.0000 0.0000 0.0001 0.0000 21.6510 0.0000
# 6 0.0001 0.0000 0.0001 0.0000 0.0000 11.6973
#
#
#
# Elastic Compliance Matrix: (Units=1/GPa)
#
#
# Indices 1 2 3 4 5 6 
#
# 1 0.005930 0.000144 -0.001237 0.000000 0.000000 0.000000
# 2 0.000144 0.017911 -0.000725 0.000000 0.000000 0.000000
# 3 -0.001237 -0.000725 0.010436 0.000000 0.000000 0.000000
# 4 0.000000 0.000000 0.000000 0.048922 0.000000 0.000000
# 5 0.000000 0.000000 0.000000 0.000000 0.046187 0.000000
# 6 0.000000 0.000000 0.000000 0.000000 0.000000 0.085490
#
#
# Mechanical properties :
#
#
# Convention : Reuss Voigt Hill
#
# Bulk Modulus (GPa) = 32.63640 41.65083 37.14362
# Shear Modulus (GPa) = 21.86037 31.00484 26.43260
#
# Velocity S-wave (km/s) = 2.93458 3.49488 3.22691
# Velocity P-wave (km/s) = 4.93348 5.71783 5.34008
#
# Compressibility (1/GPa) = 0.03064064
#
# Stress axis : x y z
#
# Youngs Moduli (GPa) = 168.63326 55.83249 95.82390
#
# Poissons Ratio (x) = -0.00806 0.11855
# Poissons Ratio (y) = -0.02436 0.06950
# Poissons Ratio (z) = 0.20862 0.04049
#
# Static dielectric constant tensor:
#      x y z
#    x 2.166780 0.000000 0.000000 
#    y 0.000000 2.010350 0.000000 
#    z 0.000000 0.000000 2.156540 
# 
# From -- ./inp_files/9713.got.cif
#   From: 2010.05.17/outbox.cif.g08.bks.cpg/sg42_5_cif.got.tgz:9713.got - 2010.06.03 19:03:34.
