data_PCOD9368484
_publ_section_title
;
Structure prediction by ZEFSAII (Michael W. Deem and Ramdas Pophale) SiO2 
 PCOD9368484
Probable space group: F M M 2
;
_chemical_formula_sum "Si O2"
_cell_formula_units_Z 96
_cell_length_a 19.896360
_cell_length_b 13.528345
_cell_length_c 17.241791
_cell_angle_alpha 90.000000
_cell_angle_beta 90.000000
_cell_angle_gamma 90.000000
_cell_volume 4640.883611
_symmetry_space_group_name_H-M "F M M 2"
_symmetry_group_IT_number 42
_symmetry_cell_setting 'orthorhombic'
loop_
_space_group_symop_operation_xyz
x,y,z
-x,-y,z
-x,y,z
x,-y,z
x,1/2+y,1/2+z
-x,1/2-y,1/2+z
-x,1/2+y,1/2+z
x,1/2-y,1/2+z
1/2+x,y,1/2+z
1/2-x,-y,1/2+z
1/2-x,y,1/2+z
1/2+x,-y,1/2+z
1/2+x,1/2+y,z
1/2-x,1/2-y,z
1/2-x,1/2+y,z
1/2+x,1/2-y,z
loop_
_atom_site_type_symbol
_atom_site_label
_atom_site_fract_x
_atom_site_fract_y
_atom_site_fract_z
Si Si1 0.072850 0.188574 0.172120
Si Si2 0.423764 0.118841 0.983638
Si Si3 0.072148 0.614583 0.266760
Si Si4 0.860070 0.116416 0.324360
Si Si5 0.217839 0.881964 0.759346
Si Si6 0.317913 0.217240 0.094154
O O1 0.069034 0.303995 0.199009
O O2 0.092292 0.132685 0.250497
O O3 0.136119 0.187900 0.115717
O O4 0.000000 0.158030 0.142521
O O5 0.500000 0.154733 0.000158
O O6 0.397030 0.156702 0.900324
O O7 0.427365 0.000000 0.981715
O O8 0.367498 0.149669 0.044942
O O9 0.073913 0.500000 0.239537
O O10 0.145906 0.632943 0.302905
O O11 0.000000 0.625837 0.309564
O O12 0.785904 0.154461 0.300641
O O13 0.851864 0.000000 0.338328
O O14 0.207117 0.835341 0.673924
O O15 0.226034 0.000000 0.749604
O O16 0.250000 0.250000 0.051852
#
# Coordination Sequence:
#
# PCOD9368484 Si02
#       6
#    16  16  16  16  16  16
#     4  10  19  32  54  81 111 145 186 236 280 333
#     4  10  22  40  61  84 113 150 193 243 293 339
#     4   8  15  27  45  73 107 141 176 218 274 330
#     4  10  20  36  57  81 110 147 192 240 284 330
#     4   9  17  31  53  78 110 144 184 233 276 331
#     4  11  20  35  52  84 115 148 184 223 287 348
#
# _framework density 20.685715999999999
#
# number of rings (size 3 to 8) (size 9 to 14) (size 15 to 20)
#    0.000    2.333    1.667    1.500    0.000    2.333 
#    6.000    6.667    0.000    0.000    0.000    1.167 
#    0.000    4.000    0.000    0.000    0.000    0.000 
#
# Total GULP energy -133617.330822 kJ/mol
# GULP energy per Si atom -5567.388784 kJ/mol
# Density = 2.063863 g / cm^3
# Si number density = 20.685716 Si / 1000 Ang^3
#
#
#
# Elastic Constant Matrix: (Units=GPa)
#
#
# Indices 1 2 3 4 5 6 
#
# 1 220.0703 24.0423 42.6250 0.0000 0.0000 0.0000
# 2 24.0423 25.8235 4.3121 0.0000 0.0000 0.0000
# 3 42.6250 4.3121 47.1058 0.0000 0.0000 0.0000
# 4 0.0000 0.0000 0.0000 14.5201 0.0000 0.0000
# 5 0.0000 0.0000 0.0000 0.0000 19.0316 0.0000
# 6 0.0000 0.0000 0.0000 0.0000 0.0000 20.9894
#
#
#
# Elastic Compliance Matrix: (Units=1/GPa)
#
#
# Indices 1 2 3 4 5 6 
#
# 1 0.006041 -0.004784 -0.005028 0.000000 0.000000 0.000000
# 2 -0.004784 0.043115 0.000382 0.000000 0.000000 0.000000
# 3 -0.005028 0.000382 0.025744 0.000000 0.000000 0.000000
# 4 0.000000 0.000000 0.000000 0.068870 0.000000 0.000000
# 5 0.000000 0.000000 0.000000 0.000000 0.052544 0.000000
# 6 0.000000 0.000000 0.000000 0.000000 0.000000 0.047643
#
#
# Mechanical properties :
#
#
# Convention : Reuss Voigt Hill
#
# Bulk Modulus (GPa) = 17.84464 48.32869 33.08667
# Shear Modulus (GPa) = 17.76226 25.70957 21.73592
#
# Velocity S-wave (km/s) = 2.93349 3.52926 3.24507
# Velocity P-wave (km/s) = 4.48543 6.32626 5.48364
#
# Compressibility (1/GPa) = 0.05603924
#
# Stress axis : x y z
#
# Youngs Moduli (GPa) = 165.54817 23.19383 38.84470
#
# Poissons Ratio (x) = 0.11097 0.19531
# Poissons Ratio (y) = 0.79203 -0.01485
# Poissons Ratio (z) = 0.83237 -0.00887
#
# Static dielectric constant tensor:
#      x y z
#    x 1.851700 0.000000 0.000000 
#    y 0.000000 1.769990 0.000000 
#    z 0.000000 0.000000 1.742430 
# 
# From -- ./inp_files/15842.got.cif
#   From: 2010.05.17/outbox.cif.g08.bks.cpg/sg42_8_cif.got.tgz:15842.got - 2010.06.03 19:03:34.
