data_PCOD9368527
_publ_section_title
;
Structure prediction by ZEFSAII (Michael W. Deem and Ramdas Pophale) SiO2 
 PCOD9368527
Probable space group: F M M 2
;
_chemical_formula_sum "Si O2"
_cell_formula_units_Z 116
_cell_length_a 26.203743
_cell_length_b 7.622731
_cell_length_c 27.663599
_cell_angle_alpha 90.000000
_cell_angle_beta 90.000000
_cell_angle_gamma 90.000000
_cell_volume 5525.640245
_symmetry_space_group_name_H-M "F M M 2"
_symmetry_group_IT_number 42
_symmetry_cell_setting 'orthorhombic'
loop_
_space_group_symop_operation_xyz
x,y,z
-x,-y,z
-x,y,z
x,-y,z
x,1/2+y,1/2+z
-x,1/2-y,1/2+z
-x,1/2+y,1/2+z
x,1/2-y,1/2+z
1/2+x,y,1/2+z
1/2-x,-y,1/2+z
1/2-x,y,1/2+z
1/2+x,-y,1/2+z
1/2+x,1/2+y,z
1/2-x,1/2-y,z
1/2-x,1/2+y,z
1/2+x,1/2-y,z
loop_
_atom_site_type_symbol
_atom_site_label
_atom_site_fract_x
_atom_site_fract_y
_atom_site_fract_z
Si Si1 0.500000 0.500000 0.676025
Si Si2 0.943407 0.712668 0.348262
Si Si3 0.666076 0.706214 0.313583
Si Si4 0.086970 0.799823 0.954811
Si Si5 0.806248 0.790752 0.419026
Si Si6 0.442971 0.295514 0.560835
Si Si7 0.588647 0.703972 0.160176
Si Si8 0.693747 0.790076 0.709646
O O1 0.544900 0.342540 0.675206
O O2 0.941400 0.500000 0.348592
O O3 0.895299 0.774326 0.317161
O O4 0.934676 0.773133 0.403991
O O5 0.000000 0.765472 0.331951
O O6 0.678067 0.500000 0.314095
O O7 0.687867 0.779022 0.363933
O O8 0.688109 0.782606 0.264366
O O9 0.147778 0.791025 0.948886
O O10 0.069106 0.000000 0.957643
O O11 0.072008 0.714355 0.005042
O O12 0.750000 0.750000 0.436963
O O13 0.814368 0.000000 0.418837
O O14 0.500000 0.222013 0.565756
O O15 0.445232 0.500000 0.574255
O O16 0.409195 0.206481 0.601548
O O17 0.578603 0.500000 0.175235
O O18 0.643542 0.763594 0.180461
O O19 0.750000 0.750000 0.690117
O O20 0.690388 0.000000 0.712479
#
# Coordination Sequence:
#
# PCOD9368527 Si02
#       8
#     4  16  16  16  16  16  16  16
#     4  12  22  44  68  98 128 164 206 266 320 394
#     4   9  18  33  49  76 114 153 193 240 293 352
#     4   9  19  36  55  81 111 147 196 241 298 359
#     4  10  20  33  53  79 112 150 193 238 291 354
#     4  10  19  33  54  78 109 146 188 241 292 348
#     4  11  21  37  59  88 118 153 198 243 294 363
#     4  11  23  42  66  96 130 164 208 264 320 374
#     4  10  23  41  64  90 121 160 205 258 314 379
#
# _framework density 20.993041999999999
#
# number of rings (size 3 to 8) (size 9 to 14) (size 15 to 20)
#    0.000    1.931    1.379    2.276    0.966    3.310 
#    1.241    0.690    0.000    1.655    0.000    0.000 
#    0.000    0.000    0.000    0.000    0.000    0.000 
#
# Total GULP energy -161612.616254 kJ/mol
# GULP energy per Si atom -5572.848836 kJ/mol
# Density = 2.094526 g / cm^3
# Si number density = 20.993042 Si / 1000 Ang^3
#
#
#
# Elastic Constant Matrix: (Units=GPa)
#
#
# Indices 1 2 3 4 5 6 
#
# 1 131.0936 11.5751 31.6634 0.0001 0.0000 -0.0006
# 2 11.5751 81.8319 6.6469 0.0003 -0.0001 -0.0011
# 3 31.6634 6.6469 54.6418 0.0000 0.0000 0.0001
# 4 0.0001 0.0003 0.0000 7.8690 -0.0001 -0.0001
# 5 0.0000 -0.0001 0.0000 -0.0001 7.7629 0.0001
# 6 -0.0006 -0.0011 0.0001 -0.0001 0.0001 33.4532
#
#
#
# Elastic Compliance Matrix: (Units=1/GPa)
#
#
# Indices 1 2 3 4 5 6 
#
# 1 0.008928 -0.000851 -0.005070 0.000000 0.000000 0.000000
# 2 -0.000851 0.012423 -0.001018 0.000000 0.000000 0.000000
# 3 -0.005070 -0.001018 0.021363 0.000000 0.000000 0.000000
# 4 0.000000 0.000000 0.000000 0.127081 0.000001 0.000001
# 5 0.000000 0.000000 0.000000 0.000001 0.128818 0.000000
# 6 0.000000 0.000000 0.000000 0.000001 0.000000 0.029893
#
#
# Mechanical properties :
#
#
# Convention : Reuss Voigt Hill
#
# Bulk Modulus (GPa) = 34.67916 40.81536 37.74726
# Shear Modulus (GPa) = 14.20475 24.32915 19.26695
#
# Velocity S-wave (km/s) = 2.60405 3.40798 3.03277
# Velocity P-wave (km/s) = 5.05932 5.91357 5.50304
#
# Compressibility (1/GPa) = 0.02883576
#
# Stress axis : x y z
#
# Youngs Moduli (GPa) = 112.00935 80.49430 46.81053
#
# Poissons Ratio (x) = 0.06850 0.23732
# Poissons Ratio (y) = 0.09532 0.04766
# Poissons Ratio (z) = 0.56788 0.08195
#
# Static dielectric constant tensor:
#      x y z
#    x 1.756250 0.000000 0.000000 
#    y 0.000000 1.799250 0.000000 
#    z 0.000000 0.000000 1.771180 
# 
# From -- ./inp_files/33269.got.cif
#   From: 2010.05.17/outbox.cif.g08.bks.cpg/sg42_17_cif.got.tgz:33269.got - 2010.06.03 19:03:34.
