data_PCOD9368726
_publ_section_title
;
Structure prediction by ZEFSAII (Michael W. Deem and Ramdas Pophale) SiO2 
 PCOD9368726
Probable space group: F M M 2
;
_chemical_formula_sum "Si O2"
_cell_formula_units_Z 104
_cell_length_a 21.756812
_cell_length_b 15.227028
_cell_length_c 14.082168
_cell_angle_alpha 90.000000
_cell_angle_beta 90.000000
_cell_angle_gamma 90.000000
_cell_volume 4665.303764
_symmetry_space_group_name_H-M "F M M 2"
_symmetry_group_IT_number 42
_symmetry_cell_setting 'orthorhombic'
loop_
_space_group_symop_operation_xyz
x,y,z
-x,-y,z
-x,y,z
x,-y,z
x,1/2+y,1/2+z
-x,1/2-y,1/2+z
-x,1/2+y,1/2+z
x,1/2-y,1/2+z
1/2+x,y,1/2+z
1/2-x,-y,1/2+z
1/2-x,y,1/2+z
1/2+x,-y,1/2+z
1/2+x,1/2+y,z
1/2-x,1/2-y,z
1/2-x,1/2+y,z
1/2+x,1/2-y,z
loop_
_atom_site_type_symbol
_atom_site_label
_atom_site_fract_x
_atom_site_fract_y
_atom_site_fract_z
Si Si1 0.274133 0.102171 0.063260
Si Si2 0.750000 0.750000 0.217525
Si Si3 0.612470 0.723767 0.278424
Si Si4 0.500000 0.098969 0.006099
Si Si5 0.387503 0.287232 0.502280
Si Si6 0.863702 0.095668 0.002672
Si Si7 0.500000 0.100226 0.774057
Si Si8 0.572855 0.905563 0.295890
O O1 0.264407 0.163479 0.154951
O O2 0.289571 0.000000 0.082338
O O3 0.326125 0.155709 0.008701
O O4 0.210171 0.101548 0.005175
O O5 0.686309 0.720721 0.267664
O O6 0.600061 0.726989 0.391100
O O7 0.562871 0.651058 0.245162
O O8 0.594190 0.819868 0.240852
O O9 0.558349 0.152847 0.039103
O O10 0.500000 0.096147 0.890157
O O11 0.500000 0.000000 0.040813
O O12 0.383446 0.189577 0.546400
O O13 0.891270 0.092617 0.896710
O O14 0.879783 0.000000 0.047345
O O15 0.500000 0.000000 0.739455
O O16 0.500000 0.898116 0.315085
O O17 0.584464 0.000000 0.249026
#
# Coordination Sequence:
#
# PCOD9368726 Si02
#       8
#    16   8  16   8  16  16   8  16
#     4  11  23  42  61  82 119 162 199 243 298 357
#     4  12  26  40  56  88 126 164 204 244 302 362
#     4  10  22  36  62  91 120 156 202 252 302 360
#     4   9  18  32  56  93 119 143 193 254 304 352
#     4  10  19  36  63  89 115 151 196 250 301 347
#     4   9  18  31  56  86 113 145 189 237 293 352
#     4   9  18  38  60  85 121 159 203 252 306 360
#     4   9  17  32  59  92 120 145 185 247 307 357
#
# _framework density 22.292225999999999
#
# number of rings (size 3 to 8) (size 9 to 14) (size 15 to 20)
#    0.000    2.154    2.308    0.462    7.538    1.846 
#    0.000    0.769    1.692    0.000    0.000    0.000 
#    0.000    0.000    0.000    0.000    0.000    0.000 
#
# Total GULP energy -144980.998883 kJ/mol
# GULP energy per Si atom -5576.192265 kJ/mol
# Density = 2.224149 g / cm^3
# Si number density = 22.292226 Si / 1000 Ang^3
#
#
#
# Elastic Constant Matrix: (Units=GPa)
#
#
# Indices 1 2 3 4 5 6 
#
# 1 131.1285 82.8257 19.3512 0.0000 0.0000 0.0000
# 2 82.8257 261.3905 14.8737 0.0000 0.0000 0.0000
# 3 19.3512 14.8737 39.0675 0.0000 0.0000 0.0000
# 4 0.0000 0.0000 0.0000 57.5834 0.0000 0.0000
# 5 0.0000 0.0000 0.0000 0.0000 187.5275 0.0000
# 6 0.0000 0.0000 0.0000 0.0000 0.0000 36.0397
#
#
#
# Elastic Compliance Matrix: (Units=1/GPa)
#
#
# Indices 1 2 3 4 5 6 
#
# 1 0.010073 -0.002972 -0.003858 0.000000 0.000000 0.000000
# 2 -0.002972 0.004787 -0.000350 0.000000 0.000000 0.000000
# 3 -0.003858 -0.000350 0.027641 0.000000 0.000000 0.000000
# 4 0.000000 0.000000 0.000000 0.017366 0.000000 0.000000
# 5 0.000000 0.000000 0.000000 0.000000 0.005333 0.000000
# 6 0.000000 0.000000 0.000000 0.000000 0.000000 0.027747
#
#
# Mechanical properties :
#
#
# Convention : Reuss Voigt Hill
#
# Bulk Modulus (GPa) = 35.53610 73.96529 54.75069
# Shear Modulus (GPa) = 42.84933 77.19918 60.02426
#
# Velocity S-wave (km/s) = 4.38901 5.89116 5.19467
# Velocity P-wave (km/s) = 6.45447 8.91775 7.78416
#
# Compressibility (1/GPa) = 0.02814040
#
# Stress axis : x y z
#
# Youngs Moduli (GPa) = 99.27766 208.88070 36.17816
#
# Poissons Ratio (x) = 0.62083 0.13957
# Poissons Ratio (y) = 0.29507 0.01268
# Poissons Ratio (z) = 0.38299 0.07320
#
# Static dielectric constant tensor:
#      x y z
#    x 1.775820 0.000000 0.000000 
#    y 0.000000 1.833290 0.000000 
#    z 0.000000 0.000000 1.817410 
# 
# From -- ./inp_files/21716.got.cif
#   From: 2010.05.17/outbox.cif.g08.bks.cpg/sg42_11_cif.got.tgz:21716.got - 2010.06.03 19:03:34.
