data_PCOD9368697
_publ_section_title
;
Structure prediction by ZEFSAII (Michael W. Deem and Ramdas Pophale) SiO2 
 PCOD9368697
Probable space group: F M M 2
;
_chemical_formula_sum "Si O2"
_cell_formula_units_Z 88
_cell_length_a 10.607286
_cell_length_b 33.523573
_cell_length_c 14.277269
_cell_angle_alpha 90.000000
_cell_angle_beta 90.000000
_cell_angle_gamma 90.000000
_cell_volume 5076.913000
_symmetry_space_group_name_H-M "F M M 2"
_symmetry_group_IT_number 42
_symmetry_cell_setting 'orthorhombic'
loop_
_space_group_symop_operation_xyz
x,y,z
-x,-y,z
-x,y,z
x,-y,z
x,1/2+y,1/2+z
-x,1/2-y,1/2+z
-x,1/2+y,1/2+z
x,1/2-y,1/2+z
1/2+x,y,1/2+z
1/2-x,-y,1/2+z
1/2-x,y,1/2+z
1/2+x,-y,1/2+z
1/2+x,1/2+y,z
1/2-x,1/2-y,z
1/2-x,1/2+y,z
1/2+x,1/2-y,z
loop_
_atom_site_type_symbol
_atom_site_label
_atom_site_fract_x
_atom_site_fract_y
_atom_site_fract_z
Si Si1 0.352999 0.653889 0.091880
Si Si2 0.241292 0.909070 0.728674
Si Si3 0.144902 0.783897 0.257642
Si Si4 0.773559 0.352781 0.898354
Si Si5 0.500000 0.046635 0.780051
Si Si6 0.500000 0.547153 0.661743
Si Si7 0.000000 0.091620 0.465338
O O1 0.500000 0.641831 0.097075
O O2 0.267415 0.619979 0.140565
O O3 0.340260 0.692304 0.159384
O O4 0.313888 0.660329 0.984479
O O5 0.213346 0.880919 0.818258
O O6 0.373211 0.932129 0.743500
O O7 0.126581 0.939002 0.714115
O O8 0.250000 0.750000 0.264127
O O9 0.168057 0.815909 0.340658
O O10 0.000000 0.769295 0.263104
O O11 0.881720 0.380148 0.943685
O O12 0.500000 0.055789 0.890563
O O13 0.500000 0.000000 0.758775
O O14 0.500000 0.500000 0.646056
O O15 0.500000 0.572278 0.566196
#
# Coordination Sequence:
#
# PCOD9368697 Si02
#       7
#    16  16  16  16   8   8   8
#     4  10  20  38  61  84 112 154 202 240 280 348
#     4  10  21  36  58  82 115 152 194 239 290 351
#     4  10  22  41  60  88 123 153 190 242 296 349
#     4  10  20  38  63  83 112 157 197 234 284 349
#     4  10  19  36  57  78 106 156 197 231 287 354
#     4  12  23  36  55  91 126 149 186 259 310 336
#     4  10  19  36  60  81 108 155 201 236 275 352
#
# _framework density 17.333366999999999
#
# number of rings (size 3 to 8) (size 9 to 14) (size 15 to 20)
#    0.000    1.818    3.636    0.818    1.273    1.455 
#    6.545    1.818    0.000    1.091    0.000    0.000 
#    0.000    0.000    0.000    0.000    0.000    0.000 
#
# Total GULP energy -122673.895002 kJ/mol
# GULP energy per Si atom -5576.086136 kJ/mol
# Density = 1.729392 g / cm^3
# Si number density = 17.333367 Si / 1000 Ang^3
#
#
#
# Elastic Constant Matrix: (Units=GPa)
#
#
# Indices 1 2 3 4 5 6 
#
# 1 101.2953 52.4859 45.9867 0.0000 0.0000 0.0000
# 2 52.4859 88.0157 37.6856 0.0000 0.0000 0.0000
# 3 45.9867 37.6856 115.0658 0.0000 0.0000 0.0000
# 4 0.0000 0.0000 0.0000 15.7211 0.0000 0.0000
# 5 0.0000 0.0000 0.0000 0.0000 22.5910 0.0000
# 6 0.0000 0.0000 0.0000 0.0000 0.0000 23.7129
#
#
#
# Elastic Compliance Matrix: (Units=1/GPa)
#
#
# Indices 1 2 3 4 5 6 
#
# 1 0.015526 -0.007679 -0.003690 0.000000 0.000000 0.000000
# 2 -0.007679 0.017012 -0.002503 0.000000 0.000000 0.000000
# 3 -0.003690 -0.002503 0.010985 0.000000 0.000000 0.000000
# 4 0.000000 0.000000 0.000000 0.063609 0.000000 0.000000
# 5 0.000000 0.000000 0.000000 0.000000 0.044265 0.000000
# 6 0.000000 0.000000 0.000000 0.000000 0.000000 0.042171
#
#
# Mechanical properties :
#
#
# Convention : Reuss Voigt Hill
#
# Bulk Modulus (GPa) = 63.37116 64.07701 63.72408
# Shear Modulus (GPa) = 22.06802 23.61958 22.84380
#
# Velocity S-wave (km/s) = 3.57200 3.69543 3.63424
# Velocity P-wave (km/s) = 7.32474 7.43344 7.37929
#
# Compressibility (1/GPa) = 0.01578005
#
# Stress axis : x y z
#
# Youngs Moduli (GPa) = 64.40781 58.78135 91.03107
#
# Poissons Ratio (x) = 0.45135 0.33593
# Poissons Ratio (y) = 0.49456 0.22785
# Poissons Ratio (z) = 0.23768 0.14713
#
# Static dielectric constant tensor:
#      x y z
#    x 1.583140 0.000000 0.000000 
#    y 0.000000 1.561130 0.000000 
#    z 0.000000 0.000000 1.588620 
# 
# From -- ./inp_files/7071.got.cif
#   From: 2010.05.17/outbox.cif.g08.bks.cpg/sg42_4_cif.got.tgz:7071.got - 2010.06.03 19:03:34.
