data_PCOD9368826
_publ_section_title
;
Structure prediction by ZEFSAII (Michael W. Deem and Ramdas Pophale) SiO2 
 PCOD9368826
Probable space group: F M M 2
;
_chemical_formula_sum "Si O2"
_cell_formula_units_Z 80
_cell_length_a 16.270701
_cell_length_b 7.800070
_cell_length_c 29.892944
_cell_angle_alpha 90.000000
_cell_angle_beta 90.000000
_cell_angle_gamma 90.000000
_cell_volume 3793.791446
_symmetry_space_group_name_H-M "F M M 2"
_symmetry_group_IT_number 42
_symmetry_cell_setting 'orthorhombic'
loop_
_space_group_symop_operation_xyz
x,y,z
-x,-y,z
-x,y,z
x,-y,z
x,1/2+y,1/2+z
-x,1/2-y,1/2+z
-x,1/2+y,1/2+z
x,1/2-y,1/2+z
1/2+x,y,1/2+z
1/2-x,-y,1/2+z
1/2-x,y,1/2+z
1/2+x,-y,1/2+z
1/2+x,1/2+y,z
1/2-x,1/2-y,z
1/2-x,1/2+y,z
1/2+x,1/2-y,z
loop_
_atom_site_type_symbol
_atom_site_label
_atom_site_fract_x
_atom_site_fract_y
_atom_site_fract_z
Si Si1 0.590211 0.206277 0.746750
Si Si2 0.654742 0.706101 0.340790
Si Si3 0.339556 0.298077 0.655283
Si Si4 0.000000 0.290211 0.000157
Si Si5 0.845798 0.706764 0.940945
Si Si6 0.000000 0.789095 0.603544
O O1 0.500000 0.268423 0.732762
O O2 0.609591 0.271548 0.796518
O O3 0.652254 0.251713 0.707515
O O4 0.588946 0.000000 0.749348
O O5 0.644165 0.500000 0.341607
O O6 0.750000 0.750000 0.334592
O O7 0.632918 0.769325 0.390504
O O8 0.346031 0.500000 0.652073
O O9 0.250000 0.250000 0.637719
O O10 0.417856 0.226065 0.628613
O O11 0.083481 0.233832 0.974896
O O12 0.000000 0.500000 0.999111
O O13 0.000000 0.237998 0.051774
O O14 0.849332 0.500000 0.940243
O O15 0.750000 0.750000 0.950723
O O16 0.000000 0.000000 0.604519
#
# Coordination Sequence:
#
# PCOD9368826 Si02
#       6
#    16  16  16   8  16   8
#     4  10  20  33  52  79 111 143 180 222 263 314
#     4   9  18  31  48  74 106 140 175 215 257 307
#     4  11  22  38  58  80 108 143 181 223 270 321
#     4   9  18  34  58  81 103 139 179 217 266 325
#     4   9  18  33  55  80 108 140 178 217 260 313
#     4   9  20  38  56  79 109 137 175 223 272 325
#
# _framework density 21.087084999999998
#
# number of rings (size 3 to 8) (size 9 to 14) (size 15 to 20)
#    0.000    2.400    1.000    1.200    1.400    3.200 
#    0.000    0.500    0.000    3.600    0.000    0.000 
#    0.000    0.000    0.000    0.000    0.000    0.000 
#
# Total GULP energy -111583.625455 kJ/mol
# GULP energy per Si atom -5579.181273 kJ/mol
# Density = 2.103909 g / cm^3
# Si number density = 21.087085 Si / 1000 Ang^3
#
#
#
# Elastic Constant Matrix: (Units=GPa)
#
#
# Indices 1 2 3 4 5 6 
#
# 1 155.1303 6.8076 99.1696 0.0000 0.0000 0.0000
# 2 6.8076 27.0331 8.4869 0.0000 0.0000 0.0000
# 3 99.1696 8.4869 144.9133 0.0000 0.0000 0.0000
# 4 0.0000 0.0000 0.0000 12.7239 0.0000 0.0000
# 5 0.0000 0.0000 0.0000 0.0000 21.3709 0.0000
# 6 0.0000 0.0000 0.0000 0.0000 0.0000 18.6531
#
#
#
# Elastic Compliance Matrix: (Units=1/GPa)
#
#
# Indices 1 2 3 4 5 6 
#
# 1 0.011464 -0.000432 -0.007820 0.000000 0.000000 0.000000
# 2 -0.000432 0.037701 -0.001912 0.000000 0.000000 0.000000
# 3 -0.007820 -0.001912 0.012364 0.000000 0.000000 0.000000
# 4 0.000000 0.000000 0.000000 0.078592 0.000000 0.000000
# 5 0.000000 0.000000 0.000000 0.000000 0.046793 0.000000
# 6 0.000000 0.000000 0.000000 0.000000 0.000000 0.053610
#
#
# Mechanical properties :
#
#
# Convention : Reuss Voigt Hill
#
# Bulk Modulus (GPa) = 24.27155 61.77832 43.02494
# Shear Modulus (GPa) = 18.20915 24.72375 21.46645
#
# Velocity S-wave (km/s) = 2.94176 3.42783 3.19406
# Velocity P-wave (km/s) = 4.80351 6.71022 5.83527
#
# Compressibility (1/GPa) = 0.04120049
#
# Stress axis : x y z
#
# Youngs Moduli (GPa) = 87.22716 26.52465 80.87790
#
# Poissons Ratio (x) = 0.01146 0.63248
# Poissons Ratio (y) = 0.03767 0.15467
# Poissons Ratio (z) = 0.68213 0.05073
#
# Static dielectric constant tensor:
#      x y z
#    x 1.752690 0.000000 0.000000 
#    y 0.000000 1.772240 0.000000 
#    z 0.000000 0.000000 1.760350 
# 
# From -- ./inp_files/31287.got.cif
#   From: 2010.05.17/outbox.cif.g08.bks.cpg/sg42_16_cif.got.tgz:31287.got - 2010.06.03 19:03:34.
