data_PCOD9368467
_publ_section_title
;
Structure prediction by ZEFSAII (Michael W. Deem and Ramdas Pophale) SiO2 
 PCOD9368467
Probable space group: F M M 2
;
_chemical_formula_sum "Si O2"
_cell_formula_units_Z 64
_cell_length_a 13.024510
_cell_length_b 19.377522
_cell_length_c 13.231851
_cell_angle_alpha 90.000000
_cell_angle_beta 90.000000
_cell_angle_gamma 90.000000
_cell_volume 3339.490666
_symmetry_space_group_name_H-M "F M M 2"
_symmetry_group_IT_number 42
_symmetry_cell_setting 'orthorhombic'
loop_
_space_group_symop_operation_xyz
x,y,z
-x,-y,z
-x,y,z
x,-y,z
x,1/2+y,1/2+z
-x,1/2-y,1/2+z
-x,1/2+y,1/2+z
x,1/2-y,1/2+z
1/2+x,y,1/2+z
1/2-x,-y,1/2+z
1/2-x,y,1/2+z
1/2+x,-y,1/2+z
1/2+x,1/2+y,z
1/2-x,1/2-y,z
1/2-x,1/2+y,z
1/2+x,1/2-y,z
loop_
_atom_site_type_symbol
_atom_site_label
_atom_site_fract_x
_atom_site_fract_y
_atom_site_fract_z
Si Si1 0.668939 0.650803 0.693540
Si Si2 0.114383 0.806019 0.258833
Si Si3 0.703405 0.674848 0.477514
Si Si4 0.115426 0.580756 0.392095
O O1 0.750000 0.750000 0.504394
O O2 0.792991 0.654076 0.704472
O O3 0.646249 0.645496 0.575459
O O4 0.627107 0.595375 0.772031
O O5 0.134102 0.815398 0.378342
O O6 0.129455 0.725209 0.233196
O O7 0.000000 0.827663 0.230513
O O8 0.797896 0.626198 0.445524
O O9 0.129381 0.500000 0.412607
O O10 0.000000 0.601452 0.422403
#
# Coordination Sequence:
#
# PCOD9368467 Si02
#       4
#    16  16  16  16
#     4  10  20  35  53  81 113 145 184 229 282 331
#     4  10  19  32  51  80 112 141 176 226 281 328
#     4  11  20  36  55  85 115 144 186 236 286 328
#     4  10  22  40  60  82 114 154 192 231 278 340
#
# _framework density 19.164598999999999
#
# number of rings (size 3 to 8) (size 9 to 14) (size 15 to 20)
#    0.000    1.750    7.500    0.750    0.000    4.000 
#    0.000    0.000    0.000   12.000    0.000    0.000 
#    0.000    0.000    0.000    0.000    0.000    0.000 
#
# Total GULP energy -89305.625013 kJ/mol
# GULP energy per Si atom -5581.601563 kJ/mol
# Density = 1.912098 g / cm^3
# Si number density = 19.164599 Si / 1000 Ang^3
#
#
#
# Elastic Constant Matrix: (Units=GPa)
#
#
# Indices 1 2 3 4 5 6 
#
# 1 101.3732 23.6924 3.2769 0.0000 0.0000 0.0000
# 2 23.6924 51.2122 10.8092 0.0000 0.0000 0.0000
# 3 3.2769 10.8092 114.3609 0.0000 0.0000 0.0000
# 4 0.0000 0.0000 0.0000 6.4394 0.0000 0.0000
# 5 0.0000 0.0000 0.0000 0.0000 -0.1546 0.0000
# 6 0.0000 0.0000 0.0000 0.0000 0.0000 6.9755
#
#
#
# Elastic Compliance Matrix: (Units=1/GPa)
#
#
# Indices 1 2 3 4 5 6 
#
# 1 0.011064 -0.005154 0.000170 0.000000 0.000000 0.000000
# 2 -0.005154 0.022325 -0.001962 0.000000 0.000000 0.000000
# 3 0.000170 -0.001962 0.008925 0.000000 0.000000 0.000000
# 4 0.000000 0.000000 0.000000 0.155293 0.000000 0.000000
# 5 0.000000 0.000000 0.000000 0.000000 -6.470075 0.000000
# 6 0.000000 0.000000 0.000000 0.000000 0.000000 0.143358
#
#
# Mechanical properties :
#
#
# Convention : Reuss Voigt Hill
#
# Bulk Modulus (GPa) = 35.18570 38.05592 36.62081
# Shear Modulus (GPa) = -0.81890 17.92993 8.55551
#
# Velocity S-wave (km/s) = -0.65439 3.06204 2.11516
# Velocity P-wave (km/s) = 4.22240 5.69227 5.01151
#
# Compressibility (1/GPa) = 0.02842064
#
# Stress axis : x y z
#
# Youngs Moduli (GPa) = 90.38577 44.79212 112.04657
#
# Poissons Ratio (x) = 0.23087 -0.01907
# Poissons Ratio (y) = 0.46588 0.21989
# Poissons Ratio (z) = -0.01538 0.08790
#
# Static dielectric constant tensor:
#      x y z
#    x 1.680710 0.000000 0.000000 
#    y 0.000000 1.629850 0.000000 
#    z 0.000000 0.000000 1.692670 
# 
# From -- ./inp_files/7495.got.cif
#   From: 2010.05.17/outbox.cif.g08.bks.cpg/sg42_4_cif.got.tgz:7495.got - 2010.06.03 19:03:34.
