data_PCOD9368766
_publ_section_title
;
Structure prediction by ZEFSAII (Michael W. Deem and Ramdas Pophale) SiO2 
 PCOD9368766
Probable space group: F M M 2
;
_chemical_formula_sum "Si O2"
_cell_formula_units_Z 116
_cell_length_a 18.168562
_cell_length_b 18.751544
_cell_length_c 17.498085
_cell_angle_alpha 90.000000
_cell_angle_beta 90.000000
_cell_angle_gamma 90.000000
_cell_volume 5961.397902
_symmetry_space_group_name_H-M "F M M 2"
_symmetry_group_IT_number 42
_symmetry_cell_setting 'orthorhombic'
loop_
_space_group_symop_operation_xyz
x,y,z
-x,-y,z
-x,y,z
x,-y,z
x,1/2+y,1/2+z
-x,1/2-y,1/2+z
-x,1/2+y,1/2+z
x,1/2-y,1/2+z
1/2+x,y,1/2+z
1/2-x,-y,1/2+z
1/2-x,y,1/2+z
1/2+x,-y,1/2+z
1/2+x,1/2+y,z
1/2-x,1/2-y,z
1/2-x,1/2+y,z
1/2+x,1/2-y,z
loop_
_atom_site_type_symbol
_atom_site_label
_atom_site_fract_x
_atom_site_fract_y
_atom_site_fract_z
Si Si1 0.867885 0.106011 0.333020
Si Si2 0.586835 0.195754 0.707745
Si Si3 0.336537 0.837499 0.434821
Si Si4 0.411289 0.417135 0.075156
Si Si5 0.686068 0.188551 0.149447
Si Si6 0.000000 0.500000 0.798413
Si Si7 0.835626 0.322146 0.973640
Si Si8 0.297788 0.581446 0.786984
O O1 0.872510 0.179967 0.286924
O O2 0.878034 0.120351 0.422624
O O3 0.786911 0.077233 0.315727
O O4 0.934749 0.060579 0.300711
O O5 0.500000 0.194401 0.716905
O O6 0.608299 0.134721 0.645676
O O7 0.613937 0.270586 0.677330
O O8 0.371242 0.888580 0.499407
O O9 0.249024 0.828973 0.446945
O O10 0.364551 0.757195 0.452509
O O11 0.342571 0.873203 0.351210
O O12 0.500000 0.412911 0.065777
O O13 0.393130 0.500000 0.091106
O O14 0.750000 0.250000 0.148500
O O15 0.703283 0.125224 0.207867
O O16 0.669497 0.165329 0.063359
O O17 0.325008 0.500000 0.779593
#
# Coordination Sequence:
#
# PCOD9368766 Si02
#       8
#    16  16  16  16  16   4  16  16
#     4  11  23  39  63  89 120 165 203 251 311 379
#     4  11  22  38  61  94 127 159 202 255 321 376
#     4  10  19  39  61  87 124 158 206 263 307 364
#     4  10  21  35  59  93 127 162 201 256 323 381
#     4  12  21  41  66  93 124 161 213 266 311 372
#     4  12  24  44  60  88 136 160 198 256 312 392
#     4  10  21  39  61  90 115 162 214 256 306 362
#     4  11  24  39  64  94 125 163 210 259 316 370
#
# _framework density 19.458524000000001
#
# number of rings (size 3 to 8) (size 9 to 14) (size 15 to 20)
#    0.000    1.241    5.517    1.241    2.897    0.000 
#    3.724    0.690    0.000    1.241    0.000    0.000 
#    0.000    0.000    0.000    0.000    0.000    0.000 
#
# Total GULP energy -161550.974405 kJ/mol
# GULP energy per Si atom -5570.723255 kJ/mol
# Density = 1.941424 g / cm^3
# Si number density = 19.458524 Si / 1000 Ang^3
#
#
#
# Elastic Constant Matrix: (Units=GPa)
#
#
# Indices 1 2 3 4 5 6 
#
# 1 24.1387 14.9988 5.9769 0.0000 0.0000 0.0000
# 2 14.9988 94.1911 52.2460 0.0000 0.0000 0.0000
# 3 5.9769 52.2460 139.7806 0.0000 0.0000 0.0000
# 4 0.0000 0.0000 0.0000 -60.9011 0.0000 0.0000
# 5 0.0000 0.0000 0.0000 0.0000 12.6392 0.0000
# 6 0.0000 0.0000 0.0000 0.0000 0.0000 25.5365
#
#
#
# Elastic Compliance Matrix: (Units=1/GPa)
#
#
# Indices 1 2 3 4 5 6 
#
# 1 0.046081 -0.007878 0.000974 0.000000 0.000000 0.000000
# 2 -0.007878 0.014740 -0.005173 0.000000 0.000000 0.000000
# 3 0.000974 -0.005173 0.009046 0.000000 0.000000 0.000000
# 4 0.000000 0.000000 0.000000 -0.016420 0.000000 0.000000
# 5 0.000000 0.000000 0.000000 0.000000 0.079119 0.000000
# 6 0.000000 0.000000 0.000000 0.000000 0.000000 0.039160
#
#
# Mechanical properties :
#
#
# Convention : Reuss Voigt Hill
#
# Bulk Modulus (GPa) = 21.87506 44.95042 33.41274
# Shear Modulus (GPa) = 23.68350 7.78084 15.73217
#
# Velocity S-wave (km/s) = 3.49252 2.00184 2.84649
# Velocity P-wave (km/s) = 5.24689 5.33797 5.29263
#
# Compressibility (1/GPa) = 0.04571417
#
# Stress axis : x y z
#
# Youngs Moduli (GPa) = 21.70076 67.84071 110.54852
#
# Poissons Ratio (x) = 0.53447 -0.10771
# Poissons Ratio (y) = 0.17097 0.57183
# Poissons Ratio (z) = -0.02114 0.35092
#
# Static dielectric constant tensor:
#      x y z
#    x 1.663700 0.000000 0.000000 
#    y 0.000000 1.760500 0.000000 
#    z 0.000000 0.000000 1.704550 
# 
# From -- ./inp_files/20957.got.cif
#   From: 2010.05.17/outbox.cif.g08.bks.cpg/sg42_11_cif.got.tgz:20957.got - 2010.06.03 19:03:34.
