data_PCOD9368622
_publ_section_title
;
Structure prediction by ZEFSAII (Michael W. Deem and Ramdas Pophale) SiO2 
 PCOD9368622
Probable space group: F M M 2
;
_chemical_formula_sum "Si O2"
_cell_formula_units_Z 96
_cell_length_a 17.701451
_cell_length_b 15.891792
_cell_length_c 18.120590
_cell_angle_alpha 90.000000
_cell_angle_beta 90.000000
_cell_angle_gamma 90.000000
_cell_volume 5097.462898
_symmetry_space_group_name_H-M "F M M 2"
_symmetry_group_IT_number 42
_symmetry_cell_setting 'orthorhombic'
loop_
_space_group_symop_operation_xyz
x,y,z
-x,-y,z
-x,y,z
x,-y,z
x,1/2+y,1/2+z
-x,1/2-y,1/2+z
-x,1/2+y,1/2+z
x,1/2-y,1/2+z
1/2+x,y,1/2+z
1/2-x,-y,1/2+z
1/2-x,y,1/2+z
1/2+x,-y,1/2+z
1/2+x,1/2+y,z
1/2-x,1/2-y,z
1/2-x,1/2+y,z
1/2+x,1/2-y,z
loop_
_atom_site_type_symbol
_atom_site_label
_atom_site_fract_x
_atom_site_fract_y
_atom_site_fract_z
Si Si1 0.322689 0.202698 0.033490
Si Si2 0.851348 0.403140 0.170670
Si Si3 0.587081 0.182560 0.428735
Si Si4 0.260378 0.594187 0.911290
Si Si5 0.586876 0.250102 0.765440
Si Si6 0.806209 0.905543 0.247224
O O1 0.250000 0.250000 0.069265
O O2 0.358502 0.136962 0.089882
O O3 0.384794 0.265410 0.999904
O O4 0.284460 0.157126 0.963573
O O5 0.877909 0.500000 0.176677
O O6 0.889302 0.337802 0.227331
O O7 0.762194 0.403348 0.189656
O O8 0.500000 0.155569 0.435037
O O9 0.650500 0.111553 0.417736
O O10 0.593485 0.238322 0.353950
O O11 0.243239 0.500000 0.935618
O O12 0.233258 0.603965 0.827400
O O13 0.500000 0.232976 0.747748
O O14 0.638067 0.172688 0.738775
O O15 0.840792 0.000000 0.244682
#
# Coordination Sequence:
#
# PCOD9368622 Si02
#       6
#    16  16  16  16  16  16
#     4  10  20  36  59  85 115 156 199 245 292 346
#     4  11  23  38  61  91 120 156 200 249 298 353
#     4  10  21  35  55  83 117 158 196 233 289 354
#     4  10  19  34  58  85 114 151 194 244 293 347
#     4  11  22  37  58  84 120 160 197 240 296 358
#     4  10  20  36  60  87 115 152 200 247 296 350
#
# _framework density 18.832898
#
# number of rings (size 3 to 8) (size 9 to 14) (size 15 to 20)
#    0.000    1.667    3.333    2.000    0.000    1.667 
#    0.000    1.667    0.000    1.500    0.000    4.667 
#    0.000    0.000    0.000    0.000    0.000    0.000 
#
# Total GULP energy -133907.313613 kJ/mol
# GULP energy per Si atom -5579.471401 kJ/mol
# Density = 1.879003 g / cm^3
# Si number density = 18.832898 Si / 1000 Ang^3
#
#
#
# Elastic Constant Matrix: (Units=GPa)
#
#
# Indices 1 2 3 4 5 6 
#
# 1 64.3141 24.1530 1.4933 0.0000 0.0000 0.0000
# 2 24.1530 102.7460 24.0674 0.0000 0.0000 0.0000
# 3 1.4933 24.0674 50.9944 0.0000 0.0000 0.0000
# 4 0.0000 0.0000 0.0000 28.3109 0.0000 0.0000
# 5 0.0000 0.0000 0.0000 0.0000 4.8098 0.0000
# 6 0.0000 0.0000 0.0000 0.0000 0.0000 12.1987
#
#
#
# Elastic Compliance Matrix: (Units=1/GPa)
#
#
# Indices 1 2 3 4 5 6 
#
# 1 0.017166 -0.004405 0.001576 0.000000 0.000000 0.000000
# 2 -0.004405 0.012073 -0.005569 0.000000 0.000000 0.000000
# 3 0.001576 -0.005569 0.022192 0.000000 0.000000 0.000000
# 4 0.000000 0.000000 0.000000 0.035322 0.000000 0.000000
# 5 0.000000 0.000000 0.000000 0.000000 0.207910 0.000000
# 6 0.000000 0.000000 0.000000 0.000000 0.000000 0.081976
#
#
# Mechanical properties :
#
#
# Convention : Reuss Voigt Hill
#
# Bulk Modulus (GPa) = 28.87140 35.27579 32.07359
# Shear Modulus (GPa) = 12.34634 20.28661 16.31647
#
# Velocity S-wave (km/s) = 2.56319 3.28562 2.94663
# Velocity P-wave (km/s) = 4.91157 5.75893 5.35205
#
# Compressibility (1/GPa) = 0.03463635
#
# Stress axis : x y z
#
# Youngs Moduli (GPa) = 58.25402 82.83235 45.06104
#
# Poissons Ratio (x) = 0.36484 -0.07102
# Poissons Ratio (y) = 0.25658 0.25094
# Poissons Ratio (z) = -0.09181 0.46128
#
# Static dielectric constant tensor:
#      x y z
#    x 1.628710 0.000000 0.000000 
#    y 0.000000 1.658300 0.000000 
#    z 0.000000 0.000000 1.660930 
# 
# From -- ./inp_files/25105.got.cif
#   From: 2010.05.17/outbox.cif.g08.bks.cpg/sg42_13_cif.got.tgz:25105.got - 2010.06.03 19:03:34.
