data_PCOD9368017
_publ_section_title
;
Structure prediction by ZEFSAII (Michael W. Deem and Ramdas Pophale) SiO2 
 PCOD9368017
Probable space group: A B A 2
;
_chemical_formula_sum "Si O2"
_cell_formula_units_Z 40
_cell_length_a 9.206647
_cell_length_b 8.795320
_cell_length_c 19.433136
_cell_angle_alpha 90.000000
_cell_angle_beta 90.000000
_cell_angle_gamma 90.000000
_cell_volume 1573.606087
_symmetry_space_group_name_H-M "A B A 2"
_symmetry_group_IT_number 41
_symmetry_cell_setting 'orthorhombic'
loop_
_space_group_symop_operation_xyz
x,y,z
-x,-y,z
1/2-x,y,1/2+z
1/2+x,-y,1/2+z
x,1/2+y,1/2+z
-x,1/2-y,1/2+z
1/2-x,1/2+y,z
1/2+x,1/2-y,z
loop_
_atom_site_type_symbol
_atom_site_label
_atom_site_fract_x
_atom_site_fract_y
_atom_site_fract_z
Si Si1 0.164645 0.948422 0.094940
Si Si2 0.193881 0.187063 0.863963
Si Si3 0.608704 0.369490 0.651349
Si Si4 0.669904 0.548828 0.454906
Si Si5 0.541900 0.819273 0.773552
O O1 0.160357 0.768478 0.104298
O O2 0.243283 0.032145 0.159499
O O3 0.000000 0.000000 0.088811
O O4 0.254907 0.985901 0.026865
O O5 0.200494 0.276819 0.936210
O O6 0.246094 0.024462 0.889754
O O7 0.292370 0.210033 0.795614
O O8 0.037713 0.237427 0.837934
O O9 0.500000 0.500000 0.624849
O O10 0.517123 0.279815 0.709692
O O11 0.500000 0.500000 0.453986
O O12 0.500000 0.000000 0.770537
#
# Coordination Sequence:
#
# PCOD9368017 Si02
#       5
#     8   8   8   8   8
#     4  12  29  51  82 120 156 219 282 344 414 494
#     4  12  25  49  78 116 160 211 265 337 412 486
#     4  12  30  53  82 116 168 214 270 341 417 494
#     4  12  27  52  77 115 163 207 273 344 415 493
#     4  12  29  51  79 119 170 216 274 336 409 499
#
# _framework density 25.419322999999999
#
# number of rings (size 3 to 8) (size 9 to 14) (size 15 to 20)
#    0.000    0.000    4.000    3.600   14.000    3.200 
#    0.000    0.000    0.000    0.000    0.000    0.000 
#    0.000    0.000    0.000    0.000    0.000    0.000 
#
# Total GULP energy -111722.303515 kJ/mol
# GULP energy per Si atom -5586.115176 kJ/mol
# Density = 2.536147 g / cm^3
# Si number density = 25.419323 Si / 1000 Ang^3
#
#
#
# Elastic Constant Matrix: (Units=GPa)
#
#
# Indices 1 2 3 4 5 6 
#
# 1 107.4390 44.9879 17.0184 0.0000 0.0000 0.0000
# 2 44.9879 136.2466 31.7410 0.0000 0.0000 0.0000
# 3 17.0184 31.7410 103.0126 0.0000 0.0000 0.0000
# 4 0.0000 0.0000 0.0000 -8.8622 0.0000 0.0000
# 5 0.0000 0.0000 0.0000 0.0000 -21.3985 0.0000
# 6 0.0000 0.0000 0.0000 0.0000 0.0000 35.0949
#
#
#
# Elastic Compliance Matrix: (Units=1/GPa)
#
#
# Indices 1 2 3 4 5 6 
#
# 1 0.010853 -0.003411 -0.000742 0.000000 0.000000 0.000000
# 2 -0.003411 0.008979 -0.002203 0.000000 0.000000 0.000000
# 3 -0.000742 -0.002203 0.010509 0.000000 0.000000 0.000000
# 4 0.000000 0.000000 0.000000 -0.112839 0.000000 0.000000
# 5 0.000000 0.000000 0.000000 0.000000 -0.046732 0.000000
# 6 0.000000 0.000000 0.000000 0.000000 0.000000 0.028494
#
#
# Mechanical properties :
#
#
# Convention : Reuss Voigt Hill
#
# Bulk Modulus (GPa) = 56.72394 59.35477 58.03935
# Shear Modulus (GPa) = -60.86676 17.83024 -21.51826
#
# Velocity S-wave (km/s) = -4.89868 2.65135 -2.91268
# Velocity P-wave (km/s) = 3.10360 5.72484 3.40158
#
# Compressibility (1/GPa) = 0.01762924
#
# Stress axis : x y z
#
# Youngs Moduli (GPa) = 92.13721 111.36905 95.15634
#
# Poissons Ratio (x) = 0.37986 0.07061
# Poissons Ratio (y) = 0.31427 0.20965
# Poissons Ratio (z) = 0.06837 0.24537
#
# Static dielectric constant tensor:
#      x y z
#    x 2.069540 0.000000 0.000000 
#    y 0.000000 2.000320 0.000000 
#    z 0.000000 0.000000 2.064920 
# 
# From -- ./inp_files/11930.got.cif
#   From: 2010.05.17/outbox.cif.g08.bks.cpg/sg41_6_cif.got.tgz:11930.got - 2010.06.03 18:54:24.
