data_PCOD9368455
_publ_section_title
;
Structure prediction by ZEFSAII (Michael W. Deem and Ramdas Pophale) SiO2 
 PCOD9368455
Probable space group: F M M 2
;
_chemical_formula_sum "Si O2"
_cell_formula_units_Z 116
_cell_length_a 7.564326
_cell_length_b 28.178785
_cell_length_c 23.756579
_cell_angle_alpha 90.000000
_cell_angle_beta 90.000000
_cell_angle_gamma 90.000000
_cell_volume 5063.798343
_symmetry_space_group_name_H-M "F M M 2"
_symmetry_group_IT_number 42
_symmetry_cell_setting 'orthorhombic'
loop_
_space_group_symop_operation_xyz
x,y,z
-x,-y,z
-x,y,z
x,-y,z
x,1/2+y,1/2+z
-x,1/2-y,1/2+z
-x,1/2+y,1/2+z
x,1/2-y,1/2+z
1/2+x,y,1/2+z
1/2-x,-y,1/2+z
1/2-x,y,1/2+z
1/2+x,-y,1/2+z
1/2+x,1/2+y,z
1/2-x,1/2-y,z
1/2-x,1/2+y,z
1/2+x,1/2-y,z
loop_
_atom_site_type_symbol
_atom_site_label
_atom_site_fract_x
_atom_site_fract_y
_atom_site_fract_z
Si Si1 0.713673 0.125513 0.183050
Si Si2 0.703168 0.601811 0.562214
Si Si3 0.791271 0.347695 0.387165
Si Si4 0.210936 0.303442 0.500024
Si Si5 0.784317 0.945934 0.448876
Si Si6 0.287832 0.194895 0.271255
Si Si7 0.197137 0.051710 0.780751
Si Si8 0.500000 0.500000 0.335097
O O1 0.500000 0.128963 0.175007
O O2 0.785789 0.106493 0.124031
O O3 0.777888 0.174399 0.211369
O O4 0.745382 0.088706 0.233394
O O5 0.500000 0.585896 0.568651
O O6 0.707479 0.655299 0.537913
O O7 0.775369 0.568510 0.512319
O O8 0.722181 0.313071 0.436372
O O9 0.769411 0.400550 0.411773
O O10 0.720123 0.335023 0.325369
O O11 0.000000 0.338769 0.383359
O O12 0.250000 0.250000 0.517685
O O13 0.000000 0.310789 0.501198
O O14 0.000000 0.948004 0.446888
O O15 0.725603 0.000000 0.435419
O O16 0.500000 0.188810 0.269694
O O17 0.250000 0.250000 0.279172
O O18 0.345643 0.040850 0.826375
O O19 0.000000 0.062863 0.803057
O O20 0.186612 0.000000 0.751454
#
# Coordination Sequence:
#
# PCOD9368455 Si02
#       8
#    16  16  16  16  16  16  16   4
#     4   9  18  34  54  74 106 144 182 220 267 329
#     4   9  18  33  52  76 105 141 176 215 265 323
#     4   9  19  35  56  78 105 136 175 221 272 326
#     4  10  19  32  50  75 100 130 170 219 270 323
#     4   9  18  33  56  83 110 138 176 220 270 325
#     4  10  21  38  56  79 106 141 184 229 275 327
#     4   8  15  29  49  72  99 136 174 219 267 315
#     4   8  14  28  48  74 100 128 178 224 264 314
#
# _framework density 22.907706000000001
#
# number of rings (size 3 to 8) (size 9 to 14) (size 15 to 20)
#    0.414    2.483    0.000    0.828    0.000    2.483 
#    2.483    4.828    0.000    2.483    0.000    0.000 
#    0.000    0.000    0.000    0.000    0.000    0.000 
#
# Total GULP energy -161468.447259 kJ/mol
# GULP energy per Si atom -5567.877492 kJ/mol
# Density = 2.285557 g / cm^3
# Si number density = 22.907706 Si / 1000 Ang^3
#
#
#
# Elastic Constant Matrix: (Units=GPa)
#
#
# Indices 1 2 3 4 5 6 
#
# 1 66.0724 -10.7039 7.3306 0.0000 0.0000 0.0000
# 2 -10.7039 101.9888 36.2912 0.0000 0.0000 0.0000
# 3 7.3306 36.2912 101.2723 0.0000 0.0000 0.0000
# 4 0.0000 0.0000 0.0000 14.4573 0.0000 0.0000
# 5 0.0000 0.0000 0.0000 0.0000 -7.3328 0.0000
# 6 0.0000 0.0000 0.0000 0.0000 0.0000 55.6842
#
#
#
# Elastic Compliance Matrix: (Units=1/GPa)
#
#
# Indices 1 2 3 4 5 6 
#
# 1 0.015737 0.002358 -0.001984 0.000000 0.000000 0.000000
# 2 0.002358 0.011591 -0.004324 0.000000 0.000000 0.000000
# 3 -0.001984 -0.004324 0.011568 0.000000 0.000000 0.000000
# 4 0.000000 0.000000 0.000000 0.069169 0.000000 0.000000
# 5 0.000000 0.000000 0.000000 0.000000 -0.136373 0.000000
# 6 0.000000 0.000000 0.000000 0.000000 0.000000 0.017958
#
#
# Mechanical properties :
#
#
# Convention : Reuss Voigt Hill
#
# Bulk Modulus (GPa) = 32.26403 37.24103 34.75253
# Shear Modulus (GPa) = 634.26264 28.32278 331.29271
#
# Velocity S-wave (km/s) = 16.65769 3.52004 12.03888
# Velocity P-wave (km/s) = 19.59812 5.72828 14.43779
#
# Compressibility (1/GPa) = 0.03099427
#
# Stress axis : x y z
#
# Youngs Moduli (GPa) = 63.54460 86.27228 86.44807
#
# Poissons Ratio (x) = -0.20339 0.17151
# Poissons Ratio (y) = -0.14981 0.37384
# Poissons Ratio (z) = 0.12607 0.37308
#
# Static dielectric constant tensor:
#      x y z
#    x 1.893140 0.000000 0.000000 
#    y 0.000000 1.870980 0.000000 
#    z 0.000000 0.000000 1.920630 
# 
# From -- ./inp_files/28338.got.cif
#   From: 2010.05.17/outbox.cif.g08.bks.cpg/sg42_15_cif.got.tgz:28338.got - 2010.06.03 19:03:34.
