data_PCOD9368226
_publ_section_title
;
Structure prediction by ZEFSAII (Michael W. Deem and Ramdas Pophale) SiO2 
 PCOD9368226
Probable space group: F M M 2
;
_chemical_formula_sum "Si O2"
_cell_formula_units_Z 104
_cell_length_a 8.947708
_cell_length_b 23.878680
_cell_length_c 29.236547
_cell_angle_alpha 90.000000
_cell_angle_beta 90.000000
_cell_angle_gamma 90.000000
_cell_volume 6246.664729
_symmetry_space_group_name_H-M "F M M 2"
_symmetry_group_IT_number 42
_symmetry_cell_setting 'orthorhombic'
loop_
_space_group_symop_operation_xyz
x,y,z
-x,-y,z
-x,y,z
x,-y,z
x,1/2+y,1/2+z
-x,1/2-y,1/2+z
-x,1/2+y,1/2+z
x,1/2-y,1/2+z
1/2+x,y,1/2+z
1/2-x,-y,1/2+z
1/2-x,y,1/2+z
1/2+x,-y,1/2+z
1/2+x,1/2+y,z
1/2-x,1/2-y,z
1/2-x,1/2+y,z
1/2+x,1/2-y,z
loop_
_atom_site_type_symbol
_atom_site_label
_atom_site_fract_x
_atom_site_fract_y
_atom_site_fract_z
Si Si1 0.820354 0.187023 0.279790
Si Si2 0.167937 0.152339 0.461033
Si Si3 0.677540 0.688384 0.871479
Si Si4 0.823543 0.311335 0.188494
Si Si5 0.174224 0.065436 0.024088
Si Si6 0.665240 0.345183 0.101067
Si Si7 0.250000 0.250000 0.529910
O O1 0.750000 0.250000 0.279550
O O2 0.754985 0.161683 0.326644
O O3 0.756707 0.161704 0.232716
O O4 0.000000 0.189293 0.280165
O O5 0.280486 0.159563 0.419002
O O6 0.218929 0.098825 0.489960
O O7 0.171876 0.206351 0.495039
O O8 0.000000 0.147201 0.443201
O O9 0.500000 0.692495 0.865011
O O10 0.750000 0.750000 0.875931
O O11 0.750000 0.250000 0.183110
O O12 0.786806 0.340307 0.140533
O O13 0.000000 0.306589 0.196471
O O14 0.184785 0.098669 0.071822
O O15 0.000000 0.071605 0.009367
O O16 0.208012 0.000000 0.027750
O O17 0.500000 0.343992 0.122476
O O18 0.671271 0.293401 0.064929
#
# Coordination Sequence:
#
# PCOD9368226 Si02
#       7
#    16  16  16  16  16  16   8
#     4  10  18  30  46  65  95 132 167 201 240 290
#     4  11  21  32  50  75 102 133 169 208 251 299
#     4  11  20  31  47  70 101 134 168 203 245 297
#     4  11  20  30  45  68  99 132 166 201 243 294
#     4   9  20  38  55  72  98 132 171 213 256 300
#     4  10  19  31  49  72  98 130 166 203 247 296
#     4  10  20  30  48  68 104 130 164 200 252 294
#
# _framework density 16.648883999999999
#
# number of rings (size 3 to 8) (size 9 to 14) (size 15 to 20)
#    0.000    1.692    1.538    6.923    0.000    4.000 
#    0.000    0.000    0.000    0.000    0.000    1.077 
#    0.000    6.154    0.000    0.000    0.000    0.000 
#
# Total GULP energy -144880.958882 kJ/mol
# GULP energy per Si atom -5572.344572 kJ/mol
# Density = 1.661099 g / cm^3
# Si number density = 16.648884 Si / 1000 Ang^3
#
#
#
# Elastic Constant Matrix: (Units=GPa)
#
#
# Indices 1 2 3 4 5 6 
#
# 1 138.4795 20.6545 43.1480 0.0000 0.0000 0.0000
# 2 20.6545 73.6638 18.7817 0.0000 0.0000 0.0000
# 3 43.1480 18.7817 90.5207 0.0000 0.0000 0.0000
# 4 0.0000 0.0000 0.0000 8.6060 0.0000 0.0000
# 5 0.0000 0.0000 0.0000 0.0000 -106.5492 0.0000
# 6 0.0000 0.0000 0.0000 0.0000 0.0000 11.1143
#
#
#
# Elastic Compliance Matrix: (Units=1/GPa)
#
#
# Indices 1 2 3 4 5 6 
#
# 1 0.008624 -0.001447 -0.003811 0.000000 0.000000 0.000000
# 2 -0.001447 0.014576 -0.002335 0.000000 0.000000 0.000000
# 3 -0.003811 -0.002335 0.013348 0.000000 0.000000 0.000000
# 4 0.000000 0.000000 0.000000 0.116198 0.000000 0.000000
# 5 0.000000 0.000000 0.000000 0.000000 -0.009385 0.000000
# 6 0.000000 0.000000 0.000000 0.000000 0.000000 0.089975
#
#
# Mechanical properties :
#
#
# Convention : Reuss Voigt Hill
#
# Bulk Modulus (GPa) = 46.80710 51.98136 49.39423
# Shear Modulus (GPa) = 19.55862 -2.69380 8.43241
#
# Velocity S-wave (km/s) = 3.43121 -1.27339 2.25296
# Velocity P-wave (km/s) = 6.62366 5.39703 6.04156
#
# Compressibility (1/GPa) = 0.02136428
#
# Stress axis : x y z
#
# Youngs Moduli (GPa) = 115.94964 68.60551 74.91697
#
# Poissons Ratio (x) = 0.09924 0.28549
# Poissons Ratio (y) = 0.16773 0.17492
# Poissons Ratio (z) = 0.44186 0.16018
#
# Static dielectric constant tensor:
#      x y z
#    x 1.583630 0.000000 0.000000 
#    y 0.000000 1.528870 0.000000 
#    z 0.000000 0.000000 1.624420 
# 
# From -- ./inp_files/31694.got.cif
#   From: 2010.05.17/outbox.cif.g08.bks.cpg/sg42_16_cif.got.tgz:31694.got - 2010.06.03 19:03:34.
