data_PCOD9368346
_publ_section_title
;
Structure prediction by ZEFSAII (Michael W. Deem and Ramdas Pophale) SiO2 
 PCOD9368346
Probable space group: F M M 2
;
_chemical_formula_sum "Si O2"
_cell_formula_units_Z 112
_cell_length_a 15.045174
_cell_length_b 28.240633
_cell_length_c 12.086897
_cell_angle_alpha 90.000000
_cell_angle_beta 90.000000
_cell_angle_gamma 90.000000
_cell_volume 5135.544101
_symmetry_space_group_name_H-M "F M M 2"
_symmetry_group_IT_number 42
_symmetry_cell_setting 'orthorhombic'
loop_
_space_group_symop_operation_xyz
x,y,z
-x,-y,z
-x,y,z
x,-y,z
x,1/2+y,1/2+z
-x,1/2-y,1/2+z
-x,1/2+y,1/2+z
x,1/2-y,1/2+z
1/2+x,y,1/2+z
1/2-x,-y,1/2+z
1/2-x,y,1/2+z
1/2+x,-y,1/2+z
1/2+x,1/2+y,z
1/2-x,1/2-y,z
1/2-x,1/2+y,z
1/2+x,1/2-y,z
loop_
_atom_site_type_symbol
_atom_site_label
_atom_site_fract_x
_atom_site_fract_y
_atom_site_fract_z
Si Si1 0.355822 0.703345 0.788880
Si Si2 0.641741 0.689859 0.254329
Si Si3 0.104791 0.448487 0.539750
Si Si4 0.903878 0.401480 0.896114
Si Si5 0.653893 0.129558 0.120925
Si Si6 0.839938 0.653415 0.515276
Si Si7 0.235231 0.447212 0.749039
O O1 0.388656 0.756662 0.773856
O O2 0.248992 0.696012 0.767692
O O3 0.393478 0.669065 0.694330
O O4 0.366501 0.686656 0.914566
O O5 0.608412 0.650024 0.338771
O O6 0.619220 0.670598 0.131828
O O7 0.123856 0.500000 0.486843
O O8 0.132863 0.399899 0.481865
O O9 0.159941 0.447128 0.653191
O O10 0.000000 0.446261 0.560152
O O11 0.819631 0.431877 0.856677
O O12 0.000000 0.420942 0.860367
O O13 0.901949 0.396108 0.027431
O O14 0.735331 0.151802 0.047452
O O15 0.696130 0.091976 0.206737
O O16 0.272047 0.500000 0.756624
#
# Coordination Sequence:
#
# PCOD9368346 Si02
#       7
#    16  16  16  16  16  16  16
#     4  10  20  35  61  84 117 161 218 259 309 370
#     4  10  21  33  57  89 114 162 212 264 307 373
#     4   9  17  31  54  83 113 149 197 255 315 366
#     4  12  23  39  62  94 136 168 204 265 334 390
#     4  10  20  39  58  89 124 163 208 264 314 379
#     4  10  18  34  57  86 118 155 215 269 305 376
#     4  10  20  37  61  90 121 161 212 259 310 379
#
# _framework density 21.808789999999998
#
# number of rings (size 3 to 8) (size 9 to 14) (size 15 to 20)
#    0.000    1.857    5.714    0.429    2.000    2.571 
#    0.000    5.714    0.000    0.000    0.000    0.000 
#    0.000    0.000    0.000    0.000    0.000    0.000 
#
# Total GULP energy -156295.316411 kJ/mol
# GULP energy per Si atom -5581.975586 kJ/mol
# Density = 2.175915 g / cm^3
# Si number density = 21.808790 Si / 1000 Ang^3
#
#
#
# Elastic Constant Matrix: (Units=GPa)
#
#
# Indices 1 2 3 4 5 6 
#
# 1 44.4132 -1.1861 1.9399 0.0000 0.0000 0.0000
# 2 -1.1861 123.7925 34.4289 0.0000 0.0000 0.0000
# 3 1.9399 34.4289 96.5811 0.0000 0.0000 0.0000
# 4 0.0000 0.0000 0.0000 12.3376 0.0000 0.0000
# 5 0.0000 0.0000 0.0000 0.0000 3.6432 0.0000
# 6 0.0000 0.0000 0.0000 0.0000 0.0000 6.6864
#
#
#
# Elastic Compliance Matrix: (Units=1/GPa)
#
#
# Indices 1 2 3 4 5 6 
#
# 1 0.022552 0.000380 -0.000588 0.000000 0.000000 0.000000
# 2 0.000380 0.008973 -0.003206 0.000000 0.000000 0.000000
# 3 -0.000588 -0.003206 0.011509 0.000000 0.000000 0.000000
# 4 0.000000 0.000000 0.000000 0.081053 0.000000 0.000000
# 5 0.000000 0.000000 0.000000 0.000000 0.274484 0.000000
# 6 0.000000 0.000000 0.000000 0.000000 0.000000 0.149557
#
#
# Mechanical properties :
#
#
# Convention : Reuss Voigt Hill
#
# Bulk Modulus (GPa) = 27.62139 37.23911 32.43025
# Shear Modulus (GPa) = 8.81793 19.84039 14.32916
#
# Velocity S-wave (km/s) = 2.01297 3.01947 2.56605
# Velocity P-wave (km/s) = 4.25388 5.41004 4.86642
#
# Compressibility (1/GPa) = 0.03620382
#
# Stress axis : x y z
#
# Youngs Moduli (GPa) = 44.34263 111.44000 86.88981
#
# Poissons Ratio (x) = -0.04231 0.05112
# Poissons Ratio (y) = -0.01684 0.27861
# Poissons Ratio (z) = 0.02609 0.35733
#
# Static dielectric constant tensor:
#      x y z
#    x 1.846620 0.000000 0.000000 
#    y 0.000000 1.822570 0.000000 
#    z 0.000000 0.000000 1.778740 
# 
# From -- ./inp_files/8108.got.cif
#   From: 2010.05.17/outbox.cif.g08.bks.cpg/sg42_5_cif.got.tgz:8108.got - 2010.06.03 19:03:34.
