data_PCOD9368369
_publ_section_title
;
Structure prediction by ZEFSAII (Michael W. Deem and Ramdas Pophale) SiO2 
 PCOD9368369
Probable space group: F M M 2
;
_chemical_formula_sum "Si O2"
_cell_formula_units_Z 80
_cell_length_a 23.749950
_cell_length_b 7.589589
_cell_length_c 20.938260
_cell_angle_alpha 90.000000
_cell_angle_beta 90.000000
_cell_angle_gamma 90.000000
_cell_volume 3774.170764
_symmetry_space_group_name_H-M "F M M 2"
_symmetry_group_IT_number 42
_symmetry_cell_setting 'orthorhombic'
loop_
_space_group_symop_operation_xyz
x,y,z
-x,-y,z
-x,y,z
x,-y,z
x,1/2+y,1/2+z
-x,1/2-y,1/2+z
-x,1/2+y,1/2+z
x,1/2-y,1/2+z
1/2+x,y,1/2+z
1/2-x,-y,1/2+z
1/2-x,y,1/2+z
1/2+x,-y,1/2+z
1/2+x,1/2+y,z
1/2-x,1/2-y,z
1/2-x,1/2+y,z
1/2+x,1/2-y,z
loop_
_atom_site_type_symbol
_atom_site_label
_atom_site_fract_x
_atom_site_fract_y
_atom_site_fract_z
Si Si1 0.877455 0.784186 0.195020
Si Si2 0.885620 0.296888 0.944285
Si Si3 0.500000 0.214089 0.007341
Si Si4 0.315564 0.790285 0.565989
Si Si5 0.500000 0.290257 0.158805
Si Si6 0.316328 0.712090 0.323860
O O1 0.846134 0.728971 0.130345
O O2 0.942042 0.723334 0.189513
O O3 0.843580 0.725360 0.257424
O O4 0.877479 0.000000 0.195671
O O5 0.898545 0.500000 0.927719
O O6 0.853271 0.219105 0.883372
O O7 0.843143 0.292646 0.003684
O O8 0.944102 0.220639 0.971025
O O9 0.500000 0.262702 0.082212
O O10 0.500000 0.000000 0.006783
O O11 0.250000 0.750000 0.569674
O O12 0.323814 0.000000 0.560798
O O13 0.500000 0.500000 0.168818
O O14 0.320513 0.500000 0.324418
O O15 0.250000 0.750000 0.329238
#
# Coordination Sequence:
#
# PCOD9368369 Si02
#       6
#    16  16   8  16   8  16
#     4   9  19  34  56  82 107 140 182 226 272 323
#     4  10  21  36  56  81 111 146 183 225 277 329
#     4  10  20  35  55  83 115 143 178 228 280 326
#     4  11  21  34  54  80 109 142 186 231 275 325
#     4  10  18  35  59  83 109 141 182 228 274 328
#     4  10  21  38  56  79 111 146 184 226 274 327
#
# _framework density 21.196709999999999
#
# number of rings (size 3 to 8) (size 9 to 14) (size 15 to 20)
#    0.000    2.000    2.000    1.800    0.000    3.200 
#    0.000    6.000    0.000    0.000    0.000    2.800 
#    0.000    0.000    0.000    0.000    0.000    0.000 
#
# Total GULP energy -111725.169395 kJ/mol
# GULP energy per Si atom -5586.258470 kJ/mol
# Density = 2.114847 g / cm^3
# Si number density = 21.196710 Si / 1000 Ang^3
#
#
#
# Elastic Constant Matrix: (Units=GPa)
#
#
# Indices 1 2 3 4 5 6 
#
# 1 153.0514 -13.3675 41.2865 0.0000 0.0000 0.0000
# 2 -13.3675 47.8220 -11.1215 0.0000 0.0000 -0.0001
# 3 41.2865 -11.1215 121.8565 0.0000 0.0000 0.0000
# 4 0.0000 0.0000 0.0000 25.0151 0.0000 0.0000
# 5 0.0000 0.0000 0.0000 0.0000 52.0191 0.0000
# 6 0.0000 -0.0001 0.0000 0.0000 0.0000 -28.2359
#
#
#
# Elastic Compliance Matrix: (Units=1/GPa)
#
#
# Indices 1 2 3 4 5 6 
#
# 1 0.007294 0.001496 -0.002335 0.000000 0.000000 0.000000
# 2 0.001496 0.021671 0.001471 0.000000 0.000000 0.000000
# 3 -0.002335 0.001471 0.009132 0.000000 0.000000 0.000000
# 4 0.000000 0.000000 0.000000 0.039976 0.000000 0.000000
# 5 0.000000 0.000000 0.000000 0.000000 0.019224 0.000000
# 6 0.000000 0.000000 0.000000 0.000000 0.000000 -0.035416
#
#
# Mechanical properties :
#
#
# Convention : Reuss Voigt Hill
#
# Bulk Modulus (GPa) = 25.40568 39.59167 32.49867
# Shear Modulus (GPa) = 67.80862 30.15516 48.98189
#
# Velocity S-wave (km/s) = 5.66212 3.77587 4.81232
# Velocity P-wave (km/s) = 7.39985 6.14234 6.80023
#
# Compressibility (1/GPa) = 0.03936128
#
# Stress axis : x y z
#
# Youngs Moduli (GPa) = 137.09435 46.14436 109.50855
#
# Poissons Ratio (x) = -0.06903 0.25569
# Poissons Ratio (y) = -0.20509 -0.16109
# Poissons Ratio (z) = 0.32010 -0.06788
#
# Static dielectric constant tensor:
#      x y z
#    x 1.735280 0.000000 0.000000 
#    y 0.000000 1.789000 0.000000 
#    z 0.000000 0.000000 1.724250 
# 
# From -- ./inp_files/21503.got.cif
#   From: 2010.05.17/outbox.cif.g08.bks.cpg/sg42_11_cif.got.tgz:21503.got - 2010.06.03 19:03:34.
