data_PCOD9368180
_publ_section_title
;
Structure prediction by ZEFSAII (Michael W. Deem and Ramdas Pophale) SiO2 
 PCOD9368180
Probable space group: F M M 2
;
_chemical_formula_sum "Si O2"
_cell_formula_units_Z 80
_cell_length_a 10.785206
_cell_length_b 22.784657
_cell_length_c 13.693900
_cell_angle_alpha 90.000000
_cell_angle_beta 90.000000
_cell_angle_gamma 90.000000
_cell_volume 3365.100909
_symmetry_space_group_name_H-M "F M M 2"
_symmetry_group_IT_number 42
_symmetry_cell_setting 'orthorhombic'
loop_
_space_group_symop_operation_xyz
x,y,z
-x,-y,z
-x,y,z
x,-y,z
x,1/2+y,1/2+z
-x,1/2-y,1/2+z
-x,1/2+y,1/2+z
x,1/2-y,1/2+z
1/2+x,y,1/2+z
1/2-x,-y,1/2+z
1/2-x,y,1/2+z
1/2+x,-y,1/2+z
1/2+x,1/2+y,z
1/2-x,1/2-y,z
1/2-x,1/2+y,z
1/2+x,1/2-y,z
loop_
_atom_site_type_symbol
_atom_site_label
_atom_site_fract_x
_atom_site_fract_y
_atom_site_fract_z
Si Si1 0.000000 0.706815 0.005190
Si Si2 0.272791 0.373187 0.189262
Si Si3 0.347872 0.130098 0.459662
Si Si4 0.500000 0.201477 0.771544
Si Si5 0.358271 0.500000 0.940983
Si Si6 0.640765 0.500000 0.178292
Si Si7 0.500000 0.664714 0.696011
Si Si8 0.250000 0.250000 0.468763
O O1 0.000000 0.653186 0.078135
O O2 0.873551 0.739653 0.030437
O O3 0.000000 0.701145 0.889490
O O4 0.298549 0.367748 0.071933
O O5 0.378485 0.332414 0.235122
O O6 0.296867 0.440875 0.211746
O O7 0.133651 0.359637 0.223858
O O8 0.500000 0.133984 0.457293
O O9 0.309115 0.065830 0.419525
O O10 0.285587 0.189137 0.415457
O O11 0.500000 0.267713 0.731066
O O12 0.500000 0.500000 0.904074
O O13 0.361882 0.500000 0.059870
O O14 0.500000 0.500000 0.212573
#
# Coordination Sequence:
#
# PCOD9368180 Si02
#       8
#     8  16  16   8   8   8   8   8
#     4  12  28  42  64  98 144 176 222 285 358 407
#     4  11  21  38  66  93 134 170 230 278 335 410
#     4  10  17  32  58  91 122 168 214 268 322 390
#     4  12  26  45  67  98 131 187 231 275 341 438
#     4   7  14  26  49  85 121 154 212 264 308 381
#     4   9  16  35  63  95 125 174 232 280 330 395
#     4  12  26  41  63 108 139 175 219 290 357 407
#     4  12  22  38  60  92 130 176 214 274 338 412
#
# _framework density 23.773432
#
# number of rings (size 3 to 8) (size 9 to 14) (size 15 to 20)
#    0.000    1.400    5.000    3.000    2.800    0.400 
#    0.000    0.000    0.000    5.400    0.000    0.000 
#    0.000    0.000    0.000    0.000    0.000    0.000 
#
# Total GULP energy -111669.431866 kJ/mol
# GULP energy per Si atom -5583.471593 kJ/mol
# Density = 2.371932 g / cm^3
# Si number density = 23.773432 Si / 1000 Ang^3
#
#
#
# Elastic Constant Matrix: (Units=GPa)
#
#
# Indices 1 2 3 4 5 6 
#
# 1 217.3037 101.3248 23.2808 0.0000 0.0000 0.0000
# 2 101.3248 259.0243 29.1907 0.0000 0.0000 0.0000
# 3 23.2808 29.1907 104.2065 0.0000 0.0000 0.0000
# 4 0.0000 0.0000 0.0000 -7.0109 0.0000 0.0000
# 5 0.0000 0.0000 0.0000 0.0000 21.6992 0.0000
# 6 0.0000 0.0000 0.0000 0.0000 0.0000 29.7898
#
#
#
# Elastic Compliance Matrix: (Units=1/GPa)
#
#
# Indices 1 2 3 4 5 6 
#
# 1 0.005673 -0.002144 -0.000667 0.000000 0.000000 0.000000
# 2 -0.002144 0.004797 -0.000865 0.000000 0.000000 0.000000
# 3 -0.000667 -0.000865 0.009988 0.000000 0.000000 0.000000
# 4 0.000000 0.000000 0.000000 -0.142635 0.000000 0.000000
# 5 0.000000 0.000000 0.000000 0.000000 0.046085 0.000000
# 6 0.000000 0.000000 0.000000 0.000000 0.000000 0.033569
#
#
# Mechanical properties :
#
#
# Convention : Reuss Voigt Hill
#
# Bulk Modulus (GPa) = 76.29944 98.68078 87.49011
# Shear Modulus (GPa) = -162.31136 37.34485 -62.48326
#
# Velocity S-wave (km/s) = -8.27179 3.96771 -5.13224
# Velocity P-wave (km/s) = 7.68543 7.91134 1.32729
#
# Compressibility (1/GPa) = 0.01310626
#
# Stress axis : x y z
#
# Youngs Moduli (GPa) = 176.27328 208.47312 100.12490
#
# Poissons Ratio (x) = 0.44697 0.06676
# Poissons Ratio (y) = 0.37793 0.08658
# Poissons Ratio (z) = 0.11754 0.18027
#
# Static dielectric constant tensor:
#      x y z
#    x 1.891390 0.000000 0.000000 
#    y 0.000000 1.932960 0.000000 
#    z 0.000000 0.000000 1.917420 
# 
# From -- ./inp_files/12895.got.cif
#   From: 2010.05.17/outbox.cif.g08.bks.cpg/sg42_7_cif.got.tgz:12895.got - 2010.06.03 19:03:34.
