data_PCOD9368081
_publ_section_title
;
Structure prediction by ZEFSAII (Michael W. Deem and Ramdas Pophale) SiO2 
 PCOD9368081
Probable space group: A B A 2
;
_chemical_formula_sum "Si O2"
_cell_formula_units_Z 32
_cell_length_a 30.000000
_cell_length_b 12.000000
_cell_length_c 9.000000
_cell_angle_alpha 90.000000
_cell_angle_beta 90.000000
_cell_angle_gamma 90.000000
_cell_volume 3240.000000
_symmetry_space_group_name_H-M "A B A 2"
_symmetry_group_IT_number 41
_symmetry_cell_setting 'orthorhombic'
loop_
_space_group_symop_operation_xyz
x,y,z
-x,-y,z
1/2-x,y,1/2+z
1/2+x,-y,1/2+z
x,1/2+y,1/2+z
-x,1/2-y,1/2+z
1/2-x,1/2+y,z
1/2+x,1/2-y,z
loop_
_atom_site_type_symbol
_atom_site_label
_atom_site_fract_x
_atom_site_fract_y
_atom_site_fract_z
Si Si1 0.140148 0.143346 0.695860
Si Si2 0.054352 0.793744 0.096718
Si Si3 0.043183 0.246131 0.246041
Si Si4 0.233919 0.120000 0.519811
Si Si5 0.889354 0.586910 0.080046
Si Si6 0.799192 0.004391 0.230379
Si Si7 0.188380 0.282277 0.931944
Si Si8 0.095469 0.009866 0.246489
O O1 0.098115 0.217240 0.636873
O O2 0.187184 0.146032 0.603634
O O3 0.156147 0.191075 0.853883
O O4 0.122681 0.016900 0.686151
O O5 0.007962 0.763074 0.184008
O O6 0.070180 0.916788 0.148372
O O7 0.044575 0.782036 0.920278
O O8 0.072437 0.334377 0.149249
O O9 0.068904 0.126540 0.237405
O O10 0.218023 0.077489 0.359843
O O11 0.264468 0.023863 0.598490
O O12 0.268135 0.223138 0.499782
O O13 0.843381 0.653896 0.048542
O O14 0.903083 0.535512 0.918194
O O15 0.851949 0.981170 0.199847
O O16 0.798364 0.127787 0.303895
#
# Coordination Sequence:
#
# PCOD9368081 Si02
#       8
#     8   8   8   8   8   8   8   8
#     4  12  24  47  69 103 146 182 234 297 346 413
#     4  12  26  48  74 105 141 185 234 297 361 423
#     4  12  27  47  75 105 136 187 235 293 364 431
#     4  12  24  43  66 105 136 186 235 279 349 415
#     4  11  24  47  74 102 139 190 236 287 362 413
#     4  11  24  42  68 100 138 184 232 285 351 411
#     4  11  25  44  71 101 145 183 236 293 339 430
#     4  11  23  50  70 100 146 181 233 298 354 421
#
# _framework density 9.8765429999999999
#
# number of rings (size 3 to 8) (size 9 to 14) (size 15 to 20)
#    0.000    0.500    7.500    1.875    1.750    2.500 
#    6.750    0.000    0.000    0.000    0.000    0.000 
#    0.000    0.000    0.000    0.000    0.000    0.000 
#
# Total GULP energy -178903.448496 kJ/mol
# GULP energy per Si atom -5590.732765 kJ/mol
# Density = 0.985406 g / cm^3
# Si number density = 9.876543 Si / 1000 Ang^3
#
#
#
# Elastic Constant Matrix: (Units=GPa)
#
#
# Indices 1 2 3 4 5 6 
#
# 1 184.6107 61.0420 38.0442 0.0000 0.0000 0.0000
# 2 61.0420 133.9357 28.5416 0.0000 0.0000 0.0000
# 3 38.0442 28.5416 52.5288 0.0000 0.0000 0.0000
# 4 0.0000 0.0000 0.0000 35.8831 0.0000 0.0000
# 5 0.0000 0.0000 0.0000 0.0000 40.0986 0.0000
# 6 0.0000 0.0000 0.0000 0.0000 0.0000 42.1972
#
#
#
# Elastic Compliance Matrix: (Units=1/GPa)
#
#
# Indices 1 2 3 4 5 6 
#
# 1 0.006979 -0.002379 -0.003762 0.000000 0.000000 0.000000
# 2 -0.002379 0.009255 -0.003306 0.000000 0.000000 0.000000
# 3 -0.003762 -0.003306 0.023558 0.000000 0.000000 0.000000
# 4 0.000000 0.000000 0.000000 0.027868 0.000000 0.000000
# 5 0.000000 0.000000 0.000000 0.000000 0.024939 0.000000
# 6 0.000000 0.000000 0.000000 0.000000 0.000000 0.023698
#
#
# Mechanical properties :
#
#
# Convention : Reuss Voigt Hill
#
# Bulk Modulus (GPa) = 47.85006 69.59230 58.72118
# Shear Modulus (GPa) = 35.17281 39.86561 37.51921
#
# Velocity S-wave (km/s) = 4.22432 4.49731 4.36295
# Velocity P-wave (km/s) = 6.93324 7.89147 7.42782
#
# Compressibility (1/GPa) = 0.02089861
#
# Stress axis : x y z
#
# Youngs Moduli (GPa) = 143.29520 108.05057 42.44882
#
# Poissons Ratio (x) = 0.25704 0.15968
# Poissons Ratio (y) = 0.34089 0.14032
# Poissons Ratio (z) = 0.53903 0.35719
#
# Static dielectric constant tensor:
#      x y z
#    x 1.669930 0.000000 0.000000 
#    y 0.000000 1.716220 0.000000 
#    z 0.000000 0.000000 1.715030 
# 
# From -- ./inp_files/3973.got.cif
#   From: 2010.05.17/outbox.ucp.g08.bks.cvg/sg41_2_cif.got.tgz:3973.got - 2010.06.11 16:28:22.
