data_PCOD9368926
_publ_section_title
;
Structure prediction by ZEFSAII (Michael W. Deem and Ramdas Pophale) SiO2 
 PCOD9368926
Probable space group: F M M 2
;
_chemical_formula_sum "Si O2"
_cell_formula_units_Z 96
_cell_length_a 18.032557
_cell_length_b 18.509575
_cell_length_c 14.424325
_cell_angle_alpha 90.000000
_cell_angle_beta 90.000000
_cell_angle_gamma 90.000000
_cell_volume 4814.478590
_symmetry_space_group_name_H-M "F M M 2"
_symmetry_group_IT_number 42
_symmetry_cell_setting 'orthorhombic'
loop_
_space_group_symop_operation_xyz
x,y,z
-x,-y,z
-x,y,z
x,-y,z
x,1/2+y,1/2+z
-x,1/2-y,1/2+z
-x,1/2+y,1/2+z
x,1/2-y,1/2+z
1/2+x,y,1/2+z
1/2-x,-y,1/2+z
1/2-x,y,1/2+z
1/2+x,-y,1/2+z
1/2+x,1/2+y,z
1/2-x,1/2-y,z
1/2-x,1/2+y,z
1/2+x,1/2-y,z
loop_
_atom_site_type_symbol
_atom_site_label
_atom_site_fract_x
_atom_site_fract_y
_atom_site_fract_z
Si Si1 0.686715 0.413141 0.539360
Si Si2 0.339019 0.174039 0.543055
Si Si3 0.911390 0.306583 0.933947
Si Si4 0.418546 0.086505 0.408579
Si Si5 0.696001 0.585206 0.755541
Si Si6 0.682378 0.806318 0.757464
O O1 0.699152 0.500000 0.525857
O O2 0.759931 0.364005 0.520108
O O3 0.620318 0.380825 0.478389
O O4 0.672151 0.400482 0.649408
O O5 0.364880 0.243837 0.486133
O O6 0.396801 0.113551 0.509931
O O7 0.339558 0.195862 0.650065
O O8 0.884874 0.299992 0.827855
O O9 0.000000 0.299659 0.944953
O O10 0.500000 0.112700 0.383700
O O11 0.360660 0.114155 0.332181
O O12 0.417773 0.000000 0.406443
O O13 0.698840 0.500000 0.766280
O O14 0.776557 0.617557 0.771927
O O15 0.750000 0.750000 0.773431
#
# Coordination Sequence:
#
# PCOD9368926 Si02
#       6
#    16  16  16  16  16  16
#     4  10  21  40  65  90 118 155 201 248 291 341
#     4  11  22  40  63  87 114 153 203 249 292 344
#     4  12  26  40  59  89 124 160 193 236 300 363
#     4  10  20  34  56  88 123 157 193 239 297 354
#     4   9  19  36  61  89 114 149 198 248 291 336
#     4  11  23  40  61  84 112 149 198 247 291 345
#
# _framework density 19.939852999999999
#
# number of rings (size 3 to 8) (size 9 to 14) (size 15 to 20)
#    0.000    1.500    0.000    6.500    0.000    5.000 
#    0.000    1.667    0.000    0.000    0.000    0.000 
#    0.000    0.000    0.000    0.000    0.000    0.000 
#
# Total GULP energy -133978.307277 kJ/mol
# GULP energy per Si atom -5582.429470 kJ/mol
# Density = 1.989447 g / cm^3
# Si number density = 19.939853 Si / 1000 Ang^3
#
#
#
# Elastic Constant Matrix: (Units=GPa)
#
#
# Indices 1 2 3 4 5 6 
#
# 1 94.9033 50.9428 66.7264 0.0000 0.0000 0.0000
# 2 50.9428 72.0248 42.3426 0.0000 0.0000 0.0000
# 3 66.7264 42.3426 88.1768 0.0000 0.0000 0.0000
# 4 0.0000 0.0000 0.0000 25.6526 0.0000 0.0000
# 5 0.0000 0.0000 0.0000 0.0000 13.6918 0.0000
# 6 0.0000 0.0000 0.0000 0.0000 0.0000 20.9013
#
#
#
# Elastic Compliance Matrix: (Units=1/GPa)
#
#
# Indices 1 2 3 4 5 6 
#
# 1 0.026668 -0.009751 -0.015498 0.000000 0.000000 0.000000
# 2 -0.009751 0.022911 -0.003623 0.000000 0.000000 0.000000
# 3 -0.015498 -0.003623 0.024809 0.000000 0.000000 0.000000
# 4 0.000000 0.000000 0.000000 0.038982 0.000000 0.000000
# 5 0.000000 0.000000 0.000000 0.000000 0.073036 0.000000
# 6 0.000000 0.000000 0.000000 0.000000 0.000000 0.047844
#
#
# Mechanical properties :
#
#
# Convention : Reuss Voigt Hill
#
# Bulk Modulus (GPa) = 60.08427 63.90318 61.99372
# Shear Modulus (GPa) = 16.80438 18.38869 17.59654
#
# Velocity S-wave (km/s) = 2.90617 3.04008 2.97388
# Velocity P-wave (km/s) = 6.43889 6.66636 6.55361
#
# Compressibility (1/GPa) = 0.01664329
#
# Stress axis : x y z
#
# Youngs Moduli (GPa) = 37.49823 43.64768 40.30864
#
# Poissons Ratio (x) = 0.42560 0.62471
# Poissons Ratio (y) = 0.36564 0.14604
# Poissons Ratio (z) = 0.58115 0.15813
#
# Static dielectric constant tensor:
#      x y z
#    x 1.685960 0.000000 0.000000 
#    y 0.000000 1.758940 0.000000 
#    z 0.000000 0.000000 1.717190 
# 
# From -- ./inp_files/13995.got.cif
#   From: 2010.05.17/outbox.cif.g08.bks.cpg/sg42_7_cif.got.tgz:13995.got - 2010.06.03 19:03:34.
