data_PCOD9368139
_publ_section_title
;
Structure prediction by ZEFSAII (Michael W. Deem and Ramdas Pophale) SiO2 
 PCOD9368139
Probable space group: F M M 2
;
_chemical_formula_sum "Si O2"
_cell_formula_units_Z 96
_cell_length_a 8.787925
_cell_length_b 32.087118
_cell_length_c 19.508023
_cell_angle_alpha 90.000000
_cell_angle_beta 90.000000
_cell_angle_gamma 90.000000
_cell_volume 5500.856455
_symmetry_space_group_name_H-M "F M M 2"
_symmetry_group_IT_number 42
_symmetry_cell_setting 'orthorhombic'
loop_
_space_group_symop_operation_xyz
x,y,z
-x,-y,z
-x,y,z
x,-y,z
x,1/2+y,1/2+z
-x,1/2-y,1/2+z
-x,1/2+y,1/2+z
x,1/2-y,1/2+z
1/2+x,y,1/2+z
1/2-x,-y,1/2+z
1/2-x,y,1/2+z
1/2+x,-y,1/2+z
1/2+x,1/2+y,z
1/2-x,1/2-y,z
1/2-x,1/2+y,z
1/2+x,1/2-y,z
loop_
_atom_site_type_symbol
_atom_site_label
_atom_site_fract_x
_atom_site_fract_y
_atom_site_fract_z
Si Si1 0.181632 0.879076 0.370550
Si Si2 0.181786 0.615903 0.708983
Si Si3 0.319673 0.452287 0.610770
Si Si4 0.181629 0.952006 0.961006
Si Si5 0.817646 0.208436 0.213651
Si Si6 0.818431 0.707522 0.367793
O O1 0.220088 0.885304 0.289948
O O2 0.237264 0.918640 0.412940
O O3 0.259816 0.836441 0.396714
O O4 0.000000 0.874057 0.374847
O O5 0.267014 0.580887 0.666575
O O6 0.216171 0.662960 0.682934
O O7 0.000000 0.609751 0.702997
O O8 0.500000 0.448853 0.598686
O O9 0.287279 0.500000 0.632864
O O10 0.233144 0.445159 0.539305
O O11 0.000000 0.947623 0.955462
O O12 0.222154 0.000000 0.943410
O O13 0.750000 0.250000 0.179507
O O14 0.744460 0.207002 0.289582
O O15 0.000000 0.212204 0.220388
O O16 0.750000 0.750000 0.399315
O O17 0.000000 0.709457 0.367896
#
# Coordination Sequence:
#
# PCOD9368139 Si02
#       6
#    16  16  16  16  16  16
#     4  10  20  34  52  77 107 136 170 212 257 301
#     4   9  19  33  50  75 105 135 167 206 252 299
#     4  10  21  36  54  75  99 131 171 211 252 303
#     4  10  21  37  56  76 100 133 171 209 254 310
#     4   9  16  27  44  69 100 133 168 205 248 298
#     4  10  17  27  45  70 101 135 170 207 250 299
#
# _framework density 17.451829
#
# number of rings (size 3 to 8) (size 9 to 14) (size 15 to 20)
#    0.000    2.333    0.000    5.500    0.000    6.667 
#    0.000    3.333    0.000    1.000    0.000    4.667 
#    0.000    0.000    0.000    0.000    0.000    0.000 
#
# Total GULP energy -133803.534496 kJ/mol
# GULP energy per Si atom -5575.147271 kJ/mol
# Density = 1.741211 g / cm^3
# Si number density = 17.451829 Si / 1000 Ang^3
#
#
#
# Elastic Constant Matrix: (Units=GPa)
#
#
# Indices 1 2 3 4 5 6 
#
# 1 80.9104 66.4163 27.6679 0.0000 0.0000 0.0000
# 2 66.4163 155.8274 56.5064 0.0000 0.0000 0.0000
# 3 27.6679 56.5064 33.2613 0.0000 0.0000 0.0000
# 4 0.0000 0.0000 0.0000 -15.9887 0.0000 0.0000
# 5 0.0000 0.0000 0.0000 0.0000 25.0667 0.0000
# 6 0.0000 0.0000 0.0000 0.0000 0.0000 37.9643
#
#
#
# Elastic Compliance Matrix: (Units=1/GPa)
#
#
# Indices 1 2 3 4 5 6 
#
# 1 0.019381 -0.006288 -0.005439 0.000000 0.000000 0.000000
# 2 -0.006288 0.018754 -0.026630 0.000000 0.000000 0.000000
# 3 -0.005439 -0.026630 0.079830 0.000000 0.000000 0.000000
# 4 0.000000 0.000000 0.000000 -0.062544 0.000000 0.000000
# 5 0.000000 0.000000 0.000000 0.000000 0.039894 0.000000
# 6 0.000000 0.000000 0.000000 0.000000 0.000000 0.026341
#
#
# Mechanical properties :
#
#
# Convention : Reuss Voigt Hill
#
# Bulk Modulus (GPa) = 24.24200 63.46449 43.85324
# Shear Modulus (GPa) = 23.57173 17.36904 20.47038
#
# Velocity S-wave (km/s) = 3.67914 3.15819 3.42857
# Velocity P-wave (km/s) = 5.65412 7.05290 6.39189
#
# Compressibility (1/GPa) = 0.04125072
#
# Stress axis : x y z
#
# Youngs Moduli (GPa) = 51.59687 53.32187 12.52669
#
# Poissons Ratio (x) = 0.33530 0.06813
# Poissons Ratio (y) = 0.32445 0.33358
# Poissons Ratio (z) = 0.28063 1.41995
#
# Static dielectric constant tensor:
#      x y z
#    x 1.579830 0.000000 0.000000 
#    y 0.000000 1.638000 0.000000 
#    z 0.000000 0.000000 1.560400 
# 
# From -- ./inp_files/23718.got.cif
#   From: 2010.05.17/outbox.cif.g08.bks.cpg/sg42_12_cif.got.tgz:23718.got - 2010.06.03 19:03:34.
