data_PCOD9368015
_publ_section_title
;
Structure prediction by ZEFSAII (Michael W. Deem and Ramdas Pophale) SiO2 
 PCOD9368015
Probable space group: A B A 2
;
_chemical_formula_sum "Si O2"
_cell_formula_units_Z 64
_cell_length_a 29.606271
_cell_length_b 11.476991
_cell_length_c 8.576155
_cell_angle_alpha 90.000000
_cell_angle_beta 90.000000
_cell_angle_gamma 90.000000
_cell_volume 2914.099476
_symmetry_space_group_name_H-M "A B A 2"
_symmetry_group_IT_number 41
_symmetry_cell_setting 'orthorhombic'
loop_
_space_group_symop_operation_xyz
x,y,z
-x,-y,z
1/2-x,y,1/2+z
1/2+x,-y,1/2+z
x,1/2+y,1/2+z
-x,1/2-y,1/2+z
1/2-x,1/2+y,z
1/2+x,1/2-y,z
loop_
_atom_site_type_symbol
_atom_site_label
_atom_site_fract_x
_atom_site_fract_y
_atom_site_fract_z
Si Si1 0.879291 0.838473 0.317390
Si Si2 0.284361 0.258881 0.356877
Si Si3 0.908735 0.000331 0.750885
Si Si4 0.964585 0.692964 0.401611
Si Si5 0.057462 0.750392 0.244807
Si Si6 0.807363 0.193270 0.014096
Si Si7 0.164079 0.064331 0.013342
Si Si8 0.871342 0.100093 0.443395
O O1 0.929506 0.787351 0.329774
O O2 0.848730 0.754929 0.426207
O O3 0.859254 0.855263 0.144053
O O4 0.875691 0.969484 0.380074
O O5 0.234697 0.303161 0.396537
O O6 0.293347 0.243407 0.173552
O O7 0.294929 0.137030 0.440841
O O8 0.321405 0.348892 0.424013
O O9 0.949735 0.071009 0.826637
O O10 0.886999 0.084163 0.621455
O O11 0.925368 0.876222 0.688495
O O12 0.872244 0.966179 0.880730
O O13 0.957052 0.685337 0.586866
O O14 0.014770 0.729622 0.356180
O O15 0.095866 0.817947 0.340638
O O16 0.819421 0.062325 0.066959
#
# Coordination Sequence:
#
# PCOD9368015 Si02
#       8
#     8   8   8   8   8   8   8   8
#     4  12  25  49  73 104 143 192 234 298 356 426
#     4  12  27  47  73 107 142 188 236 294 357 427
#     4  12  25  47  74 102 142 187 241 292 359 427
#     4  12  26  47  74 103 147 185 243 296 363 427
#     4  12  27  48  69 109 142 189 240 301 357 434
#     4  12  28  48  71 108 145 182 245 293 354 430
#     4  12  26  46  77 102 142 191 235 292 364 420
#     4  12  25  48  76 101 149 188 237 298 361 421
#
# _framework density 21.962188000000001
#
# number of rings (size 3 to 8) (size 9 to 14) (size 15 to 20)
#    0.000    0.000    5.000    4.875    5.250    1.500 
#    2.250    0.000    0.000    0.000    0.000    0.000 
#    0.000    0.000    0.000    0.000    0.000    0.000 
#
# Total GULP energy -179225.966638 kJ/mol
# GULP energy per Si atom -5600.811457 kJ/mol
# Density = 2.191220 g / cm^3
# Si number density = 21.962188 Si / 1000 Ang^3
#
#
#
# Elastic Constant Matrix: (Units=GPa)
#
#
# Indices 1 2 3 4 5 6 
#
# 1 82.7841 14.8816 -15.2503 0.0000 0.0000 0.0000
# 2 14.8816 114.0000 2.4112 0.0000 0.0000 0.0000
# 3 -15.2503 2.4112 93.9858 0.0000 0.0000 0.0000
# 4 0.0000 0.0000 0.0000 32.5518 0.0000 0.0000
# 5 0.0000 0.0000 0.0000 0.0000 33.4202 0.0000
# 6 0.0000 0.0000 0.0000 0.0000 0.0000 24.1859
#
#
#
# Elastic Compliance Matrix: (Units=1/GPa)
#
#
# Indices 1 2 3 4 5 6 
#
# 1 0.012778 -0.001713 0.002117 0.000000 0.000000 0.000000
# 2 -0.001713 0.009006 -0.000509 0.000000 0.000000 0.000000
# 3 0.002117 -0.000509 0.010997 0.000000 0.000000 0.000000
# 4 0.000000 0.000000 0.000000 0.030720 0.000000 0.000000
# 5 0.000000 0.000000 0.000000 0.000000 0.029922 0.000000
# 6 0.000000 0.000000 0.000000 0.000000 0.000000 0.041346
#
#
# Mechanical properties :
#
#
# Convention : Reuss Voigt Hill
#
# Bulk Modulus (GPa) = 30.70184 32.76168 31.73176
# Shear Modulus (GPa) = 34.28530 37.28007 35.78268
#
# Velocity S-wave (km/s) = 3.95537 4.12450 4.04082
# Velocity P-wave (km/s) = 5.90506 6.13447 6.02086
#
# Compressibility (1/GPa) = 0.03257134
#
# Stress axis : x y z
#
# Youngs Moduli (GPa) = 78.26227 111.03366 90.93790
#
# Poissons Ratio (x) = 0.19018 -0.19254
# Poissons Ratio (y) = 0.13405 0.04629
# Poissons Ratio (z) = -0.16570 0.05651
#
# Static dielectric constant tensor:
#      x y z
#    x 1.750200 0.000000 0.000000 
#    y 0.000000 1.810750 0.000000 
#    z 0.000000 0.000000 1.850510 
# 
# From -- ./inp_files/3984.got.cif
#   From: 2010.05.17/outbox.cif.g08.bks.cpg/sg41_2_cif.got.tgz:3984.got - 2010.06.03 18:54:24.
