data_PCOD9368558
_publ_section_title
;
Structure prediction by ZEFSAII (Michael W. Deem and Ramdas Pophale) SiO2 
 PCOD9368558
Probable space group: F M M 2
;
_chemical_formula_sum "Si O2"
_cell_formula_units_Z 112
_cell_length_a 14.153991
_cell_length_b 14.153990
_cell_length_c 29.489848
_cell_angle_alpha 90.000000
_cell_angle_beta 90.000000
_cell_angle_gamma 90.000000
_cell_volume 5907.861883
_symmetry_space_group_name_H-M "F M M 2"
_symmetry_group_IT_number 42
_symmetry_cell_setting 'orthorhombic'
loop_
_space_group_symop_operation_xyz
x,y,z
-x,-y,z
-x,y,z
x,-y,z
x,1/2+y,1/2+z
-x,1/2-y,1/2+z
-x,1/2+y,1/2+z
x,1/2-y,1/2+z
1/2+x,y,1/2+z
1/2-x,-y,1/2+z
1/2-x,y,1/2+z
1/2+x,-y,1/2+z
1/2+x,1/2+y,z
1/2-x,1/2-y,z
1/2-x,1/2+y,z
1/2+x,1/2-y,z
loop_
_atom_site_type_symbol
_atom_site_label
_atom_site_fract_x
_atom_site_fract_y
_atom_site_fract_z
Si Si1 0.296006 0.111753 0.378930
Si Si2 0.112125 0.389592 0.471846
Si Si3 0.388052 0.781813 0.565482
Si Si4 0.389592 0.387875 0.697368
Si Si5 0.781813 0.888052 0.603732
Si Si6 0.111753 0.796005 0.790284
Si Si7 0.892433 0.107568 0.334607
O O1 0.335337 0.145098 0.426826
O O2 0.340877 0.159123 0.334607
O O3 0.183921 0.124317 0.373609
O O4 0.317596 0.000000 0.376570
O O5 0.138545 0.500000 0.480973
O O6 0.128787 0.325745 0.515743
O O7 0.000000 0.388764 0.462546
O O8 0.500000 0.784852 0.574921
O O9 0.323631 0.846570 0.598443
O O10 0.346571 0.676369 0.570771
O O11 0.500000 0.361455 0.688241
O O12 0.388763 0.500000 0.706668
O O13 0.325745 0.371213 0.653471
O O14 0.354902 0.335337 0.742388
O O15 0.784852 0.000000 0.594293
O O16 0.124317 0.683921 0.795605
O O17 0.000000 0.817596 0.792644
O O18 0.000000 0.119622 0.350557
O O19 0.880379 0.000000 0.318658
#
# Coordination Sequence:
#
# PCOD9368558 Si02
#       7
#    16  16  16  16  16  16  16
#     4  10  19  33  56  85 115 149 189 236 288 345
#     4   9  18  34  59  89 119 149 188 244 302 353
#     4  10  21  39  63  91 121 158 202 251 308 367
#     4   9  18  34  59  89 119 149 188 244 302 353
#     4  10  21  39  63  91 121 158 202 251 308 367
#     4  10  19  33  56  85 115 149 189 236 288 345
#     4   9  19  36  54  74 109 159 202 234 276 335
#
# _framework density 18.957788999999998
#
# number of rings (size 3 to 8) (size 9 to 14) (size 15 to 20)
#    0.000    2.429    0.000    2.143    0.000    3.143 
#   10.286    0.000    0.000    1.714    0.000    8.000 
#    0.000    0.000    0.000    0.000    0.000    0.000 
#
# Total GULP energy -156207.161110 kJ/mol
# GULP energy per Si atom -5578.827182 kJ/mol
# Density = 1.891464 g / cm^3
# Si number density = 18.957789 Si / 1000 Ang^3
#
#
#
# Elastic Constant Matrix: (Units=GPa)
#
#
# Indices 1 2 3 4 5 6 
#
# 1 101.3343 57.5387 65.4745 0.0000 0.0000 0.0000
# 2 57.5387 101.3342 65.4744 0.0000 0.0000 0.0000
# 3 65.4745 65.4744 104.5732 0.0000 0.0000 0.0000
# 4 0.0000 0.0000 0.0000 21.0184 0.0000 0.0000
# 5 0.0000 0.0000 0.0000 0.0000 21.0184 0.0000
# 6 0.0000 0.0000 0.0000 0.0000 0.0000 23.4367
#
#
#
# Elastic Compliance Matrix: (Units=1/GPa)
#
#
# Indices 1 2 3 4 5 6 
#
# 1 0.017920 -0.004913 -0.008144 0.000000 0.000000 0.000000
# 2 -0.004913 0.017920 -0.008144 0.000000 0.000000 0.000000
# 3 -0.008144 -0.008144 0.019760 0.000000 0.000000 0.000000
# 4 0.000000 0.000000 0.000000 0.047577 0.000000 0.000000
# 5 0.000000 0.000000 0.000000 0.000000 0.047577 0.000000
# 6 0.000000 0.000000 0.000000 0.000000 0.000000 0.042668
#
#
# Mechanical properties :
#
#
# Convention : Reuss Voigt Hill
#
# Bulk Modulus (GPa) = 75.76263 76.02412 75.89337
# Shear Modulus (GPa) = 20.81392 21.01163 20.91277
#
# Velocity S-wave (km/s) = 3.31707 3.33278 3.32493
# Velocity P-wave (km/s) = 7.39738 7.41611 7.40675
#
# Compressibility (1/GPa) = 0.01319912
#
# Stress axis : x y z
#
# Youngs Moduli (GPa) = 55.80368 55.80365 50.60671
#
# Poissons Ratio (x) = 0.27419 0.41212
# Poissons Ratio (y) = 0.27419 0.41212
# Poissons Ratio (z) = 0.45444 0.45444
#
# Static dielectric constant tensor:
#      x y z
#    x 1.682860 0.000000 0.000000 
#    y 0.000000 1.682860 0.000000 
#    z 0.000000 0.000000 1.626000 
# 
# From -- ./inp_files/29509.got.cif
#   From: 2010.05.17/outbox.cif.g08.bks.cpg/sg42_15_cif.got.tgz:29509.got - 2010.06.03 19:03:34.
