data_PCOD9368074
_publ_section_title
;
Structure prediction by ZEFSAII (Michael W. Deem and Ramdas Pophale) SiO2 
 PCOD9368074
Probable space group: A B A 2
;
_chemical_formula_sum "Si O2"
_cell_formula_units_Z 32
_cell_length_a 12.000000
_cell_length_b 30.000000
_cell_length_c 9.000000
_cell_angle_alpha 90.000000
_cell_angle_beta 90.000000
_cell_angle_gamma 90.000000
_cell_volume 3240.000000
_symmetry_space_group_name_H-M "A B A 2"
_symmetry_group_IT_number 41
_symmetry_cell_setting 'orthorhombic'
loop_
_space_group_symop_operation_xyz
x,y,z
-x,-y,z
1/2-x,y,1/2+z
1/2+x,-y,1/2+z
x,1/2+y,1/2+z
-x,1/2-y,1/2+z
1/2-x,1/2+y,z
1/2+x,1/2-y,z
loop_
_atom_site_type_symbol
_atom_site_label
_atom_site_fract_x
_atom_site_fract_y
_atom_site_fract_z
Si Si1 0.629803 0.239987 0.619300
Si Si2 0.865437 0.995780 0.918585
Si Si3 0.123994 0.727935 0.769335
Si Si4 0.392714 0.124044 0.675369
Si Si5 0.370012 0.865241 0.568843
Si Si6 0.727562 0.583561 0.350767
Si Si7 0.989172 0.448456 0.906820
Si Si8 0.287374 0.054562 0.135112
O O1 0.750972 0.256840 0.697664
O O2 0.624581 0.259047 0.447208
O O3 0.500552 0.245390 0.697590
O O4 0.642769 0.186372 0.612271
O O5 0.811139 0.041552 0.857506
O O6 0.824507 0.958401 0.800989
O O7 0.000000 0.000000 0.931429
O O8 0.802793 0.981094 0.070116
O O9 0.120149 0.674032 0.741542
O O10 0.496393 0.126113 0.558977
O O11 0.276176 0.102154 0.622865
O O12 0.436646 0.087109 0.792826
O O13 0.318917 0.898692 0.693538
O O14 0.297765 0.876686 0.424830
O O15 0.614789 0.568663 0.438031
O O16 0.901052 0.448812 0.040991
O O17 0.000000 0.500000 0.853154
#
# Coordination Sequence:
#
# PCOD9368074 Si02
#       8
#     8   8   8   8   8   8   8   8
#     4  11  24  47  72 108 141 185 236 297 374 443
#     4  12  26  39  64  94 130 179 233 279 337 401
#     4  11  25  45  76 104 144 184 240 297 374 446
#     4  10  24  44  66  96 136 179 221 285 347 411
#     4  10  23  42  66  94 135 172 222 277 347 415
#     4  11  22  40  64  92 130 177 225 275 335 407
#     4  11  22  41  63  89 132 180 219 274 338 396
#     4  12  23  43  61  92 135 168 228 281 332 402
#
# _framework density 9.8765429999999999
#
# number of rings (size 3 to 8) (size 9 to 14) (size 15 to 20)
#    0.000    1.000    2.500    3.375    3.500    4.500 
#    0.000    0.000    0.000    0.000    0.000    0.000 
#    0.000    0.000    0.000    0.000    0.000    0.000 
#
# Total GULP energy -178417.164354 kJ/mol
# GULP energy per Si atom -5575.536386 kJ/mol
# Density = 0.985406 g / cm^3
# Si number density = 9.876543 Si / 1000 Ang^3
#
#
#
# Elastic Constant Matrix: (Units=GPa)
#
#
# Indices 1 2 3 4 5 6 
#
# 1 160.9705 26.6885 31.4266 0.0000 0.0000 0.0000
# 2 26.6885 102.5804 1.6612 0.0000 0.0000 0.0000
# 3 31.4266 1.6612 66.4572 0.0000 0.0000 0.0000
# 4 0.0000 0.0000 0.0000 31.7366 0.0000 0.0000
# 5 0.0000 0.0000 0.0000 0.0000 38.3848 0.0000
# 6 0.0000 0.0000 0.0000 0.0000 0.0000 49.8600
#
#
#
# Elastic Compliance Matrix: (Units=1/GPa)
#
#
# Indices 1 2 3 4 5 6 
#
# 1 0.007165 -0.001810 -0.003343 0.000000 0.000000 0.000000
# 2 -0.001810 0.010210 0.000601 0.000000 0.000000 0.000000
# 3 -0.003343 0.000601 0.016613 0.000000 0.000000 0.000000
# 4 0.000000 0.000000 0.000000 0.031509 0.000000 0.000000
# 5 0.000000 0.000000 0.000000 0.000000 0.026052 0.000000
# 6 0.000000 0.000000 0.000000 0.000000 0.000000 0.020056
#
#
# Mechanical properties :
#
#
# Convention : Reuss Voigt Hill
#
# Bulk Modulus (GPa) = 40.18774 49.95120 45.06947
# Shear Modulus (GPa) = 38.75837 42.01172 40.38505
#
# Velocity S-wave (km/s) = 4.43441 4.61677 4.52651
# Velocity P-wave (km/s) = 6.82700 7.33227 7.08414
#
# Compressibility (1/GPa) = 0.02488321
#
# Stress axis : x y z
#
# Youngs Moduli (GPa) = 139.56578 97.94674 60.19339
#
# Poissons Ratio (x) = 0.17728 0.20123
# Poissons Ratio (y) = 0.25262 -0.03616
# Poissons Ratio (z) = 0.46657 -0.05884
#
# Static dielectric constant tensor:
#      x y z
#    x 1.737160 0.000000 0.000000 
#    y 0.000000 1.696260 0.000000 
#    z 0.000000 0.000000 1.735520 
# 
# From -- ./inp_files/2219.got.cif
#   From: 2010.05.17/outbox.ucp.g08.bks.cvg/sg41_2_cif.got.tgz:2219.got - 2010.06.11 16:28:22.
