data_PCOD9368415
_publ_section_title
;
Structure prediction by ZEFSAII (Michael W. Deem and Ramdas Pophale) SiO2 
 PCOD9368415
Probable space group: F M M 2
;
_chemical_formula_sum "Si O2"
_cell_formula_units_Z 112
_cell_length_a 7.592646
_cell_length_b 29.907172
_cell_length_c 26.565124
_cell_angle_alpha 90.000000
_cell_angle_beta 90.000000
_cell_angle_gamma 90.000000
_cell_volume 6032.264106
_symmetry_space_group_name_H-M "F M M 2"
_symmetry_group_IT_number 42
_symmetry_cell_setting 'orthorhombic'
loop_
_space_group_symop_operation_xyz
x,y,z
-x,-y,z
-x,y,z
x,-y,z
x,1/2+y,1/2+z
-x,1/2-y,1/2+z
-x,1/2+y,1/2+z
x,1/2-y,1/2+z
1/2+x,y,1/2+z
1/2-x,-y,1/2+z
1/2-x,y,1/2+z
1/2+x,-y,1/2+z
1/2+x,1/2+y,z
1/2-x,1/2-y,z
1/2-x,1/2+y,z
1/2+x,1/2-y,z
loop_
_atom_site_type_symbol
_atom_site_label
_atom_site_fract_x
_atom_site_fract_y
_atom_site_fract_z
Si Si1 0.288762 0.698241 0.354680
Si Si2 0.787969 0.301768 0.741538
Si Si3 0.707159 0.359277 0.149290
Si Si4 0.209578 0.802581 0.551007
Si Si5 0.709850 0.950790 0.985737
Si Si6 0.213006 0.049637 0.103981
Si Si7 0.716383 0.355571 0.451335
O O1 0.500000 0.693321 0.353093
O O2 0.250000 0.750000 0.366302
O O3 0.221411 0.688994 0.298167
O O4 0.223508 0.667149 0.399685
O O5 0.750000 0.250000 0.729433
O O6 0.718124 0.334063 0.697963
O O7 0.000000 0.305881 0.742733
O O8 0.500000 0.365968 0.159213
O O9 0.721015 0.327525 0.100489
O O10 0.781029 0.407965 0.135051
O O11 0.250000 0.750000 0.550938
O O12 0.273080 0.826724 0.499953
O O13 0.000000 0.807858 0.552381
O O14 0.500000 0.952172 0.977378
O O15 0.738657 0.944349 0.045418
O O16 0.781798 0.000000 0.972301
O O17 0.776632 0.906640 0.958051
O O18 0.000000 0.049810 0.106365
O O19 0.273640 0.000000 0.119616
O O20 0.500000 0.355330 0.451498
#
# Coordination Sequence:
#
# PCOD9368415 Si02
#       7
#    16  16  16  16  16  16  16
#     4   9  17  31  48  64  86 115 150 187 220 258
#     4   9  18  31  47  65  85 115 152 187 220 258
#     4  10  19  31  46  66  91 119 150 183 224 268
#     4  11  21  31  43  64  93 121 148 178 222 272
#     4   9  16  28  46  66  89 116 147 181 218 264
#     4   9  17  29  45  65  90 118 148 183 221 263
#     4   9  17  29  45  66  90 116 145 180 222 263
#
# _framework density 18.566825000000001
#
# number of rings (size 3 to 8) (size 9 to 14) (size 15 to 20)
#    0.000    2.571    1.429    1.286    0.000    1.714 
#    0.000    1.429    0.000    0.857    0.000    6.000 
#    0.000    0.000    0.000   14.286    0.000   14.857 
#
# Total GULP energy -156183.023136 kJ/mol
# GULP energy per Si atom -5577.965112 kJ/mol
# Density = 1.852457 g / cm^3
# Si number density = 18.566825 Si / 1000 Ang^3
#
#
#
# Elastic Constant Matrix: (Units=GPa)
#
#
# Indices 1 2 3 4 5 6 
#
# 1 40.1721 -1.8703 -0.4837 0.0000 0.0000 0.0000
# 2 -1.8703 191.9811 114.7372 0.0000 0.0000 0.0000
# 3 -0.4837 114.7372 132.4457 0.0000 0.0000 0.0000
# 4 0.0000 0.0000 0.0000 20.3200 0.0000 0.0000
# 5 0.0000 0.0000 0.0000 0.0000 12.1944 0.0000
# 6 0.0000 0.0000 0.0000 0.0000 0.0000 -6.3820
#
#
#
# Elastic Compliance Matrix: (Units=1/GPa)
#
#
# Indices 1 2 3 4 5 6 
#
# 1 0.024908 0.000390 -0.000247 0.000000 0.000000 0.000000
# 2 0.000390 0.010807 -0.009361 0.000000 0.000000 0.000000
# 3 -0.000247 -0.009361 0.015658 0.000000 0.000000 0.000000
# 4 0.000000 0.000000 0.000000 0.049213 0.000000 0.000000
# 5 0.000000 0.000000 0.000000 0.000000 0.082005 0.000000
# 6 0.000000 0.000000 0.000000 0.000000 0.000000 -0.156691
#
#
# Mechanical properties :
#
#
# Convention : Reuss Voigt Hill
#
# Bulk Modulus (GPa) = 30.35953 65.48503 47.92228
# Shear Modulus (GPa) = 90.39224 22.04087 56.21655
#
# Velocity S-wave (km/s) = 6.98502 3.44918 5.50851
# Velocity P-wave (km/s) = 9.02447 7.15604 8.14402
#
# Compressibility (1/GPa) = 0.03293859
#
# Stress axis : x y z
#
# Youngs Moduli (GPa) = 40.14760 92.53234 63.86320
#
# Poissons Ratio (x) = -0.03613 0.01579
# Poissons Ratio (y) = -0.01568 0.59780
# Poissons Ratio (z) = 0.00993 0.86616
#
# Static dielectric constant tensor:
#      x y z
#    x 1.698340 0.000000 0.000000 
#    y 0.000000 1.645040 0.000000 
#    z 0.000000 0.000000 1.626280 
# 
# From -- ./inp_files/29069.got.cif
#   From: 2010.05.17/outbox.cif.g08.bks.cpg/sg42_15_cif.got.tgz:29069.got - 2010.06.03 19:03:34.
