data_PCOD9368491
_publ_section_title
;
Structure prediction by ZEFSAII (Michael W. Deem and Ramdas Pophale) SiO2 
 PCOD9368491
Probable space group: F M M 2
;
_chemical_formula_sum "Si O2"
_cell_formula_units_Z 96
_cell_length_a 23.062067
_cell_length_b 19.265227
_cell_length_c 11.711413
_cell_angle_alpha 90.000000
_cell_angle_beta 90.000000
_cell_angle_gamma 90.000000
_cell_volume 5203.333433
_symmetry_space_group_name_H-M "F M M 2"
_symmetry_group_IT_number 42
_symmetry_cell_setting 'orthorhombic'
loop_
_space_group_symop_operation_xyz
x,y,z
-x,-y,z
-x,y,z
x,-y,z
x,1/2+y,1/2+z
-x,1/2-y,1/2+z
-x,1/2+y,1/2+z
x,1/2-y,1/2+z
1/2+x,y,1/2+z
1/2-x,-y,1/2+z
1/2-x,y,1/2+z
1/2+x,-y,1/2+z
1/2+x,1/2+y,z
1/2-x,1/2-y,z
1/2-x,1/2+y,z
1/2+x,1/2-y,z
loop_
_atom_site_type_symbol
_atom_site_label
_atom_site_fract_x
_atom_site_fract_y
_atom_site_fract_z
Si Si1 0.140386 0.850460 0.633730
Si Si2 0.836782 0.079020 0.864821
Si Si3 0.362374 0.809503 0.703621
Si Si4 0.934500 0.347458 0.495908
Si Si5 0.739206 0.831233 0.526421
Si Si6 0.068035 0.687069 0.924683
O O1 0.143501 0.903924 0.736732
O O2 0.142388 0.773869 0.691892
O O3 0.199042 0.860450 0.562173
O O4 0.087387 0.847395 0.544556
O O5 0.892394 0.096981 0.941055
O O6 0.788658 0.130688 0.917922
O O7 0.817845 0.000000 0.876343
O O8 0.415407 0.834496 0.625024
O O9 0.304980 0.835940 0.635676
O O10 0.383003 0.830092 0.829796
O O11 0.927349 0.270929 0.439530
O O12 0.000000 0.369017 0.484503
O O13 0.750000 0.750000 0.500733
O O14 0.000000 0.672069 0.897934
#
# Coordination Sequence:
#
# PCOD9368491 Si02
#       6
#    16  16  16  16  16  16
#     4  10  21  34  54  83 116 151 191 239 302 357
#     4  11  23  38  56  83 120 158 199 243 300 372
#     4   9  17  33  55  87 111 145 188 246 298 338
#     4   9  18  33  53  80 114 150 192 239 290 348
#     4   9  21  36  61  84 112 149 198 252 298 351
#     4  10  19  32  57  88 119 149 189 249 303 347
#
# _framework density 18.449711000000001
#
# number of rings (size 3 to 8) (size 9 to 14) (size 15 to 20)
#    0.000    2.333    1.667    1.500    2.333    3.000 
#    0.000    0.000    0.000    1.000    0.000    0.000 
#    0.000    0.000    0.000    0.000    0.000    0.000 
#
# Total GULP energy -133702.173908 kJ/mol
# GULP energy per Si atom -5570.923913 kJ/mol
# Density = 1.840772 g / cm^3
# Si number density = 18.449711 Si / 1000 Ang^3
#
#
#
# Elastic Constant Matrix: (Units=GPa)
#
#
# Indices 1 2 3 4 5 6 
#
# 1 61.2530 14.8769 29.0585 0.0000 0.0000 0.0000
# 2 14.8769 43.7382 27.5538 0.0000 0.0000 0.0000
# 3 29.0585 27.5538 82.1499 0.0000 0.0000 0.0000
# 4 0.0000 0.0000 0.0000 8.3204 0.0000 0.0000
# 5 0.0000 0.0000 0.0000 0.0000 15.7222 0.0000
# 6 0.0000 0.0000 0.0000 0.0000 0.0000 9.8651
#
#
#
# Elastic Compliance Matrix: (Units=1/GPa)
#
#
# Indices 1 2 3 4 5 6 
#
# 1 0.019916 -0.002962 -0.006051 0.000000 0.000000 0.000000
# 2 -0.002962 0.029429 -0.008823 0.000000 0.000000 0.000000
# 3 -0.006051 -0.008823 0.017273 0.000000 0.000000 0.000000
# 4 0.000000 0.000000 0.000000 0.120186 0.000000 0.000000
# 5 0.000000 0.000000 0.000000 0.000000 0.063604 0.000000
# 6 0.000000 0.000000 0.000000 0.000000 0.000000 0.101367
#
#
# Mechanical properties :
#
#
# Convention : Reuss Voigt Hill
#
# Bulk Modulus (GPa) = 32.31538 36.67994 34.49766
# Shear Modulus (GPa) = 12.57031 14.49168 13.53099
#
# Velocity S-wave (km/s) = 2.61306 2.80566 2.71107
# Velocity P-wave (km/s) = 5.16309 5.51542 5.34216
#
# Compressibility (1/GPa) = 0.03094502
#
# Stress axis : x y z
#
# Youngs Moduli (GPa) = 50.21125 33.98011 57.89495
#
# Poissons Ratio (x) = 0.10065 0.35034
# Poissons Ratio (y) = 0.14872 0.51081
# Poissons Ratio (z) = 0.30384 0.29981
#
# Static dielectric constant tensor:
#      x y z
#    x 1.645790 0.000000 0.000000 
#    y 0.000000 1.623890 0.000000 
#    z 0.000000 0.000000 1.675820 
# 
# From -- ./inp_files/8794.got.cif
#   From: 2010.05.17/outbox.cif.g08.bks.cpg/sg42_5_cif.got.tgz:8794.got - 2010.06.03 19:03:34.
