data_PCOD9368525
_publ_section_title
;
Structure prediction by ZEFSAII (Michael W. Deem and Ramdas Pophale) SiO2 
 PCOD9368525
Probable space group: F M M 2
;
_chemical_formula_sum "Si O2"
_cell_formula_units_Z 96
_cell_length_a 18.956814
_cell_length_b 8.650469
_cell_length_c 31.801401
_cell_angle_alpha 90.000000
_cell_angle_beta 90.000000
_cell_angle_gamma 90.000000
_cell_volume 5214.963296
_symmetry_space_group_name_H-M "F M M 2"
_symmetry_group_IT_number 42
_symmetry_cell_setting 'orthorhombic'
loop_
_space_group_symop_operation_xyz
x,y,z
-x,-y,z
-x,y,z
x,-y,z
x,1/2+y,1/2+z
-x,1/2-y,1/2+z
-x,1/2+y,1/2+z
x,1/2-y,1/2+z
1/2+x,y,1/2+z
1/2-x,-y,1/2+z
1/2-x,y,1/2+z
1/2+x,-y,1/2+z
1/2+x,1/2+y,z
1/2-x,1/2-y,z
1/2-x,1/2+y,z
1/2+x,1/2-y,z
loop_
_atom_site_type_symbol
_atom_site_label
_atom_site_fract_x
_atom_site_fract_y
_atom_site_fract_z
Si Si1 0.081036 0.811474 0.194160
Si Si2 0.171539 0.183475 0.864512
Si Si3 0.670919 0.314239 0.275055
Si Si4 0.917750 0.186414 0.031502
Si Si5 0.583887 0.182792 0.940926
Si Si6 0.328987 0.187093 0.613008
O O1 0.120703 0.765045 0.236851
O O2 0.125811 0.762342 0.153549
O O3 0.000000 0.759180 0.192492
O O4 0.079944 0.000000 0.193701
O O5 0.250000 0.250000 0.871008
O O6 0.145399 0.253908 0.820306
O O7 0.124002 0.231871 0.903660
O O8 0.175396 0.000000 0.860588
O O9 0.674121 0.500000 0.276053
O O10 0.750000 0.250000 0.268596
O O11 0.869356 0.234938 0.070459
O O12 0.000000 0.228533 0.039068
O O13 0.914894 0.000000 0.028267
O O14 0.894905 0.257863 0.987124
O O15 0.500000 0.210460 0.937239
O O16 0.596856 0.000000 0.937719
O O17 0.250000 0.250000 0.614641
O O18 0.326733 0.000000 0.613418
#
# Coordination Sequence:
#
# PCOD9368525 Si02
#       6
#    16  16  16  16  16  16
#     4   9  18  33  54  79 105 137 178 219 259 308
#     4  11  22  37  57  80 109 143 181 224 270 321
#     4  10  19  33  54  78 106 140 177 219 267 317
#     4   9  18  34  55  77 103 139 182 223 263 310
#     4  10  21  37  57  81 110 143 179 221 270 323
#     4  10  20  34  54  79 107 139 175 217 263 313
#
# _framework density 18.408564999999999
#
# number of rings (size 3 to 8) (size 9 to 14) (size 15 to 20)
#    0.000    2.167    0.000    4.500    0.000    5.000 
#    0.000    4.167    0.000    5.000    0.000    0.000 
#    0.000    0.000    0.000    0.000    0.000    0.000 
#
# Total GULP energy -134015.009986 kJ/mol
# GULP energy per Si atom -5583.958749 kJ/mol
# Density = 1.836667 g / cm^3
# Si number density = 18.408565 Si / 1000 Ang^3
#
#
#
# Elastic Constant Matrix: (Units=GPa)
#
#
# Indices 1 2 3 4 5 6 
#
# 1 102.0365 36.8842 97.7633 0.0000 0.0000 0.0000
# 2 36.8842 53.1154 56.4815 0.0000 0.0000 0.0000
# 3 97.7633 56.4815 184.8014 0.0000 0.0000 0.0000
# 4 0.0000 0.0000 0.0000 21.2388 0.0000 0.0000
# 5 0.0000 0.0000 0.0000 0.0000 40.5840 0.0000
# 6 0.0000 0.0000 0.0000 0.0000 0.0000 27.7875
#
#
#
# Elastic Compliance Matrix: (Units=1/GPa)
#
#
# Indices 1 2 3 4 5 6 
#
# 1 0.020429 -0.003991 -0.009588 0.000000 0.000000 0.000000
# 2 -0.003991 0.028672 -0.006652 0.000000 0.000000 0.000000
# 3 -0.009588 -0.006652 0.012516 0.000000 0.000000 0.000000
# 4 0.000000 0.000000 0.000000 0.047084 0.000000 0.000000
# 5 0.000000 0.000000 0.000000 0.000000 0.024640 0.000000
# 6 0.000000 0.000000 0.000000 0.000000 0.000000 0.035987
#
#
# Mechanical properties :
#
#
# Convention : Reuss Voigt Hill
#
# Bulk Modulus (GPa) = 47.26735 80.24569 63.75652
# Shear Modulus (GPa) = 23.05836 27.84368 25.45102
#
# Velocity S-wave (km/s) = 3.54303 3.89336 3.72232
# Velocity P-wave (km/s) = 6.51690 7.99357 7.29271
#
# Compressibility (1/GPa) = 0.02115625
#
# Stress axis : x y z
#
# Youngs Moduli (GPa) = 48.94950 34.87769 79.89673
#
# Poissons Ratio (x) = 0.13920 0.76602
# Poissons Ratio (y) = 0.19537 0.53144
# Poissons Ratio (z) = 0.46931 0.23199
#
# Static dielectric constant tensor:
#      x y z
#    x 1.607260 0.000000 0.000000 
#    y 0.000000 1.627920 0.000000 
#    z 0.000000 0.000000 1.620490 
# 
# From -- ./inp_files/31456.got.cif
#   From: 2010.05.17/outbox.cif.g08.bks.cpg/sg42_16_cif.got.tgz:31456.got - 2010.06.03 19:03:34.
