data_PCOD9368227
_publ_section_title
;
Structure prediction by ZEFSAII (Michael W. Deem and Ramdas Pophale) SiO2 
 PCOD9368227
Probable space group: F M M 2
;
_chemical_formula_sum "Si O2"
_cell_formula_units_Z 96
_cell_length_a 8.545759
_cell_length_b 26.013454
_cell_length_c 26.105749
_cell_angle_alpha 90.000000
_cell_angle_beta 90.000000
_cell_angle_gamma 90.000000
_cell_volume 5803.430925
_symmetry_space_group_name_H-M "F M M 2"
_symmetry_group_IT_number 42
_symmetry_cell_setting 'orthorhombic'
loop_
_space_group_symop_operation_xyz
x,y,z
-x,-y,z
-x,y,z
x,-y,z
x,1/2+y,1/2+z
-x,1/2-y,1/2+z
-x,1/2+y,1/2+z
x,1/2-y,1/2+z
1/2+x,y,1/2+z
1/2-x,-y,1/2+z
1/2-x,y,1/2+z
1/2+x,-y,1/2+z
1/2+x,1/2+y,z
1/2-x,1/2-y,z
1/2-x,1/2+y,z
1/2+x,1/2-y,z
loop_
_atom_site_type_symbol
_atom_site_label
_atom_site_fract_x
_atom_site_fract_y
_atom_site_fract_z
Si Si1 0.689648 0.612237 0.501450
Si Si2 0.186614 0.191746 0.802185
Si Si3 0.189309 0.000000 0.497418
Si Si4 0.686838 0.691444 0.194180
Si Si5 0.688387 0.808171 0.086539
Si Si6 0.811949 0.610031 0.882282
Si Si7 0.314532 0.500000 0.881759
O O1 0.500000 0.614913 0.500994
O O2 0.731836 0.554934 0.521207
O O3 0.743907 0.656647 0.539431
O O4 0.738942 0.616686 0.441970
O O5 0.250000 0.250000 0.808699
O O6 0.250569 0.170155 0.747909
O O7 0.243979 0.155173 0.847564
O O8 0.000000 0.193914 0.800226
O O9 0.266868 0.000000 0.441625
O O10 0.000000 0.000000 0.490293
O O11 0.500000 0.691536 0.193937
O O12 0.750000 0.750000 0.194106
O O13 0.751271 0.669668 0.140815
O O14 0.500000 0.806764 0.087793
O O15 0.750000 0.750000 0.080959
O O16 0.755622 0.554054 0.862718
O O17 0.000000 0.611225 0.881235
O O18 0.500000 0.500000 0.875311
#
# Coordination Sequence:
#
# PCOD9368227 Si02
#       7
#    16  16   8  16  16  16   8
#     4   8  16  29  49  71  94 123 159 196 238 285
#     4  11  21  34  51  74 100 129 162 202 246 295
#     4   8  14  30  50  67  88 123 164 202 238 280
#     4  10  18  31  49  69  91 123 162 200 238 284
#     4  10  18  30  46  69  96 125 157 194 236 285
#     4  10  19  34  52  73 100 133 166 202 244 290
#     4  10  18  30  48  73  98 127 166 206 242 286
#
# _framework density 16.541937999999998
#
# number of rings (size 3 to 8) (size 9 to 14) (size 15 to 20)
#    0.000    2.333    0.000    7.750    0.000    0.667 
#    0.000   10.000    0.000    1.000    0.000    4.667 
#    0.000    0.000    0.000    0.000    0.000    0.000 
#
# Total GULP energy -133694.895904 kJ/mol
# GULP energy per Si atom -5570.620663 kJ/mol
# Density = 1.650429 g / cm^3
# Si number density = 16.541938 Si / 1000 Ang^3
#
#
#
# Elastic Constant Matrix: (Units=GPa)
#
#
# Indices 1 2 3 4 5 6 
#
# 1 99.2994 36.9262 32.8889 0.0000 0.0000 0.0000
# 2 36.9262 103.1999 72.2982 0.0000 0.0000 0.0000
# 3 32.8889 72.2982 108.7555 0.0000 0.0000 0.0000
# 4 0.0000 0.0000 0.0000 -1.9731 0.0000 0.0000
# 5 0.0000 0.0000 0.0000 0.0000 -3.0028 0.0000
# 6 0.0000 0.0000 0.0000 0.0000 0.0000 19.7707
#
#
#
# Elastic Compliance Matrix: (Units=1/GPa)
#
#
# Indices 1 2 3 4 5 6 
#
# 1 0.011732 -0.003205 -0.001417 0.000000 0.000000 0.000000
# 2 -0.003205 0.019012 -0.011670 0.000000 0.000000 0.000000
# 3 -0.001417 -0.011670 0.017381 0.000000 0.000000 0.000000
# 4 0.000000 0.000000 0.000000 -0.506827 0.000000 0.000000
# 5 0.000000 0.000000 0.000000 0.000000 -0.333022 0.000000
# 6 0.000000 0.000000 0.000000 0.000000 0.000000 0.050580
#
#
# Mechanical properties :
#
#
# Convention : Reuss Voigt Hill
#
# Bulk Modulus (GPa) = 64.34379 66.16460 65.25420
# Shear Modulus (GPa) = -7.10853 14.23506 3.56327
#
# Velocity S-wave (km/s) = -2.07524 2.93669 1.46927
# Velocity P-wave (km/s) = 5.76539 7.18218 6.51243
#
# Compressibility (1/GPa) = 0.01554151
#
# Stress axis : x y z
#
# Youngs Moduli (GPa) = 85.23871 52.59861 57.53351
#
# Poissons Ratio (x) = 0.16857 0.08154
# Poissons Ratio (y) = 0.27318 0.67139
# Poissons Ratio (z) = 0.12081 0.61380
#
# Static dielectric constant tensor:
#      x y z
#    x 1.558610 0.000000 0.000000 
#    y 0.000000 1.551020 0.000000 
#    z 0.000000 0.000000 1.577500 
# 
# From -- ./inp_files/30639.got.cif
#   From: 2010.05.17/outbox.cif.g08.bks.cpg/sg42_16_cif.got.tgz:30639.got - 2010.06.03 19:03:34.
