data_PCOD9368258
_publ_section_title
;
Structure prediction by ZEFSAII (Michael W. Deem and Ramdas Pophale) SiO2 
 PCOD9368258
Probable space group: F M M 2
;
_chemical_formula_sum "Si O2"
_cell_formula_units_Z 96
_cell_length_a 20.294146
_cell_length_b 19.207918
_cell_length_c 13.945492
_cell_angle_alpha 90.000000
_cell_angle_beta 90.000000
_cell_angle_gamma 90.000000
_cell_volume 5436.068421
_symmetry_space_group_name_H-M "F M M 2"
_symmetry_group_IT_number 42
_symmetry_cell_setting 'orthorhombic'
loop_
_space_group_symop_operation_xyz
x,y,z
-x,-y,z
-x,y,z
x,-y,z
x,1/2+y,1/2+z
-x,1/2-y,1/2+z
-x,1/2+y,1/2+z
x,1/2-y,1/2+z
1/2+x,y,1/2+z
1/2-x,-y,1/2+z
1/2-x,y,1/2+z
1/2+x,-y,1/2+z
1/2+x,1/2+y,z
1/2-x,1/2-y,z
1/2-x,1/2+y,z
1/2+x,1/2-y,z
loop_
_atom_site_type_symbol
_atom_site_label
_atom_site_fract_x
_atom_site_fract_y
_atom_site_fract_z
Si Si1 0.715257 0.674964 0.986530
Si Si2 0.191690 0.580328 0.867721
Si Si3 0.925385 0.140041 0.483955
Si Si4 0.575972 0.711466 0.683059
Si Si5 0.698812 0.690698 0.200817
Si Si6 0.926241 0.297156 0.406563
O O1 0.750000 0.750000 0.963721
O O2 0.749441 0.614170 0.928167
O O3 0.638089 0.676045 0.960800
O O4 0.726258 0.665042 0.099393
O O5 0.201347 0.500000 0.844693
O O6 0.127063 0.591420 0.933102
O O7 0.187774 0.629082 0.774535
O O8 0.910015 0.158835 0.595234
O O9 0.923756 0.213865 0.426476
O O10 0.000000 0.113278 0.479586
O O11 0.500000 0.734710 0.668261
O O12 0.629907 0.771594 0.678240
O O13 0.580072 0.686052 0.793244
O O14 0.750000 0.750000 0.237533
O O15 0.000000 0.319771 0.437809
#
# Coordination Sequence:
#
# PCOD9368258 Si02
#       6
#    16  16  16  16  16  16
#     4  11  20  37  59  82 111 146 190 239 283 325
#     4  12  25  38  54  80 117 157 187 223 285 353
#     4  10  19  34  55  84 116 144 181 228 279 335
#     4  10  18  30  55  88 113 138 179 231 277 329
#     4  11  21  35  58  82 108 144 189 242 282 321
#     4  10  18  31  57  89 114 137 179 237 287 324
#
# _framework density 17.659821999999998
#
# number of rings (size 3 to 8) (size 9 to 14) (size 15 to 20)
#    0.000    1.333    5.000    2.500    0.000    1.000 
#    0.000    0.000    0.000    0.500    0.000    4.667 
#    0.000    0.000    0.000    0.000    0.000    0.000 
#
# Total GULP energy -133877.737359 kJ/mol
# GULP energy per Si atom -5578.239057 kJ/mol
# Density = 1.761963 g / cm^3
# Si number density = 17.659822 Si / 1000 Ang^3
#
#
#
# Elastic Constant Matrix: (Units=GPa)
#
#
# Indices 1 2 3 4 5 6 
#
# 1 106.5844 42.1004 28.1996 0.0000 0.0000 0.0000
# 2 42.1004 67.7836 27.1497 0.0000 0.0000 0.0000
# 3 28.1996 27.1497 103.5985 0.0000 0.0000 0.0000
# 4 0.0000 0.0000 0.0000 5.3499 0.0000 0.0000
# 5 0.0000 0.0000 0.0000 0.0000 31.1167 0.0000
# 6 0.0000 0.0000 0.0000 0.0000 0.0000 13.9751
#
#
#
# Elastic Compliance Matrix: (Units=1/GPa)
#
#
# Indices 1 2 3 4 5 6 
#
# 1 0.012650 -0.007238 -0.001547 0.000000 0.000000 0.000000
# 2 -0.007238 0.020624 -0.003435 0.000000 0.000000 0.000000
# 3 -0.001547 -0.003435 0.010974 0.000000 0.000000 0.000000
# 4 0.000000 0.000000 0.000000 0.186920 0.000000 0.000000
# 5 0.000000 0.000000 0.000000 0.000000 0.032137 0.000000
# 6 0.000000 0.000000 0.000000 0.000000 0.000000 0.071556
#
#
# Mechanical properties :
#
#
# Convention : Reuss Voigt Hill
#
# Bulk Modulus (GPa) = 50.47990 52.54068 51.51029
# Shear Modulus (GPa) = 13.66488 22.12280 17.89384
#
# Velocity S-wave (km/s) = 2.78471 3.54322 3.18661
# Velocity P-wave (km/s) = 6.24389 6.82314 6.53993
#
# Compressibility (1/GPa) = 0.01980986
#
# Stress axis : x y z
#
# Youngs Moduli (GPa) = 79.04971 48.48760 91.12623
#
# Poissons Ratio (x) = 0.35093 0.14094
# Poissons Ratio (y) = 0.57213 0.31299
# Poissons Ratio (z) = 0.12227 0.16654
#
# Static dielectric constant tensor:
#      x y z
#    x 1.639040 0.000000 0.000000 
#    y 0.000000 1.559150 0.000000 
#    z 0.000000 0.000000 1.641260 
# 
# From -- ./inp_files/13985.got.cif
#   From: 2010.05.17/outbox.cif.g08.bks.cpg/sg42_7_cif.got.tgz:13985.got - 2010.06.03 19:03:34.
