data_PCOD9368375
_publ_section_title
;
Structure prediction by ZEFSAII (Michael W. Deem and Ramdas Pophale) SiO2 
 PCOD9368375
Probable space group: F M M 2
;
_chemical_formula_sum "Si O2"
_cell_formula_units_Z 112
_cell_length_a 15.205622
_cell_length_b 22.767966
_cell_length_c 16.340320
_cell_angle_alpha 90.000000
_cell_angle_beta 90.000000
_cell_angle_gamma 90.000000
_cell_volume 5657.036508
_symmetry_space_group_name_H-M "F M M 2"
_symmetry_group_IT_number 42
_symmetry_cell_setting 'orthorhombic'
loop_
_space_group_symop_operation_xyz
x,y,z
-x,-y,z
-x,y,z
x,-y,z
x,1/2+y,1/2+z
-x,1/2-y,1/2+z
-x,1/2+y,1/2+z
x,1/2-y,1/2+z
1/2+x,y,1/2+z
1/2-x,-y,1/2+z
1/2-x,y,1/2+z
1/2+x,-y,1/2+z
1/2+x,1/2+y,z
1/2-x,1/2-y,z
1/2-x,1/2+y,z
1/2+x,1/2-y,z
loop_
_atom_site_type_symbol
_atom_site_label
_atom_site_fract_x
_atom_site_fract_y
_atom_site_fract_z
Si Si1 0.348945 0.231422 0.174630
Si Si2 0.097365 0.876448 0.785923
Si Si3 0.237803 0.566384 0.180035
Si Si4 0.345031 0.311180 0.485196
Si Si5 0.100064 0.434006 0.030150
Si Si6 0.138198 0.683681 0.452968
Si Si7 0.404921 0.356116 0.135537
O O1 0.250000 0.250000 0.198686
O O2 0.389040 0.181787 0.231135
O O3 0.401749 0.291614 0.174949
O O4 0.344964 0.206041 0.081972
O O5 0.177031 0.917421 0.757099
O O6 0.106115 0.855337 0.878633
O O7 0.000000 0.901454 0.771306
O O8 0.269359 0.500000 0.185408
O O9 0.171741 0.570946 0.102263
O O10 0.320496 0.608520 0.166624
O O11 0.387404 0.375414 0.475994
O O12 0.244310 0.316205 0.456874
O O13 0.386969 0.252814 0.445124
O O14 0.110820 0.500000 0.993372
O O15 0.000000 0.431465 0.062629
O O16 0.106287 0.657155 0.538861
O O17 0.500000 0.384147 0.150751
#
# Coordination Sequence:
#
# PCOD9368375 Si02
#       7
#    16  16  16  16  16  16  16
#     4  11  18  36  59  86 118 159 202 250 304 350
#     4  12  24  37  59  92 126 160 197 247 315 377
#     4  11  23  41  62  85 117 160 208 253 299 359
#     4  10  18  36  59  85 121 165 205 248 293 353
#     4  10  19  33  59  89 114 148 200 253 293 339
#     4  10  21  36  56  90 127 163 194 244 314 379
#     4  11  21  38  62  89 120 155 205 258 308 364
#
# _framework density 19.798352000000001
#
# number of rings (size 3 to 8) (size 9 to 14) (size 15 to 20)
#    0.000    1.286    7.143    1.286    2.000    4.000 
#    0.000    1.429    0.000    2.571    0.000    0.000 
#    0.000    0.000    0.000    0.000    0.000    0.000 
#
# Total GULP energy -156287.173451 kJ/mol
# GULP energy per Si atom -5581.684766 kJ/mol
# Density = 1.975329 g / cm^3
# Si number density = 19.798352 Si / 1000 Ang^3
#
#
#
# Elastic Constant Matrix: (Units=GPa)
#
#
# Indices 1 2 3 4 5 6 
#
# 1 125.2147 26.6418 -2.9218 0.0000 0.0000 0.0000
# 2 26.6418 112.9597 -2.8844 0.0000 0.0000 0.0000
# 3 -2.9218 -2.8844 15.3529 0.0000 0.0000 0.0000
# 4 0.0000 0.0000 0.0000 20.2504 0.0000 0.0000
# 5 0.0000 0.0000 0.0000 0.0000 516.7760 0.0000
# 6 0.0000 0.0000 0.0000 0.0000 0.0000 12.2516
#
#
#
# Elastic Compliance Matrix: (Units=1/GPa)
#
#
# Indices 1 2 3 4 5 6 
#
# 1 0.008432 -0.001957 0.001237 0.000000 0.000000 0.000000
# 2 -0.001957 0.009350 0.001384 0.000000 0.000000 0.000000
# 3 0.001237 0.001384 0.065630 0.000000 0.000000 0.000000
# 4 0.000000 0.000000 0.000000 0.049382 0.000000 0.000000
# 5 0.000000 0.000000 0.000000 0.000000 0.001935 0.000000
# 6 0.000000 0.000000 0.000000 0.000000 0.000000 0.081622
#
#
# Mechanical properties :
#
#
# Convention : Reuss Voigt Hill
#
# Bulk Modulus (GPa) = 11.80093 32.79983 22.30038
# Shear Modulus (GPa) = 20.55346 125.36838 72.96092
#
# Velocity S-wave (km/s) = 3.22551 7.96619 6.07717
# Velocity P-wave (km/s) = 4.45482 10.06064 7.78016
#
# Compressibility (1/GPa) = 0.08473906
#
# Stress axis : x y z
#
# Youngs Moduli (GPa) = 118.60237 106.95621 15.23697
#
# Poissons Ratio (x) = 0.20931 -0.01885
# Poissons Ratio (y) = 0.23211 -0.02109
# Poissons Ratio (z) = -0.14670 -0.14804
#
# Static dielectric constant tensor:
#      x y z
#    x 1.649820 0.000000 0.000000 
#    y 0.000000 1.709220 0.000000 
#    z 0.000000 0.000000 1.687020 
# 
# From -- ./inp_files/14275.got.cif
#   From: 2010.05.17/outbox.cif.g08.bks.cpg/sg42_8_cif.got.tgz:14275.got - 2010.06.03 19:03:34.
