data_PCOD9368479
_publ_section_title
;
Structure prediction by ZEFSAII (Michael W. Deem and Ramdas Pophale) SiO2 
 PCOD9368479
Probable space group: F M M 2
;
_chemical_formula_sum "Si O2"
_cell_formula_units_Z 96
_cell_length_a 23.689487
_cell_length_b 21.074987
_cell_length_c 9.286322
_cell_angle_alpha 90.000000
_cell_angle_beta 90.000000
_cell_angle_gamma 90.000000
_cell_volume 4636.248546
_symmetry_space_group_name_H-M "F M M 2"
_symmetry_group_IT_number 42
_symmetry_cell_setting 'orthorhombic'
loop_
_space_group_symop_operation_xyz
x,y,z
-x,-y,z
-x,y,z
x,-y,z
x,1/2+y,1/2+z
-x,1/2-y,1/2+z
-x,1/2+y,1/2+z
x,1/2-y,1/2+z
1/2+x,y,1/2+z
1/2-x,-y,1/2+z
1/2-x,y,1/2+z
1/2+x,-y,1/2+z
1/2+x,1/2+y,z
1/2-x,1/2-y,z
1/2-x,1/2+y,z
1/2+x,1/2-y,z
loop_
_atom_site_type_symbol
_atom_site_label
_atom_site_fract_x
_atom_site_fract_y
_atom_site_fract_z
Si Si1 0.875915 0.315931 0.791480
Si Si2 0.064112 0.925983 0.779389
Si Si3 0.254879 0.148106 0.246706
Si Si4 0.280141 0.568157 0.011140
Si Si5 0.589965 0.429332 0.105540
Si Si6 0.869748 0.310847 0.134989
O O1 0.809353 0.327851 0.753604
O O2 0.911110 0.374997 0.725930
O O3 0.894345 0.251401 0.712554
O O4 0.878964 0.310436 0.963827
O O5 0.104008 0.874876 0.703081
O O6 0.000000 0.920477 0.724038
O O7 0.082503 0.000000 0.762609
O O8 0.062659 0.913443 0.951547
O O9 0.272494 0.126924 0.405170
O O10 0.303120 0.190319 0.175268
O O11 0.255593 0.084411 0.151235
O O12 0.263741 0.500000 0.949085
O O13 0.344373 0.565870 0.060860
O O14 0.571367 0.500000 0.152526
#
# Coordination Sequence:
#
# PCOD9368479 Si02
#       6
#    16  16  16  16  16  16
#     4  11  25  39  60  92 126 170 209 251 306 373
#     4  10  22  43  71  97 121 157 205 260 320 374
#     4  11  21  35  55  86 124 169 207 248 300 367
#     4  10  19  32  52  85 124 161 202 245 297 363
#     4   9  19  39  63  90 124 157 200 253 306 368
#     4  12  24  40  61  88 127 167 212 259 309 365
#
# _framework density 20.706398
#
# number of rings (size 3 to 8) (size 9 to 14) (size 15 to 20)
#    0.000    1.500    3.333    2.000    2.333    3.333 
#    0.000    4.167    0.000    2.000    0.000    0.000 
#    0.000    0.000    0.000    0.000    0.000    0.000 
#
# Total GULP energy -133874.350753 kJ/mol
# GULP energy per Si atom -5578.097948 kJ/mol
# Density = 2.065927 g / cm^3
# Si number density = 20.706398 Si / 1000 Ang^3
#
#
#
# Elastic Constant Matrix: (Units=GPa)
#
#
# Indices 1 2 3 4 5 6 
#
# 1 36.6980 27.5985 17.8322 0.0000 0.0000 0.0000
# 2 27.5985 132.5452 80.2364 0.0000 0.0000 -0.0001
# 3 17.8322 80.2364 138.6080 0.0002 0.0000 -0.0002
# 4 0.0000 0.0000 0.0002 28.9431 0.0000 -0.0001
# 5 0.0000 0.0000 0.0000 0.0000 7.3645 0.0000
# 6 0.0000 -0.0001 -0.0002 -0.0001 0.0000 17.7113
#
#
#
# Elastic Compliance Matrix: (Units=1/GPa)
#
#
# Indices 1 2 3 4 5 6 
#
# 1 0.032323 -0.006486 -0.000404 0.000000 0.000000 0.000000
# 2 -0.006486 0.012916 -0.006642 0.000000 0.000000 0.000000
# 3 -0.000404 -0.006642 0.011112 0.000000 0.000000 0.000000
# 4 0.000000 0.000000 0.000000 0.034551 0.000000 0.000000
# 5 0.000000 0.000000 0.000000 0.000000 0.135787 0.000000
# 6 0.000000 0.000000 0.000000 0.000000 0.000000 0.056461
#
#
# Mechanical properties :
#
#
# Convention : Reuss Voigt Hill
#
# Bulk Modulus (GPa) = 34.14516 62.13170 48.13843
# Shear Modulus (GPa) = 15.62618 22.94939 19.28779
#
# Velocity S-wave (km/s) = 2.75008 3.33276 3.05534
# Velocity P-wave (km/s) = 5.15847 6.69932 5.97874
#
# Compressibility (1/GPa) = 0.02928673
#
# Stress axis : x y z
#
# Youngs Moduli (GPa) = 30.93741 77.42344 89.99588
#
# Poissons Ratio (x) = 0.50215 0.03636
# Poissons Ratio (y) = 0.20065 0.59778
# Poissons Ratio (z) = 0.01250 0.51427
#
# Static dielectric constant tensor:
#      x y z
#    x 1.781190 0.000000 0.000000 
#    y 0.000000 1.782840 0.000000 
#    z 0.000000 0.000000 1.702370 
# 
# From -- ./inp_files/4178.got.cif
#   From: 2010.05.17/outbox.cif.g08.bks.cpg/sg42_3_cif.got.tgz:4178.got - 2010.06.03 19:03:34.
