data_PCOD9368923
_publ_section_title
;
Structure prediction by ZEFSAII (Michael W. Deem and Ramdas Pophale) SiO2 
 PCOD9368923
Probable space group: F M M 2
;
_chemical_formula_sum "Si O2"
_cell_formula_units_Z 80
_cell_length_a 8.715547
_cell_length_b 15.929851
_cell_length_c 29.620651
_cell_angle_alpha 90.000000
_cell_angle_beta 90.000000
_cell_angle_gamma 90.000000
_cell_volume 4112.453137
_symmetry_space_group_name_H-M "F M M 2"
_symmetry_group_IT_number 42
_symmetry_cell_setting 'orthorhombic'
loop_
_space_group_symop_operation_xyz
x,y,z
-x,-y,z
-x,y,z
x,-y,z
x,1/2+y,1/2+z
-x,1/2-y,1/2+z
-x,1/2+y,1/2+z
x,1/2-y,1/2+z
1/2+x,y,1/2+z
1/2-x,-y,1/2+z
1/2-x,y,1/2+z
1/2+x,-y,1/2+z
1/2+x,1/2+y,z
1/2-x,1/2-y,z
1/2-x,1/2+y,z
1/2+x,1/2-y,z
loop_
_atom_site_type_symbol
_atom_site_label
_atom_site_fract_x
_atom_site_fract_y
_atom_site_fract_z
Si Si1 0.313746 0.000000 0.571331
Si Si2 0.682816 0.000000 0.171801
Si Si3 0.181052 0.161746 0.222117
Si Si4 0.814605 0.156192 0.008667
Si Si5 0.680417 0.097475 0.310518
Si Si6 0.315149 0.343054 0.907502
O O1 0.268957 0.084043 0.543769
O O2 0.500000 0.000000 0.575004
O O3 0.240259 0.000000 0.620432
O O4 0.745903 0.916886 0.196266
O O5 0.500000 0.000000 0.174402
O O6 0.250000 0.250000 0.206292
O O7 0.223099 0.149954 0.274888
O O8 0.000000 0.161100 0.215915
O O9 0.750000 0.250000 0.016955
O O10 0.000000 0.161867 0.009612
O O11 0.767832 0.128548 0.957679
O O12 0.500000 0.121517 0.306961
O O13 0.730207 0.107561 0.362505
O O14 0.692407 0.000000 0.298001
O O15 0.500000 0.341868 0.907792
O O16 0.250000 0.250000 0.902163
#
# Coordination Sequence:
#
# PCOD9368923 Si02
#       6
#     8   8  16  16  16  16
#     4  10  22  40  63  88 117 155 198 249 307 368
#     4  12  26  46  67  92 123 155 200 257 313 372
#     4  12  25  43  67  93 124 162 204 251 306 367
#     4   9  19  36  59  86 120 158 202 247 295 353
#     4  10  20  34  56  87 125 164 206 250 296 354
#     4   9  18  32  52  81 116 159 203 245 290 347
#
# _framework density 19.453108
#
# number of rings (size 3 to 8) (size 9 to 14) (size 15 to 20)
#    0.000    1.800    1.000    3.300    1.400    4.000 
#    0.000    2.000    0.000    0.000    0.000    0.000 
#    0.000    0.000    0.000    0.000    0.000    0.000 
#
# Total GULP energy -111679.677777 kJ/mol
# GULP energy per Si atom -5583.983889 kJ/mol
# Density = 1.940883 g / cm^3
# Si number density = 19.453108 Si / 1000 Ang^3
#
#
#
# Elastic Constant Matrix: (Units=GPa)
#
#
# Indices 1 2 3 4 5 6 
#
# 1 75.2999 55.0777 51.4931 0.0000 0.0000 0.0000
# 2 55.0777 133.9307 85.5117 0.0000 0.0000 0.0000
# 3 51.4931 85.5117 135.5415 0.0000 0.0000 0.0000
# 4 0.0000 0.0000 0.0000 14.1617 0.0000 0.0000
# 5 0.0000 0.0000 0.0000 0.0000 30.5825 0.0000
# 6 0.0000 0.0000 0.0000 0.0000 0.0000 29.4570
#
#
#
# Elastic Compliance Matrix: (Units=1/GPa)
#
#
# Indices 1 2 3 4 5 6 
#
# 1 0.020261 -0.005723 -0.004087 0.000000 0.000000 0.000000
# 2 -0.005723 0.014119 -0.006734 0.000000 0.000000 0.000000
# 3 -0.004087 -0.006734 0.013179 0.000000 0.000000 0.000000
# 4 0.000000 0.000000 0.000000 0.070613 0.000000 0.000000
# 5 0.000000 0.000000 0.000000 0.000000 0.032698 0.000000
# 6 0.000000 0.000000 0.000000 0.000000 0.000000 0.033948
#
#
# Mechanical properties :
#
#
# Convention : Reuss Voigt Hill
#
# Bulk Modulus (GPa) = 69.09711 80.99300 75.04505
# Shear Modulus (GPa) = 22.44892 25.01956 23.73424
#
# Velocity S-wave (km/s) = 3.40075 3.59018 3.49675
# Velocity P-wave (km/s) = 7.14262 7.67537 7.41378
#
# Compressibility (1/GPa) = 0.01447238
#
# Stress axis : x y z
#
# Youngs Moduli (GPa) = 49.35630 70.82566 75.88104
#
# Poissons Ratio (x) = 0.40532 0.31011
# Poissons Ratio (y) = 0.28245 0.51095
# Poissons Ratio (z) = 0.20171 0.47691
#
# Static dielectric constant tensor:
#      x y z
#    x 1.658020 0.000000 0.000000 
#    y 0.000000 1.653300 0.000000 
#    z 0.000000 0.000000 1.699540 
# 
# From -- ./inp_files/31330.got.cif
#   From: 2010.05.17/outbox.cif.g08.bks.cpg/sg42_16_cif.got.tgz:31330.got - 2010.06.03 19:03:34.
