data_PCOD9368853
_publ_section_title
;
Structure prediction by ZEFSAII (Michael W. Deem and Ramdas Pophale) SiO2 
 PCOD9368853
Probable space group: F M M 2
;
_chemical_formula_sum "Si O2"
_cell_formula_units_Z 112
_cell_length_a 15.028897
_cell_length_b 14.575394
_cell_length_c 23.217111
_cell_angle_alpha 90.000000
_cell_angle_beta 90.000000
_cell_angle_gamma 90.000000
_cell_volume 5085.756808
_symmetry_space_group_name_H-M "F M M 2"
_symmetry_group_IT_number 42
_symmetry_cell_setting 'orthorhombic'
loop_
_space_group_symop_operation_xyz
x,y,z
-x,-y,z
-x,y,z
x,-y,z
x,1/2+y,1/2+z
-x,1/2-y,1/2+z
-x,1/2+y,1/2+z
x,1/2-y,1/2+z
1/2+x,y,1/2+z
1/2-x,-y,1/2+z
1/2-x,y,1/2+z
1/2+x,-y,1/2+z
1/2+x,1/2+y,z
1/2-x,1/2-y,z
1/2-x,1/2+y,z
1/2+x,1/2-y,z
loop_
_atom_site_type_symbol
_atom_site_label
_atom_site_fract_x
_atom_site_fract_y
_atom_site_fract_z
Si Si1 0.400589 0.845705 0.133780
Si Si2 0.771904 0.858264 0.728942
Si Si3 0.722426 0.387736 0.944639
Si Si4 0.102634 0.890777 0.838224
Si Si5 0.901252 0.894585 0.045100
Si Si6 0.899908 0.365190 0.675097
Si Si7 0.601551 0.611388 0.502295
O O1 0.500000 0.885709 0.140360
O O2 0.323828 0.890012 0.171623
O O3 0.403356 0.744292 0.162052
O O4 0.380739 0.846578 0.065854
O O5 0.750000 0.750000 0.729904
O O6 0.838239 0.877961 0.781080
O O7 0.671541 0.894769 0.722277
O O8 0.724320 0.500000 0.941411
O O9 0.664150 0.355102 0.890561
O O10 0.669949 0.355546 0.001645
O O11 0.824626 0.360883 0.955541
O O12 0.000000 0.854902 0.835016
O O13 0.094003 0.000000 0.847006
O O14 0.873740 0.897724 0.111267
O O15 0.000000 0.851213 0.042198
O O16 0.910787 0.000000 0.026260
O O17 0.000000 0.394674 0.688224
O O18 0.500000 0.633395 0.485934
O O19 0.607162 0.500000 0.509844
#
# Coordination Sequence:
#
# PCOD9368853 Si02
#       7
#    16  16  16  16  16  16  16
#     4   9  17  30  48  71 101 133 165 205 254 304
#     4  10  20  34  51  72 101 139 174 211 261 313
#     4   9  17  31  50  71  98 131 164 205 260 312
#     4  10  21  37  57  79 101 130 176 229 270 306
#     4   9  16  27  46  70  93 119 154 197 246 302
#     4   9  18  31  47  70 100 133 166 202 250 309
#     4   9  17  29  48  75 104 134 169 208 252 307
#
# _framework density 22.022288
#
# number of rings (size 3 to 8) (size 9 to 14) (size 15 to 20)
#    0.000    2.714    0.000    1.714    0.000    3.429 
#    0.000    3.571    0.000    2.571    0.000    0.000 
#    0.000    0.000    0.000    0.000    0.000    0.000 
#
# Total GULP energy -156043.085099 kJ/mol
# GULP energy per Si atom -5572.967325 kJ/mol
# Density = 2.197216 g / cm^3
# Si number density = 22.022288 Si / 1000 Ang^3
#
#
#
# Elastic Constant Matrix: (Units=GPa)
#
#
# Indices 1 2 3 4 5 6 
#
# 1 209.8216 6.2066 125.4872 0.0000 0.0000 0.0000
# 2 6.2066 53.6677 -5.4231 0.0000 0.0000 0.0000
# 3 125.4872 -5.4231 90.1943 0.0000 0.0000 0.0000
# 4 0.0000 0.0000 0.0000 18.6624 0.0000 0.0000
# 5 0.0000 0.0000 0.0000 0.0000 19.7185 0.0000
# 6 0.0000 0.0000 0.0000 0.0000 0.0000 3.8079
#
#
#
# Elastic Compliance Matrix: (Units=1/GPa)
#
#
# Indices 1 2 3 4 5 6 
#
# 1 0.031559 -0.008136 -0.044398 0.000000 0.000000 0.000000
# 2 -0.008136 0.020845 0.012573 0.000000 0.000000 0.000000
# 3 -0.044398 0.012573 0.073614 0.000000 0.000000 0.000000
# 4 0.000000 0.000000 0.000000 0.053584 0.000000 0.000000
# 5 0.000000 0.000000 0.000000 0.000000 0.050714 0.000000
# 6 0.000000 0.000000 0.000000 0.000000 0.000000 0.262614
#
#
# Mechanical properties :
#
#
# Convention : Reuss Voigt Hill
#
# Bulk Modulus (GPa) = 21.69375 67.35833 44.52604
# Shear Modulus (GPa) = 8.50027 23.59862 16.04944
#
# Velocity S-wave (km/s) = 1.96678 3.27705 2.70252
# Velocity P-wave (km/s) = 3.87683 6.70608 5.47729
#
# Compressibility (1/GPa) = 0.04609623
#
# Stress axis : x y z
#
# Youngs Moduli (GPa) = 31.68625 47.97397 13.58441
#
# Poissons Ratio (x) = 0.39032 0.60312
# Poissons Ratio (y) = 0.25781 -0.17080
# Poissons Ratio (z) = 1.40680 -0.60319
#
# Static dielectric constant tensor:
#      x y z
#    x 1.850540 0.000000 0.000000 
#    y 0.000000 1.910070 0.000000 
#    z 0.000000 0.000000 1.772980 
# 
# From -- ./inp_files/29532.got.cif
#   From: 2010.05.17/outbox.cif.g08.bks.cpg/sg42_15_cif.got.tgz:29532.got - 2010.06.03 19:03:34.
