data_PCOD9368474
_publ_section_title
;
Structure prediction by ZEFSAII (Michael W. Deem and Ramdas Pophale) SiO2 
 PCOD9368474
Probable space group: F M M 2
;
_chemical_formula_sum "Si O2"
_cell_formula_units_Z 80
_cell_length_a 23.880280
_cell_length_b 7.726246
_cell_length_c 21.123495
_cell_angle_alpha 90.000000
_cell_angle_beta 90.000000
_cell_angle_gamma 90.000000
_cell_volume 3897.388709
_symmetry_space_group_name_H-M "F M M 2"
_symmetry_group_IT_number 42
_symmetry_cell_setting 'orthorhombic'
loop_
_space_group_symop_operation_xyz
x,y,z
-x,-y,z
-x,y,z
x,-y,z
x,1/2+y,1/2+z
-x,1/2-y,1/2+z
-x,1/2+y,1/2+z
x,1/2-y,1/2+z
1/2+x,y,1/2+z
1/2-x,-y,1/2+z
1/2-x,y,1/2+z
1/2+x,-y,1/2+z
1/2+x,1/2+y,z
1/2-x,1/2-y,z
1/2-x,1/2+y,z
1/2+x,1/2-y,z
loop_
_atom_site_type_symbol
_atom_site_label
_atom_site_fract_x
_atom_site_fract_y
_atom_site_fract_z
Si Si1 0.000000 0.211729 0.935591
Si Si2 0.619667 0.291593 0.983818
Si Si3 0.314783 0.792368 0.361160
Si Si4 0.119951 0.787639 0.736767
Si Si5 0.000000 0.711150 0.286851
Si Si6 0.315862 0.704568 0.612459
O O1 0.943894 0.268655 0.971852
O O2 0.000000 0.264681 0.861195
O O3 0.000000 0.000000 0.934545
O O4 0.618057 0.500000 0.980514
O O5 0.655831 0.225643 0.924488
O O6 0.650522 0.248463 0.048811
O O7 0.250000 0.750000 0.360777
O O8 0.344705 0.730264 0.297713
O O9 0.321137 0.000000 0.361547
O O10 0.150569 0.723970 0.673362
O O11 0.056084 0.734188 0.750235
O O12 0.119770 0.000000 0.735464
O O13 0.000000 0.500000 0.288446
O O14 0.317132 0.500000 0.619143
O O15 0.250000 0.750000 0.609927
#
# Coordination Sequence:
#
# PCOD9368474 Si02
#       6
#     8  16  16  16   8  16
#     4   9  16  31  57  85 111 142 181 226 272 326
#     4  10  20  35  57  83 110 143 184 227 273 325
#     4  10  19  32  52  78 104 135 180 228 269 314
#     4   9  18  32  53  80 107 138 179 225 271 320
#     4   9  14  29  56  83 109 136 177 228 272 324
#     4  11  23  38  55  79 113 150 185 226 277 329
#
# _framework density 20.526564
#
# number of rings (size 3 to 8) (size 9 to 14) (size 15 to 20)
#    0.000    2.200    2.000    1.800    0.000    3.200 
#    0.000    2.500    0.000    0.000    0.000    3.500 
#    0.000    0.000    0.000    0.000    0.000    0.000 
#
# Total GULP energy -111661.249589 kJ/mol
# GULP energy per Si atom -5583.062479 kJ/mol
# Density = 2.047984 g / cm^3
# Si number density = 20.526564 Si / 1000 Ang^3
#
#
#
# Elastic Constant Matrix: (Units=GPa)
#
#
# Indices 1 2 3 4 5 6 
#
# 1 258.0010 7.6280 148.2098 0.0000 0.0000 0.0000
# 2 7.6280 31.3776 9.2613 0.0000 0.0000 0.0000
# 3 148.2098 9.2613 226.1044 0.0000 0.0000 0.0000
# 4 0.0000 0.0000 0.0000 8.3019 0.0000 0.0000
# 5 0.0000 0.0000 0.0000 0.0000 39.1676 0.0000
# 6 0.0000 0.0000 0.0000 0.0000 0.0000 5.6322
#
#
#
# Elastic Compliance Matrix: (Units=1/GPa)
#
#
# Indices 1 2 3 4 5 6 
#
# 1 0.006220 -0.000312 -0.004064 0.000000 0.000000 0.000000
# 2 -0.000312 0.032276 -0.001117 0.000000 0.000000 0.000000
# 3 -0.004064 -0.001117 0.007133 0.000000 0.000000 0.000000
# 4 0.000000 0.000000 0.000000 0.120454 0.000000 0.000000
# 5 0.000000 0.000000 0.000000 0.000000 0.025531 0.000000
# 6 0.000000 0.000000 0.000000 0.000000 0.000000 0.177549
#
#
# Mechanical properties :
#
#
# Convention : Reuss Voigt Hill
#
# Bulk Modulus (GPa) = 28.86820 93.96457 61.41638
# Shear Modulus (GPa) = 12.76493 33.97928 23.37211
#
# Velocity S-wave (km/s) = 2.49645 4.07305 3.37802
# Velocity P-wave (km/s) = 4.73329 8.24597 6.72310
#
# Compressibility (1/GPa) = 0.03464019
#
# Stress axis : x y z
#
# Youngs Moduli (GPa) = 160.77228 30.98316 140.20040
#
# Poissons Ratio (x) = 0.00968 0.56982
# Poissons Ratio (y) = 0.05024 0.15663
# Poissons Ratio (z) = 0.65343 0.03461
#
# Static dielectric constant tensor:
#      x y z
#    x 1.728860 0.000000 0.000000 
#    y 0.000000 1.768280 0.000000 
#    z 0.000000 0.000000 1.726180 
# 
# From -- ./inp_files/18947.got.cif
#   From: 2010.05.17/outbox.cif.g08.bks.cpg/sg42_10_cif.got.tgz:18947.got - 2010.06.03 19:03:34.
