data_PCOD9368735
_publ_section_title
;
Structure prediction by ZEFSAII (Michael W. Deem and Ramdas Pophale) SiO2 
 PCOD9368735
Probable space group: F M M 2
;
_chemical_formula_sum "Si O2"
_cell_formula_units_Z 116
_cell_length_a 9.057870
_cell_length_b 29.006884
_cell_length_c 24.715751
_cell_angle_alpha 90.000000
_cell_angle_beta 90.000000
_cell_angle_gamma 90.000000
_cell_volume 6493.830861
_symmetry_space_group_name_H-M "F M M 2"
_symmetry_group_IT_number 42
_symmetry_cell_setting 'orthorhombic'
loop_
_space_group_symop_operation_xyz
x,y,z
-x,-y,z
-x,y,z
x,-y,z
x,1/2+y,1/2+z
-x,1/2-y,1/2+z
-x,1/2+y,1/2+z
x,1/2-y,1/2+z
1/2+x,y,1/2+z
1/2-x,-y,1/2+z
1/2-x,y,1/2+z
1/2+x,-y,1/2+z
1/2+x,1/2+y,z
1/2-x,1/2-y,z
1/2-x,1/2+y,z
1/2+x,1/2-y,z
loop_
_atom_site_type_symbol
_atom_site_label
_atom_site_fract_x
_atom_site_fract_y
_atom_site_fract_z
Si Si1 0.175492 0.610446 0.587970
Si Si2 0.267741 0.449676 0.304775
Si Si3 0.837802 0.880112 0.390065
Si Si4 0.673493 0.554328 0.680894
Si Si5 0.173230 0.553901 0.993098
Si Si6 0.321733 0.298123 0.547602
Si Si7 0.000000 0.000000 0.850184
Si Si8 0.324700 0.203437 0.429119
O O1 0.226264 0.585002 0.642429
O O2 0.227541 0.577638 0.538573
O O3 0.262886 0.658354 0.581003
O O4 0.000000 0.617730 0.585933
O O5 0.345113 0.500000 0.303245
O O6 0.342381 0.407339 0.333881
O O7 0.214674 0.440312 0.243906
O O8 0.127463 0.460723 0.342390
O O9 0.813577 0.917508 0.437752
O O10 0.716218 0.840694 0.393571
O O11 0.000000 0.858933 0.400477
O O12 0.500000 0.564996 0.673259
O O13 0.692868 0.500000 0.667644
O O14 0.210078 0.500000 0.985191
O O15 0.000000 0.556505 0.009834
O O16 0.500000 0.296112 0.546205
O O17 0.250000 0.250000 0.567092
O O18 0.254906 0.304628 0.487168
O O19 0.500000 0.208788 0.436488
O O20 0.250000 0.250000 0.407139
#
# Coordination Sequence:
#
# PCOD9368735 Si02
#       8
#    16  16  16  16  16  16   4  16
#     4  12  24  36  52  83 114 148 188 231 281 333
#     4   9  18  35  58  81 112 145 195 234 279 328
#     4  11  22  35  56  82 115 150 189 229 279 336
#     4  10  19  37  60  80 108 151 196 237 280 332
#     4  10  21  37  52  74 110 154 189 223 274 334
#     4  11  21  38  60  82 111 144 184 230 278 335
#     4   8  16  36  54  84 112 140 194 248 268 330
#     4  11  22  36  58  83 112 146 185 231 279 332
#
# _framework density 17.863108
#
# number of rings (size 3 to 8) (size 9 to 14) (size 15 to 20)
#    0.414    1.103    2.069    5.379    0.966    3.586 
#    0.000    1.379    0.000    0.828    0.000    0.000 
#    0.000    0.000    0.000    0.000    0.000    0.000 
#
# Total GULP energy -161483.073588 kJ/mol
# GULP energy per Si atom -5568.381848 kJ/mol
# Density = 1.782245 g / cm^3
# Si number density = 17.863108 Si / 1000 Ang^3
#
#
#
# Elastic Constant Matrix: (Units=GPa)
#
#
# Indices 1 2 3 4 5 6 
#
# 1 151.8922 55.9397 23.9604 0.0000 0.0000 0.0000
# 2 55.9397 106.0478 25.8674 0.0000 0.0000 0.0000
# 3 23.9604 25.8674 30.8262 0.0000 0.0000 0.0000
# 4 0.0000 0.0000 0.0000 20.6558 0.0000 0.0000
# 5 0.0000 0.0000 0.0000 0.0000 -4.4190 0.0000
# 6 0.0000 0.0000 0.0000 0.0000 0.0000 -237.4800
#
#
#
# Elastic Compliance Matrix: (Units=1/GPa)
#
#
# Indices 1 2 3 4 5 6 
#
# 1 0.008471 -0.003599 -0.003564 0.000000 0.000000 0.000000
# 2 -0.003599 0.013386 -0.008435 0.000000 0.000000 0.000000
# 3 -0.003564 -0.008435 0.042289 0.000000 0.000000 0.000000
# 4 0.000000 0.000000 0.000000 0.048413 0.000000 0.000000
# 5 0.000000 0.000000 0.000000 0.000000 -0.226294 0.000000
# 6 0.000000 0.000000 0.000000 0.000000 0.000000 -0.004211
#
#
# Mechanical properties :
#
#
# Convention : Reuss Voigt Hill
#
# Bulk Modulus (GPa) = 30.35026 55.58903 42.96964
# Shear Modulus (GPa) = -65.99198 -32.04874 -49.02036
#
# Velocity S-wave (km/s) = -6.08468 -4.24031 -5.24422
# Velocity P-wave (km/s) = 5.68657 2.68577 3.54428
#
# Compressibility (1/GPa) = 0.03294865
#
# Stress axis : x y z
#
# Youngs Moduli (GPa) = 118.04395 74.70641 23.64708
#
# Poissons Ratio (x) = 0.26888 0.08429
# Poissons Ratio (y) = 0.42486 0.19946
# Poissons Ratio (z) = 0.42076 0.63014
#
# Static dielectric constant tensor:
#      x y z
#    x 1.627500 0.000000 0.000000 
#    y 0.000000 1.636610 0.000000 
#    z 0.000000 0.000000 1.604560 
# 
# From -- ./inp_files/31987.got.cif
#   From: 2010.05.17/outbox.cif.g08.bks.cpg/sg42_16_cif.got.tgz:31987.got - 2010.06.03 19:03:34.
