data_PCOD9368294
_publ_section_title
;
Structure prediction by ZEFSAII (Michael W. Deem and Ramdas Pophale) SiO2 
 PCOD9368294
Probable space group: F M M 2
;
_chemical_formula_sum "Si O2"
_cell_formula_units_Z 96
_cell_length_a 25.856050
_cell_length_b 8.577385
_cell_length_c 25.989502
_cell_angle_alpha 90.000000
_cell_angle_beta 90.000000
_cell_angle_gamma 90.000000
_cell_volume 5763.881463
_symmetry_space_group_name_H-M "F M M 2"
_symmetry_group_IT_number 42
_symmetry_cell_setting 'orthorhombic'
loop_
_space_group_symop_operation_xyz
x,y,z
-x,-y,z
-x,y,z
x,-y,z
x,1/2+y,1/2+z
-x,1/2-y,1/2+z
-x,1/2+y,1/2+z
x,1/2-y,1/2+z
1/2+x,y,1/2+z
1/2-x,-y,1/2+z
1/2-x,y,1/2+z
1/2+x,-y,1/2+z
1/2+x,1/2+y,z
1/2-x,1/2-y,z
1/2-x,1/2+y,z
1/2+x,1/2-y,z
loop_
_atom_site_type_symbol
_atom_site_label
_atom_site_fract_x
_atom_site_fract_y
_atom_site_fract_z
Si Si1 0.000000 0.315177 0.106140
Si Si2 0.885077 0.314436 0.097107
Si Si3 0.808216 0.185084 0.012729
Si Si4 0.387083 0.188654 0.713538
Si Si5 0.000000 0.817172 0.218746
Si Si6 0.308777 0.313980 0.405092
Si Si7 0.808567 0.186179 0.797340
O O1 0.055174 0.286423 0.079746
O O2 0.000000 0.500000 0.121134
O O3 0.000000 0.210899 0.157306
O O4 0.876046 0.500000 0.096556
O O5 0.844562 0.232426 0.059864
O O6 0.880680 0.253284 0.155668
O O7 0.750000 0.250000 0.020450
O O8 0.804866 0.000000 0.007299
O O9 0.830525 0.256577 0.959561
O O10 0.443598 0.243989 0.734547
O O11 0.342785 0.249719 0.750871
O O12 0.386724 0.000000 0.711675
O O13 0.000000 0.000000 0.230724
O O14 0.308481 0.500000 0.402936
O O15 0.250000 0.250000 0.406024
O O16 0.330880 0.246064 0.352099
O O17 0.750000 0.250000 0.792808
O O18 0.807104 0.000000 0.797254
#
# Coordination Sequence:
#
# PCOD9368294 Si02
#       7
#     8  16  16  16   8  16  16
#     4   8  16  30  50  71  96 127 164 202 240 286
#     4  10  19  33  51  75 102 132 165 202 245 293
#     4  11  21  34  51  74 101 132 165 203 245 292
#     4  10  19  33  51  75 102 132 165 202 245 293
#     4   8  16  30  50  71  96 127 164 202 240 286
#     4  10  18  32  52  73  96 127 164 204 242 288
#     4  11  21  34  51  74 101 132 165 203 245 292
#
# _framework density 16.655443999999999
#
# number of rings (size 3 to 8) (size 9 to 14) (size 15 to 20)
#    0.000    2.000    0.000    7.500    0.000    2.000 
#    0.000    3.333    0.000    1.000    0.000    7.000 
#    0.000    0.000    0.000    0.000    0.000    0.000 
#
# Total GULP energy -133761.450193 kJ/mol
# GULP energy per Si atom -5573.393758 kJ/mol
# Density = 1.661753 g / cm^3
# Si number density = 16.655444 Si / 1000 Ang^3
#
#
#
# Elastic Constant Matrix: (Units=GPa)
#
#
# Indices 1 2 3 4 5 6 
#
# 1 86.5287 28.9199 55.5707 0.0000 0.0000 0.0000
# 2 28.9199 107.4812 32.1034 0.0000 0.0000 -0.0001
# 3 55.5707 32.1034 99.8941 0.0000 0.0000 0.0000
# 4 0.0000 0.0000 0.0000 28.2715 0.0000 0.0000
# 5 0.0000 0.0000 0.0000 0.0000 -3.8426 0.0000
# 6 0.0000 -0.0001 0.0000 0.0000 0.0000 18.1892
#
#
#
# Elastic Compliance Matrix: (Units=1/GPa)
#
#
# Indices 1 2 3 4 5 6 
#
# 1 0.018397 -0.002094 -0.009561 0.000000 0.000000 0.000000
# 2 -0.002094 0.010530 -0.002219 0.000000 0.000000 0.000000
# 3 -0.009561 -0.002219 0.016043 0.000000 0.000000 0.000000
# 4 0.000000 0.000000 0.000000 0.035371 0.000000 0.000000
# 5 0.000000 0.000000 0.000000 0.000000 -0.260240 0.000000
# 6 0.000000 0.000000 0.000000 0.000000 0.000000 0.054978
#
#
# Mechanical properties :
#
#
# Convention : Reuss Voigt Hill
#
# Bulk Modulus (GPa) = 58.06914 58.56579 58.31747
# Shear Modulus (GPa) = -54.68609 20.34428 -17.17090
#
# Velocity S-wave (km/s) = -5.73629 3.49876 -3.21432
# Velocity P-wave (km/s) = 2.98877 7.18062 4.61674
#
# Compressibility (1/GPa) = 0.01722085
#
# Stress axis : x y z
#
# Youngs Moduli (GPa) = 54.35581 94.96419 62.33378
#
# Poissons Ratio (x) = 0.19888 0.59599
# Poissons Ratio (y) = 0.11384 0.13833
# Poissons Ratio (z) = 0.51971 0.21074
#
# Static dielectric constant tensor:
#      x y z
#    x 1.558230 0.000000 0.000000 
#    y 0.000000 1.567690 0.000000 
#    z 0.000000 0.000000 1.558250 
# 
# From -- ./inp_files/28199.got.cif
#   From: 2010.05.17/outbox.cif.g08.bks.cpg/sg42_15_cif.got.tgz:28199.got - 2010.06.03 19:03:34.
