data_PCOD9368956
_publ_section_title
;
Structure prediction by ZEFSAII (Michael W. Deem and Ramdas Pophale) SiO2 
 PCOD9368956
Probable space group: F M M 2
;
_chemical_formula_sum "Si O2"
_cell_formula_units_Z 80
_cell_length_a 8.651877
_cell_length_b 26.700837
_cell_length_c 19.643717
_cell_angle_alpha 90.000000
_cell_angle_beta 90.000000
_cell_angle_gamma 90.000000
_cell_volume 4537.941375
_symmetry_space_group_name_H-M "F M M 2"
_symmetry_group_IT_number 42
_symmetry_cell_setting 'orthorhombic'
loop_
_space_group_symop_operation_xyz
x,y,z
-x,-y,z
-x,y,z
x,-y,z
x,1/2+y,1/2+z
-x,1/2-y,1/2+z
-x,1/2+y,1/2+z
x,1/2-y,1/2+z
1/2+x,y,1/2+z
1/2-x,-y,1/2+z
1/2-x,y,1/2+z
1/2+x,-y,1/2+z
1/2+x,1/2+y,z
1/2-x,1/2-y,z
1/2-x,1/2+y,z
1/2+x,1/2-y,z
loop_
_atom_site_type_symbol
_atom_site_label
_atom_site_fract_x
_atom_site_fract_y
_atom_site_fract_z
Si Si1 0.685511 0.696588 0.047920
Si Si2 0.315345 0.695623 0.699491
Si Si3 0.315718 0.392773 0.292608
Si Si4 0.177362 0.500000 0.455530
Si Si5 0.312014 0.107868 0.444975
Si Si6 0.321973 0.000000 0.289899
O O1 0.500000 0.699228 0.054171
O O2 0.750000 0.750000 0.023754
O O3 0.756406 0.687480 0.122392
O O4 0.725646 0.652783 0.995462
O O5 0.500000 0.697357 0.700593
O O6 0.250000 0.750000 0.721325
O O7 0.254475 0.650930 0.746408
O O8 0.500000 0.390959 0.290476
O O9 0.257263 0.385317 0.370051
O O10 0.259169 0.448137 0.269775
O O11 0.244642 0.445973 0.473869
O O12 0.177398 0.500000 0.372827
O O13 0.000000 0.500000 0.479913
O O14 0.500000 0.105106 0.438196
O O15 0.500000 0.000000 0.267605
#
# Coordination Sequence:
#
# PCOD9368956 Si02
#       6
#    16  16  16   8  16   8
#     4  10  20  35  54  76 104 138 176 216 263 318
#     4  11  22  38  57  76 104 141 180 222 271 322
#     4  11  21  34  55  83 111 140 179 221 263 315
#     4   7  12  27  50  73  98 131 167 205 253 303
#     4   9  18  33  54  78 105 138 175 216 263 312
#     4   9  17  33  54  77 108 143 177 215 265 315
#
# _framework density 17.62914
#
# number of rings (size 3 to 8) (size 9 to 14) (size 15 to 20)
#    0.000    2.200    0.000    6.900    0.000    2.400 
#    0.000    3.000    0.000    2.400    0.000    0.000 
#    0.000    0.000    0.000    0.000    0.000    0.000 
#
# Total GULP energy -111558.849070 kJ/mol
# GULP energy per Si atom -5577.942453 kJ/mol
# Density = 1.758902 g / cm^3
# Si number density = 17.629140 Si / 1000 Ang^3
#
#
#
# Elastic Constant Matrix: (Units=GPa)
#
#
# Indices 1 2 3 4 5 6 
#
# 1 108.0208 79.6838 41.4122 0.0000 0.0000 0.0000
# 2 79.6838 220.8622 95.6708 0.0000 0.0000 0.0000
# 3 41.4122 95.6708 58.6399 0.0000 0.0000 0.0000
# 4 0.0000 0.0000 0.0000 -93.2094 0.0000 0.0000
# 5 0.0000 0.0000 0.0000 0.0000 24.6033 0.0000
# 6 0.0000 0.0000 0.0000 0.0000 0.0000 30.7514
#
#
#
# Elastic Compliance Matrix: (Units=1/GPa)
#
#
# Indices 1 2 3 4 5 6 
#
# 1 0.013071 -0.002446 -0.005241 0.000000 0.000000 0.000000
# 2 -0.002446 0.015895 -0.024206 0.000000 0.000000 0.000000
# 3 -0.005241 -0.024206 0.060247 0.000000 0.000000 0.000000
# 4 0.000000 0.000000 0.000000 -0.010729 0.000000 0.000000
# 5 0.000000 0.000000 0.000000 0.000000 0.040645 0.000000
# 6 0.000000 0.000000 0.000000 0.000000 0.000000 0.032519
#
#
# Mechanical properties :
#
#
# Convention : Reuss Voigt Hill
#
# Bulk Modulus (GPa) = 39.32712 91.22851 65.27781
# Shear Modulus (GPa) = 22.33047 3.81282 13.07165
#
# Velocity S-wave (km/s) = 3.56291 1.47224 2.72597
# Velocity P-wave (km/s) = 6.26755 7.39939 6.85687
#
# Compressibility (1/GPa) = 0.02542775
#
# Stress axis : x y z
#
# Youngs Moduli (GPa) = 76.50731 62.91090 16.59839
#
# Poissons Ratio (x) = 0.15385 0.08699
# Poissons Ratio (y) = 0.18711 0.40179
# Poissons Ratio (z) = 0.40095 1.52284
#
# Static dielectric constant tensor:
#      x y z
#    x 1.596540 0.000000 0.000000 
#    y 0.000000 1.623990 0.000000 
#    z 0.000000 0.000000 1.564810 
# 
# From -- ./inp_files/18260.got.cif
#   From: 2010.05.17/outbox.cif.g08.bks.cpg/sg42_10_cif.got.tgz:18260.got - 2010.06.03 19:03:34.
