data_PCOD9368249
_publ_section_title
;
Structure prediction by ZEFSAII (Michael W. Deem and Ramdas Pophale) SiO2 
 PCOD9368249
Probable space group: F M M 2
;
_chemical_formula_sum "Si O2"
_cell_formula_units_Z 68
_cell_length_a 15.150186
_cell_length_b 8.160735
_cell_length_c 27.125039
_cell_angle_alpha 90.000000
_cell_angle_beta 90.000000
_cell_angle_gamma 90.000000
_cell_volume 3353.649038
_symmetry_space_group_name_H-M "F M M 2"
_symmetry_group_IT_number 42
_symmetry_cell_setting 'orthorhombic'
loop_
_space_group_symop_operation_xyz
x,y,z
-x,-y,z
-x,y,z
x,-y,z
x,1/2+y,1/2+z
-x,1/2-y,1/2+z
-x,1/2+y,1/2+z
x,1/2-y,1/2+z
1/2+x,y,1/2+z
1/2-x,-y,1/2+z
1/2-x,y,1/2+z
1/2+x,-y,1/2+z
1/2+x,1/2+y,z
1/2-x,1/2-y,z
1/2-x,1/2+y,z
1/2+x,1/2-y,z
loop_
_atom_site_type_symbol
_atom_site_label
_atom_site_fract_x
_atom_site_fract_y
_atom_site_fract_z
Si Si1 0.108149 0.819509 0.408550
Si Si2 0.500000 0.000000 0.259192
Si Si3 0.000000 0.682460 0.689997
Si Si4 0.653332 0.692347 0.622933
Si Si5 0.106720 0.309561 0.515319
Si Si6 0.601885 0.500000 0.854526
O O1 0.132579 0.780763 0.465071
O O2 0.140290 0.668436 0.375240
O O3 0.000000 0.823599 0.406240
O O4 0.139344 0.000000 0.393811
O O5 0.500000 0.166205 0.227925
O O6 0.415888 0.000000 0.296260
O O7 0.083210 0.706160 0.654172
O O8 0.000000 0.500000 0.712274
O O9 0.639586 0.500000 0.632115
O O10 0.750000 0.750000 0.637441
O O11 0.641169 0.727592 0.564944
O O12 0.134143 0.500000 0.513353
O O13 0.000000 0.305929 0.517612
O O14 0.500000 0.500000 0.875178
#
# Coordination Sequence:
#
# PCOD9368249 Si02
#       6
#    16   4   8  16  16   8
#     4   9  15  25  45  76 117 151 190 236 294 353
#     4  10  22  38  60  82 122 156 202 268 324 368
#     4  12  24  44  63  89 127 162 206 271 318 371
#     4  12  24  40  61  90 127 169 215 255 309 377
#     4  10  18  30  52  83 122 164 196 239 293 356
#     4   8  16  30  48  77 113 142 192 252 301 349
#
# _framework density 20.276420999999999
#
# number of rings (size 3 to 8) (size 9 to 14) (size 15 to 20)
#    0.353    1.412    3.529    2.824    0.000    1.882 
#    0.000    0.000    0.000    0.000    0.000    1.647 
#    0.000    0.000    0.000    0.000    0.000    0.000 
#
# Total GULP energy -94940.231637 kJ/mol
# GULP energy per Si atom -5584.719508 kJ/mol
# Density = 2.023027 g / cm^3
# Si number density = 20.276421 Si / 1000 Ang^3
#
#
#
# Elastic Constant Matrix: (Units=GPa)
#
#
# Indices 1 2 3 4 5 6 
#
# 1 58.4746 21.6275 21.0526 0.0000 0.0000 0.0000
# 2 21.6275 183.4360 51.2679 0.0000 0.0000 0.0000
# 3 21.0526 51.2679 98.6486 0.0000 0.0000 0.0000
# 4 0.0000 0.0000 0.0000 28.0590 0.0000 0.0000
# 5 0.0000 0.0000 0.0000 0.0000 -25.8262 0.0000
# 6 0.0000 0.0000 0.0000 0.0000 0.0000 15.2556
#
#
#
# Elastic Compliance Matrix: (Units=1/GPa)
#
#
# Indices 1 2 3 4 5 6 
#
# 1 0.018778 -0.001280 -0.003342 0.000000 0.000000 0.000000
# 2 -0.001280 0.006465 -0.003087 0.000000 0.000000 0.000000
# 3 -0.003342 -0.003087 0.012454 0.000000 0.000000 0.000000
# 4 0.000000 0.000000 0.000000 0.035639 0.000000 0.000000
# 5 0.000000 0.000000 0.000000 0.000000 -0.038720 0.000000
# 6 0.000000 0.000000 0.000000 0.000000 0.000000 0.065550
#
#
# Mechanical properties :
#
#
# Convention : Reuss Voigt Hill
#
# Bulk Modulus (GPa) = 44.88365 58.71726 51.80045
# Shear Modulus (GPa) = 40.64691 19.93845 30.29268
#
# Velocity S-wave (km/s) = 4.48218 3.13921 3.86940
# Velocity P-wave (km/s) = 6.99789 6.49314 6.75023
#
# Compressibility (1/GPa) = 0.02227983
#
# Stress axis : x y z
#
# Youngs Moduli (GPa) = 53.25344 154.67646 80.29236
#
# Poissons Ratio (x) = 0.19796 0.26836
# Poissons Ratio (y) = 0.06816 0.24785
# Poissons Ratio (z) = 0.17799 0.47746
#
# Static dielectric constant tensor:
#      x y z
#    x 1.780460 0.000000 0.000000 
#    y 0.000000 1.728000 0.000000 
#    z 0.000000 0.000000 1.678960 
# 
# From -- ./inp_files/29796.got.cif
#   From: 2010.05.17/outbox.cif.g08.bks.cpg/sg42_15_cif.got.tgz:29796.got - 2010.06.03 19:03:34.
