data_PCOD9368117
_publ_section_title
;
Structure prediction by ZEFSAII (Michael W. Deem and Ramdas Pophale) SiO2 
 PCOD9368117
Probable space group: F M M 2
;
_chemical_formula_sum "Si O2"
_cell_formula_units_Z 112
_cell_length_a 15.798182
_cell_length_b 16.683369
_cell_length_c 23.394952
_cell_angle_alpha 90.000000
_cell_angle_beta 90.000000
_cell_angle_gamma 90.000000
_cell_volume 6166.134970
_symmetry_space_group_name_H-M "F M M 2"
_symmetry_group_IT_number 42
_symmetry_cell_setting 'orthorhombic'
loop_
_space_group_symop_operation_xyz
x,y,z
-x,-y,z
-x,y,z
x,-y,z
x,1/2+y,1/2+z
-x,1/2-y,1/2+z
-x,1/2+y,1/2+z
x,1/2-y,1/2+z
1/2+x,y,1/2+z
1/2-x,-y,1/2+z
1/2-x,y,1/2+z
1/2+x,-y,1/2+z
1/2+x,1/2+y,z
1/2-x,1/2-y,z
1/2-x,1/2+y,z
1/2+x,1/2-y,z
loop_
_atom_site_type_symbol
_atom_site_label
_atom_site_fract_x
_atom_site_fract_y
_atom_site_fract_z
Si Si1 0.900346 0.408951 0.483130
Si Si2 0.905740 0.164894 0.663919
Si Si3 0.771398 0.087529 0.169580
Si Si4 0.335944 0.090190 0.356907
Si Si5 0.156519 0.587567 0.798877
Si Si6 0.646217 0.241105 0.281042
Si Si7 0.162123 0.787549 0.077905
O O1 0.880533 0.500000 0.503259
O O2 0.851906 0.395971 0.423613
O O3 0.879355 0.342471 0.530010
O O4 0.000000 0.406285 0.470375
O O5 0.829113 0.102351 0.668707
O O6 0.890022 0.222246 0.718652
O O7 0.892741 0.217128 0.606435
O O8 0.000000 0.131459 0.666169
O O9 0.805098 0.090219 0.234346
O O10 0.812116 0.155490 0.130879
O O11 0.791771 0.000000 0.146157
O O12 0.236522 0.088622 0.341443
O O13 0.372447 0.163818 0.320194
O O14 0.368839 0.000000 0.342614
O O15 0.113619 0.500000 0.804931
O O16 0.112301 0.673792 0.804285
O O17 0.750000 0.250000 0.277854
O O18 0.250000 0.750000 0.055813
#
# Coordination Sequence:
#
# PCOD9368117 Si02
#       7
#    16  16  16  16  16  16  16
#     4  10  21  37  54  77 110 141 173 220 272 320
#     4  11  20  30  46  74 108 137 171 216 267 325
#     4  10  18  32  52  73  99 136 179 222 260 309
#     4   9  18  30  48  75 104 135 170 209 261 320
#     4   9  16  29  51  74  99 133 178 222 258 301
#     4  10  16  31  50  70 102 136 180 216 256 308
#     4  10  20  35  54  74 101 137 186 220 258 309
#
# _framework density 18.163727999999999
#
# number of rings (size 3 to 8) (size 9 to 14) (size 15 to 20)
#    0.000    2.143    4.286    1.286    0.000    2.571 
#    0.000    0.000    0.000    1.286    0.000    0.000 
#    0.000    5.714    0.000    0.000    0.000    0.000 
#
# Total GULP energy -156005.497053 kJ/mol
# GULP energy per Si atom -5571.624895 kJ/mol
# Density = 1.812239 g / cm^3
# Si number density = 18.163728 Si / 1000 Ang^3
#
#
#
# Elastic Constant Matrix: (Units=GPa)
#
#
# Indices 1 2 3 4 5 6 
#
# 1 28.4502 -10.2193 10.8691 0.0000 0.0000 0.0000
# 2 -10.2193 96.0683 17.9024 0.0000 0.0000 0.0000
# 3 10.8691 17.9024 71.2457 0.0000 0.0000 0.0000
# 4 0.0000 0.0000 0.0000 26.3607 0.0000 0.0000
# 5 0.0000 0.0000 0.0000 0.0000 6.0706 0.0000
# 6 0.0000 0.0000 0.0000 0.0000 0.0000 8.3199
#
#
#
# Elastic Compliance Matrix: (Units=1/GPa)
#
#
# Indices 1 2 3 4 5 6 
#
# 1 0.040063 0.005666 -0.007536 0.000000 0.000000 0.000000
# 2 0.005666 0.011722 -0.003810 0.000000 0.000000 0.000000
# 3 -0.007536 -0.003810 0.016143 0.000000 0.000000 0.000000
# 4 0.000000 0.000000 0.000000 0.037935 0.000000 0.000000
# 5 0.000000 0.000000 0.000000 0.000000 0.164729 0.000000
# 6 0.000000 0.000000 0.000000 0.000000 0.000000 0.120193
#
#
# Mechanical properties :
#
#
# Convention : Reuss Voigt Hill
#
# Bulk Modulus (GPa) = 17.67750 25.87429 21.77590
# Shear Modulus (GPa) = 11.87646 19.96438 15.92042
#
# Velocity S-wave (km/s) = 2.55983 3.31892 2.96378
# Velocity P-wave (km/s) = 4.30005 5.38172 4.87100
#
# Compressibility (1/GPa) = 0.05656908
#
# Stress axis : x y z
#
# Youngs Moduli (GPa) = 24.96048 85.31004 61.94675
#
# Poissons Ratio (x) = -0.48337 0.46681
# Poissons Ratio (y) = -0.14143 0.23601
# Poissons Ratio (z) = 0.18810 0.32502
#
# Static dielectric constant tensor:
#      x y z
#    x 1.620460 0.000000 0.000000 
#    y 0.000000 1.682950 0.000000 
#    z 0.000000 0.000000 1.589090 
# 
# From -- ./inp_files/26041.got.cif
#   From: 2010.05.17/outbox.cif.g08.bks.cpg/sg42_14_cif.got.tgz:26041.got - 2010.06.03 19:03:34.
