data_PCOD9368319
_publ_section_title
;
Structure prediction by ZEFSAII (Michael W. Deem and Ramdas Pophale) SiO2 
 PCOD9368319
Probable space group: F M M 2
;
_chemical_formula_sum "Si O2"
_cell_formula_units_Z 80
_cell_length_a 10.767849
_cell_length_b 14.875280
_cell_length_c 23.364660
_cell_angle_alpha 90.000000
_cell_angle_beta 90.000000
_cell_angle_gamma 90.000000
_cell_volume 3742.429015
_symmetry_space_group_name_H-M "F M M 2"
_symmetry_group_IT_number 42
_symmetry_cell_setting 'orthorhombic'
loop_
_space_group_symop_operation_xyz
x,y,z
-x,-y,z
-x,y,z
x,-y,z
x,1/2+y,1/2+z
-x,1/2-y,1/2+z
-x,1/2+y,1/2+z
x,1/2-y,1/2+z
1/2+x,y,1/2+z
1/2-x,-y,1/2+z
1/2-x,y,1/2+z
1/2+x,-y,1/2+z
1/2+x,1/2+y,z
1/2-x,1/2-y,z
1/2-x,1/2+y,z
1/2+x,1/2-y,z
loop_
_atom_site_type_symbol
_atom_site_label
_atom_site_fract_x
_atom_site_fract_y
_atom_site_fract_z
Si Si1 0.242414 0.856384 0.196090
Si Si2 0.500000 0.393997 0.880572
Si Si3 0.000000 0.361199 0.245882
Si Si4 0.258816 0.610010 0.948904
Si Si5 0.642635 0.108325 0.571432
Si Si6 0.000000 0.109011 0.393668
Si Si7 0.000000 0.647391 0.759737
O O1 0.250000 0.750000 0.207842
O O2 0.374241 0.894305 0.216040
O O3 0.213556 0.868060 0.129374
O O4 0.125015 0.892298 0.232004
O O5 0.500000 0.500000 0.893877
O O6 0.500000 0.383279 0.812832
O O7 0.626794 0.359016 0.908997
O O8 0.000000 0.252590 0.243125
O O9 0.256934 0.500000 0.948032
O O10 0.125593 0.639228 0.925240
O O11 0.289278 0.638314 0.013623
O O12 0.500000 0.142010 0.573499
O O13 0.636182 0.000000 0.568751
O O14 0.000000 0.138891 0.327803
O O15 0.000000 0.000000 0.393456
#
# Coordination Sequence:
#
# PCOD9368319 Si02
#       7
#    16   8   8  16  16   8   8
#     4  10  21  37  55  78 110 145 181 223 273 323
#     4  10  18  33  54  74 102 139 179 214 259 328
#     4  10  22  35  52  78 108 145 177 222 277 314
#     4   9  18  33  54  80 107 137 172 219 274 318
#     4  10  19  35  60  83 106 142 187 226 266 325
#     4  10  20  33  54  82 110 139 175 222 271 318
#     4  10  20  37  54  74 110 145 181 218 265 328
#
# _framework density 21.376491999999999
#
# number of rings (size 3 to 8) (size 9 to 14) (size 15 to 20)
#    0.000    2.200    2.000    1.200    0.000    2.400 
#    0.000    3.000    0.000    0.000    0.000    0.000 
#    0.000    0.000    0.000    0.000    0.000    0.000 
#
# Total GULP energy -111746.439530 kJ/mol
# GULP energy per Si atom -5587.321976 kJ/mol
# Density = 2.132784 g / cm^3
# Si number density = 21.376492 Si / 1000 Ang^3
#
#
#
# Elastic Constant Matrix: (Units=GPa)
#
#
# Indices 1 2 3 4 5 6 
#
# 1 267.6988 13.8421 154.3440 0.0000 0.0000 0.0000
# 2 13.8421 52.5964 -19.6055 0.0000 0.0000 0.0000
# 3 154.3440 -19.6055 189.9852 0.0000 0.0000 0.0000
# 4 0.0000 0.0000 0.0000 32.5435 0.0000 0.0000
# 5 0.0000 0.0000 0.0000 0.0000 -10.0036 0.0000
# 6 0.0000 0.0000 0.0000 0.0000 0.0000 -11.6707
#
#
#
# Elastic Compliance Matrix: (Units=1/GPa)
#
#
# Indices 1 2 3 4 5 6 
#
# 1 0.008014 -0.004717 -0.006997 0.000000 0.000000 0.000000
# 2 -0.004717 0.022550 0.006159 0.000000 0.000000 0.000000
# 3 -0.006997 0.006159 0.011584 0.000000 0.000000 0.000000
# 4 0.000000 0.000000 0.000000 0.030728 0.000000 0.000000
# 5 0.000000 0.000000 0.000000 0.000000 -0.099964 0.000000
# 6 0.000000 0.000000 0.000000 0.000000 0.000000 -0.085685
#
#
# Mechanical properties :
#
#
# Convention : Reuss Voigt Hill
#
# Bulk Modulus (GPa) = 32.21922 89.71573 60.96748
# Shear Modulus (GPa) = -54.75436 26.28716 -14.23360
#
# Velocity S-wave (km/s) = -5.06655 3.51054 -2.58321
# Velocity P-wave (km/s) = 4.37282 7.64803 4.43682
#
# Compressibility (1/GPa) = 0.03103737
#
# Stress axis : x y z
#
# Youngs Moduli (GPa) = 124.78598 44.34576 86.32853
#
# Poissons Ratio (x) = 0.20919 0.60405
# Poissons Ratio (y) = 0.58864 -0.53173
# Poissons Ratio (z) = 0.87315 -0.27314
#
# Static dielectric constant tensor:
#      x y z
#    x 1.783080 0.000000 0.000000 
#    y 0.000000 1.800340 0.000000 
#    z 0.000000 0.000000 1.706410 
# 
# From -- ./inp_files/18969.got.cif
#   From: 2010.05.17/outbox.cif.g08.bks.cpg/sg42_10_cif.got.tgz:18969.got - 2010.06.03 19:03:34.
