data_PCOD9368299
_publ_section_title
;
Structure prediction by ZEFSAII (Michael W. Deem and Ramdas Pophale) SiO2 
 PCOD9368299
Probable space group: F M M 2
;
_chemical_formula_sum "Si O2"
_cell_formula_units_Z 96
_cell_length_a 10.622802
_cell_length_b 15.019443
_cell_length_c 29.239643
_cell_angle_alpha 90.000000
_cell_angle_beta 90.000000
_cell_angle_gamma 90.000000
_cell_volume 4665.143203
_symmetry_space_group_name_H-M "F M M 2"
_symmetry_group_IT_number 42
_symmetry_cell_setting 'orthorhombic'
loop_
_space_group_symop_operation_xyz
x,y,z
-x,-y,z
-x,y,z
x,-y,z
x,1/2+y,1/2+z
-x,1/2-y,1/2+z
-x,1/2+y,1/2+z
x,1/2-y,1/2+z
1/2+x,y,1/2+z
1/2-x,-y,1/2+z
1/2-x,y,1/2+z
1/2+x,-y,1/2+z
1/2+x,1/2+y,z
1/2-x,1/2-y,z
1/2-x,1/2+y,z
1/2+x,1/2-y,z
loop_
_atom_site_type_symbol
_atom_site_label
_atom_site_fract_x
_atom_site_fract_y
_atom_site_fract_z
Si Si1 0.000000 0.638147 0.489460
Si Si2 0.151046 0.169199 0.628910
Si Si3 0.359630 0.106352 0.231238
Si Si4 0.255629 0.109028 0.324935
Si Si5 0.260822 0.859248 0.032741
Si Si6 0.000000 0.605737 0.380788
Si Si7 0.500000 0.891887 0.872188
Si Si8 0.500000 0.651104 0.477503
O O1 0.126490 0.607329 0.514986
O O2 0.000000 0.745345 0.491413
O O3 0.000000 0.617760 0.435397
O O4 0.250000 0.250000 0.629710
O O5 0.168383 0.125789 0.678540
O O6 0.195038 0.115942 0.583847
O O7 0.000000 0.190512 0.623629
O O8 0.500000 0.141681 0.240709
O O9 0.271313 0.137851 0.272276
O O10 0.364006 0.000000 0.235439
O O11 0.373827 0.139189 0.355779
O O12 0.125085 0.138151 0.346479
O O13 0.254968 0.000000 0.325770
O O14 0.250000 0.750000 0.032074
O O15 0.372244 0.887031 0.998756
O O16 0.000000 0.500000 0.372609
O O17 0.500000 0.857658 0.923575
O O18 0.500000 0.000000 0.873876
#
# Coordination Sequence:
#
# PCOD9368299 Si02
#       8
#     8  16  16  16  16   8   8   8
#     4  10  20  32  51  74  98 130 169 210 245 290
#     4  10  20  35  56  80 103 134 173 213 257 307
#     4   9  17  34  58  79 100 133 176 215 251 304
#     4   9  17  32  53  74  98 134 171 200 245 306
#     4   9  18  32  52  73  97 133 169 200 244 304
#     4  10  18  32  53  74  96 132 175 206 241 298
#     4  10  20  32  49  74 104 132 163 208 253 296
#     4  10  18  34  49  70 100 132 167 202 245 296
#
# _framework density 20.578147000000001
#
# number of rings (size 3 to 8) (size 9 to 14) (size 15 to 20)
#    0.000    2.500    1.667    1.000    3.500    0.000 
#    1.500    3.333    0.000    0.000    0.000    0.000 
#    0.000    0.000    0.000    0.000    0.000    0.000 
#
# Total GULP energy -133845.795059 kJ/mol
# GULP energy per Si atom -5576.908127 kJ/mol
# Density = 2.053131 g / cm^3
# Si number density = 20.578147 Si / 1000 Ang^3
#
#
#
# Elastic Constant Matrix: (Units=GPa)
#
#
# Indices 1 2 3 4 5 6 
#
# 1 207.9654 15.4344 129.3060 0.0000 0.0000 0.0000
# 2 15.4344 35.7127 -0.4590 0.0000 0.0000 0.0000
# 3 129.3060 -0.4590 209.9142 0.0000 0.0000 0.0000
# 4 0.0000 0.0000 0.0000 25.8892 0.0000 0.0000
# 5 0.0000 0.0000 0.0000 0.0000 116.9978 0.0000
# 6 0.0000 0.0000 0.0000 0.0000 0.0000 -2.8005
#
#
#
# Elastic Compliance Matrix: (Units=1/GPa)
#
#
# Indices 1 2 3 4 5 6 
#
# 1 0.008237 -0.003625 -0.005082 0.000000 0.000000 0.000000
# 2 -0.003625 0.029598 0.002298 0.000000 0.000000 0.000000
# 3 -0.005082 0.002298 0.007899 0.000000 0.000000 0.000000
# 4 0.000000 0.000000 0.000000 0.038626 0.000000 0.000000
# 5 0.000000 0.000000 0.000000 0.000000 0.008547 0.000000
# 6 0.000000 0.000000 0.000000 0.000000 0.000000 -0.357080
#
#
# Mechanical properties :
#
#
# Convention : Reuss Voigt Hill
#
# Bulk Modulus (GPa) = 30.38103 82.46169 56.42136
# Shear Modulus (GPa) = -20.80028 48.63802 13.91887
#
# Velocity S-wave (km/s) = -3.18275 4.86694 2.60357
# Velocity P-wave (km/s) = 1.13546 8.47008 6.04283
#
# Compressibility (1/GPa) = 0.03291527
#
# Stress axis : x y z
#
# Youngs Moduli (GPa) = 121.39644 33.78653 126.59096
#
# Poissons Ratio (x) = 0.12249 0.64336
# Poissons Ratio (y) = 0.44011 -0.29090
# Poissons Ratio (z) = 0.61696 -0.07764
#
# Static dielectric constant tensor:
#      x y z
#    x 1.686530 0.000000 0.000000 
#    y 0.000000 1.770670 0.000000 
#    z 0.000000 0.000000 1.724910 
# 
# From -- ./inp_files/24492.got.cif
#   From: 2010.05.17/outbox.cif.g08.bks.cpg/sg42_13_cif.got.tgz:24492.got - 2010.06.03 19:03:34.
