data_PCOD9368738
_publ_section_title
;
Structure prediction by ZEFSAII (Michael W. Deem and Ramdas Pophale) SiO2 
 PCOD9368738
Probable space group: F M M 2
;
_chemical_formula_sum "Si O2"
_cell_formula_units_Z 96
_cell_length_a 14.626479
_cell_length_b 31.838142
_cell_length_c 10.838180
_cell_angle_alpha 90.000000
_cell_angle_beta 90.000000
_cell_angle_gamma 90.000000
_cell_volume 5047.122745
_symmetry_space_group_name_H-M "F M M 2"
_symmetry_group_IT_number 42
_symmetry_cell_setting 'orthorhombic'
loop_
_space_group_symop_operation_xyz
x,y,z
-x,-y,z
-x,y,z
x,-y,z
x,1/2+y,1/2+z
-x,1/2-y,1/2+z
-x,1/2+y,1/2+z
x,1/2-y,1/2+z
1/2+x,y,1/2+z
1/2-x,-y,1/2+z
1/2-x,y,1/2+z
1/2+x,-y,1/2+z
1/2+x,1/2+y,z
1/2-x,1/2-y,z
1/2-x,1/2+y,z
1/2+x,1/2-y,z
loop_
_atom_site_type_symbol
_atom_site_label
_atom_site_fract_x
_atom_site_fract_y
_atom_site_fract_z
Si Si1 0.106075 0.716258 0.278480
Si Si2 0.401933 0.407748 0.272336
Si Si3 0.393925 0.783742 0.558389
Si Si4 0.098067 0.407748 0.064533
Si Si5 0.828384 0.000000 0.271374
Si Si6 0.328384 0.000000 0.065495
Si Si7 0.250000 0.653536 0.668434
O O1 0.115913 0.750000 0.168434
O O2 0.116122 0.733538 0.418434
O O3 0.185814 0.682479 0.254699
O O4 0.000000 0.700568 0.270060
O O5 0.500000 0.395902 0.216321
O O6 0.407741 0.403553 0.418434
O O7 0.382623 0.456859 0.249433
O O8 0.321439 0.377414 0.232699
O O9 0.500000 0.799432 0.566808
O O10 0.314186 0.817521 0.582170
O O11 0.117377 0.456859 0.087436
O O12 0.178561 0.377414 0.104169
O O13 0.000000 0.395902 0.120548
O O14 0.800489 0.000000 0.418434
O O15 0.750000 0.000000 0.168434
#
# Coordination Sequence:
#
# PCOD9368738 Si02
#       7
#    16  16  16  16   8   8  16
#     4  10  23  42  62  86 117 154 194 239 293 352
#     4  10  21  36  57  85 118 158 199 239 286 344
#     4  10  23  42  62  86 117 154 194 239 293 352
#     4  10  21  36  57  85 118 158 199 239 286 344
#     4  10  19  37  61  86 116 156 203 243 283 338
#     4  10  19  37  61  86 116 156 203 243 283 338
#     4  12  21  35  60  88 120 150 190 245 297 346
#
# _framework density 19.020738999999999
#
# number of rings (size 3 to 8) (size 9 to 14) (size 15 to 20)
#    0.000    1.667    1.667    3.000    0.000    6.000 
#    0.000    3.333    0.000    4.000    0.000    0.000 
#    0.000    0.000    0.000    0.000    0.000    0.000 
#
# Total GULP energy -133741.167410 kJ/mol
# GULP energy per Si atom -5572.548642 kJ/mol
# Density = 1.897745 g / cm^3
# Si number density = 19.020739 Si / 1000 Ang^3
#
#
#
# Elastic Constant Matrix: (Units=GPa)
#
#
# Indices 1 2 3 4 5 6 
#
# 1 169.6838 72.3630 58.2980 0.0000 0.0000 0.0000
# 2 72.3630 96.6559 54.8939 0.0000 0.0000 0.0000
# 3 58.2980 54.8939 95.9559 0.0000 0.0000 0.0000
# 4 0.0000 0.0000 0.0000 18.5644 0.0000 0.0000
# 5 0.0000 0.0000 0.0000 0.0000 24.9781 0.0000
# 6 0.0000 0.0000 0.0000 0.0000 0.0000 -24.2343
#
#
#
# Elastic Compliance Matrix: (Units=1/GPa)
#
#
# Indices 1 2 3 4 5 6 
#
# 1 0.009014 -0.005389 -0.002393 0.000000 0.000000 0.000000
# 2 -0.005389 0.018547 -0.007336 0.000000 0.000000 0.000000
# 3 -0.002393 -0.007336 0.016072 0.000000 0.000000 0.000000
# 4 0.000000 0.000000 0.000000 0.053867 0.000000 0.000000
# 5 0.000000 0.000000 0.000000 0.000000 0.040035 0.000000
# 6 0.000000 0.000000 0.000000 0.000000 0.000000 -0.041264
#
#
# Mechanical properties :
#
#
# Convention : Reuss Voigt Hill
#
# Bulk Modulus (GPa) = 74.64912 81.48949 78.06931
# Shear Modulus (GPa) = 38.17567 15.64436 26.91002
#
# Velocity S-wave (km/s) = 4.48488 2.87102 3.76543
# Velocity P-wave (km/s) = 8.13328 7.34342 7.74842
#
# Compressibility (1/GPa) = 0.01339601
#
# Stress axis : x y z
#
# Youngs Moduli (GPa) = 110.94076 53.91711 62.21855
#
# Poissons Ratio (x) = 0.29056 0.14891
# Poissons Ratio (y) = 0.59787 0.45644
# Poissons Ratio (z) = 0.26553 0.39554
#
# Static dielectric constant tensor:
#      x y z
#    x 1.697810 0.000000 0.000000 
#    y 0.000000 1.675660 0.000000 
#    z 0.000000 0.000000 1.644790 
# 
# From -- ./inp_files/8068.got.cif
#   From: 2010.05.17/outbox.cif.g08.bks.cpg/sg42_5_cif.got.tgz:8068.got - 2010.06.03 19:03:34.
