data_PCOD9368610
_publ_section_title
;
Structure prediction by ZEFSAII (Michael W. Deem and Ramdas Pophale) SiO2 
 PCOD9368610
Probable space group: F M M 2
;
_chemical_formula_sum "Si O2"
_cell_formula_units_Z 80
_cell_length_a 8.139671
_cell_length_b 29.907889
_cell_length_c 16.065061
_cell_angle_alpha 90.000000
_cell_angle_beta 90.000000
_cell_angle_gamma 90.000000
_cell_volume 3910.884503
_symmetry_space_group_name_H-M "F M M 2"
_symmetry_group_IT_number 42
_symmetry_cell_setting 'orthorhombic'
loop_
_space_group_symop_operation_xyz
x,y,z
-x,-y,z
-x,y,z
x,-y,z
x,1/2+y,1/2+z
-x,1/2-y,1/2+z
-x,1/2+y,1/2+z
x,1/2-y,1/2+z
1/2+x,y,1/2+z
1/2-x,-y,1/2+z
1/2-x,y,1/2+z
1/2+x,-y,1/2+z
1/2+x,1/2+y,z
1/2-x,1/2-y,z
1/2-x,1/2+y,z
1/2+x,1/2-y,z
loop_
_atom_site_type_symbol
_atom_site_label
_atom_site_fract_x
_atom_site_fract_y
_atom_site_fract_z
Si Si1 0.697207 0.701809 0.312330
Si Si2 0.701638 0.393034 0.246126
Si Si3 0.196718 0.550494 0.904475
Si Si4 0.303151 0.298700 0.506295
Si Si5 0.694094 0.106185 0.563126
O O1 0.500000 0.700861 0.312966
O O2 0.750000 0.750000 0.278756
O O3 0.755190 0.657911 0.264304
O O4 0.751569 0.698682 0.409097
O O5 0.500000 0.392999 0.246297
O O6 0.758019 0.424019 0.322057
O O7 0.755331 0.407822 0.154519
O O8 0.261458 0.500000 0.911620
O O9 0.000000 0.547989 0.895727
O O10 0.230503 0.579544 0.986268
O O11 0.500000 0.302108 0.508551
O O12 0.250000 0.250000 0.538137
O O13 0.228457 0.341089 0.552508
O O14 0.500000 0.098675 0.559914
#
# Coordination Sequence:
#
# PCOD9368610 Si02
#       5
#    16  16  16  16  16
#     4   9  17  32  54  78 109 147 189 227 268 326
#     4   9  19  37  58  83 113 150 191 232 281 343
#     4  10  21  41  65  83 108 150 194 237 291 350
#     4  10  19  34  57  83 117 157 197 234 278 336
#     4  11  22  36  59  89 120 149 187 238 290 341
#
# _framework density 20.455731
#
# number of rings (size 3 to 8) (size 9 to 14) (size 15 to 20)
#    0.000    2.200    2.000    1.200    0.000    2.800 
#    0.000    8.000    0.000    0.000    0.000    0.000 
#    0.000    0.000    0.000    0.000    0.000    0.000 
#
# Total GULP energy -111673.019627 kJ/mol
# GULP energy per Si atom -5583.650981 kJ/mol
# Density = 2.040917 g / cm^3
# Si number density = 20.455731 Si / 1000 Ang^3
#
#
#
# Elastic Constant Matrix: (Units=GPa)
#
#
# Indices 1 2 3 4 5 6 
#
# 1 7.3510 -2.2841 3.3807 0.0000 0.0000 0.0000
# 2 -2.2841 131.4671 71.7779 0.0000 0.0000 0.0000
# 3 3.3807 71.7779 145.4789 0.0000 0.0000 0.0000
# 4 0.0000 0.0000 0.0000 -3.7344 0.0000 0.0000
# 5 0.0000 0.0000 0.0000 0.0000 13.0687 0.0000
# 6 0.0000 0.0000 0.0000 0.0000 0.0000 21.3703
#
#
#
# Elastic Compliance Matrix: (Units=1/GPa)
#
#
# Indices 1 2 3 4 5 6 
#
# 1 0.140650 0.005787 -0.006124 0.000000 0.000000 0.000000
# 2 0.005787 0.010649 -0.005389 0.000000 0.000000 0.000000
# 3 -0.006124 -0.005389 0.009675 0.000000 0.000000 0.000000
# 4 0.000000 0.000000 0.000000 -0.267780 0.000000 0.000000
# 5 0.000000 0.000000 0.000000 0.000000 0.076518 0.000000
# 6 0.000000 0.000000 0.000000 0.000000 0.000000 0.046794
#
#
# Mechanical properties :
#
#
# Convention : Reuss Voigt Hill
#
# Bulk Modulus (GPa) = 6.68793 47.78290 27.23542
# Shear Modulus (GPa) = 64.26918 20.23576 42.25247
#
# Velocity S-wave (km/s) = 5.61132 3.14864 4.54977
# Velocity P-wave (km/s) = 6.72749 6.05215 6.39873
#
# Compressibility (1/GPa) = 0.14952305
#
# Stress axis : x y z
#
# Youngs Moduli (GPa) = 7.10986 93.90480 103.36065
#
# Poissons Ratio (x) = -0.54343 0.63296
# Poissons Ratio (y) = -0.04115 0.55697
# Poissons Ratio (z) = 0.04354 0.50602
#
# Static dielectric constant tensor:
#      x y z
#    x 1.728900 0.000000 0.000000 
#    y 0.000000 1.712860 0.000000 
#    z 0.000000 0.000000 1.740070 
# 
# From -- ./inp_files/17232.got.cif
#   From: 2010.05.17/outbox.cif.g08.bks.cpg/sg42_9_cif.got.tgz:17232.got - 2010.06.03 19:03:34.
