data_PCOD9368454
_publ_section_title
;
Structure prediction by ZEFSAII (Michael W. Deem and Ramdas Pophale) SiO2 
 PCOD9368454
Probable space group: F M M 2
;
_chemical_formula_sum "Si O2"
_cell_formula_units_Z 128
_cell_length_a 19.002673
_cell_length_b 19.876045
_cell_length_c 20.409986
_cell_angle_alpha 90.000000
_cell_angle_beta 90.000000
_cell_angle_gamma 90.000000
_cell_volume 7708.810559
_symmetry_space_group_name_H-M "F M M 2"
_symmetry_group_IT_number 42
_symmetry_cell_setting 'orthorhombic'
loop_
_space_group_symop_operation_xyz
x,y,z
-x,-y,z
-x,y,z
x,-y,z
x,1/2+y,1/2+z
-x,1/2-y,1/2+z
-x,1/2+y,1/2+z
x,1/2-y,1/2+z
1/2+x,y,1/2+z
1/2-x,-y,1/2+z
1/2-x,y,1/2+z
1/2+x,-y,1/2+z
1/2+x,1/2+y,z
1/2-x,1/2-y,z
1/2-x,1/2+y,z
1/2+x,1/2-y,z
loop_
_atom_site_type_symbol
_atom_site_label
_atom_site_fract_x
_atom_site_fract_y
_atom_site_fract_z
Si Si1 0.365646 0.240444 0.770530
Si Si2 0.921412 0.293707 0.140716
Si Si3 0.723589 0.423937 0.030275
Si Si4 0.328531 0.720469 0.033836
Si Si5 0.181503 0.076139 0.883917
Si Si6 0.167171 0.577063 0.140318
Si Si7 0.747644 0.861928 0.258902
Si Si8 0.916661 0.202981 0.904101
O O1 0.416881 0.257075 0.710753
O O2 0.306405 0.299040 0.764178
O O3 0.324691 0.170462 0.761253
O O4 0.400308 0.250283 0.841360
O O5 0.865572 0.258636 0.093074
O O6 0.896024 0.370632 0.148076
O O7 0.000000 0.289638 0.114101
O O8 0.696825 0.500000 0.045265
O O9 0.677958 0.359063 0.050050
O O10 0.796864 0.417533 0.068859
O O11 0.725521 0.418420 0.951503
O O12 0.250000 0.750000 0.023949
O O13 0.374642 0.727994 0.968159
O O14 0.229721 0.093429 0.821973
O O15 0.118642 0.130339 0.888059
O O16 0.154745 0.000000 0.878901
O O17 0.146961 0.500000 0.152088
O O18 0.226661 0.599320 0.192869
O O19 0.000000 0.198069 0.915207
#
# Coordination Sequence:
#
# PCOD9368454 Si02
#       8
#    16  16  16  16  16  16  16  16
#     4   9  19  31  51  71 103 133 174 209 260 308
#     4  11  22  35  52  77 108 142 177 218 269 326
#     4   9  18  32  51  76 103 131 171 219 264 307
#     4  11  21  34  56  78 105 140 181 226 266 309
#     4   9  18  31  49  74 103 134 172 213 259 314
#     4  10  19  32  50  74 105 136 172 217 267 319
#     4   9  17  29  49  75  97 128 172 215 252 305
#     4  10  21  34  50  76 109 141 172 214 266 320
#
# _framework density 16.604376999999999
#
# number of rings (size 3 to 8) (size 9 to 14) (size 15 to 20)
#    0.000    2.250    1.250    1.875    7.000    0.500 
#    0.000    0.000    0.000    5.625    0.000    0.000 
#    0.000    7.000    0.000    0.000    0.000    0.125 
#
# Total GULP energy -178294.954908 kJ/mol
# GULP energy per Si atom -5571.717341 kJ/mol
# Density = 1.656658 g / cm^3
# Si number density = 16.604377 Si / 1000 Ang^3
#
#
#
# Elastic Constant Matrix: (Units=GPa)
#
#
# Indices 1 2 3 4 5 6 
#
# 1 87.9990 22.9510 33.0349 0.0000 0.0000 0.0000
# 2 22.9510 62.6131 16.3826 0.0000 0.0000 0.0000
# 3 33.0349 16.3826 62.6915 0.0000 0.0000 0.0000
# 4 0.0000 0.0000 0.0000 23.9889 0.0000 0.0000
# 5 0.0000 0.0000 0.0000 0.0000 16.8986 0.0000
# 6 0.0000 0.0000 0.0000 0.0000 0.0000 11.3741
#
#
#
# Elastic Compliance Matrix: (Units=1/GPa)
#
#
# Indices 1 2 3 4 5 6 
#
# 1 0.014908 -0.003659 -0.006900 0.000000 0.000000 0.000000
# 2 -0.003659 0.018041 -0.002786 0.000000 0.000000 0.000000
# 3 -0.006900 -0.002786 0.020315 0.000000 0.000000 0.000000
# 4 0.000000 0.000000 0.000000 0.041686 0.000000 0.000000
# 5 0.000000 0.000000 0.000000 0.000000 0.059177 0.000000
# 6 0.000000 0.000000 0.000000 0.000000 0.000000 0.087919
#
#
# Mechanical properties :
#
#
# Convention : Reuss Voigt Hill
#
# Bulk Modulus (GPa) = 37.63056 39.78229 38.70642
# Shear Modulus (GPa) = 18.01188 19.84800 18.92994
#
# Velocity S-wave (km/s) = 3.29715 3.46113 3.38014
# Velocity P-wave (km/s) = 6.09977 6.32325 6.21251
#
# Compressibility (1/GPa) = 0.02657415
#
# Stress axis : x y z
#
# Youngs Moduli (GPa) = 67.07695 55.42779 49.22489
#
# Poissons Ratio (x) = 0.20283 0.33963
# Poissons Ratio (y) = 0.24546 0.13716
# Poissons Ratio (z) = 0.46280 0.15444
#
# Static dielectric constant tensor:
#      x y z
#    x 1.534010 0.000000 0.000000 
#    y 0.000000 1.575160 0.000000 
#    z 0.000000 0.000000 1.571610 
# 
# From -- ./inp_files/26216.got.cif
#   From: 2010.05.17/outbox.cif.g08.bks.cpg/sg42_14_cif.got.tgz:26216.got - 2010.06.03 19:03:34.
