data_PCOD9369515
_publ_section_title
;
Structure prediction by ZEFSAII (Michael W. Deem and Ramdas Pophale) SiO2 
 PCOD9369515
Probable space group: F M M 2
;
_chemical_formula_sum "Si O2"
_cell_formula_units_Z 88
_cell_length_a 12.939051
_cell_length_b 28.456080
_cell_length_c 13.994806
_cell_angle_alpha 90.000000
_cell_angle_beta 90.000000
_cell_angle_gamma 90.000000
_cell_volume 5152.812982
_symmetry_space_group_name_H-M "F M M 2"
_symmetry_group_IT_number 42
_symmetry_cell_setting 'orthorhombic'
loop_
_space_group_symop_operation_xyz
x,y,z
-x,-y,z
-x,y,z
x,-y,z
x,1/2+y,1/2+z
-x,1/2-y,1/2+z
-x,1/2+y,1/2+z
x,1/2-y,1/2+z
1/2+x,y,1/2+z
1/2-x,-y,1/2+z
1/2-x,y,1/2+z
1/2+x,-y,1/2+z
1/2+x,1/2+y,z
1/2-x,1/2-y,z
1/2-x,1/2+y,z
1/2+x,1/2-y,z
loop_
_atom_site_type_symbol
_atom_site_label
_atom_site_fract_x
_atom_site_fract_y
_atom_site_fract_z
Si Si1 0.118716 0.943875 0.290170
Si Si2 0.665016 0.788610 0.903625
Si Si3 0.000000 0.835003 0.863625
Si Si4 0.500000 0.261610 0.029688
Si Si5 0.213999 0.617048 0.403027
Si Si6 0.378952 0.554088 0.063395
Si Si7 0.500000 0.265248 0.256094
O O1 0.210454 0.915663 0.340480
O O2 0.128552 0.936840 0.176195
O O3 0.000000 0.929992 0.317577
O O4 0.127564 0.000000 0.308154
O O5 0.750000 0.750000 0.882987
O O6 0.719968 0.836883 0.926334
O O7 0.595903 0.790325 0.808297
O O8 0.596736 0.768343 0.990309
O O9 0.894486 0.865148 0.855725
O O10 0.000000 0.789433 0.792975
O O11 0.000000 0.810156 0.968999
O O12 0.500000 0.268310 0.142570
O O13 0.184141 0.589090 0.498074
O O14 0.500000 0.558213 0.037564
O O15 0.347552 0.500000 0.046150
#
# Coordination Sequence:
#
# PCOD9369515 Si02
#       7
#    16  16   8   8  16  16   8
#     4   9  21  39  59  87 116 146 190 238 286 345
#     4  10  21  39  54  82 114 145 188 233 276 343
#     4  10  22  38  53  88 120 140 199 246 266 340
#     4  10  22  40  56  75 112 154 190 237 284 325
#     4  12  20  36  61  86 116 152 190 237 290 328
#     4   9  19  37  60  85 112 147 191 233 282 342
#     4  10  22  40  56  75 114 158 184 231 292 329
#
# _framework density 17.078049
#
# number of rings (size 3 to 8) (size 9 to 14) (size 15 to 20)
#    0.000    2.182    4.545    1.636    2.545    3.636 
#    0.000    0.000    2.000    0.000    0.000    0.000 
#    0.000    0.000    0.000    0.000    0.000    0.000 
#
# Total GULP energy -122646.134222 kJ/mol
# GULP energy per Si atom -5574.824283 kJ/mol
# Density = 1.703918 g / cm^3
# Si number density = 17.078049 Si / 1000 Ang^3
#
#
#
# Elastic Constant Matrix: (Units=GPa)
#
#
# Indices 1 2 3 4 5 6 
#
# 1 125.6297 64.1199 41.8256 0.0000 0.0000 0.0000
# 2 64.1199 87.9626 39.0035 0.0000 0.0000 0.0000
# 3 41.8256 39.0035 88.1310 0.0000 0.0000 0.0000
# 4 0.0000 0.0000 0.0000 8.6004 0.0000 0.0000
# 5 0.0000 0.0000 0.0000 0.0000 21.1905 0.0000
# 6 0.0000 0.0000 0.0000 0.0000 0.0000 20.1165
#
#
#
# Elastic Compliance Matrix: (Units=1/GPa)
#
#
# Indices 1 2 3 4 5 6 
#
# 1 0.013096 -0.008448 -0.002476 0.000000 0.000000 0.000000
# 2 -0.008448 0.019594 -0.004662 0.000000 0.000000 0.000000
# 3 -0.002476 -0.004662 0.014585 0.000000 0.000000 0.000000
# 4 0.000000 0.000000 0.000000 0.116274 0.000000 0.000000
# 5 0.000000 0.000000 0.000000 0.000000 0.047191 0.000000
# 6 0.000000 0.000000 0.000000 0.000000 0.000000 0.049710
#
#
# Mechanical properties :
#
#
# Convention : Reuss Voigt Hill
#
# Bulk Modulus (GPa) = 62.10456 65.73571 63.92014
# Shear Modulus (GPa) = 16.83545 20.43309 18.63427
#
# Velocity S-wave (km/s) = 3.14314 3.46273 3.30680
# Velocity P-wave (km/s) = 7.04390 7.38663 7.21730
#
# Compressibility (1/GPa) = 0.01610188
#
# Stress axis : x y z
#
# Youngs Moduli (GPa) = 76.35712 51.03548 68.56230
#
# Poissons Ratio (x) = 0.43117 0.16978
# Poissons Ratio (y) = 0.64510 0.31965
# Poissons Ratio (z) = 0.18909 0.23794
#
# Static dielectric constant tensor:
#      x y z
#    x 1.571920 0.000000 0.000000 
#    y 0.000000 1.593050 0.000000 
#    z 0.000000 0.000000 1.543380 
# 
# From -- ./inp_files/7075.got.cif
#   From: 2010.05.17/outbox.cif.g08.bks.cpg/sg42_4_cif.got.tgz:7075.got - 2010.06.03 19:03:34.
