data_PCOD9369527
_publ_section_title
;
Structure prediction by ZEFSAII (Michael W. Deem and Ramdas Pophale) SiO2 
 PCOD9369527
Probable space group: F M M 2
;
_chemical_formula_sum "Si O2"
_cell_formula_units_Z 80
_cell_length_a 8.690522
_cell_length_b 14.965935
_cell_length_c 31.167690
_cell_angle_alpha 90.000000
_cell_angle_beta 90.000000
_cell_angle_gamma 90.000000
_cell_volume 4053.725470
_symmetry_space_group_name_H-M "F M M 2"
_symmetry_group_IT_number 42
_symmetry_cell_setting 'orthorhombic'
loop_
_space_group_symop_operation_xyz
x,y,z
-x,-y,z
-x,y,z
x,-y,z
x,1/2+y,1/2+z
-x,1/2-y,1/2+z
-x,1/2+y,1/2+z
x,1/2-y,1/2+z
1/2+x,y,1/2+z
1/2-x,-y,1/2+z
1/2-x,y,1/2+z
1/2+x,-y,1/2+z
1/2+x,1/2+y,z
1/2-x,1/2-y,z
1/2-x,1/2+y,z
1/2+x,1/2-y,z
loop_
_atom_site_type_symbol
_atom_site_label
_atom_site_fract_x
_atom_site_fract_y
_atom_site_fract_z
Si Si1 0.184295 0.351203 0.330900
Si Si2 0.186637 0.000000 0.991835
Si Si3 0.316126 0.149056 0.744033
Si Si4 0.814594 0.849641 0.925414
Si Si5 0.184882 0.149600 0.148791
Si Si6 0.183267 0.000000 0.587362
O O1 0.250000 0.250000 0.331805
O O2 0.249627 0.393532 0.287364
O O3 0.227087 0.387260 0.377993
O O4 0.000000 0.349228 0.327585
O O5 0.234126 0.914138 0.963709
O O6 0.000000 0.000000 0.994866
O O7 0.256247 0.000000 0.038875
O O8 0.500000 0.151866 0.747715
O O9 0.250000 0.250000 0.743117
O O10 0.276904 0.113034 0.696774
O O11 0.750000 0.750000 0.929923
O O12 0.000000 0.844756 0.925988
O O13 0.250000 0.250000 0.145206
O O14 0.253690 0.085901 0.112853
O O15 0.000000 0.152112 0.145432
O O16 0.000000 0.000000 0.587945
#
# Coordination Sequence:
#
# PCOD9369527 Si02
#       6
#    16   8  16  16  16   8
#     4   9  15  25  45  75 109 144 182 221 265 320
#     4  10  22  42  61  78 107 145 184 233 291 342
#     4   9  16  27  48  78 111 147 184 221 267 323
#     4   9  19  35  57  82 110 146 185 225 273 330
#     4  10  21  39  62  87 117 153 192 235 284 339
#     4  12  26  42  61  86 113 145 190 241 295 350
#
# _framework density 19.734933000000002
#
# number of rings (size 3 to 8) (size 9 to 14) (size 15 to 20)
#    0.000    2.400    0.000    3.900    0.000    4.800 
#    0.000    3.000    0.000    1.200    0.000    0.000 
#    0.000    0.000    0.000    0.000    0.000    0.000 
#
# Total GULP energy -111579.593559 kJ/mol
# GULP energy per Si atom -5578.979678 kJ/mol
# Density = 1.969002 g / cm^3
# Si number density = 19.734933 Si / 1000 Ang^3
#
#
#
# Elastic Constant Matrix: (Units=GPa)
#
#
# Indices 1 2 3 4 5 6 
#
# 1 69.4877 30.6120 74.9152 0.0000 0.0000 0.0000
# 2 30.6120 99.3161 85.3184 0.0000 0.0000 0.0000
# 3 74.9152 85.3184 246.4567 0.0000 0.0000 0.0000
# 4 0.0000 0.0000 0.0000 39.5613 0.0000 0.0000
# 5 0.0000 0.0000 0.0000 0.0000 30.2496 0.0000
# 6 0.0000 0.0000 0.0000 0.0000 0.0000 8.1954
#
#
#
# Elastic Compliance Matrix: (Units=1/GPa)
#
#
# Indices 1 2 3 4 5 6 
#
# 1 0.021551 -0.001445 -0.006051 0.000000 0.000000 0.000000
# 2 -0.001445 0.014427 -0.004555 0.000000 0.000000 0.000000
# 3 -0.006051 -0.004555 0.007474 0.000000 0.000000 0.000000
# 4 0.000000 0.000000 0.000000 0.025277 0.000000 0.000000
# 5 0.000000 0.000000 0.000000 0.000000 0.033058 0.000000
# 6 0.000000 0.000000 0.000000 0.000000 0.000000 0.122019
#
#
# Mechanical properties :
#
#
# Convention : Reuss Voigt Hill
#
# Bulk Modulus (GPa) = 51.67822 88.55019 70.11420
# Shear Modulus (GPa) = 19.65730 30.56225 25.10977
#
# Velocity S-wave (km/s) = 3.15948 3.93954 3.57087
# Velocity P-wave (km/s) = 6.28910 8.10312 7.25304
#
# Compressibility (1/GPa) = 0.01935051
#
# Stress axis : x y z
#
# Youngs Moduli (GPa) = 46.40220 69.31218 133.80283
#
# Poissons Ratio (x) = 0.10013 0.80959
# Poissons Ratio (y) = 0.06704 0.60952
# Poissons Ratio (z) = 0.28076 0.31574
#
# Static dielectric constant tensor:
#      x y z
#    x 1.658130 0.000000 0.000000 
#    y 0.000000 1.709600 0.000000 
#    z 0.000000 0.000000 1.727470 
# 
# From -- ./inp_files/31341.got.cif
#   From: 2010.05.17/outbox.cif.g08.bks.cpg/sg42_16_cif.got.tgz:31341.got - 2010.06.03 19:03:34.
