data_PCOD9369113
_publ_section_title
;
Structure prediction by ZEFSAII (Michael W. Deem and Ramdas Pophale) SiO2 
 PCOD9369113
Probable space group: F M M 2
;
_chemical_formula_sum "Si O2"
_cell_formula_units_Z 112
_cell_length_a 33.359369
_cell_length_b 10.578257
_cell_length_c 14.822933
_cell_angle_alpha 90.000000
_cell_angle_beta 90.000000
_cell_angle_gamma 90.000000
_cell_volume 5230.775572
_symmetry_space_group_name_H-M "F M M 2"
_symmetry_group_IT_number 42
_symmetry_cell_setting 'orthorhombic'
loop_
_space_group_symop_operation_xyz
x,y,z
-x,-y,z
-x,y,z
x,-y,z
x,1/2+y,1/2+z
-x,1/2-y,1/2+z
-x,1/2+y,1/2+z
x,1/2-y,1/2+z
1/2+x,y,1/2+z
1/2-x,-y,1/2+z
1/2-x,y,1/2+z
1/2+x,-y,1/2+z
1/2+x,1/2+y,z
1/2-x,1/2-y,z
1/2-x,1/2+y,z
1/2+x,1/2-y,z
loop_
_atom_site_type_symbol
_atom_site_label
_atom_site_fract_x
_atom_site_fract_y
_atom_site_fract_z
Si Si1 0.545113 0.772235 0.877110
Si Si2 0.717129 0.852878 0.357897
Si Si3 0.283033 0.647397 0.641037
Si Si4 0.653504 0.639481 0.117445
Si Si5 0.927591 0.634780 0.691216
Si Si6 0.546454 0.368345 0.575990
Si Si7 0.129230 0.141945 0.911474
O O1 0.500000 0.712738 0.876836
O O2 0.550319 0.849579 0.785485
O O3 0.586048 0.691695 0.881091
O O4 0.547527 0.852207 0.968704
O O5 0.750000 0.750000 0.389826
O O6 0.721159 0.860327 0.249612
O O7 0.672331 0.802751 0.381210
O O8 0.721767 0.000000 0.392135
O O9 0.282156 0.500000 0.608298
O O10 0.250000 0.750000 0.607807
O O11 0.322645 0.730181 0.622661
O O12 0.675167 0.500000 0.121792
O O13 0.620589 0.636756 0.196645
O O14 0.631579 0.640217 0.020332
O O15 0.939080 0.500000 0.649764
O O16 0.937082 0.749377 0.626801
O O17 0.500000 0.373250 0.601810
O O18 0.566643 0.500000 0.602369
O O19 0.131583 0.000000 0.875705
#
# Coordination Sequence:
#
# PCOD9369113 Si02
#       7
#    16  16  16  16  16  16  16
#     4  11  23  40  64  94 128 171 223 275 331 394
#     4   9  19  37  62  89 123 161 205 261 319 383
#     4  10  20  36  59  88 121 162 208 259 320 387
#     4  10  21  38  59  87 124 164 209 265 324 387
#     4  11  23  41  65  92 124 166 215 269 329 392
#     4  10  22  40  60  86 122 160 204 264 326 384
#     4  10  21  40  62  90 130 170 211 268 329 388
#
# _framework density 21.411738
#
# number of rings (size 3 to 8) (size 9 to 14) (size 15 to 20)
#    0.000    1.857    1.429    2.143    0.000    4.286 
#    0.000    5.000    0.000    0.000    0.000    0.000 
#    0.000    0.000    0.000    0.000    0.000    0.000 
#
# Total GULP energy -155910.151820 kJ/mol
# GULP energy per Si atom -5568.219708 kJ/mol
# Density = 2.136300 g / cm^3
# Si number density = 21.411738 Si / 1000 Ang^3
#
#
#
# Elastic Constant Matrix: (Units=GPa)
#
#
# Indices 1 2 3 4 5 6 
#
# 1 137.6287 77.4034 8.5073 0.0000 0.0000 0.0000
# 2 77.4034 179.5322 41.5113 0.0000 0.0000 0.0000
# 3 8.5073 41.5113 54.9253 0.0000 0.0000 0.0000
# 4 0.0000 0.0000 0.0000 13.3109 0.0000 0.0000
# 5 0.0000 0.0000 0.0000 0.0000 23.2882 0.0000
# 6 0.0000 0.0000 0.0000 0.0000 0.0000 17.7760
#
#
#
# Elastic Compliance Matrix: (Units=1/GPa)
#
#
# Indices 1 2 3 4 5 6 
#
# 1 0.009774 -0.004682 0.002025 0.000000 0.000000 0.000000
# 2 -0.004682 0.008992 -0.006071 0.000000 0.000000 0.000000
# 3 0.002025 -0.006071 0.022481 0.000000 0.000000 0.000000
# 4 0.000000 0.000000 0.000000 0.075126 0.000000 0.000000
# 5 0.000000 0.000000 0.000000 0.000000 0.042940 0.000000
# 6 0.000000 0.000000 0.000000 0.000000 0.000000 0.056256
#
#
# Mechanical properties :
#
#
# Convention : Reuss Voigt Hill
#
# Bulk Modulus (GPa) = 42.03284 69.65892 55.84588
# Shear Modulus (GPa) = 20.75059 27.18598 23.96829
#
# Velocity S-wave (km/s) = 3.11645 3.56712 3.34937
# Velocity P-wave (km/s) = 5.71166 7.04056 6.41064
#
# Compressibility (1/GPa) = 0.02379092
#
# Stress axis : x y z
#
# Youngs Moduli (GPa) = 102.31188 111.20458 44.48133
#
# Poissons Ratio (x) = 0.52068 -0.09006
# Poissons Ratio (y) = 0.47904 0.27005
# Poissons Ratio (z) = -0.20716 0.67513
#
# Static dielectric constant tensor:
#      x y z
#    x 1.884660 0.000000 0.000000 
#    y 0.000000 1.567440 0.000000 
#    z 0.000000 0.000000 1.766090 
# 
# From -- ./inp_files/17352.got.cif
#   From: 2010.05.17/outbox.cif.g08.bks.cpg/sg42_9_cif.got.tgz:17352.got - 2010.06.03 19:03:34.
