data_PCOD9369690
_publ_section_title
;
Structure prediction by ZEFSAII (Michael W. Deem and Ramdas Pophale) SiO2 
 PCOD9369690
Probable space group: F M M 2
;
_chemical_formula_sum "Si O2"
_cell_formula_units_Z 68
_cell_length_a 23.592750
_cell_length_b 7.900304
_cell_length_c 14.671467
_cell_angle_alpha 90.000000
_cell_angle_beta 90.000000
_cell_angle_gamma 90.000000
_cell_volume 2734.613226
_symmetry_space_group_name_H-M "F M M 2"
_symmetry_group_IT_number 42
_symmetry_cell_setting 'orthorhombic'
loop_
_space_group_symop_operation_xyz
x,y,z
-x,-y,z
-x,y,z
x,-y,z
x,1/2+y,1/2+z
-x,1/2-y,1/2+z
-x,1/2+y,1/2+z
x,1/2-y,1/2+z
1/2+x,y,1/2+z
1/2-x,-y,1/2+z
1/2-x,y,1/2+z
1/2+x,-y,1/2+z
1/2+x,1/2+y,z
1/2-x,1/2-y,z
1/2-x,1/2+y,z
1/2+x,1/2-y,z
loop_
_atom_site_type_symbol
_atom_site_label
_atom_site_fract_x
_atom_site_fract_y
_atom_site_fract_z
Si Si1 0.310423 0.300303 0.650270
Si Si2 0.937733 0.197988 0.092801
Si Si3 0.427086 0.313454 0.877772
Si Si4 0.500000 0.000000 0.812815
Si Si5 0.690252 0.687000 0.353216
O O1 0.306730 0.500000 0.669284
O O2 0.250000 0.250000 0.602121
O O3 0.375006 0.270614 0.613908
O O4 0.308369 0.194126 0.743702
O O5 0.000000 0.266257 0.126987
O O6 0.937286 0.000000 0.121463
O O7 0.942918 0.204969 0.983497
O O8 0.442776 0.500000 0.843172
O O9 0.359955 0.306924 0.879496
O O10 0.451490 0.153039 0.823673
O O11 0.678430 0.500000 0.387807
O O12 0.750000 0.750000 0.386938
#
# Coordination Sequence:
#
# PCOD9369690 Si02
#       5
#    16  16  16   4  16
#     4  11  23  40  64  89 123 164 208 259 312 374
#     4  10  22  41  63  90 125 163 202 257 310 368
#     4  11  23  41  65  93 127 166 210 257 311 373
#     4  12  22  40  64  94 124 172 206 252 320 366
#     4  11  22  41  65  91 124 163 209 262 316 373
#
# _framework density 24.866403999999999
#
# number of rings (size 3 to 8) (size 9 to 14) (size 15 to 20)
#    0.000    1.176    2.353    6.000    1.647    1.412 
#    2.118    0.000    0.000    0.000    0.000    0.000 
#    0.000    0.000    0.000    0.000    0.000    0.000 
#
# Total GULP energy -94652.839191 kJ/mol
# GULP energy per Si atom -5567.814070 kJ/mol
# Density = 2.480981 g / cm^3
# Si number density = 24.866404 Si / 1000 Ang^3
#
#
#
# Elastic Constant Matrix: (Units=GPa)
#
#
# Indices 1 2 3 4 5 6 
#
# 1 293.8756 61.7521 17.1933 0.0000 0.0000 0.0000
# 2 61.7521 185.2205 -4.6667 0.0000 0.0000 0.0000
# 3 17.1933 -4.6667 54.4936 0.0000 0.0000 0.0000
# 4 0.0000 0.0000 0.0000 13.1977 0.0000 0.0000
# 5 0.0000 0.0000 0.0000 0.0000 28.8551 0.0000
# 6 0.0000 0.0000 0.0000 0.0000 0.0000 75.9007
#
#
#
# Elastic Compliance Matrix: (Units=1/GPa)
#
#
# Indices 1 2 3 4 5 6 
#
# 1 0.003748 -0.001282 -0.001292 0.000000 0.000000 0.000000
# 2 -0.001282 0.005849 0.000905 0.000000 0.000000 0.000000
# 3 -0.001292 0.000905 0.018836 0.000000 0.000000 0.000000
# 4 0.000000 0.000000 0.000000 0.075771 0.000000 0.000000
# 5 0.000000 0.000000 0.000000 0.000000 0.034656 0.000000
# 6 0.000000 0.000000 0.000000 0.000000 0.000000 0.013175
#
#
# Mechanical properties :
#
#
# Convention : Reuss Voigt Hill
#
# Bulk Modulus (GPa) = 39.84821 75.79412 57.82116
# Shear Modulus (GPa) = 30.53667 54.21145 42.37406
#
# Velocity S-wave (km/s) = 3.50813 4.67423 4.13252
# Velocity P-wave (km/s) = 5.69816 7.72515 6.78774
#
# Compressibility (1/GPa) = 0.02509523
#
# Stress axis : x y z
#
# Youngs Moduli (GPa) = 266.82282 170.96293 53.08974
#
# Poissons Ratio (x) = 0.21919 0.06861
# Poissons Ratio (y) = 0.34209 -0.04807
# Poissons Ratio (z) = 0.34481 -0.15479
#
# Static dielectric constant tensor:
#      x y z
#    x 2.037480 0.000000 0.000000 
#    y 0.000000 1.903540 0.000000 
#    z 0.000000 0.000000 2.041550 
# 
# From -- ./inp_files/17957.got.cif
#   From: 2010.05.17/outbox.cif.g08.bks.cpg/sg42_9_cif.got.tgz:17957.got - 2010.06.03 19:03:34.
