data_PCOD9369878
_publ_section_title
;
Structure prediction by ZEFSAII (Michael W. Deem and Ramdas Pophale) SiO2 
 PCOD9369878
Probable space group: F M M 2
;
_chemical_formula_sum "Si O2"
_cell_formula_units_Z 80
_cell_length_a 8.100041
_cell_length_b 29.863753
_cell_length_c 16.068997
_cell_angle_alpha 90.000000
_cell_angle_beta 90.000000
_cell_angle_gamma 90.000000
_cell_volume 3887.052190
_symmetry_space_group_name_H-M "F M M 2"
_symmetry_group_IT_number 42
_symmetry_cell_setting 'orthorhombic'
loop_
_space_group_symop_operation_xyz
x,y,z
-x,-y,z
-x,y,z
x,-y,z
x,1/2+y,1/2+z
-x,1/2-y,1/2+z
-x,1/2+y,1/2+z
x,1/2-y,1/2+z
1/2+x,y,1/2+z
1/2-x,-y,1/2+z
1/2-x,y,1/2+z
1/2+x,-y,1/2+z
1/2+x,1/2+y,z
1/2-x,1/2-y,z
1/2-x,1/2+y,z
1/2+x,1/2-y,z
loop_
_atom_site_type_symbol
_atom_site_label
_atom_site_fract_x
_atom_site_fract_y
_atom_site_fract_z
Si Si1 0.300855 0.049852 0.088530
Si Si2 0.796837 0.143972 0.850862
Si Si3 0.299615 0.951051 0.285220
Si Si4 0.693704 0.644834 0.033400
Si Si5 0.805965 0.699248 0.192971
O O1 0.500000 0.053011 0.081907
O O2 0.260207 0.053494 0.187026
O O3 0.221839 0.091638 0.042484
O O4 0.250475 0.000000 0.060335
O O5 0.742291 0.092952 0.832874
O O6 0.736420 0.174935 0.775375
O O7 0.000000 0.143600 0.850872
O O8 0.743002 0.158882 0.942453
O O9 0.500000 0.951530 0.290002
O O10 0.240096 0.000000 0.314091
O O11 0.500000 0.654348 0.037144
O O12 0.772032 0.669855 0.111397
O O13 0.750000 0.750000 0.182650
O O14 0.000000 0.700232 0.205411
#
# Coordination Sequence:
#
# PCOD9369878 Si02
#       5
#    16  16  16  16  16
#     4   9  17  32  56  83 115 159 202 235 277 335
#     4   9  19  35  57  85 116 149 190 233 280 340
#     4   8  13  26  52  81 108 146 192 228 266 325
#     4  11  22  36  58  91 122 149 187 238 290 341
#     4  11  23  43  65  84 111 148 190 237 291 350
#
# _framework density 20.581150000000001
#
# number of rings (size 3 to 8) (size 9 to 14) (size 15 to 20)
#    0.000    2.400    2.000    2.400    0.000    2.000 
#    0.000    8.000    0.000    0.000    0.000    0.000 
#    0.000    0.000    0.000    0.000    0.000    0.000 
#
# Total GULP energy -111628.387693 kJ/mol
# GULP energy per Si atom -5581.419385 kJ/mol
# Density = 2.053431 g / cm^3
# Si number density = 20.581150 Si / 1000 Ang^3
#
#
#
# Elastic Constant Matrix: (Units=GPa)
#
#
# Indices 1 2 3 4 5 6 
#
# 1 9.9034 0.0772 0.9767 0.0000 0.0000 0.0000
# 2 0.0772 108.6386 52.0064 0.0000 0.0000 0.0000
# 3 0.9767 52.0064 113.1706 0.0000 0.0000 0.0000
# 4 0.0000 0.0000 0.0000 -2.4598 0.0000 0.0000
# 5 0.0000 0.0000 0.0000 0.0000 14.2678 0.0000
# 6 0.0000 0.0000 0.0000 0.0000 0.0000 23.6379
#
#
#
# Elastic Compliance Matrix: (Units=1/GPa)
#
#
# Indices 1 2 3 4 5 6 
#
# 1 0.101078 0.000443 -0.001076 0.000000 0.000000 0.000000
# 2 0.000443 0.011803 -0.005428 0.000000 0.000000 0.000000
# 3 -0.001076 -0.005428 0.011340 0.000000 0.000000 0.000000
# 4 0.000000 0.000000 0.000000 -0.406535 0.000000 0.000000
# 5 0.000000 0.000000 0.000000 0.000000 0.070088 0.000000
# 6 0.000000 0.000000 0.000000 0.000000 0.000000 0.042305
#
#
# Mechanical properties :
#
#
# Convention : Reuss Voigt Hill
#
# Bulk Modulus (GPa) = 8.92063 37.53704 23.22884
# Shear Modulus (GPa) = -41.51663 18.99933 -11.25865
#
# Velocity S-wave (km/s) = -4.49622 3.04162 -2.34142
# Velocity P-wave (km/s) = 4.75508 5.53294 2.00033
#
# Compressibility (1/GPa) = 0.11209973
#
# Stress axis : x y z
#
# Youngs Moduli (GPa) = 9.89334 84.72563 88.18544
#
# Poissons Ratio (x) = -0.03755 0.09489
# Poissons Ratio (y) = -0.00439 0.47864
# Poissons Ratio (z) = 0.01065 0.45986
#
# Static dielectric constant tensor:
#      x y z
#    x 1.727530 0.000000 0.000000 
#    y 0.000000 1.727580 0.000000 
#    z 0.000000 0.000000 1.746550 
# 
# From -- ./inp_files/16918.got.cif
#   From: 2010.05.17/outbox.cif.g08.bks.cpg/sg42_9_cif.got.tgz:16918.got - 2010.06.03 19:03:34.
