data_PCOD9369023
_publ_section_title
;
Structure prediction by ZEFSAII (Michael W. Deem and Ramdas Pophale) SiO2 
 PCOD9369023
Probable space group: F M M 2
;
_chemical_formula_sum "Si O2"
_cell_formula_units_Z 80
_cell_length_a 8.785649
_cell_length_b 15.782038
_cell_length_c 29.607640
_cell_angle_alpha 90.000000
_cell_angle_beta 90.000000
_cell_angle_gamma 90.000000
_cell_volume 4105.260540
_symmetry_space_group_name_H-M "F M M 2"
_symmetry_group_IT_number 42
_symmetry_cell_setting 'orthorhombic'
loop_
_space_group_symop_operation_xyz
x,y,z
-x,-y,z
-x,y,z
x,-y,z
x,1/2+y,1/2+z
-x,1/2-y,1/2+z
-x,1/2+y,1/2+z
x,1/2-y,1/2+z
1/2+x,y,1/2+z
1/2-x,-y,1/2+z
1/2-x,y,1/2+z
1/2+x,-y,1/2+z
1/2+x,1/2+y,z
1/2-x,1/2-y,z
1/2-x,1/2+y,z
1/2+x,1/2-y,z
loop_
_atom_site_type_symbol
_atom_site_label
_atom_site_fract_x
_atom_site_fract_y
_atom_site_fract_z
Si Si1 0.177105 0.397524 0.415160
Si Si2 0.680258 0.339823 0.323816
Si Si3 0.316050 0.160989 0.108400
Si Si4 0.685206 0.500000 0.666808
Si Si5 0.816841 0.000000 0.771477
Si Si6 0.679489 0.601914 0.509707
O O1 0.194629 0.500000 0.412110
O O2 0.276666 0.355913 0.376152
O O3 0.229177 0.371977 0.465248
O O4 0.000000 0.377366 0.407634
O O5 0.500000 0.339684 0.318183
O O6 0.750000 0.250000 0.309681
O O7 0.753458 0.416979 0.296169
O O8 0.500000 0.162954 0.108920
O O9 0.250000 0.250000 0.123832
O O10 0.269234 0.143392 0.056520
O O11 0.265152 0.083505 0.139866
O O12 0.500000 0.500000 0.665722
O O13 0.729873 0.500000 0.718994
O O14 0.000000 0.000000 0.774572
O O15 0.500000 0.619446 0.502919
O O16 0.694516 0.500000 0.514985
#
# Coordination Sequence:
#
# PCOD9369023 Si02
#       6
#    16  16  16   8   8  16
#     4  10  20  35  58  88 125 162 202 249 300 357
#     4  12  25  42  65  92 124 162 205 252 305 366
#     4  10  20  37  60  88 119 157 200 245 295 354
#     4   9  20  41  66  87 116 157 196 241 302 363
#     4  11  23  43  68  93 122 157 200 255 314 371
#     4   9  17  32  56  82 115 161 208 244 287 353
#
# _framework density 19.487192
#
# number of rings (size 3 to 8) (size 9 to 14) (size 15 to 20)
#    0.000    1.800    2.000    2.700    0.000    3.200 
#    0.000    6.500    0.000    0.000    0.000    0.000 
#    0.000    0.000    0.000    0.000    0.000    0.000 
#
# Total GULP energy -111795.492839 kJ/mol
# GULP energy per Si atom -5589.774642 kJ/mol
# Density = 1.944284 g / cm^3
# Si number density = 19.487192 Si / 1000 Ang^3
#
#
#
# Elastic Constant Matrix: (Units=GPa)
#
#
# Indices 1 2 3 4 5 6 
#
# 1 78.2167 49.8468 40.2249 0.0000 0.0000 0.0000
# 2 49.8468 139.9849 77.5377 0.0000 0.0000 0.0000
# 3 40.2249 77.5377 129.1664 0.0000 0.0000 0.0000
# 4 0.0000 0.0000 0.0000 -5.9729 0.0000 0.0000
# 5 0.0000 0.0000 0.0000 0.0000 19.3340 0.0000
# 6 0.0000 0.0000 0.0000 0.0000 0.0000 27.6798
#
#
#
# Elastic Compliance Matrix: (Units=1/GPa)
#
#
# Indices 1 2 3 4 5 6 
#
# 1 0.017059 -0.004692 -0.002496 0.000000 0.000000 0.000000
# 2 -0.004692 0.011993 -0.005738 0.000000 0.000000 0.000000
# 3 -0.002496 -0.005738 0.011964 0.000000 0.000000 0.000000
# 4 0.000000 0.000000 0.000000 -0.167424 0.000000 0.000000
# 5 0.000000 0.000000 0.000000 0.000000 0.051722 0.000000
# 6 0.000000 0.000000 0.000000 0.000000 0.000000 0.036127
#
#
# Mechanical properties :
#
#
# Convention : Reuss Voigt Hill
#
# Bulk Modulus (GPa) = 65.94781 75.84298 70.89539
# Shear Modulus (GPa) = -653.31775 20.19209 -316.56283
#
# Velocity S-wave (km/s) = -18.32983 3.22246 -12.75928
# Velocity P-wave (km/s) = 20.34851 7.26977 13.43898
#
# Compressibility (1/GPa) = 0.01516351
#
# Stress axis : x y z
#
# Youngs Moduli (GPa) = 58.62122 83.38473 83.58649
#
# Poissons Ratio (x) = 0.39123 0.20862
# Poissons Ratio (y) = 0.27505 0.47961
# Poissons Ratio (z) = 0.14631 0.47846
#
# Static dielectric constant tensor:
#      x y z
#    x 1.654650 0.000000 0.000000 
#    y 0.000000 1.677830 0.000000 
#    z 0.000000 0.000000 1.662850 
# 
# From -- ./inp_files/31284.got.cif
#   From: 2010.05.17/outbox.cif.g08.bks.cpg/sg42_16_cif.got.tgz:31284.got - 2010.06.03 19:03:34.
