data_PCOD9369138
_publ_section_title
;
Structure prediction by ZEFSAII (Michael W. Deem and Ramdas Pophale) SiO2 
 PCOD9369138
Probable space group: F M M 2
;
_chemical_formula_sum "Si O2"
_cell_formula_units_Z 60
_cell_length_a 19.699782
_cell_length_b 11.343969
_cell_length_c 13.567881
_cell_angle_alpha 90.000000
_cell_angle_beta 90.000000
_cell_angle_gamma 90.000000
_cell_volume 3032.064790
_symmetry_space_group_name_H-M "F M M 2"
_symmetry_group_IT_number 42
_symmetry_cell_setting 'orthorhombic'
loop_
_space_group_symop_operation_xyz
x,y,z
-x,-y,z
-x,y,z
x,-y,z
x,1/2+y,1/2+z
-x,1/2-y,1/2+z
-x,1/2+y,1/2+z
x,1/2-y,1/2+z
1/2+x,y,1/2+z
1/2-x,-y,1/2+z
1/2-x,y,1/2+z
1/2+x,-y,1/2+z
1/2+x,1/2+y,z
1/2-x,1/2-y,z
1/2-x,1/2+y,z
1/2+x,1/2-y,z
loop_
_atom_site_type_symbol
_atom_site_label
_atom_site_fract_x
_atom_site_fract_y
_atom_site_fract_z
Si Si1 0.500000 0.870639 0.826241
Si Si2 0.115611 0.804766 0.823932
Si Si3 0.750000 0.750000 0.428058
Si Si4 0.228144 0.000000 0.040972
Si Si5 0.077535 0.000000 0.985546
Si Si6 0.000000 0.000000 0.523091
Si Si7 0.865454 0.000000 0.660833
O O1 0.435810 0.796510 0.797091
O O2 0.500000 0.000000 0.782716
O O3 0.500000 0.891357 0.945384
O O4 0.183728 0.745372 0.861538
O O5 0.086547 0.887372 0.912243
O O6 0.127001 0.887592 0.730971
O O7 0.757640 0.625337 0.485546
O O8 0.145433 0.000000 0.054760
O O9 0.288711 0.000000 0.120265
O O10 0.000000 0.000000 0.024953
O O11 0.070243 0.000000 0.585168
#
# Coordination Sequence:
#
# PCOD9369138 Si02
#       7
#     8  16   8   8   8   4   8
#     4  10  21  36  61  94 122 168 216 264 310 404
#     4  10  20  36  63  93 125 167 222 263 325 395
#     4  10  22  40  64  92 126 182 224 270 312 412
#     4  10  22  39  64  99 130 168 229 279 335 385
#     4   9  17  35  63  93 122 170 218 263 310 402
#     4  10  22  34  60  94 132 164 210 276 324 388
#     4  11  22  39  63 100 129 172 214 289 340 382
#
# _framework density 19.788495000000001
#
# number of rings (size 3 to 8) (size 9 to 14) (size 15 to 20)
#    0.400    1.600    1.333    3.200    3.733    1.067 
#    0.000    0.000    2.933    0.000   41.600    0.000 
#    4.000    0.000    0.000    0.000    0.000    0.000 
#
# Total GULP energy -83570.554624 kJ/mol
# GULP energy per Si atom -5571.370308 kJ/mol
# Density = 1.974346 g / cm^3
# Si number density = 19.788495 Si / 1000 Ang^3
#
#
#
# Elastic Constant Matrix: (Units=GPa)
#
#
# Indices 1 2 3 4 5 6 
#
# 1 207.7769 79.2467 52.9515 0.0000 0.0000 0.0000
# 2 79.2467 144.7625 22.6343 0.0000 0.0000 0.0000
# 3 52.9515 22.6343 52.4459 0.0000 0.0000 0.0000
# 4 0.0000 0.0000 0.0000 1.4541 0.0000 0.0000
# 5 0.0000 0.0000 0.0000 0.0000 72.9606 0.0000
# 6 0.0000 0.0000 0.0000 0.0000 0.0000 22.2398
#
#
#
# Elastic Compliance Matrix: (Units=1/GPa)
#
#
# Indices 1 2 3 4 5 6 
#
# 1 0.007648 -0.003195 -0.006343 0.000000 0.000000 0.000000
# 2 -0.003195 0.008742 -0.000547 0.000000 0.000000 0.000000
# 3 -0.006343 -0.000547 0.025707 0.000000 0.000000 0.000000
# 4 0.000000 0.000000 0.000000 0.687696 0.000000 0.000000
# 5 0.000000 0.000000 0.000000 0.000000 0.013706 0.000000
# 6 0.000000 0.000000 0.000000 0.000000 0.000000 0.044964
#
#
# Mechanical properties :
#
#
# Convention : Reuss Voigt Hill
#
# Bulk Modulus (GPa) = 45.60437 79.40558 62.50498
# Shear Modulus (GPa) = 6.12788 36.00777 21.06782
#
# Velocity S-wave (km/s) = 1.76165 4.27034 3.26644
# Velocity P-wave (km/s) = 5.21860 8.03297 6.77357
#
# Compressibility (1/GPa) = 0.02192772
#
# Stress axis : x y z
#
# Youngs Moduli (GPa) = 130.75622 114.38494 38.89946
#
# Poissons Ratio (x) = 0.36545 0.24673
# Poissons Ratio (y) = 0.41775 0.02129
# Poissons Ratio (z) = 0.82935 0.06260
#
# Static dielectric constant tensor:
#      x y z
#    x 1.676570 0.000000 0.000000 
#    y 0.000000 1.731110 0.000000 
#    z 0.000000 0.000000 1.694650 
# 
# From -- ./inp_files/12571.got.cif
#   From: 2010.05.17/outbox.cif.g08.bks.cpg/sg42_7_cif.got.tgz:12571.got - 2010.06.03 19:03:34.
