data_PCOD9369396
_publ_section_title
;
Structure prediction by ZEFSAII (Michael W. Deem and Ramdas Pophale) SiO2 
 PCOD9369396
Probable space group: F M M 2
;
_chemical_formula_sum "Si O2"
_cell_formula_units_Z 112
_cell_length_a 11.047349
_cell_length_b 14.697132
_cell_length_c 33.134656
_cell_angle_alpha 90.000000
_cell_angle_beta 90.000000
_cell_angle_gamma 90.000000
_cell_volume 5379.886768
_symmetry_space_group_name_H-M "F M M 2"
_symmetry_group_IT_number 42
_symmetry_cell_setting 'orthorhombic'
loop_
_space_group_symop_operation_xyz
x,y,z
-x,-y,z
-x,y,z
x,-y,z
x,1/2+y,1/2+z
-x,1/2-y,1/2+z
-x,1/2+y,1/2+z
x,1/2-y,1/2+z
1/2+x,y,1/2+z
1/2-x,-y,1/2+z
1/2-x,y,1/2+z
1/2+x,-y,1/2+z
1/2+x,1/2+y,z
1/2-x,1/2-y,z
1/2-x,1/2+y,z
1/2+x,1/2-y,z
loop_
_atom_site_type_symbol
_atom_site_label
_atom_site_fract_x
_atom_site_fract_y
_atom_site_fract_z
Si Si1 0.632091 0.391535 0.571880
Si Si2 0.134876 0.889494 0.298773
Si Si3 0.634876 0.389494 0.022314
Si Si4 0.868861 0.351402 0.429175
Si Si5 0.634121 0.313923 0.660543
Si Si6 0.368861 0.351402 0.391912
Si Si7 0.367909 0.608465 0.749207
O O1 0.500000 0.356377 0.557390
O O2 0.630641 0.500000 0.566391
O O3 0.751916 0.358240 0.549053
O O4 0.640231 0.370983 0.619368
O O5 0.144055 0.849833 0.343733
O O6 0.248084 0.858240 0.272034
O O7 0.000000 0.867878 0.282409
O O8 0.140133 0.000000 0.302396
O O9 0.500000 0.367877 0.038678
O O10 0.640133 0.500000 0.018692
O O11 0.644056 0.349834 0.977354
O O12 0.750000 0.396181 0.410543
O O13 0.872788 0.250000 0.410544
O O14 0.000000 0.393700 0.420127
O O15 0.500000 0.268439 0.660543
O O16 0.750000 0.250000 0.660543
O O17 0.640230 0.370982 0.701719
O O18 0.500000 0.393700 0.400960
O O19 0.500000 0.643623 0.763698
O O20 0.369359 0.500000 0.754696
#
# Coordination Sequence:
#
# PCOD9369396 Si02
#       7
#    16  16  16  16  16  16  16
#     4   9  18  35  59  83 107 140 182 225 268 314
#     4   9  18  33  53  78 106 135 172 221 271 317
#     4   9  18  33  53  78 106 135 172 221 271 317
#     4   9  18  33  50  70  99 134 172 212 261 318
#     4  10  21  37  55  81 115 148 182 220 262 314
#     4   9  18  33  50  70  99 134 172 212 261 318
#     4   9  18  35  59  83 107 140 182 225 268 314
#
# _framework density 20.818283000000001
#
# number of rings (size 3 to 8) (size 9 to 14) (size 15 to 20)
#    0.000    2.857    0.000    0.429    0.000    4.571 
#    5.143    0.000    0.000    4.286    0.000    0.000 
#    0.000    0.000    0.000    0.000    0.000    0.000 
#
# Total GULP energy -156104.967689 kJ/mol
# GULP energy per Si atom -5575.177417 kJ/mol
# Density = 2.077090 g / cm^3
# Si number density = 20.818283 Si / 1000 Ang^3
#
#
#
# Elastic Constant Matrix: (Units=GPa)
#
#
# Indices 1 2 3 4 5 6 
#
# 1 270.9207 23.4280 102.2250 0.0000 0.0000 0.0000
# 2 23.4280 66.6378 14.5804 0.0000 0.0000 0.0000
# 3 102.2250 14.5804 90.9946 0.0000 0.0000 0.0000
# 4 0.0000 0.0000 0.0000 29.6996 0.0000 0.0000
# 5 0.0000 0.0000 0.0000 0.0000 62.0952 0.0000
# 6 0.0000 0.0000 0.0000 0.0000 0.0000 -6.9083
#
#
#
# Elastic Compliance Matrix: (Units=1/GPa)
#
#
# Indices 1 2 3 4 5 6 
#
# 1 0.006439 -0.000706 -0.007120 0.000000 0.000000 0.000000
# 2 -0.000706 0.015629 -0.001711 0.000000 0.000000 0.000000
# 3 -0.007120 -0.001711 0.019263 0.000000 0.000000 0.000000
# 4 0.000000 0.000000 0.000000 0.033670 0.000000 0.000000
# 5 0.000000 0.000000 0.000000 0.000000 0.016104 0.000000
# 6 0.000000 0.000000 0.000000 0.000000 0.000000 -0.144753
#
#
# Mechanical properties :
#
#
# Convention : Reuss Voigt Hill
#
# Bulk Modulus (GPa) = 44.93215 78.77999 61.85607
# Shear Modulus (GPa) = -184.14198 36.19862 -73.97168
#
# Velocity S-wave (km/s) = -9.41510 4.17440 -5.96735
# Velocity P-wave (km/s) = 9.82661 7.82036 4.20738
#
# Compressibility (1/GPa) = 0.02225578
#
# Stress axis : x y z
#
# Youngs Moduli (GPa) = 155.30672 63.98329 51.91262
#
# Poissons Ratio (x) = 0.04516 0.36964
# Poissons Ratio (y) = 0.10961 0.08884
# Poissons Ratio (z) = 1.10585 0.10950
#
# Static dielectric constant tensor:
#      x y z
#    x 1.828790 0.000000 0.000000 
#    y 0.000000 1.724800 0.000000 
#    z 0.000000 0.000000 1.696400 
# 
# From -- ./inp_files/34179.got.cif
#   From: 2010.05.17/outbox.cif.g08.bks.cpg/sg42_18_cif.got.tgz:34179.got - 2010.06.03 19:03:34.
