data_PCOD9369078
_publ_section_title
;
Structure prediction by ZEFSAII (Michael W. Deem and Ramdas Pophale) SiO2 
 PCOD9369078
Probable space group: F M M 2
;
_chemical_formula_sum "Si O2"
_cell_formula_units_Z 112
_cell_length_a 13.397821
_cell_length_b 13.397818
_cell_length_c 31.378437
_cell_angle_alpha 90.000000
_cell_angle_beta 90.000000
_cell_angle_gamma 90.000000
_cell_volume 5632.478623
_symmetry_space_group_name_H-M "F M M 2"
_symmetry_group_IT_number 42
_symmetry_cell_setting 'orthorhombic'
loop_
_space_group_symop_operation_xyz
x,y,z
-x,-y,z
-x,y,z
x,-y,z
x,1/2+y,1/2+z
-x,1/2-y,1/2+z
-x,1/2+y,1/2+z
x,1/2-y,1/2+z
1/2+x,y,1/2+z
1/2-x,-y,1/2+z
1/2-x,y,1/2+z
1/2+x,-y,1/2+z
1/2+x,1/2+y,z
1/2-x,1/2-y,z
1/2-x,1/2+y,z
1/2+x,1/2-y,z
loop_
_atom_site_type_symbol
_atom_site_label
_atom_site_fract_x
_atom_site_fract_y
_atom_site_fract_z
Si Si1 0.888450 0.818354 0.400140
Si Si2 0.311823 0.385613 0.039930
Si Si3 0.882636 0.617364 0.632700
Si Si4 0.318354 0.888450 0.365260
Si Si5 0.186015 0.611731 0.263926
Si Si6 0.388269 0.186015 0.001474
Si Si7 0.385613 0.811823 0.725469
O O1 0.798257 0.874767 0.377170
O O2 0.874766 0.701744 0.388229
O O3 0.876280 0.828642 0.450908
O O4 0.000000 0.851210 0.388206
O O5 0.345990 0.500000 0.034201
O O6 0.323855 0.359228 0.089720
O O7 0.370750 0.302538 0.012996
O O8 0.197670 0.373829 0.025527
O O9 0.867939 0.500000 0.642432
O O10 0.859228 0.676146 0.675680
O O11 0.000000 0.632059 0.622967
O O12 0.328642 0.876280 0.314491
O O13 0.351210 0.000000 0.377194
O O14 0.156772 0.500000 0.251719
O O15 0.302538 0.629250 0.252403
O O16 0.126171 0.697670 0.239872
O O17 0.500000 0.156772 0.013680
O O18 0.500000 0.845990 0.731199
#
# Coordination Sequence:
#
# PCOD9369078 Si02
#       7
#    16  16  16  16  16  16  16
#     4  10  21  37  55  78 110 145 183 226 270 320
#     4  10  20  36  58  79 106 146 181 217 271 325
#     4   9  18  33  56  86 112 138 182 230 266 314
#     4  10  21  37  55  78 110 145 183 226 270 320
#     4  10  22  36  53  83 114 139 179 230 272 319
#     4  10  22  36  53  83 114 139 179 230 272 319
#     4  10  20  36  58  79 106 146 181 217 271 325
#
# _framework density 19.884674
#
# number of rings (size 3 to 8) (size 9 to 14) (size 15 to 20)
#    0.000    2.143    0.000    4.286    0.000    9.714 
#    0.000    5.714    0.000    0.000    0.000    8.000 
#    0.000    0.000    0.000    0.000    0.000    0.000 
#
# Total GULP energy -156370.094321 kJ/mol
# GULP energy per Si atom -5584.646226 kJ/mol
# Density = 1.983942 g / cm^3
# Si number density = 19.884674 Si / 1000 Ang^3
#
#
#
# Elastic Constant Matrix: (Units=GPa)
#
#
# Indices 1 2 3 4 5 6 
#
# 1 56.3515 -16.2984 18.0475 0.0000 0.0000 0.0000
# 2 -16.2984 56.3526 18.0472 0.0000 0.0000 0.0000
# 3 18.0475 18.0472 65.8164 0.0000 0.0000 0.0000
# 4 0.0000 0.0000 0.0000 34.3533 0.0000 0.0000
# 5 0.0000 0.0000 0.0000 0.0000 34.3539 0.0000
# 6 0.0000 0.0000 0.0000 0.0000 0.0000 5.2959
#
#
#
# Elastic Compliance Matrix: (Units=1/GPa)
#
#
# Indices 1 2 3 4 5 6 
#
# 1 0.023463 0.009698 -0.009093 0.000000 0.000000 0.000000
# 2 0.009698 0.023462 -0.009093 0.000000 0.000000 0.000000
# 3 -0.009093 -0.009093 0.020180 0.000000 0.000000 0.000000
# 4 0.000000 0.000000 0.000000 0.029109 0.000000 0.000000
# 5 0.000000 0.000000 0.000000 0.000000 0.029109 0.000000
# 6 0.000000 0.000000 0.000000 0.000000 0.000000 0.188827
#
#
# Mechanical properties :
#
#
# Convention : Reuss Voigt Hill
#
# Bulk Modulus (GPa) = 19.94804 24.23479 22.09141
# Shear Modulus (GPa) = 14.37459 25.38223 19.87841
#
# Velocity S-wave (km/s) = 2.69159 3.57665 3.16521
# Velocity P-wave (km/s) = 4.43996 5.41024 4.94893
#
# Compressibility (1/GPa) = 0.05013024
#
# Stress axis : x y z
#
# Youngs Moduli (GPa) = 42.62040 42.62152 49.55287
#
# Poissons Ratio (x) = -0.41335 0.45059
# Poissons Ratio (y) = -0.41334 0.45057
# Poissons Ratio (z) = 0.38755 0.38755
#
# Static dielectric constant tensor:
#      x y z
#    x 1.704350 0.000000 0.000000 
#    y 0.000000 1.704350 0.000000 
#    z 0.000000 0.000000 1.664980 
# 
# From -- ./inp_files/34352.got.cif
#   From: 2010.05.17/outbox.cif.g08.bks.cpg/sg42_18_cif.got.tgz:34352.got - 2010.06.03 19:03:34.
