data_PCOD9369472
_publ_section_title
;
Structure prediction by ZEFSAII (Michael W. Deem and Ramdas Pophale) SiO2 
 PCOD9369472
Probable space group: F M M 2
;
_chemical_formula_sum "Si O2"
_cell_formula_units_Z 96
_cell_length_a 16.436692
_cell_length_b 25.819546
_cell_length_c 11.402749
_cell_angle_alpha 90.000000
_cell_angle_beta 90.000000
_cell_angle_gamma 90.000000
_cell_volume 4839.188989
_symmetry_space_group_name_H-M "F M M 2"
_symmetry_group_IT_number 42
_symmetry_cell_setting 'orthorhombic'
loop_
_space_group_symop_operation_xyz
x,y,z
-x,-y,z
-x,y,z
x,-y,z
x,1/2+y,1/2+z
-x,1/2-y,1/2+z
-x,1/2+y,1/2+z
x,1/2-y,1/2+z
1/2+x,y,1/2+z
1/2-x,-y,1/2+z
1/2-x,y,1/2+z
1/2+x,-y,1/2+z
1/2+x,1/2+y,z
1/2-x,1/2-y,z
1/2-x,1/2+y,z
1/2+x,1/2-y,z
loop_
_atom_site_type_symbol
_atom_site_label
_atom_site_fract_x
_atom_site_fract_y
_atom_site_fract_z
Si Si1 0.910492 0.414324 0.699840
Si Si2 0.092565 0.179899 0.028971
Si Si3 0.731058 0.559022 0.635107
Si Si4 0.849055 0.126100 0.431566
Si Si5 0.693216 0.350512 0.808655
Si Si6 0.404851 0.791260 0.114050
O O1 0.907904 0.357529 0.640596
O O2 0.829032 0.440732 0.650558
O O3 0.900291 0.406996 0.839056
O O4 0.000000 0.436388 0.672282
O O5 0.140565 0.152211 0.925723
O O6 0.000000 0.187532 0.988818
O O7 0.124352 0.236261 0.063993
O O8 0.702151 0.500000 0.637882
O O9 0.701938 0.588210 0.517477
O O10 0.696762 0.594386 0.741429
O O11 0.784863 0.158380 0.352714
O O12 0.898258 0.165344 0.512955
O O13 0.653409 0.310390 0.718204
O O14 0.500000 0.786377 0.150780
#
# Coordination Sequence:
#
# PCOD9369472 Si02
#       6
#    16  16  16  16  16  16
#     4  10  21  39  60  87 121 153 197 248 298 360
#     4  10  21  38  60  88 124 163 198 243 300 360
#     4  10  22  42  65  87 117 159 205 254 314 362
#     4  10  21  39  59  92 119 157 198 254 297 355
#     4  10  21  40  59  91 123 158 203 251 300 354
#     4  10  22  38  60  86 121 167 201 237 295 362
#
# _framework density 19.838035000000001
#
# number of rings (size 3 to 8) (size 9 to 14) (size 15 to 20)
#    0.000    2.000    1.667    1.000    2.333    3.667 
#    3.000    0.000    0.000   17.500    0.000    0.000 
#    0.000    0.000    0.000    0.000    0.000    0.000 
#
# Total GULP energy -133896.587384 kJ/mol
# GULP energy per Si atom -5579.024474 kJ/mol
# Density = 1.979288 g / cm^3
# Si number density = 19.838035 Si / 1000 Ang^3
#
#
#
# Elastic Constant Matrix: (Units=GPa)
#
#
# Indices 1 2 3 4 5 6 
#
# 1 84.5216 36.4692 41.1141 0.0000 0.0000 0.0000
# 2 36.4692 100.8089 35.4331 0.0000 0.0000 0.0000
# 3 41.1141 35.4331 97.1896 0.0000 0.0000 0.0000
# 4 0.0000 0.0000 0.0000 7.6231 0.0000 0.0000
# 5 0.0000 0.0000 0.0000 0.0000 23.9239 0.0000
# 6 0.0000 0.0000 0.0000 0.0000 0.0000 8.0825
#
#
#
# Elastic Compliance Matrix: (Units=1/GPa)
#
#
# Indices 1 2 3 4 5 6 
#
# 1 0.016160 -0.003950 -0.005396 0.000000 0.000000 0.000000
# 2 -0.003950 0.012343 -0.002829 0.000000 0.000000 0.000000
# 3 -0.005396 -0.002829 0.013603 0.000000 0.000000 0.000000
# 4 0.000000 0.000000 0.000000 0.131180 0.000000 0.000000
# 5 0.000000 0.000000 0.000000 0.000000 0.041799 0.000000
# 6 0.000000 0.000000 0.000000 0.000000 0.000000 0.123724
#
#
# Mechanical properties :
#
#
# Convention : Reuss Voigt Hill
#
# Bulk Modulus (GPa) = 56.31715 56.50589 56.41152
# Shear Modulus (GPa) = 13.54723 19.22615 16.38669
#
# Velocity S-wave (km/s) = 2.61605 3.11650 2.87718
# Velocity P-wave (km/s) = 6.12985 6.44171 6.28771
#
# Compressibility (1/GPa) = 0.01775658
#
# Stress axis : x y z
#
# Youngs Moduli (GPa) = 61.87951 81.01758 73.51055
#
# Poissons Ratio (x) = 0.31998 0.39670
# Poissons Ratio (y) = 0.24439 0.20798
# Poissons Ratio (z) = 0.33393 0.22922
#
# Static dielectric constant tensor:
#      x y z
#    x 1.793370 0.000000 0.000000 
#    y 0.000000 1.673410 0.000000 
#    z 0.000000 0.000000 1.696460 
# 
# From -- ./inp_files/8810.got.cif
#   From: 2010.05.17/outbox.cif.g08.bks.cpg/sg42_5_cif.got.tgz:8810.got - 2010.06.03 19:03:34.
