data_PCOD9369891
_publ_section_title
;
Structure prediction by ZEFSAII (Michael W. Deem and Ramdas Pophale) SiO2 
 PCOD9369891
Probable space group: F M M 2
;
_chemical_formula_sum "Si O2"
_cell_formula_units_Z 88
_cell_length_a 14.603609
_cell_length_b 19.642212
_cell_length_c 13.769449
_cell_angle_alpha 90.000000
_cell_angle_beta 90.000000
_cell_angle_gamma 90.000000
_cell_volume 3949.727670
_symmetry_space_group_name_H-M "F M M 2"
_symmetry_group_IT_number 42
_symmetry_cell_setting 'orthorhombic'
loop_
_space_group_symop_operation_xyz
x,y,z
-x,-y,z
-x,y,z
x,-y,z
x,1/2+y,1/2+z
-x,1/2-y,1/2+z
-x,1/2+y,1/2+z
x,1/2-y,1/2+z
1/2+x,y,1/2+z
1/2-x,-y,1/2+z
1/2-x,y,1/2+z
1/2+x,-y,1/2+z
1/2+x,1/2+y,z
1/2-x,1/2-y,z
1/2-x,1/2+y,z
1/2+x,1/2-y,z
loop_
_atom_site_type_symbol
_atom_site_label
_atom_site_fract_x
_atom_site_fract_y
_atom_site_fract_z
Si Si1 0.603208 0.277435 0.836520
Si Si2 0.267775 0.500000 0.249283
Si Si3 0.641197 0.753152 0.120297
Si Si4 0.291664 0.900400 0.414992
Si Si5 0.599628 0.354116 0.448195
Si Si6 0.894409 0.406439 0.610619
O O1 0.500000 0.297726 0.866261
O O2 0.615847 0.285921 0.722732
O O3 0.676029 0.323409 0.892300
O O4 0.611706 0.197188 0.857867
O O5 0.213119 0.558339 0.315214
O O6 0.327208 0.440951 0.189202
O O7 0.750000 0.750000 0.109709
O O8 0.608404 0.675635 0.116806
O O9 0.602500 0.801425 0.037010
O O10 0.186862 0.902182 0.453089
O O11 0.356415 0.923822 0.502792
O O12 0.500000 0.387883 0.442424
O O13 0.000000 0.426347 0.624418
#
# Coordination Sequence:
#
# PCOD9369891 Si02
#       6
#    16   8  16  16  16  16
#     4  11  22  38  65 105 141 176 226 288 360 430
#     4  12  29  46  67  96 134 188 251 294 341 404
#     4  12  21  39  69 105 144 177 221 285 362 433
#     4  12  25  46  69  99 141 187 239 296 356 416
#     4  11  22  39  66 103 140 173 216 282 358 427
#     4  12  25  47  75 104 140 192 248 296 349 431
#
# _framework density 22.280017000000001
#
# number of rings (size 3 to 8) (size 9 to 14) (size 15 to 20)
#    0.000    0.364    3.636    6.818    0.000    2.909 
#    0.000    1.364    0.000    2.182    0.000    0.000 
#    0.000    0.000    0.000    0.000    0.000    0.000 
#
# Total GULP energy -122523.385579 kJ/mol
# GULP energy per Si atom -5569.244799 kJ/mol
# Density = 2.222931 g / cm^3
# Si number density = 22.280017 Si / 1000 Ang^3
#
#
#
# Elastic Constant Matrix: (Units=GPa)
#
#
# Indices 1 2 3 4 5 6 
#
# 1 122.1060 -7.1238 4.6971 0.0000 0.0000 0.0000
# 2 -7.1238 45.1454 -8.4765 0.0000 0.0000 0.0000
# 3 4.6971 -8.4765 84.8957 0.0000 0.0000 0.0000
# 4 0.0000 0.0000 0.0000 73.3635 0.0000 0.0000
# 5 0.0000 0.0000 0.0000 0.0000 19.0136 0.0000
# 6 0.0000 0.0000 0.0000 0.0000 0.0000 2.5580
#
#
#
# Elastic Compliance Matrix: (Units=1/GPa)
#
#
# Indices 1 2 3 4 5 6 
#
# 1 0.008275 0.001243 -0.000334 0.000000 0.000000 0.000000
# 2 0.001243 0.022761 0.002204 0.000000 0.000000 0.000000
# 3 -0.000334 0.002204 0.012018 0.000000 0.000000 0.000000
# 4 0.000000 0.000000 0.000000 0.013631 0.000000 0.000000
# 5 0.000000 0.000000 0.000000 0.000000 0.052594 0.000000
# 6 0.000000 0.000000 0.000000 0.000000 0.000000 0.390935
#
#
# Mechanical properties :
#
#
# Convention : Reuss Voigt Hill
#
# Bulk Modulus (GPa) = 20.29239 25.59342 22.94291
# Shear Modulus (GPa) = 9.79599 36.52370 23.15985
#
# Velocity S-wave (km/s) = 2.09912 4.05322 3.22761
# Velocity P-wave (km/s) = 3.87334 5.78074 4.92035
#
# Compressibility (1/GPa) = 0.04927955
#
# Stress axis : x y z
#
# Youngs Moduli (GPa) = 120.84642 43.93561 83.21083
#
# Poissons Ratio (x) = -0.05462 0.02777
# Poissons Ratio (y) = -0.15022 -0.18338
# Poissons Ratio (z) = 0.04033 -0.09682
#
# Static dielectric constant tensor:
#      x y z
#    x 1.855160 0.000000 0.000000 
#    y 0.000000 1.839240 0.000000 
#    z 0.000000 0.000000 1.823560 
# 
# From -- ./inp_files/13906.got.cif
#   From: 2010.05.17/outbox.cif.g08.bks.cpg/sg42_7_cif.got.tgz:13906.got - 2010.06.03 19:03:34.
