data_PCOD9369049
_publ_section_title
;
Structure prediction by ZEFSAII (Michael W. Deem and Ramdas Pophale) SiO2 
 PCOD9369049
Probable space group: F M M 2
;
_chemical_formula_sum "Si O2"
_cell_formula_units_Z 116
_cell_length_a 8.708157
_cell_length_b 30.950956
_cell_length_c 25.519016
_cell_angle_alpha 90.000000
_cell_angle_beta 90.000000
_cell_angle_gamma 90.000000
_cell_volume 6878.032798
_symmetry_space_group_name_H-M "F M M 2"
_symmetry_group_IT_number 42
_symmetry_cell_setting 'orthorhombic'
loop_
_space_group_symop_operation_xyz
x,y,z
-x,-y,z
-x,y,z
x,-y,z
x,1/2+y,1/2+z
-x,1/2-y,1/2+z
-x,1/2+y,1/2+z
x,1/2-y,1/2+z
1/2+x,y,1/2+z
1/2-x,-y,1/2+z
1/2-x,y,1/2+z
1/2+x,-y,1/2+z
1/2+x,1/2+y,z
1/2-x,1/2-y,z
1/2-x,1/2+y,z
1/2+x,1/2-y,z
loop_
_atom_site_type_symbol
_atom_site_label
_atom_site_fract_x
_atom_site_fract_y
_atom_site_fract_z
Si Si1 0.684769 0.702365 0.443200
Si Si2 0.815768 0.297829 0.062990
Si Si3 0.171351 0.426462 0.712780
Si Si4 0.683125 0.795595 0.267095
Si Si5 0.000000 0.500000 0.661577
Si Si6 0.315761 0.361424 0.350936
Si Si7 0.317422 0.451305 0.820441
Si Si8 0.815817 0.334903 0.666011
O O1 0.500000 0.705423 0.440959
O O2 0.750000 0.750000 0.431273
O O3 0.727086 0.690753 0.503092
O O4 0.734304 0.666223 0.401732
O O5 0.750000 0.250000 0.072357
O O6 0.745209 0.327436 0.107878
O O7 0.000000 0.297377 0.067037
O O8 0.275553 0.443876 0.759322
O O9 0.225112 0.382506 0.686902
O O10 0.000000 0.418280 0.737485
O O11 0.132097 0.462213 0.669502
O O12 0.500000 0.795186 0.269800
O O13 0.750000 0.750000 0.286886
O O14 0.749230 0.835094 0.301345
O O15 0.739700 0.802511 0.207617
O O16 0.500000 0.360735 0.348592
O O17 0.257882 0.410668 0.349923
O O18 0.500000 0.449419 0.827357
O O19 0.264164 0.500000 0.834835
O O20 0.000000 0.330055 0.667386
#
# Coordination Sequence:
#
# PCOD9369049 Si02
#       8
#    16  16  16  16   4  16  16  16
#     4   9  20  37  57  79 103 137 180 223 267 315
#     4  10  20  36  55  76 105 139 179 225 266 311
#     4   9  17  31  52  72 102 135 174 211 260 313
#     4  12  24  36  50  73 109 149 179 213 262 318
#     4   8  16  32  54  76  96 144 170 224 260 316
#     4  11  22  36  55  79 107 139 180 222 267 324
#     4  11  21  33  51  79 109 140 176 220 270 321
#     4  11  21  33  51  79 106 140 178 218 259 318
#
# _framework density 16.865288
#
# number of rings (size 3 to 8) (size 9 to 14) (size 15 to 20)
#    0.414    1.241    2.069    3.724    0.000    4.138 
#    0.000    0.000    0.000    0.000    1.793    0.000 
#    0.000    0.000    0.000    0.000    0.000    0.000 
#
# Total GULP energy -161471.409067 kJ/mol
# GULP energy per Si atom -5567.979623 kJ/mol
# Density = 1.682690 g / cm^3
# Si number density = 16.865288 Si / 1000 Ang^3
#
#
#
# Elastic Constant Matrix: (Units=GPa)
#
#
# Indices 1 2 3 4 5 6 
#
# 1 60.8863 37.8301 28.2529 0.0000 0.0000 0.0000
# 2 37.8301 135.1118 54.0214 0.0000 0.0000 0.0000
# 3 28.2529 54.0214 78.9664 0.0000 0.0000 0.0000
# 4 0.0000 0.0000 0.0000 15.8916 0.0000 0.0000
# 5 0.0000 0.0000 0.0000 0.0000 -38.9593 0.0000
# 6 0.0000 0.0000 0.0000 0.0000 0.0000 26.0897
#
#
#
# Elastic Compliance Matrix: (Units=1/GPa)
#
#
# Indices 1 2 3 4 5 6 
#
# 1 0.021146 -0.003986 -0.004839 0.000000 0.000000 0.000000
# 2 -0.003986 0.010939 -0.006058 0.000000 0.000000 0.000000
# 3 -0.004839 -0.006058 0.018539 0.000000 0.000000 0.000000
# 4 0.000000 0.000000 0.000000 0.062926 0.000000 0.000000
# 5 0.000000 0.000000 0.000000 0.000000 -0.025668 0.000000
# 6 0.000000 0.000000 0.000000 0.000000 0.000000 0.038329
#
#
# Mechanical properties :
#
#
# Convention : Reuss Voigt Hill
#
# Bulk Modulus (GPa) = 47.93994 57.24148 52.59071
# Shear Modulus (GPa) = 30.68805 10.92839 20.80822
#
# Velocity S-wave (km/s) = 4.27030 2.54831 3.51635
# Velocity P-wave (km/s) = 7.26642 6.53243 6.90918
#
# Compressibility (1/GPa) = 0.02085943
#
# Stress axis : x y z
#
# Youngs Moduli (GPa) = 47.29027 91.41367 53.94074
#
# Poissons Ratio (x) = 0.36437 0.26101
# Poissons Ratio (y) = 0.18850 0.32675
# Poissons Ratio (z) = 0.22883 0.55374
#
# Static dielectric constant tensor:
#      x y z
#    x 1.667230 0.000000 0.000000 
#    y 0.000000 1.582710 0.000000 
#    z 0.000000 0.000000 1.574190 
# 
# From -- ./inp_files/28466.got.cif
#   From: 2010.05.17/outbox.cif.g08.bks.cpg/sg42_15_cif.got.tgz:28466.got - 2010.06.03 19:03:34.
