data_PCOD9369130
_publ_section_title
;
Structure prediction by ZEFSAII (Michael W. Deem and Ramdas Pophale) SiO2 
 PCOD9369130
Probable space group: F M M 2
;
_chemical_formula_sum "Si O2"
_cell_formula_units_Z 112
_cell_length_a 15.159150
_cell_length_b 15.008147
_cell_length_c 22.576838
_cell_angle_alpha 90.000000
_cell_angle_beta 90.000000
_cell_angle_gamma 90.000000
_cell_volume 5136.473382
_symmetry_space_group_name_H-M "F M M 2"
_symmetry_group_IT_number 42
_symmetry_cell_setting 'orthorhombic'
loop_
_space_group_symop_operation_xyz
x,y,z
-x,-y,z
-x,y,z
x,-y,z
x,1/2+y,1/2+z
-x,1/2-y,1/2+z
-x,1/2+y,1/2+z
x,1/2-y,1/2+z
1/2+x,y,1/2+z
1/2-x,-y,1/2+z
1/2-x,y,1/2+z
1/2+x,-y,1/2+z
1/2+x,1/2+y,z
1/2-x,1/2-y,z
1/2-x,1/2+y,z
1/2+x,1/2-y,z
loop_
_atom_site_type_symbol
_atom_site_label
_atom_site_fract_x
_atom_site_fract_y
_atom_site_fract_z
Si Si1 0.398760 0.845499 0.120080
Si Si2 0.764086 0.856996 0.719664
Si Si3 0.654385 0.267413 0.916366
Si Si4 0.096523 0.898995 0.818568
Si Si5 0.895231 0.900043 0.013390
Si Si6 0.899476 0.366213 0.647333
Si Si7 0.605234 0.599217 0.488484
O O1 0.500000 0.878011 0.126361
O O2 0.329203 0.883588 0.166023
O O3 0.399699 0.740473 0.135662
O O4 0.368004 0.863818 0.053084
O O5 0.750000 0.750000 0.723725
O O6 0.818751 0.887150 0.776733
O O7 0.667888 0.890292 0.699418
O O8 0.750000 0.250000 0.890147
O O9 0.600420 0.324937 0.869516
O O10 0.658051 0.329429 0.974979
O O11 0.622034 0.171700 0.938098
O O12 0.000000 0.888898 0.787612
O O13 0.098960 0.000000 0.842477
O O14 0.872113 0.901012 0.082634
O O15 0.000000 0.874820 0.010080
O O16 0.885607 0.000000 0.989953
O O17 0.000000 0.393465 0.659597
O O18 0.500000 0.591762 0.492195
O O19 0.642561 0.500000 0.478263
#
# Coordination Sequence:
#
# PCOD9369130 Si02
#       7
#    16  16  16  16  16  16  16
#     4   9  17  32  55  86 130 177 217 262 320 385
#     4  10  21  37  62  94 131 173 218 270 322 389
#     4  12  25  40  63  91 130 171 212 276 330 390
#     4  11  25  46  70  94 124 173 232 283 333 388
#     4  10  20  36  61  92 127 173 222 265 317 382
#     4   9  18  33  57  92 136 178 214 260 324 394
#     4  10  21  37  60  92 129 168 210 261 329 398
#
# _framework density 21.804843999999999
#
# number of rings (size 3 to 8) (size 9 to 14) (size 15 to 20)
#    0.000    1.857    1.429    2.571    2.000    4.000 
#    0.000    1.429    0.000    0.000    0.000    0.000 
#    0.000    0.000    0.000    0.000    0.000    0.000 
#
# Total GULP energy -156327.209254 kJ/mol
# GULP energy per Si atom -5583.114616 kJ/mol
# Density = 2.175522 g / cm^3
# Si number density = 21.804844 Si / 1000 Ang^3
#
#
#
# Elastic Constant Matrix: (Units=GPa)
#
#
# Indices 1 2 3 4 5 6 
#
# 1 95.6454 36.4886 45.2493 0.0000 0.0000 0.0000
# 2 36.4886 103.6255 36.8913 0.0000 0.0000 0.0000
# 3 45.2493 36.8913 90.9566 0.0000 0.0000 0.0000
# 4 0.0000 0.0000 0.0000 -16.4339 0.0000 0.0000
# 5 0.0000 0.0000 0.0000 0.0000 29.7437 0.0000
# 6 0.0000 0.0000 0.0000 0.0000 0.0000 8.1750
#
#
#
# Elastic Compliance Matrix: (Units=1/GPa)
#
#
# Indices 1 2 3 4 5 6 
#
# 1 0.014404 -0.002946 -0.005971 0.000000 0.000000 0.000000
# 2 -0.002946 0.011881 -0.003353 0.000000 0.000000 0.000000
# 3 -0.005971 -0.003353 0.015325 0.000000 0.000000 0.000000
# 4 0.000000 0.000000 0.000000 -0.060850 0.000000 0.000000
# 5 0.000000 0.000000 0.000000 0.000000 0.033621 0.000000
# 6 0.000000 0.000000 0.000000 0.000000 0.000000 0.122324
#
#
# Mechanical properties :
#
#
# Convention : Reuss Voigt Hill
#
# Bulk Modulus (GPa) = 58.58433 58.60955 58.59694
# Shear Modulus (GPa) = 29.95173 15.73684 22.84428
#
# Velocity S-wave (km/s) = 3.71027 2.68939 3.24028
# Velocity P-wave (km/s) = 6.72909 6.04824 6.39773
#
# Compressibility (1/GPa) = 0.01706941
#
# Stress axis : x y z
#
# Youngs Moduli (GPa) = 69.42498 84.16535 65.25436
#
# Poissons Ratio (x) = 0.24798 0.38962
# Poissons Ratio (y) = 0.20455 0.21881
# Poissons Ratio (z) = 0.41452 0.28223
#
# Static dielectric constant tensor:
#      x y z
#    x 1.813240 0.000000 0.000000 
#    y 0.000000 1.851920 0.000000 
#    z 0.000000 0.000000 1.771380 
# 
# From -- ./inp_files/29518.got.cif
#   From: 2010.05.17/outbox.cif.g08.bks.cpg/sg42_15_cif.got.tgz:29518.got - 2010.06.03 19:03:34.
