data_PCOD9369053
_publ_section_title
;
Structure prediction by ZEFSAII (Michael W. Deem and Ramdas Pophale) SiO2 
 PCOD9369053
Probable space group: F M M 2
;
_chemical_formula_sum "Si O2"
_cell_formula_units_Z 96
_cell_length_a 26.245825
_cell_length_b 8.630207
_cell_length_c 24.125864
_cell_angle_alpha 90.000000
_cell_angle_beta 90.000000
_cell_angle_gamma 90.000000
_cell_volume 5464.674728
_symmetry_space_group_name_H-M "F M M 2"
_symmetry_group_IT_number 42
_symmetry_cell_setting 'orthorhombic'
loop_
_space_group_symop_operation_xyz
x,y,z
-x,-y,z
-x,y,z
x,-y,z
x,1/2+y,1/2+z
-x,1/2-y,1/2+z
-x,1/2+y,1/2+z
x,1/2-y,1/2+z
1/2+x,y,1/2+z
1/2-x,-y,1/2+z
1/2-x,y,1/2+z
1/2+x,-y,1/2+z
1/2+x,1/2+y,z
1/2-x,1/2-y,z
1/2-x,1/2+y,z
1/2+x,1/2-y,z
loop_
_atom_site_type_symbol
_atom_site_label
_atom_site_fract_x
_atom_site_fract_y
_atom_site_fract_z
Si Si1 0.694420 0.813173 0.458780
Si Si2 0.305554 0.813136 0.586646
Si Si3 0.500000 0.314396 0.583424
Si Si4 0.059758 0.187190 0.274077
Si Si5 0.405016 0.187531 0.652186
Si Si6 0.097012 0.813996 0.888807
Si Si7 0.500000 0.185979 0.954562
O O1 0.750000 0.750000 0.443597
O O2 0.683752 0.765531 0.522712
O O3 0.649467 0.762113 0.417953
O O4 0.696110 0.000000 0.457946
O O5 0.250000 0.750000 0.601914
O O6 0.350953 0.761838 0.626931
O O7 0.303830 0.000000 0.587682
O O8 0.500000 0.500000 0.586523
O O9 0.450361 0.249623 0.614037
O O10 0.500000 0.268584 0.518988
O O11 0.083976 0.235001 0.215413
O O12 0.089151 0.255079 0.326500
O O13 0.000000 0.233623 0.275959
O O14 0.061000 0.000000 0.277185
O O15 0.406606 0.000000 0.650652
O O16 0.049783 0.750680 0.924315
O O17 0.095688 0.000000 0.889435
O O18 0.500000 0.000000 0.950347
#
# Coordination Sequence:
#
# PCOD9369053 Si02
#       7
#    16  16   8  16  16  16   8
#     4   9  19  35  55  81 108 138 177 220 270 323
#     4   9  18  34  57  81 107 139 177 220 267 321
#     4  11  23  34  51  82 113 138 172 225 276 317
#     4  10  20  36  56  78 107 147 187 220 266 325
#     4  10  20  37  58  78 106 147 185 217 264 328
#     4  11  22  36  56  81 107 140 184 229 270 315
#     4  11  23  36  51  78 113 144 174 215 274 333
#
# _framework density 17.567375999999999
#
# number of rings (size 3 to 8) (size 9 to 14) (size 15 to 20)
#    0.000    2.000    1.667    2.000    0.000    5.333 
#    0.000    4.167    0.000    4.000    0.000    0.000 
#    0.000    0.000    0.000    0.000    0.000    0.000 
#
# Total GULP energy -133998.360809 kJ/mol
# GULP energy per Si atom -5583.265034 kJ/mol
# Density = 1.752739 g / cm^3
# Si number density = 17.567376 Si / 1000 Ang^3
#
#
#
# Elastic Constant Matrix: (Units=GPa)
#
#
# Indices 1 2 3 4 5 6 
#
# 1 170.1212 28.1097 107.7915 0.0000 0.0000 0.0000
# 2 28.1097 11.5231 34.1454 0.0000 0.0000 0.0000
# 3 107.7915 34.1454 163.8964 0.0000 0.0000 0.0000
# 4 0.0000 0.0000 0.0000 25.4124 0.0000 0.0000
# 5 0.0000 0.0000 0.0000 0.0000 12.2235 0.0000
# 6 0.0000 0.0000 0.0000 0.0000 0.0000 30.3590
#
#
#
# Elastic Compliance Matrix: (Units=1/GPa)
#
#
# Indices 1 2 3 4 5 6 
#
# 1 0.010872 -0.013938 -0.004246 0.000000 0.000000 0.000000
# 2 -0.013938 0.244656 -0.041804 0.000000 0.000000 0.000000
# 3 -0.004246 -0.041804 0.017603 0.000000 0.000000 0.000000
# 4 0.000000 0.000000 0.000000 0.039351 0.000000 0.000000
# 5 0.000000 0.000000 0.000000 0.000000 0.081810 0.000000
# 6 0.000000 0.000000 0.000000 0.000000 0.000000 0.032939
#
#
# Mechanical properties :
#
#
# Convention : Reuss Voigt Hill
#
# Bulk Modulus (GPa) = 6.52933 76.18155 41.35544
# Shear Modulus (GPa) = 8.35759 25.29858 16.82808
#
# Velocity S-wave (km/s) = 2.18352 3.79897 3.09838
# Velocity P-wave (km/s) = 3.17519 7.91848 6.03259
#
# Compressibility (1/GPa) = 0.15315518
#
# Stress axis : x y z
#
# Youngs Moduli (GPa) = 91.98158 4.08737 56.80720
#
# Poissons Ratio (x) = 0.05697 0.24123
# Poissons Ratio (y) = 1.28202 2.37476
# Poissons Ratio (z) = 0.39059 0.17087
#
# Static dielectric constant tensor:
#      x y z
#    x 1.570150 0.000000 0.000000 
#    y 0.000000 1.598650 0.000000 
#    z 0.000000 0.000000 1.588770 
# 
# From -- ./inp_files/28086.got.cif
#   From: 2010.05.17/outbox.cif.g08.bks.cpg/sg42_15_cif.got.tgz:28086.got - 2010.06.03 19:03:34.
