data_PCOD9369962
_publ_section_title
;
Structure prediction by ZEFSAII (Michael W. Deem and Ramdas Pophale) SiO2 
 PCOD9369962
Probable space group: F M M 2
;
_chemical_formula_sum "Si O2"
_cell_formula_units_Z 72
_cell_length_a 9.492570
_cell_length_b 14.886488
_cell_length_c 23.866970
_cell_angle_alpha 90.000000
_cell_angle_beta 90.000000
_cell_angle_gamma 90.000000
_cell_volume 3372.666099
_symmetry_space_group_name_H-M "F M M 2"
_symmetry_group_IT_number 42
_symmetry_cell_setting 'orthorhombic'
loop_
_space_group_symop_operation_xyz
x,y,z
-x,-y,z
-x,y,z
x,-y,z
x,1/2+y,1/2+z
-x,1/2-y,1/2+z
-x,1/2+y,1/2+z
x,1/2-y,1/2+z
1/2+x,y,1/2+z
1/2-x,-y,1/2+z
1/2-x,y,1/2+z
1/2+x,-y,1/2+z
1/2+x,1/2+y,z
1/2-x,1/2-y,z
1/2-x,1/2+y,z
1/2+x,1/2-y,z
loop_
_atom_site_type_symbol
_atom_site_label
_atom_site_fract_x
_atom_site_fract_y
_atom_site_fract_z
Si Si1 0.250000 0.250000 0.883940
Si Si2 0.833439 0.398087 0.794411
Si Si3 0.154076 0.901855 0.965765
Si Si4 0.832104 0.341337 0.062990
Si Si5 0.160926 0.392371 0.672135
O O1 0.184688 0.324516 0.842511
O O2 0.163808 0.183660 0.924980
O O3 0.779504 0.500000 0.806521
O O4 0.781236 0.365206 0.733394
O O5 0.000000 0.407054 0.785817
O O6 0.000000 0.897435 0.994469
O O7 0.160497 0.000000 0.936692
O O8 0.277372 0.900549 0.011343
O O9 0.500000 0.165401 0.064360
O O10 0.750000 0.250000 0.050300
O O11 0.766900 0.370226 0.122317
O O12 0.150184 0.500000 0.674654
O O13 0.000000 0.357280 0.662077
#
# Coordination Sequence:
#
# PCOD9369962 Si02
#       5
#     8  16  16  16  16
#     4  12  22  38  66  96 126 174 226 274 310 376
#     4   9  20  39  63  93 130 173 218 263 317 378
#     4  11  25  44  65  93 133 176 216 268 331 385
#     4  12  25  41  65  96 129 166 212 268 327 390
#     4   9  19  39  65  93 130 172 210 258 322 385
#
# _framework density 21.348095000000001
#
# number of rings (size 3 to 8) (size 9 to 14) (size 15 to 20)
#    0.000    1.556    1.111    5.333    1.556    4.444 
#    0.000    1.111    0.000    2.667    0.000    0.000 
#    0.000    0.000    0.000    0.000    0.000    0.000 
#
# Total GULP energy -100309.823141 kJ/mol
# GULP energy per Si atom -5572.767952 kJ/mol
# Density = 2.129951 g / cm^3
# Si number density = 21.348095 Si / 1000 Ang^3
#
#
#
# Elastic Constant Matrix: (Units=GPa)
#
#
# Indices 1 2 3 4 5 6 
#
# 1 129.7169 32.2361 60.2036 0.0000 0.0000 0.0000
# 2 32.2361 132.8075 45.0117 0.0000 0.0000 0.0000
# 3 60.2036 45.0117 127.7498 0.0000 0.0000 0.0000
# 4 0.0000 0.0000 0.0000 31.6653 0.0000 0.0000
# 5 0.0000 0.0000 0.0000 0.0000 25.4736 0.0000
# 6 0.0000 0.0000 0.0000 0.0000 0.0000 18.8013
#
#
#
# Elastic Compliance Matrix: (Units=1/GPa)
#
#
# Indices 1 2 3 4 5 6 
#
# 1 0.009969 -0.000940 -0.004367 0.000000 0.000000 0.000000
# 2 -0.000940 0.008639 -0.002601 0.000000 0.000000 0.000000
# 3 -0.004367 -0.002601 0.010802 0.000000 0.000000 0.000000
# 4 0.000000 0.000000 0.000000 0.031580 0.000000 0.000000
# 5 0.000000 0.000000 0.000000 0.000000 0.039256 0.000000
# 6 0.000000 0.000000 0.000000 0.000000 0.000000 0.053188
#
#
# Mechanical properties :
#
#
# Convention : Reuss Voigt Hill
#
# Bulk Modulus (GPa) = 73.55552 73.90856 73.73204
# Shear Modulus (GPa) = 28.77144 32.04289 30.40717
#
# Velocity S-wave (km/s) = 3.67513 3.87844 3.77815
# Velocity P-wave (km/s) = 7.24837 7.39948 7.32431
#
# Compressibility (1/GPa) = 0.01359517
#
# Stress axis : x y z
#
# Youngs Moduli (GPa) = 100.30611 115.74878 92.57232
#
# Poissons Ratio (x) = 0.10877 0.40428
# Poissons Ratio (y) = 0.09426 0.24080
# Poissons Ratio (z) = 0.43805 0.30108
#
# Static dielectric constant tensor:
#      x y z
#    x 1.751090 0.000000 0.000000 
#    y 0.000000 1.640980 0.000000 
#    z 0.000000 0.000000 1.859930 
# 
# From -- ./inp_files/24215.got.cif
#   From: 2010.05.17/outbox.cif.g08.bks.cpg/sg42_13_cif.got.tgz:24215.got - 2010.06.03 19:03:34.
