data_PCOD9369787
_publ_section_title
;
Structure prediction by ZEFSAII (Michael W. Deem and Ramdas Pophale) SiO2 
 PCOD9369787
Probable space group: F M M 2
;
_chemical_formula_sum "Si O2"
_cell_formula_units_Z 88
_cell_length_a 31.370958
_cell_length_b 16.822046
_cell_length_c 8.192956
_cell_angle_alpha 90.000000
_cell_angle_beta 90.000000
_cell_angle_gamma 90.000000
_cell_volume 4323.617042
_symmetry_space_group_name_H-M "F M M 2"
_symmetry_group_IT_number 42
_symmetry_cell_setting 'orthorhombic'
loop_
_space_group_symop_operation_xyz
x,y,z
-x,-y,z
-x,y,z
x,-y,z
x,1/2+y,1/2+z
-x,1/2-y,1/2+z
-x,1/2+y,1/2+z
x,1/2-y,1/2+z
1/2+x,y,1/2+z
1/2-x,-y,1/2+z
1/2-x,y,1/2+z
1/2+x,-y,1/2+z
1/2+x,1/2+y,z
1/2-x,1/2-y,z
1/2-x,1/2+y,z
1/2+x,1/2-y,z
loop_
_atom_site_type_symbol
_atom_site_label
_atom_site_fract_x
_atom_site_fract_y
_atom_site_fract_z
Si Si1 0.604333 0.500000 0.491771
Si Si2 0.807454 0.408132 0.259312
Si Si3 0.641512 0.348501 0.306178
Si Si4 0.450619 0.586369 0.758025
Si Si5 0.883949 0.818623 0.939525
Si Si6 0.230509 0.338112 0.929954
O O1 0.629189 0.430127 0.390746
O O2 0.576679 0.431709 0.596005
O O3 0.818000 0.500000 0.221322
O O4 0.848327 0.367084 0.337453
O O5 0.791936 0.363180 0.097693
O O6 0.768127 0.398346 0.383445
O O7 0.625603 0.273479 0.411189
O O8 0.692906 0.340590 0.296590
O O9 0.621531 0.340975 0.127431
O O10 0.500000 0.601990 0.721042
O O11 0.448302 0.500000 0.848512
O O12 0.428696 0.653458 0.865649
O O13 0.250000 0.250000 0.939116
#
# Coordination Sequence:
#
# PCOD9369787 Si02
#       6
#     8  16  16  16  16  16
#     4  10  23  44  74 104 140 182 232 298 353 438
#     4  12  26  41  65  96 139 188 244 298 359 416
#     4  12  27  43  70 104 145 193 247 290 358 428
#     4   9  21  46  76 105 139 178 225 292 367 431
#     4  12  25  46  69 102 142 194 237 295 362 437
#     4  12  25  44  63  95 140 194 245 306 349 413
#
# _framework density 20.353328000000001
#
# number of rings (size 3 to 8) (size 9 to 14) (size 15 to 20)
#    0.545    0.182    1.818    6.000    7.636    0.000 
#    0.000    6.364    0.000    0.000    0.000    0.000 
#    0.000    0.000    0.000    0.000    0.000    0.000 
#
# Total GULP energy -122553.328494 kJ/mol
# GULP energy per Si atom -5570.605841 kJ/mol
# Density = 2.030700 g / cm^3
# Si number density = 20.353328 Si / 1000 Ang^3
#
#
#
# Elastic Constant Matrix: (Units=GPa)
#
#
# Indices 1 2 3 4 5 6 
#
# 1 80.5774 52.5683 35.6282 0.0000 0.0000 0.0000
# 2 52.5683 163.9660 33.3854 0.0000 0.0000 0.0000
# 3 35.6282 33.3854 74.9441 0.0000 0.0000 0.0000
# 4 0.0000 0.0000 0.0000 33.2752 0.0000 0.0000
# 5 0.0000 0.0000 0.0000 0.0000 11.7834 0.0000
# 6 0.0000 0.0000 0.0000 0.0000 0.0000 29.0223
#
#
#
# Elastic Compliance Matrix: (Units=1/GPa)
#
#
# Indices 1 2 3 4 5 6 
#
# 1 0.018312 -0.004507 -0.006698 0.000000 0.000000 0.000000
# 2 -0.004507 0.007817 -0.001339 0.000000 0.000000 0.000000
# 3 -0.006698 -0.001339 0.017124 0.000000 0.000000 0.000000
# 4 0.000000 0.000000 0.000000 0.030052 0.000000 0.000000
# 5 0.000000 0.000000 0.000000 0.000000 0.084865 0.000000
# 6 0.000000 0.000000 0.000000 0.000000 0.000000 0.034456
#
#
# Mechanical properties :
#
#
# Convention : Reuss Voigt Hill
#
# Bulk Modulus (GPa) = 55.05327 62.51681 58.78504
# Shear Modulus (GPa) = 22.34430 28.00989 25.17709
#
# Velocity S-wave (km/s) = 3.31693 3.71372 3.52092
# Velocity P-wave (km/s) = 6.46350 7.01223 6.74345
#
# Compressibility (1/GPa) = 0.01816422
#
# Stress axis : x y z
#
# Youngs Moduli (GPa) = 54.60752 127.93297 58.39753
#
# Poissons Ratio (x) = 0.57663 0.39114
# Poissons Ratio (y) = 0.24613 0.07821
# Poissons Ratio (z) = 0.36575 0.17134
#
# Static dielectric constant tensor:
#      x y z
#    x 1.737800 0.000000 0.000000 
#    y 0.000000 1.705780 0.000000 
#    z 0.000000 0.000000 1.739930 
# 
# From -- ./inp_files/5546.got.cif
#   From: 2010.05.17/outbox.cif.g08.bks.cpg/sg42_3_cif.got.tgz:5546.got - 2010.06.03 19:03:34.
