data_PCOD9369681
_publ_section_title
;
Structure prediction by ZEFSAII (Michael W. Deem and Ramdas Pophale) SiO2 
 PCOD9369681
Probable space group: F M M 2
;
_chemical_formula_sum "Si O2"
_cell_formula_units_Z 56
_cell_length_a 7.514412
_cell_length_b 14.965852
_cell_length_c 19.583407
_cell_angle_alpha 90.000000
_cell_angle_beta 90.000000
_cell_angle_gamma 90.000000
_cell_volume 2202.341684
_symmetry_space_group_name_H-M "F M M 2"
_symmetry_group_IT_number 42
_symmetry_cell_setting 'orthorhombic'
loop_
_space_group_symop_operation_xyz
x,y,z
-x,-y,z
-x,y,z
x,-y,z
x,1/2+y,1/2+z
-x,1/2-y,1/2+z
-x,1/2+y,1/2+z
x,1/2-y,1/2+z
1/2+x,y,1/2+z
1/2-x,-y,1/2+z
1/2-x,y,1/2+z
1/2+x,-y,1/2+z
1/2+x,1/2+y,z
1/2-x,1/2-y,z
1/2-x,1/2+y,z
1/2+x,1/2-y,z
loop_
_atom_site_type_symbol
_atom_site_label
_atom_site_fract_x
_atom_site_fract_y
_atom_site_fract_z
Si Si1 0.789814 0.854792 0.454580
Si Si2 0.500000 0.673358 0.695750
Si Si3 0.196766 0.602973 0.603747
Si Si4 0.291075 0.895850 0.800536
O O1 0.750000 0.750000 0.454440
O O2 0.700541 0.893368 0.521987
O O3 0.738730 0.889870 0.380092
O O4 0.000000 0.871904 0.461758
O O5 0.346183 0.663353 0.636101
O O6 0.342760 0.659231 0.754176
O O7 0.232731 0.500000 0.623785
O O8 0.000000 0.628482 0.629079
O O9 0.500000 0.868059 0.794373
O O10 0.279495 0.000000 0.780108
#
# Coordination Sequence:
#
# PCOD9369681 Si02
#       4
#    16   8  16  16
#     4  11  24  43  67  93 133 172 219 266 321 384
#     4  12  23  40  68  98 132 168 209 270 331 376
#     4  11  23  40  67 100 130 167 217 268 319 383
#     4  10  22  40  66  98 128 165 215 268 321 385
#
# _framework density 25.427481
#
# number of rings (size 3 to 8) (size 9 to 14) (size 15 to 20)
#    0.000    1.143    1.429    5.143    4.000    3.429 
#    0.000    1.429    0.000    0.000    0.000    0.000 
#    0.000    0.000    0.000    0.000    0.000    0.000 
#
# Total GULP energy -78033.034474 kJ/mol
# GULP energy per Si atom -5573.788177 kJ/mol
# Density = 2.536961 g / cm^3
# Si number density = 25.427481 Si / 1000 Ang^3
#
#
#
# Elastic Constant Matrix: (Units=GPa)
#
#
# Indices 1 2 3 4 5 6 
#
# 1 169.6152 32.1748 52.9477 0.0000 0.0000 0.0000
# 2 32.1748 92.7268 3.7044 0.0000 0.0000 0.0000
# 3 52.9477 3.7044 214.4565 0.0000 0.0000 0.0000
# 4 0.0000 0.0000 0.0000 -67.9527 0.0000 0.0000
# 5 0.0000 0.0000 0.0000 0.0000 58.2616 0.0000
# 6 0.0000 0.0000 0.0000 0.0000 0.0000 -0.5981
#
#
#
# Elastic Compliance Matrix: (Units=1/GPa)
#
#
# Indices 1 2 3 4 5 6 
#
# 1 0.006849 -0.002311 -0.001651 0.000000 0.000000 0.000000
# 2 -0.002311 0.011571 0.000371 0.000000 0.000000 0.000000
# 3 -0.001651 0.000371 0.005064 0.000000 0.000000 0.000000
# 4 0.000000 0.000000 0.000000 -0.014716 0.000000 0.000000
# 5 0.000000 0.000000 0.000000 0.000000 0.017164 0.000000
# 6 0.000000 0.000000 0.000000 0.000000 0.000000 -1.671987
#
#
# Mechanical properties :
#
#
# Convention : Reuss Voigt Hill
#
# Bulk Modulus (GPa) = 61.34023 72.71693 67.02858
# Shear Modulus (GPa) = -3.06103 23.80692 10.37294
#
# Velocity S-wave (km/s) = -1.09838 3.06317 2.02195
# Velocity P-wave (km/s) = 4.75051 6.41643 5.64526
#
# Compressibility (1/GPa) = 0.01630251
#
# Stress axis : x y z
#
# Youngs Moduli (GPa) = 145.99705 86.42043 197.46418
#
# Poissons Ratio (x) = 0.19969 0.32605
# Poissons Ratio (y) = 0.33735 -0.07318
# Poissons Ratio (z) = 0.24107 -0.03203
#
# Static dielectric constant tensor:
#      x y z
#    x 1.941030 0.000000 0.000000 
#    y 0.000000 2.077330 0.000000 
#    z 0.000000 0.000000 1.962220 
# 
# From -- ./inp_files/17734.got.cif
#   From: 2010.05.17/outbox.cif.g08.bks.cpg/sg42_9_cif.got.tgz:17734.got - 2010.06.03 19:03:34.
