data_PCOD9369263
_publ_section_title
;
Structure prediction by ZEFSAII (Michael W. Deem and Ramdas Pophale) SiO2 
 PCOD9369263
Probable space group: F M M 2
;
_chemical_formula_sum "Si O2"
_cell_formula_units_Z 64
_cell_length_a 13.359765
_cell_length_b 23.617435
_cell_length_c 8.551750
_cell_angle_alpha 90.000000
_cell_angle_beta 90.000000
_cell_angle_gamma 90.000000
_cell_volume 2698.277078
_symmetry_space_group_name_H-M "F M M 2"
_symmetry_group_IT_number 42
_symmetry_cell_setting 'orthorhombic'
loop_
_space_group_symop_operation_xyz
x,y,z
-x,-y,z
-x,y,z
x,-y,z
x,1/2+y,1/2+z
-x,1/2-y,1/2+z
-x,1/2+y,1/2+z
x,1/2-y,1/2+z
1/2+x,y,1/2+z
1/2-x,-y,1/2+z
1/2-x,y,1/2+z
1/2+x,-y,1/2+z
1/2+x,1/2+y,z
1/2-x,1/2-y,z
1/2-x,1/2+y,z
1/2+x,1/2-y,z
loop_
_atom_site_type_symbol
_atom_site_label
_atom_site_fract_x
_atom_site_fract_y
_atom_site_fract_z
Si Si1 0.379222 0.171373 0.947240
Si Si2 0.798637 0.564207 0.122432
Si Si3 0.618507 0.398590 0.957409
Si Si4 0.379214 0.716454 0.112144
O O1 0.500000 0.170198 0.946018
O O2 0.344228 0.190936 0.776292
O O3 0.343180 0.110873 0.005455
O O4 0.345469 0.221012 0.065486
O O5 0.827083 0.500000 0.084544
O O6 0.838040 0.579184 0.294326
O O7 0.679663 0.571372 0.096388
O O8 0.500000 0.408407 0.965306
O O9 0.636448 0.331228 0.979756
O O10 0.500000 0.721281 0.127202
#
# Coordination Sequence:
#
# PCOD9369263 Si02
#       4
#    16  16  16  16
#     4  10  20  38  67 104 145 183 231 294 350 416
#     4  12  26  43  68 101 137 188 243 281 341 426
#     4  11  25  47  72 101 141 183 232 297 353 406
#     4   9  19  38  67 102 138 180 230 289 359 419
#
# _framework density 23.718838000000002
#
# number of rings (size 3 to 8) (size 9 to 14) (size 15 to 20)
#    0.000    1.500    0.000    4.500    0.000    8.500 
#    0.000    7.500    0.000   15.000    0.000    0.000 
#    0.000    0.000    0.000    0.000    0.000    0.000 
#
# Total GULP energy -89629.498974 kJ/mol
# GULP energy per Si atom -5601.843686 kJ/mol
# Density = 2.366485 g / cm^3
# Si number density = 23.718838 Si / 1000 Ang^3
#
#
#
# Elastic Constant Matrix: (Units=GPa)
#
#
# Indices 1 2 3 4 5 6 
#
# 1 133.5088 56.0796 62.6383 0.0000 0.0000 0.0000
# 2 56.0796 231.9182 94.2752 0.0000 0.0000 0.0000
# 3 62.6383 94.2752 127.4500 0.0000 0.0000 0.0000
# 4 0.0000 0.0000 0.0000 30.3568 0.0000 0.0000
# 5 0.0000 0.0000 0.0000 0.0000 38.7957 0.0000
# 6 0.0000 0.0000 0.0000 0.0000 0.0000 21.7185
#
#
#
# Elastic Compliance Matrix: (Units=1/GPa)
#
#
# Indices 1 2 3 4 5 6 
#
# 1 0.009791 -0.000588 -0.004377 0.000000 0.000000 0.000000
# 2 -0.000588 0.006201 -0.004298 0.000000 0.000000 0.000000
# 3 -0.004377 -0.004298 0.013176 0.000000 0.000000 0.000000
# 4 0.000000 0.000000 0.000000 0.032942 0.000000 0.000000
# 5 0.000000 0.000000 0.000000 0.000000 0.025776 0.000000
# 6 0.000000 0.000000 0.000000 0.000000 0.000000 0.046044
#
#
# Mechanical properties :
#
#
# Convention : Reuss Voigt Hill
#
# Bulk Modulus (GPa) = 93.96306 102.09591 98.02949
# Shear Modulus (GPa) = 32.05068 36.83313 34.44191
#
# Velocity S-wave (km/s) = 3.67996 3.94497 3.81477
# Velocity P-wave (km/s) = 7.59984 7.99300 7.79890
#
# Compressibility (1/GPa) = 0.01064248
#
# Stress axis : x y z
#
# Youngs Moduli (GPa) = 102.13806 161.25789 75.89312
#
# Poissons Ratio (x) = 0.09487 0.33216
# Poissons Ratio (y) = 0.06009 0.32618
# Poissons Ratio (z) = 0.44702 0.69308
#
# Static dielectric constant tensor:
#      x y z
#    x 1.987140 0.000000 0.000000 
#    y 0.000000 1.861720 0.000000 
#    z 0.000000 0.000000 1.875470 
# 
# From -- ./inp_files/2679.got.cif
#   From: 2010.05.17/outbox.cif.g08.bks.cpg/sg42_2_cif.got.tgz:2679.got - 2010.06.03 19:03:34.
