data_PCOD9369553
_publ_section_title
;
Structure prediction by ZEFSAII (Michael W. Deem and Ramdas Pophale) SiO2 
 PCOD9369553
Probable space group: F M M 2
;
_chemical_formula_sum "Si O2"
_cell_formula_units_Z 96
_cell_length_a 18.152145
_cell_length_b 24.265742
_cell_length_c 12.153978
_cell_angle_alpha 90.000000
_cell_angle_beta 90.000000
_cell_angle_gamma 90.000000
_cell_volume 5353.526709
_symmetry_space_group_name_H-M "F M M 2"
_symmetry_group_IT_number 42
_symmetry_cell_setting 'orthorhombic'
loop_
_space_group_symop_operation_xyz
x,y,z
-x,-y,z
-x,y,z
x,-y,z
x,1/2+y,1/2+z
-x,1/2-y,1/2+z
-x,1/2+y,1/2+z
x,1/2-y,1/2+z
1/2+x,y,1/2+z
1/2-x,-y,1/2+z
1/2-x,y,1/2+z
1/2+x,-y,1/2+z
1/2+x,1/2+y,z
1/2-x,1/2-y,z
1/2-x,1/2+y,z
1/2+x,1/2-y,z
loop_
_atom_site_type_symbol
_atom_site_label
_atom_site_fract_x
_atom_site_fract_y
_atom_site_fract_z
Si Si1 0.291958 0.309421 0.776530
Si Si2 0.702670 0.500000 0.134473
Si Si3 0.162633 0.879312 0.353348
Si Si4 0.327070 0.785118 0.035176
Si Si5 0.785410 0.500000 0.892350
Si Si6 0.916477 0.687347 0.459867
Si Si7 0.582799 0.096130 0.648335
O O1 0.250000 0.250000 0.789366
O O2 0.234610 0.359084 0.786667
O O3 0.324940 0.308722 0.656249
O O4 0.355729 0.317204 0.865227
O O5 0.742306 0.500000 0.258981
O O6 0.647639 0.552039 0.137363
O O7 0.741471 0.500000 0.011825
O O8 0.163308 0.834639 0.450040
O O9 0.170994 0.941982 0.394024
O O10 0.096275 0.875480 0.266751
O O11 0.250000 0.750000 0.022342
O O12 0.393969 0.743351 0.020541
O O13 0.909701 0.639177 0.549315
O O14 0.000000 0.688439 0.418348
O O15 0.500000 0.072770 0.644534
#
# Coordination Sequence:
#
# PCOD9369553 Si02
#       7
#    16   8  16  16   8  16  16
#     4  11  21  36  58  81 113 154 191 237 296 351
#     4  10  21  40  62  90 121 156 194 254 301 350
#     4  11  21  38  59  86 116 150 192 247 292 347
#     4  11  22  36  57  81 112 155 191 234 300 348
#     4  10  24  34  60  92 118 146 204 246 296 344
#     4  11  22  36  55  84 118 150 195 241 286 358
#     4  10  22  38  60  87 117 153 196 241 295 353
#
# _framework density 17.932103999999999
#
# number of rings (size 3 to 8) (size 9 to 14) (size 15 to 20)
#    0.000    1.333    3.333    3.250    4.667    1.333 
#    0.000    0.000    0.000    0.000    0.000    1.167 
#    0.000    0.000    0.000    0.000    0.000    0.000 
#
# Total GULP energy -133660.138119 kJ/mol
# GULP energy per Si atom -5569.172422 kJ/mol
# Density = 1.789129 g / cm^3
# Si number density = 17.932104 Si / 1000 Ang^3
#
#
#
# Elastic Constant Matrix: (Units=GPa)
#
#
# Indices 1 2 3 4 5 6 
#
# 1 69.6242 24.0924 36.2810 0.0000 0.0000 0.0000
# 2 24.0924 70.2147 12.8487 0.0000 0.0000 0.0000
# 3 36.2810 12.8487 130.6826 0.0000 0.0000 0.0000
# 4 0.0000 0.0000 0.0000 21.7864 0.0000 0.0000
# 5 0.0000 0.0000 0.0000 0.0000 23.8212 0.0000
# 6 0.0000 0.0000 0.0000 0.0000 0.0000 19.7529
#
#
#
# Elastic Compliance Matrix: (Units=1/GPa)
#
#
# Indices 1 2 3 4 5 6 
#
# 1 0.018712 -0.005570 -0.004647 0.000000 0.000000 0.000000
# 2 -0.005570 0.016161 -0.000043 0.000000 0.000000 0.000000
# 3 -0.004647 -0.000043 0.008947 0.000000 0.000000 0.000000
# 4 0.000000 0.000000 0.000000 0.045900 0.000000 0.000000
# 5 0.000000 0.000000 0.000000 0.000000 0.041979 0.000000
# 6 0.000000 0.000000 0.000000 0.000000 0.000000 0.050626
#
#
# Mechanical properties :
#
#
# Convention : Reuss Voigt Hill
#
# Bulk Modulus (GPa) = 42.91909 46.32952 44.62431
# Shear Modulus (GPa) = 23.74042 26.22538 24.98290
#
# Velocity S-wave (km/s) = 3.64250 3.82839 3.73660
# Velocity P-wave (km/s) = 6.45574 6.74049 6.59965
#
# Compressibility (1/GPa) = 0.02329966
#
# Stress axis : x y z
#
# Youngs Moduli (GPa) = 53.44178 61.87714 111.77532
#
# Poissons Ratio (x) = 0.34466 0.51945
# Poissons Ratio (y) = 0.29768 0.00476
# Poissons Ratio (z) = 0.24836 0.00263
#
# Static dielectric constant tensor:
#      x y z
#    x 1.622500 0.000000 0.000000 
#    y 0.000000 1.685400 0.000000 
#    z 0.000000 0.000000 1.658300 
# 
# From -- ./inp_files/8845.got.cif
#   From: 2010.05.17/outbox.cif.g08.bks.cpg/sg42_5_cif.got.tgz:8845.got - 2010.06.03 19:03:34.
