data_PCOD9369872
_publ_section_title
;
Structure prediction by ZEFSAII (Michael W. Deem and Ramdas Pophale) SiO2 
 PCOD9369872
Probable space group: F M M 2
;
_chemical_formula_sum "Si O2"
_cell_formula_units_Z 72
_cell_length_a 22.779029
_cell_length_b 10.121376
_cell_length_c 16.816207
_cell_angle_alpha 90.000000
_cell_angle_beta 90.000000
_cell_angle_gamma 90.000000
_cell_volume 3877.062580
_symmetry_space_group_name_H-M "F M M 2"
_symmetry_group_IT_number 42
_symmetry_cell_setting 'orthorhombic'
loop_
_space_group_symop_operation_xyz
x,y,z
-x,-y,z
-x,y,z
x,-y,z
x,1/2+y,1/2+z
-x,1/2-y,1/2+z
-x,1/2+y,1/2+z
x,1/2-y,1/2+z
1/2+x,y,1/2+z
1/2-x,-y,1/2+z
1/2-x,y,1/2+z
1/2+x,-y,1/2+z
1/2+x,1/2+y,z
1/2-x,1/2-y,z
1/2-x,1/2+y,z
1/2+x,1/2-y,z
loop_
_atom_site_type_symbol
_atom_site_label
_atom_site_fract_x
_atom_site_fract_y
_atom_site_fract_z
Si Si1 0.566025 0.150998 0.947700
Si Si2 0.150280 0.224975 0.578062
Si Si3 0.181616 0.500000 0.655465
Si Si4 0.859878 0.500000 0.829661
Si Si5 0.721285 0.000000 0.369323
Si Si6 0.179101 0.500000 0.195094
Si Si7 0.250000 0.750000 0.465471
O O1 0.500000 0.192507 0.926780
O O2 0.607358 0.125630 0.870478
O O3 0.563408 0.000000 0.979785
O O4 0.594766 0.229671 0.019740
O O5 0.167411 0.368899 0.607415
O O6 0.149729 0.126708 0.652996
O O7 0.203030 0.176187 0.520852
O O8 0.141815 0.500000 0.734999
O O9 0.250911 0.500000 0.675688
O O10 0.791215 0.500000 0.850464
O O11 0.681120 0.000000 0.290729
O O12 0.715393 0.138134 0.416205
#
# Coordination Sequence:
#
# PCOD9369872 Si02
#       7
#    16  16   8   8   8   8   8
#     4   9  18  37  63  81 100 151 209 239 267 337
#     4  12  21  37  57  86 118 151 190 238 288 344
#     4  11  23  32  55  88 126 147 176 241 306 338
#     4   9  18  36  54  81 109 149 195 230 273 347
#     4  11  24  31  54  83 116 147 186 229 285 345
#     4  11  22  35  52  82 120 155 184 228 288 350
#     4  12  20  36  52  80 116 150 186 224 286 350
#
# _framework density 18.570761000000001
#
# number of rings (size 3 to 8) (size 9 to 14) (size 15 to 20)
#    0.667    0.667    5.556    1.333    6.222    0.000 
#    0.000    2.778    0.000    0.000    0.000    0.000 
#    0.000    0.000    0.000    0.000    0.000    0.000 
#
# Total GULP energy -100250.717492 kJ/mol
# GULP energy per Si atom -5569.484305 kJ/mol
# Density = 1.852849 g / cm^3
# Si number density = 18.570761 Si / 1000 Ang^3
#
#
#
# Elastic Constant Matrix: (Units=GPa)
#
#
# Indices 1 2 3 4 5 6 
#
# 1 59.3759 -15.6050 16.7680 0.0000 0.0000 0.0000
# 2 -15.6050 76.2100 24.8487 0.0000 0.0000 0.0000
# 3 16.7680 24.8487 107.5243 0.0000 0.0000 0.0000
# 4 0.0000 0.0000 0.0000 13.0151 0.0000 0.0000
# 5 0.0000 0.0000 0.0000 0.0000 21.5781 0.0000
# 6 0.0000 0.0000 0.0000 0.0000 0.0000 -165.8112
#
#
#
# Elastic Compliance Matrix: (Units=1/GPa)
#
#
# Indices 1 2 3 4 5 6 
#
# 1 0.019464 0.005381 -0.004279 0.000000 0.000000 0.000000
# 2 0.005381 0.015678 -0.004462 0.000000 0.000000 0.000000
# 3 -0.004279 -0.004462 0.010999 0.000000 0.000000 0.000000
# 4 0.000000 0.000000 0.000000 0.076834 0.000000 0.000000
# 5 0.000000 0.000000 0.000000 0.000000 0.046343 0.000000
# 6 0.000000 0.000000 0.000000 0.000000 0.000000 -0.006031
#
#
# Mechanical properties :
#
#
# Convention : Reuss Voigt Hill
#
# Bulk Modulus (GPa) = 25.36751 32.79261 29.08006
# Shear Modulus (GPa) = 27.30023 -11.77036 7.76493
#
# Velocity S-wave (km/s) = 3.83830 -2.52029 2.04703
# Velocity P-wave (km/s) = 5.77347 3.03766 4.61304
#
# Compressibility (1/GPa) = 0.03942051
#
# Stress axis : x y z
#
# Youngs Moduli (GPa) = 51.37595 63.78211 90.91954
#
# Poissons Ratio (x) = -0.34319 0.38903
# Poissons Ratio (y) = -0.27644 0.40571
# Poissons Ratio (z) = 0.21983 0.28462
#
# Static dielectric constant tensor:
#      x y z
#    x 1.663230 0.000000 0.000000 
#    y 0.000000 1.681770 0.000000 
#    z 0.000000 0.000000 1.670770 
# 
# From -- ./inp_files/16350.got.cif
#   From: 2010.05.17/outbox.cif.g08.bks.cpg/sg42_9_cif.got.tgz:16350.got - 2010.06.03 19:03:34.
