data_PCOD9369971
_publ_section_title
;
Structure prediction by ZEFSAII (Michael W. Deem and Ramdas Pophale) SiO2 
 PCOD9369971
Probable space group: F M M 2
;
_chemical_formula_sum "Si O2"
_cell_formula_units_Z 64
_cell_length_a 17.848139
_cell_length_b 20.914723
_cell_length_c 7.605071
_cell_angle_alpha 90.000000
_cell_angle_beta 90.000000
_cell_angle_gamma 90.000000
_cell_volume 2838.888461
_symmetry_space_group_name_H-M "F M M 2"
_symmetry_group_IT_number 42
_symmetry_cell_setting 'orthorhombic'
loop_
_space_group_symop_operation_xyz
x,y,z
-x,-y,z
-x,y,z
x,-y,z
x,1/2+y,1/2+z
-x,1/2-y,1/2+z
-x,1/2+y,1/2+z
x,1/2-y,1/2+z
1/2+x,y,1/2+z
1/2-x,-y,1/2+z
1/2-x,y,1/2+z
1/2+x,-y,1/2+z
1/2+x,1/2+y,z
1/2-x,1/2-y,z
1/2-x,1/2+y,z
1/2+x,1/2-y,z
loop_
_atom_site_type_symbol
_atom_site_label
_atom_site_fract_x
_atom_site_fract_y
_atom_site_fract_z
Si Si1 0.343389 0.866617 0.508730
Si Si2 0.913629 0.360892 0.859119
Si Si3 0.670383 0.500000 0.848723
Si Si4 0.346810 0.500000 0.432828
Si Si5 0.800232 0.813460 0.642397
O O1 0.398424 0.841019 0.657657
O O2 0.361546 0.937058 0.441503
O O3 0.261722 0.868093 0.602599
O O4 0.334301 0.824431 0.333937
O O5 0.886878 0.434905 0.870766
O O6 0.000000 0.355287 0.906004
O O7 0.861653 0.320922 0.991745
O O8 0.651191 0.500000 0.644097
O O9 0.760583 0.500000 0.870082
O O10 0.750000 0.750000 0.635926
#
# Coordination Sequence:
#
# PCOD9369971 Si02
#       5
#    16  16   8   8  16
#     4  12  23  43  75 109 142 192 253 305 365 436
#     4  12  27  46  71 113 158 196 243 313 388 445
#     4  12  20  39  74 113 142 195 258 308 349 442
#     4  12  21  41  70 111 157 197 242 308 376 450
#     4  12  25  45  78 105 140 196 258 303 355 443
#
# _framework density 22.544032999999999
#
# number of rings (size 3 to 8) (size 9 to 14) (size 15 to 20)
#    0.000    0.000    7.500    3.375    0.000    2.000 
#    0.000    1.250    0.000    0.000    0.000    0.000 
#    0.000    0.000    0.000    0.000    0.000    0.000 
#
# Total GULP energy -89671.711137 kJ/mol
# GULP energy per Si atom -5604.481946 kJ/mol
# Density = 2.249272 g / cm^3
# Si number density = 22.544033 Si / 1000 Ang^3
#
#
#
# Elastic Constant Matrix: (Units=GPa)
#
#
# Indices 1 2 3 4 5 6 
#
# 1 81.2941 28.1727 29.8382 0.0000 0.0000 0.0000
# 2 28.1727 118.9697 63.2730 -0.0001 0.0001 0.0000
# 3 29.8382 63.2730 175.8570 -0.0002 0.0002 0.0001
# 4 0.0000 -0.0001 -0.0002 34.6705 0.0001 0.0001
# 5 0.0000 0.0001 0.0002 0.0001 25.2224 -0.0001
# 6 0.0000 0.0000 0.0001 0.0001 -0.0001 8.8735
#
#
#
# Elastic Compliance Matrix: (Units=1/GPa)
#
#
# Indices 1 2 3 4 5 6 
#
# 1 0.013685 -0.002480 -0.001430 0.000000 0.000000 0.000000
# 2 -0.002480 0.010844 -0.003481 0.000000 0.000000 0.000000
# 3 -0.001430 -0.003481 0.007181 0.000000 0.000000 0.000000
# 4 0.000000 0.000000 0.000000 0.028843 0.000000 0.000000
# 5 0.000000 0.000000 0.000000 0.000000 0.039647 0.000000
# 6 0.000000 0.000000 0.000000 0.000000 0.000000 0.112695
#
#
# Mechanical properties :
#
#
# Convention : Reuss Voigt Hill
#
# Bulk Modulus (GPa) = 59.06976 68.74320 63.90648
# Shear Modulus (GPa) = 21.42974 30.74241 26.08607
#
# Velocity S-wave (km/s) = 3.08648 3.69678 3.40533
# Velocity P-wave (km/s) = 6.24185 6.98432 6.62349
#
# Compressibility (1/GPa) = 0.01692914
#
# Stress axis : x y z
#
# Youngs Moduli (GPa) = 73.07094 92.21566 139.24869
#
# Poissons Ratio (x) = 0.22874 0.19907
# Poissons Ratio (y) = 0.18125 0.48470
# Poissons Ratio (z) = 0.10446 0.32099
#
# Static dielectric constant tensor:
#      x y z
#    x 1.783670 0.000000 0.000000 
#    y 0.000000 1.911300 0.000000 
#    z 0.000000 0.000000 1.834530 
# 
# From -- ./inp_files/3336.got.cif
#   From: 2010.05.17/outbox.cif.g08.bks.cpg/sg42_2_cif.got.tgz:3336.got - 2010.06.03 19:03:34.
