data_PCOD9369674
_publ_section_title
;
Structure prediction by ZEFSAII (Michael W. Deem and Ramdas Pophale) SiO2 
 PCOD9369674
Probable space group: F M M 2
;
_chemical_formula_sum "Si O2"
_cell_formula_units_Z 88
_cell_length_a 7.492024
_cell_length_b 19.321940
_cell_length_c 25.118576
_cell_angle_alpha 90.000000
_cell_angle_beta 90.000000
_cell_angle_gamma 90.000000
_cell_volume 3636.176069
_symmetry_space_group_name_H-M "F M M 2"
_symmetry_group_IT_number 42
_symmetry_cell_setting 'orthorhombic'
loop_
_space_group_symop_operation_xyz
x,y,z
-x,-y,z
-x,y,z
x,-y,z
x,1/2+y,1/2+z
-x,1/2-y,1/2+z
-x,1/2+y,1/2+z
x,1/2-y,1/2+z
1/2+x,y,1/2+z
1/2-x,-y,1/2+z
1/2-x,y,1/2+z
1/2+x,-y,1/2+z
1/2+x,1/2+y,z
1/2-x,1/2-y,z
1/2-x,1/2+y,z
1/2+x,1/2-y,z
loop_
_atom_site_type_symbol
_atom_site_label
_atom_site_fract_x
_atom_site_fract_y
_atom_site_fract_z
Si Si1 0.750000 0.750000 0.522920
Si Si2 0.298657 0.000000 0.472464
Si Si3 0.718378 0.080292 0.829007
Si Si4 0.288231 0.845770 0.617727
Si Si5 0.212888 0.824972 0.235561
Si Si6 0.712490 0.500000 0.592470
Si Si7 0.295275 0.352446 0.434725
O O1 0.805488 0.807652 0.567890
O O2 0.808608 0.693529 0.477731
O O3 0.302745 0.000000 0.535377
O O4 0.202257 0.069130 0.455180
O O5 0.500000 0.000000 0.451059
O O6 0.500000 0.080005 0.830995
O O7 0.776217 0.112787 0.772900
O O8 0.774612 0.134423 0.875148
O O9 0.773732 0.000000 0.836533
O O10 0.500000 0.829418 0.610968
O O11 0.216735 0.823478 0.675297
O O12 0.267847 0.928202 0.618562
O O13 0.250000 0.750000 0.260469
O O14 0.000000 0.833552 0.230541
O O15 0.500000 0.500000 0.586077
O O16 0.500000 0.326068 0.433918
#
# Coordination Sequence:
#
# PCOD9369674 Si02
#       7
#     8   8  16  16  16   8  16
#     4  12  24  36  64  98 128 168 212 262 314 388
#     4  12  24  40  63  92 127 165 208 264 320 381
#     4   9  19  38  65  92 121 163 218 266 312 375
#     4  11  24  42  63  92 131 170 212 267 319 376
#     4  10  22  40  65  93 127 170 212 261 318 378
#     4  12  26  42  65  92 125 169 216 264 318 389
#     4  11  23  41  65  91 126 171 214 260 317 384
#
# _framework density 24.201250000000002
#
# number of rings (size 3 to 8) (size 9 to 14) (size 15 to 20)
#    0.000    1.273    3.636    2.182    2.545    2.182 
#    0.000    0.909    0.000    0.000    0.000    0.000 
#    0.000    0.000    0.000    0.000    0.000    0.000 
#
# Total GULP energy -122626.709076 kJ/mol
# GULP energy per Si atom -5573.941322 kJ/mol
# Density = 2.414617 g / cm^3
# Si number density = 24.201250 Si / 1000 Ang^3
#
#
#
# Elastic Constant Matrix: (Units=GPa)
#
#
# Indices 1 2 3 4 5 6 
#
# 1 108.4851 3.1295 16.2113 0.0000 0.0000 0.0000
# 2 3.1295 164.8028 68.7987 0.0000 0.0000 0.0000
# 3 16.2113 68.7987 170.4343 0.0000 0.0000 0.0000
# 4 0.0000 0.0000 0.0000 56.1267 0.0000 0.0000
# 5 0.0000 0.0000 0.0000 0.0000 -7.3945 0.0000
# 6 0.0000 0.0000 0.0000 0.0000 0.0000 3.5027
#
#
#
# Elastic Compliance Matrix: (Units=1/GPa)
#
#
# Indices 1 2 3 4 5 6 
#
# 1 0.009358 0.000233 -0.000984 0.000000 0.000000 0.000000
# 2 0.000233 0.007303 -0.002970 0.000000 0.000000 0.000000
# 3 -0.000984 -0.002970 0.007160 0.000000 0.000000 0.000000
# 4 0.000000 0.000000 0.000000 0.017817 0.000000 0.000000
# 5 0.000000 0.000000 0.000000 0.000000 -0.135236 0.000000
# 6 0.000000 0.000000 0.000000 0.000000 0.000000 0.285494
#
#
# Mechanical properties :
#
#
# Convention : Reuss Voigt Hill
#
# Bulk Modulus (GPa) = 61.05442 68.88903 64.97172
# Shear Modulus (GPa) = 24.41419 34.15249 29.28334
#
# Velocity S-wave (km/s) = 3.17961 3.76065 3.48227
# Velocity P-wave (km/s) = 6.22595 6.88357 6.56300
#
# Compressibility (1/GPa) = 0.01637883
#
# Stress axis : x y z
#
# Youngs Moduli (GPa) = 106.85800 136.92206 139.66466
#
# Poissons Ratio (x) = -0.03193 0.13747
# Poissons Ratio (y) = -0.02492 0.41485
# Poissons Ratio (z) = 0.10518 0.40670
#
# Static dielectric constant tensor:
#      x y z
#    x 2.059790 0.000000 0.000000 
#    y 0.000000 1.767240 0.000000 
#    z 0.000000 0.000000 1.938150 
# 
# From -- ./inp_files/27959.got.cif
#   From: 2010.05.17/outbox.cif.g08.bks.cpg/sg42_14_cif.got.tgz:27959.got - 2010.06.03 19:03:34.
