data_PCOD9369694
_publ_section_title
;
Structure prediction by ZEFSAII (Michael W. Deem and Ramdas Pophale) SiO2 
 PCOD9369694
Probable space group: F M M 2
;
_chemical_formula_sum "Si O2"
_cell_formula_units_Z 80
_cell_length_a 24.337276
_cell_length_b 18.241305
_cell_length_c 9.623148
_cell_angle_alpha 90.000000
_cell_angle_beta 90.000000
_cell_angle_gamma 90.000000
_cell_volume 4272.135682
_symmetry_space_group_name_H-M "F M M 2"
_symmetry_group_IT_number 42
_symmetry_cell_setting 'orthorhombic'
loop_
_space_group_symop_operation_xyz
x,y,z
-x,-y,z
-x,y,z
x,-y,z
x,1/2+y,1/2+z
-x,1/2-y,1/2+z
-x,1/2+y,1/2+z
x,1/2-y,1/2+z
1/2+x,y,1/2+z
1/2-x,-y,1/2+z
1/2-x,y,1/2+z
1/2+x,-y,1/2+z
1/2+x,1/2+y,z
1/2-x,1/2-y,z
1/2-x,1/2+y,z
1/2+x,1/2-y,z
loop_
_atom_site_type_symbol
_atom_site_label
_atom_site_fract_x
_atom_site_fract_y
_atom_site_fract_z
Si Si1 0.564626 0.087612 0.654720
Si Si2 0.349620 0.670691 0.330849
Si Si3 0.258738 0.415547 0.774045
Si Si4 0.659400 0.313477 0.647451
Si Si5 0.874672 0.915122 0.870512
O O1 0.500000 0.102904 0.650988
O O2 0.596293 0.131570 0.773054
O O3 0.593153 0.106989 0.507664
O O4 0.572207 0.000000 0.673529
O O5 0.299376 0.613533 0.322671
O O6 0.355862 0.697018 0.488625
O O7 0.335067 0.738618 0.231513
O O8 0.255723 0.500000 0.727963
O O9 0.284495 0.361122 0.659033
O O10 0.308092 0.411416 0.888766
O O11 0.616959 0.363579 0.736857
O O12 0.887958 0.000000 0.839335
#
# Coordination Sequence:
#
# PCOD9369694 Si02
#       5
#    16  16  16  16  16
#     4  10  22  41  65  92 123 162 206 253 304 363
#     4  12  23  38  60  88 125 166 204 254 306 365
#     4   9  21  36  60  91 122 156 197 249 308 369
#     4  10  23  38  57  90 121 159 202 250 313 358
#     4   8  18  38  61  86 119 154 198 246 300 365
#
# _framework density 18.725998000000001
#
# number of rings (size 3 to 8) (size 9 to 14) (size 15 to 20)
#    1.200    1.000    0.000    2.400    2.800    4.800 
#    0.000    5.000    0.000    2.400    0.000    0.000 
#    0.000    0.000    0.000    0.000    0.000    0.000 
#
# Total GULP energy -111445.334870 kJ/mol
# GULP energy per Si atom -5572.266743 kJ/mol
# Density = 1.868338 g / cm^3
# Si number density = 18.725998 Si / 1000 Ang^3
#
#
#
# Elastic Constant Matrix: (Units=GPa)
#
#
# Indices 1 2 3 4 5 6 
#
# 1 80.8114 46.4625 50.5338 0.0000 0.0000 0.0000
# 2 46.4625 86.1224 48.2529 0.0000 0.0000 0.0000
# 3 50.5338 48.2529 124.3725 0.0000 0.0000 0.0000
# 4 0.0000 0.0000 0.0000 26.2833 0.0000 0.0000
# 5 0.0000 0.0000 0.0000 0.0000 20.7558 0.0000
# 6 0.0000 0.0000 0.0000 0.0000 0.0000 9.0158
#
#
#
# Elastic Compliance Matrix: (Units=1/GPa)
#
#
# Indices 1 2 3 4 5 6 
#
# 1 0.020170 -0.008037 -0.005077 0.000000 0.000000 0.000000
# 2 -0.008037 0.018039 -0.003733 0.000000 0.000000 0.000000
# 3 -0.005077 -0.003733 0.011552 0.000000 0.000000 0.000000
# 4 0.000000 0.000000 0.000000 0.038047 0.000000 0.000000
# 5 0.000000 0.000000 0.000000 0.000000 0.048179 0.000000
# 6 0.000000 0.000000 0.000000 0.000000 0.000000 0.110917
#
#
# Mechanical properties :
#
#
# Convention : Reuss Voigt Hill
#
# Bulk Modulus (GPa) = 62.24274 64.64496 63.44385
# Shear Modulus (GPa) = 17.48532 20.94810 19.21671
#
# Velocity S-wave (km/s) = 3.05904 3.34827 3.20692
# Velocity P-wave (km/s) = 6.76667 7.03877 6.90406
#
# Compressibility (1/GPa) = 0.01606613
#
# Stress axis : x y z
#
# Youngs Moduli (GPa) = 49.57764 55.43580 86.56799
#
# Poissons Ratio (x) = 0.44554 0.43953
# Poissons Ratio (y) = 0.39846 0.32316
# Poissons Ratio (z) = 0.25172 0.20694
#
# Static dielectric constant tensor:
#      x y z
#    x 1.631160 0.000000 0.000000 
#    y 0.000000 1.665400 0.000000 
#    z 0.000000 0.000000 1.663860 
# 
# From -- ./inp_files/5109.got.cif
#   From: 2010.05.17/outbox.cif.g08.bks.cpg/sg42_3_cif.got.tgz:5109.got - 2010.06.03 19:03:34.
