data_PCOD9369807
_publ_section_title
;
Structure prediction by ZEFSAII (Michael W. Deem and Ramdas Pophale) SiO2 
 PCOD9369807
Probable space group: F M M 2
;
_chemical_formula_sum "Si O2"
_cell_formula_units_Z 116
_cell_length_a 15.344177
_cell_length_b 28.535669
_cell_length_c 12.163194
_cell_angle_alpha 90.000000
_cell_angle_beta 90.000000
_cell_angle_gamma 90.000000
_cell_volume 5325.731802
_symmetry_space_group_name_H-M "F M M 2"
_symmetry_group_IT_number 42
_symmetry_cell_setting 'orthorhombic'
loop_
_space_group_symop_operation_xyz
x,y,z
-x,-y,z
-x,y,z
x,-y,z
x,1/2+y,1/2+z
-x,1/2-y,1/2+z
-x,1/2+y,1/2+z
x,1/2-y,1/2+z
1/2+x,y,1/2+z
1/2-x,-y,1/2+z
1/2-x,y,1/2+z
1/2+x,-y,1/2+z
1/2+x,1/2+y,z
1/2-x,1/2-y,z
1/2-x,1/2+y,z
1/2+x,1/2-y,z
loop_
_atom_site_type_symbol
_atom_site_label
_atom_site_fract_x
_atom_site_fract_y
_atom_site_fract_z
Si Si1 0.500000 0.000000 0.795450
Si Si2 0.671947 0.212794 0.131713
Si Si3 0.233658 0.052579 0.588482
Si Si4 0.359859 0.424215 0.367885
Si Si5 0.314452 0.118644 0.268553
Si Si6 0.402096 0.177258 0.913946
Si Si7 0.903268 0.696116 0.675256
Si Si8 0.104986 0.385676 0.510353
O O1 0.423539 0.958840 0.804608
O O2 0.750000 0.250000 0.139077
O O3 0.661459 0.191845 0.011108
O O4 0.678293 0.170382 0.216904
O O5 0.594093 0.249406 0.147755
O O6 0.185733 0.051183 0.471092
O O7 0.170093 0.082519 0.668192
O O8 0.327654 0.077000 0.563817
O O9 0.245888 0.000000 0.631772
O O10 0.281501 0.400508 0.299718
O O11 0.408226 0.378544 0.413117
O O12 0.370560 0.116801 0.380705
O O13 0.500000 0.197187 0.928899
O O14 0.363405 0.192491 0.796495
O O15 0.871729 0.662836 0.575981
O O16 0.000000 0.677026 0.695377
O O17 0.000000 0.394984 0.520996
#
# Coordination Sequence:
#
# PCOD9369807 Si02
#       8
#     4  16  16  16  16  16  16  16
#     4  12  24  44  72 108 126 190 248 292 364 456
#     4  12  25  41  67 100 139 191 239 285 360 440
#     4  11  23  44  69 101 143 186 236 298 366 439
#     4  11  23  43  67  97 137 179 231 300 361 427
#     4  11  26  45  69 104 145 190 239 304 367 424
#     4  11  23  41  67  98 139 177 234 302 355 419
#     4  10  24  45  66  98 140 186 238 294 352 421
#     4  10  24  48  73 104 148 196 243 305 367 438
#
# _framework density 21.781044000000001
#
# number of rings (size 3 to 8) (size 9 to 14) (size 15 to 20)
#    0.000    1.103    2.759    2.897    4.828    2.483 
#    2.483    0.000    0.000    0.000    0.000    0.000 
#    0.000    0.000    0.000    0.000    0.000    0.000 
#
# Total GULP energy -161456.741103 kJ/mol
# GULP energy per Si atom -5567.473831 kJ/mol
# Density = 2.173147 g / cm^3
# Si number density = 21.781044 Si / 1000 Ang^3
#
#
#
# Elastic Constant Matrix: (Units=GPa)
#
#
# Indices 1 2 3 4 5 6 
#
# 1 82.8742 16.5568 21.8766 0.0000 0.0000 0.0000
# 2 16.5568 156.9281 40.3249 0.0000 0.0000 0.0000
# 3 21.8766 40.3249 113.4846 0.0000 0.0000 0.0000
# 4 0.0000 0.0000 0.0000 9.3914 0.0000 0.0000
# 5 0.0000 0.0000 0.0000 0.0000 13.0868 0.0000
# 6 0.0000 0.0000 0.0000 0.0000 0.0000 23.2310
#
#
#
# Elastic Compliance Matrix: (Units=1/GPa)
#
#
# Indices 1 2 3 4 5 6 
#
# 1 0.012801 -0.000788 -0.002188 0.000000 0.000000 0.000000
# 2 -0.000788 0.007061 -0.002357 0.000000 0.000000 0.000000
# 3 -0.002188 -0.002357 0.010071 0.000000 0.000000 0.000000
# 4 0.000000 0.000000 0.000000 0.106480 0.000000 0.000000
# 5 0.000000 0.000000 0.000000 0.000000 0.076413 0.000000
# 6 0.000000 0.000000 0.000000 0.000000 0.000000 0.043046
#
#
# Mechanical properties :
#
#
# Convention : Reuss Voigt Hill
#
# Bulk Modulus (GPa) = 51.90117 56.75592 54.32855
# Shear Modulus (GPa) = 18.31758 27.44375 22.88066
#
# Velocity S-wave (km/s) = 2.90312 3.55348 3.24463
# Velocity P-wave (km/s) = 5.92603 6.55365 6.24772
#
# Compressibility (1/GPa) = 0.01926739
#
# Stress axis : x y z
#
# Youngs Moduli (GPa) = 78.11606 141.61852 99.29482
#
# Poissons Ratio (x) = 0.11167 0.21721
# Poissons Ratio (y) = 0.06159 0.23405
# Poissons Ratio (z) = 0.17088 0.33381
#
# Static dielectric constant tensor:
#      x y z
#    x 2.076790 0.000000 0.000000 
#    y 0.000000 1.818530 0.000000 
#    z 0.000000 0.000000 1.834000 
# 
# From -- ./inp_files/9036.got.cif
#   From: 2010.05.17/outbox.cif.g08.bks.cpg/sg42_5_cif.got.tgz:9036.got - 2010.06.03 19:03:34.
