data_PCOD9369090
_publ_section_title
;
Structure prediction by ZEFSAII (Michael W. Deem and Ramdas Pophale) SiO2 
 PCOD9369090
Probable space group: F M M 2
;
_chemical_formula_sum "Si O2"
_cell_formula_units_Z 64
_cell_length_a 14.032038
_cell_length_b 21.386640
_cell_length_c 10.739544
_cell_angle_alpha 90.000000
_cell_angle_beta 90.000000
_cell_angle_gamma 90.000000
_cell_volume 3222.917234
_symmetry_space_group_name_H-M "F M M 2"
_symmetry_group_IT_number 42
_symmetry_cell_setting 'orthorhombic'
loop_
_space_group_symop_operation_xyz
x,y,z
-x,-y,z
-x,y,z
x,-y,z
x,1/2+y,1/2+z
-x,1/2-y,1/2+z
-x,1/2+y,1/2+z
x,1/2-y,1/2+z
1/2+x,y,1/2+z
1/2-x,-y,1/2+z
1/2-x,y,1/2+z
1/2+x,-y,1/2+z
1/2+x,1/2+y,z
1/2-x,1/2-y,z
1/2-x,1/2+y,z
1/2+x,1/2-y,z
loop_
_atom_site_type_symbol
_atom_site_label
_atom_site_fract_x
_atom_site_fract_y
_atom_site_fract_z
Si Si1 0.744702 0.895965 0.585850
Si Si2 0.109067 0.500000 0.699097
Si Si3 0.153370 0.787406 0.953266
Si Si4 0.608851 0.500000 0.494952
Si Si5 0.897937 0.300421 0.178152
O O1 0.670306 0.939617 0.658188
O O2 0.683026 0.858344 0.483984
O O3 0.804401 0.843332 0.660487
O O4 0.827790 0.940532 0.533964
O O5 0.000000 0.500000 0.649092
O O6 0.102909 0.500000 0.846852
O O7 0.250000 0.750000 0.933077
O O8 0.109355 0.755605 0.077165
O O9 0.100890 0.780678 0.822282
O O10 0.500000 0.500000 0.544657
O O11 0.000000 0.332874 0.152132
#
# Coordination Sequence:
#
# PCOD9369090 Si02
#       5
#    16   8  16   8  16
#     4  10  21  38  58  82 115 151 189 235 286 337
#     4  10  22  38  58  82 110 148 193 235 282 337
#     4  10  21  38  58  83 118 156 191 233 283 338
#     4  10  20  36  58  84 112 148 191 235 282 337
#     4  11  22  37  59  88 118 152 191 234 285 342
#
# _framework density 19.857786000000001
#
# number of rings (size 3 to 8) (size 9 to 14) (size 15 to 20)
#    0.000    1.750    0.000    5.250    0.000    4.000 
#    0.000    5.000    0.000    4.500    0.000    0.000 
#    0.000    0.000    0.000    0.000    0.000    0.000 
#
# Total GULP energy -89169.535890 kJ/mol
# GULP energy per Si atom -5573.095993 kJ/mol
# Density = 1.981259 g / cm^3
# Si number density = 19.857786 Si / 1000 Ang^3
#
#
#
# Elastic Constant Matrix: (Units=GPa)
#
#
# Indices 1 2 3 4 5 6 
#
# 1 152.7074 33.9576 48.1798 0.0000 0.0000 0.0000
# 2 33.9576 83.7763 44.6946 0.0000 0.0000 0.0000
# 3 48.1798 44.6946 127.7848 0.0000 0.0000 0.0000
# 4 0.0000 0.0000 0.0000 10.0098 0.0000 0.0000
# 5 0.0000 0.0000 0.0000 0.0000 -2.7700 0.0000
# 6 0.0000 0.0000 0.0000 0.0000 0.0000 16.7519
#
#
#
# Elastic Compliance Matrix: (Units=1/GPa)
#
#
# Indices 1 2 3 4 5 6 
#
# 1 0.007678 -0.001927 -0.002221 0.000000 0.000000 0.000000
# 2 -0.001927 0.015159 -0.004575 0.000000 0.000000 0.000000
# 3 -0.002221 -0.004575 0.010263 0.000000 0.000000 0.000000
# 4 0.000000 0.000000 0.000000 0.099902 0.000000 0.000000
# 5 0.000000 0.000000 0.000000 0.000000 -0.361016 0.000000
# 6 0.000000 0.000000 0.000000 0.000000 0.000000 0.059695
#
#
# Mechanical properties :
#
#
# Convention : Reuss Voigt Hill
#
# Bulk Modulus (GPa) = 63.88550 68.65915 66.27232
# Shear Modulus (GPa) = -34.32747 20.62747 -6.85000
#
# Velocity S-wave (km/s) = -4.16223 3.22648 -1.85931
# Velocity P-wave (km/s) = 3.02365 6.96640 5.36997
#
# Compressibility (1/GPa) = 0.01565300
#
# Stress axis : x y z
#
# Youngs Moduli (GPa) = 130.24772 65.96877 97.43536
#
# Poissons Ratio (x) = 0.12714 0.21637
# Poissons Ratio (y) = 0.25103 0.44580
# Poissons Ratio (z) = 0.28924 0.30183
#
# Static dielectric constant tensor:
#      x y z
#    x 1.715230 0.000000 0.000000 
#    y 0.000000 1.736690 0.000000 
#    z 0.000000 0.000000 1.696380 
# 
# From -- ./inp_files/2698.got.cif
#   From: 2010.05.17/outbox.cif.g08.bks.cpg/sg42_2_cif.got.tgz:2698.got - 2010.06.03 19:03:34.
