data_PCOD9369513
_publ_section_title
;
Structure prediction by ZEFSAII (Michael W. Deem and Ramdas Pophale) SiO2 
 PCOD9369513
Probable space group: F M M 2
;
_chemical_formula_sum "Si O2"
_cell_formula_units_Z 64
_cell_length_a 17.148765
_cell_length_b 19.597324
_cell_length_c 9.080313
_cell_angle_alpha 90.000000
_cell_angle_beta 90.000000
_cell_angle_gamma 90.000000
_cell_volume 3051.619917
_symmetry_space_group_name_H-M "F M M 2"
_symmetry_group_IT_number 42
_symmetry_cell_setting 'orthorhombic'
loop_
_space_group_symop_operation_xyz
x,y,z
-x,-y,z
-x,y,z
x,-y,z
x,1/2+y,1/2+z
-x,1/2-y,1/2+z
-x,1/2+y,1/2+z
x,1/2-y,1/2+z
1/2+x,y,1/2+z
1/2-x,-y,1/2+z
1/2-x,y,1/2+z
1/2+x,-y,1/2+z
1/2+x,1/2+y,z
1/2-x,1/2-y,z
1/2-x,1/2+y,z
1/2+x,1/2-y,z
loop_
_atom_site_type_symbol
_atom_site_label
_atom_site_fract_x
_atom_site_fract_y
_atom_site_fract_z
Si Si1 0.356601 0.688755 0.836950
Si Si2 0.585566 0.339010 0.334448
Si Si3 0.118240 0.422306 0.540200
Si Si4 0.268733 0.852454 0.043980
O O1 0.402352 0.757907 0.807178
O O2 0.302063 0.669941 0.700074
O O3 0.402928 0.622572 0.895604
O O4 0.297946 0.697288 0.975808
O O5 0.500000 0.348942 0.402748
O O6 0.589519 0.381478 0.183708
O O7 0.657781 0.359966 0.436877
O O8 0.092478 0.500000 0.535702
O O9 0.213235 0.418732 0.551375
#
# Coordination Sequence:
#
# PCOD9369513 Si02
#       4
#    16  16  16  16
#     4  10  22  38  65  95 134 174 225 278 329 398
#     4  12  25  40  65 101 139 175 220 281 346 396
#     4  10  23  43  68  97 132 177 225 272 334 405
#     4  10  21  38  66  92 132 171 230 273 323 392
#
# _framework density 20.972467999999999
#
# number of rings (size 3 to 8) (size 9 to 14) (size 15 to 20)
#    1.500    0.000    2.500    2.250    3.500    8.500 
#    0.000    0.000    0.000    0.000    0.000    3.500 
#    0.000    0.000    0.000    0.000    0.000    0.000 
#
# Total GULP energy -89125.897366 kJ/mol
# GULP energy per Si atom -5570.368585 kJ/mol
# Density = 2.092473 g / cm^3
# Si number density = 20.972468 Si / 1000 Ang^3
#
#
#
# Elastic Constant Matrix: (Units=GPa)
#
#
# Indices 1 2 3 4 5 6 
#
# 1 126.1774 22.6022 8.6172 0.0000 0.0000 0.0000
# 2 22.6022 158.9581 37.2141 0.0000 0.0000 0.0000
# 3 8.6172 37.2141 74.0258 0.0000 0.0000 0.0000
# 4 0.0000 0.0000 0.0000 25.2077 0.0000 0.0000
# 5 0.0000 0.0000 0.0000 0.0000 12.2376 0.0000
# 6 0.0000 0.0000 0.0000 0.0000 0.0000 -6.9422
#
#
#
# Elastic Compliance Matrix: (Units=1/GPa)
#
#
# Indices 1 2 3 4 5 6 
#
# 1 0.008144 -0.001061 -0.000415 0.000000 0.000000 0.000000
# 2 -0.001061 0.007268 -0.003530 0.000000 0.000000 0.000000
# 3 -0.000415 -0.003530 0.015332 0.000000 0.000000 0.000000
# 4 0.000000 0.000000 0.000000 0.039670 0.000000 0.000000
# 5 0.000000 0.000000 0.000000 0.000000 0.081715 0.000000
# 6 0.000000 0.000000 0.000000 0.000000 0.000000 -0.144047
#
#
# Mechanical properties :
#
#
# Convention : Reuss Voigt Hill
#
# Bulk Modulus (GPa) = 48.23466 55.11424 51.67445
# Shear Modulus (GPa) = 199.95910 25.48248 112.72079
#
# Velocity S-wave (km/s) = 9.77500 3.48953 7.33919
# Velocity P-wave (km/s) = 12.26580 6.52473 9.82400
#
# Compressibility (1/GPa) = 0.02073198
#
# Stress axis : x y z
#
# Youngs Moduli (GPa) = 122.79429 137.58322 65.22357
#
# Poissons Ratio (x) = 0.14596 0.02705
# Poissons Ratio (y) = 0.13027 0.23027
# Poissons Ratio (z) = 0.05092 0.48573
#
# Static dielectric constant tensor:
#      x y z
#    x 1.773290 0.000000 0.000000 
#    y 0.000000 1.819870 0.000000 
#    z 0.000000 0.000000 1.756070 
# 
# From -- ./inp_files/3784.got.cif
#   From: 2010.05.17/outbox.cif.g08.bks.cpg/sg42_2_cif.got.tgz:3784.got - 2010.06.03 19:03:34.
