data_PCOD9369818
_publ_section_title
;
Structure prediction by ZEFSAII (Michael W. Deem and Ramdas Pophale) SiO2 
 PCOD9369818
Probable space group: F M M 2
;
_chemical_formula_sum "Si O2"
_cell_formula_units_Z 68
_cell_length_a 17.028285
_cell_length_b 15.448511
_cell_length_c 10.336660
_cell_angle_alpha 90.000000
_cell_angle_beta 90.000000
_cell_angle_gamma 90.000000
_cell_volume 2719.178816
_symmetry_space_group_name_H-M "F M M 2"
_symmetry_group_IT_number 42
_symmetry_cell_setting 'orthorhombic'
loop_
_space_group_symop_operation_xyz
x,y,z
-x,-y,z
-x,y,z
x,-y,z
x,1/2+y,1/2+z
-x,1/2-y,1/2+z
-x,1/2+y,1/2+z
x,1/2-y,1/2+z
1/2+x,y,1/2+z
1/2-x,-y,1/2+z
1/2-x,y,1/2+z
1/2+x,-y,1/2+z
1/2+x,1/2+y,z
1/2-x,1/2-y,z
1/2-x,1/2+y,z
1/2+x,1/2-y,z
loop_
_atom_site_type_symbol
_atom_site_label
_atom_site_fract_x
_atom_site_fract_y
_atom_site_fract_z
Si Si1 0.406840 0.902928 0.524360
Si Si2 0.889536 0.159707 0.404681
Si Si3 0.500000 0.500000 0.345126
Si Si4 0.128986 0.733153 0.170702
Si Si5 0.224587 0.098659 0.809044
O O1 0.500000 0.884017 0.506944
O O2 0.366670 0.829336 0.610276
O O3 0.353568 0.907764 0.397088
O O4 0.405577 0.000000 0.582869
O O5 0.906960 0.240740 0.309904
O O6 0.910892 0.182134 0.552112
O O7 0.796938 0.138148 0.389600
O O8 0.933725 0.076233 0.356282
O O9 0.201270 0.670112 0.203305
O O10 0.241109 0.000000 0.763471
#
# Coordination Sequence:
#
# PCOD9369818 Si02
#       5
#    16  16   4  16  16
#     4  10  25  48  76 113 164 218 270 332 408 491
#     4  12  30  52  81 119 167 218 272 348 413 496
#     4  12  32  60  80 122 168 216 280 350 428 484
#     4  12  28  48  82 121 162 213 277 338 408 493
#     4  11  26  50  80 120 163 215 272 336 412 490
#
# _framework density 25.007550999999999
#
# number of rings (size 3 to 8) (size 9 to 14) (size 15 to 20)
#    0.000    0.706    3.529    0.706   13.176    0.941 
#    0.000    0.000    0.000    0.000    0.000    0.000 
#    0.000    0.000    0.000    0.000    0.000    0.000 
#
# Total GULP energy -94728.061770 kJ/mol
# GULP energy per Si atom -5572.238928 kJ/mol
# Density = 2.495063 g / cm^3
# Si number density = 25.007551 Si / 1000 Ang^3
#
#
#
# Elastic Constant Matrix: (Units=GPa)
#
#
# Indices 1 2 3 4 5 6 
#
# 1 181.4453 62.6494 64.0061 0.0000 0.0000 0.0000
# 2 62.6494 201.8731 43.7261 0.0000 0.0000 0.0000
# 3 64.0061 43.7261 90.6996 0.0000 0.0000 0.0000
# 4 0.0000 0.0000 0.0000 35.3367 0.0000 0.0000
# 5 0.0000 0.0000 0.0000 0.0000 -208.7018 0.0000
# 6 0.0000 0.0000 0.0000 0.0000 0.0000 46.4423
#
#
#
# Elastic Compliance Matrix: (Units=1/GPa)
#
#
# Indices 1 2 3 4 5 6 
#
# 1 0.007652 -0.001346 -0.004751 0.000000 0.000000 0.000000
# 2 -0.001346 0.005768 -0.001831 0.000000 0.000000 0.000000
# 3 -0.004751 -0.001831 0.015261 0.000000 0.000000 0.000000
# 4 0.000000 0.000000 0.000000 0.028299 0.000000 0.000000
# 5 0.000000 0.000000 0.000000 0.000000 -0.004792 0.000000
# 6 0.000000 0.000000 0.000000 0.000000 0.000000 0.021532
#
#
# Mechanical properties :
#
#
# Convention : Reuss Voigt Hill
#
# Bulk Modulus (GPa) = 77.97239 90.53126 84.25182
# Shear Modulus (GPa) = 53.27574 -5.14214 24.06680
#
# Velocity S-wave (km/s) = 4.62062 -1.43551 3.10559
# Velocity P-wave (km/s) = 7.72749 5.79073 6.82813
#
# Compressibility (1/GPa) = 0.01282505
#
# Stress axis : x y z
#
# Youngs Moduli (GPa) = 130.68598 173.37599 65.52623
#
# Poissons Ratio (x) = 0.23329 0.31133
# Poissons Ratio (y) = 0.17585 0.11998
# Poissons Ratio (z) = 0.62092 0.31747
#
# Static dielectric constant tensor:
#      x y z
#    x 1.971550 0.000000 0.000000 
#    y 0.000000 1.957460 0.000000 
#    z 0.000000 0.000000 2.083510 
# 
# From -- ./inp_files/9282.got.cif
#   From: 2010.05.17/outbox.cif.g08.bks.cpg/sg42_5_cif.got.tgz:9282.got - 2010.06.03 19:03:34.
