data_PCOD9369857
_publ_section_title
;
Structure prediction by ZEFSAII (Michael W. Deem and Ramdas Pophale) SiO2 
 PCOD9369857
Probable space group: F M M 2
;
_chemical_formula_sum "Si O2"
_cell_formula_units_Z 64
_cell_length_a 10.456623
_cell_length_b 16.350631
_cell_length_c 17.092680
_cell_angle_alpha 90.000000
_cell_angle_beta 90.000000
_cell_angle_gamma 90.000000
_cell_volume 2922.376252
_symmetry_space_group_name_H-M "F M M 2"
_symmetry_group_IT_number 42
_symmetry_cell_setting 'orthorhombic'
loop_
_space_group_symop_operation_xyz
x,y,z
-x,-y,z
-x,y,z
x,-y,z
x,1/2+y,1/2+z
-x,1/2-y,1/2+z
-x,1/2+y,1/2+z
x,1/2-y,1/2+z
1/2+x,y,1/2+z
1/2-x,-y,1/2+z
1/2-x,y,1/2+z
1/2+x,-y,1/2+z
1/2+x,1/2+y,z
1/2-x,1/2-y,z
1/2-x,1/2+y,z
1/2+x,1/2-y,z
loop_
_atom_site_type_symbol
_atom_site_label
_atom_site_fract_x
_atom_site_fract_y
_atom_site_fract_z
Si Si1 0.000000 0.096955 0.417200
Si Si2 0.730161 0.652417 0.986686
Si Si3 0.645904 0.090692 0.325919
Si Si4 0.500000 0.171052 0.738998
Si Si5 0.750000 0.250000 0.246844
Si Si6 0.000000 0.907427 0.087969
O O1 0.873416 0.117336 0.469129
O O2 0.000000 0.148254 0.333048
O O3 0.000000 0.000000 0.398940
O O4 0.750000 0.750000 0.979842
O O5 0.649947 0.610522 0.917101
O O6 0.634527 0.632856 0.058580
O O7 0.500000 0.093066 0.297918
O O8 0.723140 0.165930 0.292141
O O9 0.698512 0.000000 0.310359
O O10 0.382719 0.227114 0.710558
O O11 0.500000 0.094321 0.682279
O O12 0.000000 0.000000 0.059173
#
# Coordination Sequence:
#
# PCOD9369857 Si02
#       6
#     8  16  16   8   8   8
#     4  12  24  41  71 108 138 174 236 298 343 406
#     4  12  24  42  69 101 141 188 234 287 351 421
#     4  11  21  37  67 105 140 180 235 298 352 412
#     4  12  27  44  71 102 146 182 231 296 363 413
#     4  12  24  44  70 104 142 184 234 294 356 426
#     4  12  28  49  71 100 142 192 239 288 362 435
#
# _framework density 21.899985999999998
#
# number of rings (size 3 to 8) (size 9 to 14) (size 15 to 20)
#    0.000    0.250    6.250    3.375    1.750    1.000 
#    0.000    0.000    0.000    0.000    0.000    0.000 
#    0.000    0.000    0.000    0.000    0.000    0.000 
#
# Total GULP energy -89070.744987 kJ/mol
# GULP energy per Si atom -5566.921562 kJ/mol
# Density = 2.185014 g / cm^3
# Si number density = 21.899986 Si / 1000 Ang^3
#
#
#
# Elastic Constant Matrix: (Units=GPa)
#
#
# Indices 1 2 3 4 5 6 
#
# 1 185.1692 48.4555 39.8931 0.0000 0.0000 0.0000
# 2 48.4555 172.1454 17.8723 0.0000 0.0000 0.0000
# 3 39.8931 17.8723 62.5658 0.0000 0.0000 0.0000
# 4 0.0000 0.0000 0.0000 21.3957 0.0000 0.0000
# 5 0.0000 0.0000 0.0000 0.0000 662.5059 0.0000
# 6 0.0000 0.0000 0.0000 0.0000 0.0000 31.3734
#
#
#
# Elastic Compliance Matrix: (Units=1/GPa)
#
#
# Indices 1 2 3 4 5 6 
#
# 1 0.006600 -0.001464 -0.003790 0.000000 0.000000 0.000000
# 2 -0.001464 0.006311 -0.000869 0.000000 0.000000 0.000000
# 3 -0.003790 -0.000869 0.018648 0.000000 0.000000 0.000000
# 4 0.000000 0.000000 0.000000 0.046738 0.000000 0.000000
# 5 0.000000 0.000000 0.000000 0.000000 0.001509 0.000000
# 6 0.000000 0.000000 0.000000 0.000000 0.000000 0.031874
#
#
# Mechanical properties :
#
#
# Convention : Reuss Voigt Hill
#
# Bulk Modulus (GPa) = 51.78005 70.25803 61.01904
# Shear Modulus (GPa) = 38.35340 163.96563 101.15952
#
# Velocity S-wave (km/s) = 4.18939 8.66214 6.80381
# Velocity P-wave (km/s) = 6.86269 11.49759 9.46813
#
# Compressibility (1/GPa) = 0.01931246
#
# Stress axis : x y z
#
# Youngs Moduli (GPa) = 151.51047 158.44174 53.62466
#
# Poissons Ratio (x) = 0.23201 0.20324
# Poissons Ratio (y) = 0.22186 0.04661
# Poissons Ratio (z) = 0.57424 0.13772
#
# Static dielectric constant tensor:
#      x y z
#    x 1.906210 0.000000 0.000000 
#    y 0.000000 1.730360 0.000000 
#    z 0.000000 0.000000 1.809300 
# 
# From -- ./inp_files/18688.got.cif
#   From: 2010.05.17/outbox.cif.g08.bks.cpg/sg42_10_cif.got.tgz:18688.got - 2010.06.03 19:03:34.
