data_PCOD9369974
_publ_section_title
;
Structure prediction by ZEFSAII (Michael W. Deem and Ramdas Pophale) SiO2 
 PCOD9369974
Probable space group: F M M 2
;
_chemical_formula_sum "Si O2"
_cell_formula_units_Z 80
_cell_length_a 10.433738
_cell_length_b 15.673527
_cell_length_c 26.245516
_cell_angle_alpha 90.000000
_cell_angle_beta 90.000000
_cell_angle_gamma 90.000000
_cell_volume 4292.020415
_symmetry_space_group_name_H-M "F M M 2"
_symmetry_group_IT_number 42
_symmetry_cell_setting 'orthorhombic'
loop_
_space_group_symop_operation_xyz
x,y,z
-x,-y,z
-x,y,z
x,-y,z
x,1/2+y,1/2+z
-x,1/2-y,1/2+z
-x,1/2+y,1/2+z
x,1/2-y,1/2+z
1/2+x,y,1/2+z
1/2-x,-y,1/2+z
1/2-x,y,1/2+z
1/2+x,-y,1/2+z
1/2+x,1/2+y,z
1/2-x,1/2-y,z
1/2-x,1/2+y,z
1/2+x,1/2-y,z
loop_
_atom_site_type_symbol
_atom_site_label
_atom_site_fract_x
_atom_site_fract_y
_atom_site_fract_z
Si Si1 0.000000 0.753364 0.077300
Si Si2 0.352822 0.602601 0.835751
Si Si3 0.000000 0.595921 0.999977
Si Si4 0.654162 0.600214 0.717510
Si Si5 0.748114 0.650179 0.438902
Si Si6 0.250000 0.250000 0.147338
Si Si7 0.500000 0.594694 0.996540
O O1 0.874329 0.757899 0.111959
O O2 0.000000 0.832072 0.038478
O O3 0.000000 0.666467 0.044271
O O4 0.500000 0.632058 0.844817
O O5 0.352642 0.500000 0.841225
O O6 0.319865 0.620293 0.777029
O O7 0.259070 0.639843 0.878150
O O8 0.876155 0.609976 0.964564
O O9 0.000000 0.500000 0.020893
O O10 0.500000 0.609504 0.709953
O O11 0.684638 0.500000 0.708448
O O12 0.728050 0.666386 0.682061
O O13 0.750000 0.750000 0.452122
O O14 0.874566 0.606995 0.462028
O O15 0.500000 0.500000 0.018926
#
# Coordination Sequence:
#
# PCOD9369974 Si02
#       7
#     8  16   8  16  16   8   8
#     4  12  26  44  62  94 124 156 218 270 320 368
#     4   9  18  35  63  95 126 166 209 243 295 380
#     4  12  26  44  63  89 130 171 207 256 317 372
#     4   9  20  41  66  94 127 166 208 248 309 385
#     4  12  22  39  63  96 131 163 208 253 306 374
#     4  12  24  42  68  92 126 156 212 276 316 362
#     4  12  24  44  67  87 120 165 213 258 311 376
#
# _framework density 18.639240999999998
#
# number of rings (size 3 to 8) (size 9 to 14) (size 15 to 20)
#    0.000    1.200    4.000    4.200    1.400    1.600 
#    0.000    1.000    0.000    2.400    0.000    0.000 
#    0.000    0.000    0.000    0.000    0.000    0.000 
#
# Total GULP energy -111764.923799 kJ/mol
# GULP energy per Si atom -5588.246190 kJ/mol
# Density = 1.859682 g / cm^3
# Si number density = 18.639241 Si / 1000 Ang^3
#
#
#
# Elastic Constant Matrix: (Units=GPa)
#
#
# Indices 1 2 3 4 5 6 
#
# 1 129.8930 43.3791 69.0786 0.0000 0.0000 0.0000
# 2 43.3791 137.9334 70.9738 0.0000 0.0000 0.0000
# 3 69.0786 70.9738 125.7162 0.0000 0.0000 0.0000
# 4 0.0000 0.0000 0.0000 -59.7017 0.0000 0.0000
# 5 0.0000 0.0000 0.0000 0.0000 35.9280 0.0000
# 6 0.0000 0.0000 0.0000 0.0000 0.0000 60.3774
#
#
#
# Elastic Compliance Matrix: (Units=1/GPa)
#
#
# Indices 1 2 3 4 5 6 
#
# 1 0.010900 -0.000488 -0.005714 0.000000 0.000000 0.000000
# 2 -0.000488 0.010240 -0.005513 0.000000 0.000000 0.000000
# 3 -0.005714 -0.005513 0.014207 0.000000 0.000000 0.000000
# 4 0.000000 0.000000 0.000000 -0.016750 0.000000 0.000000
# 5 0.000000 0.000000 0.000000 0.000000 0.027833 0.000000
# 6 0.000000 0.000000 0.000000 0.000000 0.000000 0.016562
#
#
# Mechanical properties :
#
#
# Convention : Reuss Voigt Hill
#
# Bulk Modulus (GPa) = 83.91332 84.48951 84.20141
# Shear Modulus (GPa) = 55.31252 21.32814 38.32033
#
# Velocity S-wave (km/s) = 5.45341 3.38636 4.53912
# Velocity P-wave (km/s) = 9.20709 7.79212 8.52900
#
# Compressibility (1/GPa) = 0.01191706
#
# Stress axis : x y z
#
# Youngs Moduli (GPa) = 91.73955 97.65595 70.38976
#
# Poissons Ratio (x) = 0.04765 0.40222
# Poissons Ratio (y) = 0.04476 0.38806
# Poissons Ratio (z) = 0.52421 0.53838
#
# Static dielectric constant tensor:
#      x y z
#    x 1.623790 0.000000 0.000000 
#    y 0.000000 1.639210 0.000000 
#    z 0.000000 0.000000 1.641390 
# 
# From -- ./inp_files/32075.got.cif
#   From: 2010.05.17/outbox.cif.g08.bks.cpg/sg42_17_cif.got.tgz:32075.got - 2010.06.03 19:03:34.
