data_PCOD9369597
_publ_section_title
;
Structure prediction by ZEFSAII (Michael W. Deem and Ramdas Pophale) SiO2 
 PCOD9369597
Probable space group: F M M 2
;
_chemical_formula_sum "Si O2"
_cell_formula_units_Z 96
_cell_length_a 31.389972
_cell_length_b 14.507834
_cell_length_c 9.350686
_cell_angle_alpha 90.000000
_cell_angle_beta 90.000000
_cell_angle_gamma 90.000000
_cell_volume 4258.307108
_symmetry_space_group_name_H-M "F M M 2"
_symmetry_group_IT_number 42
_symmetry_cell_setting 'orthorhombic'
loop_
_space_group_symop_operation_xyz
x,y,z
-x,-y,z
-x,y,z
x,-y,z
x,1/2+y,1/2+z
-x,1/2-y,1/2+z
-x,1/2+y,1/2+z
x,1/2-y,1/2+z
1/2+x,y,1/2+z
1/2-x,-y,1/2+z
1/2-x,y,1/2+z
1/2+x,-y,1/2+z
1/2+x,1/2+y,z
1/2-x,1/2-y,z
1/2-x,1/2+y,z
1/2+x,1/2-y,z
loop_
_atom_site_type_symbol
_atom_site_label
_atom_site_fract_x
_atom_site_fract_y
_atom_site_fract_z
Si Si1 0.826926 0.000000 0.045660
Si Si2 0.290069 0.316412 0.322122
Si Si3 0.839784 0.195225 0.032309
Si Si4 0.639516 0.500000 0.633000
Si Si5 0.911713 0.184756 0.668932
Si Si6 0.727275 0.000000 0.001172
Si Si7 0.607556 0.000000 0.807696
Si Si8 0.950667 0.672396 0.867286
O O1 0.841287 0.093324 0.968610
O O2 0.854763 0.000000 0.191522
O O3 0.775710 0.000000 0.057995
O O4 0.250000 0.250000 0.333384
O O5 0.326965 0.268868 0.414443
O O6 0.304767 0.317059 0.158270
O O7 0.279247 0.411231 0.400435
O O8 0.880686 0.235810 0.108595
O O9 0.616370 0.407448 0.688023
O O10 0.691391 0.500000 0.627670
O O11 0.629375 0.500000 0.462524
O O12 0.934197 0.229749 0.805697
O O13 0.944057 0.166778 0.538115
O O14 0.577999 0.909681 0.801450
O O15 0.000000 0.660174 0.830590
#
# Coordination Sequence:
#
# PCOD9369597 Si02
#       8
#     8  16  16   8  16   8   8  16
#     4  12  24  41  65 101 132 184 224 286 330 390
#     4  12  25  42  62  93 130 180 237 287 330 383
#     4  12  24  44  66  92 133 182 228 276 341 402
#     4  10  22  41  66  93 135 186 229 266 333 407
#     4  11  23  43  70  98 136 179 221 277 344 414
#     4  12  24  42  64  96 135 186 238 281 318 389
#     4  10  21  42  69  98 134 178 225 275 340 414
#     4  11  23  43  73 105 133 171 223 282 346 422
#
# _framework density 22.544170000000001
#
# number of rings (size 3 to 8) (size 9 to 14) (size 15 to 20)
#    0.000    0.667    5.000    3.750    0.000    0.000 
#    0.000    7.083    0.000    0.000    0.000    0.000 
#    0.000    0.000    0.000    0.000    0.000    0.000 
#
# Total GULP energy -134368.508389 kJ/mol
# GULP energy per Si atom -5598.687850 kJ/mol
# Density = 2.249286 g / cm^3
# Si number density = 22.544170 Si / 1000 Ang^3
#
#
#
# Elastic Constant Matrix: (Units=GPa)
#
#
# Indices 1 2 3 4 5 6 
#
# 1 122.8071 43.7082 27.6320 0.0000 0.0000 0.0000
# 2 43.7082 165.7169 28.7716 0.0000 0.0000 0.0000
# 3 27.6320 28.7716 107.4370 0.0000 0.0000 0.0000
# 4 0.0000 0.0000 0.0000 2.8438 0.0000 0.0000
# 5 0.0000 0.0000 0.0000 0.0000 35.6063 0.0000
# 6 0.0000 0.0000 0.0000 0.0000 0.0000 23.8323
#
#
#
# Elastic Compliance Matrix: (Units=1/GPa)
#
#
# Indices 1 2 3 4 5 6 
#
# 1 0.009315 -0.002140 -0.001822 0.000000 0.000000 0.000000
# 2 -0.002140 0.006820 -0.001276 0.000000 0.000000 0.000000
# 3 -0.001822 -0.001276 0.010118 0.000000 0.000000 0.000000
# 4 0.000000 0.000000 0.000000 0.351645 0.000000 0.000000
# 5 0.000000 0.000000 0.000000 0.000000 0.028085 0.000000
# 6 0.000000 0.000000 0.000000 0.000000 0.000000 0.041960
#
#
# Mechanical properties :
#
#
# Convention : Reuss Voigt Hill
#
# Bulk Modulus (GPa) = 63.38888 66.24272 64.81580
# Shear Modulus (GPa) = 10.78331 32.17977 21.48154
#
# Velocity S-wave (km/s) = 2.18942 3.78221 3.09020
# Velocity P-wave (km/s) = 5.87964 6.96568 6.44557
#
# Compressibility (1/GPa) = 0.01577564
#
# Stress axis : x y z
#
# Youngs Moduli (GPa) = 107.35738 146.61784 98.83151
#
# Poissons Ratio (x) = 0.31381 0.18012
# Poissons Ratio (y) = 0.22978 0.12611
# Poissons Ratio (z) = 0.19566 0.18709
#
# Static dielectric constant tensor:
#      x y z
#    x 1.827760 0.000000 0.000000 
#    y 0.000000 1.855770 0.000000 
#    z 0.000000 0.000000 1.870060 
# 
# From -- ./inp_files/11081.got.cif
#   From: 2010.05.17/outbox.cif.g08.bks.cpg/sg42_6_cif.got.tgz:11081.got - 2010.06.03 19:03:34.
