data_PCOD9369924
_publ_section_title
;
Structure prediction by ZEFSAII (Michael W. Deem and Ramdas Pophale) SiO2 
 PCOD9369924
Probable space group: F M M 2
;
_chemical_formula_sum "Si O2"
_cell_formula_units_Z 68
_cell_length_a 16.267802
_cell_length_b 22.100191
_cell_length_c 9.039180
_cell_angle_alpha 90.000000
_cell_angle_beta 90.000000
_cell_angle_gamma 90.000000
_cell_volume 3249.779836
_symmetry_space_group_name_H-M "F M M 2"
_symmetry_group_IT_number 42
_symmetry_cell_setting 'orthorhombic'
loop_
_space_group_symop_operation_xyz
x,y,z
-x,-y,z
-x,y,z
x,-y,z
x,1/2+y,1/2+z
-x,1/2-y,1/2+z
-x,1/2+y,1/2+z
x,1/2-y,1/2+z
1/2+x,y,1/2+z
1/2-x,-y,1/2+z
1/2-x,y,1/2+z
1/2+x,-y,1/2+z
1/2+x,1/2+y,z
1/2-x,1/2-y,z
1/2-x,1/2+y,z
1/2+x,1/2-y,z
loop_
_atom_site_type_symbol
_atom_site_label
_atom_site_fract_x
_atom_site_fract_y
_atom_site_fract_z
Si Si1 0.160650 0.777759 0.985380
Si Si2 0.000000 0.500000 0.564067
Si Si3 0.408170 0.384757 0.169657
Si Si4 0.399262 0.930891 0.989041
Si Si5 0.094299 0.821274 0.680101
O O1 0.250000 0.750000 0.003965
O O2 0.143938 0.794792 0.816617
O O3 0.146493 0.837408 0.083158
O O4 0.099763 0.726026 0.045609
O O5 0.929647 0.446045 0.580362
O O6 0.500000 0.356296 0.193301
O O7 0.374805 0.404332 0.329662
O O8 0.500000 0.931912 0.985101
O O9 0.372271 0.000000 0.007287
O O10 0.374763 0.885485 0.118557
O O11 0.000000 0.829046 0.728710
#
# Coordination Sequence:
#
# PCOD9369924 Si02
#       5
#    16   4  16  16  16
#     4  12  25  41  60  90 135 173 211 270 339 400
#     4   8  16  32  68 102 140 164 220 286 336 396
#     4   9  16  35  65  99 133 167 218 268 341 399
#     4   9  16  34  61  96 129 160 205 277 342 387
#     4  11  23  39  63  91 123 171 230 276 320 384
#
# _framework density 20.924493999999999
#
# number of rings (size 3 to 8) (size 9 to 14) (size 15 to 20)
#    0.706    1.176    1.176    4.235    0.000    1.882 
#    2.118    1.176    2.588    0.000    0.000    0.000 
#    0.000    0.000    0.000    0.000    0.000    0.000 
#
# Total GULP energy -94645.237219 kJ/mol
# GULP energy per Si atom -5567.366895 kJ/mol
# Density = 2.087687 g / cm^3
# Si number density = 20.924494 Si / 1000 Ang^3
#
#
#
# Elastic Constant Matrix: (Units=GPa)
#
#
# Indices 1 2 3 4 5 6 
#
# 1 57.0011 43.2783 22.4489 0.0000 0.0000 0.0000
# 2 43.2783 162.6810 80.3279 0.0000 0.0000 0.0000
# 3 22.4489 80.3279 91.4820 0.0000 0.0000 0.0000
# 4 0.0000 0.0000 0.0000 26.1838 0.0000 0.0000
# 5 0.0000 0.0000 0.0000 0.0000 102.1068 0.0000
# 6 0.0000 0.0000 0.0000 0.0000 0.0000 19.1700
#
#
#
# Elastic Compliance Matrix: (Units=1/GPa)
#
#
# Indices 1 2 3 4 5 6 
#
# 1 0.021995 -0.005625 -0.000458 0.000000 0.000000 0.000000
# 2 -0.005625 0.012291 -0.009412 0.000000 0.000000 0.000000
# 3 -0.000458 -0.009412 0.019308 0.000000 0.000000 0.000000
# 4 0.000000 0.000000 0.000000 0.038192 0.000000 0.000000
# 5 0.000000 0.000000 0.000000 0.000000 0.009794 0.000000
# 6 0.000000 0.000000 0.000000 0.000000 0.000000 0.052165
#
#
# Mechanical properties :
#
#
# Convention : Reuss Voigt Hill
#
# Bulk Modulus (GPa) = 44.24129 67.03050 55.63590
# Shear Modulus (GPa) = 26.00535 40.49940 33.25237
#
# Velocity S-wave (km/s) = 3.52919 4.40421 3.99075
# Velocity P-wave (km/s) = 6.14785 7.61359 6.91964
#
# Compressibility (1/GPa) = 0.02260332
#
# Stress axis : x y z
#
# Youngs Moduli (GPa) = 45.46521 81.36151 51.79247
#
# Poissons Ratio (x) = 0.45767 0.02372
# Poissons Ratio (y) = 0.25575 0.48746
# Poissons Ratio (z) = 0.02083 0.76576
#
# Static dielectric constant tensor:
#      x y z
#    x 1.756610 0.000000 0.000000 
#    y 0.000000 1.738580 0.000000 
#    z 0.000000 0.000000 1.757170 
# 
# From -- ./inp_files/3284.got.cif
#   From: 2010.05.17/outbox.cif.g08.bks.cpg/sg42_2_cif.got.tgz:3284.got - 2010.06.03 19:03:34.
