data_PCOD9369936
_publ_section_title
;
Structure prediction by ZEFSAII (Michael W. Deem and Ramdas Pophale) SiO2 
 PCOD9369936
Probable space group: F M M 2
;
_chemical_formula_sum "Si O2"
_cell_formula_units_Z 116
_cell_length_a 14.408610
_cell_length_b 21.088993
_cell_length_c 17.658175
_cell_angle_alpha 90.000000
_cell_angle_beta 90.000000
_cell_angle_gamma 90.000000
_cell_volume 5365.667362
_symmetry_space_group_name_H-M "F M M 2"
_symmetry_group_IT_number 42
_symmetry_cell_setting 'orthorhombic'
loop_
_space_group_symop_operation_xyz
x,y,z
-x,-y,z
-x,y,z
x,-y,z
x,1/2+y,1/2+z
-x,1/2-y,1/2+z
-x,1/2+y,1/2+z
x,1/2-y,1/2+z
1/2+x,y,1/2+z
1/2-x,-y,1/2+z
1/2-x,y,1/2+z
1/2+x,-y,1/2+z
1/2+x,1/2+y,z
1/2-x,1/2-y,z
1/2-x,1/2+y,z
1/2+x,1/2-y,z
loop_
_atom_site_type_symbol
_atom_site_label
_atom_site_fract_x
_atom_site_fract_y
_atom_site_fract_z
Si Si1 0.000000 0.500000 0.482381
Si Si2 0.638037 0.879429 0.493426
Si Si3 0.739973 0.336728 0.753300
Si Si4 0.894642 0.769100 0.876912
Si Si5 0.649715 0.868900 0.953580
Si Si6 0.601384 0.927532 0.808202
Si Si7 0.603741 0.841903 0.119730
Si Si8 0.891249 0.800640 0.139219
O O1 0.919881 0.556759 0.483394
O O2 0.600119 0.820399 0.444260
O O3 0.742692 0.884685 0.464695
O O4 0.634764 0.855935 0.580692
O O5 0.676655 0.300729 0.815926
O O6 0.803766 0.392670 0.785861
O O7 0.673576 0.360596 0.685922
O O8 0.822986 0.299135 0.710533
O O9 0.863746 0.701089 0.913183
O O10 0.000000 0.761020 0.845719
O O11 0.601972 0.917975 0.897918
O O12 0.610497 0.872489 0.037970
O O13 0.500000 0.902805 0.780441
O O14 0.606336 0.000000 0.784627
O O15 0.500000 0.847533 0.150194
O O16 0.623153 0.767818 0.101845
O O17 0.000000 0.805576 0.157133
#
# Coordination Sequence:
#
# PCOD9369936 Si02
#       8
#     4  16  16  16  16  16  16  16
#     4  12  28  48  76 116 146 204 266 318 368 464
#     4  12  24  44  73 108 146 194 252 310 370 447
#     4  12  26  42  70 105 149 196 238 304 390 465
#     4  12  25  45  72 113 153 188 247 317 385 453
#     4  12  25  45  77 104 145 193 251 313 380 443
#     4  11  27  50  71 102 141 195 259 316 373 459
#     4  11  24  41  68 106 148 183 236 310 385 450
#     4  11  23  42  65 104 150 193 238 304 375 455
#
# _framework density 21.618932000000001
#
# number of rings (size 3 to 8) (size 9 to 14) (size 15 to 20)
#    0.000    0.414    5.517    2.897    4.828    0.000 
#    1.241    0.690    1.517    2.069    0.000    0.000 
#    0.000    0.000    0.000    0.000    0.000    0.000 
#
# Total GULP energy -161693.997793 kJ/mol
# GULP energy per Si atom -5575.655096 kJ/mol
# Density = 2.156973 g / cm^3
# Si number density = 21.618932 Si / 1000 Ang^3
#
#
#
# Elastic Constant Matrix: (Units=GPa)
#
#
# Indices 1 2 3 4 5 6 
#
# 1 190.6989 47.1475 42.2121 0.0000 0.0000 0.0000
# 2 47.1475 80.1411 25.4895 0.0000 0.0000 0.0000
# 3 42.2121 25.4895 96.8741 0.0000 0.0000 0.0000
# 4 0.0000 0.0000 0.0000 8.8288 0.0000 0.0000
# 5 0.0000 0.0000 0.0000 0.0000 -12.1127 0.0000
# 6 0.0000 0.0000 0.0000 0.0000 0.0000 38.3631
#
#
#
# Elastic Compliance Matrix: (Units=1/GPa)
#
#
# Indices 1 2 3 4 5 6 
#
# 1 0.006468 -0.003174 -0.001983 0.000000 0.000000 0.000000
# 2 -0.003174 0.015175 -0.002610 0.000000 0.000000 0.000000
# 3 -0.001983 -0.002610 0.011873 0.000000 0.000000 0.000000
# 4 0.000000 0.000000 0.000000 0.113265 0.000000 0.000000
# 5 0.000000 0.000000 0.000000 0.000000 -0.082558 0.000000
# 6 0.000000 0.000000 0.000000 0.000000 0.000000 0.026067
#
#
# Mechanical properties :
#
#
# Convention : Reuss Voigt Hill
#
# Bulk Modulus (GPa) = 55.60984 66.37914 60.99449
# Shear Modulus (GPa) = 44.71522 23.87352 34.29437
#
# Velocity S-wave (km/s) = 4.55283 3.32669 3.98717
# Velocity P-wave (km/s) = 7.30864 6.74734 7.03359
#
# Compressibility (1/GPa) = 0.01798243
#
# Stress axis : x y z
#
# Youngs Moduli (GPa) = 154.61701 65.89577 84.22147
#
# Poissons Ratio (x) = 0.20917 0.16701
# Poissons Ratio (y) = 0.49079 0.21980
# Poissons Ratio (z) = 0.30661 0.17198
#
# Static dielectric constant tensor:
#      x y z
#    x 1.862100 0.000000 0.000000 
#    y 0.000000 1.785600 0.000000 
#    z 0.000000 0.000000 1.816700 
# 
# From -- ./inp_files/20292.got.cif
#   From: 2010.05.17/outbox.cif.g08.bks.cpg/sg42_11_cif.got.tgz:20292.got - 2010.06.03 19:03:34.
