data_PCOD9369848
_publ_section_title
;
Structure prediction by ZEFSAII (Michael W. Deem and Ramdas Pophale) SiO2 
 PCOD9369848
Probable space group: F M M 2
;
_chemical_formula_sum "Si O2"
_cell_formula_units_Z 116
_cell_length_a 30.905904
_cell_length_b 8.220529
_cell_length_c 25.019548
_cell_angle_alpha 90.000000
_cell_angle_beta 90.000000
_cell_angle_gamma 90.000000
_cell_volume 6356.538424
_symmetry_space_group_name_H-M "F M M 2"
_symmetry_group_IT_number 42
_symmetry_cell_setting 'orthorhombic'
loop_
_space_group_symop_operation_xyz
x,y,z
-x,-y,z
-x,y,z
x,-y,z
x,1/2+y,1/2+z
-x,1/2-y,1/2+z
-x,1/2+y,1/2+z
x,1/2-y,1/2+z
1/2+x,y,1/2+z
1/2-x,-y,1/2+z
1/2-x,y,1/2+z
1/2+x,-y,1/2+z
1/2+x,1/2+y,z
1/2-x,1/2-y,z
1/2-x,1/2+y,z
1/2+x,1/2-y,z
loop_
_atom_site_type_symbol
_atom_site_label
_atom_site_fract_x
_atom_site_fract_y
_atom_site_fract_z
Si Si1 0.386722 0.311840 0.352740
Si Si2 0.796781 0.688594 0.007088
Si Si3 0.565402 0.186100 0.453456
Si Si4 0.500000 0.500000 0.455548
Si Si5 0.951408 0.803619 0.764536
Si Si6 0.121950 0.685810 0.560481
Si Si7 0.451925 0.304026 0.639429
Si Si8 0.701311 0.809882 0.387810
O O1 0.393591 0.500000 0.365998
O O2 0.407357 0.202654 0.399240
O O3 0.413406 0.271600 0.299406
O O4 0.335679 0.277532 0.353485
O O5 0.793365 0.500000 0.993082
O O6 0.750000 0.750000 0.025793
O O7 0.834307 0.715359 0.050160
O O8 0.807123 0.778342 0.951089
O O9 0.536502 0.350142 0.455573
O O10 0.595809 0.194825 0.505073
O O11 0.546755 0.000000 0.453938
O O12 0.948186 0.760231 0.701929
O O13 0.000000 0.754634 0.783517
O O14 0.949296 0.000000 0.768246
O O15 0.134401 0.500000 0.570771
O O16 0.088073 0.741553 0.605295
O O17 0.500000 0.248571 0.620165
O O18 0.452106 0.500000 0.636006
O O19 0.750000 0.750000 0.377430
O O20 0.698574 0.000000 0.377500
#
# Coordination Sequence:
#
# PCOD9369848 Si02
#       8
#    16  16  16   4  16  16  16  16
#     4  12  23  37  57  85 118 157 199 243 292 351
#     4  11  21  35  57  83 115 150 189 234 287 352
#     4  11  25  40  55  84 120 158 200 243 290 354
#     4  12  26  40  56  78 120 164 202 232 304 356
#     4   9  20  39  60  84 112 151 198 249 298 344
#     4  11  23  37  56  83 118 153 193 242 292 345
#     4   9  20  38  61  84 111 150 199 246 295 347
#     4  11  21  36  57  84 116 152 190 239 294 354
#
# _framework density 18.248926999999998
#
# number of rings (size 3 to 8) (size 9 to 14) (size 15 to 20)
#    0.000    1.379    2.069    6.000    3.862    1.103 
#    0.000    1.379    0.000    0.828    0.000    0.000 
#    0.000    0.000    0.000    0.000    0.000    0.000 
#
# Total GULP energy -161577.309703 kJ/mol
# GULP energy per Si atom -5571.631369 kJ/mol
# Density = 1.820739 g / cm^3
# Si number density = 18.248927 Si / 1000 Ang^3
#
#
#
# Elastic Constant Matrix: (Units=GPa)
#
#
# Indices 1 2 3 4 5 6 
#
# 1 134.6034 30.8390 45.2784 0.0000 0.0001 -0.0006
# 2 30.8390 96.2370 12.8311 0.0000 0.0001 -0.0008
# 3 45.2784 12.8311 52.1881 0.0000 0.0000 0.0000
# 4 0.0000 0.0000 0.0000 19.1315 0.0000 -0.0001
# 5 0.0001 0.0001 0.0000 0.0000 17.9394 -0.0001
# 6 -0.0006 -0.0008 0.0000 -0.0001 -0.0001 -75.5790
#
#
#
# Elastic Compliance Matrix: (Units=1/GPa)
#
#
# Indices 1 2 3 4 5 6 
#
# 1 0.010971 -0.002323 -0.008948 0.000000 0.000000 0.000000
# 2 -0.002323 0.011235 -0.000747 0.000000 0.000000 0.000000
# 3 -0.008948 -0.000747 0.027108 0.000000 0.000000 0.000000
# 4 0.000000 0.000000 0.000000 0.052270 0.000000 0.000000
# 5 0.000000 0.000000 0.000000 0.000000 0.055743 0.000000
# 6 0.000000 0.000000 0.000000 0.000000 0.000000 -0.013231
#
#
# Mechanical properties :
#
#
# Convention : Reuss Voigt Hill
#
# Bulk Modulus (GPa) = 39.55778 51.21396 45.38587
# Shear Modulus (GPa) = 28.31944 5.23705 16.77825
#
# Velocity S-wave (km/s) = 3.94362 1.69588 3.03547
# Velocity P-wave (km/s) = 6.51613 5.65329 6.09999
#
# Compressibility (1/GPa) = 0.02527948
#
# Stress axis : x y z
#
# Youngs Moduli (GPa) = 91.14768 89.00810 36.88948
#
# Poissons Ratio (x) = 0.20674 0.33007
# Poissons Ratio (y) = 0.21171 0.02756
# Poissons Ratio (z) = 0.81555 0.06649
#
# Static dielectric constant tensor:
#      x y z
#    x 1.656960 0.000000 0.000000 
#    y 0.000000 1.633810 0.000000 
#    z 0.000000 0.000000 1.604040 
# 
# From -- ./inp_files/28459.got.cif
#   From: 2010.05.17/outbox.cif.g08.bks.cpg/sg42_15_cif.got.tgz:28459.got - 2010.06.03 19:03:34.
