data_PCOD9369237
_publ_section_title
;
Structure prediction by ZEFSAII (Michael W. Deem and Ramdas Pophale) SiO2 
 PCOD9369237
Probable space group: F M M 2
;
_chemical_formula_sum "Si O2"
_cell_formula_units_Z 80
_cell_length_a 22.099338
_cell_length_b 16.923297
_cell_length_c 7.801751
_cell_angle_alpha 90.000000
_cell_angle_beta 90.000000
_cell_angle_gamma 90.000000
_cell_volume 2917.805415
_symmetry_space_group_name_H-M "F M M 2"
_symmetry_group_IT_number 42
_symmetry_cell_setting 'orthorhombic'
loop_
_space_group_symop_operation_xyz
x,y,z
-x,-y,z
-x,y,z
x,-y,z
x,1/2+y,1/2+z
-x,1/2-y,1/2+z
-x,1/2+y,1/2+z
x,1/2-y,1/2+z
1/2+x,y,1/2+z
1/2-x,-y,1/2+z
1/2-x,y,1/2+z
1/2+x,-y,1/2+z
1/2+x,1/2+y,z
1/2-x,1/2-y,z
1/2-x,1/2+y,z
1/2+x,1/2-y,z
loop_
_atom_site_type_symbol
_atom_site_label
_atom_site_fract_x
_atom_site_fract_y
_atom_site_fract_z
Si Si1 0.070013 0.916649 0.897470
Si Si2 0.808732 0.806015 0.107620
Si Si3 0.123634 0.586569 0.019650
Si Si4 0.228001 0.591238 0.289064
Si Si5 0.070483 0.759892 0.542541
O O1 0.084707 0.916546 0.696977
O O2 0.075632 0.826690 0.959908
O O3 0.000000 0.927005 0.927423
O O4 0.099626 0.000000 0.965364
O O5 0.750000 0.750000 0.104060
O O6 0.793382 0.869941 0.253878
O O7 0.805830 0.856942 0.932246
O O8 0.866191 0.751390 0.146860
O O9 0.118764 0.500000 0.935245
O O10 0.190101 0.593714 0.109888
O O11 0.088947 0.661313 0.935599
O O12 0.232223 0.500000 0.336947
O O13 0.000000 0.767491 0.603333
#
# Coordination Sequence:
#
# PCOD9369237 Si02
#       5
#    16  16  16  16  16
#     4   9  18  34  59  89 122 164 219 276 332 404
#     4  12  24  43  69 100 140 179 232 288 349 419
#     4  10  20  38  62  94 130 176 230 281 338 409
#     4  11  24  42  70 101 136 180 230 288 351 418
#     4  11  23  39  65  99 135 179 228 288 350 407
#
# _framework density 27.417867999999999
#
# number of rings (size 3 to 8) (size 9 to 14) (size 15 to 20)
#    0.000    1.400    4.000    1.800    0.000    2.000 
#    0.000    0.000    0.000    1.200    0.000    2.800 
#    0.000    0.000    0.000    0.000    0.000    0.000 
#
# Total GULP energy -111500.719725 kJ/mol
# GULP energy per Si atom -5575.035986 kJ/mol
# Density = 2.735546 g / cm^3
# Si number density = 27.417868 Si / 1000 Ang^3
#
#
#
# Elastic Constant Matrix: (Units=GPa)
#
#
# Indices 1 2 3 4 5 6 
#
# 1 192.7833 93.1378 6.0132 0.0000 0.0000 0.0000
# 2 93.1378 170.0286 0.3717 -0.0001 0.0000 0.0000
# 3 6.0132 0.3717 62.7143 -0.0002 0.0001 0.0000
# 4 0.0000 -0.0001 -0.0002 43.3225 0.0000 0.0000
# 5 0.0000 0.0000 0.0001 0.0000 20.6852 0.0000
# 6 0.0000 0.0000 0.0000 0.0000 0.0000 43.4575
#
#
#
# Elastic Compliance Matrix: (Units=1/GPa)
#
#
# Indices 1 2 3 4 5 6 
#
# 1 0.007081 -0.003877 -0.000656 0.000000 0.000000 0.000000
# 2 -0.003877 0.008005 0.000324 0.000000 0.000000 0.000000
# 3 -0.000656 0.000324 0.016006 0.000000 0.000000 0.000000
# 4 0.000000 0.000000 0.000000 0.023083 0.000000 0.000000
# 5 0.000000 0.000000 0.000000 0.000000 0.048344 0.000000
# 6 0.000000 0.000000 0.000000 0.000000 0.000000 0.023011
#
#
# Mechanical properties :
#
#
# Convention : Reuss Voigt Hill
#
# Bulk Modulus (GPa) = 44.10366 69.39682 56.75024
# Shear Modulus (GPa) = 35.33446 43.22659 39.28052
#
# Velocity S-wave (km/s) = 3.59379 3.97493 3.78916
# Velocity P-wave (km/s) = 5.77418 6.81414 6.31560
#
# Compressibility (1/GPa) = 0.02267385
#
# Stress axis : x y z
#
# Youngs Moduli (GPa) = 141.22639 124.92912 62.47544
#
# Poissons Ratio (x) = 0.48439 0.04098
# Poissons Ratio (y) = 0.54757 -0.02026
# Poissons Ratio (z) = 0.09264 -0.04052
#
# Static dielectric constant tensor:
#      x y z
#    x 2.326670 0.000000 0.000000 
#    y 0.000000 2.358570 0.000000 
#    z 0.000000 0.000000 2.257190 
# 
# From -- ./inp_files/10002.got.cif
#   From: 2010.05.17/outbox.cif.g08.bks.cpg/sg42_6_cif.got.tgz:10002.got - 2010.06.03 19:03:34.
