data_PCOD9369406
_publ_section_title
;
Structure prediction by ZEFSAII (Michael W. Deem and Ramdas Pophale) SiO2 
 PCOD9369406
Probable space group: F M M 2
;
_chemical_formula_sum "Si O2"
_cell_formula_units_Z 80
_cell_length_a 9.383785
_cell_length_b 16.332975
_cell_length_c 28.918812
_cell_angle_alpha 90.000000
_cell_angle_beta 90.000000
_cell_angle_gamma 90.000000
_cell_volume 4432.245359
_symmetry_space_group_name_H-M "F M M 2"
_symmetry_group_IT_number 42
_symmetry_cell_setting 'orthorhombic'
loop_
_space_group_symop_operation_xyz
x,y,z
-x,-y,z
-x,y,z
x,-y,z
x,1/2+y,1/2+z
-x,1/2-y,1/2+z
-x,1/2+y,1/2+z
x,1/2-y,1/2+z
1/2+x,y,1/2+z
1/2-x,-y,1/2+z
1/2-x,y,1/2+z
1/2+x,-y,1/2+z
1/2+x,1/2+y,z
1/2-x,1/2-y,z
1/2-x,1/2+y,z
1/2+x,1/2-y,z
loop_
_atom_site_type_symbol
_atom_site_label
_atom_site_fract_x
_atom_site_fract_y
_atom_site_fract_z
Si Si1 0.161486 0.593985 0.581230
Si Si2 0.170974 0.000000 0.994213
Si Si3 0.834715 0.404891 0.259000
Si Si4 0.829355 0.000000 0.397319
Si Si5 0.167001 0.169556 0.662390
Si Si6 0.670707 0.667424 0.341403
O O1 0.156718 0.500000 0.599208
O O2 0.203611 0.577956 0.527732
O O3 0.267283 0.641793 0.613812
O O4 0.000000 0.626986 0.583332
O O5 0.252234 0.000000 0.946610
O O6 0.000000 0.000000 0.987816
O O7 0.816443 0.500000 0.270966
O O8 0.812130 0.393783 0.204285
O O9 0.729496 0.351676 0.290049
O O10 0.000000 0.381543 0.268626
O O11 0.793789 0.915487 0.370293
O O12 0.000000 0.000000 0.403271
O O13 0.250000 0.250000 0.677425
O O14 0.000000 0.184777 0.657486
O O15 0.500000 0.678234 0.341774
O O16 0.750000 0.750000 0.358089
#
# Coordination Sequence:
#
# PCOD9369406 Si02
#       6
#    16   8  16   8  16  16
#     4   8  17  35  56  80 106 138 181 227 277 337
#     4   8  18  36  61  86 109 141 184 233 289 350
#     4  10  21  37  57  84 115 151 196 239 287 347
#     4  10  22  40  61  88 119 151 196 243 297 356
#     4  11  22  34  51  79 115 153 192 235 282 339
#     4  11  23  40  60  88 121 156 198 244 292 349
#
# _framework density 18.049543
#
# number of rings (size 3 to 8) (size 9 to 14) (size 15 to 20)
#    0.600    1.600    1.000    2.400    0.000    6.800 
#    0.000    1.000    0.000    2.400    0.000    0.000 
#    0.000    0.000    0.000    0.000    0.000    0.000 
#
# Total GULP energy -111399.766633 kJ/mol
# GULP energy per Si atom -5569.988332 kJ/mol
# Density = 1.800846 g / cm^3
# Si number density = 18.049543 Si / 1000 Ang^3
#
#
#
# Elastic Constant Matrix: (Units=GPa)
#
#
# Indices 1 2 3 4 5 6 
#
# 1 80.6279 50.2096 59.0396 0.0000 0.0000 0.0000
# 2 50.2096 85.6351 37.1519 0.0000 0.0000 0.0000
# 3 59.0396 37.1519 104.9740 0.0000 0.0000 0.0000
# 4 0.0000 0.0000 0.0000 9.6501 0.0000 0.0000
# 5 0.0000 0.0000 0.0000 0.0000 33.1386 0.0000
# 6 0.0000 0.0000 0.0000 0.0000 0.0000 29.2020
#
#
#
# Elastic Compliance Matrix: (Units=1/GPa)
#
#
# Indices 1 2 3 4 5 6 
#
# 1 0.028116 -0.011370 -0.011789 0.000000 0.000000 0.000000
# 2 -0.011370 0.018394 -0.000115 0.000000 0.000000 0.000000
# 3 -0.011789 -0.000115 0.016197 0.000000 0.000000 0.000000
# 4 0.000000 0.000000 0.000000 0.103626 0.000000 0.000000
# 5 0.000000 0.000000 0.000000 0.000000 0.030176 0.000000
# 6 0.000000 0.000000 0.000000 0.000000 0.000000 0.034244
#
#
# Mechanical properties :
#
#
# Convention : Reuss Voigt Hill
#
# Bulk Modulus (GPa) = 61.88642 62.67105 62.27873
# Shear Modulus (GPa) = 17.68739 22.72052 20.20395
#
# Velocity S-wave (km/s) = 3.13379 3.55179 3.34931
# Velocity P-wave (km/s) = 6.88880 7.18452 7.03821
#
# Compressibility (1/GPa) = 0.01615863
#
# Stress axis : x y z
#
# Youngs Moduli (GPa) = 35.56751 54.36557 61.73956
#
# Poissons Ratio (x) = 0.61815 0.72783
# Poissons Ratio (y) = 0.40441 0.00710
# Poissons Ratio (z) = 0.41929 0.00625
#
# Static dielectric constant tensor:
#      x y z
#    x 1.601160 0.000000 0.000000 
#    y 0.000000 1.652960 0.000000 
#    z 0.000000 0.000000 1.602740 
# 
# From -- ./inp_files/31334.got.cif
#   From: 2010.05.17/outbox.cif.g08.bks.cpg/sg42_16_cif.got.tgz:31334.got - 2010.06.03 19:03:34.
