data_PCOD9369133
_publ_section_title
;
Structure prediction by ZEFSAII (Michael W. Deem and Ramdas Pophale) SiO2 
 PCOD9369133
Probable space group: F M M 2
;
_chemical_formula_sum "Si O2"
_cell_formula_units_Z 96
_cell_length_a 22.400478
_cell_length_b 14.703074
_cell_length_c 13.600328
_cell_angle_alpha 90.000000
_cell_angle_beta 90.000000
_cell_angle_gamma 90.000000
_cell_volume 4479.348074
_symmetry_space_group_name_H-M "F M M 2"
_symmetry_group_IT_number 42
_symmetry_cell_setting 'orthorhombic'
loop_
_space_group_symop_operation_xyz
x,y,z
-x,-y,z
-x,y,z
x,-y,z
x,1/2+y,1/2+z
-x,1/2-y,1/2+z
-x,1/2+y,1/2+z
x,1/2-y,1/2+z
1/2+x,y,1/2+z
1/2-x,-y,1/2+z
1/2-x,y,1/2+z
1/2+x,-y,1/2+z
1/2+x,1/2+y,z
1/2-x,1/2-y,z
1/2-x,1/2+y,z
1/2+x,1/2-y,z
loop_
_atom_site_type_symbol
_atom_site_label
_atom_site_fract_x
_atom_site_fract_y
_atom_site_fract_z
Si Si1 0.101266 0.893980 0.538970
Si Si2 0.931358 0.287089 0.444084
Si Si3 0.622602 0.104833 0.261938
Si Si4 0.839621 0.603278 0.552678
Si Si5 0.760220 0.349211 0.728309
Si Si6 0.776247 0.892443 0.436263
O O1 0.071834 0.820514 0.467139
O O2 0.093392 0.876035 0.655059
O O3 0.171866 0.883566 0.515539
O O4 0.085522 0.000000 0.520125
O O5 0.899759 0.325958 0.345511
O O6 0.895391 0.332612 0.534692
O O7 0.000000 0.315407 0.441098
O O8 0.694522 0.109352 0.245605
O O9 0.608325 0.000000 0.289033
O O10 0.855826 0.500000 0.526934
O O11 0.806825 0.602676 0.657332
O O12 0.786946 0.635589 0.479950
O O13 0.750000 0.250000 0.684775
O O14 0.789225 0.341276 0.835909
O O15 0.772479 0.000000 0.412270
#
# Coordination Sequence:
#
# PCOD9369133 Si02
#       6
#    16  16  16  16  16  16
#     4  10  23  44  70 100 135 176 229 294 352 404
#     4  12  27  44  66 100 141 186 232 276 334 411
#     4  11  22  42  71 100 131 178 238 291 337 395
#     4  11  23  39  63  97 139 178 217 278 349 412
#     4  12  22  34  63 100 137 177 224 286 350 412
#     4  10  20  36  62  96 132 167 213 280 356 409
#
# _framework density 21.431691000000001
#
# number of rings (size 3 to 8) (size 9 to 14) (size 15 to 20)
#    0.000    1.000    3.333    4.000    0.000    2.333 
#    0.000    1.667    0.000    1.000    0.000    7.000 
#    0.000    0.000    0.000    0.000    0.000    0.000 
#
# Total GULP energy -134126.650286 kJ/mol
# GULP energy per Si atom -5588.610429 kJ/mol
# Density = 2.138291 g / cm^3
# Si number density = 21.431691 Si / 1000 Ang^3
#
#
#
# Elastic Constant Matrix: (Units=GPa)
#
#
# Indices 1 2 3 4 5 6 
#
# 1 99.4641 37.1998 27.6218 0.0000 0.0000 0.0000
# 2 37.1998 106.0259 56.5202 0.0000 0.0000 0.0000
# 3 27.6218 56.5202 125.0836 0.0000 0.0000 0.0000
# 4 0.0000 0.0000 0.0000 33.6440 0.0000 0.0000
# 5 0.0000 0.0000 0.0000 0.0000 13.7002 0.0000
# 6 0.0000 0.0000 0.0000 0.0000 0.0000 9.3267
#
#
#
# Elastic Compliance Matrix: (Units=1/GPa)
#
#
# Indices 1 2 3 4 5 6 
#
# 1 0.011659 -0.003581 -0.000957 0.000000 0.000000 0.000000
# 2 -0.003581 0.013524 -0.005320 0.000000 0.000000 0.000000
# 3 -0.000957 -0.005320 0.010610 0.000000 0.000000 0.000000
# 4 0.000000 0.000000 0.000000 0.029723 0.000000 0.000000
# 5 0.000000 0.000000 0.000000 0.000000 0.072992 0.000000
# 6 0.000000 0.000000 0.000000 0.000000 0.000000 0.107219
#
#
# Mechanical properties :
#
#
# Convention : Reuss Voigt Hill
#
# Bulk Modulus (GPa) = 62.19799 63.69526 62.94662
# Shear Modulus (GPa) = 18.46376 25.28296 21.87336
#
# Velocity S-wave (km/s) = 2.93835 3.43840 3.19816
# Velocity P-wave (km/s) = 6.37153 6.74893 6.56294
#
# Compressibility (1/GPa) = 0.01607769
#
# Stress axis : x y z
#
# Youngs Moduli (GPa) = 85.77302 73.94233 94.25128
#
# Poissons Ratio (x) = 0.26475 0.09016
# Poissons Ratio (y) = 0.30711 0.50144
# Poissons Ratio (z) = 0.08205 0.39339
#
# Static dielectric constant tensor:
#      x y z
#    x 1.762280 0.000000 0.000000 
#    y 0.000000 1.821090 0.000000 
#    z 0.000000 0.000000 1.816670 
# 
# From -- ./inp_files/15821.got.cif
#   From: 2010.05.17/outbox.cif.g08.bks.cpg/sg42_8_cif.got.tgz:15821.got - 2010.06.03 19:03:34.
