data_PCOD9369713
_publ_section_title
;
Structure prediction by ZEFSAII (Michael W. Deem and Ramdas Pophale) SiO2 
 PCOD9369713
Probable space group: F M M 2
;
_chemical_formula_sum "Si O2"
_cell_formula_units_Z 116
_cell_length_a 21.351853
_cell_length_b 27.741930
_cell_length_c 9.311413
_cell_angle_alpha 90.000000
_cell_angle_beta 90.000000
_cell_angle_gamma 90.000000
_cell_volume 5515.537380
_symmetry_space_group_name_H-M "F M M 2"
_symmetry_group_IT_number 42
_symmetry_cell_setting 'orthorhombic'
loop_
_space_group_symop_operation_xyz
x,y,z
-x,-y,z
-x,y,z
x,-y,z
x,1/2+y,1/2+z
-x,1/2-y,1/2+z
-x,1/2+y,1/2+z
x,1/2-y,1/2+z
1/2+x,y,1/2+z
1/2-x,-y,1/2+z
1/2-x,y,1/2+z
1/2+x,-y,1/2+z
1/2+x,1/2+y,z
1/2-x,1/2-y,z
1/2-x,1/2+y,z
1/2+x,1/2-y,z
loop_
_atom_site_type_symbol
_atom_site_label
_atom_site_fract_x
_atom_site_fract_y
_atom_site_fract_z
Si Si1 0.622566 0.948966 0.158910
Si Si2 0.928866 0.347487 0.856840
Si Si3 0.383834 0.759712 0.343443
Si Si4 0.191632 0.887592 0.195569
Si Si5 0.745644 0.555801 0.460393
Si Si6 0.427584 0.356345 0.696349
Si Si7 0.500000 0.500000 0.563036
Si Si8 0.695677 0.281637 0.105660
O O1 0.613026 0.901290 0.251566
O O2 0.630308 0.000000 0.239908
O O3 0.556805 0.958918 0.074265
O O4 0.681416 0.943026 0.054653
O O5 0.923507 0.289430 0.840210
O O6 0.877018 0.374544 0.759993
O O7 0.000000 0.362699 0.825094
O O8 0.914799 0.354952 0.025466
O O9 0.412892 0.805162 0.264091
O O10 0.363827 0.777042 0.501026
O O11 0.323292 0.744007 0.252937
O O12 0.232421 0.910075 0.324670
O O13 0.199746 0.924567 0.064008
O O14 0.215544 0.836123 0.136671
O O15 0.753711 0.500000 0.418371
O O16 0.500000 0.366324 0.722547
O O17 0.750000 0.250000 0.038605
#
# Coordination Sequence:
#
# PCOD9369713 Si02
#       8
#    16  16  16  16  16  16   4  16
#     4   9  18  34  60  94 129 166 223 282 334 395
#     4  10  22  42  64  97 139 181 232 289 344 419
#     4  11  23  41  60  94 132 180 228 279 342 412
#     4  11  26  43  68 103 135 185 233 286 352 418
#     4  11  24  44  69  99 139 179 230 286 352 423
#     4  11  19  35  65  95 133 176 222 280 350 407
#     4   8  16  36  60  96 132 162 238 284 336 398
#     4  11  26  41  63  92 135 178 228 280 334 411
#
# _framework density 21.031495
#
# number of rings (size 3 to 8) (size 9 to 14) (size 15 to 20)
#    0.414    1.103    3.448    1.241    7.724    0.000 
#    0.000    0.690    0.000    2.069    0.000    0.000 
#    0.000    0.000    0.000    0.000    0.000    0.000 
#
# Total GULP energy -161554.572315 kJ/mol
# GULP energy per Si atom -5570.847321 kJ/mol
# Density = 2.098363 g / cm^3
# Si number density = 21.031495 Si / 1000 Ang^3
#
#
#
# Elastic Constant Matrix: (Units=GPa)
#
#
# Indices 1 2 3 4 5 6 
#
# 1 89.4693 41.5777 36.7100 0.0000 -0.0002 0.0000
# 2 41.5777 143.8321 36.7326 0.0000 0.0000 0.0000
# 3 36.7100 36.7326 67.1290 0.0000 -0.0006 -0.0001
# 4 0.0000 0.0000 0.0000 12.1938 0.0000 0.0000
# 5 -0.0002 0.0000 -0.0006 0.0000 12.8784 0.0001
# 6 0.0000 0.0000 -0.0001 0.0000 0.0001 22.1932
#
#
#
# Elastic Compliance Matrix: (Units=1/GPa)
#
#
# Indices 1 2 3 4 5 6 
#
# 1 0.015230 -0.002645 -0.006881 0.000000 0.000000 0.000000
# 2 -0.002645 0.008541 -0.003227 0.000000 0.000000 0.000000
# 3 -0.006881 -0.003227 0.020426 0.000000 0.000001 0.000000
# 4 0.000000 0.000000 0.000000 0.082009 0.000000 0.000000
# 5 0.000000 0.000000 0.000001 0.000000 0.077650 0.000000
# 6 0.000000 0.000000 0.000000 0.000000 0.000000 0.045059
#
#
# Mechanical properties :
#
#
# Convention : Reuss Voigt Hill
#
# Bulk Modulus (GPa) = 53.50543 58.94123 56.22333
# Shear Modulus (GPa) = 17.81573 21.81373 19.81473
#
# Velocity S-wave (km/s) = 2.91365 3.22404 3.07277
# Velocity P-wave (km/s) = 6.06754 6.47652 6.27536
#
# Compressibility (1/GPa) = 0.01868969
#
# Stress axis : x y z
#
# Youngs Moduli (GPa) = 65.66163 117.07703 48.95816
#
# Poissons Ratio (x) = 0.30968 0.33688
# Poissons Ratio (y) = 0.17368 0.15800
# Poissons Ratio (z) = 0.45182 0.37784
#
# Static dielectric constant tensor:
#      x y z
#    x 1.807370 0.000000 0.000000 
#    y 0.000000 1.817650 0.000000 
#    z 0.000000 0.000000 1.751310 
# 
# From -- ./inp_files/4873.got.cif
#   From: 2010.05.17/outbox.cif.g08.bks.cpg/sg42_3_cif.got.tgz:4873.got - 2010.06.03 19:03:34.
