data_PCOD9369313
_publ_section_title
;
Structure prediction by ZEFSAII (Michael W. Deem and Ramdas Pophale) SiO2 
 PCOD9369313
Probable space group: F M M 2
;
_chemical_formula_sum "Si O2"
_cell_formula_units_Z 112
_cell_length_a 13.966199
_cell_length_b 29.816003
_cell_length_c 13.837400
_cell_angle_alpha 90.000000
_cell_angle_beta 90.000000
_cell_angle_gamma 90.000000
_cell_volume 5762.117959
_symmetry_space_group_name_H-M "F M M 2"
_symmetry_group_IT_number 42
_symmetry_cell_setting 'orthorhombic'
loop_
_space_group_symop_operation_xyz
x,y,z
-x,-y,z
-x,y,z
x,-y,z
x,1/2+y,1/2+z
-x,1/2-y,1/2+z
-x,1/2+y,1/2+z
x,1/2-y,1/2+z
1/2+x,y,1/2+z
1/2-x,-y,1/2+z
1/2-x,y,1/2+z
1/2+x,-y,1/2+z
1/2+x,1/2+y,z
1/2-x,1/2-y,z
1/2-x,1/2+y,z
1/2+x,1/2-y,z
loop_
_atom_site_type_symbol
_atom_site_label
_atom_site_fract_x
_atom_site_fract_y
_atom_site_fract_z
Si Si1 0.806761 0.792875 0.014630
Si Si2 0.890490 0.182848 0.820983
Si Si3 0.112351 0.551447 0.172723
Si Si4 0.734909 0.389091 0.061873
Si Si5 0.385322 0.773826 0.725273
Si Si6 0.613889 0.125448 0.753138
Si Si7 0.711428 0.909728 0.347871
O O1 0.750000 0.750000 0.977247
O O2 0.743381 0.837335 0.033165
O O3 0.852825 0.778811 0.115399
O O4 0.883927 0.806276 0.934716
O O5 0.849586 0.226576 0.767144
O O6 0.831805 0.137517 0.808825
O O7 0.000000 0.175293 0.791548
O O8 0.121308 0.500000 0.139350
O O9 0.175976 0.584222 0.106324
O O10 0.157331 0.555096 0.280500
O O11 0.000000 0.563388 0.174104
O O12 0.654283 0.385179 0.145494
O O13 0.698656 0.411842 0.962723
O O14 0.500000 0.770519 0.730086
O O15 0.363521 0.821831 0.774446
O O16 0.500000 0.119318 0.758161
O O17 0.675984 0.094285 0.823713
#
# Coordination Sequence:
#
# PCOD9369313 Si02
#       7
#    16  16  16  16  16  16  16
#     4  10  21  32  51  76 111 149 194 232 271 331
#     4  10  21  34  51  77 111 150 192 237 281 332
#     4  10  22  41  63  89 118 146 187 245 303 355
#     4   9  21  38  57  84 113 157 189 233 286 347
#     4   9  19  32  48  69 102 149 189 225 274 323
#     4   9  19  35  54  79 112 149 191 233 277 327
#     4  10  21  36  60  84 110 146 192 235 289 343
#
# _framework density 19.437296
#
# number of rings (size 3 to 8) (size 9 to 14) (size 15 to 20)
#    0.000    2.429    0.000    0.857   10.000    5.143 
#    0.000    0.714    0.000    6.857    0.000    0.000 
#    0.000    0.000    0.000    0.000    0.000    0.000 
#
# Total GULP energy -156167.774892 kJ/mol
# GULP energy per Si atom -5577.420532 kJ/mol
# Density = 1.939306 g / cm^3
# Si number density = 19.437296 Si / 1000 Ang^3
#
#
#
# Elastic Constant Matrix: (Units=GPa)
#
#
# Indices 1 2 3 4 5 6 
#
# 1 76.0529 34.2930 -12.4895 0.0000 0.0000 0.0000
# 2 34.2930 69.1961 22.5786 0.0000 0.0000 0.0000
# 3 -12.4895 22.5786 58.0680 0.0000 0.0000 0.0000
# 4 0.0000 0.0000 0.0000 20.0419 0.0000 0.0000
# 5 0.0000 0.0000 0.0000 0.0000 15.4943 0.0000
# 6 0.0000 0.0000 0.0000 0.0000 0.0000 24.3613
#
#
#
# Elastic Compliance Matrix: (Units=1/GPa)
#
#
# Indices 1 2 3 4 5 6 
#
# 1 0.020834 -0.013500 0.009730 0.000000 0.000000 0.000000
# 2 -0.013500 0.025300 -0.012741 0.000000 0.000000 0.000000
# 3 0.009730 -0.012741 0.024268 0.000000 0.000000 0.000000
# 4 0.000000 0.000000 0.000000 0.049896 0.000000 0.000000
# 5 0.000000 0.000000 0.000000 0.000000 0.064540 0.000000
# 6 0.000000 0.000000 0.000000 0.000000 0.000000 0.041049
#
#
# Mechanical properties :
#
#
# Convention : Reuss Voigt Hill
#
# Bulk Modulus (GPa) = 26.75214 32.45348 29.60281
# Shear Modulus (GPa) = 18.42520 22.57515 20.50017
#
# Velocity S-wave (km/s) = 3.08219 3.41168 3.25111
# Velocity P-wave (km/s) = 5.14390 5.67910 5.41811
#
# Compressibility (1/GPa) = 0.03738018
#
# Stress axis : x y z
#
# Youngs Moduli (GPa) = 47.99842 39.52628 41.20638
#
# Poissons Ratio (x) = 0.53361 -0.40095
# Poissons Ratio (y) = 0.64799 0.52501
# Poissons Ratio (z) = -0.46704 0.50360
#
# Static dielectric constant tensor:
#      x y z
#    x 1.681500 0.000000 0.000000 
#    y 0.000000 1.699070 0.000000 
#    z 0.000000 0.000000 1.691390 
# 
# From -- ./inp_files/14417.got.cif
#   From: 2010.05.17/outbox.cif.g08.bks.cpg/sg42_8_cif.got.tgz:14417.got - 2010.06.03 19:03:34.
