data_PCOD9369577
_publ_section_title
;
Structure prediction by ZEFSAII (Michael W. Deem and Ramdas Pophale) SiO2 
 PCOD9369577
Probable space group: F M M 2
;
_chemical_formula_sum "Si O2"
_cell_formula_units_Z 112
_cell_length_a 30.882446
_cell_length_b 15.743637
_cell_length_c 9.877427
_cell_angle_alpha 90.000000
_cell_angle_beta 90.000000
_cell_angle_gamma 90.000000
_cell_volume 4802.424955
_symmetry_space_group_name_H-M "F M M 2"
_symmetry_group_IT_number 42
_symmetry_cell_setting 'orthorhombic'
loop_
_space_group_symop_operation_xyz
x,y,z
-x,-y,z
-x,y,z
x,-y,z
x,1/2+y,1/2+z
-x,1/2-y,1/2+z
-x,1/2+y,1/2+z
x,1/2-y,1/2+z
1/2+x,y,1/2+z
1/2-x,-y,1/2+z
1/2-x,y,1/2+z
1/2+x,-y,1/2+z
1/2+x,1/2+y,z
1/2-x,1/2-y,z
1/2-x,1/2+y,z
1/2+x,1/2-y,z
loop_
_atom_site_type_symbol
_atom_site_label
_atom_site_fract_x
_atom_site_fract_y
_atom_site_fract_z
Si Si1 0.303483 0.401379 0.995380
Si Si2 0.749492 0.656814 0.740207
Si Si3 0.175974 0.903364 0.562593
Si Si4 0.952844 0.092337 0.142835
Si Si5 0.101305 0.598146 0.896895
Si Si6 0.450444 0.767250 0.417641
Si Si7 0.385547 0.399710 0.816735
O O1 0.309182 0.500000 0.022334
O O2 0.267837 0.395761 0.870687
O O3 0.348767 0.372330 0.926998
O O4 0.289702 0.363943 0.141276
O O5 0.750000 0.750000 0.799162
O O6 0.712360 0.654275 0.624572
O O7 0.151743 0.883212 0.424232
O O8 0.137508 0.899108 0.671741
O O9 0.193118 0.000000 0.560707
O O10 0.912687 0.095155 0.241861
O O11 0.951481 0.173113 0.049032
O O12 0.000000 0.092888 0.214985
O O13 0.951869 0.000000 0.072226
O O14 0.093352 0.500000 0.947128
O O15 0.072347 0.677240 0.946662
O O16 0.500000 0.755988 0.371883
O O17 0.422769 0.828934 0.319616
O O18 0.396847 0.500000 0.838782
#
# Coordination Sequence:
#
# PCOD9369577 Si02
#       7
#    16  16  16  16  16  16  16
#     4  10  21  41  64  89 128 169 205 251 311 377
#     4  11  22  38  63  95 125 162 207 256 308 369
#     4   9  20  41  64  86 123 167 200 250 315 367
#     4   9  19  38  60  84 120 159 198 254 314 362
#     4  10  22  40  61  85 117 161 206 250 308 373
#     4  11  23  37  61  90 121 161 208 259 312 368
#     4   9  20  39  63  91 127 165 201 254 318 367
#
# _framework density 23.321552000000001
#
# number of rings (size 3 to 8) (size 9 to 14) (size 15 to 20)
#    0.000    2.143    0.000    3.429    4.000    1.714 
#    2.571    0.714    0.000    5.143    0.000    0.000 
#    0.000    0.000    0.000    0.000    0.000    0.000 
#
# Total GULP energy -156067.573461 kJ/mol
# GULP energy per Si atom -5573.841909 kJ/mol
# Density = 2.326847 g / cm^3
# Si number density = 23.321552 Si / 1000 Ang^3
#
#
#
# Elastic Constant Matrix: (Units=GPa)
#
#
# Indices 1 2 3 4 5 6 
#
# 1 34.2495 24.4691 14.0304 0.0000 0.0000 0.0000
# 2 24.4691 132.5080 3.3923 0.0000 0.0000 0.0000
# 3 14.0304 3.3923 60.2103 0.0000 0.0000 0.0000
# 4 0.0000 0.0000 0.0000 26.5918 0.0000 0.0000
# 5 0.0000 0.0000 0.0000 0.0000 33.5199 0.0000
# 6 0.0000 0.0000 0.0000 0.0000 0.0000 28.3217
#
#
#
# Elastic Compliance Matrix: (Units=1/GPa)
#
#
# Indices 1 2 3 4 5 6 
#
# 1 0.037393 -0.006692 -0.008337 0.000000 0.000000 0.000000
# 2 -0.006692 0.008755 0.001066 0.000000 0.000000 0.000000
# 3 -0.008337 0.001066 0.018491 0.000000 0.000000 0.000000
# 4 0.000000 0.000000 0.000000 0.037606 0.000000 0.000000
# 5 0.000000 0.000000 0.000000 0.000000 0.029833 0.000000
# 6 0.000000 0.000000 0.000000 0.000000 0.000000 0.035309
#
#
# Mechanical properties :
#
#
# Convention : Reuss Voigt Hill
#
# Bulk Modulus (GPa) = 27.23671 34.52794 30.88232
# Shear Modulus (GPa) = 24.09065 30.02508 27.05786
#
# Velocity S-wave (km/s) = 3.21748 3.59198 3.40988
# Velocity P-wave (km/s) = 5.05045 5.66043 5.36412
#
# Compressibility (1/GPa) = 0.03671516
#
# Stress axis : x y z
#
# Youngs Moduli (GPa) = 26.74272 114.21895 54.08036
#
# Poissons Ratio (x) = 0.76432 0.45084
# Poissons Ratio (y) = 0.17895 -0.05765
# Poissons Ratio (z) = 0.22294 -0.12176
#
# Static dielectric constant tensor:
#      x y z
#    x 2.042520 0.000000 0.000000 
#    y 0.000000 1.772010 0.000000 
#    z 0.000000 0.000000 1.933090 
# 
# From -- ./inp_files/8104.got.cif
#   From: 2010.05.17/outbox.cif.g08.bks.cpg/sg42_5_cif.got.tgz:8104.got - 2010.06.03 19:03:34.
