data_PCOD9369258
_publ_section_title
;
Structure prediction by ZEFSAII (Michael W. Deem and Ramdas Pophale) SiO2 
 PCOD9369258
Probable space group: F M M 2
;
_chemical_formula_sum "Si O2"
_cell_formula_units_Z 96
_cell_length_a 17.674005
_cell_length_b 16.502820
_cell_length_c 14.631577
_cell_angle_alpha 90.000000
_cell_angle_beta 90.000000
_cell_angle_gamma 90.000000
_cell_volume 4267.605571
_symmetry_space_group_name_H-M "F M M 2"
_symmetry_group_IT_number 42
_symmetry_cell_setting 'orthorhombic'
loop_
_space_group_symop_operation_xyz
x,y,z
-x,-y,z
-x,y,z
x,-y,z
x,1/2+y,1/2+z
-x,1/2-y,1/2+z
-x,1/2+y,1/2+z
x,1/2-y,1/2+z
1/2+x,y,1/2+z
1/2-x,-y,1/2+z
1/2-x,y,1/2+z
1/2+x,-y,1/2+z
1/2+x,1/2+y,z
1/2-x,1/2-y,z
1/2-x,1/2+y,z
1/2+x,1/2-y,z
loop_
_atom_site_type_symbol
_atom_site_label
_atom_site_fract_x
_atom_site_fract_y
_atom_site_fract_z
Si Si1 0.591527 0.000000 0.785151
Si Si2 0.585901 0.321935 0.312582
Si Si3 0.410041 0.000000 0.567040
Si Si4 0.297109 0.639018 0.023612
Si Si5 0.344212 0.092785 0.149873
Si Si6 0.916776 0.253906 0.606113
Si Si7 0.805280 0.684156 0.327371
O O1 0.619239 0.912914 0.822716
O O2 0.604740 0.000000 0.676174
O O3 0.500000 0.000000 0.795979
O O4 0.500000 0.325481 0.345241
O O5 0.585027 0.300657 0.203912
O O6 0.625598 0.243307 0.354272
O O7 0.367061 0.076450 0.525630
O O8 0.500000 0.000000 0.552851
O O9 0.231145 0.608246 0.089570
O O10 0.339455 0.719410 0.057828
O O11 0.270559 0.650670 0.920184
O O12 0.406966 0.158198 0.121300
O O13 0.325280 0.116300 0.254654
O O14 0.367047 0.000000 0.140785
O O15 0.000000 0.271798 0.565790
O O16 0.750000 0.750000 0.280697
#
# Coordination Sequence:
#
# PCOD9369258 Si02
#       7
#     8  16   8  16  16  16  16
#     4   9  16  32  61  95 123 155 209 260 307 362
#     4   9  18  35  60  92 125 163 209 260 314 377
#     4  11  22  36  65 103 128 163 217 270 326 380
#     4  12  23  42  66  93 130 173 217 275 327 384
#     4  11  24  42  67  95 130 174 221 270 327 392
#     4  10  20  38  65  91 126 173 219 263 318 383
#     4  11  25  41  61  93 128 168 221 265 324 389
#
# _framework density 22.495049999999999
#
# number of rings (size 3 to 8) (size 9 to 14) (size 15 to 20)
#    0.000    1.500    2.500    4.000    1.167    1.667 
#    0.000    0.000    1.833    0.000    0.000    0.000 
#    0.000    0.000    0.000    0.000    0.000    0.000 
#
# Total GULP energy -134048.610043 kJ/mol
# GULP energy per Si atom -5585.358752 kJ/mol
# Density = 2.244385 g / cm^3
# Si number density = 22.495050 Si / 1000 Ang^3
#
#
#
# Elastic Constant Matrix: (Units=GPa)
#
#
# Indices 1 2 3 4 5 6 
#
# 1 68.0912 17.1927 3.6760 0.0000 0.0000 0.0000
# 2 17.1927 150.7506 13.9212 0.0000 0.0000 0.0000
# 3 3.6760 13.9212 52.7565 0.0000 0.0000 0.0000
# 4 0.0000 0.0000 0.0000 7.7424 0.0000 0.0000
# 5 0.0000 0.0000 0.0000 0.0000 7.1603 0.0000
# 6 0.0000 0.0000 0.0000 0.0000 0.0000 28.9958
#
#
#
# Elastic Compliance Matrix: (Units=1/GPa)
#
#
# Indices 1 2 3 4 5 6 
#
# 1 0.015141 -0.001670 -0.000614 0.000000 0.000000 0.000000
# 2 -0.001670 0.006983 -0.001726 0.000000 0.000000 0.000000
# 3 -0.000614 -0.001726 0.019453 0.000000 0.000000 0.000000
# 4 0.000000 0.000000 0.000000 0.129158 0.000000 0.000000
# 5 0.000000 0.000000 0.000000 0.000000 0.139658 0.000000
# 6 0.000000 0.000000 0.000000 0.000000 0.000000 0.034488
#
#
# Mechanical properties :
#
#
# Convention : Reuss Voigt Hill
#
# Bulk Modulus (GPa) = 29.80073 37.90869 33.85471
# Shear Modulus (GPa) = 13.73290 24.56694 19.14992
#
# Velocity S-wave (km/s) = 2.47348 3.30829 2.92086
# Velocity P-wave (km/s) = 4.62968 5.61085 5.14371
#
# Compressibility (1/GPa) = 0.03355622
#
# Stress axis : x y z
#
# Youngs Moduli (GPa) = 66.04566 143.19748 51.40503
#
# Poissons Ratio (x) = 0.23915 0.03158
# Poissons Ratio (y) = 0.11030 0.08874
# Poissons Ratio (z) = 0.04057 0.24721
#
# Static dielectric constant tensor:
#      x y z
#    x 1.872780 0.000000 0.000000 
#    y 0.000000 1.914140 0.000000 
#    z 0.000000 0.000000 1.832430 
# 
# From -- ./inp_files/14052.got.cif
#   From: 2010.05.17/outbox.cif.g08.bks.cpg/sg42_8_cif.got.tgz:14052.got - 2010.06.03 19:03:34.
