data_PCOD9369753
_publ_section_title
;
Structure prediction by ZEFSAII (Michael W. Deem and Ramdas Pophale) SiO2 
 PCOD9369753
Probable space group: F M M 2
;
_chemical_formula_sum "Si O2"
_cell_formula_units_Z 64
_cell_length_a 14.910591
_cell_length_b 17.764109
_cell_length_c 9.614076
_cell_angle_alpha 90.000000
_cell_angle_beta 90.000000
_cell_angle_gamma 90.000000
_cell_volume 2546.512650
_symmetry_space_group_name_H-M "F M M 2"
_symmetry_group_IT_number 42
_symmetry_cell_setting 'orthorhombic'
loop_
_space_group_symop_operation_xyz
x,y,z
-x,-y,z
-x,y,z
x,-y,z
x,1/2+y,1/2+z
-x,1/2-y,1/2+z
-x,1/2+y,1/2+z
x,1/2-y,1/2+z
1/2+x,y,1/2+z
1/2-x,-y,1/2+z
1/2-x,y,1/2+z
1/2+x,-y,1/2+z
1/2+x,1/2+y,z
1/2-x,1/2-y,z
1/2-x,1/2+y,z
1/2+x,1/2-y,z
loop_
_atom_site_type_symbol
_atom_site_label
_atom_site_fract_x
_atom_site_fract_y
_atom_site_fract_z
Si Si1 0.897576 0.169455 0.786090
Si Si2 0.609899 0.795900 0.591498
Si Si3 0.601183 0.584876 0.324887
Si Si4 0.224206 0.500000 0.018951
Si Si5 0.642733 0.000000 0.295492
O O1 0.859898 0.216723 0.657409
O O2 0.000000 0.196690 0.793418
O O3 0.901571 0.079868 0.769471
O O4 0.855594 0.188787 0.936191
O O5 0.500000 0.800713 0.581221
O O6 0.633948 0.858379 0.707323
O O7 0.500000 0.607961 0.371847
O O8 0.591694 0.500000 0.266876
O O9 0.668356 0.570426 0.453297
O O10 0.320354 0.500000 0.950308
O O11 0.222259 0.500000 0.182839
#
# Coordination Sequence:
#
# PCOD9369753 Si02
#       5
#    16  16  16   8   8
#     4  10  23  40  67  99 129 162 210 265 319 373
#     4   9  19  36  63  98 130 158 198 264 322 368
#     4   8  17  35  66  90 115 161 213 259 313 373
#     4  10  25  41  62  88 126 171 212 263 313 373
#     4  12  27  43  64  88 130 175 214 261 309 381
#
# _framework density 25.132408000000002
#
# number of rings (size 3 to 8) (size 9 to 14) (size 15 to 20)
#    0.750    1.750    0.000    0.375    8.750    2.000 
#    0.000    1.250    0.000    0.000    0.000    0.000 
#    0.000    0.000    0.000    0.000    0.000    0.000 
#
# Total GULP energy -89325.873431 kJ/mol
# GULP energy per Si atom -5582.867089 kJ/mol
# Density = 2.507521 g / cm^3
# Si number density = 25.132408 Si / 1000 Ang^3
#
#
#
# Elastic Constant Matrix: (Units=GPa)
#
#
# Indices 1 2 3 4 5 6 
#
# 1 35.8771 -5.9663 -9.4733 0.0000 0.0000 0.0000
# 2 -5.9663 157.1811 42.8409 0.0000 0.0000 0.0000
# 3 -9.4733 42.8409 89.3499 0.0000 0.0000 0.0000
# 4 0.0000 0.0000 0.0000 30.9940 0.0000 0.0000
# 5 0.0000 0.0000 0.0000 0.0000 19.0651 0.0000
# 6 0.0000 0.0000 0.0000 0.0000 0.0000 14.7255
#
#
#
# Elastic Compliance Matrix: (Units=1/GPa)
#
#
# Indices 1 2 3 4 5 6 
#
# 1 0.028688 0.000299 0.002898 0.000000 0.000000 0.000000
# 2 0.000299 0.007322 -0.003479 0.000000 0.000000 0.000000
# 3 0.002898 -0.003479 0.013167 0.000000 0.000000 0.000000
# 4 0.000000 0.000000 0.000000 0.032264 0.000000 0.000000
# 5 0.000000 0.000000 0.000000 0.000000 0.052452 0.000000
# 6 0.000000 0.000000 0.000000 0.000000 0.000000 0.067910
#
#
# Mechanical properties :
#
#
# Convention : Reuss Voigt Hill
#
# Bulk Modulus (GPa) = 20.57034 37.46784 29.01909
# Shear Modulus (GPa) = 22.87594 29.95737 26.41666
#
# Velocity S-wave (km/s) = 3.02025 3.45625 3.24558
# Velocity P-wave (km/s) = 4.51277 5.55591 5.06129
#
# Compressibility (1/GPa) = 0.04861369
#
# Stress axis : x y z
#
# Youngs Moduli (GPa) = 34.85787 136.58191 75.94602
#
# Poissons Ratio (x) = -0.04084 -0.22011
# Poissons Ratio (y) = -0.01042 0.26420
# Poissons Ratio (z) = -0.10103 0.47514
#
# Static dielectric constant tensor:
#      x y z
#    x 2.032580 0.000000 0.000000 
#    y 0.000000 1.984250 0.000000 
#    z 0.000000 0.000000 1.944720 
# 
# From -- ./inp_files/3871.got.cif
#   From: 2010.05.17/outbox.cif.g08.bks.cpg/sg42_2_cif.got.tgz:3871.got - 2010.06.03 19:03:34.
