data_PCOD9369032
_publ_section_title
;
Structure prediction by ZEFSAII (Michael W. Deem and Ramdas Pophale) SiO2 
 PCOD9369032
Probable space group: F M M 2
;
_chemical_formula_sum "Si O2"
_cell_formula_units_Z 80
_cell_length_a 17.949517
_cell_length_b 15.165040
_cell_length_c 15.731167
_cell_angle_alpha 90.000000
_cell_angle_beta 90.000000
_cell_angle_gamma 90.000000
_cell_volume 4282.104567
_symmetry_space_group_name_H-M "F M M 2"
_symmetry_group_IT_number 42
_symmetry_cell_setting 'orthorhombic'
loop_
_space_group_symop_operation_xyz
x,y,z
-x,-y,z
-x,y,z
x,-y,z
x,1/2+y,1/2+z
-x,1/2-y,1/2+z
-x,1/2+y,1/2+z
x,1/2-y,1/2+z
1/2+x,y,1/2+z
1/2-x,-y,1/2+z
1/2-x,y,1/2+z
1/2+x,-y,1/2+z
1/2+x,1/2+y,z
1/2-x,1/2-y,z
1/2-x,1/2+y,z
1/2+x,1/2-y,z
loop_
_atom_site_type_symbol
_atom_site_label
_atom_site_fract_x
_atom_site_fract_y
_atom_site_fract_z
Si Si1 0.242227 0.644853 0.082660
Si Si2 0.186235 0.095938 0.260299
Si Si3 0.586001 0.268049 0.792200
Si Si4 0.293687 0.343212 0.904913
Si Si5 0.916541 0.397353 0.130281
O O1 0.250000 0.750000 0.094067
O O2 0.273745 0.603886 0.169022
O O3 0.154923 0.621850 0.071996
O O4 0.287030 0.617183 0.998581
O O5 0.131327 0.178655 0.272615
O O6 0.249387 0.104138 0.332734
O O7 0.149522 0.000000 0.267155
O O8 0.500000 0.249211 0.808864
O O9 0.625458 0.318661 0.869867
O O10 0.591173 0.332444 0.710579
O O11 0.250000 0.250000 0.910978
O O12 0.912402 0.500000 0.156520
O O13 0.000000 0.383415 0.093546
#
# Coordination Sequence:
#
# PCOD9369032 Si02
#       5
#    16  16  16  16  16
#     4  11  19  36  59  85 123 157 197 248 299 353
#     4  11  21  36  58  86 121 159 200 244 298 358
#     4  10  20  39  60  84 120 156 198 247 293 350
#     4   9  20  36  57  84 115 156 203 241 290 349
#     4  10  20  35  59  88 115 149 194 247 303 349
#
# _framework density 18.682402
#
# number of rings (size 3 to 8) (size 9 to 14) (size 15 to 20)
#    0.000    1.800    4.000    1.200    0.000    2.000 
#    0.000   10.000    0.000    0.000    0.000    0.000 
#    0.000    0.000    0.000    0.000    0.000    0.000 
#
# Total GULP energy -111564.901171 kJ/mol
# GULP energy per Si atom -5578.245059 kJ/mol
# Density = 1.863988 g / cm^3
# Si number density = 18.682402 Si / 1000 Ang^3
#
#
#
# Elastic Constant Matrix: (Units=GPa)
#
#
# Indices 1 2 3 4 5 6 
#
# 1 126.2447 35.4696 28.7053 0.0000 0.0000 0.0000
# 2 35.4696 110.0042 18.1246 0.0000 0.0000 0.0000
# 3 28.7053 18.1246 104.3207 0.0000 0.0000 0.0000
# 4 0.0000 0.0000 0.0000 -12.7092 0.0000 0.0000
# 5 0.0000 0.0000 0.0000 0.0000 23.7282 0.0000
# 6 0.0000 0.0000 0.0000 0.0000 0.0000 20.9557
#
#
#
# Elastic Compliance Matrix: (Units=1/GPa)
#
#
# Indices 1 2 3 4 5 6 
#
# 1 0.009120 -0.002602 -0.002057 0.000000 0.000000 0.000000
# 2 -0.002602 0.010101 -0.001039 0.000000 0.000000 0.000000
# 3 -0.002057 -0.001039 0.010332 0.000000 0.000000 0.000000
# 4 0.000000 0.000000 0.000000 -0.078683 0.000000 0.000000
# 5 0.000000 0.000000 0.000000 0.000000 0.042144 0.000000
# 6 0.000000 0.000000 0.000000 0.000000 0.000000 0.047720
#
#
# Mechanical properties :
#
#
# Convention : Reuss Voigt Hill
#
# Bulk Modulus (GPa) = 55.07569 56.12984 55.60276
# Shear Modulus (GPa) = 85.93755 23.61295 54.77525
#
# Velocity S-wave (km/s) = 6.78963 3.55901 5.42059
# Velocity P-wave (km/s) = 9.53988 6.85553 8.30685
#
# Compressibility (1/GPa) = 0.01815683
#
# Stress axis : x y z
#
# Youngs Moduli (GPa) = 109.65041 99.00397 96.78221
#
# Poissons Ratio (x) = 0.25757 0.19913
# Poissons Ratio (y) = 0.28527 0.10056
# Poissons Ratio (z) = 0.22560 0.10286
#
# Static dielectric constant tensor:
#      x y z
#    x 1.642160 0.000000 0.000000 
#    y 0.000000 1.677290 0.000000 
#    z 0.000000 0.000000 1.660420 
# 
# From -- ./inp_files/13820.got.cif
#   From: 2010.05.17/outbox.cif.g08.bks.cpg/sg42_7_cif.got.tgz:13820.got - 2010.06.03 19:03:34.
