data_PCOD9369195
_publ_section_title
;
Structure prediction by ZEFSAII (Michael W. Deem and Ramdas Pophale) SiO2 
 PCOD9369195
Probable space group: F M M 2
;
_chemical_formula_sum "Si O2"
_cell_formula_units_Z 64
_cell_length_a 17.165515
_cell_length_b 22.502263
_cell_length_c 8.833187
_cell_angle_alpha 90.000000
_cell_angle_beta 90.000000
_cell_angle_gamma 90.000000
_cell_volume 3411.932719
_symmetry_space_group_name_H-M "F M M 2"
_symmetry_group_IT_number 42
_symmetry_cell_setting 'orthorhombic'
loop_
_space_group_symop_operation_xyz
x,y,z
-x,-y,z
-x,y,z
x,-y,z
x,1/2+y,1/2+z
-x,1/2-y,1/2+z
-x,1/2+y,1/2+z
x,1/2-y,1/2+z
1/2+x,y,1/2+z
1/2-x,-y,1/2+z
1/2-x,y,1/2+z
1/2+x,-y,1/2+z
1/2+x,1/2+y,z
1/2-x,1/2-y,z
1/2-x,1/2+y,z
1/2+x,1/2-y,z
loop_
_atom_site_type_symbol
_atom_site_label
_atom_site_fract_x
_atom_site_fract_y
_atom_site_fract_z
Si Si1 0.828563 0.067791 0.281950
Si Si2 0.409488 0.788883 0.280728
Si Si3 0.308321 0.379677 0.955962
Si Si4 0.150382 0.320047 0.955542
O O1 0.739164 0.078260 0.339439
O O2 0.873794 0.116842 0.381624
O O3 0.851400 0.000000 0.306259
O O4 0.832087 0.086026 0.106728
O O5 0.500000 0.778317 0.310920
O O6 0.377221 0.844607 0.375772
O O7 0.361647 0.730978 0.332304
O O8 0.395136 0.802328 0.105162
O O9 0.241018 0.331250 0.997300
#
# Coordination Sequence:
#
# PCOD9369195 Si02
#       4
#    16  16  16  16
#     4  10  20  37  66  91 118 157 212 259 294 353
#     4  12  23  39  62  92 129 161 198 253 316 369
#     4  10  20  37  62  94 120 153 208 251 304 356
#     4  10  22  38  59  92 122 159 206 249 300 364
#
# _framework density 18.757695999999999
#
# number of rings (size 3 to 8) (size 9 to 14) (size 15 to 20)
#    1.500    0.000    2.500    3.750    0.000    2.000 
#    0.000    1.250    0.000   12.000    0.000    0.000 
#    0.000    0.000    0.000    0.000    0.000    0.000 
#
# Total GULP energy -89202.076584 kJ/mol
# GULP energy per Si atom -5575.129787 kJ/mol
# Density = 1.871500 g / cm^3
# Si number density = 18.757696 Si / 1000 Ang^3
#
#
#
# Elastic Constant Matrix: (Units=GPa)
#
#
# Indices 1 2 3 4 5 6 
#
# 1 20.0598 -2.3948 -1.4891 0.0000 0.0000 0.0000
# 2 -2.3948 138.6000 66.6884 0.0000 0.0000 0.0000
# 3 -1.4891 66.6884 95.2841 0.0000 0.0000 0.0000
# 4 0.0000 0.0000 0.0000 28.7121 0.0000 0.0000
# 5 0.0000 0.0000 0.0000 0.0000 17.6297 0.0000
# 6 0.0000 0.0000 0.0000 0.0000 0.0000 2.4935
#
#
#
# Elastic Compliance Matrix: (Units=1/GPa)
#
#
# Indices 1 2 3 4 5 6 
#
# 1 0.049958 0.000735 0.000266 0.000000 0.000000 0.000000
# 2 0.000735 0.010889 -0.007610 0.000000 0.000000 0.000000
# 3 0.000266 -0.007610 0.015825 0.000000 0.000000 0.000000
# 4 0.000000 0.000000 0.000000 0.034829 0.000000 0.000000
# 5 0.000000 0.000000 0.000000 0.000000 0.056722 0.000000
# 6 0.000000 0.000000 0.000000 0.000000 0.000000 0.401043
#
#
# Mechanical properties :
#
#
# Convention : Reuss Voigt Hill
#
# Bulk Modulus (GPa) = 15.75897 42.17256 28.96577
# Shear Modulus (GPa) = 8.28315 22.50969 15.39642
#
# Velocity S-wave (km/s) = 2.10368 3.46789 2.86808
# Velocity P-wave (km/s) = 3.78420 6.21021 5.14232
#
# Compressibility (1/GPa) = 0.06345592
#
# Stress axis : x y z
#
# Youngs Moduli (GPa) = 20.01664 91.83412 63.19083
#
# Poissons Ratio (x) = -0.06750 -0.01683
# Poissons Ratio (y) = -0.01471 0.48087
# Poissons Ratio (z) = -0.00533 0.69884
#
# Static dielectric constant tensor:
#      x y z
#    x 1.630610 0.000000 0.000000 
#    y 0.000000 1.646570 0.000000 
#    z 0.000000 0.000000 1.639420 
# 
# From -- ./inp_files/2681.got.cif
#   From: 2010.05.17/outbox.cif.g08.bks.cpg/sg42_2_cif.got.tgz:2681.got - 2010.06.03 19:03:34.
