data_PCOD9369650
_publ_section_title
;
Structure prediction by ZEFSAII (Michael W. Deem and Ramdas Pophale) SiO2 
 PCOD9369650
Probable space group: F M M 2
;
_chemical_formula_sum "Si O2"
_cell_formula_units_Z 120
_cell_length_a 20.315934
_cell_length_b 25.818915
_cell_length_c 11.325554
_cell_angle_alpha 90.000000
_cell_angle_beta 90.000000
_cell_angle_gamma 90.000000
_cell_volume 5940.653693
_symmetry_space_group_name_H-M "F M M 2"
_symmetry_group_IT_number 42
_symmetry_cell_setting 'orthorhombic'
loop_
_space_group_symop_operation_xyz
x,y,z
-x,-y,z
-x,y,z
x,-y,z
x,1/2+y,1/2+z
-x,1/2-y,1/2+z
-x,1/2+y,1/2+z
x,1/2-y,1/2+z
1/2+x,y,1/2+z
1/2-x,-y,1/2+z
1/2-x,y,1/2+z
1/2+x,-y,1/2+z
1/2+x,1/2+y,z
1/2-x,1/2-y,z
1/2-x,1/2+y,z
1/2+x,1/2-y,z
loop_
_atom_site_type_symbol
_atom_site_label
_atom_site_fract_x
_atom_site_fract_y
_atom_site_fract_z
Si Si1 0.106803 0.058197 0.451250
Si Si2 0.116524 0.781262 0.586387
Si Si3 0.000000 0.851297 0.498949
Si Si4 0.075796 0.356897 0.281159
Si Si5 0.821715 0.940302 0.687578
Si Si6 0.820551 0.393870 0.742362
Si Si7 0.870264 0.663720 0.524183
Si Si8 0.767801 0.693215 0.913123
O O1 0.056626 0.103462 0.481563
O O2 0.164871 0.062240 0.547773
O O3 0.136966 0.068557 0.323672
O O4 0.079703 0.000000 0.461415
O O5 0.106360 0.806989 0.714793
O O6 0.113975 0.719452 0.581122
O O7 0.184988 0.798065 0.525978
O O8 0.057991 0.806810 0.511692
O O9 0.121210 0.405217 0.245709
O O10 0.078753 0.349574 0.420839
O O11 0.000000 0.362365 0.234573
O O12 0.749916 0.918606 0.713920
O O13 0.827483 0.000000 0.725636
O O14 0.860473 0.377754 0.626522
O O15 0.804033 0.342424 0.818559
O O16 0.799960 0.668295 0.457447
O O17 0.750000 0.750000 0.863624
#
# Coordination Sequence:
#
# PCOD9369650 Si02
#       8
#    16  16   8  16  16  16  16  16
#     4  11  24  43  70 101 128 172 230 282 333 383
#     4  11  23  42  64 100 127 180 223 274 321 393
#     4  12  21  42  70  98 130 172 225 276 324 374
#     4  12  24  44  64  94 141 178 220 273 325 399
#     4  11  24  42  72 100 124 170 229 285 335 386
#     4  12  22  44  65  98 135 175 212 284 336 397
#     4  11  27  39  66 100 137 179 220 261 338 406
#     4  10  22  39  66  95 132 172 219 272 335 395
#
# _framework density 20.199798000000001
#
# number of rings (size 3 to 8) (size 9 to 14) (size 15 to 20)
#    0.000    0.800    4.667    2.200    4.667    0.800 
#    1.200    0.667    0.000    0.000    0.000    0.000 
#    0.000    0.000    0.000    0.000    0.000    0.000 
#
# Total GULP energy -167270.612454 kJ/mol
# GULP energy per Si atom -5575.687082 kJ/mol
# Density = 2.015382 g / cm^3
# Si number density = 20.199798 Si / 1000 Ang^3
#
#
#
# Elastic Constant Matrix: (Units=GPa)
#
#
# Indices 1 2 3 4 5 6 
#
# 1 59.2209 12.6286 -2.1422 0.0000 0.0000 0.0000
# 2 12.6286 82.9409 31.7746 0.0000 0.0000 0.0000
# 3 -2.1422 31.7746 75.2365 0.0000 0.0000 0.0000
# 4 0.0000 0.0000 0.0000 1.2967 0.0000 0.0000
# 5 0.0000 0.0000 0.0000 0.0000 18.9901 0.0000
# 6 0.0000 0.0000 0.0000 0.0000 0.0000 499.1149
#
#
#
# Elastic Compliance Matrix: (Units=1/GPa)
#
#
# Indices 1 2 3 4 5 6 
#
# 1 0.017691 -0.003444 0.001958 0.000000 0.000000 0.000000
# 2 -0.003444 0.015054 -0.006456 0.000000 0.000000 0.000000
# 3 0.001958 -0.006456 0.016074 0.000000 0.000000 0.000000
# 4 0.000000 0.000000 0.000000 0.771211 0.000000 0.000000
# 5 0.000000 0.000000 0.000000 0.000000 0.052659 0.000000
# 6 0.000000 0.000000 0.000000 0.000000 0.000000 0.002004
#
#
# Mechanical properties :
#
#
# Convention : Reuss Voigt Hill
#
# Bulk Modulus (GPa) = 30.36193 33.54668 31.95431
# Shear Modulus (GPa) = 5.54598 115.55615 60.55106
#
# Velocity S-wave (km/s) = 1.65877 7.57171 5.48098
# Velocity P-wave (km/s) = 4.32806 9.64803 7.47719
#
# Compressibility (1/GPa) = 0.03293598
#
# Stress axis : x y z
#
# Youngs Moduli (GPa) = 56.52546 66.42571 62.21333
#
# Poissons Ratio (x) = 0.22876 -0.12182
# Poissons Ratio (y) = 0.19466 0.40165
# Poissons Ratio (z) = -0.11068 0.42884
#
# Static dielectric constant tensor:
#      x y z
#    x 1.690560 0.000000 0.000000 
#    y 0.000000 1.729290 0.000000 
#    z 0.000000 0.000000 1.785950 
# 
# From -- ./inp_files/9738.got.cif
#   From: 2010.05.17/outbox.cif.g08.bks.cpg/sg42_5_cif.got.tgz:9738.got - 2010.06.03 19:03:34.
