data_PCOD9369504
_publ_section_title
;
Structure prediction by ZEFSAII (Michael W. Deem and Ramdas Pophale) SiO2 
 PCOD9369504
Probable space group: F M M 2
;
_chemical_formula_sum "Si O2"
_cell_formula_units_Z 116
_cell_length_a 19.181153
_cell_length_b 21.292302
_cell_length_c 13.608365
_cell_angle_alpha 90.000000
_cell_angle_beta 90.000000
_cell_angle_gamma 90.000000
_cell_volume 5557.804630
_symmetry_space_group_name_H-M "F M M 2"
_symmetry_group_IT_number 42
_symmetry_cell_setting 'orthorhombic'
loop_
_space_group_symop_operation_xyz
x,y,z
-x,-y,z
-x,y,z
x,-y,z
x,1/2+y,1/2+z
-x,1/2-y,1/2+z
-x,1/2+y,1/2+z
x,1/2-y,1/2+z
1/2+x,y,1/2+z
1/2-x,-y,1/2+z
1/2-x,y,1/2+z
1/2+x,-y,1/2+z
1/2+x,1/2+y,z
1/2-x,1/2-y,z
1/2-x,1/2+y,z
1/2+x,1/2-y,z
loop_
_atom_site_type_symbol
_atom_site_label
_atom_site_fract_x
_atom_site_fract_y
_atom_site_fract_z
Si Si1 0.174934 0.572752 0.441170
Si Si2 0.187097 0.619498 0.853845
Si Si3 0.618192 0.105871 0.052499
Si Si4 0.737265 0.572159 0.146194
Si Si5 0.331840 0.758723 0.742061
Si Si6 0.078659 0.748069 0.560387
Si Si7 0.420684 0.667297 0.861466
Si Si8 0.500000 0.000000 0.094743
O O1 0.188707 0.500000 0.414985
O O2 0.236079 0.617442 0.400901
O O3 0.181743 0.578384 0.558052
O O4 0.104904 0.598809 0.394169
O O5 0.139587 0.589354 0.938847
O O6 0.200702 0.588313 0.748314
O O7 0.160283 0.688183 0.825351
O O8 0.690883 0.106389 0.114765
O O9 0.590799 0.177353 0.049220
O O10 0.561855 0.055832 0.090167
O O11 0.759326 0.500000 0.149624
O O12 0.250000 0.750000 0.728073
O O13 0.366888 0.777351 0.639871
O O14 0.371259 0.697206 0.779861
O O15 0.085189 0.710959 0.458288
O O16 0.000000 0.737774 0.597201
O O17 0.500000 0.667116 0.827163
#
# Coordination Sequence:
#
# PCOD9369504 Si02
#       8
#    16  16  16  16  16  16  16   4
#     4  10  22  41  65  95 132 175 219 275 337 396
#     4  11  22  40  68  99 129 167 228 283 336 391
#     4  11  23  41  67  95 136 184 225 282 343 405
#     4  10  21  38  64  96 130 168 221 282 333 391
#     4  12  23  40  67  98 128 167 222 284 332 403
#     4  11  24  43  65  92 135 176 218 277 344 405
#     4  11  24  43  65  94 134 175 217 272 333 405
#     4  12  24  44  64  96 140 186 236 268 348 432
#
# _framework density 20.871549000000002
#
# number of rings (size 3 to 8) (size 9 to 14) (size 15 to 20)
#    0.000    1.103    4.138    2.483    1.931    1.931 
#    1.241    0.000    1.517    0.000    0.000    0.000 
#    0.000    0.000    0.000    0.000    0.000    0.000 
#
# Total GULP energy -161726.811068 kJ/mol
# GULP energy per Si atom -5576.786589 kJ/mol
# Density = 2.082404 g / cm^3
# Si number density = 20.871549 Si / 1000 Ang^3
#
#
#
# Elastic Constant Matrix: (Units=GPa)
#
#
# Indices 1 2 3 4 5 6 
#
# 1 106.4840 3.7875 25.0991 0.0000 0.0000 0.0000
# 2 3.7875 49.5080 1.1744 0.0000 0.0000 0.0000
# 3 25.0991 1.1744 77.5411 0.0000 0.0000 0.0000
# 4 0.0000 0.0000 0.0000 25.4605 0.0000 0.0000
# 5 0.0000 0.0000 0.0000 0.0000 11.2661 0.0000
# 6 0.0000 0.0000 0.0000 0.0000 0.0000 67.3109
#
#
#
# Elastic Compliance Matrix: (Units=1/GPa)
#
#
# Indices 1 2 3 4 5 6 
#
# 1 0.010191 -0.000702 -0.003288 0.000000 0.000000 0.000000
# 2 -0.000702 0.020254 -0.000080 0.000000 0.000000 0.000000
# 3 -0.003288 -0.000080 0.013962 0.000000 0.000000 0.000000
# 4 0.000000 0.000000 0.000000 0.039277 0.000000 0.000000
# 5 0.000000 0.000000 0.000000 0.000000 0.088762 0.000000
# 6 0.000000 0.000000 0.000000 0.000000 0.000000 0.014856
#
#
# Mechanical properties :
#
#
# Convention : Reuss Voigt Hill
#
# Bulk Modulus (GPa) = 27.57214 32.62836 30.10025
# Shear Modulus (GPa) = 24.09281 34.37229 29.23255
#
# Velocity S-wave (km/s) = 3.40124 4.06254 3.74651
# Velocity P-wave (km/s) = 5.35384 6.13780 5.75917
#
# Compressibility (1/GPa) = 0.03626850
#
# Stress axis : x y z
#
# Youngs Moduli (GPa) = 98.12509 49.37221 71.62337
#
# Poissons Ratio (x) = 0.03464 0.23551
# Poissons Ratio (y) = 0.06885 0.00570
# Poissons Ratio (z) = 0.32265 0.00393
#
# Static dielectric constant tensor:
#      x y z
#    x 1.746170 0.000000 0.000000 
#    y 0.000000 1.789110 0.000000 
#    z 0.000000 0.000000 1.792520 
# 
# From -- ./inp_files/15404.got.cif
#   From: 2010.05.17/outbox.cif.g08.bks.cpg/sg42_8_cif.got.tgz:15404.got - 2010.06.03 19:03:34.
