data_PCOD9369778
_publ_section_title
;
Structure prediction by ZEFSAII (Michael W. Deem and Ramdas Pophale) SiO2 
 PCOD9369778
Probable space group: F M M 2
;
_chemical_formula_sum "Si O2"
_cell_formula_units_Z 72
_cell_length_a 15.222769
_cell_length_b 9.027301
_cell_length_c 25.789126
_cell_angle_alpha 90.000000
_cell_angle_beta 90.000000
_cell_angle_gamma 90.000000
_cell_volume 3543.955049
_symmetry_space_group_name_H-M "F M M 2"
_symmetry_group_IT_number 42
_symmetry_cell_setting 'orthorhombic'
loop_
_space_group_symop_operation_xyz
x,y,z
-x,-y,z
-x,y,z
x,-y,z
x,1/2+y,1/2+z
-x,1/2-y,1/2+z
-x,1/2+y,1/2+z
x,1/2-y,1/2+z
1/2+x,y,1/2+z
1/2-x,-y,1/2+z
1/2-x,y,1/2+z
1/2+x,-y,1/2+z
1/2+x,1/2+y,z
1/2-x,1/2-y,z
1/2-x,1/2+y,z
1/2+x,1/2-y,z
loop_
_atom_site_type_symbol
_atom_site_label
_atom_site_fract_x
_atom_site_fract_y
_atom_site_fract_z
Si Si1 0.750000 0.750000 0.446131
Si Si2 0.331307 0.335854 0.048128
Si Si3 0.899070 0.668022 0.866071
Si Si4 0.000000 0.675852 0.083019
Si Si5 0.500000 0.678227 0.195901
Si Si6 0.154775 0.323021 0.262393
O O1 0.802138 0.651960 0.488145
O O2 0.824970 0.819432 0.410060
O O3 0.346760 0.500000 0.069399
O O4 0.250000 0.250000 0.074666
O O5 0.414770 0.231987 0.052796
O O6 0.894631 0.500000 0.844376
O O7 0.875909 0.782749 0.820810
O O8 0.000000 0.690703 0.884161
O O9 0.000000 0.759956 0.137760
O O10 0.000000 0.500000 0.089714
O O11 0.500000 0.500000 0.197713
O O12 0.584683 0.745457 0.224862
O O13 0.156930 0.500000 0.255100
O O14 0.250000 0.250000 0.254864
#
# Coordination Sequence:
#
# PCOD9369778 Si02
#       6
#     8  16  16   8   8  16
#     4  10  24  38  70  98 138 176 236 270 340 392
#     4  10  23  43  67  98 134 173 224 279 335 397
#     4  11  23  40  65  97 137 183 227 273 333 398
#     4  12  26  46  73 100 133 174 224 281 341 401
#     4  12  26  48  73 100 135 174 222 279 341 403
#     4  12  25  43  68 100 138 178 226 275 332 399
#
# _framework density 20.316285000000001
#
# number of rings (size 3 to 8) (size 9 to 14) (size 15 to 20)
#    0.667    0.222    2.222    5.333    1.556    1.778 
#    0.000    4.444    0.000    0.000    0.000    0.000 
#    0.000    0.000    0.000    0.000    0.000    0.000 
#
# Total GULP energy -100475.323814 kJ/mol
# GULP energy per Si atom -5581.962434 kJ/mol
# Density = 2.027004 g / cm^3
# Si number density = 20.316285 Si / 1000 Ang^3
#
#
#
# Elastic Constant Matrix: (Units=GPa)
#
#
# Indices 1 2 3 4 5 6 
#
# 1 188.4843 73.7878 42.8207 0.0000 0.0000 0.0000
# 2 73.7878 205.2013 36.4101 0.0000 0.0000 0.0000
# 3 42.8207 36.4101 78.1654 0.0000 0.0000 0.0000
# 4 0.0000 0.0000 0.0000 17.5693 0.0000 0.0000
# 5 0.0000 0.0000 0.0000 0.0000 25.4879 0.0000
# 6 0.0000 0.0000 0.0000 0.0000 0.0000 1.4292
#
#
#
# Elastic Compliance Matrix: (Units=1/GPa)
#
#
# Indices 1 2 3 4 5 6 
#
# 1 0.006683 -0.001912 -0.002771 0.000000 0.000000 0.000000
# 2 -0.001912 0.005859 -0.001682 0.000000 0.000000 0.000000
# 3 -0.002771 -0.001682 0.015095 0.000000 0.000000 0.000000
# 4 0.000000 0.000000 0.000000 0.056917 0.000000 0.000000
# 5 0.000000 0.000000 0.000000 0.000000 0.039234 0.000000
# 6 0.000000 0.000000 0.000000 0.000000 0.000000 0.699716
#
#
# Mechanical properties :
#
#
# Convention : Reuss Voigt Hill
#
# Bulk Modulus (GPa) = 67.07648 86.43204 76.75426
# Shear Modulus (GPa) = 5.94386 30.15277 18.04832
#
# Velocity S-wave (km/s) = 1.71231 3.85667 2.98378
# Velocity P-wave (km/s) = 6.08253 7.90363 7.05211
#
# Compressibility (1/GPa) = 0.01490836
#
# Stress axis : x y z
#
# Youngs Moduli (GPa) = 149.62620 170.67483 66.24796
#
# Poissons Ratio (x) = 0.32626 0.18356
# Poissons Ratio (y) = 0.28602 0.11143
# Poissons Ratio (z) = 0.41459 0.28708
#
# Static dielectric constant tensor:
#      x y z
#    x 1.721250 0.000000 0.000000 
#    y 0.000000 1.713350 0.000000 
#    z 0.000000 0.000000 1.723920 
# 
# From -- ./inp_files/32449.got.cif
#   From: 2010.05.17/outbox.cif.g08.bks.cpg/sg42_17_cif.got.tgz:32449.got - 2010.06.03 19:03:34.
