data_PCOD9369496
_publ_section_title
;
Structure prediction by ZEFSAII (Michael W. Deem and Ramdas Pophale) SiO2 
 PCOD9369496
Probable space group: F M M 2
;
_chemical_formula_sum "Si O2"
_cell_formula_units_Z 80
_cell_length_a 19.540858
_cell_length_b 13.808153
_cell_length_c 13.565064
_cell_angle_alpha 90.000000
_cell_angle_beta 90.000000
_cell_angle_gamma 90.000000
_cell_volume 3660.168394
_symmetry_space_group_name_H-M "F M M 2"
_symmetry_group_IT_number 42
_symmetry_cell_setting 'orthorhombic'
loop_
_space_group_symop_operation_xyz
x,y,z
-x,-y,z
-x,y,z
x,-y,z
x,1/2+y,1/2+z
-x,1/2-y,1/2+z
-x,1/2+y,1/2+z
x,1/2-y,1/2+z
1/2+x,y,1/2+z
1/2-x,-y,1/2+z
1/2-x,y,1/2+z
1/2+x,-y,1/2+z
1/2+x,1/2+y,z
1/2-x,1/2-y,z
1/2-x,1/2+y,z
1/2+x,1/2-y,z
loop_
_atom_site_type_symbol
_atom_site_label
_atom_site_fract_x
_atom_site_fract_y
_atom_site_fract_z
Si Si1 0.210353 0.891757 0.892080
Si Si2 0.636052 0.116496 0.904505
Si Si3 0.926038 0.790834 0.819203
Si Si4 0.357024 0.811843 0.129428
Si Si5 0.211708 0.606308 0.629084
O O1 0.287088 0.858752 0.864062
O O2 0.141940 0.833556 0.869664
O O3 0.200587 0.000000 0.854200
O O4 0.217182 0.897100 0.010386
O O5 0.582937 0.176074 0.838618
O O6 0.629551 0.000000 0.905151
O O7 0.629460 0.156266 0.017163
O O8 0.917984 0.823698 0.706088
O O9 0.000000 0.822037 0.858375
O O10 0.288977 0.870179 0.163206
O O11 0.335401 0.699602 0.142572
O O12 0.188716 0.500000 0.664037
#
# Coordination Sequence:
#
# PCOD9369496 Si02
#       5
#    16  16  16  16  16
#     4   9  19  39  66  92 119 156 211 269 322 377
#     4  10  22  44  71  95 124 169 226 279 322 378
#     4  12  26  40  59  94 138 174 210 260 326 399
#     4  10  21  38  62  93 126 168 214 261 325 386
#     4   9  18  36  64  94 120 152 206 275 326 368
#
# _framework density 21.856918
#
# number of rings (size 3 to 8) (size 9 to 14) (size 15 to 20)
#    0.000    2.000    2.000    2.400    5.600    4.000 
#    0.000    0.000    0.000    0.000    0.000    0.000 
#    0.000    0.000    0.000    0.000    0.000    0.000 
#
# Total GULP energy -111599.955834 kJ/mol
# GULP energy per Si atom -5579.997792 kJ/mol
# Density = 2.180717 g / cm^3
# Si number density = 21.856918 Si / 1000 Ang^3
#
#
#
# Elastic Constant Matrix: (Units=GPa)
#
#
# Indices 1 2 3 4 5 6 
#
# 1 107.1279 41.8041 24.3041 0.0000 0.0000 0.0000
# 2 41.8041 109.8485 22.5734 0.0000 0.0000 0.0000
# 3 24.3041 22.5734 80.0456 0.0000 0.0000 0.0000
# 4 0.0000 0.0000 0.0000 21.8862 0.0000 0.0000
# 5 0.0000 0.0000 0.0000 0.0000 15.2166 0.0000
# 6 0.0000 0.0000 0.0000 0.0000 0.0000 10.3214
#
#
#
# Elastic Compliance Matrix: (Units=1/GPa)
#
#
# Indices 1 2 3 4 5 6 
#
# 1 0.011371 -0.003840 -0.002369 0.000000 0.000000 0.000000
# 2 -0.003840 0.010960 -0.001925 0.000000 0.000000 0.000000
# 3 -0.002369 -0.001925 0.013755 0.000000 0.000000 0.000000
# 4 0.000000 0.000000 0.000000 0.045691 0.000000 0.000000
# 5 0.000000 0.000000 0.000000 0.000000 0.065718 0.000000
# 6 0.000000 0.000000 0.000000 0.000000 0.000000 0.096886
#
#
# Mechanical properties :
#
#
# Convention : Reuss Voigt Hill
#
# Bulk Modulus (GPa) = 50.46181 52.70946 51.58563
# Shear Modulus (GPa) = 18.70864 23.37421 21.04142
#
# Velocity S-wave (km/s) = 2.92885 3.27375 3.10609
# Velocity P-wave (km/s) = 5.88005 6.20144 6.04289
#
# Compressibility (1/GPa) = 0.01981697
#
# Stress axis : x y z
#
# Youngs Moduli (GPa) = 87.94442 91.23674 72.70006
#
# Poissons Ratio (x) = 0.35038 0.17226
# Poissons Ratio (y) = 0.33774 0.13994
# Poissons Ratio (z) = 0.20838 0.17562
#
# Static dielectric constant tensor:
#      x y z
#    x 1.758300 0.000000 0.000000 
#    y 0.000000 1.846660 0.000000 
#    z 0.000000 0.000000 1.867760 
# 
# From -- ./inp_files/15722.got.cif
#   From: 2010.05.17/outbox.cif.g08.bks.cpg/sg42_8_cif.got.tgz:15722.got - 2010.06.03 19:03:34.
