data_PCOD9369981
_publ_section_title
;
Structure prediction by ZEFSAII (Michael W. Deem and Ramdas Pophale) SiO2 
 PCOD9369981
Probable space group: F M M 2
;
_chemical_formula_sum "Si O2"
_cell_formula_units_Z 88
_cell_length_a 14.697235
_cell_length_b 14.084122
_cell_length_c 17.764003
_cell_angle_alpha 90.000000
_cell_angle_beta 90.000000
_cell_angle_gamma 90.000000
_cell_volume 3677.106890
_symmetry_space_group_name_H-M "F M M 2"
_symmetry_group_IT_number 42
_symmetry_cell_setting 'orthorhombic'
loop_
_space_group_symop_operation_xyz
x,y,z
-x,-y,z
-x,y,z
x,-y,z
x,1/2+y,1/2+z
-x,1/2-y,1/2+z
-x,1/2+y,1/2+z
x,1/2-y,1/2+z
1/2+x,y,1/2+z
1/2-x,-y,1/2+z
1/2-x,y,1/2+z
1/2+x,-y,1/2+z
1/2+x,1/2+y,z
1/2-x,1/2-y,z
1/2-x,1/2+y,z
1/2+x,1/2-y,z
loop_
_atom_site_type_symbol
_atom_site_label
_atom_site_fract_x
_atom_site_fract_y
_atom_site_fract_z
Si Si1 0.197173 0.614955 0.632810
Si Si2 0.500000 0.825018 0.918926
Si Si3 0.649857 0.112197 0.800510
Si Si4 0.599114 0.884077 0.172717
Si Si5 0.140572 0.611242 0.343044
Si Si6 0.645179 0.775089 0.489191
O O1 0.194906 0.500000 0.626904
O O2 0.155127 0.642086 0.713510
O O3 0.304499 0.644721 0.635407
O O4 0.144741 0.662349 0.564157
O O5 0.421523 0.839496 0.853923
O O6 0.419634 0.814862 0.983841
O O7 0.750901 0.123661 0.834160
O O8 0.629157 0.000000 0.800945
O O9 0.500000 0.852108 0.145399
O O10 0.603985 0.858596 0.261669
O O11 0.600888 0.000000 0.170056
O O12 0.120872 0.500000 0.351224
O O13 0.108313 0.663690 0.417860
O O14 0.750000 0.750000 0.476766
#
# Coordination Sequence:
#
# PCOD9369981 Si02
#       6
#    16   8  16  16  16  16
#     4   9  20  42  69  96 133 179 228 284 339 395
#     4  12  25  42  65  94 138 172 226 274 337 406
#     4   9  19  42  73  97 118 166 235 284 320 386
#     4   8  15  32  62  98 126 160 225 286 327 384
#     4   9  18  37  64  91 126 171 221 275 328 390
#     4  12  25  43  58  94 145 179 214 274 352 415
#
# _framework density 23.931858999999999
#
# number of rings (size 3 to 8) (size 9 to 14) (size 15 to 20)
#    0.000    2.364    1.818    3.000    1.273    0.727 
#    8.182    2.273    0.000    0.000    0.000    0.000 
#    0.000    0.000    0.000    0.000    0.000    0.000 
#
# Total GULP energy -122563.570633 kJ/mol
# GULP energy per Si atom -5571.071392 kJ/mol
# Density = 2.387739 g / cm^3
# Si number density = 23.931859 Si / 1000 Ang^3
#
#
#
# Elastic Constant Matrix: (Units=GPa)
#
#
# Indices 1 2 3 4 5 6 
#
# 1 162.2140 11.5633 48.7542 0.0000 0.0000 0.0000
# 2 11.5633 60.1859 43.3602 0.0000 0.0000 0.0000
# 3 48.7542 43.3602 159.8827 0.0000 0.0000 0.0000
# 4 0.0000 0.0000 0.0000 33.6112 0.0000 0.0000
# 5 0.0000 0.0000 0.0000 0.0000 35.2609 0.0000
# 6 0.0000 0.0000 0.0000 0.0000 0.0000 -46.3369
#
#
#
# Elastic Compliance Matrix: (Units=1/GPa)
#
#
# Indices 1 2 3 4 5 6 
#
# 1 0.006789 0.000233 -0.002133 0.000000 0.000000 0.000000
# 2 0.000233 0.020658 -0.005673 0.000000 0.000000 0.000000
# 3 -0.002133 -0.005673 0.008444 0.000000 0.000000 0.000000
# 4 0.000000 0.000000 0.000000 0.029752 0.000000 0.000000
# 5 0.000000 0.000000 0.000000 0.000000 0.028360 0.000000
# 6 0.000000 0.000000 0.000000 0.000000 0.000000 -0.021581
#
#
# Mechanical properties :
#
#
# Convention : Reuss Voigt Hill
#
# Bulk Modulus (GPa) = 48.21005 65.51533 56.86269
# Shear Modulus (GPa) = 52.91891 23.08071 37.99981
#
# Velocity S-wave (km/s) = 4.70748 3.10890 3.98909
# Velocity P-wave (km/s) = 7.05234 6.34998 6.71036
#
# Compressibility (1/GPa) = 0.02074256
#
# Stress axis : x y z
#
# Youngs Moduli (GPa) = 147.29016 48.40796 118.43099
#
# Poissons Ratio (x) = -0.01126 0.25266
# Poissons Ratio (y) = -0.03426 0.67190
# Poissons Ratio (z) = 0.31423 0.27463
#
# Static dielectric constant tensor:
#      x y z
#    x 1.900830 0.000000 0.000000 
#    y 0.000000 2.029570 0.000000 
#    z 0.000000 0.000000 1.894690 
# 
# From -- ./inp_files/19909.got.cif
#   From: 2010.05.17/outbox.cif.g08.bks.cpg/sg42_10_cif.got.tgz:19909.got - 2010.06.03 19:03:34.
