data_PCOD9369841
_publ_section_title
;
Structure prediction by ZEFSAII (Michael W. Deem and Ramdas Pophale) SiO2 
 PCOD9369841
Probable space group: F M M 2
;
_chemical_formula_sum "Si O2"
_cell_formula_units_Z 96
_cell_length_a 24.374801
_cell_length_b 8.220760
_cell_length_c 26.225710
_cell_angle_alpha 90.000000
_cell_angle_beta 90.000000
_cell_angle_gamma 90.000000
_cell_volume 5255.091748
_symmetry_space_group_name_H-M "F M M 2"
_symmetry_group_IT_number 42
_symmetry_cell_setting 'orthorhombic'
loop_
_space_group_symop_operation_xyz
x,y,z
-x,-y,z
-x,y,z
x,-y,z
x,1/2+y,1/2+z
-x,1/2-y,1/2+z
-x,1/2+y,1/2+z
x,1/2-y,1/2+z
1/2+x,y,1/2+z
1/2-x,-y,1/2+z
1/2-x,y,1/2+z
1/2+x,-y,1/2+z
1/2+x,1/2+y,z
1/2-x,1/2-y,z
1/2-x,1/2+y,z
1/2+x,1/2-y,z
loop_
_atom_site_type_symbol
_atom_site_label
_atom_site_fract_x
_atom_site_fract_y
_atom_site_fract_z
Si Si1 0.188361 0.303454 0.983520
Si Si2 0.000000 0.693575 0.235154
Si Si3 0.116520 0.194019 0.273833
Si Si4 0.381945 0.301209 0.578612
Si Si5 0.312726 0.305161 0.677240
Si Si6 0.311671 0.196735 0.867556
Si Si7 0.500000 0.800947 0.117375
O O1 0.187343 0.500000 0.983219
O O2 0.250000 0.250000 0.997425
O O3 0.177397 0.247099 0.925565
O O4 0.145076 0.246396 0.025700
O O5 0.944751 0.746247 0.263293
O O6 0.000000 0.500000 0.231887
O O7 0.000000 0.754546 0.176391
O O8 0.154469 0.243186 0.226278
O O9 0.144981 0.255899 0.325729
O O10 0.115007 0.000000 0.276689
O O11 0.382097 0.500000 0.578166
O O12 0.343814 0.249766 0.625961
O O13 0.444118 0.248876 0.589749
O O14 0.314504 0.500000 0.678026
O O15 0.250000 0.250000 0.677809
O O16 0.250000 0.250000 0.853640
O O17 0.312680 0.000000 0.867760
O O18 0.500000 0.000000 0.118015
#
# Coordination Sequence:
#
# PCOD9369841 Si02
#       7
#    16   8  16  16  16  16   8
#     4   9  17  32  53  77 103 135 171 211 261 311
#     4  11  21  37  58  77 103 141 181 217 260 315
#     4  11  22  36  53  77 108 139 175 219 264 313
#     4   9  17  30  51  76 103 132 172 218 261 312
#     4  11  21  33  50  77 108 138 173 218 268 320
#     4   9  19  34  53  77 106 138 175 216 260 312
#     4   9  16  31  52  75  99 131 171 213 252 303
#
# _framework density 18.267997000000001
#
# number of rings (size 3 to 8) (size 9 to 14) (size 15 to 20)
#    0.000    2.167    1.667    2.250    0.000    2.667 
#    0.000    1.667    0.000    4.000    0.000    0.000 
#    0.000    0.000    0.000    0.000    0.000    0.000 
#
# Total GULP energy -133958.775617 kJ/mol
# GULP energy per Si atom -5581.615651 kJ/mol
# Density = 1.822642 g / cm^3
# Si number density = 18.267997 Si / 1000 Ang^3
#
#
#
# Elastic Constant Matrix: (Units=GPa)
#
#
# Indices 1 2 3 4 5 6 
#
# 1 202.8851 15.3124 121.1564 0.0000 0.0000 0.0000
# 2 15.3124 16.0173 15.0697 0.0000 0.0000 -0.0001
# 3 121.1564 15.0697 149.3734 0.0000 0.0000 0.0000
# 4 0.0000 0.0000 0.0000 15.6533 0.0000 0.0000
# 5 0.0000 0.0000 0.0000 0.0000 24.2629 0.0000
# 6 0.0000 -0.0001 0.0000 0.0000 0.0000 20.0004
#
#
#
# Elastic Compliance Matrix: (Units=1/GPa)
#
#
# Indices 1 2 3 4 5 6 
#
# 1 0.009619 -0.002050 -0.007595 0.000000 0.000000 0.000000
# 2 -0.002050 0.069417 -0.005340 0.000000 0.000000 0.000000
# 3 -0.007595 -0.005340 0.013394 0.000000 0.000000 0.000000
# 4 0.000000 0.000000 0.000000 0.063884 0.000000 0.000000
# 5 0.000000 0.000000 0.000000 0.000000 0.041215 0.000000
# 6 0.000000 0.000000 0.000000 0.000000 0.000000 0.049999
#
#
# Mechanical properties :
#
#
# Convention : Reuss Voigt Hill
#
# Bulk Modulus (GPa) = 16.01068 74.59475 45.30271
# Shear Modulus (GPa) = 16.76056 26.43249 21.59652
#
# Velocity S-wave (km/s) = 3.03228 3.80798 3.44205
# Velocity P-wave (km/s) = 4.58727 7.76250 6.37572
#
# Compressibility (1/GPa) = 0.06245832
#
# Stress axis : x y z
#
# Youngs Moduli (GPa) = 103.95710 14.40578 74.66012
#
# Poissons Ratio (x) = 0.02953 0.56707
# Poissons Ratio (y) = 0.21311 0.39872
# Poissons Ratio (z) = 0.78960 0.07693
#
# Static dielectric constant tensor:
#      x y z
#    x 1.591880 0.000000 0.000000 
#    y 0.000000 1.642750 0.000000 
#    z 0.000000 0.000000 1.635840 
# 
# From -- ./inp_files/28113.got.cif
#   From: 2010.05.17/outbox.cif.g08.bks.cpg/sg42_15_cif.got.tgz:28113.got - 2010.06.03 19:03:34.
