data_PCOD9369293
_publ_section_title
;
Structure prediction by ZEFSAII (Michael W. Deem and Ramdas Pophale) SiO2 
 PCOD9369293
Probable space group: F M M 2
;
_chemical_formula_sum "Si O2"
_cell_formula_units_Z 104
_cell_length_a 8.967246
_cell_length_b 19.474820
_cell_length_c 29.810620
_cell_angle_alpha 90.000000
_cell_angle_beta 90.000000
_cell_angle_gamma 90.000000
_cell_volume 5205.992581
_symmetry_space_group_name_H-M "F M M 2"
_symmetry_group_IT_number 42
_symmetry_cell_setting 'orthorhombic'
loop_
_space_group_symop_operation_xyz
x,y,z
-x,-y,z
-x,y,z
x,-y,z
x,1/2+y,1/2+z
-x,1/2-y,1/2+z
-x,1/2+y,1/2+z
x,1/2-y,1/2+z
1/2+x,y,1/2+z
1/2-x,-y,1/2+z
1/2-x,y,1/2+z
1/2+x,-y,1/2+z
1/2+x,1/2+y,z
1/2-x,1/2-y,z
1/2-x,1/2+y,z
1/2+x,1/2-y,z
loop_
_atom_site_type_symbol
_atom_site_label
_atom_site_fract_x
_atom_site_fract_y
_atom_site_fract_z
Si Si1 0.173457 0.645711 0.913430
Si Si2 0.171814 0.642979 0.064194
Si Si3 0.750000 0.750000 0.985393
Si Si4 0.826728 0.081755 0.233285
Si Si5 0.668555 0.000000 0.544587
Si Si6 0.821281 0.918436 0.829398
Si Si7 0.338421 0.000000 0.960813
Si Si8 0.821634 0.680455 0.164008
O O1 0.276052 0.690606 0.947108
O O2 0.243956 0.632762 0.864807
O O3 0.163464 0.569193 0.933049
O O4 0.000000 0.672511 0.913249
O O5 0.258494 0.572068 0.057942
O O6 0.221968 0.673962 0.111638
O O7 0.000000 0.624550 0.068903
O O8 0.180731 0.697075 0.022835
O O9 0.743225 0.096020 0.280080
O O10 0.744150 0.118477 0.192588
O O11 0.000000 0.103111 0.235885
O O12 0.822911 0.000000 0.226667
O O13 0.500000 0.000000 0.559470
O O14 0.693937 0.000000 0.491413
O O15 0.000000 0.911063 0.830680
O O16 0.787960 0.000000 0.839160
O O17 0.500000 0.000000 0.986282
O O18 0.750000 0.750000 0.182240
O O19 0.000000 0.682643 0.167035
#
# Coordination Sequence:
#
# PCOD9369293 Si02
#       8
#    16  16   8  16   8  16   8  16
#     4  11  23  40  65  92 125 169 216 267 323 392
#     4  11  25  46  68  93 129 175 219 268 331 394
#     4  12  24  42  66  94 126 172 224 272 320 392
#     4  10  22  42  69 100 134 172 219 272 327 388
#     4  12  26  40  64  95 126 165 218 278 325 383
#     4  10  21  39  66  99 133 168 215 273 331 389
#     4  10  20  40  64  87 120 167 218 260 319 385
#     4  11  24  43  68  97 132 174 218 267 327 394
#
# _framework density 19.976977999999999
#
# number of rings (size 3 to 8) (size 9 to 14) (size 15 to 20)
#    0.000    1.231    3.077    2.538    1.077    5.846 
#    1.385    0.000    0.000    0.000    0.000    0.000 
#    0.000    0.000    0.000    0.000    0.000    0.000 
#
# Total GULP energy -144773.202708 kJ/mol
# GULP energy per Si atom -5568.200104 kJ/mol
# Density = 1.993151 g / cm^3
# Si number density = 19.976978 Si / 1000 Ang^3
#
#
#
# Elastic Constant Matrix: (Units=GPa)
#
#
# Indices 1 2 3 4 5 6 
#
# 1 55.0426 37.6338 31.2890 0.0000 0.0000 0.0000
# 2 37.6338 82.1794 35.4791 0.0000 0.0000 0.0000
# 3 31.2890 35.4791 122.0824 0.0000 0.0000 0.0000
# 4 0.0000 0.0000 0.0000 -12.9579 0.0000 0.0000
# 5 0.0000 0.0000 0.0000 0.0000 20.9728 0.0000
# 6 0.0000 0.0000 0.0000 0.0000 0.0000 -53.3278
#
#
#
# Elastic Compliance Matrix: (Units=1/GPa)
#
#
# Indices 1 2 3 4 5 6 
#
# 1 0.028020 -0.011127 -0.003947 0.000000 0.000000 0.000000
# 2 -0.011127 0.018333 -0.002476 0.000000 0.000000 0.000000
# 3 -0.003947 -0.002476 0.009922 0.000000 0.000000 0.000000
# 4 0.000000 0.000000 0.000000 -0.077173 0.000000 0.000000
# 5 0.000000 0.000000 0.000000 0.000000 0.047681 0.000000
# 6 0.000000 0.000000 0.000000 0.000000 0.000000 -0.018752
#
#
# Mechanical properties :
#
#
# Convention : Reuss Voigt Hill
#
# Bulk Modulus (GPa) = 47.22853 52.01204 49.62029
# Shear Modulus (GPa) = 99.61934 1.26425 50.44179
#
# Velocity S-wave (km/s) = 7.06932 0.79638 5.03039
# Velocity P-wave (km/s) = 9.50403 5.19020 7.65718
#
# Compressibility (1/GPa) = 0.02117364
#
# Stress axis : x y z
#
# Youngs Moduli (GPa) = 35.68924 54.54586 100.78110
#
# Poissons Ratio (x) = 0.60695 0.39783
# Poissons Ratio (y) = 0.39712 0.24954
# Poissons Ratio (z) = 0.14088 0.13506
#
# Static dielectric constant tensor:
#      x y z
#    x 1.729840 0.000000 0.000000 
#    y 0.000000 1.818600 0.000000 
#    z 0.000000 0.000000 1.699180 
# 
# From -- ./inp_files/31591.got.cif
#   From: 2010.05.17/outbox.cif.g08.bks.cpg/sg42_16_cif.got.tgz:31591.got - 2010.06.03 19:03:34.
