data_PCOD9369007
_publ_section_title
;
Structure prediction by ZEFSAII (Michael W. Deem and Ramdas Pophale) SiO2 
 PCOD9369007
Probable space group: F M M 2
;
_chemical_formula_sum "Si O2"
_cell_formula_units_Z 96
_cell_length_a 9.002382
_cell_length_b 18.073267
_cell_length_c 31.622079
_cell_angle_alpha 90.000000
_cell_angle_beta 90.000000
_cell_angle_gamma 90.000000
_cell_volume 5144.989839
_symmetry_space_group_name_H-M "F M M 2"
_symmetry_group_IT_number 42
_symmetry_cell_setting 'orthorhombic'
loop_
_space_group_symop_operation_xyz
x,y,z
-x,-y,z
-x,y,z
x,-y,z
x,1/2+y,1/2+z
-x,1/2-y,1/2+z
-x,1/2+y,1/2+z
x,1/2-y,1/2+z
1/2+x,y,1/2+z
1/2-x,-y,1/2+z
1/2-x,y,1/2+z
1/2+x,-y,1/2+z
1/2+x,1/2+y,z
1/2-x,1/2-y,z
1/2-x,1/2+y,z
1/2+x,1/2-y,z
loop_
_atom_site_type_symbol
_atom_site_label
_atom_site_fract_x
_atom_site_fract_y
_atom_site_fract_z
Si Si1 0.671258 0.909957 0.996240
Si Si2 0.677532 0.169542 0.163208
Si Si3 0.325397 0.589217 0.908766
Si Si4 0.324086 0.587630 0.751365
Si Si5 0.322978 0.330712 0.329546
Si Si6 0.675296 0.088996 0.583793
O O1 0.500000 0.885696 0.995319
O O2 0.757916 0.887463 0.953951
O O3 0.671713 0.000000 0.996339
O O4 0.752056 0.886959 0.039367
O O5 0.500000 0.175569 0.158630
O O6 0.750000 0.250000 0.166643
O O7 0.708532 0.124073 0.206073
O O8 0.745135 0.127725 0.122954
O O9 0.500000 0.607174 0.906475
O O10 0.311078 0.500000 0.905382
O O11 0.238113 0.627031 0.870701
O O12 0.500000 0.599327 0.760380
O O13 0.297733 0.500000 0.749758
O O14 0.229532 0.624927 0.788158
O O15 0.500000 0.325114 0.330951
O O16 0.250000 0.250000 0.328035
O O17 0.500000 0.105219 0.583823
O O18 0.693257 0.000000 0.587309
#
# Coordination Sequence:
#
# PCOD9369007 Si02
#       6
#    16  16  16  16  16  16
#     4   9  17  31  54  84 116 150 191 237 283 333
#     4  11  23  39  59  84 116 153 191 233 285 341
#     4  10  20  36  59  86 117 152 191 236 285 337
#     4  10  22  41  64  89 116 147 186 233 284 338
#     4  12  25  40  59  84 116 153 192 234 284 340
#     4  10  20  35  57  85 116 151 193 239 286 337
#
# _framework density 18.658929000000001
#
# number of rings (size 3 to 8) (size 9 to 14) (size 15 to 20)
#    0.000    1.667    0.000    5.000    0.000    9.667 
#    0.000    0.833    0.000    0.000    0.000    0.000 
#    0.000    0.000    0.000    0.000    0.000    0.000 
#
# Total GULP energy -134163.139130 kJ/mol
# GULP energy per Si atom -5590.130797 kJ/mol
# Density = 1.861646 g / cm^3
# Si number density = 18.658929 Si / 1000 Ang^3
#
#
#
# Elastic Constant Matrix: (Units=GPa)
#
#
# Indices 1 2 3 4 5 6 
#
# 1 173.6708 81.6504 131.6438 0.0000 0.0000 0.0000
# 2 81.6504 68.8051 75.0855 0.0000 0.0000 0.0000
# 3 131.6438 75.0855 199.4349 0.0000 0.0000 0.0000
# 4 0.0000 0.0000 0.0000 -38.4917 0.0000 0.0000
# 5 0.0000 0.0000 0.0000 0.0000 40.6821 0.0000
# 6 0.0000 0.0000 0.0000 0.0000 0.0000 27.9243
#
#
#
# Elastic Compliance Matrix: (Units=1/GPa)
#
#
# Indices 1 2 3 4 5 6 
#
# 1 0.016293 -0.012898 -0.005899 0.000000 0.000000 0.000000
# 2 -0.012898 0.034879 -0.004618 0.000000 0.000000 0.000000
# 3 -0.005899 -0.004618 0.010647 0.000000 0.000000 0.000000
# 4 0.000000 0.000000 0.000000 -0.025980 0.000000 0.000000
# 5 0.000000 0.000000 0.000000 0.000000 0.024581 0.000000
# 6 0.000000 0.000000 0.000000 0.000000 0.000000 0.035811
#
#
# Mechanical properties :
#
#
# Convention : Reuss Voigt Hill
#
# Bulk Modulus (GPa) = 66.71407 113.18559 89.94983
# Shear Modulus (GPa) = 33.77068 16.25835 25.01452
#
# Velocity S-wave (km/s) = 4.25890 2.95506 3.66542
# Velocity P-wave (km/s) = 7.74703 8.51088 8.13792
#
# Compressibility (1/GPa) = 0.01498934
#
# Stress axis : x y z
#
# Youngs Moduli (GPa) = 61.37483 28.67064 93.92498
#
# Poissons Ratio (x) = 0.36978 0.55408
# Poissons Ratio (y) = 0.79158 0.43376
# Poissons Ratio (z) = 0.36206 0.13241
#
# Static dielectric constant tensor:
#      x y z
#    x 1.622330 0.000000 0.000000 
#    y 0.000000 1.625640 0.000000 
#    z 0.000000 0.000000 1.610580 
# 
# From -- ./inp_files/31458.got.cif
#   From: 2010.05.17/outbox.cif.g08.bks.cpg/sg42_16_cif.got.tgz:31458.got - 2010.06.03 19:03:34.
