data_PCOD9369853
_publ_section_title
;
Structure prediction by ZEFSAII (Michael W. Deem and Ramdas Pophale) SiO2 
 PCOD9369853
Probable space group: F M M 2
;
_chemical_formula_sum "Si O2"
_cell_formula_units_Z 72
_cell_length_a 18.679613
_cell_length_b 14.983293
_cell_length_c 13.806111
_cell_angle_alpha 90.000000
_cell_angle_beta 90.000000
_cell_angle_gamma 90.000000
_cell_volume 3864.083543
_symmetry_space_group_name_H-M "F M M 2"
_symmetry_group_IT_number 42
_symmetry_cell_setting 'orthorhombic'
loop_
_space_group_symop_operation_xyz
x,y,z
-x,-y,z
-x,y,z
x,-y,z
x,1/2+y,1/2+z
-x,1/2-y,1/2+z
-x,1/2+y,1/2+z
x,1/2-y,1/2+z
1/2+x,y,1/2+z
1/2-x,-y,1/2+z
1/2-x,y,1/2+z
1/2+x,-y,1/2+z
1/2+x,1/2+y,z
1/2-x,1/2-y,z
1/2-x,1/2+y,z
1/2+x,1/2-y,z
loop_
_atom_site_type_symbol
_atom_site_label
_atom_site_fract_x
_atom_site_fract_y
_atom_site_fract_z
Si Si1 0.917359 0.169038 0.948620
Si Si2 0.674970 0.196785 0.835446
Si Si3 0.203509 0.500000 0.912148
Si Si4 0.709028 0.500000 0.634765
Si Si5 0.864694 0.500000 0.339259
Si Si6 0.305468 0.174321 0.618643
O O1 0.886685 0.256446 0.896351
O O2 0.905782 0.087653 0.874078
O O3 0.000000 0.176289 0.975531
O O4 0.866298 0.154344 0.041056
O O5 0.750000 0.250000 0.854221
O O6 0.680232 0.092877 0.863492
O O7 0.662739 0.206357 0.720745
O O8 0.289467 0.500000 0.898236
O O9 0.180511 0.500000 0.024633
O O10 0.655168 0.500000 0.725532
O O11 0.758503 0.587305 0.641519
O O12 0.250000 0.250000 0.582592
#
# Coordination Sequence:
#
# PCOD9369853 Si02
#       6
#    16  16   8   8   8  16
#     4  12  25  40  59  89 132 165 195 250 319 376
#     4  11  21  39  62  92 121 159 208 260 302 356
#     4  12  20  37  66  94 121 146 206 267 298 350
#     4  12  20  34  64  95 116 149 196 262 307 346
#     4  12  21  39  62  93 120 151 206 253 312 352
#     4  11  21  36  63  90 117 157 212 255 296 354
#
# _framework density 18.633137000000001
#
# number of rings (size 3 to 8) (size 9 to 14) (size 15 to 20)
#    0.000    0.444    6.667    3.667    0.000    0.889 
#    0.000    0.556    0.000    4.000    0.000    0.000 
#    0.000    0.000    0.000    0.000    0.000    0.000 
#
# Total GULP energy -100597.563982 kJ/mol
# GULP energy per Si atom -5588.753555 kJ/mol
# Density = 1.859073 g / cm^3
# Si number density = 18.633137 Si / 1000 Ang^3
#
#
#
# Elastic Constant Matrix: (Units=GPa)
#
#
# Indices 1 2 3 4 5 6 
#
# 1 75.1258 28.7373 32.3993 0.0000 0.0000 0.0000
# 2 28.7373 118.5697 11.1523 0.0000 0.0000 0.0000
# 3 32.3993 11.1523 137.5843 0.0000 0.0000 0.0000
# 4 0.0000 0.0000 0.0000 29.6594 0.0000 0.0000
# 5 0.0000 0.0000 0.0000 0.0000 13.0761 0.0000
# 6 0.0000 0.0000 0.0000 0.0000 0.0000 15.3778
#
#
#
# Elastic Compliance Matrix: (Units=1/GPa)
#
#
# Indices 1 2 3 4 5 6 
#
# 1 0.016207 -0.003596 -0.003525 0.000000 0.000000 0.000000
# 2 -0.003596 0.009297 0.000093 0.000000 0.000000 0.000000
# 3 -0.003525 0.000093 0.008091 0.000000 0.000000 0.000000
# 4 0.000000 0.000000 0.000000 0.033716 0.000000 0.000000
# 5 0.000000 0.000000 0.000000 0.000000 0.076475 0.000000
# 6 0.000000 0.000000 0.000000 0.000000 0.000000 0.065029
#
#
# Mechanical properties :
#
#
# Convention : Reuss Voigt Hill
#
# Bulk Modulus (GPa) = 51.18166 52.87305 52.02735
# Shear Modulus (GPa) = 21.79755 28.88874 25.34314
#
# Velocity S-wave (km/s) = 3.42398 3.94178 3.69197
# Velocity P-wave (km/s) = 6.56957 7.01101 6.79388
#
# Compressibility (1/GPa) = 0.01953825
#
# Stress axis : x y z
#
# Youngs Moduli (GPa) = 61.70190 107.56463 123.59725
#
# Poissons Ratio (x) = 0.38685 0.43568
# Poissons Ratio (y) = 0.22191 -0.01154
# Poissons Ratio (z) = 0.21750 -0.01004
#
# Static dielectric constant tensor:
#      x y z
#    x 1.606940 0.000000 0.000000 
#    y 0.000000 1.672920 0.000000 
#    z 0.000000 0.000000 1.678190 
# 
# From -- ./inp_files/13697.got.cif
#   From: 2010.05.17/outbox.cif.g08.bks.cpg/sg42_7_cif.got.tgz:13697.got - 2010.06.03 19:03:34.
