data_PCOD9369786
_publ_section_title
;
Structure prediction by ZEFSAII (Michael W. Deem and Ramdas Pophale) SiO2 
 PCOD9369786
Probable space group: F M M 2
;
_chemical_formula_sum "Si O2"
_cell_formula_units_Z 48
_cell_length_a 18.120478
_cell_length_b 15.805101
_cell_length_c 7.498257
_cell_angle_alpha 90.000000
_cell_angle_beta 90.000000
_cell_angle_gamma 90.000000
_cell_volume 2147.470699
_symmetry_space_group_name_H-M "F M M 2"
_symmetry_group_IT_number 42
_symmetry_cell_setting 'orthorhombic'
loop_
_space_group_symop_operation_xyz
x,y,z
-x,-y,z
-x,y,z
x,-y,z
x,1/2+y,1/2+z
-x,1/2-y,1/2+z
-x,1/2+y,1/2+z
x,1/2-y,1/2+z
1/2+x,y,1/2+z
1/2-x,-y,1/2+z
1/2-x,y,1/2+z
1/2+x,-y,1/2+z
1/2+x,1/2+y,z
1/2-x,1/2-y,z
1/2-x,1/2+y,z
1/2+x,1/2-y,z
loop_
_atom_site_type_symbol
_atom_site_label
_atom_site_fract_x
_atom_site_fract_y
_atom_site_fract_z
Si Si1 0.797715 0.335526 0.378590
Si Si2 0.154654 0.404962 0.012709
Si Si3 0.084525 0.102009 0.153034
O O1 0.750000 0.250000 0.384265
O O2 0.835310 0.349351 0.188107
O O3 0.734133 0.404649 0.414526
O O4 0.858434 0.347740 0.530460
O O5 0.134678 0.500000 0.068486
O O6 0.098701 0.375497 0.860081
O O7 0.000000 0.117690 0.103117
O O8 0.098282 0.000000 0.137639
#
# Coordination Sequence:
#
# PCOD9369786 Si02
#       3
#    16  16  16
#     4  12  24  39  68  99 137 178 226 284 344 407
#     4  11  22  39  67  98 131 179 232 281 334 406
#     4  10  23  44  71 104 139 179 234 293 345 408
#
# _framework density 22.351877000000002
#
# number of rings (size 3 to 8) (size 9 to 14) (size 15 to 20)
#    0.000    1.000    3.333    4.000    0.000    2.667 
#    0.000    5.000    0.000    0.000    0.000    0.000 
#    0.000    0.000    0.000    0.000    0.000    0.000 
#
# Total GULP energy -67134.117824 kJ/mol
# GULP energy per Si atom -5594.509819 kJ/mol
# Density = 2.230100 g / cm^3
# Si number density = 22.351877 Si / 1000 Ang^3
#
#
#
# Elastic Constant Matrix: (Units=GPa)
#
#
# Indices 1 2 3 4 5 6 
#
# 1 103.3601 40.2554 41.1953 0.0000 0.0000 0.0000
# 2 40.2554 100.2184 63.6289 0.0000 0.0000 0.0000
# 3 41.1953 63.6289 143.6856 0.0000 0.0000 0.0000
# 4 0.0000 0.0000 0.0000 31.8573 0.0000 0.0000
# 5 0.0000 0.0000 0.0000 0.0000 36.4163 0.0000
# 6 0.0000 0.0000 0.0000 0.0000 0.0000 25.2118
#
#
#
# Elastic Compliance Matrix: (Units=1/GPa)
#
#
# Indices 1 2 3 4 5 6 
#
# 1 0.011789 -0.003602 -0.001785 0.000000 0.000000 0.000000
# 2 -0.003602 0.014982 -0.005602 0.000000 0.000000 0.000000
# 3 -0.001785 -0.005602 0.009952 0.000000 0.000000 0.000000
# 4 0.000000 0.000000 0.000000 0.031390 0.000000 0.000000
# 5 0.000000 0.000000 0.000000 0.000000 0.027460 0.000000
# 6 0.000000 0.000000 0.000000 0.000000 0.000000 0.039664
#
#
# Mechanical properties :
#
#
# Convention : Reuss Voigt Hill
#
# Bulk Modulus (GPa) = 67.81763 70.82481 69.32122
# Shear Modulus (GPa) = 30.83958 32.17607 31.50783
#
# Velocity S-wave (km/s) = 3.71850 3.79822 3.75857
# Velocity P-wave (km/s) = 6.98879 7.14076 7.06518
#
# Compressibility (1/GPa) = 0.01474543
#
# Stress axis : x y z
#
# Youngs Moduli (GPa) = 84.82312 66.74850 100.48303
#
# Poissons Ratio (x) = 0.24045 0.17934
# Poissons Ratio (y) = 0.30556 0.56286
# Poissons Ratio (z) = 0.15139 0.37390
#
# Static dielectric constant tensor:
#      x y z
#    x 1.762890 0.000000 0.000000 
#    y 0.000000 1.906040 0.000000 
#    z 0.000000 0.000000 1.828120 
# 
# From -- ./inp_files/2417.got.cif
#   From: 2010.05.17/outbox.cif.g08.bks.cpg/sg42_2_cif.got.tgz:2417.got - 2010.06.03 19:03:34.
