data_PCOD9369707
_publ_section_title
;
Structure prediction by ZEFSAII (Michael W. Deem and Ramdas Pophale) SiO2 
 PCOD9369707
Probable space group: F M M 2
;
_chemical_formula_sum "Si O2"
_cell_formula_units_Z 100
_cell_length_a 7.806844
_cell_length_b 30.464662
_cell_length_c 20.412763
_cell_angle_alpha 90.000000
_cell_angle_beta 90.000000
_cell_angle_gamma 90.000000
_cell_volume 4854.825881
_symmetry_space_group_name_H-M "F M M 2"
_symmetry_group_IT_number 42
_symmetry_cell_setting 'orthorhombic'
loop_
_space_group_symop_operation_xyz
x,y,z
-x,-y,z
-x,y,z
x,-y,z
x,1/2+y,1/2+z
-x,1/2-y,1/2+z
-x,1/2+y,1/2+z
x,1/2-y,1/2+z
1/2+x,y,1/2+z
1/2-x,-y,1/2+z
1/2-x,y,1/2+z
1/2+x,-y,1/2+z
1/2+x,1/2+y,z
1/2-x,1/2-y,z
1/2-x,1/2+y,z
1/2+x,1/2-y,z
loop_
_atom_site_type_symbol
_atom_site_label
_atom_site_fract_x
_atom_site_fract_y
_atom_site_fract_z
Si Si1 0.297547 0.050766 0.846120
Si Si2 0.196191 0.566932 0.073832
Si Si3 0.799465 0.882238 0.958183
Si Si4 0.705790 0.395784 0.715163
Si Si5 0.705933 0.702265 0.733957
Si Si6 0.705497 0.296970 0.883837
Si Si7 0.500000 0.000000 0.542324
O O1 0.500000 0.048933 0.858713
O O2 0.217151 0.077785 0.906132
O O3 0.270075 0.078050 0.779005
O O4 0.234887 0.000000 0.841193
O O5 0.242492 0.578471 0.148443
O O6 0.347045 0.537050 0.046084
O O7 0.000000 0.549901 0.072881
O O8 0.202182 0.608043 0.025021
O O9 0.730213 0.838958 0.922451
O O10 0.000000 0.875592 0.972160
O O11 0.500000 0.394336 0.722516
O O12 0.766449 0.345218 0.708193
O O13 0.500000 0.700702 0.734064
O O14 0.750000 0.750000 0.704203
O O15 0.771077 0.702802 0.809185
O O16 0.500000 0.300833 0.879772
O O17 0.750000 0.250000 0.913762
#
# Coordination Sequence:
#
# PCOD9369707 Si02
#       7
#    16  16  16  16  16  16   4
#     4  11  25  38  58  89 123 158 208 264 319 380
#     4  11  26  44  68  94 128 172 218 262 322 383
#     4  11  22  42  63  90 127 169 209 266 321 381
#     4  10  22  42  62  88 125 165 205 262 319 379
#     4   9  17  34  57  88 121 158 204 253 314 377
#     4   9  18  33  58  88 122 160 207 257 317 380
#     4  12  26  48  68  94 124 176 218 266 316 386
#
# _framework density 20.598061000000001
#
# number of rings (size 3 to 8) (size 9 to 14) (size 15 to 20)
#    0.000    1.760    2.400    1.200    3.360    3.200 
#    0.000    0.800    0.000    3.840    0.000    0.000 
#    0.000    0.000    0.000    0.000    0.000    0.000 
#
# Total GULP energy -139218.644200 kJ/mol
# GULP energy per Si atom -5568.745768 kJ/mol
# Density = 2.055118 g / cm^3
# Si number density = 20.598061 Si / 1000 Ang^3
#
#
#
# Elastic Constant Matrix: (Units=GPa)
#
#
# Indices 1 2 3 4 5 6 
#
# 1 52.6477 4.0415 6.3707 0.0000 0.0000 0.0000
# 2 4.0415 102.3445 0.0188 0.0000 0.0000 0.0000
# 3 6.3707 0.0188 58.7099 0.0000 0.0000 0.0000
# 4 0.0000 0.0000 0.0000 -373.0456 0.0000 0.0000
# 5 0.0000 0.0000 0.0000 0.0000 6.7170 0.0000
# 6 0.0000 0.0000 0.0000 0.0000 0.0000 45.8745
#
#
#
# Elastic Compliance Matrix: (Units=1/GPa)
#
#
# Indices 1 2 3 4 5 6 
#
# 1 0.019306 -0.000762 -0.002095 0.000000 0.000000 0.000000
# 2 -0.000762 0.009801 0.000080 0.000000 0.000000 0.000000
# 3 -0.002095 0.000080 0.017260 0.000000 0.000000 0.000000
# 4 0.000000 0.000000 0.000000 -0.002681 0.000000 0.000000
# 5 0.000000 0.000000 0.000000 0.000000 0.148877 0.000000
# 6 0.000000 0.000000 0.000000 0.000000 0.000000 0.021799
#
#
# Mechanical properties :
#
#
# Convention : Reuss Voigt Hill
#
# Bulk Modulus (GPa) = 24.50199 26.06268 25.28234
# Shear Modulus (GPa) = 21.41136 -50.53943 -14.56404
#
# Velocity S-wave (km/s) = 3.22760 -4.95876 -2.66194
# Velocity P-wave (km/s) = 5.08045 4.48389 1.68904
#
# Compressibility (1/GPa) = 0.04081302
#
# Stress axis : x y z
#
# Youngs Moduli (GPa) = 51.79700 102.03048 57.93682
#
# Poissons Ratio (x) = 0.07775 0.12136
# Poissons Ratio (y) = 0.03947 -0.00461
# Poissons Ratio (z) = 0.10850 -0.00812
#
# Static dielectric constant tensor:
#      x y z
#    x 1.733070 0.000000 0.000000 
#    y 0.000000 2.061300 0.000000 
#    z 0.000000 0.000000 1.707430 
# 
# From -- ./inp_files/24008.got.cif
#   From: 2010.05.17/outbox.cif.g08.bks.cpg/sg42_13_cif.got.tgz:24008.got - 2010.06.03 19:03:34.
