data_PCOD9369867
_publ_section_title
;
Structure prediction by ZEFSAII (Michael W. Deem and Ramdas Pophale) SiO2 
 PCOD9369867
Probable space group: F M M 2
;
_chemical_formula_sum "Si O2"
_cell_formula_units_Z 96
_cell_length_a 19.589923
_cell_length_b 16.342769
_cell_length_c 13.963409
_cell_angle_alpha 90.000000
_cell_angle_beta 90.000000
_cell_angle_gamma 90.000000
_cell_volume 4470.435469
_symmetry_space_group_name_H-M "F M M 2"
_symmetry_group_IT_number 42
_symmetry_cell_setting 'orthorhombic'
loop_
_space_group_symop_operation_xyz
x,y,z
-x,-y,z
-x,y,z
x,-y,z
x,1/2+y,1/2+z
-x,1/2-y,1/2+z
-x,1/2+y,1/2+z
x,1/2-y,1/2+z
1/2+x,y,1/2+z
1/2-x,-y,1/2+z
1/2-x,y,1/2+z
1/2+x,-y,1/2+z
1/2+x,1/2+y,z
1/2-x,1/2-y,z
1/2-x,1/2+y,z
1/2+x,1/2-y,z
loop_
_atom_site_type_symbol
_atom_site_label
_atom_site_fract_x
_atom_site_fract_y
_atom_site_fract_z
Si Si1 0.774279 0.341571 0.371390
Si Si2 0.924242 0.668473 0.057682
Si Si3 0.078015 0.841789 0.170329
Si Si4 0.150437 0.089530 0.712893
Si Si5 0.276251 0.654582 0.095966
Si Si6 0.869975 0.596542 0.865753
O O1 0.750000 0.250000 0.355924
O O2 0.839179 0.352816 0.303682
O O3 0.785052 0.354697 0.482833
O O4 0.710442 0.397739 0.341035
O O5 0.915615 0.753902 0.115255
O O6 0.912179 0.604967 0.143087
O O7 0.000000 0.665491 0.018573
O O8 0.877696 0.644538 0.967257
O O9 0.151183 0.876403 0.136383
O O10 0.087013 0.855217 0.284707
O O11 0.000000 0.870469 0.147274
O O12 0.215289 0.104119 0.643610
O O13 0.149716 0.000000 0.753425
O O14 0.250000 0.750000 0.113155
O O15 0.889617 0.500000 0.873267
#
# Coordination Sequence:
#
# PCOD9369867 Si02
#       6
#    16  16  16  16  16  16
#     4  11  22  38  65  94 130 172 226 275 332 402
#     4  11  24  43  65  94 133 176 220 272 336 406
#     4  11  24  42  67  99 135 178 222 272 340 412
#     4  12  23  37  61  93 127 166 215 270 332 393
#     4  11  21  41  65  91 126 172 219 271 328 397
#     4  12  24  42  70 103 135 173 227 295 347 390
#
# _framework density 21.474418
#
# number of rings (size 3 to 8) (size 9 to 14) (size 15 to 20)
#    0.000    0.667    5.000    4.000    0.000    3.000 
#    0.000    2.500    0.000    0.000    0.000    0.000 
#    0.000    0.000    0.000    0.000    0.000    0.000 
#
# Total GULP energy -133719.030206 kJ/mol
# GULP energy per Si atom -5571.626259 kJ/mol
# Density = 2.142554 g / cm^3
# Si number density = 21.474418 Si / 1000 Ang^3
#
#
#
# Elastic Constant Matrix: (Units=GPa)
#
#
# Indices 1 2 3 4 5 6 
#
# 1 54.4375 -6.1669 -6.0665 0.0000 0.0000 0.0000
# 2 -6.1669 53.3987 20.8030 0.0000 0.0000 0.0000
# 3 -6.0665 20.8030 113.5745 0.0000 0.0000 0.0000
# 4 0.0000 0.0000 0.0000 -12.3889 0.0000 0.0000
# 5 0.0000 0.0000 0.0000 0.0000 36.0980 0.0000
# 6 0.0000 0.0000 0.0000 0.0000 0.0000 11.9373
#
#
#
# Elastic Compliance Matrix: (Units=1/GPa)
#
#
# Indices 1 2 3 4 5 6 
#
# 1 0.018657 0.001902 0.000648 0.000000 0.000000 0.000000
# 2 0.001902 0.020360 -0.003628 0.000000 0.000000 0.000000
# 3 0.000648 -0.003628 0.009504 0.000000 0.000000 0.000000
# 4 0.000000 0.000000 0.000000 -0.080718 0.000000 0.000000
# 5 0.000000 0.000000 0.000000 0.000000 0.027702 0.000000
# 6 0.000000 0.000000 0.000000 0.000000 0.000000 0.083771
#
#
# Mechanical properties :
#
#
# Convention : Reuss Voigt Hill
#
# Bulk Modulus (GPa) = 21.56723 26.50554 24.03638
# Shear Modulus (GPa) = 51.60651 21.31870 36.46261
#
# Velocity S-wave (km/s) = 4.90752 3.15421 4.12510
# Velocity P-wave (km/s) = 6.49436 5.06310 5.82288
#
# Compressibility (1/GPa) = 0.04636665
#
# Stress axis : x y z
#
# Youngs Moduli (GPa) = 53.59805 49.11595 105.22016
#
# Poissons Ratio (x) = -0.09343 -0.06820
# Poissons Ratio (y) = -0.10195 0.38170
# Poissons Ratio (z) = -0.03474 0.17818
#
# Static dielectric constant tensor:
#      x y z
#    x 1.789860 0.000000 0.000000 
#    y 0.000000 1.833550 0.000000 
#    z 0.000000 0.000000 1.755980 
# 
# From -- ./inp_files/15817.got.cif
#   From: 2010.05.17/outbox.cif.g08.bks.cpg/sg42_8_cif.got.tgz:15817.got - 2010.06.03 19:03:34.
