data_PCOD9369327
_publ_section_title
;
Structure prediction by ZEFSAII (Michael W. Deem and Ramdas Pophale) SiO2 
 PCOD9369327
Probable space group: F M M 2
;
_chemical_formula_sum "Si O2"
_cell_formula_units_Z 96
_cell_length_a 19.176754
_cell_length_b 8.649625
_cell_length_c 31.635629
_cell_angle_alpha 90.000000
_cell_angle_beta 90.000000
_cell_angle_gamma 90.000000
_cell_volume 5247.456538
_symmetry_space_group_name_H-M "F M M 2"
_symmetry_group_IT_number 42
_symmetry_cell_setting 'orthorhombic'
loop_
_space_group_symop_operation_xyz
x,y,z
-x,-y,z
-x,y,z
x,-y,z
x,1/2+y,1/2+z
-x,1/2-y,1/2+z
-x,1/2+y,1/2+z
x,1/2-y,1/2+z
1/2+x,y,1/2+z
1/2-x,-y,1/2+z
1/2-x,y,1/2+z
1/2+x,-y,1/2+z
1/2+x,1/2+y,z
1/2-x,1/2-y,z
1/2-x,1/2+y,z
1/2+x,1/2-y,z
loop_
_atom_site_type_symbol
_atom_site_label
_atom_site_fract_x
_atom_site_fract_y
_atom_site_fract_z
Si Si1 0.919460 0.686424 0.909500
Si Si2 0.581072 0.684922 0.753337
Si Si3 0.080662 0.813477 0.000923
Si Si4 0.418978 0.686288 0.161366
Si Si5 0.327912 0.812857 0.580888
Si Si6 0.672101 0.814496 0.829552
O O1 0.918390 0.500000 0.910939
O O2 0.870010 0.737570 0.871395
O O3 0.000000 0.734902 0.901917
O O4 0.897911 0.749871 0.955215
O O5 0.500000 0.731323 0.760382
O O6 0.585210 0.500000 0.755560
O O7 0.600318 0.740226 0.706255
O O8 0.629990 0.758106 0.788627
O O9 0.129808 0.762239 0.039173
O O10 0.000000 0.766517 0.008409
O O11 0.082073 0.000000 0.999519
O O12 0.500000 0.725633 0.152357
O O13 0.415018 0.500000 0.165112
O O14 0.369961 0.735516 0.122856
O O15 0.250000 0.750000 0.580911
O O16 0.326445 0.000000 0.580672
O O17 0.750000 0.750000 0.829565
O O18 0.674181 0.000000 0.829557
#
# Coordination Sequence:
#
# PCOD9369327 Si02
#       6
#    16  16  16  16  16  16
#     4   9  19  36  57  80 105 136 176 220 266 317
#     4  10  21  37  58  84 111 139 177 224 270 320
#     4   9  18  34  56  79 103 135 177 221 261 306
#     4   9  18  35  58  79 102 138 182 223 263 310
#     4  10  21  35  52  77 108 141 176 215 262 316
#     4  11  23  38  56  79 110 146 182 221 268 322
#
# _framework density 18.294575999999999
#
# number of rings (size 3 to 8) (size 9 to 14) (size 15 to 20)
#    0.000    2.333    0.000    2.000    0.000    7.667 
#    0.000    6.667    0.000    5.000    0.000    0.000 
#    0.000    0.000    0.000    0.000    0.000    0.000 
#
# Total GULP energy -133996.687489 kJ/mol
# GULP energy per Si atom -5583.195312 kJ/mol
# Density = 1.825294 g / cm^3
# Si number density = 18.294576 Si / 1000 Ang^3
#
#
#
# Elastic Constant Matrix: (Units=GPa)
#
#
# Indices 1 2 3 4 5 6 
#
# 1 133.6921 36.1877 137.3363 0.0000 0.0000 0.0000
# 2 36.1877 20.9221 43.7549 0.0000 0.0000 0.0000
# 3 137.3363 43.7549 203.3216 0.0000 0.0000 0.0000
# 4 0.0000 0.0000 0.0000 31.2217 0.0000 0.0000
# 5 0.0000 0.0000 0.0000 0.0000 -4.9147 0.0000
# 6 0.0000 0.0000 0.0000 0.0000 0.0000 27.1467
#
#
#
# Elastic Compliance Matrix: (Units=1/GPa)
#
#
# Indices 1 2 3 4 5 6 
#
# 1 0.026952 -0.015537 -0.014862 0.000000 0.000000 0.000000
# 2 -0.015537 0.095868 -0.010136 0.000000 0.000000 0.000000
# 3 -0.014862 -0.010136 0.017138 0.000000 0.000000 0.000000
# 4 0.000000 0.000000 0.000000 0.032029 0.000000 0.000000
# 5 0.000000 0.000000 0.000000 0.000000 -0.203472 0.000000
# 6 0.000000 0.000000 0.000000 0.000000 0.000000 0.036837
#
#
# Mechanical properties :
#
#
# Convention : Reuss Voigt Hill
#
# Bulk Modulus (GPa) = 16.98124 88.05485 52.51805
# Shear Modulus (GPa) = 47.14748 20.06788 33.60768
#
# Velocity S-wave (km/s) = 5.08205 3.31559 4.29071
# Velocity P-wave (km/s) = 6.61351 7.93055 7.30179
#
# Compressibility (1/GPa) = 0.05888852
#
# Stress axis : x y z
#
# Youngs Moduli (GPa) = 37.10289 10.43103 58.34966
#
# Poissons Ratio (x) = 0.16207 0.86717
# Poissons Ratio (y) = 0.57647 0.59144
# Poissons Ratio (z) = 0.55141 0.10573
#
# Static dielectric constant tensor:
#      x y z
#    x 1.606590 0.000000 0.000000 
#    y 0.000000 1.622220 0.000000 
#    z 0.000000 0.000000 1.604380 
# 
# From -- ./inp_files/31432.got.cif
#   From: 2010.05.17/outbox.cif.g08.bks.cpg/sg42_16_cif.got.tgz:31432.got - 2010.06.03 19:03:34.
