data_PCOD9369060
_publ_section_title
;
Structure prediction by ZEFSAII (Michael W. Deem and Ramdas Pophale) SiO2 
 PCOD9369060
Probable space group: F M M 2
;
_chemical_formula_sum "Si O2"
_cell_formula_units_Z 128
_cell_length_a 22.865889
_cell_length_b 18.160157
_cell_length_c 17.378750
_cell_angle_alpha 90.000000
_cell_angle_beta 90.000000
_cell_angle_gamma 90.000000
_cell_volume 7216.493512
_symmetry_space_group_name_H-M "F M M 2"
_symmetry_group_IT_number 42
_symmetry_cell_setting 'orthorhombic'
loop_
_space_group_symop_operation_xyz
x,y,z
-x,-y,z
-x,y,z
x,-y,z
x,1/2+y,1/2+z
-x,1/2-y,1/2+z
-x,1/2+y,1/2+z
x,1/2-y,1/2+z
1/2+x,y,1/2+z
1/2-x,-y,1/2+z
1/2-x,y,1/2+z
1/2+x,-y,1/2+z
1/2+x,1/2+y,z
1/2-x,1/2-y,z
1/2-x,1/2+y,z
1/2+x,1/2-y,z
loop_
_atom_site_type_symbol
_atom_site_label
_atom_site_fract_x
_atom_site_fract_y
_atom_site_fract_z
Si Si1 0.729790 0.164825 0.028800
Si Si2 0.183161 0.412893 0.408107
Si Si3 0.780566 0.416886 0.661116
Si Si4 0.431476 0.083973 0.797877
Si Si5 0.633923 0.189062 0.917435
Si Si6 0.587686 0.414665 0.120200
Si Si7 0.263333 0.675159 0.300224
Si Si8 0.567512 0.339290 0.961653
O O1 0.750000 0.250000 0.027356
O O2 0.735724 0.132316 0.113658
O O3 0.775013 0.118353 0.975974
O O4 0.664912 0.157515 0.993812
O O5 0.191657 0.500000 0.399863
O O6 0.208103 0.367328 0.335633
O O7 0.115525 0.394549 0.424978
O O8 0.759660 0.500000 0.667561
O O9 0.842187 0.416103 0.617442
O O10 0.792850 0.382930 0.744211
O O11 0.500000 0.081865 0.816074
O O12 0.401415 0.134312 0.862128
O O13 0.427406 0.107762 0.707883
O O14 0.407762 0.000000 0.800098
O O15 0.692372 0.203722 0.866165
O O16 0.595536 0.259572 0.941365
O O17 0.567664 0.500000 0.108822
O O18 0.567292 0.361129 0.052315
O O19 0.250000 0.750000 0.255275
O O20 0.500000 0.344145 0.934816
#
# Coordination Sequence:
#
# PCOD9369060 Si02
#       8
#    16  16  16  16  16  16  16  16
#     4  11  20  37  58  80 119 156 184 232 295 350
#     4  11  21  35  55  83 115 148 192 243 290 353
#     4  11  21  34  57  90 117 145 190 240 294 361
#     4  10  21  37  58  85 115 149 194 246 294 342
#     4  11  21  38  58  83 115 153 198 235 289 352
#     4  10  20  36  56  84 118 149 190 241 295 352
#     4  11  21  37  58  79 112 154 187 236 298 352
#     4  12  23  37  57  82 118 162 200 241 294 354
#
# _framework density 17.737147
#
# number of rings (size 3 to 8) (size 9 to 14) (size 15 to 20)
#    0.000    1.125    5.000    3.000    0.000    4.000 
#    0.000    0.000    0.000    0.000    0.000    0.875 
#    0.000    2.000    0.000    0.000    0.000    0.000 
#
# Total GULP energy -178360.186623 kJ/mol
# GULP energy per Si atom -5573.755832 kJ/mol
# Density = 1.769678 g / cm^3
# Si number density = 17.737147 Si / 1000 Ang^3
#
#
#
# Elastic Constant Matrix: (Units=GPa)
#
#
# Indices 1 2 3 4 5 6 
#
# 1 93.4306 45.8969 25.7666 0.0000 0.0000 0.0000
# 2 45.8969 131.3766 55.2227 0.0000 0.0000 0.0000
# 3 25.7666 55.2227 68.6512 0.0000 0.0000 0.0000
# 4 0.0000 0.0000 0.0000 29.5488 0.0000 0.0000
# 5 0.0000 0.0000 0.0000 0.0000 21.3835 0.0000
# 6 0.0000 0.0000 0.0000 0.0000 0.0000 15.3676
#
#
#
# Elastic Compliance Matrix: (Units=1/GPa)
#
#
# Indices 1 2 3 4 5 6 
#
# 1 0.013076 -0.003785 -0.001863 0.000000 0.000000 0.000000
# 2 -0.003785 0.012596 -0.008711 0.000000 0.000000 0.000000
# 3 -0.001863 -0.008711 0.022273 0.000000 0.000000 0.000000
# 4 0.000000 0.000000 0.000000 0.033842 0.000000 0.000000
# 5 0.000000 0.000000 0.000000 0.000000 0.046765 0.000000
# 6 0.000000 0.000000 0.000000 0.000000 0.000000 0.065072
#
#
# Mechanical properties :
#
#
# Convention : Reuss Voigt Hill
#
# Bulk Modulus (GPa) = 52.01307 60.80341 56.40824
# Shear Modulus (GPa) = 21.85768 24.36478 23.11123
#
# Velocity S-wave (km/s) = 3.51424 3.71031 3.61360
# Velocity P-wave (km/s) = 6.77160 7.26016 7.02013
#
# Compressibility (1/GPa) = 0.01922594
#
# Stress axis : x y z
#
# Youngs Moduli (GPa) = 76.47385 79.39183 44.89738
#
# Poissons Ratio (x) = 0.30051 0.08365
# Poissons Ratio (y) = 0.28946 0.39112
# Poissons Ratio (z) = 0.14248 0.69161
#
# Static dielectric constant tensor:
#      x y z
#    x 1.624980 0.000000 0.000000 
#    y 0.000000 1.621040 0.000000 
#    z 0.000000 0.000000 1.639940 
# 
# From -- ./inp_files/22342.got.cif
#   From: 2010.05.17/outbox.cif.g08.bks.cpg/sg42_12_cif.got.tgz:22342.got - 2010.06.03 19:03:34.
