data_PCOD9369840
_publ_section_title
;
Structure prediction by ZEFSAII (Michael W. Deem and Ramdas Pophale) SiO2 
 PCOD9369840
Probable space group: F M M 2
;
_chemical_formula_sum "Si O2"
_cell_formula_units_Z 96
_cell_length_a 25.909987
_cell_length_b 8.616087
_cell_length_c 26.244154
_cell_angle_alpha 90.000000
_cell_angle_beta 90.000000
_cell_angle_gamma 90.000000
_cell_volume 5858.815855
_symmetry_space_group_name_H-M "F M M 2"
_symmetry_group_IT_number 42
_symmetry_cell_setting 'orthorhombic'
loop_
_space_group_symop_operation_xyz
x,y,z
-x,-y,z
-x,y,z
x,-y,z
x,1/2+y,1/2+z
-x,1/2-y,1/2+z
-x,1/2+y,1/2+z
x,1/2-y,1/2+z
1/2+x,y,1/2+z
1/2-x,-y,1/2+z
1/2-x,y,1/2+z
1/2+x,-y,1/2+z
1/2+x,1/2+y,z
1/2-x,1/2-y,z
1/2-x,1/2+y,z
1/2+x,1/2-y,z
loop_
_atom_site_type_symbol
_atom_site_label
_atom_site_fract_x
_atom_site_fract_y
_atom_site_fract_z
Si Si1 0.807905 0.813087 0.175490
Si Si2 0.808504 0.185062 0.894234
Si Si3 0.500000 0.678121 0.972543
Si Si4 0.000000 0.677546 0.596273
Si Si5 0.691542 0.686340 0.287669
Si Si6 0.611867 0.810434 0.589771
Si Si7 0.389047 0.814902 0.975447
O O1 0.750000 0.750000 0.170338
O O2 0.829740 0.771308 0.231737
O O3 0.844136 0.762658 0.129235
O O4 0.805172 0.000000 0.174353
O O5 0.750000 0.250000 0.899649
O O6 0.830250 0.241104 0.839328
O O7 0.845549 0.247329 0.938350
O O8 0.806013 0.000000 0.895253
O O9 0.500000 0.500000 0.954907
O O10 0.446375 0.760088 0.958428
O O11 0.500000 0.674805 0.034482
O O12 0.055619 0.745842 0.609469
O O13 0.000000 0.500000 0.615148
O O14 0.691837 0.500000 0.292647
O O15 0.750000 0.750000 0.286009
O O16 0.619661 0.747922 0.532840
O O17 0.610296 0.000000 0.587037
O O18 0.386991 0.000000 0.975637
#
# Coordination Sequence:
#
# PCOD9369840 Si02
#       7
#    16  16   8   8  16  16  16
#     4   9  18  30  47  69  96 126 158 195 239 288
#     4  11  21  34  51  72  97 129 164 203 248 296
#     4   9  17  33  53  72  95 128 165 202 240 286
#     4   7  12  25  47  66  85 116 157 194 226 266
#     4   9  16  29  47  68  92 122 160 201 238 282
#     4   9  17  31  48  69  95 127 162 197 237 286
#     4  11  21  33  50  75 102 130 163 203 244 289
#
# _framework density 16.385563000000001
#
# number of rings (size 3 to 8) (size 9 to 14) (size 15 to 20)
#    0.000    2.500    0.000    5.750    0.000    2.000 
#    0.000    1.667    0.000    1.000    0.000    3.500 
#    0.000    0.000    0.000    0.000    0.000    0.000 
#
# Total GULP energy -133660.958341 kJ/mol
# GULP energy per Si atom -5569.206598 kJ/mol
# Density = 1.634827 g / cm^3
# Si number density = 16.385563 Si / 1000 Ang^3
#
#
#
# Elastic Constant Matrix: (Units=GPa)
#
#
# Indices 1 2 3 4 5 6 
#
# 1 107.1420 38.2661 77.8814 0.0000 0.0000 -0.0001
# 2 38.2661 86.7587 43.4767 0.0000 0.0000 -0.0001
# 3 77.8814 43.4767 122.4785 0.0000 0.0000 0.0000
# 4 0.0000 0.0000 0.0000 22.3988 0.0000 0.0000
# 5 0.0000 0.0000 0.0000 0.0000 -2.4111 0.0000
# 6 -0.0001 -0.0001 0.0000 0.0000 0.0000 21.4347
#
#
#
# Elastic Compliance Matrix: (Units=1/GPa)
#
#
# Indices 1 2 3 4 5 6 
#
# 1 0.017845 -0.002657 -0.010404 0.000000 0.000000 0.000000
# 2 -0.002657 0.014416 -0.003428 0.000000 0.000000 0.000000
# 3 -0.010404 -0.003428 0.015997 0.000000 0.000000 0.000000
# 4 0.000000 0.000000 0.000000 0.044645 0.000000 0.000000
# 5 0.000000 0.000000 0.000000 0.000000 -0.414756 0.000000
# 6 0.000000 0.000000 0.000000 0.000000 0.000000 0.046653
#
#
# Mechanical properties :
#
#
# Convention : Reuss Voigt Hill
#
# Bulk Modulus (GPa) = 65.44337 70.62532 68.03435
# Shear Modulus (GPa) = -21.08562 18.73482 -1.17540
#
# Velocity S-wave (km/s) = -3.59115 3.38505 -0.84788
# Velocity P-wave (km/s) = 4.77820 7.64682 6.37593
#
# Compressibility (1/GPa) = 0.01528039
#
# Stress axis : x y z
#
# Youngs Moduli (GPa) = 56.03756 69.36804 62.51092
#
# Poissons Ratio (x) = 0.18432 0.65037
# Poissons Ratio (y) = 0.14890 0.21427
# Poissons Ratio (z) = 0.58302 0.23777
#
# Static dielectric constant tensor:
#      x y z
#    x 1.543710 0.000000 0.000000 
#    y 0.000000 1.558380 0.000000 
#    z 0.000000 0.000000 1.561730 
# 
# From -- ./inp_files/30632.got.cif
#   From: 2010.05.17/outbox.cif.g08.bks.cpg/sg42_16_cif.got.tgz:30632.got - 2010.06.03 19:03:34.
