data_PCOD9369265
_publ_section_title
;
Structure prediction by ZEFSAII (Michael W. Deem and Ramdas Pophale) SiO2 
 PCOD9369265
Probable space group: F M M 2
;
_chemical_formula_sum "Si O2"
_cell_formula_units_Z 116
_cell_length_a 17.315619
_cell_length_b 15.149807
_cell_length_c 17.527479
_cell_angle_alpha 90.000000
_cell_angle_beta 90.000000
_cell_angle_gamma 90.000000
_cell_volume 4597.953523
_symmetry_space_group_name_H-M "F M M 2"
_symmetry_group_IT_number 42
_symmetry_cell_setting 'orthorhombic'
loop_
_space_group_symop_operation_xyz
x,y,z
-x,-y,z
-x,y,z
x,-y,z
x,1/2+y,1/2+z
-x,1/2-y,1/2+z
-x,1/2+y,1/2+z
x,1/2-y,1/2+z
1/2+x,y,1/2+z
1/2-x,-y,1/2+z
1/2-x,y,1/2+z
1/2+x,-y,1/2+z
1/2+x,1/2+y,z
1/2-x,1/2-y,z
1/2-x,1/2+y,z
1/2+x,1/2-y,z
loop_
_atom_site_type_symbol
_atom_site_label
_atom_site_fract_x
_atom_site_fract_y
_atom_site_fract_z
Si Si1 0.297021 0.393870 0.882820
Si Si2 0.136810 0.897854 0.324642
Si Si3 0.916605 0.864224 0.489963
Si Si4 0.873478 0.900023 0.162573
Si Si5 0.090908 0.892765 0.745685
Si Si6 0.000000 0.500000 0.466913
Si Si7 0.607079 0.336924 0.001971
Si Si8 0.708004 0.154737 0.116482
O O1 0.288378 0.500000 0.889646
O O2 0.219747 0.357926 0.843929
O O3 0.368313 0.373584 0.826749
O O4 0.308906 0.351677 0.965569
O O5 0.092214 0.898463 0.403903
O O6 0.104848 0.861643 0.245147
O O7 0.149583 0.000000 0.302219
O O8 0.918348 0.759052 0.479302
O O9 0.842941 0.880807 0.544711
O O10 0.000000 0.893074 0.522509
O O11 0.903105 0.843842 0.092066
O O12 0.780533 0.901097 0.148946
O O13 0.903651 0.000000 0.151843
O O14 0.142738 0.845150 0.682263
O O15 0.000000 0.871050 0.745340
O O16 0.097120 0.000000 0.734686
O O17 0.064885 0.422169 0.469353
O O18 0.750000 0.250000 0.104465
#
# Coordination Sequence:
#
# PCOD9369265 Si02
#       8
#    16  16  16  16  16   4  16  16
#     4  10  20  38  68 101 135 175 233 290 353 437
#     4  10  24  46  72 103 140 190 240 293 358 444
#     4  12  28  47  66 103 149 187 244 306 368 444
#     4  11  22  45  73 104 136 180 249 296 352 431
#     4  10  22  40  68 105 143 185 235 302 371 437
#     4  12  24  44  72 100 134 184 236 300 380 416
#     4  12  24  42  70 100 134 184 233 299 362 430
#     4  12  24  42  69 101 139 195 239 293 363 431
#
# _framework density 25.228615000000001
#
# number of rings (size 3 to 8) (size 9 to 14) (size 15 to 20)
#    0.000    0.966    4.828    1.655    0.966    3.586 
#    1.241    0.000    0.000    0.000    0.000    0.000 
#    0.000    0.000    0.000    0.000    0.000    0.000 
#
# Total GULP energy -161875.198666 kJ/mol
# GULP energy per Si atom -5581.903402 kJ/mol
# Density = 2.517119 g / cm^3
# Si number density = 25.228615 Si / 1000 Ang^3
#
#
#
# Elastic Constant Matrix: (Units=GPa)
#
#
# Indices 1 2 3 4 5 6 
#
# 1 124.5613 -0.3161 25.0410 0.0000 0.0000 0.0000
# 2 -0.3161 78.0039 11.1369 0.0000 0.0000 0.0000
# 3 25.0410 11.1369 150.5128 0.0000 0.0000 0.0000
# 4 0.0000 0.0000 0.0000 26.4299 0.0000 0.0000
# 5 0.0000 0.0000 0.0000 0.0000 -4.5349 0.0000
# 6 0.0000 0.0000 0.0000 0.0000 0.0000 53.2581
#
#
#
# Elastic Compliance Matrix: (Units=1/GPa)
#
#
# Indices 1 2 3 4 5 6 
#
# 1 0.008310 0.000234 -0.001400 0.000000 0.000000 0.000000
# 2 0.000234 0.012963 -0.000998 0.000000 0.000000 0.000000
# 3 -0.001400 -0.000998 0.006951 0.000000 0.000000 0.000000
# 4 0.000000 0.000000 0.000000 0.037836 0.000000 0.000000
# 5 0.000000 0.000000 0.000000 0.000000 -0.220513 0.000000
# 6 0.000000 0.000000 0.000000 0.000000 0.000000 0.018776
#
#
# Mechanical properties :
#
#
# Convention : Reuss Voigt Hill
#
# Bulk Modulus (GPa) = 41.84896 47.20017 44.52457
# Shear Modulus (GPa) = -40.52441 36.17837 -2.17302
#
# Velocity S-wave (km/s) = -4.01220 3.79096 -0.92909
# Velocity P-wave (km/s) = 2.19995 6.15722 4.06643
#
# Compressibility (1/GPa) = 0.02389546
#
# Stress axis : x y z
#
# Youngs Moduli (GPa) = 120.33426 77.14080 143.87044
#
# Poissons Ratio (x) = -0.01802 0.20140
# Poissons Ratio (y) = -0.02810 0.14359
# Poissons Ratio (z) = 0.16845 0.07699
#
# Static dielectric constant tensor:
#      x y z
#    x 2.092160 0.000000 0.000000 
#    y 0.000000 1.943390 0.000000 
#    z 0.000000 0.000000 2.024560 
# 
# From -- ./inp_files/20970.got.cif
#   From: 2010.05.17/outbox.cif.g08.bks.cpg/sg42_11_cif.got.tgz:20970.got - 2010.06.03 19:03:34.
