data_PCOD9369485
_publ_section_title
;
Structure prediction by ZEFSAII (Michael W. Deem and Ramdas Pophale) SiO2 
 PCOD9369485
Probable space group: F M M 2
;
_chemical_formula_sum "Si O2"
_cell_formula_units_Z 64
_cell_length_a 18.543005
_cell_length_b 24.783320
_cell_length_c 5.333232
_cell_angle_alpha 90.000000
_cell_angle_beta 90.000000
_cell_angle_gamma 90.000000
_cell_volume 2450.925307
_symmetry_space_group_name_H-M "F M M 2"
_symmetry_group_IT_number 42
_symmetry_cell_setting 'orthorhombic'
loop_
_space_group_symop_operation_xyz
x,y,z
-x,-y,z
-x,y,z
x,-y,z
x,1/2+y,1/2+z
-x,1/2-y,1/2+z
-x,1/2+y,1/2+z
x,1/2-y,1/2+z
1/2+x,y,1/2+z
1/2-x,-y,1/2+z
1/2-x,y,1/2+z
1/2+x,-y,1/2+z
1/2+x,1/2+y,z
1/2-x,1/2-y,z
1/2-x,1/2+y,z
1/2+x,1/2-y,z
loop_
_atom_site_type_symbol
_atom_site_label
_atom_site_fract_x
_atom_site_fract_y
_atom_site_fract_z
Si Si1 0.083695 0.716650 0.879950
Si Si2 0.671882 0.562936 0.028086
Si Si3 0.721957 0.337948 0.529796
Si Si4 0.418182 0.435917 0.542199
O O1 0.095236 0.739464 0.600926
O O2 0.139886 0.669762 0.944558
O O3 0.000000 0.700981 0.896576
O O4 0.694796 0.500000 0.994821
O O5 0.738910 0.603557 0.057377
O O6 0.625133 0.582537 0.790002
O O7 0.622750 0.565951 0.275914
O O8 0.734033 0.311892 0.800009
O O9 0.500000 0.415015 0.529743
O O10 0.423794 0.500000 0.592680
#
# Coordination Sequence:
#
# PCOD9369485 Si02
#       4
#    16  16  16  16
#     4  10  23  47  78 106 134 174 223 281 349 414
#     4  10  21  38  61  94 138 189 240 284 333 394
#     4  12  26  43  67 104 142 179 226 276 339 408
#     4   9  17  33  59  90 129 182 242 295 336 383
#
# _framework density 26.112584999999999
#
# number of rings (size 3 to 8) (size 9 to 14) (size 15 to 20)
#    0.000    1.750    0.000    3.750    0.000    7.000 
#    0.000    7.500    0.000    0.750    0.000    0.000 
#    0.000   12.000    0.000    0.000    0.000    0.000 
#
# Total GULP energy -89581.052113 kJ/mol
# GULP energy per Si atom -5598.815757 kJ/mol
# Density = 2.605315 g / cm^3
# Si number density = 26.112585 Si / 1000 Ang^3
#
#
#
# Elastic Constant Matrix: (Units=GPa)
#
#
# Indices 1 2 3 4 5 6 
#
# 1 216.8881 37.3402 58.0146 0.0253 -0.0278 -0.0006
# 2 37.3402 107.9242 2.5946 0.0119 -0.0085 0.0084
# 3 58.0146 2.5946 169.5400 0.0489 -0.0270 0.0004
# 4 0.0253 0.0119 0.0489 28.7428 -0.0170 0.0013
# 5 -0.0278 -0.0085 -0.0270 -0.0170 45.9300 0.0047
# 6 -0.0006 0.0084 0.0004 0.0013 0.0047 34.1389
#
#
#
# Elastic Compliance Matrix: (Units=1/GPa)
#
#
# Indices 1 2 3 4 5 6 
#
# 1 0.005414 -0.001829 -0.001824 -0.000001 0.000002 0.000001
# 2 -0.001829 0.009887 0.000475 -0.000003 0.000001 -0.000002
# 3 -0.001824 0.000475 0.006515 -0.000010 0.000003 0.000000
# 4 -0.000001 -0.000003 -0.000010 0.034791 0.000013 -0.000001
# 5 0.000002 0.000001 0.000003 0.000013 0.021772 -0.000003
# 6 0.000001 -0.000002 0.000000 -0.000001 -0.000003 0.029292
#
#
# Mechanical properties :
#
#
# Convention : Reuss Voigt Hill
#
# Bulk Modulus (GPa) = 64.69090 76.69455 70.69272
# Shear Modulus (GPa) = 41.95240 48.18919 45.07080
#
# Velocity S-wave (km/s) = 4.01259 4.30052 4.15904
# Velocity P-wave (km/s) = 6.80407 7.35485 7.08481
#
# Compressibility (1/GPa) = 0.01545813
#
# Stress axis : x y z
#
# Youngs Moduli (GPa) = 184.71948 101.14066 153.48318
#
# Poissons Ratio (x) = 0.18500 0.28003
# Poissons Ratio (y) = 0.33788 -0.07285
# Poissons Ratio (z) = 0.33702 -0.04800
#
# Static dielectric constant tensor:
#      x y z
#    x 2.055530 0.000000 0.000010 
#    y 0.000000 2.151780 0.000000 
#    z 0.000010 0.000000 2.061600 
# 
# From -- ./inp_files/576.got.cif
#   From: 2010.05.17/outbox.cif.g08.bks.cpg/sg42_1_cif.got.tgz:576.got - 2010.06.03 19:03:34.
