data_PCOD9369979
_publ_section_title
;
Structure prediction by ZEFSAII (Michael W. Deem and Ramdas Pophale) SiO2 
 PCOD9369979
Probable space group: F M M 2
;
_chemical_formula_sum "Si O2"
_cell_formula_units_Z 96
_cell_length_a 24.693524
_cell_length_b 22.400877
_cell_length_c 8.187753
_cell_angle_alpha 90.000000
_cell_angle_beta 90.000000
_cell_angle_gamma 90.000000
_cell_volume 4529.109561
_symmetry_space_group_name_H-M "F M M 2"
_symmetry_group_IT_number 42
_symmetry_cell_setting 'orthorhombic'
loop_
_space_group_symop_operation_xyz
x,y,z
-x,-y,z
-x,y,z
x,-y,z
x,1/2+y,1/2+z
-x,1/2-y,1/2+z
-x,1/2+y,1/2+z
x,1/2-y,1/2+z
1/2+x,y,1/2+z
1/2-x,-y,1/2+z
1/2-x,y,1/2+z
1/2+x,-y,1/2+z
1/2+x,1/2+y,z
1/2-x,1/2-y,z
1/2-x,1/2+y,z
1/2+x,1/2-y,z
loop_
_atom_site_type_symbol
_atom_site_label
_atom_site_fract_x
_atom_site_fract_y
_atom_site_fract_z
Si Si1 0.268940 0.430221 0.129530
Si Si2 0.152754 0.341442 0.470411
Si Si3 0.324093 0.118405 0.956531
Si Si4 0.060782 0.069412 0.510370
Si Si5 0.562457 0.566715 0.905927
Si Si6 0.311998 0.231672 0.156281
O O1 0.279019 0.500000 0.107370
O O2 0.295157 0.407530 0.297037
O O3 0.298960 0.388382 0.998581
O O4 0.205215 0.417572 0.104837
O O5 0.099056 0.380624 0.472777
O O6 0.156189 0.291415 0.610244
O O7 0.162268 0.306031 0.302446
O O8 0.387842 0.105868 0.947970
O O9 0.312608 0.187101 0.000119
O O10 0.063336 0.070415 0.708239
O O11 0.000000 0.089437 0.462893
O O12 0.066659 0.000000 0.460192
O O13 0.500000 0.571833 0.957232
O O14 0.582002 0.500000 0.951932
O O15 0.250000 0.250000 0.189524
#
# Coordination Sequence:
#
# PCOD9369979 Si02
#       6
#    16  16  16  16  16  16
#     4  12  26  41  64  99 138 171 217 282 345 408
#     4  12  24  43  65  94 131 176 226 271 335 398
#     4  12  24  43  63  98 134 176 223 270 338 408
#     4   9  18  36  65  97 130 170 216 269 331 399
#     4   9  19  39  68  99 129 168 220 280 345 405
#     4  12  25  41  64  92 129 179 221 269 325 401
#
# _framework density 21.19622
#
# number of rings (size 3 to 8) (size 9 to 14) (size 15 to 20)
#    0.000    1.000    3.333    5.500    0.000    0.000 
#    0.000    2.500    0.000    3.000    0.000    0.000 
#    0.000    0.000    0.000    0.000    0.000    0.000 
#
# Total GULP energy -134252.874896 kJ/mol
# GULP energy per Si atom -5593.869787 kJ/mol
# Density = 2.114798 g / cm^3
# Si number density = 21.196220 Si / 1000 Ang^3
#
#
#
# Elastic Constant Matrix: (Units=GPa)
#
#
# Indices 1 2 3 4 5 6 
#
# 1 144.5630 68.4126 34.3046 0.0001 -0.0001 0.0000
# 2 68.4126 170.7474 45.2363 0.0003 -0.0005 -0.0001
# 3 34.3046 45.2363 63.1386 0.0003 -0.0005 -0.0003
# 4 0.0001 0.0003 0.0003 17.1377 -0.0003 -0.0001
# 5 -0.0001 -0.0005 -0.0005 -0.0003 19.6617 0.0000
# 6 0.0000 -0.0001 -0.0003 -0.0001 0.0000 42.0950
#
#
#
# Elastic Compliance Matrix: (Units=1/GPa)
#
#
# Indices 1 2 3 4 5 6 
#
# 1 0.008926 -0.002828 -0.002823 0.000000 0.000000 0.000000
# 2 -0.002828 0.008125 -0.004284 0.000000 0.000000 0.000000
# 3 -0.002823 -0.004284 0.020442 0.000000 0.000000 0.000000
# 4 0.000000 0.000000 0.000000 0.058351 0.000001 0.000000
# 5 0.000000 0.000000 0.000000 0.000001 0.050860 0.000000
# 6 0.000000 0.000000 0.000000 0.000000 0.000000 0.023756
#
#
# Mechanical properties :
#
#
# Convention : Reuss Voigt Hill
#
# Bulk Modulus (GPa) = 56.75230 74.92845 65.84037
# Shear Modulus (GPa) = 25.48357 31.14525 28.31441
#
# Velocity S-wave (km/s) = 3.47114 3.83740 3.65886
# Velocity P-wave (km/s) = 6.54965 7.42030 6.99853
#
# Compressibility (1/GPa) = 0.01762043
#
# Stress axis : x y z
#
# Youngs Moduli (GPa) = 112.03475 123.07835 48.91948
#
# Poissons Ratio (x) = 0.34810 0.13811
# Poissons Ratio (y) = 0.31687 0.20960
# Poissons Ratio (z) = 0.31630 0.52733
#
# Static dielectric constant tensor:
#      x y z
#    x 1.755000 0.000000 0.000000 
#    y 0.000000 1.748410 0.000000 
#    z 0.000000 0.000000 1.855670 
# 
# From -- ./inp_files/5166.got.cif
#   From: 2010.05.17/outbox.cif.g08.bks.cpg/sg42_3_cif.got.tgz:5166.got - 2010.06.03 19:03:34.
