data_PCOD9369038
_publ_section_title
;
Structure prediction by ZEFSAII (Michael W. Deem and Ramdas Pophale) SiO2 
 PCOD9369038
Probable space group: F M M 2
;
_chemical_formula_sum "Si O2"
_cell_formula_units_Z 80
_cell_length_a 29.114398
_cell_length_b 8.752763
_cell_length_c 15.802343
_cell_angle_alpha 90.000000
_cell_angle_beta 90.000000
_cell_angle_gamma 90.000000
_cell_volume 4026.933594
_symmetry_space_group_name_H-M "F M M 2"
_symmetry_group_IT_number 42
_symmetry_cell_setting 'orthorhombic'
loop_
_space_group_symop_operation_xyz
x,y,z
-x,-y,z
-x,y,z
x,-y,z
x,1/2+y,1/2+z
-x,1/2-y,1/2+z
-x,1/2+y,1/2+z
x,1/2-y,1/2+z
1/2+x,y,1/2+z
1/2-x,-y,1/2+z
1/2-x,y,1/2+z
1/2+x,-y,1/2+z
1/2+x,1/2+y,z
1/2-x,1/2-y,z
1/2-x,1/2+y,z
1/2+x,1/2-y,z
loop_
_atom_site_type_symbol
_atom_site_label
_atom_site_fract_x
_atom_site_fract_y
_atom_site_fract_z
Si Si1 0.896840 0.681931 0.276160
Si Si2 0.054797 0.319881 0.611965
Si Si3 0.107742 0.681732 0.952811
Si Si4 0.702700 0.182581 0.204346
Si Si5 0.201606 0.182612 0.015074
O O1 0.902664 0.500000 0.283796
O O2 0.924441 0.743520 0.195710
O O3 0.910998 0.763552 0.362536
O O4 0.842875 0.712829 0.257918
O O5 0.066264 0.500000 0.611743
O O6 0.077113 0.242966 0.529833
O O7 0.000000 0.303078 0.610665
O O8 0.110896 0.500000 0.956858
O O9 0.158138 0.754424 0.964889
O O10 0.750000 0.250000 0.240680
O O11 0.707231 0.000000 0.193181
O O12 0.696502 0.259120 0.112053
O O13 0.250000 0.250000 0.983938
O O14 0.202633 0.000000 0.013082
#
# Coordination Sequence:
#
# PCOD9369038 Si02
#       5
#    16  16  16  16  16
#     4  11  24  42  66  96 131 170 215 262 317 381
#     4  11  25  46  71  97 126 163 210 266 328 388
#     4  12  25  42  66  96 131 171 217 264 318 380
#     4  10  20  35  59  91 127 169 213 257 311 374
#     4  11  21  36  61  91 129 171 216 263 314 375
#
# _framework density 19.866233000000001
#
# number of rings (size 3 to 8) (size 9 to 14) (size 15 to 20)
#    0.000    1.000    2.000    6.600    0.000    5.600 
#    0.000    2.000    0.000    0.000    0.000    0.000 
#    0.000    0.000    0.000    0.000    0.000    0.000 
#
# Total GULP energy -111931.630134 kJ/mol
# GULP energy per Si atom -5596.581507 kJ/mol
# Density = 1.982102 g / cm^3
# Si number density = 19.866233 Si / 1000 Ang^3
#
#
#
# Elastic Constant Matrix: (Units=GPa)
#
#
# Indices 1 2 3 4 5 6 
#
# 1 69.0775 59.0491 47.7996 0.0000 0.0000 0.0000
# 2 59.0491 138.5241 51.3562 0.0000 0.0000 0.0000
# 3 47.7996 51.3562 127.6652 0.0000 0.0000 0.0000
# 4 0.0000 0.0000 0.0000 32.0156 0.0000 0.0000
# 5 0.0000 0.0000 0.0000 0.0000 -9.6973 0.0000
# 6 0.0000 0.0000 0.0000 0.0000 0.0000 31.9601
#
#
#
# Elastic Compliance Matrix: (Units=1/GPa)
#
#
# Indices 1 2 3 4 5 6 
#
# 1 0.026506 -0.008955 -0.006322 0.000000 0.000000 0.000000
# 2 -0.008955 0.011510 -0.001277 0.000000 0.000000 0.000000
# 3 -0.006322 -0.001277 0.010714 0.000000 0.000000 0.000000
# 4 0.000000 0.000000 0.000000 0.031235 0.000000 0.000000
# 5 0.000000 0.000000 0.000000 0.000000 -0.103122 0.000000
# 6 0.000000 0.000000 0.000000 0.000000 0.000000 0.031289
#
#
# Mechanical properties :
#
#
# Convention : Reuss Voigt Hill
#
# Bulk Modulus (GPa) = 64.01479 72.40853 68.21166
# Shear Modulus (GPa) = 107.64986 22.65980 65.15483
#
# Velocity S-wave (km/s) = 7.36919 3.38097 5.73306
# Velocity P-wave (km/s) = 10.23228 7.19503 8.84500
#
# Compressibility (1/GPa) = 0.01562139
#
# Stress axis : x y z
#
# Youngs Moduli (GPa) = 37.72732 86.88286 93.33815
#
# Poissons Ratio (x) = 0.77804 0.59007
# Poissons Ratio (y) = 0.33785 0.11921
# Poissons Ratio (z) = 0.23851 0.11096
#
# Static dielectric constant tensor:
#      x y z
#    x 1.694130 0.000000 0.000000 
#    y 0.000000 1.660610 0.000000 
#    z 0.000000 0.000000 1.693510 
# 
# From -- ./inp_files/22431.got.cif
#   From: 2010.05.17/outbox.cif.g08.bks.cpg/sg42_12_cif.got.tgz:22431.got - 2010.06.03 19:03:34.
