data_PCOD9369875
_publ_section_title
;
Structure prediction by ZEFSAII (Michael W. Deem and Ramdas Pophale) SiO2 
 PCOD9369875
Probable space group: F M M 2
;
_chemical_formula_sum "Si O2"
_cell_formula_units_Z 112
_cell_length_a 14.505784
_cell_length_b 25.906444
_cell_length_c 14.154939
_cell_angle_alpha 90.000000
_cell_angle_beta 90.000000
_cell_angle_gamma 90.000000
_cell_volume 5319.330967
_symmetry_space_group_name_H-M "F M M 2"
_symmetry_group_IT_number 42
_symmetry_cell_setting 'orthorhombic'
loop_
_space_group_symop_operation_xyz
x,y,z
-x,-y,z
-x,y,z
x,-y,z
x,1/2+y,1/2+z
-x,1/2-y,1/2+z
-x,1/2+y,1/2+z
x,1/2-y,1/2+z
1/2+x,y,1/2+z
1/2-x,-y,1/2+z
1/2-x,y,1/2+z
1/2+x,-y,1/2+z
1/2+x,1/2+y,z
1/2-x,1/2-y,z
1/2-x,1/2+y,z
1/2+x,1/2-y,z
loop_
_atom_site_type_symbol
_atom_site_label
_atom_site_fract_x
_atom_site_fract_y
_atom_site_fract_z
Si Si1 0.857294 0.737799 0.056780
Si Si2 0.605793 0.559618 0.378614
Si Si3 0.255402 0.141175 0.364207
Si Si4 0.394221 0.653769 0.035346
Si Si5 0.390892 0.055695 0.651684
Si Si6 0.899291 0.777737 0.339576
Si Si7 0.395265 0.668997 0.728621
O O1 0.750000 0.750000 0.050916
O O2 0.896560 0.792517 0.092591
O O3 0.875115 0.689275 0.123477
O O4 0.897140 0.729737 0.952759
O O5 0.500000 0.575246 0.402830
O O6 0.617819 0.500000 0.408770
O O7 0.687805 0.597718 0.406704
O O8 0.614145 0.560437 0.264393
O O9 0.324341 0.158302 0.447724
O O10 0.186540 0.184881 0.324219
O O11 0.323134 0.129938 0.276047
O O12 0.500000 0.644731 0.002335
O O13 0.358907 0.606566 0.098565
O O14 0.500000 0.053592 0.630333
O O15 0.349958 0.000000 0.623467
O O16 0.888835 0.722716 0.288678
O O17 0.000000 0.799500 0.313184
O O18 0.500000 0.650198 0.734990
#
# Coordination Sequence:
#
# PCOD9369875 Si02
#       7
#    16  16  16  16  16  16  16
#     4  12  22  38  56  80 117 158 200 240 286 348
#     4   9  20  39  61  87 115 143 187 245 297 348
#     4  12  22  36  56  84 115 151 195 240 286 353
#     4  11  22  36  56  81 116 154 190 239 294 342
#     4   8  17  35  57  81 106 136 183 239 288 338
#     4  11  22  38  54  79 115 152 195 242 284 337
#     4  11  24  38  55  80 116 158 196 237 287 344
#
# _framework density 21.05528
#
# number of rings (size 3 to 8) (size 9 to 14) (size 15 to 20)
#    0.000    1.429    2.857    4.286    4.000    0.571 
#    0.000    0.000    0.000    1.286    0.000    0.000 
#    0.000    0.000    0.000    0.000    0.000    0.000 
#
# Total GULP energy -156289.359902 kJ/mol
# GULP energy per Si atom -5581.762854 kJ/mol
# Density = 2.100736 g / cm^3
# Si number density = 21.055280 Si / 1000 Ang^3
#
#
#
# Elastic Constant Matrix: (Units=GPa)
#
#
# Indices 1 2 3 4 5 6 
#
# 1 148.3866 18.6009 2.7707 0.0000 0.0000 0.0000
# 2 18.6009 40.0766 -10.8609 0.0000 0.0000 0.0000
# 3 2.7707 -10.8609 37.5472 0.0000 0.0000 0.0000
# 4 0.0000 0.0000 0.0000 19.4813 0.0000 0.0000
# 5 0.0000 0.0000 0.0000 0.0000 27.8889 0.0000
# 6 0.0000 0.0000 0.0000 0.0000 0.0000 28.2877
#
#
#
# Elastic Compliance Matrix: (Units=1/GPa)
#
#
# Indices 1 2 3 4 5 6 
#
# 1 0.007247 -0.003807 -0.001636 0.000000 0.000000 0.000000
# 2 -0.003807 0.029074 0.008691 0.000000 0.000000 0.000000
# 3 -0.001636 0.008691 0.029268 0.000000 0.000000 0.000000
# 4 0.000000 0.000000 0.000000 0.051331 0.000000 0.000000
# 5 0.000000 0.000000 0.000000 0.000000 0.035857 0.000000
# 6 0.000000 0.000000 0.000000 0.000000 0.000000 0.035351
#
#
# Mechanical properties :
#
#
# Convention : Reuss Voigt Hill
#
# Bulk Modulus (GPa) = 13.87242 27.44798 20.66020
# Shear Modulus (GPa) = 24.31194 29.49822 26.90508
#
# Velocity S-wave (km/s) = 3.40173 3.74704 3.57855
# Velocity P-wave (km/s) = 4.69382 5.63781 5.18733
#
# Compressibility (1/GPa) = 0.07208545
#
# Stress axis : x y z
#
# Youngs Moduli (GPa) = 137.98987 34.39450 34.16720
#
# Poissons Ratio (x) = 0.13094 0.05590
# Poissons Ratio (y) = 0.52531 -0.29695
# Poissons Ratio (z) = 0.22574 -0.29892
#
# Static dielectric constant tensor:
#      x y z
#    x 1.786140 0.000000 0.000000 
#    y 0.000000 1.825820 0.000000 
#    z 0.000000 0.000000 1.777570 
# 
# From -- ./inp_files/14389.got.cif
#   From: 2010.05.17/outbox.cif.g08.bks.cpg/sg42_8_cif.got.tgz:14389.got - 2010.06.03 19:03:34.
