data_PCOD9369326
_publ_section_title
;
Structure prediction by ZEFSAII (Michael W. Deem and Ramdas Pophale) SiO2 
 PCOD9369326
Probable space group: F M M 2
;
_chemical_formula_sum "Si O2"
_cell_formula_units_Z 64
_cell_length_a 17.996817
_cell_length_b 20.865264
_cell_length_c 9.122259
_cell_angle_alpha 90.000000
_cell_angle_beta 90.000000
_cell_angle_gamma 90.000000
_cell_volume 3425.484315
_symmetry_space_group_name_H-M "F M M 2"
_symmetry_group_IT_number 42
_symmetry_cell_setting 'orthorhombic'
loop_
_space_group_symop_operation_xyz
x,y,z
-x,-y,z
-x,y,z
x,-y,z
x,1/2+y,1/2+z
-x,1/2-y,1/2+z
-x,1/2+y,1/2+z
x,1/2-y,1/2+z
1/2+x,y,1/2+z
1/2-x,-y,1/2+z
1/2-x,y,1/2+z
1/2+x,-y,1/2+z
1/2+x,1/2+y,z
1/2-x,1/2-y,z
1/2-x,1/2+y,z
1/2+x,1/2-y,z
loop_
_atom_site_type_symbol
_atom_site_label
_atom_site_fract_x
_atom_site_fract_y
_atom_site_fract_z
Si Si1 0.500000 0.291303 0.511781
Si Si2 0.335920 0.697613 0.458643
Si Si3 0.084195 0.926021 0.007860
Si Si4 0.000000 0.663432 0.336507
Si Si5 0.698408 0.329275 0.125749
O O1 0.577496 0.320518 0.456845
O O2 0.500000 0.299371 0.685876
O O3 0.500000 0.217403 0.461685
O O4 0.305688 0.692089 0.294021
O O5 0.330427 0.769631 0.525733
O O6 0.281455 0.658647 0.566395
O O7 0.145360 0.889624 0.100935
O O8 0.000000 0.923344 0.074133
O O9 0.101559 0.000000 0.980097
O O10 0.070173 0.883405 0.861463
#
# Coordination Sequence:
#
# PCOD9369326 Si02
#       5
#     8  16  16   8  16
#     4  12  22  34  61  99 121 153 194 251 309 363
#     4  11  23  35  60  92 129 150 193 256 311 355
#     4   9  20  38  62  83 118 166 203 235 289 367
#     4  10  21  34  63  91 120 153 202 243 305 353
#     4  11  22  37  59  91 123 160 195 247 314 354
#
# _framework density 18.683489999999999
#
# number of rings (size 3 to 8) (size 9 to 14) (size 15 to 20)
#    0.750    0.750    2.500    4.500    5.250    0.000 
#    0.000    1.250    0.000    3.000    0.000    0.000 
#    0.000    0.000    0.000    0.000    0.000    0.000 
#
# Total GULP energy -89115.112235 kJ/mol
# GULP energy per Si atom -5569.694515 kJ/mol
# Density = 1.864097 g / cm^3
# Si number density = 18.683490 Si / 1000 Ang^3
#
#
#
# Elastic Constant Matrix: (Units=GPa)
#
#
# Indices 1 2 3 4 5 6 
#
# 1 142.8582 33.0135 43.3204 0.0000 0.0000 0.0000
# 2 33.0135 95.9219 58.9582 0.0000 0.0000 0.0000
# 3 43.3204 58.9582 136.5515 0.0000 0.0000 0.0000
# 4 0.0000 0.0000 0.0000 1.4089 0.0000 0.0000
# 5 0.0000 0.0000 0.0000 0.0000 25.4106 0.0000
# 6 0.0000 0.0000 0.0000 0.0000 0.0000 28.7202
#
#
#
# Elastic Compliance Matrix: (Units=1/GPa)
#
#
# Indices 1 2 3 4 5 6 
#
# 1 0.007923 -0.001609 -0.001819 0.000000 0.000000 0.000000
# 2 -0.001609 0.014518 -0.005758 0.000000 0.000000 0.000000
# 3 -0.001819 -0.005758 0.010386 0.000000 0.000000 0.000000
# 4 0.000000 0.000000 0.000000 0.709756 0.000000 0.000000
# 5 0.000000 0.000000 0.000000 0.000000 0.039354 0.000000
# 6 0.000000 0.000000 0.000000 0.000000 0.000000 0.034819
#
#
# Mechanical properties :
#
#
# Convention : Reuss Voigt Hill
#
# Bulk Modulus (GPa) = 69.17533 71.76845 70.47189
# Shear Modulus (GPa) = 5.95276 27.11058 16.53167
#
# Velocity S-wave (km/s) = 1.78690 3.81339 2.97783
# Velocity P-wave (km/s) = 6.43138 7.60825 7.04443
#
# Compressibility (1/GPa) = 0.01445602
#
# Stress axis : x y z
#
# Youngs Moduli (GPa) = 126.20924 68.87991 96.27996
#
# Poissons Ratio (x) = 0.11083 0.17513
# Poissons Ratio (y) = 0.20307 0.55437
# Poissons Ratio (z) = 0.22957 0.39661
#
# Static dielectric constant tensor:
#      x y z
#    x 1.746650 0.000000 0.000000 
#    y 0.000000 1.625420 0.000000 
#    z 0.000000 0.000000 1.642850 
# 
# From -- ./inp_files/3872.got.cif
#   From: 2010.05.17/outbox.cif.g08.bks.cpg/sg42_2_cif.got.tgz:3872.got - 2010.06.03 19:03:34.
