data_PCOD9369275
_publ_section_title
;
Structure prediction by ZEFSAII (Michael W. Deem and Ramdas Pophale) SiO2 
 PCOD9369275
Probable space group: F M M 2
;
_chemical_formula_sum "Si O2"
_cell_formula_units_Z 88
_cell_length_a 22.701957
_cell_length_b 13.575012
_cell_length_c 12.358310
_cell_angle_alpha 90.000000
_cell_angle_beta 90.000000
_cell_angle_gamma 90.000000
_cell_volume 3808.575803
_symmetry_space_group_name_H-M "F M M 2"
_symmetry_group_IT_number 42
_symmetry_cell_setting 'orthorhombic'
loop_
_space_group_symop_operation_xyz
x,y,z
-x,-y,z
-x,y,z
x,-y,z
x,1/2+y,1/2+z
-x,1/2-y,1/2+z
-x,1/2+y,1/2+z
x,1/2-y,1/2+z
1/2+x,y,1/2+z
1/2-x,-y,1/2+z
1/2-x,y,1/2+z
1/2+x,-y,1/2+z
1/2+x,1/2+y,z
1/2-x,1/2-y,z
1/2-x,1/2+y,z
1/2+x,1/2-y,z
loop_
_atom_site_type_symbol
_atom_site_label
_atom_site_fract_x
_atom_site_fract_y
_atom_site_fract_z
Si Si1 0.133583 0.343366 0.122900
Si Si2 0.000000 0.387902 0.059856
Si Si3 0.814439 0.888772 0.852208
Si Si4 0.598371 0.160949 0.710814
Si Si5 0.678842 0.343967 0.392975
Si Si6 0.000000 0.269622 0.861501
Si Si7 0.000000 0.396200 0.544552
O O1 0.063065 0.349330 0.101579
O O2 0.158032 0.391750 0.231547
O O3 0.143940 0.227377 0.144216
O O4 0.164562 0.377581 0.013997
O O5 0.000000 0.500000 0.090491
O O6 0.000000 0.369813 0.931095
O O7 0.744064 0.874649 0.858184
O O8 0.831899 0.776872 0.893560
O O9 0.828389 0.000000 0.899943
O O10 0.635079 0.110006 0.804496
O O11 0.555442 0.229944 0.783590
O O12 0.555860 0.110315 0.624785
O O13 0.000000 0.188400 0.955064
O O14 0.000000 0.500000 0.485788
#
# Coordination Sequence:
#
# PCOD9369275 Si02
#       7
#    16   8  16  16  16   8   8
#     4  11  22  45  67  95 133 174 219 271 338 391
#     4  12  22  36  69  98 126 172 222 271 326 391
#     4  10  24  43  66  97 129 172 224 272 326 399
#     4  10  20  39  64  88 129 174 217 269 328 395
#     4  10  22  41  67  93 132 175 217 279 336 381
#     4  11  20  41  60  93 135 170 211 275 330 389
#     4  11  22  37  61  95 135 176 213 268 332 398
#
# _framework density 23.10575
#
# number of rings (size 3 to 8) (size 9 to 14) (size 15 to 20)
#    0.000    1.455    3.636    1.091    0.000    9.455 
#    0.000   10.000    0.000    0.000    0.000    0.000 
#    0.000    0.000    0.000    0.000    0.000    0.000 
#
# Total GULP energy -122547.444678 kJ/mol
# GULP energy per Si atom -5570.338394 kJ/mol
# Density = 2.305316 g / cm^3
# Si number density = 23.105750 Si / 1000 Ang^3
#
#
#
# Elastic Constant Matrix: (Units=GPa)
#
#
# Indices 1 2 3 4 5 6 
#
# 1 83.8221 -8.8059 34.7878 0.0000 0.0000 0.0000
# 2 -8.8059 112.6620 4.4341 0.0000 0.0000 0.0000
# 3 34.7878 4.4341 111.1798 0.0000 0.0000 0.0000
# 4 0.0000 0.0000 0.0000 0.0850 0.0000 0.0000
# 5 0.0000 0.0000 0.0000 0.0000 21.3263 0.0000
# 6 0.0000 0.0000 0.0000 0.0000 0.0000 -3.2577
#
#
#
# Elastic Compliance Matrix: (Units=1/GPa)
#
#
# Indices 1 2 3 4 5 6 
#
# 1 0.013886 0.001258 -0.004395 0.000000 0.000000 0.000000
# 2 0.001258 0.009004 -0.000753 0.000000 0.000000 0.000000
# 3 -0.004395 -0.000753 0.010400 0.000000 0.000000 0.000000
# 4 0.000000 0.000000 0.000000 11.771581 0.000000 0.000000
# 5 0.000000 0.000000 0.000000 0.000000 0.046890 0.000000
# 6 0.000000 0.000000 0.000000 0.000000 0.000000 -0.306965
#
#
# Mechanical properties :
#
#
# Convention : Reuss Voigt Hill
#
# Bulk Modulus (GPa) = 39.19908 40.94400 40.07154
# Shear Modulus (GPa) = 0.43249 22.11391 11.27320
#
# Velocity S-wave (km/s) = 0.43311 3.09702 2.21123
# Velocity P-wave (km/s) = 4.15355 5.52697 4.88873
#
# Compressibility (1/GPa) = 0.02551080
#
# Stress axis : x y z
#
# Youngs Moduli (GPa) = 72.01341 111.06062 96.15663
#
# Poissons Ratio (x) = -0.13975 0.42262
# Poissons Ratio (y) = -0.09062 0.07239
# Poissons Ratio (z) = 0.31651 0.08361
#
# Static dielectric constant tensor:
#      x y z
#    x 1.974330 0.000000 0.000000 
#    y 0.000000 1.937540 0.000000 
#    z 0.000000 0.000000 1.832750 
# 
# From -- ./inp_files/10095.got.cif
#   From: 2010.05.17/outbox.cif.g08.bks.cpg/sg42_6_cif.got.tgz:10095.got - 2010.06.03 19:03:34.
