data_PCOD9369461
_publ_section_title
;
Structure prediction by ZEFSAII (Michael W. Deem and Ramdas Pophale) SiO2 
 PCOD9369461
Probable space group: F M M 2
;
_chemical_formula_sum "Si O2"
_cell_formula_units_Z 96
_cell_length_a 24.207262
_cell_length_b 8.775459
_cell_length_c 25.580106
_cell_angle_alpha 90.000000
_cell_angle_beta 90.000000
_cell_angle_gamma 90.000000
_cell_volume 5433.977702
_symmetry_space_group_name_H-M "F M M 2"
_symmetry_group_IT_number 42
_symmetry_cell_setting 'orthorhombic'
loop_
_space_group_symop_operation_xyz
x,y,z
-x,-y,z
-x,y,z
x,-y,z
x,1/2+y,1/2+z
-x,1/2-y,1/2+z
-x,1/2+y,1/2+z
x,1/2-y,1/2+z
1/2+x,y,1/2+z
1/2-x,-y,1/2+z
1/2-x,y,1/2+z
1/2+x,-y,1/2+z
1/2+x,1/2+y,z
1/2-x,1/2-y,z
1/2-x,1/2+y,z
1/2+x,1/2-y,z
loop_
_atom_site_type_symbol
_atom_site_label
_atom_site_fract_x
_atom_site_fract_y
_atom_site_fract_z
Si Si1 0.885390 0.182029 0.237980
Si Si2 0.690073 0.682036 0.649567
Si Si3 0.119584 0.816630 0.936037
Si Si4 0.688808 0.182558 0.839720
Si Si5 0.809993 0.317929 0.027111
Si Si6 0.500000 0.815063 0.396894
Si Si7 0.000000 0.683124 0.275257
O O1 0.855960 0.247437 0.186761
O O2 0.846384 0.218161 0.287758
O O3 0.944952 0.254417 0.248361
O O4 0.890194 0.000000 0.234350
O O5 0.691617 0.500000 0.655659
O O6 0.750000 0.750000 0.663740
O O7 0.680331 0.717162 0.588316
O O8 0.157432 0.753868 0.889151
O O9 0.056592 0.766854 0.924676
O O10 0.121680 0.000000 0.936037
O O11 0.144161 0.753185 0.989736
O O12 0.750000 0.250000 0.835540
O O13 0.691635 0.000000 0.845580
O O14 0.808472 0.500000 0.020810
O O15 0.750000 0.250000 0.012820
O O16 0.500000 0.766539 0.336227
O O17 0.500000 0.000000 0.396641
O O18 0.000000 0.500000 0.274123
#
# Coordination Sequence:
#
# PCOD9369461 Si02
#       7
#    16  16  16  16  16   8   8
#     4  11  23  38  58  86 117 150 194 239 286 343
#     4  10  21  38  61  86 116 153 193 238 291 348
#     4  11  21  37  59  83 112 148 192 236 284 341
#     4  11  23  36  53  81 115 148 183 231 286 342
#     4  10  21  38  59  86 116 151 191 234 288 343
#     4   9  20  37  58  83 110 149 192 232 281 337
#     4  11  21  39  62  83 114 155 196 238 287 343
#
# _framework density 17.666616000000001
#
# number of rings (size 3 to 8) (size 9 to 14) (size 15 to 20)
#    0.000    1.500    1.667    3.750    0.000    5.333 
#    0.000    2.500    0.000    4.000    0.000    0.000 
#    0.000    0.000    0.000    0.000    0.000    0.000 
#
# Total GULP energy -134147.564874 kJ/mol
# GULP energy per Si atom -5589.481870 kJ/mol
# Density = 1.762641 g / cm^3
# Si number density = 17.666616 Si / 1000 Ang^3
#
#
#
# Elastic Constant Matrix: (Units=GPa)
#
#
# Indices 1 2 3 4 5 6 
#
# 1 197.4555 65.1498 95.6620 0.0000 0.0000 0.0000
# 2 65.1498 62.4442 52.2816 0.0000 0.0000 0.0000
# 3 95.6620 52.2816 102.7842 0.0000 0.0000 0.0000
# 4 0.0000 0.0000 0.0000 30.4502 0.0000 0.0000
# 5 0.0000 0.0000 0.0000 0.0000 18.6733 0.0000
# 6 0.0000 0.0000 0.0000 0.0000 0.0000 24.9475
#
#
#
# Elastic Compliance Matrix: (Units=1/GPa)
#
#
# Indices 1 2 3 4 5 6 
#
# 1 0.009917 -0.004562 -0.006910 0.000000 0.000000 0.000000
# 2 -0.004562 0.029992 -0.011010 0.000000 0.000000 0.000000
# 3 -0.006910 -0.011010 0.021760 0.000000 0.000000 0.000000
# 4 0.000000 0.000000 0.000000 0.032841 0.000000 0.000000
# 5 0.000000 0.000000 0.000000 0.000000 0.053552 0.000000
# 6 0.000000 0.000000 0.000000 0.000000 0.000000 0.040084
#
#
# Mechanical properties :
#
#
# Convention : Reuss Voigt Hill
#
# Bulk Modulus (GPa) = 59.85620 87.65229 73.75425
# Shear Modulus (GPa) = 20.94888 24.78692 22.86790
#
# Velocity S-wave (km/s) = 3.44726 3.74978 3.60170
# Velocity P-wave (km/s) = 7.05687 8.27467 7.68991
#
# Compressibility (1/GPa) = 0.01670671
#
# Stress axis : x y z
#
# Youngs Moduli (GPa) = 100.83658 33.34275 45.95589
#
# Poissons Ratio (x) = 0.15210 0.31753
# Poissons Ratio (y) = 0.45999 0.50596
# Poissons Ratio (z) = 0.69673 0.36709
#
# Static dielectric constant tensor:
#      x y z
#    x 1.571160 0.000000 0.000000 
#    y 0.000000 1.590070 0.000000 
#    z 0.000000 0.000000 1.587420 
# 
# From -- ./inp_files/30451.got.cif
#   From: 2010.05.17/outbox.cif.g08.bks.cpg/sg42_16_cif.got.tgz:30451.got - 2010.06.03 19:03:34.
