data_PCOD9369270
_publ_section_title
;
Structure prediction by ZEFSAII (Michael W. Deem and Ramdas Pophale) SiO2 
 PCOD9369270
Probable space group: F M M 2
;
_chemical_formula_sum "Si O2"
_cell_formula_units_Z 80
_cell_length_a 18.361037
_cell_length_b 7.712257
_cell_length_c 30.671089
_cell_angle_alpha 90.000000
_cell_angle_beta 90.000000
_cell_angle_gamma 90.000000
_cell_volume 4343.180666
_symmetry_space_group_name_H-M "F M M 2"
_symmetry_group_IT_number 42
_symmetry_cell_setting 'orthorhombic'
loop_
_space_group_symop_operation_xyz
x,y,z
-x,-y,z
-x,y,z
x,-y,z
x,1/2+y,1/2+z
-x,1/2-y,1/2+z
-x,1/2+y,1/2+z
x,1/2-y,1/2+z
1/2+x,y,1/2+z
1/2-x,-y,1/2+z
1/2-x,y,1/2+z
1/2+x,-y,1/2+z
1/2+x,1/2+y,z
1/2-x,1/2-y,z
1/2-x,1/2+y,z
1/2+x,1/2-y,z
loop_
_atom_site_type_symbol
_atom_site_label
_atom_site_fract_x
_atom_site_fract_y
_atom_site_fract_z
Si Si1 0.165252 0.792657 0.038700
Si Si2 0.084568 0.789986 0.952808
Si Si3 0.411281 0.692808 0.356768
Si Si4 0.336355 0.791667 0.636739
Si Si5 0.588782 0.500000 0.794338
Si Si6 0.587726 0.500000 0.693277
O O1 0.250000 0.750000 0.034814
O O2 0.141315 0.738622 0.087185
O O3 0.156696 0.000000 0.038299
O O4 0.124386 0.724833 0.996104
O O5 0.114076 0.726725 0.906262
O O6 0.000000 0.739853 0.955689
O O7 0.087831 0.000000 0.951652
O O8 0.500000 0.704755 0.358639
O O9 0.391464 0.500000 0.343153
O O10 0.386629 0.833992 0.322052
O O11 0.250000 0.750000 0.640569
O O12 0.380090 0.670711 0.669846
O O13 0.346720 0.000000 0.642203
O O14 0.500000 0.500000 0.794565
O O15 0.610303 0.500000 0.744073
O O16 0.500000 0.500000 0.690599
#
# Coordination Sequence:
#
# PCOD9369270 Si02
#       6
#    16  16  16  16   8   8
#     4   9  19  32  52  78 106 147 190 223 267 332
#     4   9  16  29  49  75 107 143 180 222 272 321
#     4   9  16  28  49  75 104 142 183 220 270 336
#     4  10  20  39  63  84 114 159 202 236 285 360
#     4   9  18  34  52  75 112 143 173 232 288 331
#     4  11  24  38  60  95 119 145 195 252 305 339
#
# _framework density 18.41968
#
# number of rings (size 3 to 8) (size 9 to 14) (size 15 to 20)
#    0.000    2.600    2.000    0.000    1.400    2.800 
#    0.000    4.000    0.000    1.200    0.000    0.000 
#    0.000    0.000    0.000    0.000    0.000    0.000 
#
# Total GULP energy -111488.450909 kJ/mol
# GULP energy per Si atom -5574.422545 kJ/mol
# Density = 1.837776 g / cm^3
# Si number density = 18.419680 Si / 1000 Ang^3
#
#
#
# Elastic Constant Matrix: (Units=GPa)
#
#
# Indices 1 2 3 4 5 6 
#
# 1 26.3367 25.8032 49.3491 0.0000 0.0000 0.0000
# 2 25.8032 114.3235 90.6571 0.0000 0.0000 0.0000
# 3 49.3491 90.6571 203.8934 0.0000 0.0000 0.0000
# 4 0.0000 0.0000 0.0000 6.3605 0.0000 0.0000
# 5 0.0000 0.0000 0.0000 0.0000 -29.8430 0.0000
# 6 0.0000 0.0000 0.0000 0.0000 0.0000 17.6559
#
#
#
# Elastic Compliance Matrix: (Units=1/GPa)
#
#
# Indices 1 2 3 4 5 6 
#
# 1 0.070466 -0.003676 -0.015421 0.000000 0.000000 0.000000
# 2 -0.003676 0.013703 -0.005203 0.000000 0.000000 0.000000
# 3 -0.015421 -0.005203 0.010950 0.000000 0.000000 0.000000
# 4 0.000000 0.000000 0.000000 0.157221 0.000000 0.000000
# 5 0.000000 0.000000 0.000000 0.000000 -0.033509 0.000000
# 6 0.000000 0.000000 0.000000 0.000000 0.000000 0.056638
#
#
# Mechanical properties :
#
#
# Convention : Reuss Voigt Hill
#
# Bulk Modulus (GPa) = 21.49618 75.13025 48.31321
# Shear Modulus (GPa) = 14.72428 10.75097 12.73763
#
# Velocity S-wave (km/s) = 2.83039 2.41854 2.63253
# Velocity P-wave (km/s) = 4.73044 6.97680 5.96040
#
# Compressibility (1/GPa) = 0.04651989
#
# Stress axis : x y z
#
# Youngs Moduli (GPa) = 14.19117 72.97884 91.32234
#
# Poissons Ratio (x) = 0.26827 1.40826
# Poissons Ratio (y) = 0.05217 0.47514
# Poissons Ratio (z) = 0.21884 0.37970
#
# Static dielectric constant tensor:
#      x y z
#    x 1.610600 0.000000 0.000000 
#    y 0.000000 1.650050 0.000000 
#    z 0.000000 0.000000 1.640200 
# 
# From -- ./inp_files/31387.got.cif
#   From: 2010.05.17/outbox.cif.g08.bks.cpg/sg42_16_cif.got.tgz:31387.got - 2010.06.03 19:03:34.
