data_PCOD9369378
_publ_section_title
;
Structure prediction by ZEFSAII (Michael W. Deem and Ramdas Pophale) SiO2 
 PCOD9369378
Probable space group: F M M 2
;
_chemical_formula_sum "Si O2"
_cell_formula_units_Z 80
_cell_length_a 8.590177
_cell_length_b 23.635500
_cell_length_c 20.881357
_cell_angle_alpha 90.000000
_cell_angle_beta 90.000000
_cell_angle_gamma 90.000000
_cell_volume 4239.607239
_symmetry_space_group_name_H-M "F M M 2"
_symmetry_group_IT_number 42
_symmetry_cell_setting 'orthorhombic'
loop_
_space_group_symop_operation_xyz
x,y,z
-x,-y,z
-x,y,z
x,-y,z
x,1/2+y,1/2+z
-x,1/2-y,1/2+z
-x,1/2+y,1/2+z
x,1/2-y,1/2+z
1/2+x,y,1/2+z
1/2-x,-y,1/2+z
1/2-x,y,1/2+z
1/2+x,-y,1/2+z
1/2+x,1/2+y,z
1/2-x,1/2-y,z
1/2-x,1/2+y,z
1/2+x,1/2-y,z
loop_
_atom_site_type_symbol
_atom_site_label
_atom_site_fract_x
_atom_site_fract_y
_atom_site_fract_z
Si Si1 0.687130 0.187256 0.298240
Si Si2 0.812729 0.185589 0.546077
Si Si3 0.812643 0.117858 0.923741
Si Si4 0.186331 0.500000 0.722720
Si Si5 0.188256 0.117843 0.674016
Si Si6 0.687076 0.000000 0.873534
O O1 0.500000 0.188627 0.297229
O O2 0.750000 0.250000 0.298996
O O3 0.735456 0.154095 0.361627
O O4 0.739946 0.154500 0.235082
O O5 0.750000 0.250000 0.546009
O O6 0.752374 0.149810 0.485670
O O7 0.764938 0.150959 0.609829
O O8 0.000000 0.188279 0.544357
O O9 0.000000 0.115995 0.927262
O O10 0.748839 0.055312 0.910077
O O11 0.246219 0.444529 0.685983
O O12 0.239089 0.500000 0.798087
O O13 0.000000 0.500000 0.723543
O O14 0.000000 0.114276 0.674023
O O15 0.500000 0.000000 0.873725
#
# Coordination Sequence:
#
# PCOD9369378 Si02
#       6
#    16  16  16   8  16   8
#     4  10  21  36  58  87 116 154 203 250 301 359
#     4  11  24  42  64  91 127 167 207 255 309 367
#     4  11  23  40  64  90 122 165 207 254 309 369
#     4  11  23  38  63  96 125 157 201 260 311 362
#     4  10  22  41  63  87 121 165 205 249 306 368
#     4  11  23  40  63  94 127 159 203 260 315 368
#
# _framework density 18.869671
#
# number of rings (size 3 to 8) (size 9 to 14) (size 15 to 20)
#    0.000    1.400    2.000    3.000    0.000    7.200 
#    0.000    1.000    0.000    0.000    0.000    0.000 
#    0.000    0.000    0.000    0.000    0.000    0.000 
#
# Total GULP energy -111777.216888 kJ/mol
# GULP energy per Si atom -5588.860844 kJ/mol
# Density = 1.882672 g / cm^3
# Si number density = 18.869671 Si / 1000 Ang^3
#
#
#
# Elastic Constant Matrix: (Units=GPa)
#
#
# Indices 1 2 3 4 5 6 
#
# 1 38.8384 48.8661 51.3079 0.0000 0.0000 0.0000
# 2 48.8661 236.1380 125.9897 0.0000 0.0000 0.0000
# 3 51.3079 125.9897 204.3664 0.0000 0.0000 0.0000
# 4 0.0000 0.0000 0.0000 44.0338 0.0000 0.0000
# 5 0.0000 0.0000 0.0000 0.0000 28.9553 0.0000
# 6 0.0000 0.0000 0.0000 0.0000 0.0000 40.5839
#
#
#
# Elastic Compliance Matrix: (Units=1/GPa)
#
#
# Indices 1 2 3 4 5 6 
#
# 1 0.041524 -0.004516 -0.007641 0.000000 0.000000 0.000000
# 2 -0.004516 0.006802 -0.003059 0.000000 0.000000 0.000000
# 3 -0.007641 -0.003059 0.008697 0.000000 0.000000 0.000000
# 4 0.000000 0.000000 0.000000 0.022710 0.000000 0.000000
# 5 0.000000 0.000000 0.000000 0.000000 0.034536 0.000000
# 6 0.000000 0.000000 0.000000 0.000000 0.000000 0.024640
#
#
# Mechanical properties :
#
#
# Convention : Reuss Voigt Hill
#
# Bulk Modulus (GPa) = 37.60745 103.51890 70.56318
# Shear Modulus (GPa) = 28.05755 39.59320 33.82538
#
# Velocity S-wave (km/s) = 3.86023 4.58563 4.23848
# Velocity P-wave (km/s) = 6.31204 9.11133 7.83767
#
# Compressibility (1/GPa) = 0.02659047
#
# Stress axis : x y z
#
# Youngs Moduli (GPa) = 24.08254 147.02265 114.97604
#
# Poissons Ratio (x) = 0.66399 0.87850
# Poissons Ratio (y) = 0.10876 0.35175
# Poissons Ratio (z) = 0.18401 0.44979
#
# Static dielectric constant tensor:
#      x y z
#    x 1.646860 0.000000 0.000000 
#    y 0.000000 1.629850 0.000000 
#    z 0.000000 0.000000 1.645320 
# 
# From -- ./inp_files/23456.got.cif
#   From: 2010.05.17/outbox.cif.g08.bks.cpg/sg42_12_cif.got.tgz:23456.got - 2010.06.03 19:03:34.
