data_PCOD9369106
_publ_section_title
;
Structure prediction by ZEFSAII (Michael W. Deem and Ramdas Pophale) SiO2 
 PCOD9369106
Probable space group: F M M 2
;
_chemical_formula_sum "Si O2"
_cell_formula_units_Z 80
_cell_length_a 16.337853
_cell_length_b 12.102527
_cell_length_c 20.598190
_cell_angle_alpha 90.000000
_cell_angle_beta 90.000000
_cell_angle_gamma 90.000000
_cell_volume 4072.865835
_symmetry_space_group_name_H-M "F M M 2"
_symmetry_group_IT_number 42
_symmetry_cell_setting 'orthorhombic'
loop_
_space_group_symop_operation_xyz
x,y,z
-x,-y,z
-x,y,z
x,-y,z
x,1/2+y,1/2+z
-x,1/2-y,1/2+z
-x,1/2+y,1/2+z
x,1/2-y,1/2+z
1/2+x,y,1/2+z
1/2-x,-y,1/2+z
1/2-x,y,1/2+z
1/2+x,-y,1/2+z
1/2+x,1/2+y,z
1/2-x,1/2-y,z
1/2-x,1/2+y,z
1/2+x,1/2-y,z
loop_
_atom_site_type_symbol
_atom_site_label
_atom_site_fract_x
_atom_site_fract_y
_atom_site_fract_z
Si Si1 0.598537 0.373459 0.794440
Si Si2 0.903548 0.500000 0.938302
Si Si3 0.096380 0.500000 0.094081
Si Si4 0.344736 0.722265 0.661224
Si Si5 0.902201 0.124575 0.050020
Si Si6 0.100618 0.244163 0.422834
O O1 0.500000 0.377979 0.795816
O O2 0.628316 0.500000 0.786647
O O3 0.623280 0.298703 0.733578
O O4 0.625201 0.319574 0.862259
O O5 0.869672 0.382030 0.915555
O O6 0.000000 0.500000 0.920397
O O7 0.899272 0.500000 0.016490
O O8 0.136867 0.390998 0.122959
O O9 0.000000 0.500000 0.112668
O O10 0.250000 0.750000 0.663583
O O11 0.385745 0.818421 0.618758
O O12 0.000000 0.118191 0.041854
O O13 0.868698 0.000000 0.046340
O O14 0.871919 0.201074 0.990672
O O15 0.000000 0.240636 0.424647
#
# Coordination Sequence:
#
# PCOD9369106 Si02
#       6
#    16   8   8  16  16  16
#     4  10  20  37  63  88 114 156 210 255 299 365
#     4   9  16  30  59  92 118 144 193 258 307 348
#     4  11  20  40  71  92 115 162 219 260 294 368
#     4  12  25  38  59  87 126 157 204 256 310 355
#     4  10  20  36  59  86 118 153 196 253 314 369
#     4   9  17  32  57  91 118 146 198 262 307 354
#
# _framework density 19.642188999999998
#
# number of rings (size 3 to 8) (size 9 to 14) (size 15 to 20)
#    0.000    1.800    3.000    2.400    1.400    2.400 
#    1.800    1.000    0.000    0.000    0.000    0.000 
#    0.000    0.000    0.000    0.000    0.000    0.000 
#
# Total GULP energy -111650.703610 kJ/mol
# GULP energy per Si atom -5582.535180 kJ/mol
# Density = 1.959748 g / cm^3
# Si number density = 19.642189 Si / 1000 Ang^3
#
#
#
# Elastic Constant Matrix: (Units=GPa)
#
#
# Indices 1 2 3 4 5 6 
#
# 1 20.9587 20.5189 12.1451 0.0000 0.0000 0.0000
# 2 20.5189 146.7780 63.2456 0.0000 0.0000 0.0000
# 3 12.1451 63.2456 110.9786 0.0000 0.0000 0.0000
# 4 0.0000 0.0000 0.0000 19.7177 0.0000 0.0000
# 5 0.0000 0.0000 0.0000 0.0000 -28.9374 0.0000
# 6 0.0000 0.0000 0.0000 0.0000 0.0000 10.6110
#
#
#
# Elastic Compliance Matrix: (Units=1/GPa)
#
#
# Indices 1 2 3 4 5 6 
#
# 1 0.055680 -0.006837 -0.002197 0.000000 0.000000 0.000000
# 2 -0.006837 0.009870 -0.004877 0.000000 0.000000 0.000000
# 3 -0.002197 -0.004877 0.012030 0.000000 0.000000 0.000000
# 4 0.000000 0.000000 0.000000 0.050716 0.000000 0.000000
# 5 0.000000 0.000000 0.000000 0.000000 -0.034557 0.000000
# 6 0.000000 0.000000 0.000000 0.000000 0.000000 0.094242
#
#
# Mechanical properties :
#
#
# Convention : Reuss Voigt Hill
#
# Bulk Modulus (GPa) = 20.09705 52.28162 36.18934
# Shear Modulus (GPa) = 21.51577 12.46532 16.99055
#
# Velocity S-wave (km/s) = 3.31325 2.52190 2.94428
# Velocity P-wave (km/s) = 4.98905 5.92914 5.47930
#
# Compressibility (1/GPa) = 0.04975854
#
# Stress axis : x y z
#
# Youngs Moduli (GPa) = 17.95993 101.31592 83.12321
#
# Poissons Ratio (x) = 0.69270 0.18262
# Poissons Ratio (y) = 0.12279 0.40536
# Poissons Ratio (z) = 0.03946 0.49408
#
# Static dielectric constant tensor:
#      x y z
#    x 1.666000 0.000000 0.000000 
#    y 0.000000 1.689540 0.000000 
#    z 0.000000 0.000000 1.665320 
# 
# From -- ./inp_files/24281.got.cif
#   From: 2010.05.17/outbox.cif.g08.bks.cpg/sg42_13_cif.got.tgz:24281.got - 2010.06.03 19:03:34.
