data_PCOD9369493
_publ_section_title
;
Structure prediction by ZEFSAII (Michael W. Deem and Ramdas Pophale) SiO2 
 PCOD9369493
Probable space group: F M M 2
;
_chemical_formula_sum "Si O2"
_cell_formula_units_Z 88
_cell_length_a 12.080103
_cell_length_b 13.767390
_cell_length_c 24.546180
_cell_angle_alpha 90.000000
_cell_angle_beta 90.000000
_cell_angle_gamma 90.000000
_cell_volume 4082.311751
_symmetry_space_group_name_H-M "F M M 2"
_symmetry_group_IT_number 42
_symmetry_cell_setting 'orthorhombic'
loop_
_space_group_symop_operation_xyz
x,y,z
-x,-y,z
-x,y,z
x,-y,z
x,1/2+y,1/2+z
-x,1/2-y,1/2+z
-x,1/2+y,1/2+z
x,1/2-y,1/2+z
1/2+x,y,1/2+z
1/2-x,-y,1/2+z
1/2-x,y,1/2+z
1/2+x,-y,1/2+z
1/2+x,1/2+y,z
1/2-x,1/2-y,z
1/2-x,1/2+y,z
1/2+x,1/2-y,z
loop_
_atom_site_type_symbol
_atom_site_label
_atom_site_fract_x
_atom_site_fract_y
_atom_site_fract_z
Si Si1 0.750000 0.750000 0.552601
Si Si2 0.758799 0.383631 0.647299
Si Si3 0.869938 0.884886 0.968605
Si Si4 0.000000 0.117421 0.188891
Si Si5 0.000000 0.881728 0.317666
Si Si6 0.264643 0.617442 0.359828
Si Si7 0.626534 0.882309 0.255350
O O1 0.708408 0.667877 0.594620
O O2 0.836193 0.690942 0.515378
O O3 0.755187 0.500000 0.641500
O O4 0.691521 0.355344 0.701117
O O5 0.887005 0.354625 0.658245
O O6 0.793973 0.860181 0.916601
O O7 0.000000 0.876952 0.955281
O O8 0.850765 0.000000 0.983334
O O9 0.000000 0.143504 0.253242
O O10 0.000000 0.000000 0.189000
O O11 0.110278 0.849536 0.348971
O O12 0.000000 0.000000 0.318116
O O13 0.267411 0.500000 0.357757
O O14 0.190163 0.649719 0.309117
O O15 0.500000 0.851294 0.254643
O O16 0.626877 0.000000 0.256494
#
# Coordination Sequence:
#
# PCOD9369493 Si02
#       7
#     8  16  16   8   8  16  16
#     4  12  26  42  62  92 126 166 230 276 320 366
#     4  10  21  38  62  92 126 166 210 265 328 387
#     4  10  23  45  70  94 126 173 225 273 324 386
#     4   9  16  32  61  96 127 161 208 260 321 393
#     4   9  14  26  57  96 130 161 202 258 324 397
#     4   9  16  31  59  95 126 160 207 261 325 392
#     4   9  16  29  55  89 123 159 201 254 323 396
#
# _framework density 21.556414
#
# number of rings (size 3 to 8) (size 9 to 14) (size 15 to 20)
#    0.000    2.364    1.818    1.091    1.273    2.909 
#    1.636    0.909    0.000    1.091    0.000    0.000 
#    0.000    0.000    0.000    0.000    0.000    0.000 
#
# Total GULP energy -122931.902918 kJ/mol
# GULP energy per Si atom -5587.813769 kJ/mol
# Density = 2.150735 g / cm^3
# Si number density = 21.556414 Si / 1000 Ang^3
#
#
#
# Elastic Constant Matrix: (Units=GPa)
#
#
# Indices 1 2 3 4 5 6 
#
# 1 163.4172 48.2960 82.2889 0.0000 0.0000 0.0000
# 2 48.2960 122.7447 45.4754 0.0000 0.0000 0.0000
# 3 82.2889 45.4754 152.2716 0.0000 0.0000 0.0000
# 4 0.0000 0.0000 0.0000 -48.5200 0.0000 0.0000
# 5 0.0000 0.0000 0.0000 0.0000 -245.8488 0.0000
# 6 0.0000 0.0000 0.0000 0.0000 0.0000 14.2574
#
#
#
# Elastic Compliance Matrix: (Units=1/GPa)
#
#
# Indices 1 2 3 4 5 6 
#
# 1 0.008788 -0.001910 -0.004179 0.000000 0.000000 0.000000
# 2 -0.001910 0.009576 -0.001828 0.000000 0.000000 0.000000
# 3 -0.004179 -0.001828 0.009371 0.000000 0.000000 0.000000
# 4 0.000000 0.000000 0.000000 -0.020610 0.000000 0.000000
# 5 0.000000 0.000000 0.000000 0.000000 -0.004068 0.000000
# 6 0.000000 0.000000 0.000000 0.000000 0.000000 0.070139
#
#
# Mechanical properties :
#
#
# Convention : Reuss Voigt Hill
#
# Bulk Modulus (GPa) = 84.01570 87.83936 85.92753
# Shear Modulus (GPa) = 53.76574 -38.53077 7.61749
#
# Velocity S-wave (km/s) = 4.99960 -4.23240 1.88187
# Velocity P-wave (km/s) = 8.50808 4.11738 6.68357
#
# Compressibility (1/GPa) = 0.01190254
#
# Stress axis : x y z
#
# Youngs Moduli (GPa) = 113.79314 104.43319 106.70871
#
# Poissons Ratio (x) = 0.19942 0.44591
# Poissons Ratio (y) = 0.21729 0.19504
# Poissons Ratio (z) = 0.47551 0.19088
#
# Static dielectric constant tensor:
#      x y z
#    x 1.748900 0.000000 0.000000 
#    y 0.000000 1.862060 0.000000 
#    z 0.000000 0.000000 1.743600 
# 
# From -- ./inp_files/28749.got.cif
#   From: 2010.05.17/outbox.cif.g08.bks.cpg/sg42_15_cif.got.tgz:28749.got - 2010.06.03 19:03:34.
