data_PCOD9369160
_publ_section_title
;
Structure prediction by ZEFSAII (Michael W. Deem and Ramdas Pophale) SiO2 
 PCOD9369160
Probable space group: F M M 2
;
_chemical_formula_sum "Si O2"
_cell_formula_units_Z 96
_cell_length_a 8.596186
_cell_length_b 26.051665
_cell_length_c 24.130650
_cell_angle_alpha 90.000000
_cell_angle_beta 90.000000
_cell_angle_gamma 90.000000
_cell_volume 5403.937400
_symmetry_space_group_name_H-M "F M M 2"
_symmetry_group_IT_number 42
_symmetry_cell_setting 'orthorhombic'
loop_
_space_group_symop_operation_xyz
x,y,z
-x,-y,z
-x,y,z
x,-y,z
x,1/2+y,1/2+z
-x,1/2-y,1/2+z
-x,1/2+y,1/2+z
x,1/2-y,1/2+z
1/2+x,y,1/2+z
1/2-x,-y,1/2+z
1/2-x,y,1/2+z
1/2+x,-y,1/2+z
1/2+x,1/2+y,z
1/2-x,1/2-y,z
1/2-x,1/2+y,z
1/2+x,1/2-y,z
loop_
_atom_site_type_symbol
_atom_site_label
_atom_site_fract_x
_atom_site_fract_y
_atom_site_fract_z
Si Si1 0.686701 0.939770 0.845780
Si Si2 0.312522 0.000000 0.030734
Si Si3 0.186963 0.901530 0.729585
Si Si4 0.687134 0.096455 0.462356
Si Si5 0.187315 0.806385 0.033606
Si Si6 0.686764 0.806798 0.661093
Si Si7 0.811043 0.500000 0.158344
O O1 0.500000 0.938586 0.846038
O O2 0.749746 0.912718 0.790727
O O3 0.749730 0.912541 0.900793
O O4 0.735616 0.000000 0.846034
O O5 0.500000 0.000000 0.028280
O O6 0.261144 0.000000 0.094689
O O7 0.249155 0.950107 0.999697
O O8 0.247424 0.849330 0.702330
O O9 0.239366 0.949175 0.690907
O O10 0.000000 0.900969 0.730981
O O11 0.500000 0.095149 0.461380
O O12 0.738130 0.149574 0.491195
O O13 0.250000 0.750000 0.019926
O O14 0.234576 0.818738 0.097203
O O15 0.000000 0.804620 0.032914
O O16 0.500000 0.806584 0.663561
O O17 0.750000 0.750000 0.673733
O O18 0.000000 0.500000 0.158430
#
# Coordination Sequence:
#
# PCOD9369160 Si02
#       7
#    16   8  16  16  16  16   8
#     4  11  23  39  58  82 112 151 196 239 285 340
#     4  11  21  34  53  82 115 148 184 227 280 341
#     4  11  21  37  59  84 114 151 192 236 286 340
#     4  11  22  37  57  83 114 149 190 236 285 339
#     4   9  20  37  59  86 116 151 190 232 285 341
#     4  10  20  37  59  86 118 152 191 235 285 342
#     4   9  20  34  53  82 115 146 182 227 282 343
#
# _framework density 17.764824999999998
#
# number of rings (size 3 to 8) (size 9 to 14) (size 15 to 20)
#    0.000    1.667    1.667    3.250    0.000    2.667 
#    0.000    3.333    0.000    2.000    0.000    0.000 
#    0.000    0.000    0.000    0.000    0.000    0.000 
#
# Total GULP energy -134089.768496 kJ/mol
# GULP energy per Si atom -5587.073687 kJ/mol
# Density = 1.772439 g / cm^3
# Si number density = 17.764825 Si / 1000 Ang^3
#
#
#
# Elastic Constant Matrix: (Units=GPa)
#
#
# Indices 1 2 3 4 5 6 
#
# 1 54.7145 45.2408 47.7895 0.0000 0.0000 0.0000
# 2 45.2408 165.1031 121.6481 0.0000 0.0000 0.0000
# 3 47.7895 121.6481 192.4023 0.0000 0.0000 0.0000
# 4 0.0000 0.0000 0.0000 6.0392 0.0000 0.0000
# 5 0.0000 0.0000 0.0000 0.0000 28.7705 0.0000
# 6 0.0000 0.0000 0.0000 0.0000 0.0000 27.7649
#
#
#
# Elastic Compliance Matrix: (Units=1/GPa)
#
#
# Indices 1 2 3 4 5 6 
#
# 1 0.024823 -0.004229 -0.003492 0.000000 0.000000 0.000000
# 2 -0.004229 0.012060 -0.006574 0.000000 0.000000 0.000000
# 3 -0.003492 -0.006574 0.010221 0.000000 0.000000 0.000000
# 4 0.000000 0.000000 0.000000 0.165584 0.000000 0.000000
# 5 0.000000 0.000000 0.000000 0.000000 0.034758 0.000000
# 6 0.000000 0.000000 0.000000 0.000000 0.000000 0.036017
#
#
# Mechanical properties :
#
#
# Convention : Reuss Voigt Hill
#
# Bulk Modulus (GPa) = 54.01371 93.50853 73.76112
# Shear Modulus (GPa) = 15.71215 25.68435 20.69825
#
# Velocity S-wave (km/s) = 2.97720 3.80649 3.41710
# Velocity P-wave (km/s) = 6.50301 8.48942 7.56173
#
# Compressibility (1/GPa) = 0.01851382
#
# Stress axis : x y z
#
# Youngs Moduli (GPa) = 40.28443 82.92055 97.83364
#
# Poissons Ratio (x) = 0.35070 0.34161
# Poissons Ratio (y) = 0.17038 0.64320
# Poissons Ratio (z) = 0.14066 0.54515
#
# Static dielectric constant tensor:
#      x y z
#    x 1.602650 0.000000 0.000000 
#    y 0.000000 1.587810 0.000000 
#    z 0.000000 0.000000 1.585920 
# 
# From -- ./inp_files/28088.got.cif
#   From: 2010.05.17/outbox.cif.g08.bks.cpg/sg42_15_cif.got.tgz:28088.got - 2010.06.03 19:03:34.
