data_PCOD9369139
_publ_section_title
;
Structure prediction by ZEFSAII (Michael W. Deem and Ramdas Pophale) SiO2 
 PCOD9369139
Probable space group: F M M 2
;
_chemical_formula_sum "Si O2"
_cell_formula_units_Z 116
_cell_length_a 21.810577
_cell_length_b 16.887538
_cell_length_c 17.001908
_cell_angle_alpha 90.000000
_cell_angle_beta 90.000000
_cell_angle_gamma 90.000000
_cell_volume 6262.260882
_symmetry_space_group_name_H-M "F M M 2"
_symmetry_group_IT_number 42
_symmetry_cell_setting 'orthorhombic'
loop_
_space_group_symop_operation_xyz
x,y,z
-x,-y,z
-x,y,z
x,-y,z
x,1/2+y,1/2+z
-x,1/2-y,1/2+z
-x,1/2+y,1/2+z
x,1/2-y,1/2+z
1/2+x,y,1/2+z
1/2-x,-y,1/2+z
1/2-x,y,1/2+z
1/2+x,-y,1/2+z
1/2+x,1/2+y,z
1/2-x,1/2-y,z
1/2-x,1/2+y,z
1/2+x,1/2-y,z
loop_
_atom_site_type_symbol
_atom_site_label
_atom_site_fract_x
_atom_site_fract_y
_atom_site_fract_z
Si Si1 0.793138 0.910647 0.364990
Si Si2 0.147161 0.289061 0.747911
Si Si3 0.391171 0.629550 0.497166
Si Si4 0.929595 0.272053 0.385850
Si Si5 0.659369 0.590797 0.937567
Si Si6 0.171447 0.910375 0.124233
Si Si7 0.500000 0.500000 0.521073
Si Si8 0.292899 0.322068 0.627536
O O1 0.808873 0.841955 0.303399
O O2 0.845018 0.907227 0.432277
O O3 0.727737 0.896052 0.405007
O O4 0.793122 0.000000 0.330929
O O5 0.090991 0.265461 0.802719
O O6 0.133719 0.347226 0.674973
O O7 0.179878 0.213605 0.708244
O O8 0.417649 0.707419 0.453995
O O9 0.445501 0.569433 0.518202
O O10 0.347929 0.653915 0.570386
O O11 0.886155 0.346320 0.401072
O O12 0.000000 0.294848 0.384996
O O13 0.642355 0.500000 0.919387
O O14 0.660459 0.599727 0.031682
O O15 0.243551 0.891535 0.138557
O O16 0.156667 0.000000 0.146143
O O17 0.250000 0.250000 0.594135
#
# Coordination Sequence:
#
# PCOD9369139 Si02
#       8
#    16  16  16  16  16  16   4  16
#     4  10  20  36  63  95 125 157 206 275 327 384
#     4  10  23  37  59  87 126 162 207 257 319 385
#     4  11  22  39  64  93 129 167 216 263 316 393
#     4  11  24  42  61  88 121 172 214 263 320 388
#     4  10  22  39  66  95 123 159 212 269 330 381
#     4  10  20  37  60  93 123 155 196 264 334 376
#     4  12  24  40  64  96 134 188 222 266 324 400
#     4  10  21  37  60  92 126 166 203 265 321 385
#
# _framework density 18.523661000000001
#
# number of rings (size 3 to 8) (size 9 to 14) (size 15 to 20)
#    0.000    1.655    2.759    2.069    6.759    1.379 
#    1.241    0.690    0.000    0.828    0.000    0.000 
#    0.000    0.000    0.000    0.000    0.000    0.000 
#
# Total GULP energy -161614.074903 kJ/mol
# GULP energy per Si atom -5572.899135 kJ/mol
# Density = 1.848150 g / cm^3
# Si number density = 18.523661 Si / 1000 Ang^3
#
#
#
# Elastic Constant Matrix: (Units=GPa)
#
#
# Indices 1 2 3 4 5 6 
#
# 1 116.1742 39.9395 24.6907 0.0000 0.0000 0.0000
# 2 39.9395 67.9237 15.4664 0.0000 0.0000 0.0000
# 3 24.6907 15.4664 64.5075 0.0000 0.0000 0.0000
# 4 0.0000 0.0000 0.0000 28.4984 0.0000 0.0000
# 5 0.0000 0.0000 0.0000 0.0000 13.7209 0.0000
# 6 0.0000 0.0000 0.0000 0.0000 0.0000 32.7998
#
#
#
# Elastic Compliance Matrix: (Units=1/GPa)
#
#
# Indices 1 2 3 4 5 6 
#
# 1 0.011274 -0.005973 -0.002883 0.000000 0.000000 0.000000
# 2 -0.005973 0.018737 -0.002206 0.000000 0.000000 0.000000
# 3 -0.002883 -0.002206 0.017135 0.000000 0.000000 0.000000
# 4 0.000000 0.000000 0.000000 0.035090 0.000000 0.000000
# 5 0.000000 0.000000 0.000000 0.000000 0.072882 0.000000
# 6 0.000000 0.000000 0.000000 0.000000 0.000000 0.030488
#
#
# Mechanical properties :
#
#
# Convention : Reuss Voigt Hill
#
# Bulk Modulus (GPa) = 39.96626 45.42206 42.69416
# Shear Modulus (GPa) = 23.14080 26.23775 24.68927
#
# Velocity S-wave (km/s) = 3.53832 3.76765 3.65478
# Velocity P-wave (km/s) = 6.18995 6.59555 6.39597
#
# Compressibility (1/GPa) = 0.02502111
#
# Stress axis : x y z
#
# Youngs Moduli (GPa) = 88.70104 53.37127 58.36150
#
# Poissons Ratio (x) = 0.31876 0.16826
# Poissons Ratio (y) = 0.52977 0.12876
# Poissons Ratio (z) = 0.25574 0.11775
#
# Static dielectric constant tensor:
#      x y z
#    x 1.600600 0.000000 0.000000 
#    y 0.000000 1.670660 0.000000 
#    z 0.000000 0.000000 1.656090 
# 
# From -- ./inp_files/20950.got.cif
#   From: 2010.05.17/outbox.cif.g08.bks.cpg/sg42_11_cif.got.tgz:20950.got - 2010.06.03 19:03:34.
