data_PCOD9369469
_publ_section_title
;
Structure prediction by ZEFSAII (Michael W. Deem and Ramdas Pophale) SiO2 
 PCOD9369469
Probable space group: F M M 2
;
_chemical_formula_sum "Si O2"
_cell_formula_units_Z 96
_cell_length_a 8.698392
_cell_length_b 25.837360
_cell_length_c 24.101065
_cell_angle_alpha 90.000000
_cell_angle_beta 90.000000
_cell_angle_gamma 90.000000
_cell_volume 5416.557353
_symmetry_space_group_name_H-M "F M M 2"
_symmetry_group_IT_number 42
_symmetry_cell_setting 'orthorhombic'
loop_
_space_group_symop_operation_xyz
x,y,z
-x,-y,z
-x,y,z
x,-y,z
x,1/2+y,1/2+z
-x,1/2-y,1/2+z
-x,1/2+y,1/2+z
x,1/2-y,1/2+z
1/2+x,y,1/2+z
1/2-x,-y,1/2+z
1/2-x,y,1/2+z
1/2+x,-y,1/2+z
1/2+x,1/2+y,z
1/2-x,1/2-y,z
1/2-x,1/2+y,z
1/2+x,1/2-y,z
loop_
_atom_site_type_symbol
_atom_site_label
_atom_site_fract_x
_atom_site_fract_y
_atom_site_fract_z
Si Si1 0.814721 0.939601 0.863110
Si Si2 0.183914 0.000000 0.043275
Si Si3 0.184936 0.902499 0.740279
Si Si4 0.816150 0.097458 0.477067
Si Si5 0.315137 0.806662 0.053259
Si Si6 0.684010 0.807147 0.674578
Si Si7 0.684755 0.500000 0.173379
O O1 0.772611 0.915328 0.803835
O O2 0.746164 0.909278 0.915061
O O3 0.000000 0.939097 0.867209
O O4 0.765738 0.000000 0.865248
O O5 0.223397 0.000000 0.108246
O O6 0.249767 0.949589 0.013197
O O7 0.000000 0.000000 0.037680
O O8 0.255795 0.849479 0.717689
O O9 0.246596 0.949487 0.702784
O O10 0.000000 0.900541 0.736461
O O11 0.773573 0.150977 0.507262
O O12 0.000000 0.093834 0.476427
O O13 0.500000 0.804181 0.058340
O O14 0.250000 0.750000 0.039729
O O15 0.245635 0.821614 0.113149
O O16 0.500000 0.805588 0.673763
O O17 0.750000 0.750000 0.686551
O O18 0.500000 0.500000 0.178867
#
# Coordination Sequence:
#
# PCOD9369469 Si02
#       7
#    16   8  16  16  16  16   8
#     4  10  21  39  60  83 112 154 196 233 286 343
#     4  11  23  36  53  80 115 150 186 229 284 345
#     4  11  22  39  60  84 116 153 193 239 290 345
#     4  11  23  37  57  85 114 148 191 238 286 337
#     4  10  21  38  60  87 117 152 192 234 289 345
#     4  11  22  38  61  89 118 153 194 237 290 345
#     4  11  23  36  55  86 117 150 190 237 290 347
#
# _framework density 17.723436
#
# number of rings (size 3 to 8) (size 9 to 14) (size 15 to 20)
#    0.000    1.333    1.667    5.500    0.000    8.000 
#    0.000    0.833    0.000    2.000    0.000    0.000 
#    0.000    0.000    0.000    0.000    0.000    0.000 
#
# Total GULP energy -134165.530175 kJ/mol
# GULP energy per Si atom -5590.230424 kJ/mol
# Density = 1.768310 g / cm^3
# Si number density = 17.723436 Si / 1000 Ang^3
#
#
#
# Elastic Constant Matrix: (Units=GPa)
#
#
# Indices 1 2 3 4 5 6 
#
# 1 71.8172 46.0220 60.3200 0.0000 0.0000 0.0000
# 2 46.0220 111.0912 91.6548 0.0000 0.0000 0.0000
# 3 60.3200 91.6548 159.4491 0.0000 0.0000 0.0000
# 4 0.0000 0.0000 0.0000 3.1274 0.0000 0.0000
# 5 0.0000 0.0000 0.0000 0.0000 30.9964 0.0000
# 6 0.0000 0.0000 0.0000 0.0000 0.0000 34.2377
#
#
#
# Elastic Compliance Matrix: (Units=1/GPa)
#
#
# Indices 1 2 3 4 5 6 
#
# 1 0.021371 -0.004153 -0.005698 0.000000 0.000000 0.000000
# 2 -0.004153 0.017928 -0.008735 0.000000 0.000000 0.000000
# 3 -0.005698 -0.008735 0.013448 0.000000 0.000000 0.000000
# 4 0.000000 0.000000 0.000000 0.319755 0.000000 0.000000
# 5 0.000000 0.000000 0.000000 0.000000 0.032262 0.000000
# 6 0.000000 0.000000 0.000000 0.000000 0.000000 0.029208
#
#
# Mechanical properties :
#
#
# Convention : Reuss Voigt Hill
#
# Bulk Modulus (GPa) = 64.19593 82.03903 73.11748
# Shear Modulus (GPa) = 10.49684 23.29635 16.89660
#
# Velocity S-wave (km/s) = 2.43627 3.62945 3.09098
# Velocity P-wave (km/s) = 6.64932 7.99705 7.35412
#
# Compressibility (1/GPa) = 0.01557731
#
# Stress axis : x y z
#
# Youngs Moduli (GPa) = 46.79287 55.77750 74.36083
#
# Poissons Ratio (x) = 0.23162 0.42368
# Poissons Ratio (y) = 0.19431 0.64952
# Poissons Ratio (z) = 0.26661 0.48720
#
# Static dielectric constant tensor:
#      x y z
#    x 1.595350 0.000000 0.000000 
#    y 0.000000 1.581370 0.000000 
#    z 0.000000 0.000000 1.584080 
# 
# From -- ./inp_files/28106.got.cif
#   From: 2010.05.17/outbox.cif.g08.bks.cpg/sg42_15_cif.got.tgz:28106.got - 2010.06.03 19:03:34.
