data_PCOD9369486
_publ_section_title
;
Structure prediction by ZEFSAII (Michael W. Deem and Ramdas Pophale) SiO2 
 PCOD9369486
Probable space group: F M M 2
;
_chemical_formula_sum "Si O2"
_cell_formula_units_Z 104
_cell_length_a 13.867915
_cell_length_b 14.985471
_cell_length_c 23.405359
_cell_angle_alpha 90.000000
_cell_angle_beta 90.000000
_cell_angle_gamma 90.000000
_cell_volume 4864.037063
_symmetry_space_group_name_H-M "F M M 2"
_symmetry_group_IT_number 42
_symmetry_cell_setting 'orthorhombic'
loop_
_space_group_symop_operation_xyz
x,y,z
-x,-y,z
-x,y,z
x,-y,z
x,1/2+y,1/2+z
-x,1/2-y,1/2+z
-x,1/2+y,1/2+z
x,1/2-y,1/2+z
1/2+x,y,1/2+z
1/2-x,-y,1/2+z
1/2-x,y,1/2+z
1/2+x,-y,1/2+z
1/2+x,1/2+y,z
1/2-x,1/2-y,z
1/2-x,1/2+y,z
1/2+x,1/2-y,z
loop_
_atom_site_type_symbol
_atom_site_label
_atom_site_fract_x
_atom_site_fract_y
_atom_site_fract_z
Si Si1 0.882163 0.708877 0.486080
Si Si2 0.115198 0.348962 0.609754
Si Si3 0.613407 0.604620 0.873050
Si Si4 0.117830 0.904280 0.520773
Si Si5 0.886153 0.853430 0.647891
Si Si6 0.169102 0.500000 0.700121
Si Si7 0.231575 0.644572 0.259191
O O1 0.852043 0.657427 0.543948
O O2 0.854930 0.662040 0.427553
O O3 0.850968 0.812125 0.491474
O O4 0.000000 0.708887 0.487931
O O5 0.132478 0.251401 0.636963
O O6 0.157806 0.422979 0.650204
O O7 0.000000 0.363213 0.609155
O O8 0.500000 0.624235 0.861303
O O9 0.620144 0.500000 0.886985
O O10 0.676156 0.625106 0.817533
O O11 0.141971 0.898429 0.588159
O O12 0.000000 0.903320 0.518439
O O13 0.151109 0.000000 0.497506
O O14 0.834852 0.884966 0.705131
O O15 0.000000 0.866335 0.654856
O O16 0.178270 0.420236 0.749293
O O17 0.250000 0.750000 0.255556
#
# Coordination Sequence:
#
# PCOD9369486 Si02
#       7
#    16  16  16  16  16   8  16
#     4   8  16  32  58  89 117 145 188 248 294 334
#     4   9  18  35  60  89 117 146 187 237 293 352
#     4  10  21  38  62  88 111 150 206 250 289 342
#     4   8  14  26  51  85 118 146 177 228 293 348
#     4   9  18  34  55  82 113 150 193 237 282 338
#     4  12  23  36  55  86 118 158 180 236 299 358
#     4  12  24  40  57  78 119 159 195 241 292 347
#
# _framework density 21.381416000000002
#
# number of rings (size 3 to 8) (size 9 to 14) (size 15 to 20)
#    0.000    2.462    2.308    2.538    2.154    0.000 
#    0.000    0.000    8.462    0.000    0.000    0.000 
#    0.000    0.000    0.000    0.000    0.000    0.000 
#
# Total GULP energy -144765.952001 kJ/mol
# GULP energy per Si atom -5567.921231 kJ/mol
# Density = 2.133275 g / cm^3
# Si number density = 21.381416 Si / 1000 Ang^3
#
#
#
# Elastic Constant Matrix: (Units=GPa)
#
#
# Indices 1 2 3 4 5 6 
#
# 1 54.9813 14.9095 34.5113 0.0000 0.0000 0.0000
# 2 14.9095 153.5338 58.2265 0.0000 0.0000 0.0000
# 3 34.5113 58.2265 152.2384 0.0000 0.0000 0.0000
# 4 0.0000 0.0000 0.0000 28.8722 0.0000 0.0000
# 5 0.0000 0.0000 0.0000 0.0000 33.9232 0.0000
# 6 0.0000 0.0000 0.0000 0.0000 0.0000 -1.1249
#
#
#
# Elastic Compliance Matrix: (Units=1/GPa)
#
#
# Indices 1 2 3 4 5 6 
#
# 1 0.021215 -0.000276 -0.004704 0.000000 0.000000 0.000000
# 2 -0.000276 0.007622 -0.002852 0.000000 0.000000 0.000000
# 3 -0.004704 -0.002852 0.008726 0.000000 0.000000 0.000000
# 4 0.000000 0.000000 0.000000 0.034635 0.000000 0.000000
# 5 0.000000 0.000000 0.000000 0.000000 0.029478 0.000000
# 6 0.000000 0.000000 0.000000 0.000000 0.000000 -0.888991
#
#
# Mechanical properties :
#
#
# Convention : Reuss Voigt Hill
#
# Bulk Modulus (GPa) = 45.66603 64.00537 54.83570
# Shear Modulus (GPa) = -6.54151 29.20785 11.33317
#
# Velocity S-wave (km/s) = -1.75102 3.70001 2.30477
# Velocity P-wave (km/s) = 4.16126 6.94647 5.72580
#
# Compressibility (1/GPa) = 0.02189812
#
# Stress axis : x y z
#
# Youngs Moduli (GPa) = 47.13559 131.20187 114.60113
#
# Poissons Ratio (x) = 0.03626 0.53905
# Poissons Ratio (y) = 0.01303 0.32690
# Poissons Ratio (z) = 0.22171 0.37425
#
# Static dielectric constant tensor:
#      x y z
#    x 1.877360 0.000000 0.000000 
#    y 0.000000 1.771870 0.000000 
#    z 0.000000 0.000000 1.714400 
# 
# From -- ./inp_files/25919.got.cif
#   From: 2010.05.17/outbox.cif.g08.bks.cpg/sg42_13_cif.got.tgz:25919.got - 2010.06.03 19:03:34.
