data_PCOD9369994
_publ_section_title
;
Structure prediction by ZEFSAII (Michael W. Deem and Ramdas Pophale) SiO2 
 PCOD9369994
Probable space group: F M M 2
;
_chemical_formula_sum "Si O2"
_cell_formula_units_Z 20
_cell_length_a 18.000000
_cell_length_b 9.000000
_cell_length_c 27.000000
_cell_angle_alpha 90.000000
_cell_angle_beta 90.000000
_cell_angle_gamma 90.000000
_cell_volume 4374.000000
_symmetry_space_group_name_H-M "F M M 2"
_symmetry_group_IT_number 42
_symmetry_cell_setting 'orthorhombic'
loop_
_space_group_symop_operation_xyz
x,y,z
-x,-y,z
-x,y,z
x,-y,z
x,1/2+y,1/2+z
-x,1/2-y,1/2+z
-x,1/2+y,1/2+z
x,1/2-y,1/2+z
1/2+x,y,1/2+z
1/2-x,-y,1/2+z
1/2-x,y,1/2+z
1/2+x,-y,1/2+z
1/2+x,1/2+y,z
1/2-x,1/2-y,z
1/2-x,1/2+y,z
1/2+x,1/2-y,z
loop_
_atom_site_type_symbol
_atom_site_label
_atom_site_fract_x
_atom_site_fract_y
_atom_site_fract_z
Si Si1 0.167482 0.321777 0.158090
Si Si2 0.167504 0.677954 0.267019
Si Si3 0.168191 0.176980 0.059373
Si Si4 0.168394 0.677658 0.865503
Si Si5 0.088387 0.173279 0.468905
O O1 0.172751 0.500000 0.151749
O O2 0.250000 0.250000 0.159953
O O3 0.133378 0.292992 0.212568
O O4 0.133028 0.246928 0.109491
O O5 0.173248 0.500000 0.272859
O O6 0.250000 0.750000 0.265496
O O7 0.133024 0.751021 0.315939
O O8 0.250000 0.250000 0.054196
O O9 0.174601 0.000000 0.064029
O O10 0.122460 0.224272 0.011310
O O11 0.175311 0.500000 0.859120
O O12 0.250000 0.750000 0.871547
O O13 0.122424 0.707404 0.915148
O O14 0.000000 0.187210 0.467362
O O15 0.107024 0.000000 0.480160
#
# Coordination Sequence:
#
# PCOD9369994 Si02
#       5
#    16  16  16  16  16
#     4   9  16  27  45  71 102 133 164 201 249 299
#     4   9  16  26  44  71 102 132 162 200 246 294
#     4  11  21  33  53  79 105 134 170 211 254 300
#     4  10  19  31  51  76 101 131 166 205 250 299
#     4  10  22  39  55  72  99 135 172 212 260 308
#
# _framework density 4.5724739999999997
#
# number of rings (size 3 to 8) (size 9 to 14) (size 15 to 20)
#    0.000    2.200    0.000    6.600    0.000    6.000 
#    0.000    0.000    0.000    1.200    0.000    5.600 
#    0.000    0.000    0.000    0.000    0.000    0.000 
#
# Total GULP energy -111499.255148 kJ/mol
# GULP energy per Si atom -5574.962757 kJ/mol
# Density = 0.456207 g / cm^3
# Si number density = 4.572474 Si / 1000 Ang^3
#
#
#
# Elastic Constant Matrix: (Units=GPa)
#
#
# Indices 1 2 3 4 5 6 
#
# 1 22.0951 24.3693 32.4333 0.0000 0.0000 0.0000
# 2 24.3693 132.4912 91.3811 0.0000 0.0000 0.0000
# 3 32.4333 91.3811 188.1700 0.0000 0.0000 0.0000
# 4 0.0000 0.0000 0.0000 40.7412 0.0000 0.0000
# 5 0.0000 0.0000 0.0000 0.0000 -6.7894 0.0000
# 6 0.0000 0.0000 0.0000 0.0000 0.0000 13.1226
#
#
#
# Elastic Compliance Matrix: (Units=1/GPa)
#
#
# Indices 1 2 3 4 5 6 
#
# 1 0.063850 -0.006245 -0.007972 0.000000 0.000000 0.000000
# 2 -0.006245 0.011960 -0.004732 0.000000 0.000000 0.000000
# 3 -0.007972 -0.004732 0.008986 0.000000 0.000000 0.000000
# 4 0.000000 0.000000 0.000000 0.024545 0.000000 0.000000
# 5 0.000000 0.000000 0.000000 0.000000 -0.147289 0.000000
# 6 0.000000 0.000000 0.000000 0.000000 0.000000 0.076204
#
#
# Mechanical properties :
#
#
# Convention : Reuss Voigt Hill
#
# Bulk Modulus (GPa) = 21.32321 71.01375 46.16848
# Shear Modulus (GPa) = 54.47372 22.38638 38.43005
#
# Velocity S-wave (km/s) = 5.46335 3.50233 4.58882
# Velocity P-wave (km/s) = 7.17505 7.43412 7.30573
#
# Compressibility (1/GPa) = 0.04689725
#
# Stress axis : x y z
#
# Youngs Moduli (GPa) = 15.66179 83.61310 111.28075
#
# Poissons Ratio (x) = 0.52219 0.88716
# Poissons Ratio (y) = 0.09781 0.52654
# Poissons Ratio (z) = 0.12486 0.39562
#
# Static dielectric constant tensor:
#      x y z
#    x 1.591530 0.000000 0.000000 
#    y 0.000000 1.611610 0.000000 
#    z 0.000000 0.000000 1.703020 
# 
# From -- ./inp_files/31248.got.cif
#   From: 2010.05.17/outbox.ucp.g08.bks.cvg/sg42_16_cif.got.tgz:31248.got - 2010.06.11 16:29:10.
