data_PCOD9369040
_publ_section_title
;
Structure prediction by ZEFSAII (Michael W. Deem and Ramdas Pophale) SiO2 
 PCOD9369040
Probable space group: F M M 2
;
_chemical_formula_sum "Si O2"
_cell_formula_units_Z 80
_cell_length_a 8.749566
_cell_length_b 15.648437
_cell_length_c 29.309238
_cell_angle_alpha 90.000000
_cell_angle_beta 90.000000
_cell_angle_gamma 90.000000
_cell_volume 4012.933887
_symmetry_space_group_name_H-M "F M M 2"
_symmetry_group_IT_number 42
_symmetry_cell_setting 'orthorhombic'
loop_
_space_group_symop_operation_xyz
x,y,z
-x,-y,z
-x,y,z
x,-y,z
x,1/2+y,1/2+z
-x,1/2-y,1/2+z
-x,1/2+y,1/2+z
x,1/2-y,1/2+z
1/2+x,y,1/2+z
1/2-x,-y,1/2+z
1/2-x,y,1/2+z
1/2+x,-y,1/2+z
1/2+x,1/2+y,z
1/2-x,1/2-y,z
1/2-x,1/2+y,z
1/2+x,1/2-y,z
loop_
_atom_site_type_symbol
_atom_site_label
_atom_site_fract_x
_atom_site_fract_y
_atom_site_fract_z
Si Si1 0.182946 0.500000 0.037180
Si Si2 0.676872 0.103485 0.785746
Si Si3 0.819364 0.159144 0.693442
Si Si4 0.183902 0.340589 0.481795
Si Si5 0.817379 0.500000 0.638609
Si Si6 0.319927 0.397408 0.880936
O O1 0.246225 0.582839 0.010962
O O2 0.245709 0.500000 0.088457
O O3 0.000000 0.500000 0.036963
O O4 0.500000 0.124996 0.776977
O O5 0.780663 0.143646 0.746675
O O6 0.726328 0.129843 0.836510
O O7 0.692285 0.000000 0.783338
O O8 0.750000 0.250000 0.679645
O O9 0.000000 0.157085 0.686151
O O10 0.739959 0.082917 0.665893
O O11 0.250000 0.250000 0.497034
O O12 0.225894 0.355181 0.428566
O O13 0.000000 0.342751 0.484980
O O14 0.000000 0.500000 0.636232
O O15 0.500000 0.381514 0.872978
O O16 0.301142 0.500000 0.886359
#
# Coordination Sequence:
#
# PCOD9369040 Si02
#       6
#     8  16  16  16   8  16
#     4  12  26  46  71  98 127 166 212 263 325 387
#     4  10  20  35  59  92 131 173 218 263 314 375
#     4  12  25  43  68  98 132 171 215 264 319 381
#     4  11  23  42  66  97 132 171 215 266 321 381
#     4  12  26  48  73  98 129 164 208 265 325 387
#     4   9  18  35  59  87 126 174 219 263 316 374
#
# _framework density 19.935538999999999
#
# number of rings (size 3 to 8) (size 9 to 14) (size 15 to 20)
#    0.000    1.200    2.000    4.800    0.000    4.000 
#    0.000    6.000    0.000    0.000    0.000    0.000 
#    0.000    0.000    0.000    0.000    0.000    0.000 
#
# Total GULP energy -111926.787949 kJ/mol
# GULP energy per Si atom -5596.339397 kJ/mol
# Density = 1.989016 g / cm^3
# Si number density = 19.935539 Si / 1000 Ang^3
#
#
#
# Elastic Constant Matrix: (Units=GPa)
#
#
# Indices 1 2 3 4 5 6 
#
# 1 124.2718 60.8234 52.4430 0.0000 0.0000 0.0000
# 2 60.8234 134.4907 64.5102 0.0000 0.0000 0.0000
# 3 52.4430 64.5102 117.9016 0.0000 0.0000 0.0000
# 4 0.0000 0.0000 0.0000 -13.4719 0.0000 0.0000
# 5 0.0000 0.0000 0.0000 0.0000 35.8186 0.0000
# 6 0.0000 0.0000 0.0000 0.0000 0.0000 29.7339
#
#
#
# Elastic Compliance Matrix: (Units=1/GPa)
#
#
# Indices 1 2 3 4 5 6 
#
# 1 0.011045 -0.003578 -0.002955 0.000000 0.000000 0.000000
# 2 -0.003578 0.011240 -0.004559 0.000000 0.000000 0.000000
# 3 -0.002955 -0.004559 0.012291 0.000000 0.000000 0.000000
# 4 0.000000 0.000000 0.000000 -0.074229 0.000000 0.000000
# 5 0.000000 0.000000 0.000000 0.000000 0.027918 0.000000
# 6 0.000000 0.000000 0.000000 0.000000 0.000000 0.033632
#
#
# Mechanical properties :
#
#
# Convention : Reuss Voigt Hill
#
# Bulk Modulus (GPa) = 80.69525 81.35749 81.02637
# Shear Modulus (GPa) = 103.71023 23.67529 63.69276
#
# Velocity S-wave (km/s) = 7.22051 3.44988 5.65851
# Velocity P-wave (km/s) = 10.49191 7.53444 9.13368
#
# Compressibility (1/GPa) = 0.01239230
#
# Stress axis : x y z
#
# Youngs Moduli (GPa) = 90.53838 88.96763 81.36322
#
# Poissons Ratio (x) = 0.31828 0.24046
# Poissons Ratio (y) = 0.32390 0.37091
# Poissons Ratio (z) = 0.26758 0.40558
#
# Static dielectric constant tensor:
#      x y z
#    x 1.661630 0.000000 0.000000 
#    y 0.000000 1.706360 0.000000 
#    z 0.000000 0.000000 1.679160 
# 
# From -- ./inp_files/31354.got.cif
#   From: 2010.05.17/outbox.cif.g08.bks.cpg/sg42_16_cif.got.tgz:31354.got - 2010.06.03 19:03:34.
