data_PCOD9369261
_publ_section_title
;
Structure prediction by ZEFSAII (Michael W. Deem and Ramdas Pophale) SiO2 
 PCOD9369261
Probable space group: F M M 2
;
_chemical_formula_sum "Si O2"
_cell_formula_units_Z 112
_cell_length_a 29.037292
_cell_length_b 15.607056
_cell_length_c 10.933171
_cell_angle_alpha 90.000000
_cell_angle_beta 90.000000
_cell_angle_gamma 90.000000
_cell_volume 4954.767056
_symmetry_space_group_name_H-M "F M M 2"
_symmetry_group_IT_number 42
_symmetry_cell_setting 'orthorhombic'
loop_
_space_group_symop_operation_xyz
x,y,z
-x,-y,z
-x,y,z
x,-y,z
x,1/2+y,1/2+z
-x,1/2-y,1/2+z
-x,1/2+y,1/2+z
x,1/2-y,1/2+z
1/2+x,y,1/2+z
1/2-x,-y,1/2+z
1/2-x,y,1/2+z
1/2+x,-y,1/2+z
1/2+x,1/2+y,z
1/2-x,1/2-y,z
1/2-x,1/2+y,z
1/2+x,1/2-y,z
loop_
_atom_site_type_symbol
_atom_site_label
_atom_site_fract_x
_atom_site_fract_y
_atom_site_fract_z
Si Si1 0.630349 0.824986 0.700850
Si Si2 0.948372 0.095212 0.571883
Si Si3 0.447151 0.260296 0.365317
Si Si4 0.852320 0.630276 0.194781
Si Si5 0.740033 0.903496 0.069189
Si Si6 0.786523 0.896269 0.314109
Si Si7 0.613117 0.597373 0.942993
O O1 0.579994 0.802058 0.752049
O O2 0.651343 0.731701 0.676020
O O3 0.660317 0.869060 0.806791
O O4 0.630157 0.881342 0.579129
O O5 0.944453 0.170724 0.474217
O O6 0.904120 0.102722 0.658592
O O7 0.000000 0.101626 0.628392
O O8 0.946235 0.000000 0.514792
O O9 0.500000 0.245168 0.335587
O O10 0.422483 0.173079 0.408469
O O11 0.813032 0.590567 0.112066
O O12 0.848040 0.606397 0.337649
O O13 0.765451 0.864072 0.185928
O O14 0.759249 0.000000 0.056166
O O15 0.738581 0.862655 0.935363
O O16 0.783265 0.000000 0.317241
O O17 0.595277 0.500000 0.938581
#
# Coordination Sequence:
#
# PCOD9369261 Si02
#       7
#    16  16  16  16  16  16  16
#     4  11  24  41  64  95 133 179 222 284 352 407
#     4  10  20  38  66  95 126 171 223 275 337 410
#     4  10  23  43  65  96 136 175 226 286 342 413
#     4  11  23  40  64  96 133 172 226 283 342 413
#     4  10  22  41  67  97 130 175 226 284 346 416
#     4  10  23  42  67  97 133 177 229 284 352 426
#     4  11  24  41  65  97 134 182 227 282 350 421
#
# _framework density 22.604493999999999
#
# number of rings (size 3 to 8) (size 9 to 14) (size 15 to 20)
#    0.000    1.571    1.429    2.571    4.000    6.000 
#    0.000    1.429    0.000    0.000    0.000    0.000 
#    0.000    0.000    0.000    0.000    0.000    0.000 
#
# Total GULP energy -156457.280220 kJ/mol
# GULP energy per Si atom -5587.760008 kJ/mol
# Density = 2.255304 g / cm^3
# Si number density = 22.604494 Si / 1000 Ang^3
#
#
#
# Elastic Constant Matrix: (Units=GPa)
#
#
# Indices 1 2 3 4 5 6 
#
# 1 72.0181 14.3616 26.4667 0.0000 0.0000 0.0000
# 2 14.3616 121.4164 36.9984 0.0000 0.0000 0.0000
# 3 26.4667 36.9984 113.9249 0.0000 0.0000 0.0000
# 4 0.0000 0.0000 0.0000 -102.5004 0.0000 0.0000
# 5 0.0000 0.0000 0.0000 0.0000 29.5635 0.0000
# 6 0.0000 0.0000 0.0000 0.0000 0.0000 18.1438
#
#
#
# Elastic Compliance Matrix: (Units=1/GPa)
#
#
# Indices 1 2 3 4 5 6 
#
# 1 0.015252 -0.000804 -0.003282 0.000000 0.000000 0.000000
# 2 -0.000804 0.009183 -0.002796 0.000000 0.000000 0.000000
# 3 -0.003282 -0.002796 0.010448 0.000000 0.000000 0.000000
# 4 0.000000 0.000000 0.000000 -0.009756 0.000000 0.000000
# 5 0.000000 0.000000 0.000000 0.000000 0.033826 0.000000
# 6 0.000000 0.000000 0.000000 0.000000 0.000000 0.055115
#
#
# Mechanical properties :
#
#
# Convention : Reuss Voigt Hill
#
# Bulk Modulus (GPa) = 47.34891 51.44587 49.39739
# Shear Modulus (GPa) = 37.07244 4.34355 20.70800
#
# Velocity S-wave (km/s) = 4.05414 1.38770 3.03000
# Velocity P-wave (km/s) = 6.55034 5.03748 5.84308
#
# Compressibility (1/GPa) = 0.02111981
#
# Stress axis : x y z
#
# Youngs Moduli (GPa) = 65.56551 108.89595 95.71111
#
# Poissons Ratio (x) = 0.08754 0.31414
# Poissons Ratio (y) = 0.05271 0.26757
# Poissons Ratio (z) = 0.21520 0.30442
#
# Static dielectric constant tensor:
#      x y z
#    x 1.857140 0.000000 0.000000 
#    y 0.000000 1.990770 0.000000 
#    z 0.000000 0.000000 1.871210 
# 
# From -- ./inp_files/11117.got.cif
#   From: 2010.05.17/outbox.cif.g08.bks.cpg/sg42_6_cif.got.tgz:11117.got - 2010.06.03 19:03:34.
