data_PCOD9369785
_publ_section_title
;
Structure prediction by ZEFSAII (Michael W. Deem and Ramdas Pophale) SiO2 
 PCOD9369785
Probable space group: F M M 2
;
_chemical_formula_sum "Si O2"
_cell_formula_units_Z 80
_cell_length_a 17.851332
_cell_length_b 27.945798
_cell_length_c 7.617720
_cell_angle_alpha 90.000000
_cell_angle_beta 90.000000
_cell_angle_gamma 90.000000
_cell_volume 3800.249829
_symmetry_space_group_name_H-M "F M M 2"
_symmetry_group_IT_number 42
_symmetry_cell_setting 'orthorhombic'
loop_
_space_group_symop_operation_xyz
x,y,z
-x,-y,z
-x,y,z
x,-y,z
x,1/2+y,1/2+z
-x,1/2-y,1/2+z
-x,1/2+y,1/2+z
x,1/2-y,1/2+z
1/2+x,y,1/2+z
1/2-x,-y,1/2+z
1/2-x,y,1/2+z
1/2+x,-y,1/2+z
1/2+x,1/2+y,z
1/2-x,1/2-y,z
1/2-x,1/2+y,z
1/2+x,1/2-y,z
loop_
_atom_site_type_symbol
_atom_site_label
_atom_site_fract_x
_atom_site_fract_y
_atom_site_fract_z
Si Si1 0.085828 0.803630 0.753320
Si Si2 0.411614 0.594502 0.346567
Si Si3 0.804259 0.946524 0.076407
Si Si4 0.341039 0.098512 0.217446
Si Si5 0.084524 0.700180 0.835517
O O1 0.137097 0.849231 0.792170
O O2 0.119563 0.751793 0.799464
O O3 0.078817 0.803422 0.544136
O O4 0.000000 0.808413 0.825480
O O5 0.500000 0.592124 0.315617
O O6 0.365661 0.558162 0.228469
O O7 0.396628 0.588311 0.554479
O O8 0.384811 0.648125 0.286405
O O9 0.739268 0.908774 0.124264
O O10 0.771589 0.000000 0.075378
O O11 0.839198 0.935452 0.886626
O O12 0.000000 0.703721 0.759780
#
# Coordination Sequence:
#
# PCOD9369785 Si02
#       5
#    16  16  16  16  16
#     4   9  18  34  61  94 127 168 212 257 316 387
#     4  10  23  44  69  99 134 168 215 276 325 388
#     4  12  26  44  68  93 125 176 224 272 340 397
#     4  11  23  42  68  94 130 172 222 267 325 393
#     4   8  16  32  57  91 128 166 204 250 318 384
#
# _framework density 21.051247
#
# number of rings (size 3 to 8) (size 9 to 14) (size 15 to 20)
#    0.000    2.000    2.000    2.400    2.800    2.800 
#    0.000    1.000    0.000    5.400    0.000    0.000 
#    0.000    0.000    0.000    0.000    0.000    0.000 
#
# Total GULP energy -111457.891775 kJ/mol
# GULP energy per Si atom -5572.894589 kJ/mol
# Density = 2.100333 g / cm^3
# Si number density = 21.051247 Si / 1000 Ang^3
#
#
#
# Elastic Constant Matrix: (Units=GPa)
#
#
# Indices 1 2 3 4 5 6 
#
# 1 53.2273 26.3290 0.7216 0.0000 0.0001 0.0000
# 2 26.3290 93.9397 12.6696 0.0000 0.0000 0.0000
# 3 0.7216 12.6696 65.0050 -0.0001 0.0001 0.0000
# 4 0.0000 0.0000 -0.0001 27.8840 0.0000 0.0000
# 5 0.0001 0.0000 0.0001 0.0000 23.5498 0.0000
# 6 0.0000 0.0000 0.0000 0.0000 0.0000 20.6170
#
#
#
# Elastic Compliance Matrix: (Units=1/GPa)
#
#
# Indices 1 2 3 4 5 6 
#
# 1 0.021872 -0.006262 0.000978 0.000000 0.000000 0.000000
# 2 -0.006262 0.012725 -0.002411 0.000000 0.000000 0.000000
# 3 0.000978 -0.002411 0.015842 0.000000 0.000000 0.000000
# 4 0.000000 0.000000 0.000000 0.035863 0.000000 0.000000
# 5 0.000000 0.000000 0.000000 0.000000 0.042463 0.000000
# 6 0.000000 0.000000 0.000000 0.000000 0.000000 0.048504
#
#
# Mechanical properties :
#
#
# Convention : Reuss Voigt Hill
#
# Bulk Modulus (GPa) = 28.53110 32.40137 30.46623
# Shear Modulus (GPa) = 24.46879 25.90696 25.18787
#
# Velocity S-wave (km/s) = 3.41301 3.51188 3.46280
# Velocity P-wave (km/s) = 5.39575 5.64531 5.52194
#
# Compressibility (1/GPa) = 0.03504947
#
# Stress axis : x y z
#
# Youngs Moduli (GPa) = 45.72150 78.58352 63.12163
#
# Poissons Ratio (x) = 0.49208 -0.06171
# Poissons Ratio (y) = 0.28630 0.15217
# Poissons Ratio (z) = -0.04470 0.18944
#
# Static dielectric constant tensor:
#      x y z
#    x 1.763230 0.000000 0.000000 
#    y 0.000000 1.826030 0.000000 
#    z 0.000000 0.000000 1.773340 
# 
# From -- ./inp_files/3507.got.cif
#   From: 2010.05.17/outbox.cif.g08.bks.cpg/sg42_2_cif.got.tgz:3507.got - 2010.06.03 19:03:34.
