data_PCOD9369336
_publ_section_title
;
Structure prediction by ZEFSAII (Michael W. Deem and Ramdas Pophale) SiO2 
 PCOD9369336
Probable space group: F M M 2
;
_chemical_formula_sum "Si O2"
_cell_formula_units_Z 56
_cell_length_a 5.412881
_cell_length_b 18.656199
_cell_length_c 29.123142
_cell_angle_alpha 90.000000
_cell_angle_beta 90.000000
_cell_angle_gamma 90.000000
_cell_volume 2940.965113
_symmetry_space_group_name_H-M "F M M 2"
_symmetry_group_IT_number 42
_symmetry_cell_setting 'orthorhombic'
loop_
_space_group_symop_operation_xyz
x,y,z
-x,-y,z
-x,y,z
x,-y,z
x,1/2+y,1/2+z
-x,1/2-y,1/2+z
-x,1/2+y,1/2+z
x,1/2-y,1/2+z
1/2+x,y,1/2+z
1/2-x,-y,1/2+z
1/2-x,y,1/2+z
1/2+x,-y,1/2+z
1/2+x,1/2+y,z
1/2-x,1/2-y,z
1/2-x,1/2+y,z
1/2+x,1/2-y,z
loop_
_atom_site_type_symbol
_atom_site_label
_atom_site_fract_x
_atom_site_fract_y
_atom_site_fract_z
Si Si1 0.000000 0.085862 0.861338
Si Si2 0.245881 0.500000 0.183176
Si Si3 0.500000 0.797057 0.439816
Si Si4 0.500000 0.878196 0.637953
Si Si5 0.500000 0.293570 0.228845
Si Si6 0.500000 0.795841 0.546249
Si Si7 0.000000 0.586000 0.805042
O O1 0.248170 0.103371 0.832706
O O2 0.000000 0.135054 0.906424
O O3 0.000000 0.000000 0.870941
O O4 0.500000 0.500000 0.209926
O O5 0.272140 0.430193 0.151517
O O6 0.000000 0.500000 0.211820
O O7 0.750000 0.750000 0.432514
O O8 0.500000 0.820424 0.493379
O O9 0.500000 0.814604 0.674848
O O10 0.500000 0.854772 0.585986
O O11 0.750000 0.250000 0.238714
O O12 0.500000 0.365525 0.259302
O O13 0.750000 0.750000 0.552836
O O14 0.000000 0.500000 0.801204
#
# Coordination Sequence:
#
# PCOD9369336 Si02
#       7
#     8   8   8   8   8   8   8
#     4  10  21  41  62  87 112 150 191 239 291 342
#     4   8  20  34  56  80 104 148 208 224 284 332
#     4  10  21  37  60  89 115 153 190 231 291 347
#     4   9  22  37  59  79 122 153 194 236 281 334
#     4  12  26  38  58  92 118 149 199 240 283 329
#     4  10  21  35  57  82 115 154 189 227 289 345
#     4  10  23  41  62  82 117 155 189 231 296 351
#
# _framework density 19.041369
#
# number of rings (size 3 to 8) (size 9 to 14) (size 15 to 20)
#    0.857    1.143    0.000    2.571    6.000    3.429 
#    2.571    0.000    0.000    0.000    0.000    0.000 
#    0.000    0.000    0.000    0.000    0.000    0.000 
#
# Total GULP energy -77985.404357 kJ/mol
# GULP energy per Si atom -5570.386026 kJ/mol
# Density = 1.899803 g / cm^3
# Si number density = 19.041369 Si / 1000 Ang^3
#
#
#
# Elastic Constant Matrix: (Units=GPa)
#
#
# Indices 1 2 3 4 5 6 
#
# 1 182.3882 39.0825 39.9851 0.0000 0.0000 0.0000
# 2 39.0825 80.7509 49.5175 0.0000 0.0000 0.0000
# 3 39.9851 49.5175 98.7754 0.0000 0.0000 0.0000
# 4 0.0000 0.0000 0.0000 24.1203 0.0000 0.0000
# 5 0.0000 0.0000 0.0000 0.0000 -0.9177 0.0000
# 6 0.0000 0.0000 0.0000 0.0000 0.0000 204.1872
#
#
#
# Elastic Compliance Matrix: (Units=1/GPa)
#
#
# Indices 1 2 3 4 5 6 
#
# 1 0.006261 -0.002131 -0.001466 0.000000 0.000000 0.000000
# 2 -0.002131 0.018606 -0.008465 0.000000 0.000000 0.000000
# 3 -0.001466 -0.008465 0.014961 0.000000 0.000000 0.000000
# 4 0.000000 0.000000 0.000000 0.041459 0.000000 0.000000
# 5 0.000000 0.000000 0.000000 0.000000 -1.089685 0.000000
# 6 0.000000 0.000000 0.000000 0.000000 0.000000 0.004897
#
#
# Mechanical properties :
#
#
# Convention : Reuss Voigt Hill
#
# Bulk Modulus (GPa) = 63.67871 68.78721 66.23296
# Shear Modulus (GPa) = -5.13272 61.03325 27.95026
#
# Velocity S-wave (km/s) = -1.64360 5.66768 3.83544
# Velocity P-wave (km/s) = 5.46928 8.89009 7.38060
#
# Compressibility (1/GPa) = 0.01570383
#
# Stress axis : x y z
#
# Youngs Moduli (GPa) = 159.72165 53.74646 66.84087
#
# Poissons Ratio (x) = 0.11454 0.09799
# Poissons Ratio (y) = 0.34040 0.56579
# Poissons Ratio (z) = 0.23416 0.45495
#
# Static dielectric constant tensor:
#      x y z
#    x 1.705370 0.000000 0.000000 
#    y 0.000000 1.673070 0.000000 
#    z 0.000000 0.000000 1.627970 
# 
# From -- ./inp_files/33515.got.cif
#   From: 2010.05.17/outbox.cif.g08.bks.cpg/sg42_17_cif.got.tgz:33515.got - 2010.06.03 19:03:34.
