data_PCOD9369395
_publ_section_title
;
Structure prediction by ZEFSAII (Michael W. Deem and Ramdas Pophale) SiO2 
 PCOD9369395
Probable space group: F M M 2
;
_chemical_formula_sum "Si O2"
_cell_formula_units_Z 80
_cell_length_a 8.703991
_cell_length_b 19.293694
_cell_length_c 26.933164
_cell_angle_alpha 90.000000
_cell_angle_beta 90.000000
_cell_angle_gamma 90.000000
_cell_volume 4522.943839
_symmetry_space_group_name_H-M "F M M 2"
_symmetry_group_IT_number 42
_symmetry_cell_setting 'orthorhombic'
loop_
_space_group_symop_operation_xyz
x,y,z
-x,-y,z
-x,y,z
x,-y,z
x,1/2+y,1/2+z
-x,1/2-y,1/2+z
-x,1/2+y,1/2+z
x,1/2-y,1/2+z
1/2+x,y,1/2+z
1/2-x,-y,1/2+z
1/2-x,y,1/2+z
1/2+x,-y,1/2+z
1/2+x,1/2+y,z
1/2-x,1/2-y,z
1/2-x,1/2+y,z
1/2+x,1/2-y,z
loop_
_atom_site_type_symbol
_atom_site_label
_atom_site_fract_x
_atom_site_fract_y
_atom_site_fract_z
Si Si1 0.185117 0.418989 0.569230
Si Si2 0.815629 0.828229 0.271706
Si Si3 0.817173 0.327887 0.373970
Si Si4 0.814692 0.672430 0.662499
Si Si5 0.183308 0.081727 0.462640
O O1 0.222306 0.500000 0.577037
O O2 0.236109 0.374190 0.616395
O O3 0.259970 0.396649 0.517357
O O4 0.000000 0.413360 0.564793
O O5 0.750000 0.750000 0.270400
O O6 0.745180 0.858969 0.321857
O O7 0.774439 0.857312 0.217254
O O8 0.000000 0.826717 0.276356
O O9 0.750000 0.250000 0.378918
O O10 0.762372 0.373677 0.419981
O O11 0.000000 0.323472 0.372002
O O12 0.750000 0.750000 0.658183
O O13 0.000000 0.676460 0.661249
O O14 0.000000 0.089327 0.459262
O O15 0.221530 0.000000 0.457076
#
# Coordination Sequence:
#
# PCOD9369395 Si02
#       5
#    16  16  16  16  16
#     4   9  18  34  53  72  98 133 170 206 248 299
#     4   9  16  29  48  72 102 133 166 203 249 299
#     4  11  21  34  54  78 104 134 170 211 255 302
#     4   9  18  31  50  75 101 131 166 205 248 295
#     4  10  21  37  55  75 101 134 171 211 257 306
#
# _framework density 17.687594000000001
#
# number of rings (size 3 to 8) (size 9 to 14) (size 15 to 20)
#    0.000    2.400    0.000    4.200    0.000    3.600 
#    0.000    3.000    0.000    3.600    0.000    0.000 
#    0.000    0.000    0.000    0.000    0.000    0.000 
#
# Total GULP energy -111511.151317 kJ/mol
# GULP energy per Si atom -5575.557566 kJ/mol
# Density = 1.764734 g / cm^3
# Si number density = 17.687594 Si / 1000 Ang^3
#
#
#
# Elastic Constant Matrix: (Units=GPa)
#
#
# Indices 1 2 3 4 5 6 
#
# 1 68.8055 31.6489 69.6023 0.0000 0.0000 0.0000
# 2 31.6489 44.4679 74.5964 0.0000 0.0000 0.0000
# 3 69.6023 74.5964 217.8182 0.0000 0.0000 0.0000
# 4 0.0000 0.0000 0.0000 -140.1315 0.0000 0.0000
# 5 0.0000 0.0000 0.0000 0.0000 31.0464 0.0000
# 6 0.0000 0.0000 0.0000 0.0000 0.0000 21.3115
#
#
#
# Elastic Compliance Matrix: (Units=1/GPa)
#
#
# Indices 1 2 3 4 5 6 
#
# 1 0.023074 -0.009527 -0.004110 0.000000 0.000000 0.000000
# 2 -0.009527 0.056785 -0.016403 0.000000 0.000000 0.000000
# 3 -0.004110 -0.016403 0.011522 0.000000 0.000000 0.000000
# 4 0.000000 0.000000 0.000000 -0.007136 0.000000 0.000000
# 5 0.000000 0.000000 0.000000 0.000000 0.032210 0.000000
# 6 0.000000 0.000000 0.000000 0.000000 0.000000 0.046923
#
#
# Mechanical properties :
#
#
# Convention : Reuss Voigt Hill
#
# Bulk Modulus (GPa) = 31.94839 75.86519 53.90679
# Shear Modulus (GPa) = 21.37739 -7.20511 7.08614
#
# Velocity S-wave (km/s) = 3.48028 -2.02049 2.00374
# Velocity P-wave (km/s) = 5.85249 6.12713 5.99138
#
# Compressibility (1/GPa) = 0.03130048
#
# Stress axis : x y z
#
# Youngs Moduli (GPa) = 43.33904 17.61020 86.79045
#
# Poissons Ratio (x) = 0.16777 0.35675
# Poissons Ratio (y) = 0.41289 1.42363
# Poissons Ratio (z) = 0.17814 0.28886
#
# Static dielectric constant tensor:
#      x y z
#    x 1.595370 0.000000 0.000000 
#    y 0.000000 1.609630 0.000000 
#    z 0.000000 0.000000 1.632980 
# 
# From -- ./inp_files/31249.got.cif
#   From: 2010.05.17/outbox.cif.g08.bks.cpg/sg42_16_cif.got.tgz:31249.got - 2010.06.03 19:03:34.
