data_PCOD9369889
_publ_section_title
;
Structure prediction by ZEFSAII (Michael W. Deem and Ramdas Pophale) SiO2 
 PCOD9369889
Probable space group: F M M 2
;
_chemical_formula_sum "Si O2"
_cell_formula_units_Z 112
_cell_length_a 17.172481
_cell_length_b 30.233368
_cell_length_c 11.694021
_cell_angle_alpha 90.000000
_cell_angle_beta 90.000000
_cell_angle_gamma 90.000000
_cell_volume 6071.324480
_symmetry_space_group_name_H-M "F M M 2"
_symmetry_group_IT_number 42
_symmetry_cell_setting 'orthorhombic'
loop_
_space_group_symop_operation_xyz
x,y,z
-x,-y,z
-x,y,z
x,-y,z
x,1/2+y,1/2+z
-x,1/2-y,1/2+z
-x,1/2+y,1/2+z
x,1/2-y,1/2+z
1/2+x,y,1/2+z
1/2-x,-y,1/2+z
1/2-x,y,1/2+z
1/2+x,-y,1/2+z
1/2+x,1/2+y,z
1/2-x,1/2-y,z
1/2-x,1/2+y,z
1/2+x,1/2-y,z
loop_
_atom_site_type_symbol
_atom_site_label
_atom_site_fract_x
_atom_site_fract_y
_atom_site_fract_z
Si Si1 0.664508 0.660279 0.682450
Si Si2 0.839177 0.239255 0.510978
Si Si3 0.912529 0.401186 0.006950
Si Si4 0.594213 0.551162 0.288516
Si Si5 0.092713 0.330950 0.434490
Si Si6 0.415613 0.183981 0.839462
Si Si7 0.342550 0.367711 0.149754
O O1 0.638905 0.703670 0.608654
O O2 0.631462 0.617052 0.616850
O O3 0.631450 0.666219 0.809328
O O4 0.757215 0.651961 0.675721
O O5 0.750000 0.250000 0.532204
O O6 0.887892 0.283702 0.493676
O O7 0.848977 0.214698 0.389305
O O8 0.882134 0.438630 0.920544
O O9 0.915581 0.358911 0.921285
O O10 0.000000 0.413132 0.041131
O O11 0.500000 0.560137 0.280996
O O12 0.606667 0.500000 0.260738
O O13 0.640390 0.584884 0.207007
O O14 0.135512 0.366041 0.517248
O O15 0.000000 0.337598 0.427982
O O16 0.500000 0.206137 0.849542
O O17 0.400828 0.165738 0.714776
#
# Coordination Sequence:
#
# PCOD9369889 Si02
#       7
#    16  16  16  16  16  16  16
#     4  11  24  39  59  83 124 164 202 253 309 359
#     4  11  22  39  55  80 113 158 208 259 297 350
#     4   8  16  34  59  85 113 149 190 236 296 358
#     4   9  18  36  67  98 120 150 200 256 306 370
#     4  12  26  39  59  88 120 164 214 256 307 371
#     4   9  18  34  57  77 105 145 193 244 296 345
#     4  11  22  38  61  86 121 161 199 250 312 372
#
# _framework density 18.447375000000001
#
# number of rings (size 3 to 8) (size 9 to 14) (size 15 to 20)
#    0.000    1.857    1.429    3.857    6.000    2.286 
#    0.000    0.714    0.000    0.857    0.000    2.000 
#    0.000    0.000    0.000    0.000    0.000    0.000 
#
# Total GULP energy -156063.795226 kJ/mol
# GULP energy per Si atom -5573.706972 kJ/mol
# Density = 1.840539 g / cm^3
# Si number density = 18.447375 Si / 1000 Ang^3
#
#
#
# Elastic Constant Matrix: (Units=GPa)
#
#
# Indices 1 2 3 4 5 6 
#
# 1 75.1718 21.2119 42.4111 0.0000 0.0000 0.0000
# 2 21.2119 84.9964 43.6833 0.0000 0.0000 0.0000
# 3 42.4111 43.6833 124.6869 0.0000 0.0000 0.0000
# 4 0.0000 0.0000 0.0000 20.4730 0.0000 0.0000
# 5 0.0000 0.0000 0.0000 0.0000 90.1128 0.0000
# 6 0.0000 0.0000 0.0000 0.0000 0.0000 20.9473
#
#
#
# Elastic Compliance Matrix: (Units=1/GPa)
#
#
# Indices 1 2 3 4 5 6 
#
# 1 0.016620 -0.001515 -0.005122 0.000000 0.000000 0.000000
# 2 -0.001515 0.014487 -0.004560 0.000000 0.000000 0.000000
# 3 -0.005122 -0.004560 0.011360 0.000000 0.000000 0.000000
# 4 0.000000 0.000000 0.000000 0.048845 0.000000 0.000000
# 5 0.000000 0.000000 0.000000 0.000000 0.011097 0.000000
# 6 0.000000 0.000000 0.000000 0.000000 0.000000 0.047739
#
#
# Mechanical properties :
#
#
# Convention : Reuss Voigt Hill
#
# Bulk Modulus (GPa) = 49.82050 55.49642 52.65846
# Shear Modulus (GPa) = 27.89643 38.14321 33.01982
#
# Velocity S-wave (km/s) = 3.89294 4.55210 4.23537
# Velocity P-wave (km/s) = 6.87547 7.60117 7.24741
#
# Compressibility (1/GPa) = 0.02007206
#
# Stress axis : x y z
#
# Youngs Moduli (GPa) = 60.16681 69.02768 88.02797
#
# Poissons Ratio (x) = 0.10459 0.45092
# Poissons Ratio (y) = 0.09116 0.40141
# Poissons Ratio (z) = 0.30820 0.31477
#
# Static dielectric constant tensor:
#      x y z
#    x 0.778090 0.000000 0.000000 
#    y 0.000000 1.647240 0.000000 
#    z 0.000000 0.000000 1.665490 
# 
# From -- ./inp_files/8149.got.cif
#   From: 2010.05.17/outbox.cif.g08.bks.cpg/sg42_5_cif.got.tgz:8149.got - 2010.06.03 19:03:34.
