data_PCOD9369616
_publ_section_title
;
Structure prediction by ZEFSAII (Michael W. Deem and Ramdas Pophale) SiO2 
 PCOD9369616
Probable space group: F M M 2
;
_chemical_formula_sum "Si O2"
_cell_formula_units_Z 72
_cell_length_a 22.447677
_cell_length_b 23.196826
_cell_length_c 5.071960
_cell_angle_alpha 90.000000
_cell_angle_beta 90.000000
_cell_angle_gamma 90.000000
_cell_volume 2641.044929
_symmetry_space_group_name_H-M "F M M 2"
_symmetry_group_IT_number 42
_symmetry_cell_setting 'orthorhombic'
loop_
_space_group_symop_operation_xyz
x,y,z
-x,-y,z
-x,y,z
x,-y,z
x,1/2+y,1/2+z
-x,1/2-y,1/2+z
-x,1/2+y,1/2+z
x,1/2-y,1/2+z
1/2+x,y,1/2+z
1/2-x,-y,1/2+z
1/2-x,y,1/2+z
1/2+x,-y,1/2+z
1/2+x,1/2+y,z
1/2-x,1/2-y,z
1/2-x,1/2+y,z
1/2+x,1/2-y,z
loop_
_atom_site_type_symbol
_atom_site_label
_atom_site_fract_x
_atom_site_fract_y
_atom_site_fract_z
Si Si1 0.611228 0.654681 0.848740
Si Si2 0.562086 0.060282 0.998672
Si Si3 0.682960 0.065921 0.691202
Si Si4 0.500000 0.713286 0.119919
Si Si5 0.715611 0.671872 0.503466
O O1 0.568578 0.613523 0.685376
O O2 0.564540 0.684365 0.047690
O O3 0.652009 0.688317 0.631309
O O4 0.662475 0.612501 0.970140
O O5 0.500000 0.063920 0.848470
O O6 0.617487 0.058331 0.812377
O O7 0.563149 0.000000 0.154773
O O8 0.704214 0.000000 0.629978
O O9 0.715094 0.101860 0.930766
O O10 0.500000 0.768418 0.923500
O O11 0.735272 0.691691 0.214836
#
# Coordination Sequence:
#
# PCOD9369616 Si02
#       5
#    16  16  16   8  16
#     4  11  23  43  73  98 147 186 245 290 367 437
#     4   9  18  32  56  95 139 184 231 277 336 417
#     4  10  22  37  61 100 148 199 242 280 337 416
#     4  12  32  50  79 112 141 180 236 316 402 452
#     4  11  23  43  68 104 141 193 238 289 340 410
#
# _framework density 27.261935999999999
#
# number of rings (size 3 to 8) (size 9 to 14) (size 15 to 20)
#    0.000    1.556    3.333    0.667    7.778    1.778 
#    0.000    0.000    0.000    4.000    0.000    0.000 
#    0.000    0.000    0.000    0.000    0.000    0.000 
#
# Total GULP energy -100342.961567 kJ/mol
# GULP energy per Si atom -5574.608976 kJ/mol
# Density = 2.719989 g / cm^3
# Si number density = 27.261936 Si / 1000 Ang^3
#
#
#
# Elastic Constant Matrix: (Units=GPa)
#
#
# Indices 1 2 3 4 5 6 
#
# 1 136.0309 38.4836 16.7475 0.0270 -0.0923 -0.0564
# 2 38.4836 103.7761 22.1073 0.0103 -0.0558 -0.0335
# 3 16.7475 22.1073 103.6886 0.0774 -0.2141 -0.1172
# 4 0.0270 0.0103 0.0774 28.3919 -0.0848 -0.0363
# 5 -0.0923 -0.0558 -0.2141 -0.0848 41.3389 0.0978
# 6 -0.0564 -0.0335 -0.1172 -0.0363 0.0978 43.9032
#
#
#
# Elastic Compliance Matrix: (Units=1/GPa)
#
#
# Indices 1 2 3 4 5 6 
#
# 1 0.008263 -0.002912 -0.000714 -0.000005 0.000011 0.000006
# 2 -0.002912 0.011121 -0.001901 0.000004 -0.000001 0.000000
# 3 -0.000714 -0.001901 0.010165 -0.000026 0.000048 0.000025
# 4 -0.000005 0.000004 -0.000026 0.035222 0.000072 0.000029
# 5 0.000011 -0.000001 0.000048 0.000072 0.024191 -0.000054
# 6 0.000006 0.000000 0.000025 0.000029 -0.000054 0.022778
#
#
# Mechanical properties :
#
#
# Convention : Reuss Voigt Hill
#
# Bulk Modulus (GPa) = 54.06643 55.35249 54.70946
# Shear Modulus (GPa) = 38.77251 40.47062 39.62157
#
# Velocity S-wave (km/s) = 3.77533 3.85711 3.81644
# Velocity P-wave (km/s) = 6.23533 6.33912 6.28744
#
# Compressibility (1/GPa) = 0.01849577
#
# Stress axis : x y z
#
# Youngs Moduli (GPa) = 121.02136 89.92031 98.37738
#
# Poissons Ratio (x) = 0.26186 0.07021
# Poissons Ratio (y) = 0.35243 0.18699
# Poissons Ratio (z) = 0.08637 0.17091
#
# Static dielectric constant tensor:
#      x y z
#    x 2.142770 0.000070 0.000010 
#    y 0.000070 2.415980 -0.000050 
#    z 0.000010 -0.000050 2.172140 
# 
# From -- ./inp_files/1186.got.cif
#   From: 2010.05.17/outbox.cif.g08.bks.cpg/sg42_1_cif.got.tgz:1186.got - 2010.06.03 19:03:34.
