data_PCOD9369915
_publ_section_title
;
Structure prediction by ZEFSAII (Michael W. Deem and Ramdas Pophale) SiO2 
 PCOD9369915
Probable space group: F M M 2
;
_chemical_formula_sum "Si O2"
_cell_formula_units_Z 84
_cell_length_a 12.598064
_cell_length_b 14.825290
_cell_length_c 22.228885
_cell_angle_alpha 90.000000
_cell_angle_beta 90.000000
_cell_angle_gamma 90.000000
_cell_volume 4151.687790
_symmetry_space_group_name_H-M "F M M 2"
_symmetry_group_IT_number 42
_symmetry_cell_setting 'orthorhombic'
loop_
_space_group_symop_operation_xyz
x,y,z
-x,-y,z
-x,y,z
x,-y,z
x,1/2+y,1/2+z
-x,1/2-y,1/2+z
-x,1/2+y,1/2+z
x,1/2-y,1/2+z
1/2+x,y,1/2+z
1/2-x,-y,1/2+z
1/2-x,y,1/2+z
1/2+x,-y,1/2+z
1/2+x,1/2+y,z
1/2-x,1/2-y,z
1/2-x,1/2+y,z
1/2+x,1/2-y,z
loop_
_atom_site_type_symbol
_atom_site_label
_atom_site_fract_x
_atom_site_fract_y
_atom_site_fract_z
Si Si1 0.128786 0.000000 0.147570
Si Si2 0.170589 0.825637 0.948720
Si Si3 0.000000 0.000000 0.502399
Si Si4 0.276059 0.649766 0.702568
Si Si5 0.000000 0.200324 0.509636
Si Si6 0.884295 0.892051 0.818674
Si Si7 0.000000 0.106210 0.639075
Si Si8 0.248883 0.000000 0.520524
O O1 0.181237 0.914751 0.181395
O O2 0.182255 0.000000 0.081372
O O3 0.000000 0.000000 0.145833
O O4 0.250000 0.750000 0.925471
O O5 0.096738 0.765790 0.992381
O O6 0.121091 0.865962 0.888288
O O7 0.220574 0.909438 0.984402
O O8 0.000000 0.896871 0.474286
O O9 0.878329 0.000000 0.528349
O O10 0.250000 0.750000 0.682947
O O11 0.294885 0.644896 0.774263
O O12 0.389305 0.622523 0.673622
O O13 0.000000 0.166512 0.578487
O O14 0.000000 0.861160 0.796290
O O15 0.879256 0.000000 0.813764
O O16 0.000000 0.000000 0.625945
#
# Coordination Sequence:
#
# PCOD9369915 Si02
#       8
#     8  16   4  16   8  16   8   8
#     4  12  30  47  69 109 155 185 233 306 386 439
#     4  12  26  43  70 107 145 196 244 306 376 439
#     4  12  22  50  68  98 146 196 240 288 352 446
#     4  12  27  46  76 106 143 195 248 311 367 438
#     4  12  26  40  71 107 150 186 240 297 368 444
#     4  11  22  45  74 103 138 190 260 310 363 442
#     4  12  24  47  77 110 148 200 252 298 368 455
#     4  12  28  45  72 106 153 194 242 301 373 457
#
# _framework density 20.232735000000002
#
# number of rings (size 3 to 8) (size 9 to 14) (size 15 to 20)
#    0.000    0.190    7.143    1.714    5.333    0.000 
#    0.000    0.000    4.190    0.000    0.000    0.000 
#    0.000    0.000    0.000    0.000    0.000    0.000 
#
# Total GULP energy -117157.209538 kJ/mol
# GULP energy per Si atom -5578.914740 kJ/mol
# Density = 2.018668 g / cm^3
# Si number density = 20.232735 Si / 1000 Ang^3
#
#
#
# Elastic Constant Matrix: (Units=GPa)
#
#
# Indices 1 2 3 4 5 6 
#
# 1 158.9909 64.2010 49.9725 0.0000 0.0000 0.0000
# 2 64.2010 148.5750 30.2322 0.0000 0.0000 0.0000
# 3 49.9725 30.2322 104.6542 0.0000 0.0000 0.0000
# 4 0.0000 0.0000 0.0000 57.2317 0.0000 0.0000
# 5 0.0000 0.0000 0.0000 0.0000 36.8330 0.0000
# 6 0.0000 0.0000 0.0000 0.0000 0.0000 29.3953
#
#
#
# Elastic Compliance Matrix: (Units=1/GPa)
#
#
# Indices 1 2 3 4 5 6 
#
# 1 0.008516 -0.003031 -0.003191 0.000000 0.000000 0.000000
# 2 -0.003031 0.008229 -0.000930 0.000000 0.000000 0.000000
# 3 -0.003191 -0.000930 0.011348 0.000000 0.000000 0.000000
# 4 0.000000 0.000000 0.000000 0.017473 0.000000 0.000000
# 5 0.000000 0.000000 0.000000 0.000000 0.027150 0.000000
# 6 0.000000 0.000000 0.000000 0.000000 0.000000 0.034019
#
#
# Mechanical properties :
#
#
# Convention : Reuss Voigt Hill
#
# Bulk Modulus (GPa) = 72.51772 77.89238 75.20505
# Shear Modulus (GPa) = 39.79761 42.54630 41.17196
#
# Velocity S-wave (km/s) = 4.43989 4.59065 4.51590
# Velocity P-wave (km/s) = 7.88689 8.16582 8.02757
#
# Compressibility (1/GPa) = 0.01378973
#
# Stress axis : x y z
#
# Youngs Moduli (GPa) = 117.41918 121.51421 88.12332
#
# Poissons Ratio (x) = 0.36828 0.28121
# Poissons Ratio (y) = 0.35587 0.08197
# Poissons Ratio (z) = 0.37470 0.11302
#
# Static dielectric constant tensor:
#      x y z
#    x 1.725030 0.000000 0.000000 
#    y 0.000000 1.696790 0.000000 
#    z 0.000000 0.000000 1.740290 
# 
# From -- ./inp_files/28776.got.cif
#   From: 2010.05.17/outbox.cif.g08.bks.cpg/sg42_15_cif.got.tgz:28776.got - 2010.06.03 19:03:34.
