data_PCOD9369142
_publ_section_title
;
Structure prediction by ZEFSAII (Michael W. Deem and Ramdas Pophale) SiO2 
 PCOD9369142
Probable space group: F M M 2
;
_chemical_formula_sum "Si O2"
_cell_formula_units_Z 104
_cell_length_a 19.792134
_cell_length_b 13.588620
_cell_length_c 17.135522
_cell_angle_alpha 90.000000
_cell_angle_beta 90.000000
_cell_angle_gamma 90.000000
_cell_volume 4608.560737
_symmetry_space_group_name_H-M "F M M 2"
_symmetry_group_IT_number 42
_symmetry_cell_setting 'orthorhombic'
loop_
_space_group_symop_operation_xyz
x,y,z
-x,-y,z
-x,y,z
x,-y,z
x,1/2+y,1/2+z
-x,1/2-y,1/2+z
-x,1/2+y,1/2+z
x,1/2-y,1/2+z
1/2+x,y,1/2+z
1/2-x,-y,1/2+z
1/2-x,y,1/2+z
1/2+x,-y,1/2+z
1/2+x,1/2+y,z
1/2-x,1/2-y,z
1/2-x,1/2+y,z
1/2+x,1/2-y,z
loop_
_atom_site_type_symbol
_atom_site_label
_atom_site_fract_x
_atom_site_fract_y
_atom_site_fract_z
Si Si1 0.875128 0.787305 0.939270
Si Si2 0.607311 0.321932 0.168277
Si Si3 0.500000 0.641127 0.043992
Si Si4 0.641771 0.389821 0.639887
Si Si5 0.859804 0.617599 0.838154
Si Si6 0.296221 0.611873 0.810844
Si Si7 0.221324 0.615565 0.560445
O O1 0.883579 0.673318 0.916123
O O2 0.855122 0.833004 0.856209
O O3 0.940329 0.831735 0.980388
O O4 0.811703 0.820665 0.992242
O O5 0.558083 0.379075 0.111010
O O6 0.595189 0.206407 0.146446
O O7 0.602499 0.347766 0.258966
O O8 0.682318 0.349289 0.138420
O O9 0.611802 0.500000 0.632328
O O10 0.683973 0.387811 0.720493
O O11 0.698794 0.375621 0.573858
O O12 0.864772 0.500000 0.844166
O O13 0.780424 0.645284 0.825758
O O14 0.297614 0.500000 0.839590
O O15 0.207290 0.500000 0.547571
#
# Coordination Sequence:
#
# PCOD9369142 Si02
#       7
#    16  16   8  16  16  16  16
#     4  11  23  43  64  95 137 182 219 273 339 384
#     4  11  21  42  66  94 133 179 227 278 329 382
#     4  10  28  46  62  90 134 190 238 276 304 402
#     4  10  20  36  65 103 134 167 217 274 346 411
#     4  11  23  40  70 105 132 168 220 280 349 411
#     4  10  20  37  65 104 136 162 209 277 347 415
#     4  10  21  38  64  99 135 169 213 274 342 412
#
# _framework density 22.566697999999999
#
# number of rings (size 3 to 8) (size 9 to 14) (size 15 to 20)
#    0.000    1.538    3.077    1.846    0.000    5.538 
#    0.000   22.308    0.000    2.769    0.000    0.000 
#    0.000    0.000    0.000    0.000    0.000    0.000 
#
# Total GULP energy -144741.586361 kJ/mol
# GULP energy per Si atom -5566.984091 kJ/mol
# Density = 2.251534 g / cm^3
# Si number density = 22.566698 Si / 1000 Ang^3
#
#
#
# Elastic Constant Matrix: (Units=GPa)
#
#
# Indices 1 2 3 4 5 6 
#
# 1 53.0095 18.0075 22.8670 0.0000 0.0000 0.0000
# 2 18.0075 126.6466 37.8631 0.0000 0.0000 0.0000
# 3 22.8670 37.8631 105.0899 0.0000 0.0000 0.0000
# 4 0.0000 0.0000 0.0000 9.7806 0.0000 0.0000
# 5 0.0000 0.0000 0.0000 0.0000 30.5059 0.0000
# 6 0.0000 0.0000 0.0000 0.0000 0.0000 -16.3752
#
#
#
# Elastic Compliance Matrix: (Units=1/GPa)
#
#
# Indices 1 2 3 4 5 6 
#
# 1 0.021191 -0.001832 -0.003951 0.000000 0.000000 0.000000
# 2 -0.001832 0.009008 -0.002847 0.000000 0.000000 0.000000
# 3 -0.003951 -0.002847 0.011401 0.000000 0.000000 0.000000
# 4 0.000000 0.000000 0.000000 0.102243 0.000000 0.000000
# 5 0.000000 0.000000 0.000000 0.000000 0.032781 0.000000
# 6 0.000000 0.000000 0.000000 0.000000 0.000000 -0.061068
#
#
# Mechanical properties :
#
#
# Convention : Reuss Voigt Hill
#
# Bulk Modulus (GPa) = 41.08394 49.13571 45.10982
# Shear Modulus (GPa) = 35.47909 18.51615 26.99762
#
# Velocity S-wave (km/s) = 3.96938 2.86756 3.46258
# Velocity P-wave (km/s) = 6.26523 5.72579 6.00157
#
# Compressibility (1/GPa) = 0.02434041
#
# Stress axis : x y z
#
# Youngs Moduli (GPa) = 47.18931 111.01811 87.71116
#
# Poissons Ratio (x) = 0.20337 0.34655
# Poissons Ratio (y) = 0.08644 0.24969
# Poissons Ratio (z) = 0.18645 0.31604
#
# Static dielectric constant tensor:
#      x y z
#    x 1.795370 0.000000 0.000000 
#    y 0.000000 2.008030 0.000000 
#    z 0.000000 0.000000 1.846120 
# 
# From -- ./inp_files/21687.got.cif
#   From: 2010.05.17/outbox.cif.g08.bks.cpg/sg42_11_cif.got.tgz:21687.got - 2010.06.03 19:03:34.
