data_PCOD9369157
_publ_section_title
;
Structure prediction by ZEFSAII (Michael W. Deem and Ramdas Pophale) SiO2 
 PCOD9369157
Probable space group: F M M 2
;
_chemical_formula_sum "Si O2"
_cell_formula_units_Z 128
_cell_length_a 17.205538
_cell_length_b 16.961885
_cell_length_c 22.485541
_cell_angle_alpha 90.000000
_cell_angle_beta 90.000000
_cell_angle_gamma 90.000000
_cell_volume 6562.143340
_symmetry_space_group_name_H-M "F M M 2"
_symmetry_group_IT_number 42
_symmetry_cell_setting 'orthorhombic'
loop_
_space_group_symop_operation_xyz
x,y,z
-x,-y,z
-x,y,z
x,-y,z
x,1/2+y,1/2+z
-x,1/2-y,1/2+z
-x,1/2+y,1/2+z
x,1/2-y,1/2+z
1/2+x,y,1/2+z
1/2-x,-y,1/2+z
1/2-x,y,1/2+z
1/2+x,-y,1/2+z
1/2+x,1/2+y,z
1/2-x,1/2-y,z
1/2-x,1/2+y,z
1/2+x,1/2-y,z
loop_
_atom_site_type_symbol
_atom_site_label
_atom_site_fract_x
_atom_site_fract_y
_atom_site_fract_z
Si Si1 0.585882 0.588907 0.896820
Si Si2 0.252281 0.343593 0.246854
Si Si3 0.134697 0.411803 0.080881
Si Si4 0.415263 0.404775 0.708622
Si Si5 0.187992 0.409936 0.625503
Si Si6 0.087036 0.153126 0.018515
Si Si7 0.760458 0.405608 0.872390
Si Si8 0.329333 0.702510 0.475091
O O1 0.500000 0.624215 0.883552
O O2 0.584000 0.500000 0.872140
O O3 0.591998 0.585634 0.968654
O O4 0.669400 0.620917 0.876458
O O5 0.250000 0.250000 0.254949
O O6 0.162929 0.371389 0.237091
O O7 0.302716 0.367254 0.188930
O O8 0.284212 0.387287 0.305091
O O9 0.108074 0.500000 0.065346
O O10 0.088544 0.383050 0.138660
O O11 0.223772 0.416147 0.102588
O O12 0.138469 0.355159 0.025449
O O13 0.500000 0.381611 0.733197
O O14 0.409695 0.500000 0.711136
O O15 0.157933 0.500000 0.631516
O O16 0.141476 0.363089 0.574718
O O17 0.108544 0.227537 0.976841
O O18 0.000000 0.160546 0.040883
O O19 0.765178 0.500000 0.885875
O O20 0.807976 0.350992 0.918343
O O21 0.250000 0.750000 0.491312
#
# Coordination Sequence:
#
# PCOD9369157 Si02
#       8
#    16  16  16  16  16  16  16  16
#     4   9  18  33  55  87 123 153 187 239 304 368
#     4  11  24  38  60  89 127 166 209 260 300 355
#     4   9  18  32  54  83 115 157 195 235 294 361
#     4   9  19  37  61  89 122 159 203 255 309 365
#     4  10  20  37  59  85 120 161 201 240 292 365
#     4  11  23  36  58  89 121 153 191 250 317 369
#     4  11  22  39  62  86 116 165 214 250 296 364
#     4  12  21  34  57  85 122 152 197 250 301 360
#
# _framework density 19.505821999999998
#
# number of rings (size 3 to 8) (size 9 to 14) (size 15 to 20)
#    0.000    1.750    2.500    3.000    3.500    3.750 
#    0.000    1.250    0.000    1.875    0.000    0.000 
#    0.000    0.000    0.000    0.000    0.000    0.000 
#
# Total GULP energy -178316.228683 kJ/mol
# GULP energy per Si atom -5572.382146 kJ/mol
# Density = 1.946143 g / cm^3
# Si number density = 19.505822 Si / 1000 Ang^3
#
#
#
# Elastic Constant Matrix: (Units=GPa)
#
#
# Indices 1 2 3 4 5 6 
#
# 1 69.9534 12.9389 29.2779 0.0000 0.0000 0.0000
# 2 12.9389 85.7737 42.4953 0.0000 0.0000 0.0000
# 3 29.2779 42.4953 93.5892 0.0000 0.0000 0.0000
# 4 0.0000 0.0000 0.0000 24.1424 0.0000 0.0000
# 5 0.0000 0.0000 0.0000 0.0000 14.1332 0.0000
# 6 0.0000 0.0000 0.0000 0.0000 0.0000 14.0349
#
#
#
# Elastic Compliance Matrix: (Units=1/GPa)
#
#
# Indices 1 2 3 4 5 6 
#
# 1 0.016449 0.000088 -0.005186 0.000000 0.000000 0.000000
# 2 0.000088 0.015043 -0.006858 0.000000 0.000000 0.000000
# 3 -0.005186 -0.006858 0.015421 0.000000 0.000000 0.000000
# 4 0.000000 0.000000 0.000000 0.041421 0.000000 0.000000
# 5 0.000000 0.000000 0.000000 0.000000 0.070755 0.000000
# 6 0.000000 0.000000 0.000000 0.000000 0.000000 0.071251
#
#
# Mechanical properties :
#
#
# Convention : Reuss Voigt Hill
#
# Bulk Modulus (GPa) = 43.47480 46.52672 45.00076
# Shear Modulus (GPa) = 19.08980 21.43572 20.26276
#
# Velocity S-wave (km/s) = 3.13177 3.31862 3.22655
# Velocity P-wave (km/s) = 5.95095 6.21199 6.08287
#
# Compressibility (1/GPa) = 0.02300183
#
# Stress axis : x y z
#
# Youngs Moduli (GPa) = 60.79235 66.47614 64.84568
#
# Poissons Ratio (x) = -0.00584 0.33628
# Poissons Ratio (y) = -0.00534 0.44471
# Poissons Ratio (z) = 0.31526 0.45589
#
# Static dielectric constant tensor:
#      x y z
#    x 1.703240 0.000000 0.000000 
#    y 0.000000 1.732760 0.000000 
#    z 0.000000 0.000000 1.704520 
# 
# From -- ./inp_files/30026.got.cif
#   From: 2010.05.17/outbox.cif.g08.bks.cpg/sg42_16_cif.got.tgz:30026.got - 2010.06.03 19:03:34.
