data_PCOD9369820
_publ_section_title
;
Structure prediction by ZEFSAII (Michael W. Deem and Ramdas Pophale) SiO2 
 PCOD9369820
Probable space group: F M M 2
;
_chemical_formula_sum "Si O2"
_cell_formula_units_Z 88
_cell_length_a 27.256569
_cell_length_b 16.958708
_cell_length_c 8.592263
_cell_angle_alpha 90.000000
_cell_angle_beta 90.000000
_cell_angle_gamma 90.000000
_cell_volume 3971.654953
_symmetry_space_group_name_H-M "F M M 2"
_symmetry_group_IT_number 42
_symmetry_cell_setting 'orthorhombic'
loop_
_space_group_symop_operation_xyz
x,y,z
-x,-y,z
-x,y,z
x,-y,z
x,1/2+y,1/2+z
-x,1/2-y,1/2+z
-x,1/2+y,1/2+z
x,1/2-y,1/2+z
1/2+x,y,1/2+z
1/2-x,-y,1/2+z
1/2-x,y,1/2+z
1/2+x,-y,1/2+z
1/2+x,1/2+y,z
1/2-x,1/2-y,z
1/2-x,1/2+y,z
1/2+x,1/2-y,z
loop_
_atom_site_type_symbol
_atom_site_label
_atom_site_fract_x
_atom_site_fract_y
_atom_site_fract_z
Si Si1 0.781961 0.409627 0.114530
Si Si2 0.789985 0.181379 0.298221
Si Si3 0.382079 0.500000 0.135711
Si Si4 0.442750 0.298471 0.620356
Si Si5 0.121714 0.085479 0.811711
Si Si6 0.101733 0.836068 0.284517
O O1 0.782513 0.500000 0.060431
O O2 0.729741 0.389239 0.190077
O O3 0.823956 0.399229 0.244451
O O4 0.790736 0.351217 0.972857
O O5 0.750000 0.250000 0.282666
O O6 0.844937 0.203634 0.256793
O O7 0.391584 0.571072 0.260949
O O8 0.376355 0.431913 0.995057
O O9 0.500000 0.317171 0.610499
O O10 0.416032 0.349452 0.754504
O O11 0.435232 0.207477 0.667924
O O12 0.416392 0.318227 0.458660
O O13 0.106285 0.000000 0.741850
#
# Coordination Sequence:
#
# PCOD9369820 Si02
#       6
#    16  16   8  16  16  16
#     4  11  24  42  69 101 145 192 239 284 356 434
#     4  12  27  41  67 105 147 189 240 292 356 433
#     4  10  26  46  77 104 146 196 240 304 375 436
#     4  12  26  50  77 106 144 195 249 311 381 446
#     4   9  22  47  72 105 146 189 243 300 367 433
#     4  12  28  47  75 108 150 195 248 309 371 446
#
# _framework density 22.157011000000001
#
# number of rings (size 3 to 8) (size 9 to 14) (size 15 to 20)
#    0.545    0.364    1.818    3.818    8.909    0.364 
#    0.000    4.091    0.000    0.000    0.000    0.000 
#    0.000    0.000    0.000    0.000    0.000    0.000 
#
# Total GULP energy -122572.723985 kJ/mol
# GULP energy per Si atom -5571.487454 kJ/mol
# Density = 2.210658 g / cm^3
# Si number density = 22.157011 Si / 1000 Ang^3
#
#
#
# Elastic Constant Matrix: (Units=GPa)
#
#
# Indices 1 2 3 4 5 6 
#
# 1 114.4866 21.2980 3.3550 0.0000 0.0000 0.0000
# 2 21.2980 109.9660 18.5326 0.0000 0.0000 0.0000
# 3 3.3550 18.5326 81.2089 0.0000 0.0000 0.0000
# 4 0.0000 0.0000 0.0000 41.6256 0.0000 0.0000
# 5 0.0000 0.0000 0.0000 0.0000 16.0724 0.0000
# 6 0.0000 0.0000 0.0000 0.0000 0.0000 15.5140
#
#
#
# Elastic Compliance Matrix: (Units=1/GPa)
#
#
# Indices 1 2 3 4 5 6 
#
# 1 0.009061 -0.001760 0.000027 0.000000 0.000000 0.000000
# 2 -0.001760 0.009799 -0.002164 0.000000 0.000000 0.000000
# 3 0.000027 -0.002164 0.012807 0.000000 0.000000 0.000000
# 4 0.000000 0.000000 0.000000 0.024024 0.000000 0.000000
# 5 0.000000 0.000000 0.000000 0.000000 0.062219 0.000000
# 6 0.000000 0.000000 0.000000 0.000000 0.000000 0.064458
#
#
# Mechanical properties :
#
#
# Convention : Reuss Voigt Hill
#
# Bulk Modulus (GPa) = 41.88472 43.55919 42.72196
# Shear Modulus (GPa) = 25.23760 32.14081 28.68920
#
# Velocity S-wave (km/s) = 3.37862 3.81280 3.60226
# Velocity P-wave (km/s) = 5.84506 6.25182 6.05186
#
# Compressibility (1/GPa) = 0.02387505
#
# Stress axis : x y z
#
# Youngs Moduli (GPa) = 110.36099 102.04996 78.08514
#
# Poissons Ratio (x) = 0.17956 -0.00212
# Poissons Ratio (y) = 0.19418 0.16894
# Poissons Ratio (z) = -0.00300 0.22079
#
# Static dielectric constant tensor:
#      x y z
#    x 1.812380 0.000000 0.000000 
#    y 0.000000 1.875160 0.000000 
#    z 0.000000 0.000000 1.790840 
# 
# From -- ./inp_files/5544.got.cif
#   From: 2010.05.17/outbox.cif.g08.bks.cpg/sg42_3_cif.got.tgz:5544.got - 2010.06.03 19:03:34.
