data_PCOD9369183
_publ_section_title
;
Structure prediction by ZEFSAII (Michael W. Deem and Ramdas Pophale) SiO2 
 PCOD9369183
Probable space group: F M M 2
;
_chemical_formula_sum "Si O2"
_cell_formula_units_Z 100
_cell_length_a 30.265024
_cell_length_b 8.055911
_cell_length_c 20.012789
_cell_angle_alpha 90.000000
_cell_angle_beta 90.000000
_cell_angle_gamma 90.000000
_cell_volume 4879.364911
_symmetry_space_group_name_H-M "F M M 2"
_symmetry_group_IT_number 42
_symmetry_cell_setting 'orthorhombic'
loop_
_space_group_symop_operation_xyz
x,y,z
-x,-y,z
-x,y,z
x,-y,z
x,1/2+y,1/2+z
-x,1/2-y,1/2+z
-x,1/2+y,1/2+z
x,1/2-y,1/2+z
1/2+x,y,1/2+z
1/2-x,-y,1/2+z
1/2-x,y,1/2+z
1/2+x,-y,1/2+z
1/2+x,1/2+y,z
1/2-x,1/2-y,z
1/2-x,1/2+y,z
1/2+x,1/2-y,z
loop_
_atom_site_type_symbol
_atom_site_label
_atom_site_fract_x
_atom_site_fract_y
_atom_site_fract_z
Si Si1 0.548992 0.302967 0.679250
Si Si2 0.298146 0.199087 0.728095
Si Si3 0.000000 0.500000 0.869342
Si Si4 0.634734 0.806399 0.617933
Si Si5 0.700440 0.811739 0.010246
Si Si6 0.829662 0.307905 0.371371
Si Si7 0.432090 0.798744 0.334260
O O1 0.500000 0.229859 0.668815
O O2 0.545158 0.500000 0.678629
O O3 0.585375 0.259805 0.624386
O O4 0.564855 0.261072 0.754450
O O5 0.250000 0.250000 0.703122
O O6 0.335393 0.265880 0.677881
O O7 0.306162 0.268478 0.801692
O O8 0.300486 0.000000 0.730801
O O9 0.038073 0.347396 0.866247
O O10 0.662223 0.781873 0.550713
O O11 0.630792 0.000000 0.630810
O O12 0.750000 0.750000 0.023135
O O13 0.689811 0.796571 0.931998
O O14 0.697839 0.000000 0.032824
O O15 0.822112 0.500000 0.388852
O O16 0.881926 0.282486 0.359686
O O17 0.444196 0.000000 0.342521
#
# Coordination Sequence:
#
# PCOD9369183 Si02
#       7
#    16  16   4  16  16  16  16
#     4  10  20  37  61  92 131 169 213 263 323 382
#     4  11  23  37  59  92 127 162 208 261 322 389
#     4  12  22  32  68  90 140 168 226 260 334 390
#     4  11  24  40  64  94 127 165 215 266 320 385
#     4  12  26  45  68  91 126 170 219 264 325 397
#     4  11  23  41  65  91 130 168 211 266 325 384
#     4  10  22  37  60  97 132 172 217 272 325 391
#
# _framework density 20.494471000000001
#
# number of rings (size 3 to 8) (size 9 to 14) (size 15 to 20)
#    0.000    1.120    2.400    4.080    3.360    3.520 
#    0.000    0.000    1.760    0.000    0.000    0.000 
#    0.000    0.000    0.000    0.000    0.000    0.000 
#
# Total GULP energy -139346.143517 kJ/mol
# GULP energy per Si atom -5573.845741 kJ/mol
# Density = 2.044782 g / cm^3
# Si number density = 20.494471 Si / 1000 Ang^3
#
#
#
# Elastic Constant Matrix: (Units=GPa)
#
#
# Indices 1 2 3 4 5 6 
#
# 1 105.5061 20.0440 8.6114 0.0000 0.0000 0.0000
# 2 20.0440 66.6205 -15.6405 0.0000 0.0000 0.0000
# 3 8.6114 -15.6405 53.0000 0.0000 0.0000 0.0000
# 4 0.0000 0.0000 0.0000 0.8840 0.0000 0.0000
# 5 0.0000 0.0000 0.0000 0.0000 19.8658 0.0000
# 6 0.0000 0.0000 0.0000 0.0000 0.0000 43.4430
#
#
#
# Elastic Compliance Matrix: (Units=1/GPa)
#
#
# Indices 1 2 3 4 5 6 
#
# 1 0.010430 -0.003799 -0.002816 0.000000 0.000000 0.000000
# 2 -0.003799 0.017512 0.005785 0.000000 0.000000 0.000000
# 3 -0.002816 0.005785 0.021033 0.000000 0.000000 0.000000
# 4 0.000000 0.000000 0.000000 1.131168 0.000000 0.000000
# 5 0.000000 0.000000 0.000000 0.000000 0.050338 0.000000
# 6 0.000000 0.000000 0.000000 0.000000 0.000000 0.023019
#
#
# Mechanical properties :
#
#
# Convention : Reuss Voigt Hill
#
# Bulk Modulus (GPa) = 21.13528 27.90628 24.52078
# Shear Modulus (GPa) = 3.93413 26.97934 15.45674
#
# Velocity S-wave (km/s) = 1.38700 3.63219 2.74923
# Velocity P-wave (km/s) = 3.59167 5.58896 4.69769
#
# Compressibility (1/GPa) = 0.04731426
#
# Stress axis : x y z
#
# Youngs Moduli (GPa) = 95.88023 57.10525 47.54534
#
# Poissons Ratio (x) = 0.21694 0.13387
# Poissons Ratio (y) = 0.36425 -0.27505
# Poissons Ratio (z) = 0.26997 -0.33035
#
# Static dielectric constant tensor:
#      x y z
#    x 1.697800 0.000000 0.000000 
#    y 0.000000 1.736370 0.000000 
#    z 0.000000 0.000000 1.702870 
# 
# From -- ./inp_files/27321.got.cif
#   From: 2010.05.17/outbox.cif.g08.bks.cpg/sg42_14_cif.got.tgz:27321.got - 2010.06.03 19:03:34.
