data_PCOD9369490
_publ_section_title
;
Structure prediction by ZEFSAII (Michael W. Deem and Ramdas Pophale) SiO2 
 PCOD9369490
Probable space group: F M M 2
;
_chemical_formula_sum "Si O2"
_cell_formula_units_Z 116
_cell_length_a 29.646594
_cell_length_b 9.193105
_cell_length_c 23.931640
_cell_angle_alpha 90.000000
_cell_angle_beta 90.000000
_cell_angle_gamma 90.000000
_cell_volume 6522.430912
_symmetry_space_group_name_H-M "F M M 2"
_symmetry_group_IT_number 42
_symmetry_cell_setting 'orthorhombic'
loop_
_space_group_symop_operation_xyz
x,y,z
-x,-y,z
-x,y,z
x,-y,z
x,1/2+y,1/2+z
-x,1/2-y,1/2+z
-x,1/2+y,1/2+z
x,1/2-y,1/2+z
1/2+x,y,1/2+z
1/2-x,-y,1/2+z
1/2-x,y,1/2+z
1/2+x,-y,1/2+z
1/2+x,1/2+y,z
1/2-x,1/2-y,z
1/2-x,1/2+y,z
1/2+x,1/2-y,z
loop_
_atom_site_type_symbol
_atom_site_label
_atom_site_fract_x
_atom_site_fract_y
_atom_site_fract_z
Si Si1 0.126011 0.670816 0.214490
Si Si2 0.594781 0.159982 0.820688
Si Si3 0.701653 0.172976 0.513043
Si Si4 0.947362 0.163886 0.149768
Si Si5 0.375964 0.828477 0.946620
Si Si6 0.298561 0.173601 0.641811
Si Si7 0.500000 0.000000 0.814775
Si Si8 0.947334 0.335958 0.515942
O O1 0.134662 0.500000 0.213670
O O2 0.113800 0.728806 0.275795
O O3 0.082485 0.715116 0.178002
O O4 0.167008 0.756510 0.185413
O O5 0.608753 0.202622 0.883306
O O6 0.541064 0.125195 0.816036
O O7 0.615934 0.000000 0.809246
O O8 0.750000 0.250000 0.507498
O O9 0.666603 0.239609 0.469409
O O10 0.685594 0.198505 0.577366
O O11 0.706109 0.000000 0.505882
O O12 0.943753 0.172261 0.082947
O O13 0.000000 0.174948 0.164936
O O14 0.932367 0.000000 0.167276
O O15 0.366970 0.000000 0.951189
O O16 0.417333 0.782191 0.985978
O O17 0.250000 0.250000 0.646993
O O18 0.294877 0.000000 0.649474
O O19 0.932607 0.500000 0.499769
O O20 0.000000 0.320230 0.501752
#
# Coordination Sequence:
#
# PCOD9369490 Si02
#       8
#    16  16  16  16  16  16   4  16
#     4  12  24  36  55  85 117 146 191 246 294 348
#     4   9  22  40  61  79 108 154 202 239 290 344
#     4  10  21  38  62  90 121 155 194 236 289 350
#     4   9  19  35  54  75 107 150 189 227 283 350
#     4  11  22  35  58  84 114 148 191 241 291 345
#     4  10  21  39  63  89 119 157 194 235 289 351
#     4   8  20  44  66  76 108 156 214 248 284 346
#     4   9  19  34  52  78 110 147 187 229 283 347
#
# _framework density 17.784780000000001
#
# number of rings (size 3 to 8) (size 9 to 14) (size 15 to 20)
#    0.414    1.655    0.000    4.138    1.931    7.172 
#    0.000    2.069    0.000    3.310    0.000    0.000 
#    0.000    0.000    0.000    0.000    0.000    0.000 
#
# Total GULP energy -161542.195464 kJ/mol
# GULP energy per Si atom -5570.420533 kJ/mol
# Density = 1.774430 g / cm^3
# Si number density = 17.784780 Si / 1000 Ang^3
#
#
#
# Elastic Constant Matrix: (Units=GPa)
#
#
# Indices 1 2 3 4 5 6 
#
# 1 66.7862 47.7272 47.1349 0.0000 0.0000 0.0000
# 2 47.7272 99.2431 52.6378 0.0000 0.0000 0.0000
# 3 47.1349 52.6378 66.3398 0.0000 0.0000 0.0000
# 4 0.0000 0.0000 0.0000 17.9752 0.0000 0.0000
# 5 0.0000 0.0000 0.0000 0.0000 37.7448 0.0000
# 6 0.0000 0.0000 0.0000 0.0000 0.0000 36.5395
#
#
#
# Elastic Compliance Matrix: (Units=1/GPa)
#
#
# Indices 1 2 3 4 5 6 
#
# 1 0.031806 -0.005715 -0.018064 0.000000 0.000000 0.000000
# 2 -0.005715 0.018425 -0.010559 0.000000 0.000000 0.000000
# 3 -0.018064 -0.010559 0.036286 0.000000 0.000000 0.000000
# 4 0.000000 0.000000 0.000000 0.055632 0.000000 0.000000
# 5 0.000000 0.000000 0.000000 0.000000 0.026494 0.000000
# 6 0.000000 0.000000 0.000000 0.000000 0.000000 0.027368
#
#
# Mechanical properties :
#
#
# Convention : Reuss Voigt Hill
#
# Bulk Modulus (GPa) = 56.04750 58.59655 57.32203
# Shear Modulus (GPa) = 18.47518 24.10984 21.29251
#
# Velocity S-wave (km/s) = 3.22657 3.68590 3.46386
# Velocity P-wave (km/s) = 6.74268 7.15078 6.94972
#
# Compressibility (1/GPa) = 0.01784201
#
# Stress axis : x y z
#
# Youngs Moduli (GPa) = 31.44082 54.27393 27.55857
#
# Poissons Ratio (x) = 0.31017 0.49781
# Poissons Ratio (y) = 0.17968 0.29099
# Poissons Ratio (z) = 0.56794 0.57308
#
# Static dielectric constant tensor:
#      x y z
#    x 1.598920 0.000000 0.000000 
#    y 0.000000 1.598310 0.000000 
#    z 0.000000 0.000000 1.622600 
# 
# From -- ./inp_files/30716.got.cif
#   From: 2010.05.17/outbox.cif.g08.bks.cpg/sg42_16_cif.got.tgz:30716.got - 2010.06.03 19:03:34.
