data_PCOD9369895
_publ_section_title
;
Structure prediction by ZEFSAII (Michael W. Deem and Ramdas Pophale) SiO2 
 PCOD9369895
Probable space group: F M M 2
;
_chemical_formula_sum "Si O2"
_cell_formula_units_Z 80
_cell_length_a 8.810043
_cell_length_b 15.836246
_cell_length_c 29.470955
_cell_angle_alpha 90.000000
_cell_angle_beta 90.000000
_cell_angle_gamma 90.000000
_cell_volume 4111.728942
_symmetry_space_group_name_H-M "F M M 2"
_symmetry_group_IT_number 42
_symmetry_cell_setting 'orthorhombic'
loop_
_space_group_symop_operation_xyz
x,y,z
-x,-y,z
-x,y,z
x,-y,z
x,1/2+y,1/2+z
-x,1/2-y,1/2+z
-x,1/2+y,1/2+z
x,1/2-y,1/2+z
1/2+x,y,1/2+z
1/2-x,-y,1/2+z
1/2-x,y,1/2+z
1/2+x,-y,1/2+z
1/2+x,1/2+y,z
1/2-x,1/2-y,z
1/2-x,1/2+y,z
1/2+x,1/2-y,z
loop_
_atom_site_type_symbol
_atom_site_label
_atom_site_fract_x
_atom_site_fract_y
_atom_site_fract_z
Si Si1 0.679743 0.101901 0.756100
Si Si2 0.319910 0.160754 0.164448
Si Si3 0.815420 0.500000 0.507405
Si Si4 0.319008 0.662212 0.950641
Si Si5 0.319527 0.398909 0.358723
Si Si6 0.817237 0.500000 0.612856
O O1 0.500000 0.119833 0.749718
O O2 0.775174 0.145522 0.716997
O O3 0.723235 0.126305 0.807442
O O4 0.696772 0.000000 0.752430
O O5 0.500000 0.161120 0.159131
O O6 0.250000 0.250000 0.149705
O O7 0.247429 0.082993 0.137151
O O8 0.764044 0.583313 0.480718
O O9 0.772798 0.500000 0.559966
O O10 0.000000 0.500000 0.505811
O O11 0.500000 0.665921 0.952915
O O12 0.250000 0.750000 0.966794
O O13 0.268734 0.645945 0.898891
O O14 0.500000 0.384177 0.363892
O O15 0.294785 0.500000 0.362441
O O16 0.000000 0.500000 0.616652
#
# Coordination Sequence:
#
# PCOD9369895 Si02
#       6
#    16  16   8  16  16   8
#     4   9  18  35  60  88 123 164 203 248 301 355
#     4  12  25  41  63  94 126 162 207 251 303 367
#     4   9  22  43  66  89 118 155 196 247 310 365
#     4  11  22  39  61  90 123 159 201 247 299 358
#     4   9  18  34  58  89 122 161 205 246 294 353
#     4  11  23  45  70  91 122 157 196 257 318 369
#
# _framework density 19.456536
#
# number of rings (size 3 to 8) (size 9 to 14) (size 15 to 20)
#    0.000    1.800    2.000    3.900    0.000    2.400 
#    0.000    8.000    0.000    0.000    0.000    0.000 
#    0.000    0.000    0.000    0.000    0.000    0.000 
#
# Total GULP energy -111789.371267 kJ/mol
# GULP energy per Si atom -5589.468563 kJ/mol
# Density = 1.941225 g / cm^3
# Si number density = 19.456536 Si / 1000 Ang^3
#
#
#
# Elastic Constant Matrix: (Units=GPa)
#
#
# Indices 1 2 3 4 5 6 
#
# 1 80.8390 62.6907 50.4085 0.0000 0.0000 0.0000
# 2 62.6907 155.3571 79.7910 0.0000 0.0000 0.0000
# 3 50.4085 79.7910 120.4148 0.0000 0.0000 0.0000
# 4 0.0000 0.0000 0.0000 -4.7109 0.0000 0.0000
# 5 0.0000 0.0000 0.0000 0.0000 20.4149 0.0000
# 6 0.0000 0.0000 0.0000 0.0000 0.0000 28.8309
#
#
#
# Elastic Compliance Matrix: (Units=1/GPa)
#
#
# Indices 1 2 3 4 5 6 
#
# 1 0.019468 -0.005564 -0.004463 0.000000 0.000000 0.000000
# 2 -0.005564 0.011348 -0.005190 0.000000 0.000000 0.000000
# 3 -0.004463 -0.005190 0.013612 0.000000 0.000000 0.000000
# 4 0.000000 0.000000 0.000000 -0.212275 0.000000 0.000000
# 5 0.000000 0.000000 0.000000 0.000000 0.048984 0.000000
# 6 0.000000 0.000000 0.000000 0.000000 0.000000 0.034685
#
#
# Mechanical properties :
#
#
# Convention : Reuss Voigt Hill
#
# Bulk Modulus (GPa) = 71.46012 82.48792 76.97402
# Shear Modulus (GPa) = -101.87475 19.82170 -41.02652
#
# Velocity S-wave (km/s) = -7.24388 3.19528 -4.59696
# Velocity P-wave (km/s) = 5.75824 7.49007 3.38702
#
# Compressibility (1/GPa) = 0.01399382
#
# Stress axis : x y z
#
# Youngs Moduli (GPa) = 51.36678 88.12512 73.46346
#
# Poissons Ratio (x) = 0.49029 0.32787
# Poissons Ratio (y) = 0.28578 0.38129
# Poissons Ratio (z) = 0.22926 0.45739
#
# Static dielectric constant tensor:
#      x y z
#    x 1.648520 0.000000 0.000000 
#    y 0.000000 1.683690 0.000000 
#    z 0.000000 0.000000 1.665150 
# 
# From -- ./inp_files/31351.got.cif
#   From: 2010.05.17/outbox.cif.g08.bks.cpg/sg42_16_cif.got.tgz:31351.got - 2010.06.03 19:03:34.
