data_PCOD9369751
_publ_section_title
;
Structure prediction by ZEFSAII (Michael W. Deem and Ramdas Pophale) SiO2 
 PCOD9369751
Probable space group: F M M 2
;
_chemical_formula_sum "Si O2"
_cell_formula_units_Z 96
_cell_length_a 25.725947
_cell_length_b 24.164199
_cell_length_c 7.766422
_cell_angle_alpha 90.000000
_cell_angle_beta 90.000000
_cell_angle_gamma 90.000000
_cell_volume 4827.972182
_symmetry_space_group_name_H-M "F M M 2"
_symmetry_group_IT_number 42
_symmetry_cell_setting 'orthorhombic'
loop_
_space_group_symop_operation_xyz
x,y,z
-x,-y,z
-x,y,z
x,-y,z
x,1/2+y,1/2+z
-x,1/2-y,1/2+z
-x,1/2+y,1/2+z
x,1/2-y,1/2+z
1/2+x,y,1/2+z
1/2-x,-y,1/2+z
1/2-x,y,1/2+z
1/2+x,-y,1/2+z
1/2+x,1/2+y,z
1/2-x,1/2-y,z
1/2-x,1/2+y,z
1/2+x,1/2-y,z
loop_
_atom_site_type_symbol
_atom_site_label
_atom_site_fract_x
_atom_site_fract_y
_atom_site_fract_z
Si Si1 0.118825 0.565952 0.101420
Si Si2 0.938812 0.824586 0.659995
Si Si3 0.699268 0.781022 0.749359
Si Si4 0.119772 0.224226 0.975479
Si Si5 0.310104 0.937395 0.428700
Si Si6 0.700203 0.599067 0.312000
O O1 0.105598 0.500000 0.105135
O O2 0.074080 0.612349 0.107415
O O3 0.153184 0.579983 0.271370
O O4 0.154314 0.578504 0.934927
O O5 0.909072 0.780598 0.536094
O O6 0.000000 0.814218 0.652862
O O7 0.917174 0.811140 0.852432
O O8 0.750000 0.750000 0.672941
O O9 0.646873 0.799300 0.645465
O O10 0.714907 0.836954 0.845934
O O11 0.672531 0.736706 0.872198
O O12 0.311407 0.906774 0.610038
O O13 0.251713 0.934876 0.357231
O O14 0.324810 0.000000 0.470057
#
# Coordination Sequence:
#
# PCOD9369751 Si02
#       6
#    16  16  16  16  16  16
#     4  11  24  42  64  94 127 167 216 270 326 386
#     4  11  23  44  67  90 119 164 219 277 329 381
#     4  11  24  35  58  92 131 167 197 252 319 389
#     4  10  23  40  61  93 125 162 212 256 323 388
#     4  11  23  36  58  87 124 170 209 246 303 386
#     4  12  23  37  59  88 129 172 209 248 312 387
#
# _framework density 19.884122999999999
#
# number of rings (size 3 to 8) (size 9 to 14) (size 15 to 20)
#    0.000    1.000    3.333    3.500    9.333    0.333 
#    0.000    0.000    0.000    0.000    0.000    2.333 
#    0.000    0.000    0.000    0.000    0.000    0.000 
#
# Total GULP energy -133790.084785 kJ/mol
# GULP energy per Si atom -5574.586866 kJ/mol
# Density = 1.983887 g / cm^3
# Si number density = 19.884123 Si / 1000 Ang^3
#
#
#
# Elastic Constant Matrix: (Units=GPa)
#
#
# Indices 1 2 3 4 5 6 
#
# 1 100.9162 34.5312 14.7698 -0.0001 0.0019 0.0011
# 2 34.5312 95.7304 15.7190 0.0044 0.0008 0.0008
# 3 14.7698 15.7190 42.3435 0.0230 0.0058 0.0052
# 4 -0.0001 0.0044 0.0230 -82.6744 0.0015 0.0017
# 5 0.0019 0.0008 0.0058 0.0015 17.1351 -0.0011
# 6 0.0011 0.0008 0.0052 0.0017 -0.0011 18.7148
#
#
#
# Elastic Compliance Matrix: (Units=1/GPa)
#
#
# Indices 1 2 3 4 5 6 
#
# 1 0.011577 -0.003741 -0.002649 -0.000001 0.000000 0.000000
# 2 -0.003741 0.012333 -0.003273 0.000000 0.000001 0.000001
# 3 -0.002649 -0.003273 0.025756 0.000007 -0.000008 -0.000007
# 4 -0.000001 0.000000 0.000007 -0.012096 0.000001 0.000001
# 5 0.000000 0.000001 -0.000008 0.000001 0.058360 0.000003
# 6 0.000000 0.000001 -0.000007 0.000001 0.000003 0.053434
#
#
# Mechanical properties :
#
#
# Convention : Reuss Voigt Hill
#
# Bulk Modulus (GPa) = 32.96194 41.00334 36.98264
# Shear Modulus (GPa) = 27.96362 2.23310 15.09836
#
# Velocity S-wave (km/s) = 3.75417 1.06089 2.75856
# Velocity P-wave (km/s) = 5.95019 4.70814 5.36523
#
# Compressibility (1/GPa) = 0.03033802
#
# Stress axis : x y z
#
# Youngs Moduli (GPa) = 86.37785 81.08383 38.82637
#
# Poissons Ratio (x) = 0.30333 0.10287
# Poissons Ratio (y) = 0.32313 0.12710
# Poissons Ratio (z) = 0.22885 0.26542
#
# Static dielectric constant tensor:
#      x y z
#    x 1.650490 0.000000 0.000000 
#    y 0.000000 1.728410 0.000000 
#    z 0.000000 0.000000 1.859830 
# 
# From -- ./inp_files/4720.got.cif
#   From: 2010.05.17/outbox.cif.g08.bks.cpg/sg42_3_cif.got.tgz:4720.got - 2010.06.03 19:03:34.
