data_PCOD9369074
_publ_section_title
;
Structure prediction by ZEFSAII (Michael W. Deem and Ramdas Pophale) SiO2 
 PCOD9369074
Probable space group: F M M 2
;
_chemical_formula_sum "Si O2"
_cell_formula_units_Z 116
_cell_length_a 21.893151
_cell_length_b 26.854914
_cell_length_c 9.730639
_cell_angle_alpha 90.000000
_cell_angle_beta 90.000000
_cell_angle_gamma 90.000000
_cell_volume 5721.019120
_symmetry_space_group_name_H-M "F M M 2"
_symmetry_group_IT_number 42
_symmetry_cell_setting 'orthorhombic'
loop_
_space_group_symop_operation_xyz
x,y,z
-x,-y,z
-x,y,z
x,-y,z
x,1/2+y,1/2+z
-x,1/2-y,1/2+z
-x,1/2+y,1/2+z
x,1/2-y,1/2+z
1/2+x,y,1/2+z
1/2-x,-y,1/2+z
1/2-x,y,1/2+z
1/2+x,-y,1/2+z
1/2+x,1/2+y,z
1/2-x,1/2-y,z
1/2-x,1/2+y,z
1/2+x,1/2-y,z
loop_
_atom_site_type_symbol
_atom_site_label
_atom_site_fract_x
_atom_site_fract_y
_atom_site_fract_z
Si Si1 0.688802 0.661844 0.824140
Si Si2 0.930600 0.779609 0.529980
Si Si3 0.623665 0.444502 0.211119
Si Si4 0.716313 0.637860 0.122445
Si Si5 0.068812 0.874140 0.733368
Si Si6 0.354242 0.728591 0.255963
Si Si7 0.929823 0.059729 0.490938
Si Si8 0.500000 0.000000 0.641759
O O1 0.720014 0.631053 0.701266
O O2 0.619889 0.641140 0.841112
O O3 0.681554 0.719667 0.783396
O O4 0.724156 0.653887 0.965311
O O5 0.930720 0.830175 0.619111
O O6 0.901465 0.739496 0.632638
O O7 0.889965 0.783867 0.394991
O O8 0.000000 0.767058 0.492202
O O9 0.652229 0.500000 0.221739
O O10 0.669219 0.407798 0.133955
O O11 0.611928 0.423296 0.365003
O O12 0.555682 0.457104 0.151545
O O13 0.687696 0.684206 0.205341
O O14 0.085328 0.922361 0.643315
O O15 0.000000 0.878728 0.788247
O O16 0.000000 0.076448 0.466381
O O17 0.930286 0.000000 0.481803
#
# Coordination Sequence:
#
# PCOD9369074 Si02
#       8
#    16  16  16  16  16  16  16   4
#     4  11  27  44  62  94 131 175 229 275 326 405
#     4  10  20  36  57  89 127 163 211 270 331 383
#     4   9  18  38  64 100 132 165 220 276 328 396
#     4  12  26  43  66  93 130 180 232 273 341 397
#     4   9  20  38  60  86 128 166 207 271 332 388
#     4  11  22  41  62  91 128 174 224 276 321 399
#     4   9  14  29  59  94 124 156 204 255 316 388
#     4   8  16  40  68 100 142 164 214 300 322 408
#
# _framework density 20.276107
#
# number of rings (size 3 to 8) (size 9 to 14) (size 15 to 20)
#    0.414    1.517    2.069    1.655    5.793    1.655 
#    3.724    2.069    0.000    0.000    0.000    0.000 
#    0.000    0.000    0.000    0.000    0.000    0.000 
#
# Total GULP energy -161491.532762 kJ/mol
# GULP energy per Si atom -5568.673544 kJ/mol
# Density = 2.022996 g / cm^3
# Si number density = 20.276107 Si / 1000 Ang^3
#
#
#
# Elastic Constant Matrix: (Units=GPa)
#
#
# Indices 1 2 3 4 5 6 
#
# 1 71.1614 18.4291 17.9843 0.0000 0.0000 0.0000
# 2 18.4291 47.1560 -1.2093 0.0000 0.0000 0.0000
# 3 17.9843 -1.2093 64.5608 0.0001 -0.0003 0.0000
# 4 0.0000 0.0000 0.0001 15.0737 -0.0001 0.0000
# 5 0.0000 0.0000 -0.0003 -0.0001 21.3308 0.0000
# 6 0.0000 0.0000 0.0000 0.0000 0.0000 21.9390
#
#
#
# Elastic Compliance Matrix: (Units=1/GPa)
#
#
# Indices 1 2 3 4 5 6 
#
# 1 0.017042 -0.006785 -0.004874 0.000000 0.000000 0.000000
# 2 -0.006785 0.023918 0.002338 0.000000 0.000000 0.000000
# 3 -0.004874 0.002338 0.016891 0.000000 0.000000 0.000000
# 4 0.000000 0.000000 0.000000 0.066341 0.000000 0.000000
# 5 0.000000 0.000000 0.000000 0.000000 0.046881 0.000000
# 6 0.000000 0.000000 0.000000 0.000000 0.000000 0.045581
#
#
# Mechanical properties :
#
#
# Convention : Reuss Voigt Hill
#
# Bulk Modulus (GPa) = 25.50512 28.14295 26.82404
# Shear Modulus (GPa) = 20.13173 21.51364 20.82269
#
# Velocity S-wave (km/s) = 3.15442 3.26089 3.20809
# Velocity P-wave (km/s) = 5.08658 5.29979 5.19428
#
# Compressibility (1/GPa) = 0.03920781
#
# Stress axis : x y z
#
# Youngs Moduli (GPa) = 58.68004 41.80982 59.20362
#
# Poissons Ratio (x) = 0.28368 0.28857
# Poissons Ratio (y) = 0.39815 -0.13842
# Poissons Ratio (z) = 0.28602 -0.09775
#
# Static dielectric constant tensor:
#      x y z
#    x 1.784580 0.000000 0.000000 
#    y 0.000000 1.738700 0.000000 
#    z 0.000000 0.000000 1.725060 
# 
# From -- ./inp_files/4884.got.cif
#   From: 2010.05.17/outbox.cif.g08.bks.cpg/sg42_3_cif.got.tgz:4884.got - 2010.06.03 19:03:34.
