data_PCOD9369291
_publ_section_title
;
Structure prediction by ZEFSAII (Michael W. Deem and Ramdas Pophale) SiO2 
 PCOD9369291
Probable space group: F M M 2
;
_chemical_formula_sum "Si O2"
_cell_formula_units_Z 72
_cell_length_a 9.827674
_cell_length_b 26.144747
_cell_length_c 13.952513
_cell_angle_alpha 90.000000
_cell_angle_beta 90.000000
_cell_angle_gamma 90.000000
_cell_volume 3584.987297
_symmetry_space_group_name_H-M "F M M 2"
_symmetry_group_IT_number 42
_symmetry_cell_setting 'orthorhombic'
loop_
_space_group_symop_operation_xyz
x,y,z
-x,-y,z
-x,y,z
x,-y,z
x,1/2+y,1/2+z
-x,1/2-y,1/2+z
-x,1/2+y,1/2+z
x,1/2-y,1/2+z
1/2+x,y,1/2+z
1/2-x,-y,1/2+z
1/2-x,y,1/2+z
1/2+x,-y,1/2+z
1/2+x,1/2+y,z
1/2-x,1/2-y,z
1/2-x,1/2+y,z
1/2+x,1/2-y,z
loop_
_atom_site_type_symbol
_atom_site_label
_atom_site_fract_x
_atom_site_fract_y
_atom_site_fract_z
Si Si1 0.500000 0.379590 0.525400
Si Si2 0.000000 0.165637 0.938198
Si Si3 0.654175 0.000000 0.323704
Si Si4 0.500000 0.818526 0.212859
Si Si5 0.750000 0.250000 0.262498
Si Si6 0.000000 0.719772 0.894656
Si Si7 0.146937 0.000000 0.147339
Si Si8 0.792250 0.918245 0.986916
O O1 0.500000 0.363040 0.635995
O O2 0.500000 0.327557 0.464433
O O3 0.633609 0.410237 0.499018
O O4 0.000000 0.161952 0.822374
O O5 0.000000 0.226482 0.952599
O O6 0.870684 0.135446 0.979058
O O7 0.677781 0.048837 0.392159
O O8 0.500000 0.000000 0.291825
O O9 0.744999 0.000000 0.230562
O O10 0.357922 0.785797 0.204899
O O11 0.638716 0.279460 0.329976
O O12 0.158698 0.048613 0.077205
O O13 0.000000 0.000000 0.194555
#
# Coordination Sequence:
#
# PCOD9369291 Si02
#       8
#     8   8   8   8   8   8   8  16
#     4  12  26  37  61 103 136 168 220 273 302 397
#     4  10  20  43  69  85 128 190 212 267 324 387
#     4  11  25  46  77  91 129 168 208 274 340 390
#     4  10  22  36  62  91 126 166 232 257 324 364
#     4   8  18  40  62  80 120 178 220 268 312 374
#     4  10  20  40  62  90 130 174 220 264 320 372
#     4  11  25  46  69 101 123 162 220 268 332 396
#     4  11  24  43  66  97 135 170 215 263 330 390
#
# _framework density 20.083753000000002
#
# number of rings (size 3 to 8) (size 9 to 14) (size 15 to 20)
#    0.000    1.778    2.222    3.333    6.222    3.556 
#    0.000    1.111    0.000    0.000    0.000    0.000 
#    0.000    0.000    0.000    0.000    0.000    0.000 
#
# Total GULP energy -100511.357261 kJ/mol
# GULP energy per Si atom -5583.964292 kJ/mol
# Density = 2.003804 g / cm^3
# Si number density = 20.083753 Si / 1000 Ang^3
#
#
#
# Elastic Constant Matrix: (Units=GPa)
#
#
# Indices 1 2 3 4 5 6 
#
# 1 205.5744 33.6608 36.0101 0.0000 0.0000 0.0000
# 2 33.6608 56.1398 -1.7448 0.0000 0.0000 0.0000
# 3 36.0101 -1.7448 68.1586 0.0000 0.0000 0.0000
# 4 0.0000 0.0000 0.0000 -26.0851 0.0000 0.0000
# 5 0.0000 0.0000 0.0000 0.0000 19.6896 0.0000
# 6 0.0000 0.0000 0.0000 0.0000 0.0000 -7.5424
#
#
#
# Elastic Compliance Matrix: (Units=1/GPa)
#
#
# Indices 1 2 3 4 5 6 
#
# 1 0.006052 -0.003731 -0.003293 0.000000 0.000000 0.000000
# 2 -0.003731 0.020127 0.002487 0.000000 0.000000 0.000000
# 3 -0.003293 0.002487 0.016475 0.000000 0.000000 0.000000
# 4 0.000000 0.000000 0.000000 -0.038336 0.000000 0.000000
# 5 0.000000 0.000000 0.000000 0.000000 0.050788 0.000000
# 6 0.000000 0.000000 0.000000 0.000000 0.000000 -0.132584
#
#
# Mechanical properties :
#
#
# Convention : Reuss Voigt Hill
#
# Bulk Modulus (GPa) = 29.78051 51.74723 40.76387
# Shear Modulus (GPa) = -87.39933 14.67553 -36.36190
#
# Velocity S-wave (km/s) = -6.60393 2.70611 -4.25963
# Velocity P-wave (km/s) = 6.57943 5.96537 1.96255
#
# Compressibility (1/GPa) = 0.03357901
#
# Stress axis : x y z
#
# Youngs Moduli (GPa) = 165.22912 49.68421 60.69754
#
# Poissons Ratio (x) = 0.18538 0.19988
# Poissons Ratio (y) = 0.61650 -0.15093
# Poissons Ratio (z) = 0.54411 -0.12354
#
# Static dielectric constant tensor:
#      x y z
#    x 1.704850 0.000000 0.000000 
#    y 0.000000 1.727420 0.000000 
#    z 0.000000 0.000000 1.675930 
# 
# From -- ./inp_files/12117.got.cif
#   From: 2010.05.17/outbox.cif.g08.bks.cpg/sg42_7_cif.got.tgz:12117.got - 2010.06.03 19:03:34.
