data_PCOD9369629
_publ_section_title
;
Structure prediction by ZEFSAII (Michael W. Deem and Ramdas Pophale) SiO2 
 PCOD9369629
Probable space group: F M M 2
;
_chemical_formula_sum "Si O2"
_cell_formula_units_Z 96
_cell_length_a 14.437122
_cell_length_b 14.713034
_cell_length_c 20.446535
_cell_angle_alpha 90.000000
_cell_angle_beta 90.000000
_cell_angle_gamma 90.000000
_cell_volume 4343.127563
_symmetry_space_group_name_H-M "F M M 2"
_symmetry_group_IT_number 42
_symmetry_cell_setting 'orthorhombic'
loop_
_space_group_symop_operation_xyz
x,y,z
-x,-y,z
-x,y,z
x,-y,z
x,1/2+y,1/2+z
-x,1/2-y,1/2+z
-x,1/2+y,1/2+z
x,1/2-y,1/2+z
1/2+x,y,1/2+z
1/2-x,-y,1/2+z
1/2-x,y,1/2+z
1/2+x,-y,1/2+z
1/2+x,1/2+y,z
1/2-x,1/2-y,z
1/2-x,1/2+y,z
1/2+x,1/2-y,z
loop_
_atom_site_type_symbol
_atom_site_label
_atom_site_fract_x
_atom_site_fract_y
_atom_site_fract_z
Si Si1 0.000000 0.610252 0.194400
Si Si2 0.174538 0.896061 0.132861
Si Si3 0.500000 0.277028 0.101435
Si Si4 0.000000 0.891664 0.464730
Si Si5 0.692557 0.599697 0.525098
Si Si6 0.500000 0.795024 0.442727
Si Si7 0.298787 0.349264 0.900242
Si Si8 0.295337 0.351381 0.752663
O O1 0.903509 0.637396 0.231440
O O2 0.000000 0.500000 0.183525
O O3 0.000000 0.674222 0.129810
O O4 0.088167 0.829373 0.131525
O O5 0.245575 0.854688 0.079398
O O6 0.230859 0.900054 0.199885
O O7 0.146631 0.000000 0.114274
O O8 0.500000 0.294894 0.022628
O O9 0.092202 0.869150 0.504777
O O10 0.000000 0.809018 0.413485
O O11 0.000000 0.000000 0.447511
O O12 0.676382 0.500000 0.553372
O O13 0.749362 0.597322 0.458134
O O14 0.406582 0.840607 0.417575
O O15 0.250000 0.250000 0.903592
O O16 0.286605 0.384988 0.827130
O O17 0.250000 0.250000 0.752509
#
# Coordination Sequence:
#
# PCOD9369629 Si02
#       8
#     8  16   8   8  16   8  16  16
#     4  12  27  47  72 107 144 189 248 304 361 437
#     4  11  24  45  71 101 140 189 240 295 361 436
#     4  12  25  43  73 107 145 186 238 300 368 425
#     4  10  22  38  59  97 135 173 225 289 348 421
#     4  10  22  40  65  98 137 175 229 290 352 421
#     4  12  23  40  70  99 138 182 232 285 350 423
#     4  11  23  42  67  99 135 185 236 286 351 428
#     4  11  25  45  71  99 144 193 241 301 365 433
#
# _framework density 22.103885999999999
#
# number of rings (size 3 to 8) (size 9 to 14) (size 15 to 20)
#    0.000    1.000    5.000    1.250    2.333    2.333 
#    0.000    1.250    0.000    2.000    0.000    0.000 
#    0.000    0.000    0.000    0.000    0.000    0.000 
#
# Total GULP energy -133953.216860 kJ/mol
# GULP energy per Si atom -5581.384036 kJ/mol
# Density = 2.205358 g / cm^3
# Si number density = 22.103886 Si / 1000 Ang^3
#
#
#
# Elastic Constant Matrix: (Units=GPa)
#
#
# Indices 1 2 3 4 5 6 
#
# 1 183.8716 31.5311 44.0048 0.0000 0.0000 0.0000
# 2 31.5311 102.1302 20.6736 0.0000 0.0000 0.0000
# 3 44.0048 20.6736 137.3186 0.0000 0.0000 0.0000
# 4 0.0000 0.0000 0.0000 31.6029 0.0000 0.0000
# 5 0.0000 0.0000 0.0000 0.0000 31.4260 0.0000
# 6 0.0000 0.0000 0.0000 0.0000 0.0000 223.8599
#
#
#
# Elastic Compliance Matrix: (Units=1/GPa)
#
#
# Indices 1 2 3 4 5 6 
#
# 1 0.006116 -0.001538 -0.001728 0.000000 0.000000 0.000000
# 2 -0.001538 0.010486 -0.001086 0.000000 0.000000 0.000000
# 3 -0.001728 -0.001086 0.008000 0.000000 0.000000 0.000000
# 4 0.000000 0.000000 0.000000 0.031643 0.000000 0.000000
# 5 0.000000 0.000000 0.000000 0.000000 0.031821 0.000000
# 6 0.000000 0.000000 0.000000 0.000000 0.000000 0.004467
#
#
# Mechanical properties :
#
#
# Convention : Reuss Voigt Hill
#
# Bulk Modulus (GPa) = 62.90506 68.41549 65.66028
# Shear Modulus (GPa) = 46.93241 79.18514 63.05878
#
# Velocity S-wave (km/s) = 4.61289 5.99182 5.34699
# Velocity P-wave (km/s) = 7.54270 8.88190 8.23955
#
# Compressibility (1/GPa) = 0.01589697
#
# Stress axis : x y z
#
# Youngs Moduli (GPa) = 163.50524 95.36385 125.00550
#
# Poissons Ratio (x) = 0.14671 0.21605
# Poissons Ratio (y) = 0.25153 0.13572
# Poissons Ratio (z) = 0.28259 0.10354
#
# Static dielectric constant tensor:
#      x y z
#    x 1.894700 0.000000 0.000000 
#    y 0.000000 1.864770 0.000000 
#    z 0.000000 0.000000 1.815580 
# 
# From -- ./inp_files/25182.got.cif
#   From: 2010.05.17/outbox.cif.g08.bks.cpg/sg42_13_cif.got.tgz:25182.got - 2010.06.03 19:03:34.
