data_PCOD9369950
_publ_section_title
;
Structure prediction by ZEFSAII (Michael W. Deem and Ramdas Pophale) SiO2 
 PCOD9369950
Probable space group: F M M 2
;
_chemical_formula_sum "Si O2"
_cell_formula_units_Z 80
_cell_length_a 31.562769
_cell_length_b 7.884621
_cell_length_c 14.881937
_cell_angle_alpha 90.000000
_cell_angle_beta 90.000000
_cell_angle_gamma 90.000000
_cell_volume 3703.525855
_symmetry_space_group_name_H-M "F M M 2"
_symmetry_group_IT_number 42
_symmetry_cell_setting 'orthorhombic'
loop_
_space_group_symop_operation_xyz
x,y,z
-x,-y,z
-x,y,z
x,-y,z
x,1/2+y,1/2+z
-x,1/2-y,1/2+z
-x,1/2+y,1/2+z
x,1/2-y,1/2+z
1/2+x,y,1/2+z
1/2-x,-y,1/2+z
1/2-x,y,1/2+z
1/2+x,-y,1/2+z
1/2+x,1/2+y,z
1/2-x,1/2-y,z
1/2-x,1/2+y,z
1/2+x,1/2-y,z
loop_
_atom_site_type_symbol
_atom_site_label
_atom_site_fract_x
_atom_site_fract_y
_atom_site_fract_z
Si Si1 0.545610 0.701608 0.278100
Si Si2 0.545915 0.802415 0.484784
Si Si3 0.136439 0.795997 0.962373
Si Si4 0.864163 0.295859 0.257371
Si Si5 0.798871 0.798421 0.610860
O O1 0.500000 0.742366 0.235265
O O2 0.546562 0.500000 0.294579
O O3 0.546623 0.792698 0.375284
O O4 0.588299 0.749001 0.227151
O O5 0.500000 0.727082 0.511272
O O6 0.592383 0.729046 0.506342
O O7 0.545223 0.000000 0.513129
O O8 0.140451 0.733236 0.859993
O O9 0.131964 0.000000 0.958607
O O10 0.177280 0.755391 0.020463
O O11 0.861619 0.500000 0.259537
O O12 0.827669 0.228872 0.192413
O O13 0.750000 0.750000 0.614878
O O14 0.800864 0.000000 0.615628
#
# Coordination Sequence:
#
# PCOD9369950 Si02
#       5
#    16  16  16  16  16
#     4   9  16  26  46  79 113 143 178 219 260 305
#     4   8  14  27  49  76 108 147 183 213 254 311
#     4   9  18  35  58  83 111 143 179 218 262 316
#     4   9  20  38  58  80 109 145 181 217 264 322
#     4  11  24  41  59  80 106 137 177 226 277 326
#
# _framework density 21.601037999999999
#
# number of rings (size 3 to 8) (size 9 to 14) (size 15 to 20)
#    0.000    2.800    0.000    2.400    0.000    6.800 
#    0.000    3.000    0.000    3.600    0.000    0.000 
#    0.000    0.000    0.000    0.000    0.000    0.000 
#
# Total GULP energy -111527.756709 kJ/mol
# GULP energy per Si atom -5576.387835 kJ/mol
# Density = 2.155187 g / cm^3
# Si number density = 21.601038 Si / 1000 Ang^3
#
#
#
# Elastic Constant Matrix: (Units=GPa)
#
#
# Indices 1 2 3 4 5 6 
#
# 1 225.4613 1.8022 67.5392 0.0000 -0.0001 0.0000
# 2 1.8022 26.3613 5.2194 0.0000 -0.0001 0.0001
# 3 67.5392 5.2194 81.6221 0.0000 0.0000 0.0000
# 4 0.0000 0.0000 0.0000 7.0184 -0.0001 0.0000
# 5 -0.0001 -0.0001 0.0000 -0.0001 70.8140 -0.0002
# 6 0.0000 0.0001 0.0000 0.0000 -0.0002 -54.4118
#
#
#
# Elastic Compliance Matrix: (Units=1/GPa)
#
#
# Indices 1 2 3 4 5 6 
#
# 1 0.005906 0.000571 -0.004923 0.000000 0.000000 0.000000
# 2 0.000571 0.038476 -0.002933 0.000000 0.000000 0.000000
# 3 -0.004923 -0.002933 0.016513 0.000000 0.000000 0.000000
# 4 0.000000 0.000000 0.000000 0.142483 0.000000 0.000000
# 5 0.000000 0.000000 0.000000 0.000000 0.014122 0.000000
# 6 0.000000 0.000000 0.000000 0.000000 0.000000 -0.018378
#
#
# Mechanical properties :
#
#
# Convention : Reuss Voigt Hill
#
# Bulk Modulus (GPa) = 21.58685 53.61846 37.60266
# Shear Modulus (GPa) = 21.82148 21.94304 21.88226
#
# Velocity S-wave (km/s) = 3.18182 3.19067 3.18625
# Velocity P-wave (km/s) = 4.84910 6.20080 5.56613
#
# Compressibility (1/GPa) = 0.04632451
#
# Stress axis : x y z
#
# Youngs Moduli (GPa) = 169.33187 25.99014 60.55894
#
# Poissons Ratio (x) = -0.01484 0.29814
# Poissons Ratio (y) = -0.09669 0.17761
# Poissons Ratio (z) = 0.83364 0.07623
#
# Static dielectric constant tensor:
#      x y z
#    x 0.793980 0.000000 0.000000 
#    y 0.000000 1.783450 0.000000 
#    z 0.000000 0.000000 1.805250 
# 
# From -- ./inp_files/18183.got.cif
#   From: 2010.05.17/outbox.cif.g08.bks.cpg/sg42_10_cif.got.tgz:18183.got - 2010.06.03 19:03:34.
