data_PCOD9369430
_publ_section_title
;
Structure prediction by ZEFSAII (Michael W. Deem and Ramdas Pophale) SiO2 
 PCOD9369430
Probable space group: F M M 2
;
_chemical_formula_sum "Si O2"
_cell_formula_units_Z 116
_cell_length_a 16.616840
_cell_length_b 22.216753
_cell_length_c 17.081926
_cell_angle_alpha 90.000000
_cell_angle_beta 90.000000
_cell_angle_gamma 90.000000
_cell_volume 6306.172713
_symmetry_space_group_name_H-M "F M M 2"
_symmetry_group_IT_number 42
_symmetry_cell_setting 'orthorhombic'
loop_
_space_group_symop_operation_xyz
x,y,z
-x,-y,z
-x,y,z
x,-y,z
x,1/2+y,1/2+z
-x,1/2-y,1/2+z
-x,1/2+y,1/2+z
x,1/2-y,1/2+z
1/2+x,y,1/2+z
1/2-x,-y,1/2+z
1/2-x,y,1/2+z
1/2+x,-y,1/2+z
1/2+x,1/2+y,z
1/2-x,1/2-y,z
1/2-x,1/2+y,z
1/2+x,1/2-y,z
loop_
_atom_site_type_symbol
_atom_site_label
_atom_site_fract_x
_atom_site_fract_y
_atom_site_fract_z
Si Si1 0.912359 0.877097 0.821720
Si Si2 0.094945 0.431934 0.007502
Si Si3 0.405586 0.240297 0.591097
Si Si4 0.092897 0.660373 0.869327
Si Si5 0.656407 0.632797 0.647861
Si Si6 0.000000 0.000000 0.850733
Si Si7 0.804049 0.810046 0.225670
Si Si8 0.837549 0.219600 0.928620
O O1 0.888810 0.876134 0.730368
O O2 0.930798 0.945613 0.847128
O O3 0.850951 0.838843 0.874679
O O4 0.000000 0.845916 0.829327
O O5 0.106025 0.500000 0.979628
O O6 0.144115 0.420364 0.086695
O O7 0.000000 0.423706 0.026904
O O8 0.114596 0.384932 0.939294
O O9 0.500000 0.235994 0.578223
O O10 0.379274 0.309654 0.601334
O O11 0.377611 0.211609 0.672352
O O12 0.358538 0.209694 0.519418
O O13 0.157363 0.657681 0.799734
O O14 0.101517 0.728418 0.900310
O O15 0.000000 0.648662 0.846270
O O16 0.746385 0.648430 0.673879
O O17 0.750000 0.750000 0.244656
O O18 0.750000 0.250000 0.923610
#
# Coordination Sequence:
#
# PCOD9369430 Si02
#       8
#    16  16  16  16  16   4  16  16
#     4  10  21  37  60  89 125 171 216 256 313 384
#     4  10  22  37  60  87 117 158 204 257 311 372
#     4  11  21  35  57  90 121 160 204 261 321 384
#     4  11  21  37  60  88 119 161 207 251 307 378
#     4  11  20  36  58  87 123 153 204 260 319 374
#     4   8  24  40  60  92 124 180 218 260 304 380
#     4  10  22  37  54  87 124 161 193 253 326 372
#     4  12  22  35  59  91 130 163 203 264 325 373
#
# _framework density 18.394676
#
# number of rings (size 3 to 8) (size 9 to 14) (size 15 to 20)
#    0.414    0.966    1.379    7.034    0.966    0.000 
#    0.000    0.690    4.552    0.000    1.793    0.000 
#    0.000    0.000    0.000    0.000    0.000    0.000 
#
# Total GULP energy -161542.868803 kJ/mol
# GULP energy per Si atom -5570.443752 kJ/mol
# Density = 1.835281 g / cm^3
# Si number density = 18.394676 Si / 1000 Ang^3
#
#
#
# Elastic Constant Matrix: (Units=GPa)
#
#
# Indices 1 2 3 4 5 6 
#
# 1 85.6295 22.9844 44.2396 0.0000 0.0000 0.0000
# 2 22.9844 97.4380 48.4920 0.0000 0.0000 0.0000
# 3 44.2396 48.4920 106.0369 0.0000 0.0000 0.0000
# 4 0.0000 0.0000 0.0000 14.0548 0.0000 0.0000
# 5 0.0000 0.0000 0.0000 0.0000 25.8336 0.0000
# 6 0.0000 0.0000 0.0000 0.0000 0.0000 21.9923
#
#
#
# Elastic Compliance Matrix: (Units=1/GPa)
#
#
# Indices 1 2 3 4 5 6 
#
# 1 0.014909 -0.000545 -0.005971 0.000000 0.000000 0.000000
# 2 -0.000545 0.013307 -0.005858 0.000000 0.000000 0.000000
# 3 -0.005971 -0.005858 0.014601 0.000000 0.000000 0.000000
# 4 0.000000 0.000000 0.000000 0.071150 0.000000 0.000000
# 5 0.000000 0.000000 0.000000 0.000000 0.038709 0.000000
# 6 0.000000 0.000000 0.000000 0.000000 0.000000 0.045471
#
#
# Mechanical properties :
#
#
# Convention : Reuss Voigt Hill
#
# Bulk Modulus (GPa) = 55.34461 57.83739 56.59100
# Shear Modulus (GPa) = 21.84186 23.93536 22.88861
#
# Velocity S-wave (km/s) = 3.44961 3.61114 3.53130
# Velocity P-wave (km/s) = 6.78373 6.99270 6.88901
#
# Compressibility (1/GPa) = 0.01806861
#
# Stress axis : x y z
#
# Youngs Moduli (GPa) = 67.07164 75.14920 68.48997
#
# Poissons Ratio (x) = 0.04099 0.40895
# Poissons Ratio (y) = 0.03658 0.40120
# Poissons Ratio (z) = 0.40048 0.44021
#
# Static dielectric constant tensor:
#      x y z
#    x 1.656650 0.000000 0.000000 
#    y 0.000000 1.636130 0.000000 
#    z 0.000000 0.000000 1.668260 
# 
# From -- ./inp_files/20289.got.cif
#   From: 2010.05.17/outbox.cif.g08.bks.cpg/sg42_11_cif.got.tgz:20289.got - 2010.06.03 19:03:34.
