data_PCOD9369221
_publ_section_title
;
Structure prediction by ZEFSAII (Michael W. Deem and Ramdas Pophale) SiO2 
 PCOD9369221
Probable space group: F M M 2
;
_chemical_formula_sum "Si O2"
_cell_formula_units_Z 116
_cell_length_a 8.041574
_cell_length_b 30.836002
_cell_length_c 25.521660
_cell_angle_alpha 90.000000
_cell_angle_beta 90.000000
_cell_angle_gamma 90.000000
_cell_volume 6328.605825
_symmetry_space_group_name_H-M "F M M 2"
_symmetry_group_IT_number 42
_symmetry_cell_setting 'orthorhombic'
loop_
_space_group_symop_operation_xyz
x,y,z
-x,-y,z
-x,y,z
x,-y,z
x,1/2+y,1/2+z
-x,1/2-y,1/2+z
-x,1/2+y,1/2+z
x,1/2-y,1/2+z
1/2+x,y,1/2+z
1/2-x,-y,1/2+z
1/2-x,y,1/2+z
1/2+x,-y,1/2+z
1/2+x,1/2+y,z
1/2-x,1/2-y,z
1/2-x,1/2+y,z
1/2+x,1/2-y,z
loop_
_atom_site_type_symbol
_atom_site_label
_atom_site_fract_x
_atom_site_fract_y
_atom_site_fract_z
Si Si1 0.807250 0.061017 0.306010
Si Si2 0.809942 0.796168 0.367093
Si Si3 0.191016 0.141990 0.955738
Si Si4 0.302585 0.451967 0.430777
Si Si5 0.000000 0.000000 0.775809
Si Si6 0.300238 0.700395 0.550855
Si Si7 0.200304 0.700812 0.169869
Si Si8 0.694107 0.653039 0.771931
O O1 0.780191 0.052892 0.368100
O O2 0.790716 0.111608 0.293305
O O3 0.000000 0.048024 0.294234
O O4 0.651934 0.036984 0.278627
O O5 0.750000 0.750000 0.388936
O O6 0.793468 0.833522 0.410623
O O7 0.709466 0.809683 0.315621
O O8 0.000000 0.792048 0.351302
O O9 0.227545 0.090779 0.956974
O O10 0.000000 0.148233 0.940932
O O11 0.227612 0.166450 0.009799
O O12 0.500000 0.451363 0.440760
O O13 0.238038 0.500000 0.445830
O O14 0.500000 0.697733 0.548785
O O15 0.250000 0.750000 0.538201
O O16 0.242903 0.691329 0.610543
O O17 0.250000 0.750000 0.182046
O O18 0.259504 0.669621 0.216040
O O19 0.000000 0.698681 0.169516
O O20 0.500000 0.641848 0.766551
#
# Coordination Sequence:
#
# PCOD9369221 Si02
#       8
#    16  16  16  16   4  16  16  16
#     4  11  22  36  56  85 117 154 196 240 295 350
#     4  12  24  37  52  76 113 156 192 230 281 347
#     4  12  24  36  55  82 113 147 188 235 287 345
#     4  10  21  37  56  81 112 147 188 235 285 345
#     4  12  22  36  60  82 116 160 190 252 288 350
#     4  10  20  38  59  82 112 148 191 239 287 340
#     4   9  20  36  58  83 112 149 193 239 284 337
#     4  11  21  36  55  84 118 153 192 235 288 349
#
# _framework density 18.329471000000002
#
# number of rings (size 3 to 8) (size 9 to 14) (size 15 to 20)
#    0.000    1.241    2.759    4.345    0.966    3.034 
#    0.000    0.000    0.000    0.000    1.793    0.000 
#    0.000    0.000    0.000    0.000    0.000    0.000 
#
# Total GULP energy -161644.043834 kJ/mol
# GULP energy per Si atom -5573.932546 kJ/mol
# Density = 1.828775 g / cm^3
# Si number density = 18.329471 Si / 1000 Ang^3
#
#
#
# Elastic Constant Matrix: (Units=GPa)
#
#
# Indices 1 2 3 4 5 6 
#
# 1 69.1780 18.8995 4.9894 0.0000 0.0000 0.0000
# 2 18.8995 123.4687 47.7732 0.0000 0.0000 0.0000
# 3 4.9894 47.7732 66.6328 0.0000 0.0000 0.0000
# 4 0.0000 0.0000 0.0000 26.1117 0.0000 0.0000
# 5 0.0000 0.0000 0.0000 0.0000 13.9411 0.0000
# 6 0.0000 0.0000 0.0000 0.0000 0.0000 30.2231
#
#
#
# Elastic Compliance Matrix: (Units=1/GPa)
#
#
# Indices 1 2 3 4 5 6 
#
# 1 0.015112 -0.002595 0.000729 0.000000 0.000000 0.000000
# 2 -0.002595 0.011654 -0.008161 0.000000 0.000000 0.000000
# 3 0.000729 -0.008161 0.020804 0.000000 0.000000 0.000000
# 4 0.000000 0.000000 0.000000 0.038297 0.000000 0.000000
# 5 0.000000 0.000000 0.000000 0.000000 0.071730 0.000000
# 6 0.000000 0.000000 0.000000 0.000000 0.000000 0.033087
#
#
# Mechanical properties :
#
#
# Convention : Reuss Voigt Hill
#
# Bulk Modulus (GPa) = 36.34296 44.73374 40.53835
# Shear Modulus (GPa) = 22.73633 26.56300 24.64967
#
# Velocity S-wave (km/s) = 3.52579 3.81096 3.67114
# Velocity P-wave (km/s) = 6.03702 6.61989 6.33516
#
# Compressibility (1/GPa) = 0.02751565
#
# Stress axis : x y z
#
# Youngs Moduli (GPa) = 66.17288 85.80484 48.06667
#
# Poissons Ratio (x) = 0.22269 -0.03505
# Poissons Ratio (y) = 0.17174 0.39229
# Poissons Ratio (z) = -0.04825 0.70029
#
# Static dielectric constant tensor:
#      x y z
#    x 1.666500 0.000000 0.000000 
#    y 0.000000 1.640680 0.000000 
#    z 0.000000 0.000000 1.618660 
# 
# From -- ./inp_files/28479.got.cif
#   From: 2010.05.17/outbox.cif.g08.bks.cpg/sg42_15_cif.got.tgz:28479.got - 2010.06.03 19:03:34.
