data_PCOD9369254
_publ_section_title
;
Structure prediction by ZEFSAII (Michael W. Deem and Ramdas Pophale) SiO2 
 PCOD9369254
Probable space group: F M M 2
;
_chemical_formula_sum "Si O2"
_cell_formula_units_Z 80
_cell_length_a 17.919566
_cell_length_b 7.904113
_cell_length_c 29.468923
_cell_angle_alpha 90.000000
_cell_angle_beta 90.000000
_cell_angle_gamma 90.000000
_cell_volume 4173.927407
_symmetry_space_group_name_H-M "F M M 2"
_symmetry_group_IT_number 42
_symmetry_cell_setting 'orthorhombic'
loop_
_space_group_symop_operation_xyz
x,y,z
-x,-y,z
-x,y,z
x,-y,z
x,1/2+y,1/2+z
-x,1/2-y,1/2+z
-x,1/2+y,1/2+z
x,1/2-y,1/2+z
1/2+x,y,1/2+z
1/2-x,-y,1/2+z
1/2-x,y,1/2+z
1/2+x,-y,1/2+z
1/2+x,1/2+y,z
1/2-x,1/2-y,z
1/2-x,1/2+y,z
1/2+x,1/2-y,z
loop_
_atom_site_type_symbol
_atom_site_label
_atom_site_fract_x
_atom_site_fract_y
_atom_site_fract_z
Si Si1 0.413169 0.201458 0.522670
Si Si2 0.163936 0.305796 0.113392
Si Si3 0.836532 0.298690 0.928573
Si Si4 0.909287 0.000000 0.272288
Si Si5 0.089569 0.189879 0.835288
Si Si6 0.089611 0.500000 0.667668
O O1 0.500000 0.251079 0.524311
O O2 0.367497 0.291790 0.562305
O O3 0.379456 0.240059 0.473543
O O4 0.408416 0.000000 0.530907
O O5 0.156454 0.500000 0.129131
O O6 0.250000 0.250000 0.113498
O O7 0.119583 0.168110 0.143005
O O8 0.843619 0.500000 0.924442
O O9 0.750000 0.250000 0.932470
O O10 0.871676 0.217358 0.883620
O O11 0.885737 0.166157 0.300122
O O12 0.885437 0.000000 0.220154
O O13 0.000000 0.000000 0.271771
O O14 0.000000 0.206507 0.841523
O O15 0.104863 0.000000 0.818682
O O16 0.000000 0.500000 0.665435
#
# Coordination Sequence:
#
# PCOD9369254 Si02
#       6
#    16  16  16   8  16   8
#     4  11  23  40  62  93 129 168 216 266 316 384
#     4  12  24  43  69  95 135 176 219 268 335 394
#     4  12  24  38  58  86 128 168 215 258 316 383
#     4   9  20  40  66  93 124 163 211 266 326 380
#     4  10  20  38  64  92 124 162 208 263 317 376
#     4  11  24  44  70 101 133 169 221 280 333 396
#
# _framework density 19.166601
#
# number of rings (size 3 to 8) (size 9 to 14) (size 15 to 20)
#    0.000    1.000    3.000    4.200    0.000    6.000 
#    0.000    3.000    0.000    0.000    0.000    0.000 
#    0.000    0.000    0.000    0.000    0.000    0.000 
#
# Total GULP energy -111850.980431 kJ/mol
# GULP energy per Si atom -5592.549022 kJ/mol
# Density = 1.912298 g / cm^3
# Si number density = 19.166601 Si / 1000 Ang^3
#
#
#
# Elastic Constant Matrix: (Units=GPa)
#
#
# Indices 1 2 3 4 5 6 
#
# 1 90.6105 49.9089 41.9610 0.0000 0.0000 0.0000
# 2 49.9089 156.8425 57.9761 0.0000 0.0000 0.0000
# 3 41.9610 57.9761 135.8563 0.0000 0.0000 0.0000
# 4 0.0000 0.0000 0.0000 23.3314 0.0000 0.0000
# 5 0.0000 0.0000 0.0000 0.0000 -109.5253 0.0000
# 6 0.0000 0.0000 0.0000 0.0000 0.0000 28.2366
#
#
#
# Elastic Compliance Matrix: (Units=1/GPa)
#
#
# Indices 1 2 3 4 5 6 
#
# 1 0.014307 -0.003466 -0.002940 0.000000 0.000000 0.000000
# 2 -0.003466 0.008410 -0.002518 0.000000 0.000000 0.000000
# 3 -0.002940 -0.002518 0.009343 0.000000 0.000000 0.000000
# 4 0.000000 0.000000 0.000000 0.042861 0.000000 0.000000
# 5 0.000000 0.000000 0.000000 0.000000 -0.009130 0.000000
# 6 0.000000 0.000000 0.000000 0.000000 0.000000 0.035415
#
#
# Mechanical properties :
#
#
# Convention : Reuss Voigt Hill
#
# Bulk Modulus (GPa) = 70.36404 75.88904 73.12654
# Shear Modulus (GPa) = 40.39097 3.97276 22.18187
#
# Velocity S-wave (km/s) = 4.59558 1.44127 3.40563
# Velocity P-wave (km/s) = 8.05920 6.51537 7.32805
#
# Compressibility (1/GPa) = 0.01421180
#
# Stress axis : x y z
#
# Youngs Moduli (GPa) = 69.89759 118.91224 107.02784
#
# Poissons Ratio (x) = 0.41213 0.31464
# Poissons Ratio (y) = 0.24225 0.26953
# Poissons Ratio (z) = 0.20548 0.29945
#
# Static dielectric constant tensor:
#      x y z
#    x 1.641190 0.000000 0.000000 
#    y 0.000000 1.673520 0.000000 
#    z 0.000000 0.000000 1.631480 
# 
# From -- ./inp_files/32782.got.cif
#   From: 2010.05.17/outbox.cif.g08.bks.cpg/sg42_17_cif.got.tgz:32782.got - 2010.06.03 19:03:34.
