data_PCOD9369400
_publ_section_title
;
Structure prediction by ZEFSAII (Michael W. Deem and Ramdas Pophale) SiO2 
 PCOD9369400
Probable space group: F M M 2
;
_chemical_formula_sum "Si O2"
_cell_formula_units_Z 96
_cell_length_a 24.131458
_cell_length_b 8.725273
_cell_length_c 25.906883
_cell_angle_alpha 90.000000
_cell_angle_beta 90.000000
_cell_angle_gamma 90.000000
_cell_volume 5454.786417
_symmetry_space_group_name_H-M "F M M 2"
_symmetry_group_IT_number 42
_symmetry_cell_setting 'orthorhombic'
loop_
_space_group_symop_operation_xyz
x,y,z
-x,-y,z
-x,y,z
x,-y,z
x,1/2+y,1/2+z
-x,1/2-y,1/2+z
-x,1/2+y,1/2+z
x,1/2-y,1/2+z
1/2+x,y,1/2+z
1/2-x,-y,1/2+z
1/2-x,y,1/2+z
1/2+x,-y,1/2+z
1/2+x,1/2+y,z
1/2-x,1/2-y,z
1/2-x,1/2+y,z
1/2+x,1/2-y,z
loop_
_atom_site_type_symbol
_atom_site_label
_atom_site_fract_x
_atom_site_fract_y
_atom_site_fract_z
Si Si1 0.188462 0.183177 0.392850
Si Si2 0.810326 0.815028 0.586245
Si Si3 0.500000 0.317173 0.336165
Si Si4 0.387261 0.316134 0.492814
Si Si5 0.884537 0.815810 0.799913
Si Si6 0.500000 0.181646 0.451739
Si Si7 0.189788 0.684616 0.204501
O O1 0.250000 0.250000 0.396117
O O2 0.154275 0.214125 0.445168
O O3 0.155273 0.258193 0.345668
O O4 0.190833 0.000000 0.385576
O O5 0.750000 0.750000 0.572037
O O6 0.856727 0.767312 0.545337
O O7 0.822154 0.768028 0.645409
O O8 0.807265 0.000000 0.584646
O O9 0.500000 0.500000 0.336117
O O10 0.555199 0.254567 0.309118
O O11 0.500000 0.259967 0.395392
O O12 0.396574 0.500000 0.494624
O O13 0.445005 0.234509 0.481502
O O14 0.856305 0.769197 0.745857
O O15 0.888277 0.000000 0.801723
O O16 0.500000 0.000000 0.444551
O O17 0.193273 0.500000 0.205403
O O18 0.250000 0.750000 0.218985
#
# Coordination Sequence:
#
# PCOD9369400 Si02
#       7
#    16  16   8  16  16   8  16
#     4  11  22  34  52  80 113 146 181 228 279 336
#     4   9  18  35  58  84 113 149 186 227 276 327
#     4  12  24  40  59  80 109 147 188 230 282 339
#     4  10  21  37  57  80 111 148 187 228 276 330
#     4  11  22  37  57  82 111 146 188 233 278 332
#     4  12  24  38  59  82 109 147 188 230 278 331
#     4   9  19  35  57  84 114 147 187 228 275 329
#
# _framework density 17.599222000000001
#
# number of rings (size 3 to 8) (size 9 to 14) (size 15 to 20)
#    0.000    1.667    1.667    3.500    0.000    4.000 
#    0.000    0.833    0.000    5.000    0.000    0.000 
#    0.000    0.000    0.000    0.000    0.000    0.000 
#
# Total GULP energy -134080.221386 kJ/mol
# GULP energy per Si atom -5586.675891 kJ/mol
# Density = 1.755917 g / cm^3
# Si number density = 17.599222 Si / 1000 Ang^3
#
#
#
# Elastic Constant Matrix: (Units=GPa)
#
#
# Indices 1 2 3 4 5 6 
#
# 1 184.4912 66.3150 97.2363 0.0000 0.0000 0.0000
# 2 66.3150 59.5930 50.3510 -0.0001 0.0000 0.0000
# 3 97.2363 50.3510 118.9730 0.0000 0.0000 0.0000
# 4 0.0000 -0.0001 0.0000 32.8884 0.0000 0.0000
# 5 0.0000 0.0000 0.0000 0.0000 20.9037 0.0000
# 6 0.0000 0.0000 0.0000 0.0000 0.0000 31.1718
#
#
#
# Elastic Compliance Matrix: (Units=1/GPa)
#
#
# Indices 1 2 3 4 5 6 
#
# 1 0.011302 -0.007429 -0.006093 0.000000 0.000000 0.000000
# 2 -0.007429 0.031003 -0.007050 0.000000 0.000000 0.000000
# 3 -0.006093 -0.007050 0.016369 0.000000 0.000000 0.000000
# 4 0.000000 0.000000 0.000000 0.030406 0.000000 0.000000
# 5 0.000000 0.000000 0.000000 0.000000 0.047838 0.000000
# 6 0.000000 0.000000 0.000000 0.000000 0.000000 0.032080
#
#
# Mechanical properties :
#
#
# Convention : Reuss Voigt Hill
#
# Bulk Modulus (GPa) = 57.04129 87.87354 72.45742
# Shear Modulus (GPa) = 23.14974 26.93643 25.04309
#
# Velocity S-wave (km/s) = 3.63076 3.91646 3.77631
# Velocity P-wave (km/s) = 7.07518 8.39585 7.76365
#
# Compressibility (1/GPa) = 0.01753116
#
# Stress axis : x y z
#
# Youngs Moduli (GPa) = 88.48081 32.25455 61.09216
#
# Poissons Ratio (x) = 0.23960 0.37224
# Poissons Ratio (y) = 0.65728 0.43068
# Poissons Ratio (z) = 0.53913 0.22739
#
# Static dielectric constant tensor:
#      x y z
#    x 1.561630 0.000000 0.000000 
#    y 0.000000 1.584530 0.000000 
#    z 0.000000 0.000000 1.599640 
# 
# From -- ./inp_files/28110.got.cif
#   From: 2010.05.17/outbox.cif.g08.bks.cpg/sg42_15_cif.got.tgz:28110.got - 2010.06.03 19:03:34.
