data_PCOD9369819
_publ_section_title
;
Structure prediction by ZEFSAII (Michael W. Deem and Ramdas Pophale) SiO2 
 PCOD9369819
Probable space group: F M M 2
;
_chemical_formula_sum "Si O2"
_cell_formula_units_Z 120
_cell_length_a 22.895868
_cell_length_b 18.495125
_cell_length_c 13.009356
_cell_angle_alpha 90.000000
_cell_angle_beta 90.000000
_cell_angle_gamma 90.000000
_cell_volume 5508.967138
_symmetry_space_group_name_H-M "F M M 2"
_symmetry_group_IT_number 42
_symmetry_cell_setting 'orthorhombic'
loop_
_space_group_symop_operation_xyz
x,y,z
-x,-y,z
-x,y,z
x,-y,z
x,1/2+y,1/2+z
-x,1/2-y,1/2+z
-x,1/2+y,1/2+z
x,1/2-y,1/2+z
1/2+x,y,1/2+z
1/2-x,-y,1/2+z
1/2-x,y,1/2+z
1/2+x,-y,1/2+z
1/2+x,1/2+y,z
1/2-x,1/2-y,z
1/2-x,1/2+y,z
1/2+x,1/2-y,z
loop_
_atom_site_type_symbol
_atom_site_label
_atom_site_fract_x
_atom_site_fract_y
_atom_site_fract_z
Si Si1 0.000000 0.163215 0.919040
Si Si2 0.563211 0.413181 0.419040
Si Si3 0.314953 0.279482 0.919040
Si Si4 0.250929 0.915138 0.919040
Si Si5 0.154166 0.413757 0.742762
Si Si6 0.398617 0.805536 0.585720
Si Si7 0.154165 0.586243 0.095319
Si Si8 0.898617 0.805535 0.752361
O O1 0.051733 0.165734 0.828670
O O2 0.051733 0.165734 0.009411
O O3 0.500000 0.377179 0.419040
O O4 0.557468 0.500000 0.419040
O O5 0.599778 0.397934 0.318147
O O6 0.599778 0.397934 0.519934
O O7 0.250000 0.250000 0.919041
O O8 0.305623 0.365856 0.919041
O O9 0.352157 0.260192 0.820043
O O10 0.352157 0.260192 0.018038
O O11 0.289646 0.899537 0.816179
O O12 0.238828 0.000000 0.919041
O O13 0.289646 0.899537 0.021902
O O14 0.155808 0.500000 0.719567
O O15 0.139806 0.366839 0.643206
O O16 0.423754 0.750000 0.669040
O O17 0.155808 0.500000 0.118514
O O18 0.139806 0.633161 0.194875
#
# Coordination Sequence:
#
# PCOD9369819 Si02
#       8
#     8  16  16  16  16  16  16  16
#     4  10  26  46  59  86 121 156 202 250 308 356
#     4   8  15  29  52  86 116 143 189 239 277 324
#     4  11  24  40  61  90 120 152 200 251 295 352
#     4   9  19  37  60  93 130 156 191 247 300 352
#     4   9  19  36  59  89 122 156 196 240 293 349
#     4  11  24  43  63  86 118 158 201 245 300 365
#     4   9  19  36  59  89 122 156 196 240 293 349
#     4  11  24  43  63  86 118 158 201 245 300 365
#
# _framework density 21.782668000000001
#
# number of rings (size 3 to 8) (size 9 to 14) (size 15 to 20)
#    0.000    2.267    0.000    3.600    1.867    8.000 
#    2.400    5.333    0.000    0.000    0.000    0.000 
#    0.000    0.000    0.000    0.000    0.000    0.000 
#
# Total GULP energy -167007.707274 kJ/mol
# GULP energy per Si atom -5566.923576 kJ/mol
# Density = 2.173309 g / cm^3
# Si number density = 21.782668 Si / 1000 Ang^3
#
#
#
# Elastic Constant Matrix: (Units=GPa)
#
#
# Indices 1 2 3 4 5 6 
#
# 1 67.0232 6.6463 18.7331 0.0000 0.0000 0.0000
# 2 6.6463 82.0699 38.1867 0.0000 0.0000 0.0000
# 3 18.7331 38.1867 136.0526 0.0000 0.0000 0.0000
# 4 0.0000 0.0000 0.0000 19.1805 0.0000 0.0000
# 5 0.0000 0.0000 0.0000 0.0000 4.8489 0.0000
# 6 0.0000 0.0000 0.0000 0.0000 0.0000 12.5903
#
#
#
# Elastic Compliance Matrix: (Units=1/GPa)
#
#
# Indices 1 2 3 4 5 6 
#
# 1 0.015524 -0.000302 -0.002053 0.000000 0.000000 0.000000
# 2 -0.000302 0.014021 -0.003894 0.000000 0.000000 0.000000
# 3 -0.002053 -0.003894 0.008726 0.000000 0.000000 0.000000
# 4 0.000000 0.000000 0.000000 0.052136 0.000000 0.000000
# 5 0.000000 0.000000 0.000000 0.000000 0.206233 0.000000
# 6 0.000000 0.000000 0.000000 0.000000 0.000000 0.079426
#
#
# Mechanical properties :
#
#
# Convention : Reuss Voigt Hill
#
# Bulk Modulus (GPa) = 38.79967 45.80865 42.30416
# Shear Modulus (GPa) = 12.58958 22.09592 17.34275
#
# Velocity S-wave (km/s) = 2.40669 3.18839 2.82471
# Velocity P-wave (km/s) = 5.05705 5.88472 5.48652
#
# Compressibility (1/GPa) = 0.02577342
#
# Stress axis : x y z
#
# Youngs Moduli (GPa) = 64.41684 71.32193 114.60514
#
# Poissons Ratio (x) = 0.02154 0.23525
# Poissons Ratio (y) = 0.01946 0.44624
# Poissons Ratio (z) = 0.13223 0.27771
#
# Static dielectric constant tensor:
#      x y z
#    x 1.767950 0.000000 0.000000 
#    y 0.000000 1.845960 0.000000 
#    z 0.000000 0.000000 1.836960 
# 
# From -- ./inp_files/10283.got.cif
#   From: 2010.05.17/outbox.cif.g08.bks.cpg/sg42_6_cif.got.tgz:10283.got - 2010.06.03 19:03:34.
