data_PCOD9369117
_publ_section_title
;
Structure prediction by ZEFSAII (Michael W. Deem and Ramdas Pophale) SiO2 
 PCOD9369117
Probable space group: F M M 2
;
_chemical_formula_sum "Si O2"
_cell_formula_units_Z 112
_cell_length_a 23.354096
_cell_length_b 13.633563
_cell_length_c 17.898988
_cell_angle_alpha 90.000000
_cell_angle_beta 90.000000
_cell_angle_gamma 90.000000
_cell_volume 5699.029530
_symmetry_space_group_name_H-M "F M M 2"
_symmetry_group_IT_number 42
_symmetry_cell_setting 'orthorhombic'
loop_
_space_group_symop_operation_xyz
x,y,z
-x,-y,z
-x,y,z
x,-y,z
x,1/2+y,1/2+z
-x,1/2-y,1/2+z
-x,1/2+y,1/2+z
x,1/2-y,1/2+z
1/2+x,y,1/2+z
1/2-x,-y,1/2+z
1/2-x,y,1/2+z
1/2+x,-y,1/2+z
1/2+x,1/2+y,z
1/2-x,1/2-y,z
1/2-x,1/2+y,z
1/2+x,1/2-y,z
loop_
_atom_site_type_symbol
_atom_site_label
_atom_site_fract_x
_atom_site_fract_y
_atom_site_fract_z
Si Si1 0.237097 0.113984 0.641180
Si Si2 0.855527 0.809880 0.747465
Si Si3 0.785472 0.385538 0.970360
Si Si4 0.130879 0.610039 0.678300
Si Si5 0.932767 0.189653 0.039083
Si Si6 0.162516 0.813449 0.918673
Si Si7 0.067831 0.392058 0.119241
O O1 0.204759 0.172523 0.705501
O O2 0.214174 0.139567 0.558951
O O3 0.305554 0.122198 0.643054
O O4 0.223790 0.000000 0.654145
O O5 0.873520 0.696368 0.738233
O O6 0.851111 0.837067 0.833188
O O7 0.899275 0.870531 0.695983
O O8 0.801250 0.500000 0.960001
O O9 0.821874 0.302543 0.928087
O O10 0.719696 0.369985 0.944536
O O11 0.126134 0.500000 0.707942
O O12 0.085727 0.629093 0.612429
O O13 0.920882 0.303025 0.062693
O O14 0.000000 0.178316 0.022903
O O15 0.890807 0.163038 0.971837
O O16 0.083980 0.500000 0.090492
O O17 0.000000 0.390589 0.133140
#
# Coordination Sequence:
#
# PCOD9369117 Si02
#       7
#    16  16  16  16  16  16  16
#     4  10  20  36  60  82 108 151 197 245 293 344
#     4  11  23  35  55  87 121 155 194 242 300 362
#     4  10  22  39  58  80 116 158 199 248 296 345
#     4  10  21  37  57  83 113 152 202 243 281 346
#     4  10  21  40  65  88 118 157 199 250 298 346
#     4  11  24  37  55  90 125 155 196 241 299 369
#     4   9  19  38  63  88 113 150 203 254 293 342
#
# _framework density 19.652470000000001
#
# number of rings (size 3 to 8) (size 9 to 14) (size 15 to 20)
#    0.000    1.857    1.429    2.571    6.000    4.286 
#    0.000    0.000    0.000    0.000    0.000    2.000 
#    0.000    0.000    0.000    0.000    0.000    0.000 
#
# Total GULP energy -156414.949571 kJ/mol
# GULP energy per Si atom -5586.248199 kJ/mol
# Density = 1.960774 g / cm^3
# Si number density = 19.652470 Si / 1000 Ang^3
#
#
#
# Elastic Constant Matrix: (Units=GPa)
#
#
# Indices 1 2 3 4 5 6 
#
# 1 80.6173 -13.8408 13.9425 0.0000 0.0000 0.0000
# 2 -13.8408 59.8126 -23.2982 0.0000 0.0000 0.0000
# 3 13.9425 -23.2982 79.3247 0.0000 0.0000 0.0000
# 4 0.0000 0.0000 0.0000 7.8116 0.0000 0.0000
# 5 0.0000 0.0000 0.0000 0.0000 10.9777 0.0000
# 6 0.0000 0.0000 0.0000 0.0000 0.0000 21.1606
#
#
#
# Elastic Compliance Matrix: (Units=1/GPa)
#
#
# Indices 1 2 3 4 5 6 
#
# 1 0.013094 0.002409 -0.001594 0.000000 0.000000 0.000000
# 2 0.002409 0.019322 0.005252 0.000000 0.000000 0.000000
# 3 -0.001594 0.005252 0.014429 0.000000 0.000000 0.000000
# 4 0.000000 0.000000 0.000000 0.128014 0.000000 0.000000
# 5 0.000000 0.000000 0.000000 0.000000 0.091094 0.000000
# 6 0.000000 0.000000 0.000000 0.000000 0.000000 0.047258
#
#
# Mechanical properties :
#
#
# Convention : Reuss Voigt Hill
#
# Bulk Modulus (GPa) = 16.95549 19.26241 18.10895
# Shear Modulus (GPa) = 15.58917 24.18673 19.88795
#
# Velocity S-wave (km/s) = 2.81951 3.51197 3.18462
# Velocity P-wave (km/s) = 4.38702 5.12524 4.77043
#
# Compressibility (1/GPa) = 0.05897795
#
# Stress axis : x y z
#
# Youngs Moduli (GPa) = 76.37357 51.75469 69.30500
#
# Poissons Ratio (x) = -0.12468 0.11046
# Poissons Ratio (y) = -0.18399 -0.36396
# Poissons Ratio (z) = 0.12173 -0.27179
#
# Static dielectric constant tensor:
#      x y z
#    x 1.702520 0.000000 0.000000 
#    y 0.000000 1.732510 0.000000 
#    z 0.000000 0.000000 1.635090 
# 
# From -- ./inp_files/14228.got.cif
#   From: 2010.05.17/outbox.cif.g08.bks.cpg/sg42_8_cif.got.tgz:14228.got - 2010.06.03 19:03:34.
