data_PCOD9369683
_publ_section_title
;
Structure prediction by ZEFSAII (Michael W. Deem and Ramdas Pophale) SiO2 
 PCOD9369683
Probable space group: F M M 2
;
_chemical_formula_sum "Si O2"
_cell_formula_units_Z 44
_cell_length_a 13.986019
_cell_length_b 11.588066
_cell_length_c 12.126093
_cell_angle_alpha 90.000000
_cell_angle_beta 90.000000
_cell_angle_gamma 90.000000
_cell_volume 1965.286942
_symmetry_space_group_name_H-M "F M M 2"
_symmetry_group_IT_number 42
_symmetry_cell_setting 'orthorhombic'
loop_
_space_group_symop_operation_xyz
x,y,z
-x,-y,z
-x,y,z
x,-y,z
x,1/2+y,1/2+z
-x,1/2-y,1/2+z
-x,1/2+y,1/2+z
x,1/2-y,1/2+z
1/2+x,y,1/2+z
1/2-x,-y,1/2+z
1/2-x,y,1/2+z
1/2+x,-y,1/2+z
1/2+x,1/2+y,z
1/2-x,1/2-y,z
1/2-x,1/2+y,z
1/2+x,1/2-y,z
loop_
_atom_site_type_symbol
_atom_site_label
_atom_site_fract_x
_atom_site_fract_y
_atom_site_fract_z
Si Si1 0.203611 0.500000 0.239350
Si Si2 0.394260 0.500000 0.088363
Si Si3 0.500000 0.500000 0.613874
Si Si4 0.160049 0.190997 0.917018
Si Si5 0.500000 0.867308 0.900870
O O1 0.299349 0.500000 0.164936
O O2 0.199418 0.611162 0.318921
O O3 0.100574 0.500000 0.177528
O O4 0.500000 0.500000 0.139561
O O5 0.388855 0.390642 0.006273
O O6 0.500000 0.388713 0.533371
O O7 0.250000 0.250000 0.974281
O O8 0.090686 0.290073 0.872107
O O9 0.500000 0.000000 0.863116
#
# Coordination Sequence:
#
# PCOD9369683 Si02
#       5
#     8   8   4  16   8
#     4  11  25  43  75 115 144 191 252 309 367 438
#     4  11  24  49  75 107 145 192 247 306 381 428
#     4  10  22  40  72 106 144 182 256 286 368 432
#     4  11  24  45  73 102 146 194 241 304 368 435
#     4  10  23  42  73 100 136 202 235 291 365 433
#
# _framework density 22.388589
#
# number of rings (size 3 to 8) (size 9 to 14) (size 15 to 20)
#    0.545    0.727    1.818    3.273    7.636    4.364 
#    3.273    0.000    4.000    0.000    0.000    0.000 
#    0.000    0.000    0.000    0.000    0.000    0.000 
#
# Total GULP energy -61443.109468 kJ/mol
# GULP energy per Si atom -5585.737224 kJ/mol
# Density = 2.233763 g / cm^3
# Si number density = 22.388589 Si / 1000 Ang^3
#
#
#
# Elastic Constant Matrix: (Units=GPa)
#
#
# Indices 1 2 3 4 5 6 
#
# 1 206.1027 74.0567 56.6935 0.0000 0.0000 0.0000
# 2 74.0567 169.8324 30.7979 0.0000 0.0000 0.0000
# 3 56.6935 30.7979 91.3478 0.0000 0.0000 0.0000
# 4 0.0000 0.0000 0.0000 -5.5170 0.0000 0.0000
# 5 0.0000 0.0000 0.0000 0.0000 31.0923 0.0000
# 6 0.0000 0.0000 0.0000 0.0000 0.0000 21.1443
#
#
#
# Elastic Compliance Matrix: (Units=1/GPa)
#
#
# Indices 1 2 3 4 5 6 
#
# 1 0.006580 -0.002267 -0.003319 0.000000 0.000000 0.000000
# 2 -0.002267 0.007053 -0.000971 0.000000 0.000000 0.000000
# 3 -0.003319 -0.000971 0.013334 0.000000 0.000000 0.000000
# 4 0.000000 0.000000 0.000000 -0.181258 0.000000 0.000000
# 5 0.000000 0.000000 0.000000 0.000000 0.032162 0.000000
# 6 0.000000 0.000000 0.000000 0.000000 0.000000 0.047294
#
#
# Mechanical properties :
#
#
# Convention : Reuss Voigt Hill
#
# Bulk Modulus (GPa) = 72.18823 87.81990 80.00407
# Shear Modulus (GPa) = -87.56036 29.72625 -28.91706
#
# Velocity S-wave (km/s) = -6.26053 3.64777 -3.59778
# Velocity P-wave (km/s) = 4.46606 7.55328 4.30734
#
# Compressibility (1/GPa) = 0.01385267
#
# Stress axis : x y z
#
# Youngs Moduli (GPa) = 151.98493 141.78718 74.99382
#
# Poissons Ratio (x) = 0.32146 0.24891
# Poissons Ratio (y) = 0.34458 0.07280
# Poissons Ratio (z) = 0.50446 0.13764
#
# Static dielectric constant tensor:
#      x y z
#    x 1.866090 0.000000 0.000000 
#    y 0.000000 1.827220 0.000000 
#    z 0.000000 0.000000 1.791530 
# 
# From -- ./inp_files/12337.got.cif
#   From: 2010.05.17/outbox.cif.g08.bks.cpg/sg42_7_cif.got.tgz:12337.got - 2010.06.03 19:03:34.
