data_PCOD9369368
_publ_section_title
;
Structure prediction by ZEFSAII (Michael W. Deem and Ramdas Pophale) SiO2 
 PCOD9369368
Probable space group: F M M 2
;
_chemical_formula_sum "Si O2"
_cell_formula_units_Z 64
_cell_length_a 10.673917
_cell_length_b 22.157029
_cell_length_c 13.939318
_cell_angle_alpha 90.000000
_cell_angle_beta 90.000000
_cell_angle_gamma 90.000000
_cell_volume 3296.680607
_symmetry_space_group_name_H-M "F M M 2"
_symmetry_group_IT_number 42
_symmetry_cell_setting 'orthorhombic'
loop_
_space_group_symop_operation_xyz
x,y,z
-x,-y,z
-x,y,z
x,-y,z
x,1/2+y,1/2+z
-x,1/2-y,1/2+z
-x,1/2+y,1/2+z
x,1/2-y,1/2+z
1/2+x,y,1/2+z
1/2-x,-y,1/2+z
1/2-x,y,1/2+z
1/2+x,-y,1/2+z
1/2+x,1/2+y,z
1/2-x,1/2-y,z
1/2-x,1/2+y,z
1/2+x,1/2-y,z
loop_
_atom_site_type_symbol
_atom_site_label
_atom_site_fract_x
_atom_site_fract_y
_atom_site_fract_z
Si Si1 0.500000 0.251376 0.255780
Si Si2 0.000000 0.880897 0.221740
Si Si3 0.000000 0.000000 0.882922
Si Si4 0.769131 0.500000 0.990060
Si Si5 0.500000 0.131904 0.386045
Si Si6 0.202736 0.375101 0.553506
Si Si7 0.250000 0.250000 0.627241
Si Si8 0.000000 0.000000 0.346675
O O1 0.500000 0.321563 0.289682
O O2 0.500000 0.193140 0.324608
O O3 0.625663 0.249975 0.192096
O O4 0.883375 0.880636 0.148289
O O5 0.000000 0.940818 0.282245
O O6 0.126184 0.000000 0.948115
O O7 0.000000 0.933832 0.832745
O O8 0.874384 0.500000 0.909444
O O9 0.780241 0.436798 0.046190
O O10 0.381974 0.130517 0.458100
O O11 0.265538 0.310289 0.564866
#
# Coordination Sequence:
#
# PCOD9369368 Si02
#       8
#     8   8   4   8   8  16   8   4
#     4  10  22  37  55  83 114 141 184 232 277 324
#     4   9  20  39  57  77 112 160 185 210 279 360
#     4   8  18  35  54  75 106 146 180 206 268 341
#     4  10  21  36  56  86 111 140 187 234 274 326
#     4   9  18  35  59  83 106 142 189 234 265 322
#     4   9  19  37  59  77 108 155 190 213 272 351
#     4  10  22  38  56  82 112 148 184 224 280 336
#     4  12  24  33  56  93 116 130 182 256 286 293
#
# _framework density 19.413467000000001
#
# number of rings (size 3 to 8) (size 9 to 14) (size 15 to 20)
#    0.000    2.500    0.000    2.250    0.000   13.000 
#    0.000    1.250    0.000    3.000    0.000    0.000 
#    0.000    0.000    0.000    0.000    0.000    0.000 
#
# Total GULP energy -89074.133218 kJ/mol
# GULP energy per Si atom -5567.133326 kJ/mol
# Density = 1.936928 g / cm^3
# Si number density = 19.413467 Si / 1000 Ang^3
#
#
#
# Elastic Constant Matrix: (Units=GPa)
#
#
# Indices 1 2 3 4 5 6 
#
# 1 64.8402 25.0523 15.0324 0.0000 0.0000 0.0000
# 2 25.0523 269.1614 75.6118 0.0000 0.0000 0.0000
# 3 15.0324 75.6118 50.3210 0.0000 0.0000 0.0000
# 4 0.0000 0.0000 0.0000 50.1660 0.0000 0.0000
# 5 0.0000 0.0000 0.0000 0.0000 -1.3055 0.0000
# 6 0.0000 0.0000 0.0000 0.0000 0.0000 24.3415
#
#
#
# Elastic Compliance Matrix: (Units=1/GPa)
#
#
# Indices 1 2 3 4 5 6 
#
# 1 0.016581 -0.000263 -0.004558 0.000000 0.000000 0.000000
# 2 -0.000263 0.006433 -0.009588 0.000000 0.000000 0.000000
# 3 -0.004558 -0.009588 0.035641 0.000000 0.000000 0.000000
# 4 0.000000 0.000000 0.000000 0.019934 0.000000 0.000000
# 5 0.000000 0.000000 0.000000 0.000000 -0.765975 0.000000
# 6 0.000000 0.000000 0.000000 0.000000 0.000000 0.041082
#
#
# Mechanical properties :
#
#
# Convention : Reuss Voigt Hill
#
# Bulk Modulus (GPa) = 33.51577 68.41286 50.96431
# Shear Modulus (GPa) = -8.22989 32.54879 12.15945
#
# Velocity S-wave (km/s) = -2.06118 4.09908 2.50540
# Velocity P-wave (km/s) = 3.41131 7.59735 5.88883
#
# Compressibility (1/GPa) = 0.02983670
#
# Stress axis : x y z
#
# Youngs Moduli (GPa) = 60.31051 155.44711 28.05784
#
# Poissons Ratio (x) = 0.04084 0.12790
# Poissons Ratio (y) = 0.01585 0.26901
# Poissons Ratio (z) = 0.27492 1.49039
#
# Static dielectric constant tensor:
#      x y z
#    x 1.651070 0.000000 0.000000 
#    y 0.000000 1.747540 0.000000 
#    z 0.000000 0.000000 1.652590 
# 
# From -- ./inp_files/6804.got.cif
#   From: 2010.05.17/outbox.cif.g08.bks.cpg/sg42_4_cif.got.tgz:6804.got - 2010.06.03 19:03:34.
