data_PCOD9369882
_publ_section_title
;
Structure prediction by ZEFSAII (Michael W. Deem and Ramdas Pophale) SiO2 
 PCOD9369882
Probable space group: F M M 2
;
_chemical_formula_sum "Si O2"
_cell_formula_units_Z 116
_cell_length_a 17.043457
_cell_length_b 14.882286
_cell_length_c 22.384054
_cell_angle_alpha 90.000000
_cell_angle_beta 90.000000
_cell_angle_gamma 90.000000
_cell_volume 5677.616841
_symmetry_space_group_name_H-M "F M M 2"
_symmetry_group_IT_number 42
_symmetry_cell_setting 'orthorhombic'
loop_
_space_group_symop_operation_xyz
x,y,z
-x,-y,z
-x,y,z
x,-y,z
x,1/2+y,1/2+z
-x,1/2-y,1/2+z
-x,1/2+y,1/2+z
x,1/2-y,1/2+z
1/2+x,y,1/2+z
1/2-x,-y,1/2+z
1/2-x,y,1/2+z
1/2+x,-y,1/2+z
1/2+x,1/2+y,z
1/2-x,1/2-y,z
1/2-x,1/2+y,z
1/2+x,1/2-y,z
loop_
_atom_site_type_symbol
_atom_site_label
_atom_site_fract_x
_atom_site_fract_y
_atom_site_fract_z
Si Si1 0.500000 0.500000 0.573820
Si Si2 0.867941 0.149159 0.546830
Si Si3 0.213415 0.397302 0.602106
Si Si4 0.585781 0.151273 0.511261
Si Si5 0.907972 0.607320 0.706380
Si Si6 0.180515 0.900293 0.414091
Si Si7 0.592825 0.775176 0.823208
Si Si8 0.863250 0.896923 0.880559
O O1 0.431432 0.578994 0.570246
O O2 0.793020 0.156981 0.590468
O O3 0.904919 0.245105 0.530513
O O4 0.833116 0.112816 0.484128
O O5 0.238054 0.500000 0.613608
O O6 0.158503 0.395872 0.543421
O O7 0.153766 0.369934 0.654560
O O8 0.500000 0.117819 0.530629
O O9 0.593260 0.136863 0.440400
O O10 0.900693 0.500000 0.719723
O O11 0.889759 0.669251 0.763330
O O12 0.000000 0.622193 0.689680
O O13 0.134391 0.825834 0.377591
O O14 0.271381 0.893626 0.396932
O O15 0.151548 0.000000 0.397429
O O16 0.500000 0.778301 0.831781
O O17 0.619438 0.671929 0.827197
O O18 0.884849 0.000000 0.867879
#
# Coordination Sequence:
#
# PCOD9369882 Si02
#       8
#     4  16  16  16  16  16  16  16
#     4  12  24  40  64  92 140 180 216 276 344 398
#     4  12  23  39  59  95 134 178 217 270 333 397
#     4  11  22  40  66  93 131 172 217 276 333 397
#     4  12  24  37  58  92 132 177 225 269 329 390
#     4   9  20  41  66  98 133 171 222 282 337 393
#     4  11  22  37  59  88 131 170 217 268 323 392
#     4  11  23  38  64  97 131 170 218 276 334 391
#     4  11  24  40  58  89 136 182 222 270 324 398
#
# _framework density 20.431107000000001
#
# number of rings (size 3 to 8) (size 9 to 14) (size 15 to 20)
#    0.000    0.966    4.828    2.483    0.966    3.310 
#    0.000    2.759    0.000    0.000    1.793    0.000 
#    0.000    0.000    0.000    0.000    0.000    0.000 
#
# Total GULP energy -161821.606547 kJ/mol
# GULP energy per Si atom -5580.055398 kJ/mol
# Density = 2.038461 g / cm^3
# Si number density = 20.431107 Si / 1000 Ang^3
#
#
#
# Elastic Constant Matrix: (Units=GPa)
#
#
# Indices 1 2 3 4 5 6 
#
# 1 105.8045 32.2237 34.0665 0.0000 0.0000 0.0000
# 2 32.2237 114.9806 26.4866 0.0000 0.0000 0.0000
# 3 34.0665 26.4866 69.0702 0.0000 0.0000 0.0000
# 4 0.0000 0.0000 0.0000 22.8541 0.0000 0.0000
# 5 0.0000 0.0000 0.0000 0.0000 19.7839 0.0000
# 6 0.0000 0.0000 0.0000 0.0000 0.0000 27.7851
#
#
#
# Elastic Compliance Matrix: (Units=1/GPa)
#
#
# Indices 1 2 3 4 5 6 
#
# 1 0.011696 -0.002138 -0.004949 0.000000 0.000000 0.000000
# 2 -0.002138 0.009931 -0.002754 0.000000 0.000000 0.000000
# 3 -0.004949 -0.002754 0.017975 0.000000 0.000000 0.000000
# 4 0.000000 0.000000 0.000000 0.043756 0.000000 0.000000
# 5 0.000000 0.000000 0.000000 0.000000 0.050546 0.000000
# 6 0.000000 0.000000 0.000000 0.000000 0.000000 0.035990
#
#
# Mechanical properties :
#
#
# Convention : Reuss Voigt Hill
#
# Bulk Modulus (GPa) = 50.19918 52.82320 51.51119
# Shear Modulus (GPa) = 25.48230 27.22320 26.35275
#
# Velocity S-wave (km/s) = 3.53545 3.65422 3.59532
# Velocity P-wave (km/s) = 6.42566 6.61172 6.51936
#
# Compressibility (1/GPa) = 0.01992064
#
# Stress axis : x y z
#
# Youngs Moduli (GPa) = 85.50021 100.69905 55.63337
#
# Poissons Ratio (x) = 0.21528 0.27532
# Poissons Ratio (y) = 0.18278 0.15320
# Poissons Ratio (z) = 0.42312 0.27730
#
# Static dielectric constant tensor:
#      x y z
#    x 1.707100 0.000000 0.000000 
#    y 0.000000 1.761220 0.000000 
#    z 0.000000 0.000000 1.742510 
# 
# From -- ./inp_files/29945.got.cif
#   From: 2010.05.17/outbox.cif.g08.bks.cpg/sg42_15_cif.got.tgz:29945.got - 2010.06.03 19:03:34.
