data_PCOD9369886
_publ_section_title
;
Structure prediction by ZEFSAII (Michael W. Deem and Ramdas Pophale) SiO2 
 PCOD9369886
Probable space group: F M M 2
;
_chemical_formula_sum "Si O2"
_cell_formula_units_Z 80
_cell_length_a 26.178492
_cell_length_b 15.228191
_cell_length_c 9.226447
_cell_angle_alpha 90.000000
_cell_angle_beta 90.000000
_cell_angle_gamma 90.000000
_cell_volume 3678.133027
_symmetry_space_group_name_H-M "F M M 2"
_symmetry_group_IT_number 42
_symmetry_cell_setting 'orthorhombic'
loop_
_space_group_symop_operation_xyz
x,y,z
-x,-y,z
-x,y,z
x,-y,z
x,1/2+y,1/2+z
-x,1/2-y,1/2+z
-x,1/2+y,1/2+z
x,1/2-y,1/2+z
1/2+x,y,1/2+z
1/2-x,-y,1/2+z
1/2-x,y,1/2+z
1/2+x,-y,1/2+z
1/2+x,1/2+y,z
1/2-x,1/2-y,z
1/2-x,1/2+y,z
1/2+x,1/2-y,z
loop_
_atom_site_type_symbol
_atom_site_label
_atom_site_fract_x
_atom_site_fract_y
_atom_site_fract_z
Si Si1 0.000000 0.101984 0.822001
Si Si2 0.298104 0.598433 0.017016
Si Si3 0.886559 0.607763 0.975785
Si Si4 0.715356 0.834410 0.830405
Si Si5 0.000000 0.101726 0.469714
Si Si6 0.889778 0.392750 0.314902
O O1 0.054567 0.140274 0.865168
O O2 0.000000 0.101851 0.646039
O O3 0.000000 0.000000 0.869281
O O4 0.311911 0.500000 0.066561
O O5 0.286143 0.653077 0.159053
O O6 0.249017 0.593778 0.914070
O O7 0.344796 0.633920 0.921210
O O8 0.883111 0.500000 0.962635
O O9 0.880435 0.629854 0.146829
O O10 0.841853 0.655051 0.888683
O O11 0.943923 0.635713 0.927398
O O12 0.750000 0.750000 0.864149
O O13 0.000000 0.000000 0.423559
O O14 0.891390 0.500000 0.316009
#
# Coordination Sequence:
#
# PCOD9369886 Si02
#       6
#     8  16  16  16   8  16
#     4   7  10  22  45  80 117 144 171 220 288 351
#     4  11  22  38  58  81 108 149 200 248 291 342
#     4   9  16  32  58  89 121 156 196 242 292 354
#     4  12  25  39  55  80 117 155 191 239 297 352
#     4   7  12  24  51  88 121 150 188 236 292 351
#     4   8  15  28  53  84 114 145 184 232 286 343
#
# _framework density 21.750164000000002
#
# number of rings (size 3 to 8) (size 9 to 14) (size 15 to 20)
#    0.000    2.600    0.000    6.000    0.000    1.600 
#    0.000    2.000    0.000    4.800    0.000    4.200 
#    0.000    0.000    0.000    0.000    0.000    0.000 
#
# Total GULP energy -111556.905845 kJ/mol
# GULP energy per Si atom -5577.845292 kJ/mol
# Density = 2.170066 g / cm^3
# Si number density = 21.750164 Si / 1000 Ang^3
#
#
#
# Elastic Constant Matrix: (Units=GPa)
#
#
# Indices 1 2 3 4 5 6 
#
# 1 225.5567 30.1250 78.4639 0.0000 0.0000 0.0000
# 2 30.1250 69.5106 14.7871 0.0000 0.0000 0.0000
# 3 78.4639 14.7871 95.1899 0.0000 0.0000 0.0000
# 4 0.0000 0.0000 0.0000 14.0961 0.0000 0.0000
# 5 0.0000 0.0000 0.0000 0.0000 37.9175 0.0000
# 6 0.0000 0.0000 0.0000 0.0000 0.0000 7.7902
#
#
#
# Elastic Compliance Matrix: (Units=1/GPa)
#
#
# Indices 1 2 3 4 5 6 
#
# 1 0.006406 -0.001710 -0.005015 0.000000 0.000000 0.000000
# 2 -0.001710 0.015334 -0.000973 0.000000 0.000000 0.000000
# 3 -0.005015 -0.000973 0.014790 0.000000 0.000000 0.000000
# 4 0.000000 0.000000 0.000000 0.070942 0.000000 0.000000
# 5 0.000000 0.000000 0.000000 0.000000 0.026373 0.000000
# 6 0.000000 0.000000 0.000000 0.000000 0.000000 0.128367
#
#
# Mechanical properties :
#
#
# Convention : Reuss Voigt Hill
#
# Bulk Modulus (GPa) = 47.31321 70.77879 59.04600
# Shear Modulus (GPa) = 17.56522 29.75282 23.65902
#
# Velocity S-wave (km/s) = 2.84490 3.70257 3.30170
# Velocity P-wave (km/s) = 5.70890 7.13380 6.46075
#
# Compressibility (1/GPa) = 0.02113574
#
# Stress axis : x y z
#
# Youngs Moduli (GPa) = 156.09358 65.21390 67.61152
#
# Poissons Ratio (x) = 0.11149 0.33908
# Poissons Ratio (y) = 0.26685 0.06578
# Poissons Ratio (z) = 0.78283 0.06344
#
# Static dielectric constant tensor:
#      x y z
#    x 1.829650 0.000000 0.000000 
#    y 0.000000 1.863060 0.000000 
#    z 0.000000 0.000000 1.723180 
# 
# From -- ./inp_files/5114.got.cif
#   From: 2010.05.17/outbox.cif.g08.bks.cpg/sg42_3_cif.got.tgz:5114.got - 2010.06.03 19:03:34.
