data_PCOD9369750
_publ_section_title
;
Structure prediction by ZEFSAII (Michael W. Deem and Ramdas Pophale) SiO2 
 PCOD9369750
Probable space group: F M M 2
;
_chemical_formula_sum "Si O2"
_cell_formula_units_Z 100
_cell_length_a 20.278669
_cell_length_b 7.690992
_cell_length_c 31.768216
_cell_angle_alpha 90.000000
_cell_angle_beta 90.000000
_cell_angle_gamma 90.000000
_cell_volume 4954.668847
_symmetry_space_group_name_H-M "F M M 2"
_symmetry_group_IT_number 42
_symmetry_cell_setting 'orthorhombic'
loop_
_space_group_symop_operation_xyz
x,y,z
-x,-y,z
-x,y,z
x,-y,z
x,1/2+y,1/2+z
-x,1/2-y,1/2+z
-x,1/2+y,1/2+z
x,1/2-y,1/2+z
1/2+x,y,1/2+z
1/2-x,-y,1/2+z
1/2-x,y,1/2+z
1/2+x,-y,1/2+z
1/2+x,1/2+y,z
1/2-x,1/2-y,z
1/2-x,1/2+y,z
1/2+x,1/2-y,z
loop_
_atom_site_type_symbol
_atom_site_label
_atom_site_fract_x
_atom_site_fract_y
_atom_site_fract_z
Si Si1 0.575201 0.792840 0.720420
Si Si2 0.676390 0.791826 0.650086
Si Si3 0.112981 0.202638 0.565170
Si Si4 0.173806 0.707748 0.975575
Si Si5 0.075579 0.707357 0.904155
Si Si6 0.000000 0.500000 0.574430
Si Si7 0.075285 0.792920 0.812166
O O1 0.500000 0.722128 0.718370
O O2 0.622339 0.726819 0.683702
O O3 0.603592 0.761924 0.767218
O O4 0.570439 0.000000 0.714848
O O5 0.750000 0.750000 0.664439
O O6 0.662040 0.710665 0.604733
O O7 0.669864 0.000000 0.646496
O O8 0.149300 0.257056 0.522018
O O9 0.056905 0.344826 0.573960
O O10 0.090176 0.000000 0.560550
O O11 0.168959 0.500000 0.973780
O O12 0.250000 0.750000 0.968346
O O13 0.123867 0.778319 0.940032
O O14 0.070754 0.500000 0.909701
O O15 0.103281 0.737757 0.857148
O O16 0.000000 0.777047 0.906642
O O17 0.000000 0.721752 0.812066
O O18 0.072776 0.000000 0.812212
#
# Coordination Sequence:
#
# PCOD9369750 Si02
#       7
#    16  16  16  16  16   4  16
#     4   9  19  35  59  84 115 155 200 252 308 370
#     4  11  23  40  63  90 124 166 213 255 309 379
#     4  11  25  44  67  95 131 167 207 256 312 372
#     4  10  23  40  61  88 120 163 208 250 305 373
#     4   9  18  35  58  82 114 153 198 248 305 367
#     4  12  26  44  68 102 128 160 208 268 312 370
#     4   9  17  31  51  83 117 147 189 245 309 371
#
# _framework density 20.182983
#
# number of rings (size 3 to 8) (size 9 to 14) (size 15 to 20)
#    0.000    2.080    0.800    1.680    3.360    5.120 
#    0.000    0.800    0.000    0.000    0.000    0.000 
#    0.000    0.000    0.000    0.000    0.000    0.000 
#
# Total GULP energy -139205.383745 kJ/mol
# GULP energy per Si atom -5568.215350 kJ/mol
# Density = 2.013705 g / cm^3
# Si number density = 20.182983 Si / 1000 Ang^3
#
#
#
# Elastic Constant Matrix: (Units=GPa)
#
#
# Indices 1 2 3 4 5 6 
#
# 1 95.3744 13.5935 56.0817 0.0000 0.0000 0.0000
# 2 13.5935 70.8205 0.4787 0.0000 -0.0001 0.0000
# 3 56.0817 0.4787 159.6468 0.0000 0.0000 0.0000
# 4 0.0000 0.0000 0.0000 14.6715 0.0000 0.0000
# 5 0.0000 -0.0001 0.0000 0.0000 301.7578 0.0000
# 6 0.0000 0.0000 0.0000 0.0000 0.0000 27.2351
#
#
#
# Elastic Compliance Matrix: (Units=1/GPa)
#
#
# Indices 1 2 3 4 5 6 
#
# 1 0.013675 -0.002592 -0.004796 0.000000 0.000000 0.000000
# 2 -0.002592 0.014612 0.000867 0.000000 0.000000 0.000000
# 3 -0.004796 0.000867 0.007946 0.000000 0.000000 0.000000
# 4 0.000000 0.000000 0.000000 0.068159 0.000000 0.000000
# 5 0.000000 0.000000 0.000000 0.000000 0.003314 0.000000
# 6 0.000000 0.000000 0.000000 0.000000 0.000000 0.036717
#
#
# Mechanical properties :
#
#
# Convention : Reuss Voigt Hill
#
# Bulk Modulus (GPa) = 43.12268 51.79439 47.45853
# Shear Modulus (GPa) = 30.26711 85.77872 58.02292
#
# Velocity S-wave (km/s) = 3.87671 6.52631 5.36757
# Velocity P-wave (km/s) = 6.43823 9.08342 7.87271
#
# Compressibility (1/GPa) = 0.02318965
#
# Stress axis : x y z
#
# Youngs Moduli (GPa) = 73.12860 68.43720 125.85003
#
# Poissons Ratio (x) = 0.17741 0.60356
# Poissons Ratio (y) = 0.18957 -0.10909
# Poissons Ratio (z) = 0.35072 -0.05932
#
# Static dielectric constant tensor:
#      x y z
#    x 1.699960 0.000000 0.000000 
#    y 0.000000 1.741570 0.000000 
#    z 0.000000 0.000000 1.736120 
# 
# From -- ./inp_files/33047.got.cif
#   From: 2010.05.17/outbox.cif.g08.bks.cpg/sg42_17_cif.got.tgz:33047.got - 2010.06.03 19:03:34.
