data_PCOD9369949
_publ_section_title
;
Structure prediction by ZEFSAII (Michael W. Deem and Ramdas Pophale) SiO2 
 PCOD9369949
Probable space group: F M M 2
;
_chemical_formula_sum "Si O2"
_cell_formula_units_Z 100
_cell_length_a 19.210089
_cell_length_b 19.849293
_cell_length_c 13.851043
_cell_angle_alpha 90.000000
_cell_angle_beta 90.000000
_cell_angle_gamma 90.000000
_cell_volume 5281.495292
_symmetry_space_group_name_H-M "F M M 2"
_symmetry_group_IT_number 42
_symmetry_cell_setting 'orthorhombic'
loop_
_space_group_symop_operation_xyz
x,y,z
-x,-y,z
-x,y,z
x,-y,z
x,1/2+y,1/2+z
-x,1/2-y,1/2+z
-x,1/2+y,1/2+z
x,1/2-y,1/2+z
1/2+x,y,1/2+z
1/2-x,-y,1/2+z
1/2-x,y,1/2+z
1/2+x,-y,1/2+z
1/2+x,1/2+y,z
1/2-x,1/2-y,z
1/2-x,1/2+y,z
1/2+x,1/2-y,z
loop_
_atom_site_type_symbol
_atom_site_label
_atom_site_fract_x
_atom_site_fract_y
_atom_site_fract_z
Si Si1 0.871250 0.893122 0.661580
Si Si2 0.864394 0.075577 0.881302
Si Si3 0.423923 0.798243 0.473962
Si Si4 0.500000 0.500000 0.644406
Si Si5 0.419799 0.239494 0.684440
Si Si6 0.215213 0.576672 0.971441
Si Si7 0.820987 0.791464 0.357777
O O1 0.843861 0.908171 0.770360
O O2 0.937988 0.941209 0.645618
O O3 0.895452 0.815439 0.659628
O O4 0.814119 0.906748 0.578176
O O5 0.916931 0.132270 0.916736
O O6 0.798282 0.078639 0.953033
O O7 0.893504 0.000000 0.882073
O O8 0.500000 0.767551 0.455974
O O9 0.416918 0.805007 0.588154
O O10 0.363167 0.750789 0.437098
O O11 0.500000 0.242347 0.717806
O O12 0.368343 0.210634 0.763672
O O13 0.192847 0.500000 0.948304
O O14 0.188745 0.634044 0.898901
O O15 0.750000 0.750000 0.340456
#
# Coordination Sequence:
#
# PCOD9369949 Si02
#       7
#    16  16  16   4  16  16  16
#     4  12  22  40  66  96 129 166 219 280 326 378
#     4  11  24  41  65  96 129 170 211 266 333 385
#     4  11  24  40  64  94 127 168 214 266 326 385
#     4  12  24  36  64 104 128 166 224 276 348 364
#     4  11  24  41  63  92 129 167 220 271 319 386
#     4  11  24  43  63  97 134 170 216 263 327 395
#     4  12  23  41  65  96 127 173 215 263 332 389
#
# _framework density 18.934031999999998
#
# number of rings (size 3 to 8) (size 9 to 14) (size 15 to 20)
#    0.000    0.640    7.200    0.480    1.120    3.520 
#    1.440    2.400    0.000    0.960    0.000    0.000 
#    0.000    0.000    0.000    0.000    0.000    0.000 
#
# Total GULP energy -139328.819006 kJ/mol
# GULP energy per Si atom -5573.152760 kJ/mol
# Density = 1.889094 g / cm^3
# Si number density = 18.934032 Si / 1000 Ang^3
#
#
#
# Elastic Constant Matrix: (Units=GPa)
#
#
# Indices 1 2 3 4 5 6 
#
# 1 92.0972 2.5789 41.3541 0.0000 0.0000 0.0000
# 2 2.5789 102.8161 20.8771 0.0000 0.0000 0.0000
# 3 41.3541 20.8771 101.7231 0.0000 0.0000 0.0000
# 4 0.0000 0.0000 0.0000 18.4947 0.0000 0.0000
# 5 0.0000 0.0000 0.0000 0.0000 26.0138 0.0000
# 6 0.0000 0.0000 0.0000 0.0000 0.0000 28.6289
#
#
#
# Elastic Compliance Matrix: (Units=1/GPa)
#
#
# Indices 1 2 3 4 5 6 
#
# 1 0.013346 0.000800 -0.005590 0.000000 0.000000 0.000000
# 2 0.000800 0.010197 -0.002418 0.000000 0.000000 0.000000
# 3 -0.005590 -0.002418 0.012599 0.000000 0.000000 0.000000
# 4 0.000000 0.000000 0.000000 0.054069 0.000000 0.000000
# 5 0.000000 0.000000 0.000000 0.000000 0.038441 0.000000
# 6 0.000000 0.000000 0.000000 0.000000 0.000000 0.034930
#
#
# Mechanical properties :
#
#
# Convention : Reuss Voigt Hill
#
# Bulk Modulus (GPa) = 46.02606 47.36185 46.69396
# Shear Modulus (GPa) = 26.99206 30.08257 28.53731
#
# Velocity S-wave (km/s) = 3.77979 3.99031 3.88648
# Velocity P-wave (km/s) = 6.58866 6.80430 6.69735
#
# Compressibility (1/GPa) = 0.02172682
#
# Stress axis : x y z
#
# Youngs Moduli (GPa) = 74.93100 98.06764 79.36940
#
# Poissons Ratio (x) = -0.07848 0.44365
# Poissons Ratio (y) = -0.05996 0.19193
# Poissons Ratio (z) = 0.41884 0.23714
#
# Static dielectric constant tensor:
#      x y z
#    x 1.650340 0.000000 0.000000 
#    y 0.000000 1.661900 0.000000 
#    z 0.000000 0.000000 1.667150 
# 
# From -- ./inp_files/15225.got.cif
#   From: 2010.05.17/outbox.cif.g08.bks.cpg/sg42_8_cif.got.tgz:15225.got - 2010.06.03 19:03:34.
