data_PCOD9369466
_publ_section_title
;
Structure prediction by ZEFSAII (Michael W. Deem and Ramdas Pophale) SiO2 
 PCOD9369466
Probable space group: F M M 2
;
_chemical_formula_sum "Si O2"
_cell_formula_units_Z 96
_cell_length_a 21.377718
_cell_length_b 15.510807
_cell_length_c 14.892347
_cell_angle_alpha 90.000000
_cell_angle_beta 90.000000
_cell_angle_gamma 90.000000
_cell_volume 4938.088679
_symmetry_space_group_name_H-M "F M M 2"
_symmetry_group_IT_number 42
_symmetry_cell_setting 'orthorhombic'
loop_
_space_group_symop_operation_xyz
x,y,z
-x,-y,z
-x,y,z
x,-y,z
x,1/2+y,1/2+z
-x,1/2-y,1/2+z
-x,1/2+y,1/2+z
x,1/2-y,1/2+z
1/2+x,y,1/2+z
1/2-x,-y,1/2+z
1/2-x,y,1/2+z
1/2+x,-y,1/2+z
1/2+x,1/2+y,z
1/2-x,1/2-y,z
1/2-x,1/2+y,z
1/2+x,1/2-y,z
loop_
_atom_site_type_symbol
_atom_site_label
_atom_site_fract_x
_atom_site_fract_y
_atom_site_fract_z
Si Si1 0.382082 0.897031 0.128110
Si Si2 0.750000 0.750000 0.770799
Si Si3 0.258139 0.896661 0.622640
Si Si4 0.000000 0.681212 0.819654
Si Si5 0.382011 0.306675 0.822084
Si Si6 0.000000 0.896318 0.123720
Si Si7 0.119608 0.896517 0.010930
Si Si8 0.500000 0.896538 0.014301
O O1 0.312733 0.881614 0.088450
O O2 0.385151 0.857098 0.227369
O O3 0.437982 0.864243 0.065527
O O4 0.388809 0.000000 0.137379
O O5 0.737278 0.833819 0.708238
O O6 0.686995 0.734264 0.825485
O O7 0.313564 0.873007 0.554570
O O8 0.263506 0.000000 0.643776
O O9 0.937897 0.738943 0.821047
O O10 0.000000 0.629074 0.727217
O O11 0.000000 0.626877 0.910558
O O12 0.388924 0.364624 0.910073
O O13 0.062449 0.864706 0.073116
O O14 0.000000 0.000000 0.117832
O O15 0.117581 0.000000 0.010576
O O16 0.500000 0.000000 0.021358
#
# Coordination Sequence:
#
# PCOD9369466 Si02
#       8
#    16   8  16   8  16   8  16   8
#     4   9  19  38  61  83 110 146 187 233 282 332
#     4  10  22  38  58  86 118 154 194 238 290 342
#     4   9  19  37  60  84 114 154 196 237 285 340
#     4  12  25  38  55  84 114 146 188 234 287 344
#     4  11  23  36  56  87 118 149 187 232 283 341
#     4  10  22  41  61  79 108 151 195 240 289 342
#     4  10  21  38  60  85 114 152 194 236 285 342
#     4  10  22  39  59  81 108 145 187 232 283 338
#
# _framework density 19.440719999999999
#
# number of rings (size 3 to 8) (size 9 to 14) (size 15 to 20)
#    0.000    2.000    0.000    2.750    0.000    8.000 
#    0.000    4.167    0.000    8.000    0.000    0.000 
#    0.000    0.000    0.000    0.000    0.000    0.000 
#
# Total GULP energy -134009.820405 kJ/mol
# GULP energy per Si atom -5583.742517 kJ/mol
# Density = 1.939647 g / cm^3
# Si number density = 19.440720 Si / 1000 Ang^3
#
#
#
# Elastic Constant Matrix: (Units=GPa)
#
#
# Indices 1 2 3 4 5 6 
#
# 1 172.1860 33.0220 86.8707 0.0000 0.0000 0.0000
# 2 33.0220 27.2193 17.2626 0.0000 0.0000 0.0000
# 3 86.8707 17.2626 128.0585 0.0000 0.0000 0.0000
# 4 0.0000 0.0000 0.0000 -31.4019 0.0000 0.0000
# 5 0.0000 0.0000 0.0000 0.0000 250.3641 0.0000
# 6 0.0000 0.0000 0.0000 0.0000 0.0000 12.4249
#
#
#
# Elastic Compliance Matrix: (Units=1/GPa)
#
#
# Indices 1 2 3 4 5 6 
#
# 1 0.010525 -0.009011 -0.005925 0.000000 0.000000 0.000000
# 2 -0.009011 0.047888 -0.000342 0.000000 0.000000 0.000000
# 3 -0.005925 -0.000342 0.011875 0.000000 0.000000 0.000000
# 4 0.000000 0.000000 0.000000 -0.031845 0.000000 0.000000
# 5 0.000000 0.000000 0.000000 0.000000 0.003994 0.000000
# 6 0.000000 0.000000 0.000000 0.000000 0.000000 0.080484
#
#
# Mechanical properties :
#
#
# Convention : Reuss Voigt Hill
#
# Bulk Modulus (GPa) = 25.16987 66.86383 46.01685
# Shear Modulus (GPa) = 29.99002 58.96464 44.47733
#
# Velocity S-wave (km/s) = 3.93191 5.51329 4.78833
# Velocity P-wave (km/s) = 5.79554 8.66007 7.36835
#
# Compressibility (1/GPa) = 0.03973005
#
# Stress axis : x y z
#
# Youngs Moduli (GPa) = 95.00961 20.88196 84.21338
#
# Poissons Ratio (x) = 0.18817 0.49899
# Poissons Ratio (y) = 0.85616 0.02884
# Poissons Ratio (z) = 0.56296 0.00715
#
# Static dielectric constant tensor:
#      x y z
#    x 1.691020 0.000000 0.000000 
#    y 0.000000 1.696920 0.000000 
#    z 0.000000 0.000000 1.630850 
# 
# From -- ./inp_files/15875.got.cif
#   From: 2010.05.17/outbox.cif.g08.bks.cpg/sg42_8_cif.got.tgz:15875.got - 2010.06.03 19:03:34.
