data_PCOD9369813
_publ_section_title
;
Structure prediction by ZEFSAII (Michael W. Deem and Ramdas Pophale) SiO2 
 PCOD9369813
Probable space group: F M M 2
;
_chemical_formula_sum "Si O2"
_cell_formula_units_Z 72
_cell_length_a 9.861685
_cell_length_b 14.955567
_cell_length_c 23.754842
_cell_angle_alpha 90.000000
_cell_angle_beta 90.000000
_cell_angle_gamma 90.000000
_cell_volume 3503.532538
_symmetry_space_group_name_H-M "F M M 2"
_symmetry_group_IT_number 42
_symmetry_cell_setting 'orthorhombic'
loop_
_space_group_symop_operation_xyz
x,y,z
-x,-y,z
-x,y,z
x,-y,z
x,1/2+y,1/2+z
-x,1/2-y,1/2+z
-x,1/2+y,1/2+z
x,1/2-y,1/2+z
1/2+x,y,1/2+z
1/2-x,-y,1/2+z
1/2-x,y,1/2+z
1/2+x,-y,1/2+z
1/2+x,1/2+y,z
1/2-x,1/2-y,z
1/2-x,1/2+y,z
1/2+x,1/2-y,z
loop_
_atom_site_type_symbol
_atom_site_label
_atom_site_fract_x
_atom_site_fract_y
_atom_site_fract_z
Si Si1 0.843234 0.323353 0.502480
Si Si2 0.840028 0.000000 0.360648
Si Si3 0.662734 0.500000 0.495369
Si Si4 0.500000 0.254595 0.104075
Si Si5 0.000000 0.895906 0.696709
Si Si6 0.247719 0.146572 0.779485
Si Si7 0.000000 0.898096 0.201352
O O1 0.750000 0.250000 0.469864
O O2 0.751782 0.412034 0.511319
O O3 0.000000 0.341758 0.480199
O O4 0.878853 0.273410 0.561038
O O5 0.763411 0.084588 0.333852
O O6 0.838072 0.000000 0.427492
O O7 0.000000 0.000000 0.343453
O O8 0.500000 0.500000 0.512799
O O9 0.500000 0.164438 0.140482
O O10 0.500000 0.332529 0.149444
O O11 0.124243 0.874001 0.737943
O O12 0.000000 0.000000 0.681444
O O13 0.250000 0.250000 0.794946
O O14 0.373547 0.122306 0.740346
O O15 0.000000 0.000000 0.182343
#
# Coordination Sequence:
#
# PCOD9369813 Si02
#       7
#    16   8   8   8   8  16   8
#     4  10  24  46  70 103 140 181 242 302 360 440
#     4  11  24  46  70 100 133 188 232 288 362 429
#     4  11  25  49  77  99 134 185 251 317 375 416
#     4  10  26  40  70 103 146 186 236 272 377 409
#     4  12  24  40  62 104 148 184 221 285 332 420
#     4  12  22  41  63 100 143 181 229 273 337 415
#     4  12  22  38  68  87 142 190 221 269 329 431
#
# _framework density 20.550687
#
# number of rings (size 3 to 8) (size 9 to 14) (size 15 to 20)
#    0.667    0.222    5.556    1.000    4.667    0.889 
#    6.000    0.000    0.000    0.000    0.000    0.000 
#    0.000    0.000    0.000    0.000    0.000    0.000 
#
# Total GULP energy -100341.503201 kJ/mol
# GULP energy per Si atom -5574.527956 kJ/mol
# Density = 2.050391 g / cm^3
# Si number density = 20.550687 Si / 1000 Ang^3
#
#
#
# Elastic Constant Matrix: (Units=GPa)
#
#
# Indices 1 2 3 4 5 6 
#
# 1 185.4207 53.2007 25.5643 0.0000 0.0000 0.0000
# 2 53.2007 206.9201 26.2488 0.0000 0.0000 0.0000
# 3 25.5643 26.2488 67.1311 0.0000 0.0000 0.0000
# 4 0.0000 0.0000 0.0000 14.5099 0.0000 0.0000
# 5 0.0000 0.0000 0.0000 0.0000 20.3474 0.0000
# 6 0.0000 0.0000 0.0000 0.0000 0.0000 35.0691
#
#
#
# Elastic Compliance Matrix: (Units=1/GPa)
#
#
# Indices 1 2 3 4 5 6 
#
# 1 0.006017 -0.001322 -0.001774 0.000000 0.000000 0.000000
# 2 -0.001322 0.005375 -0.001598 0.000000 0.000000 0.000000
# 3 -0.001774 -0.001598 0.016197 0.000000 0.000000 0.000000
# 4 0.000000 0.000000 0.000000 0.068918 0.000000 0.000000
# 5 0.000000 0.000000 0.000000 0.000000 0.049146 0.000000
# 6 0.000000 0.000000 0.000000 0.000000 0.000000 0.028515
#
#
# Mechanical properties :
#
#
# Convention : Reuss Voigt Hill
#
# Bulk Modulus (GPa) = 54.94573 74.38885 64.66729
# Shear Modulus (GPa) = 26.36775 37.61583 31.99179
#
# Velocity S-wave (km/s) = 3.58587 4.28295 3.94982
# Velocity P-wave (km/s) = 6.62867 7.79324 7.23443
#
# Compressibility (1/GPa) = 0.01819978
#
# Stress axis : x y z
#
# Youngs Moduli (GPa) = 166.19356 186.03161 61.73996
#
# Poissons Ratio (x) = 0.24592 0.10956
# Poissons Ratio (y) = 0.21970 0.09869
# Poissons Ratio (z) = 0.29491 0.29736
#
# Static dielectric constant tensor:
#      x y z
#    x 1.657090 0.000000 0.000000 
#    y 0.000000 1.835300 0.000000 
#    z 0.000000 0.000000 1.734560 
# 
# From -- ./inp_files/31174.got.cif
#   From: 2010.05.17/outbox.cif.g08.bks.cpg/sg42_16_cif.got.tgz:31174.got - 2010.06.03 19:03:34.
