data_PCOD9369925
_publ_section_title
;
Structure prediction by ZEFSAII (Michael W. Deem and Ramdas Pophale) SiO2 
 PCOD9369925
Probable space group: F M M 2
;
_chemical_formula_sum "Si O2"
_cell_formula_units_Z 80
_cell_length_a 17.515910
_cell_length_b 29.101038
_cell_length_c 7.456946
_cell_angle_alpha 90.000000
_cell_angle_beta 90.000000
_cell_angle_gamma 90.000000
_cell_volume 3801.037753
_symmetry_space_group_name_H-M "F M M 2"
_symmetry_group_IT_number 42
_symmetry_cell_setting 'orthorhombic'
loop_
_space_group_symop_operation_xyz
x,y,z
-x,-y,z
-x,y,z
x,-y,z
x,1/2+y,1/2+z
-x,1/2-y,1/2+z
-x,1/2+y,1/2+z
x,1/2-y,1/2+z
1/2+x,y,1/2+z
1/2-x,-y,1/2+z
1/2-x,y,1/2+z
1/2+x,-y,1/2+z
1/2+x,1/2+y,z
1/2-x,1/2-y,z
1/2-x,1/2+y,z
1/2+x,1/2-y,z
loop_
_atom_site_type_symbol
_atom_site_label
_atom_site_fract_x
_atom_site_fract_y
_atom_site_fract_z
Si Si1 0.091025 0.448411 0.375000
Si Si2 0.670065 0.776991 0.018307
Si Si3 0.913918 0.698306 0.676585
Si Si4 0.327812 0.879376 0.102818
Si Si5 0.650580 0.895340 0.683147
O O1 0.114459 0.500000 0.320577
O O2 0.128129 0.410438 0.245417
O O3 0.117909 0.438871 0.578712
O O4 0.000000 0.445182 0.365069
O O5 0.750000 0.750000 0.030336
O O6 0.602338 0.740656 0.047641
O O7 0.663702 0.824015 0.131349
O O8 0.653944 0.794714 0.819400
O O9 0.897888 0.647650 0.605362
O O10 0.000000 0.699807 0.747508
O O11 0.238151 0.889002 0.125828
O O12 0.353476 0.893080 0.899844
#
# Coordination Sequence:
#
# PCOD9369925 Si02
#       5
#    16  16  16  16  16
#     4  11  27  49  74 104 137 178 228 290 360 415
#     4  11  23  39  63  93 134 179 226 276 333 401
#     4  11  24  38  60  95 133 177 227 277 335 400
#     4  11  24  43  71 102 137 182 230 284 339 409
#     4  11  23  44  69 100 137 179 230 282 341 409
#
# _framework density 21.046883999999999
#
# number of rings (size 3 to 8) (size 9 to 14) (size 15 to 20)
#    0.000    1.000    4.000    1.800    5.600    6.400 
#    0.000    2.000    0.000    0.000    0.000    0.000 
#    0.000    0.000    0.000    0.000    0.000    0.000 
#
# Total GULP energy -111633.669153 kJ/mol
# GULP energy per Si atom -5581.683458 kJ/mol
# Density = 2.099898 g / cm^3
# Si number density = 21.046884 Si / 1000 Ang^3
#
#
#
# Elastic Constant Matrix: (Units=GPa)
#
#
# Indices 1 2 3 4 5 6 
#
# 1 101.4149 47.0205 17.3897 0.0000 -0.0006 0.0000
# 2 47.0205 111.5510 40.8448 0.0000 -0.0001 0.0000
# 3 17.3897 40.8448 78.5214 0.0000 -0.0011 -0.0001
# 4 0.0000 0.0000 0.0000 33.1848 0.0000 0.0000
# 5 -0.0006 -0.0001 -0.0011 0.0000 18.4616 0.0001
# 6 0.0000 0.0000 -0.0001 0.0000 0.0001 31.1823
#
#
#
# Elastic Compliance Matrix: (Units=1/GPa)
#
#
# Indices 1 2 3 4 5 6 
#
# 1 0.012256 -0.005154 -0.000033 0.000000 0.000000 0.000000
# 2 -0.005154 0.013241 -0.005746 0.000000 0.000000 0.000000
# 3 -0.000033 -0.005746 0.015732 0.000000 0.000001 0.000000
# 4 0.000000 0.000000 0.000000 0.030134 0.000000 0.000000
# 5 0.000000 0.000000 0.000001 0.000000 0.054167 0.000000
# 6 0.000000 0.000000 0.000000 0.000000 0.000000 0.032069
#
#
# Mechanical properties :
#
#
# Convention : Reuss Voigt Hill
#
# Bulk Modulus (GPa) = 51.64813 55.77747 53.71280
# Shear Modulus (GPa) = 26.89339 28.98122 27.93731
#
# Velocity S-wave (km/s) = 3.57849 3.71480 3.64728
# Velocity P-wave (km/s) = 6.45499 6.70513 6.58125
#
# Compressibility (1/GPa) = 0.01936178
#
# Stress axis : x y z
#
# Youngs Moduli (GPa) = 81.59457 75.52363 63.56555
#
# Poissons Ratio (x) = 0.38923 0.00212
# Poissons Ratio (y) = 0.42052 0.36526
# Poissons Ratio (z) = 0.00272 0.43397
#
# Static dielectric constant tensor:
#      x y z
#    x 1.702910 0.000000 0.000000 
#    y 0.000000 1.968350 0.000000 
#    z 0.000000 0.000000 1.799010 
# 
# From -- ./inp_files/3484.got.cif
#   From: 2010.05.17/outbox.cif.g08.bks.cpg/sg42_2_cif.got.tgz:3484.got - 2010.06.03 19:03:34.
