data_PCOD9369845
_publ_section_title
;
Structure prediction by ZEFSAII (Michael W. Deem and Ramdas Pophale) SiO2 
 PCOD9369845
Probable space group: F M M 2
;
_chemical_formula_sum "Si O2"
_cell_formula_units_Z 96
_cell_length_a 24.747034
_cell_length_b 22.348202
_cell_length_c 7.874334
_cell_angle_alpha 90.000000
_cell_angle_beta 90.000000
_cell_angle_gamma 90.000000
_cell_volume 4354.913921
_symmetry_space_group_name_H-M "F M M 2"
_symmetry_group_IT_number 42
_symmetry_cell_setting 'orthorhombic'
loop_
_space_group_symop_operation_xyz
x,y,z
-x,-y,z
-x,y,z
x,-y,z
x,1/2+y,1/2+z
-x,1/2-y,1/2+z
-x,1/2+y,1/2+z
x,1/2-y,1/2+z
1/2+x,y,1/2+z
1/2-x,-y,1/2+z
1/2-x,y,1/2+z
1/2+x,-y,1/2+z
1/2+x,1/2+y,z
1/2-x,1/2-y,z
1/2-x,1/2+y,z
1/2+x,1/2-y,z
loop_
_atom_site_type_symbol
_atom_site_label
_atom_site_fract_x
_atom_site_fract_y
_atom_site_fract_z
Si Si1 0.187439 0.763670 0.258480
Si Si2 0.150824 0.654987 0.452781
Si Si3 0.561595 0.929982 0.938592
Si Si4 0.674683 0.376588 0.481377
Si Si5 0.728224 0.929557 0.645407
Si Si6 0.062509 0.066255 0.026826
O O1 0.250000 0.750000 0.218389
O O2 0.160712 0.700612 0.301295
O O3 0.186089 0.808853 0.420687
O O4 0.156592 0.801284 0.116242
O O5 0.194824 0.604521 0.498984
O O6 0.095429 0.619564 0.445423
O O7 0.500000 0.912156 0.985308
O O8 0.611788 0.891621 0.005801
O O9 0.565058 0.927575 0.732131
O O10 0.568513 0.000000 0.986295
O O11 0.696255 0.415379 0.318614
O O12 0.712875 0.399851 0.631342
O O13 0.731291 0.000000 0.619007
O O14 0.000000 0.067777 0.978169
O O15 0.084531 0.000000 0.984878
#
# Coordination Sequence:
#
# PCOD9369845 Si02
#       6
#    16  16  16  16  16  16
#     4  11  22  36  52  76 111 155 186 221 269 337
#     4  11  22  35  55  80 111 148 189 224 279 334
#     4   9  16  30  54  82 109 138 181 236 283 325
#     4  11  22  35  54  84 115 149 190 230 288 345
#     4  11  21  34  54  80 114 143 183 242 288 339
#     4   9  17  33  58  85 109 137 184 244 290 327
#
# _framework density 22.044063000000001
#
# number of rings (size 3 to 8) (size 9 to 14) (size 15 to 20)
#    0.000    1.667    5.000    3.500    2.333    0.000 
#    0.000    1.667    0.000    0.000    0.000    2.333 
#    0.000   21.333    0.000    0.000    0.000    0.000 
#
# Total GULP energy -134256.937752 kJ/mol
# GULP energy per Si atom -5594.039073 kJ/mol
# Density = 2.199389 g / cm^3
# Si number density = 22.044063 Si / 1000 Ang^3
#
#
#
# Elastic Constant Matrix: (Units=GPa)
#
#
# Indices 1 2 3 4 5 6 
#
# 1 146.6809 65.0671 16.0390 0.0009 -0.0004 -0.0001
# 2 65.0671 169.4749 19.2933 0.0017 -0.0010 -0.0002
# 3 16.0390 19.2933 66.1931 0.0039 -0.0023 -0.0005
# 4 0.0009 0.0017 0.0039 -5.1959 -0.0009 -0.0003
# 5 -0.0004 -0.0010 -0.0023 -0.0009 19.1419 0.0002
# 6 -0.0001 -0.0002 -0.0005 -0.0003 0.0002 40.9927
#
#
#
# Elastic Compliance Matrix: (Units=1/GPa)
#
#
# Indices 1 2 3 4 5 6 
#
# 1 0.008296 -0.003058 -0.001119 0.000000 0.000000 0.000000
# 2 -0.003058 0.007230 -0.001366 0.000001 0.000000 0.000000
# 3 -0.001119 -0.001366 0.015777 0.000011 0.000002 0.000000
# 4 0.000000 0.000001 0.000011 -0.192461 -0.000009 -0.000002
# 5 0.000000 0.000000 0.000002 -0.000009 0.052241 0.000000
# 6 0.000000 0.000000 0.000000 -0.000002 0.000000 0.024395
#
#
# Mechanical properties :
#
#
# Convention : Reuss Voigt Hill
#
# Bulk Modulus (GPa) = 49.46411 64.79417 57.12914
# Shear Modulus (GPa) = -74.96684 29.78437 -22.59123
#
# Velocity S-wave (km/s) = -5.83794 3.67976 -3.20476
# Velocity P-wave (km/s) = 4.79110 6.89282 3.50403
#
# Compressibility (1/GPa) = 0.02021668
#
# Stress axis : x y z
#
# Youngs Moduli (GPa) = 120.53525 138.30979 63.38447
#
# Poissons Ratio (x) = 0.42293 0.07093
# Poissons Ratio (y) = 0.36858 0.08661
# Poissons Ratio (z) = 0.13488 0.18899
#
# Static dielectric constant tensor:
#      x y z
#    x 1.793130 0.000000 0.000000 
#    y 0.000000 1.777770 0.000000 
#    z 0.000000 0.000000 1.931880 
# 
# From -- ./inp_files/4736.got.cif
#   From: 2010.05.17/outbox.cif.g08.bks.cpg/sg42_3_cif.got.tgz:4736.got - 2010.06.03 19:03:34.
