data_PCOD9369877
_publ_section_title
;
Structure prediction by ZEFSAII (Michael W. Deem and Ramdas Pophale) SiO2 
 PCOD9369877
Probable space group: F M M 2
;
_chemical_formula_sum "Si O2"
_cell_formula_units_Z 100
_cell_length_a 7.460824
_cell_length_b 21.240823
_cell_length_c 30.310712
_cell_angle_alpha 90.000000
_cell_angle_beta 90.000000
_cell_angle_gamma 90.000000
_cell_volume 4803.461047
_symmetry_space_group_name_H-M "F M M 2"
_symmetry_group_IT_number 42
_symmetry_cell_setting 'orthorhombic'
loop_
_space_group_symop_operation_xyz
x,y,z
-x,-y,z
-x,y,z
x,-y,z
x,1/2+y,1/2+z
-x,1/2-y,1/2+z
-x,1/2+y,1/2+z
x,1/2-y,1/2+z
1/2+x,y,1/2+z
1/2-x,-y,1/2+z
1/2-x,y,1/2+z
1/2+x,-y,1/2+z
1/2+x,1/2+y,z
1/2-x,1/2-y,z
1/2-x,1/2+y,z
1/2+x,1/2-y,z
loop_
_atom_site_type_symbol
_atom_site_label
_atom_site_fract_x
_atom_site_fract_y
_atom_site_fract_z
Si Si1 0.713012 0.320775 0.804220
Si Si2 0.706050 0.394962 0.223066
Si Si3 0.500000 0.000000 0.244474
Si Si4 0.214819 0.322363 0.538513
Si Si5 0.214037 0.322378 0.638299
Si Si6 0.781424 0.570930 0.471642
Si Si7 0.218596 0.570662 0.369851
O O1 0.500000 0.327540 0.800890
O O2 0.750000 0.250000 0.818967
O O3 0.793081 0.336122 0.756546
O O4 0.780353 0.373819 0.838219
O O5 0.500000 0.417444 0.219095
O O6 0.842269 0.445498 0.242505
O O7 0.774874 0.370769 0.175540
O O8 0.250000 0.250000 0.525482
O O9 0.284163 0.331752 0.588505
O O10 0.281906 0.374326 0.504156
O O11 0.000000 0.329272 0.540270
O O12 0.250000 0.250000 0.650734
O O13 0.000000 0.329565 0.636638
O O14 0.727767 0.500000 0.484983
O O15 0.727587 0.580466 0.420716
O O16 0.000000 0.571890 0.471818
O O17 0.273462 0.500000 0.356000
O O18 0.000000 0.570664 0.368841
#
# Coordination Sequence:
#
# PCOD9369877 Si02
#       7
#    16  16   4  16  16  16  16
#     4  11  22  36  58  86 119 155 202 254 302 356
#     4  11  24  42  63  90 123 159 203 245 295 357
#     4  12  26  44  64  90 124 164 196 248 300 362
#     4   9  17  31  52  80 110 144 189 237 289 347
#     4   9  19  34  56  82 112 151 195 246 296 353
#     4   8  14  28  50  77 106 145 193 240 291 352
#     4   8  16  30  52  78 109 149 196 244 298 360
#
# _framework density 20.818322999999999
#
# number of rings (size 3 to 8) (size 9 to 14) (size 15 to 20)
#    0.000    2.560    0.800    2.160    2.240    1.920 
#    1.440    0.000    0.000    1.440    0.000    4.480 
#    0.000    0.000    0.000    0.000    0.000    0.000 
#
# Total GULP energy -139302.698110 kJ/mol
# GULP energy per Si atom -5572.107924 kJ/mol
# Density = 2.077094 g / cm^3
# Si number density = 20.818323 Si / 1000 Ang^3
#
#
#
# Elastic Constant Matrix: (Units=GPa)
#
#
# Indices 1 2 3 4 5 6 
#
# 1 86.6193 11.6597 5.8538 0.0000 0.0000 0.0000
# 2 11.6597 147.1655 80.2176 0.0000 0.0000 0.0000
# 3 5.8538 80.2176 90.4686 0.0000 0.0000 0.0000
# 4 0.0000 0.0000 0.0000 -164.6790 0.0000 0.0000
# 5 0.0000 0.0000 0.0000 0.0000 2.6219 0.0000
# 6 0.0000 0.0000 0.0000 0.0000 0.0000 45.7144
#
#
#
# Elastic Compliance Matrix: (Units=1/GPa)
#
#
# Indices 1 2 3 4 5 6 
#
# 1 0.011670 -0.000993 0.000125 0.000000 0.000000 0.000000
# 2 -0.000993 0.013236 -0.011672 0.000000 0.000000 0.000000
# 3 0.000125 -0.011672 0.021395 0.000000 0.000000 0.000000
# 4 0.000000 0.000000 0.000000 -0.006072 0.000000 0.000000
# 5 0.000000 0.000000 0.000000 0.000000 0.381406 0.000000
# 6 0.000000 0.000000 0.000000 0.000000 0.000000 0.021875
#
#
# Mechanical properties :
#
#
# Convention : Reuss Voigt Hill
#
# Bulk Modulus (GPa) = 47.12167 57.74616 52.43391
# Shear Modulus (GPa) = 10.51166 -8.16705 1.17230
#
# Velocity S-wave (km/s) = 2.24949 -1.98281 0.75122
# Velocity P-wave (km/s) = 5.42501 4.74935 5.09839
#
# Compressibility (1/GPa) = 0.02122166
#
# Stress axis : x y z
#
# Youngs Moduli (GPa) = 85.69011 75.55208 46.74033
#
# Poissons Ratio (x) = 0.07501 -0.00585
# Poissons Ratio (y) = 0.08508 0.54555
# Poissons Ratio (z) = -0.01073 0.88184
#
# Static dielectric constant tensor:
#      x y z
#    x 1.807080 0.000000 0.000000 
#    y 0.000000 1.768470 0.000000 
#    z 0.000000 0.000000 1.753990 
# 
# From -- ./inp_files/33853.got.cif
#   From: 2010.05.17/outbox.cif.g08.bks.cpg/sg42_17_cif.got.tgz:33853.got - 2010.06.03 19:03:34.
