data_PCOD9369107
_publ_section_title
;
Structure prediction by ZEFSAII (Michael W. Deem and Ramdas Pophale) SiO2 
 PCOD9369107
Probable space group: F M M 2
;
_chemical_formula_sum "Si O2"
_cell_formula_units_Z 112
_cell_length_a 21.508150
_cell_length_b 25.564925
_cell_length_c 9.749420
_cell_angle_alpha 90.000000
_cell_angle_beta 90.000000
_cell_angle_gamma 90.000000
_cell_volume 5360.759941
_symmetry_space_group_name_H-M "F M M 2"
_symmetry_group_IT_number 42
_symmetry_cell_setting 'orthorhombic'
loop_
_space_group_symop_operation_xyz
x,y,z
-x,-y,z
-x,y,z
x,-y,z
x,1/2+y,1/2+z
-x,1/2-y,1/2+z
-x,1/2+y,1/2+z
x,1/2-y,1/2+z
1/2+x,y,1/2+z
1/2-x,-y,1/2+z
1/2-x,y,1/2+z
1/2+x,-y,1/2+z
1/2+x,1/2+y,z
1/2-x,1/2-y,z
1/2-x,1/2+y,z
1/2+x,1/2-y,z
loop_
_atom_site_type_symbol
_atom_site_label
_atom_site_fract_x
_atom_site_fract_y
_atom_site_fract_z
Si Si1 0.855077 0.058236 0.945020
Si Si2 0.363056 0.942256 0.770964
Si Si3 0.070278 0.851399 0.285368
Si Si4 0.925028 0.226813 0.522369
Si Si5 0.256802 0.369852 0.390149
Si Si6 0.573277 0.156734 0.477616
Si Si7 0.703329 0.299358 0.649797
O O1 0.786653 0.081108 0.927826
O O2 0.897001 0.107721 0.898933
O O3 0.863927 0.000000 0.883949
O O4 0.866125 0.052727 0.107378
O O5 0.425411 0.912850 0.817159
O O6 0.313197 0.898419 0.812951
O O7 0.352213 0.000000 0.828633
O O8 0.091500 0.817034 0.410930
O O9 0.000000 0.833690 0.265629
O O10 0.098944 0.843413 0.134890
O O11 0.918284 0.282464 0.444804
O O12 0.869008 0.218963 0.632365
O O13 0.000000 0.222678 0.563605
O O14 0.278352 0.338080 0.524019
O O15 0.219870 0.330609 0.289093
O O16 0.500000 0.146183 0.478262
O O17 0.750000 0.250000 0.642768
#
# Coordination Sequence:
#
# PCOD9369107 Si02
#       7
#    16  16  16  16  16  16  16
#     4  10  21  38  60  86 119 157 203 255 309 372
#     4  10  20  36  59  86 119 157 204 260 317 370
#     4   9  18  34  57  85 118 157 206 258 314 376
#     4  10  21  38  61  90 125 167 211 260 322 389
#     4  12  23  42  59  91 125 161 211 259 319 377
#     4   9  19  34  56  86 119 157 202 254 312 372
#     4  12  26  40  65  94 131 171 211 265 321 391
#
# _framework density 20.892558999999999
#
# number of rings (size 3 to 8) (size 9 to 14) (size 15 to 20)
#    0.000    1.714    2.857    1.714    2.000    2.857 
#    0.000    5.000    0.000    0.000    0.000    0.000 
#    0.000    0.000    0.000    0.000    0.000    0.000 
#
# Total GULP energy -155870.545994 kJ/mol
# GULP energy per Si atom -5566.805214 kJ/mol
# Density = 2.084501 g / cm^3
# Si number density = 20.892559 Si / 1000 Ang^3
#
#
#
# Elastic Constant Matrix: (Units=GPa)
#
#
# Indices 1 2 3 4 5 6 
#
# 1 65.3507 24.4209 16.2293 0.0000 0.0000 -0.0001
# 2 24.4209 111.3873 17.3748 0.0000 0.0000 0.0001
# 3 16.2293 17.3748 27.3025 -0.0003 0.0002 0.0014
# 4 0.0000 0.0000 -0.0003 6.7169 0.0001 0.0014
# 5 0.0000 0.0000 0.0002 0.0001 15.5565 -0.0002
# 6 -0.0001 0.0001 0.0014 0.0014 -0.0002 -572.4901
#
#
#
# Elastic Compliance Matrix: (Units=1/GPa)
#
#
# Indices 1 2 3 4 5 6 
#
# 1 0.018614 -0.002615 -0.009401 0.000000 0.000000 0.000000
# 2 -0.002615 0.010334 -0.005022 0.000000 0.000000 0.000000
# 3 -0.009401 -0.005022 0.045411 0.000002 0.000000 0.000000
# 4 0.000000 0.000000 0.000002 0.148879 -0.000001 0.000000
# 5 0.000000 0.000000 0.000000 -0.000001 0.064282 0.000000
# 6 0.000000 0.000000 0.000000 0.000000 0.000000 -0.001747
#
#
# Mechanical properties :
#
#
# Convention : Reuss Voigt Hill
#
# Bulk Modulus (GPa) = 24.82392 35.56559 30.19476
# Shear Modulus (GPa) = 15.00258 -100.30899 -42.65321
#
# Velocity S-wave (km/s) = 2.68261 -6.93657 -4.52325
# Velocity P-wave (km/s) = 4.63710 6.86256 3.57715
#
# Compressibility (1/GPa) = 0.04028372
#
# Stress axis : x y z
#
# Youngs Moduli (GPa) = 53.72405 96.76487 22.02120
#
# Poissons Ratio (x) = 0.25300 0.20701
# Poissons Ratio (y) = 0.14046 0.11060
# Poissons Ratio (z) = 0.50504 0.48599
#
# Static dielectric constant tensor:
#      x y z
#    x 1.890170 0.000000 0.000000 
#    y 0.000000 1.795230 0.000000 
#    z 0.000000 0.000000 1.788110 
# 
# From -- ./inp_files/10253.got.cif
#   From: 2010.05.17/outbox.cif.g08.bks.cpg/sg42_6_cif.got.tgz:10253.got - 2010.06.03 19:03:34.
