data_PCOD9369223
_publ_section_title
;
Structure prediction by ZEFSAII (Michael W. Deem and Ramdas Pophale) SiO2 
 PCOD9369223
Probable space group: F M M 2
;
_chemical_formula_sum "Si O2"
_cell_formula_units_Z 92
_cell_length_a 12.858686
_cell_length_b 23.169298
_cell_length_c 17.690708
_cell_angle_alpha 90.000000
_cell_angle_beta 90.000000
_cell_angle_gamma 90.000000
_cell_volume 5270.534747
_symmetry_space_group_name_H-M "F M M 2"
_symmetry_group_IT_number 42
_symmetry_cell_setting 'orthorhombic'
loop_
_space_group_symop_operation_xyz
x,y,z
-x,-y,z
-x,y,z
x,-y,z
x,1/2+y,1/2+z
-x,1/2-y,1/2+z
-x,1/2+y,1/2+z
x,1/2-y,1/2+z
1/2+x,y,1/2+z
1/2-x,-y,1/2+z
1/2-x,y,1/2+z
1/2+x,-y,1/2+z
1/2+x,1/2+y,z
1/2-x,1/2-y,z
1/2-x,1/2+y,z
1/2+x,1/2-y,z
loop_
_atom_site_type_symbol
_atom_site_label
_atom_site_fract_x
_atom_site_fract_y
_atom_site_fract_z
Si Si1 0.878615 0.654297 0.010170
Si Si2 0.750000 0.250000 0.598876
Si Si3 0.707541 0.568244 0.628682
Si Si4 0.879345 0.846533 0.181453
Si Si5 0.163076 0.891220 0.345681
Si Si6 0.615959 0.930874 0.292902
Si Si7 0.000000 0.000000 0.345615
O O1 0.814513 0.706335 0.046691
O O2 0.845709 0.597127 0.056687
O O3 0.000000 0.664727 0.021009
O O4 0.856480 0.642971 0.922578
O O5 0.824618 0.289027 0.650824
O O6 0.719566 0.500000 0.620597
O O7 0.816759 0.599893 0.644489
O O8 0.639194 0.580012 0.703975
O O9 0.866728 0.854881 0.271230
O O10 0.000000 0.847662 0.161402
O O11 0.285472 0.906160 0.337495
O O12 0.091495 0.948769 0.345106
O O13 0.500000 0.909567 0.312672
O O14 0.616888 0.000000 0.302632
#
# Coordination Sequence:
#
# PCOD9369223 Si02
#       7
#    16   8  16  16  16  16   4
#     4  11  22  38  58  83 114 152 193 242 297 344
#     4  10  24  42  58  78 110 152 202 252 282 340
#     4   9  20  32  54  86 118 151 192 233 291 354
#     4  10  20  38  60  83 111 151 197 244 293 344
#     4  11  22  34  59  90 117 152 187 230 297 351
#     4   9  17  32  50  76 114 155 188 223 266 335
#     4  12  20  36  54  96 132 144 176 240 290 368
#
# _framework density 17.455534
#
# number of rings (size 3 to 8) (size 9 to 14) (size 15 to 20)
#    0.000    1.913    2.609    1.043    2.435    2.087 
#    0.000    5.217    0.000    0.000    0.000    0.000 
#    0.000    0.000    0.000    0.000    0.000    0.000 
#
# Total GULP energy -128064.255793 kJ/mol
# GULP energy per Si atom -5568.011121 kJ/mol
# Density = 1.741580 g / cm^3
# Si number density = 17.455534 Si / 1000 Ang^3
#
#
#
# Elastic Constant Matrix: (Units=GPa)
#
#
# Indices 1 2 3 4 5 6 
#
# 1 177.0088 53.5775 38.9979 0.0000 0.0000 0.0000
# 2 53.5775 99.9538 48.4934 0.0000 0.0000 0.0000
# 3 38.9979 48.4934 85.0967 0.0000 0.0000 0.0000
# 4 0.0000 0.0000 0.0000 9.6368 0.0000 0.0000
# 5 0.0000 0.0000 0.0000 0.0000 7.2235 0.0000
# 6 0.0000 0.0000 0.0000 0.0000 0.0000 17.0879
#
#
#
# Elastic Compliance Matrix: (Units=1/GPa)
#
#
# Indices 1 2 3 4 5 6 
#
# 1 0.006871 -0.002979 -0.001451 0.000000 0.000000 0.000000
# 2 -0.002979 0.015119 -0.007251 0.000000 0.000000 0.000000
# 3 -0.001451 -0.007251 0.016548 0.000000 0.000000 0.000000
# 4 0.000000 0.000000 0.000000 0.103769 0.000000 0.000000
# 5 0.000000 0.000000 0.000000 0.000000 0.138437 0.000000
# 6 0.000000 0.000000 0.000000 0.000000 0.000000 0.058521
#
#
# Mechanical properties :
#
#
# Convention : Reuss Voigt Hill
#
# Bulk Modulus (GPa) = 65.89030 71.57743 68.73387
# Shear Modulus (GPa) = 13.59858 21.52234 17.56046
#
# Velocity S-wave (km/s) = 2.79416 3.51519 3.17521
# Velocity P-wave (km/s) = 6.94545 7.58749 7.27356
#
# Compressibility (1/GPa) = 0.01517674
#
# Stress axis : x y z
#
# Youngs Moduli (GPa) = 145.54340 66.14172 60.42935
#
# Poissons Ratio (x) = 0.19703 0.08770
# Poissons Ratio (y) = 0.43355 0.43815
# Poissons Ratio (z) = 0.21121 0.47957
#
# Static dielectric constant tensor:
#      x y z
#    x 1.597150 0.000000 0.000000 
#    y 0.000000 1.570900 0.000000 
#    z 0.000000 0.000000 1.594910 
# 
# From -- ./inp_files/19149.got.cif
#   From: 2010.05.17/outbox.cif.g08.bks.cpg/sg42_10_cif.got.tgz:19149.got - 2010.06.03 19:03:34.
