data_PCOD9369437
_publ_section_title
;
Structure prediction by ZEFSAII (Michael W. Deem and Ramdas Pophale) SiO2 
 PCOD9369437
Probable space group: F M M 2
;
_chemical_formula_sum "Si O2"
_cell_formula_units_Z 116
_cell_length_a 17.960039
_cell_length_b 20.030113
_cell_length_c 17.494552
_cell_angle_alpha 90.000000
_cell_angle_beta 90.000000
_cell_angle_gamma 90.000000
_cell_volume 6293.518314
_symmetry_space_group_name_H-M "F M M 2"
_symmetry_group_IT_number 42
_symmetry_cell_setting 'orthorhombic'
loop_
_space_group_symop_operation_xyz
x,y,z
-x,-y,z
-x,y,z
x,-y,z
x,1/2+y,1/2+z
-x,1/2-y,1/2+z
-x,1/2+y,1/2+z
x,1/2-y,1/2+z
1/2+x,y,1/2+z
1/2-x,-y,1/2+z
1/2-x,y,1/2+z
1/2+x,-y,1/2+z
1/2+x,1/2+y,z
1/2-x,1/2-y,z
1/2-x,1/2+y,z
1/2+x,1/2-y,z
loop_
_atom_site_type_symbol
_atom_site_label
_atom_site_fract_x
_atom_site_fract_y
_atom_site_fract_z
Si Si1 0.367333 0.613426 0.733440
Si Si2 0.414043 0.079908 0.681349
Si Si3 0.588659 0.797001 0.376793
Si Si4 0.500000 0.000000 0.227436
Si Si5 0.088773 0.165327 0.041085
Si Si6 0.676576 0.791039 0.096519
Si Si7 0.806224 0.811037 0.422045
Si Si8 0.789319 0.423314 0.801398
O O1 0.383918 0.667238 0.800528
O O2 0.433706 0.559314 0.728612
O O3 0.353062 0.655083 0.655935
O O4 0.288676 0.580769 0.756870
O O5 0.500000 0.101768 0.695327
O O6 0.388259 0.107795 0.599372
O O7 0.355831 0.101085 0.745863
O O8 0.413926 0.000000 0.679250
O O9 0.500000 0.798023 0.374994
O O10 0.615338 0.836823 0.453424
O O11 0.617095 0.722016 0.392128
O O12 0.116016 0.234247 0.077967
O O13 0.000000 0.163865 0.037567
O O14 0.750000 0.750000 0.123619
O O15 0.694490 0.821887 0.013075
O O16 0.750000 0.750000 0.405616
O O17 0.787010 0.875738 0.374313
O O18 0.804240 0.500000 0.822401
#
# Coordination Sequence:
#
# PCOD9369437 Si02
#       8
#    16  16  16   4  16  16  16  16
#     4  12  24  42  64  89 123 175 210 257 306 380
#     4   9  19  36  58  88 126 162 202 255 322 385
#     4  10  21  37  61  91 122 154 210 259 317 370
#     4  12  28  48  60  88 142 176 220 256 304 384
#     4   9  19  36  57  90 121 152 196 262 315 379
#     4  10  23  39  64  91 122 154 210 266 320 366
#     4  10  21  40  64  91 123 154 205 272 324 378
#     4  11  23  40  62  91 126 164 209 258 316 386
#
# _framework density 18.431660999999998
#
# number of rings (size 3 to 8) (size 9 to 14) (size 15 to 20)
#    0.000    1.793    2.759    0.828    4.828    0.552 
#    2.483    0.000    0.000    0.000    0.000    0.000 
#    0.000    0.000    0.000    0.000    0.000    0.000 
#
# Total GULP energy -161467.579665 kJ/mol
# GULP energy per Si atom -5567.847575 kJ/mol
# Density = 1.838971 g / cm^3
# Si number density = 18.431661 Si / 1000 Ang^3
#
#
#
# Elastic Constant Matrix: (Units=GPa)
#
#
# Indices 1 2 3 4 5 6 
#
# 1 74.9985 31.6472 43.8973 0.0000 0.0000 0.0000
# 2 31.6472 61.7839 63.1882 0.0000 0.0000 0.0000
# 3 43.8973 63.1882 104.6918 0.0000 0.0000 0.0000
# 4 0.0000 0.0000 0.0000 20.8842 0.0000 0.0000
# 5 0.0000 0.0000 0.0000 0.0000 24.9243 0.0000
# 6 0.0000 0.0000 0.0000 0.0000 0.0000 36.1551
#
#
#
# Elastic Compliance Matrix: (Units=1/GPa)
#
#
# Indices 1 2 3 4 5 6 
#
# 1 0.018028 -0.003928 -0.005188 0.000000 0.000000 0.000000
# 2 -0.003928 0.043147 -0.024395 0.000000 0.000000 0.000000
# 3 -0.005188 -0.024395 0.026451 0.000000 0.000000 0.000000
# 4 0.000000 0.000000 0.000000 0.047883 0.000000 0.000000
# 5 0.000000 0.000000 0.000000 0.000000 0.040121 0.000000
# 6 0.000000 0.000000 0.000000 0.000000 0.000000 0.027659
#
#
# Mechanical properties :
#
#
# Convention : Reuss Voigt Hill
#
# Bulk Modulus (GPa) = 48.53556 57.65996 53.09776
# Shear Modulus (GPa) = 18.03888 23.24217 20.64052
#
# Velocity S-wave (km/s) = 3.13180 3.55490 3.35003
# Velocity P-wave (km/s) = 6.28231 6.94268 6.62073
#
# Compressibility (1/GPa) = 0.02060345
#
# Stress axis : x y z
#
# Youngs Moduli (GPa) = 55.46964 23.17666 37.80566
#
# Poissons Ratio (x) = 0.09104 0.19614
# Poissons Ratio (y) = 0.21790 0.92226
# Poissons Ratio (z) = 0.28779 0.56539
#
# Static dielectric constant tensor:
#      x y z
#    x 1.682930 0.000000 0.000000 
#    y 0.000000 1.618910 0.000000 
#    z 0.000000 0.000000 1.642750 
# 
# From -- ./inp_files/20975.got.cif
#   From: 2010.05.17/outbox.cif.g08.bks.cpg/sg42_11_cif.got.tgz:20975.got - 2010.06.03 19:03:34.
