data_PCOD9369732
_publ_section_title
;
Structure prediction by ZEFSAII (Michael W. Deem and Ramdas Pophale) SiO2 
 PCOD9369732
Probable space group: F M M 2
;
_chemical_formula_sum "Si O2"
_cell_formula_units_Z 68
_cell_length_a 17.847308
_cell_length_b 9.727748
_cell_length_c 17.688187
_cell_angle_alpha 90.000000
_cell_angle_beta 90.000000
_cell_angle_gamma 90.000000
_cell_volume 3070.918927
_symmetry_space_group_name_H-M "F M M 2"
_symmetry_group_IT_number 42
_symmetry_cell_setting 'orthorhombic'
loop_
_space_group_symop_operation_xyz
x,y,z
-x,-y,z
-x,y,z
x,-y,z
x,1/2+y,1/2+z
-x,1/2-y,1/2+z
-x,1/2+y,1/2+z
x,1/2-y,1/2+z
1/2+x,y,1/2+z
1/2-x,-y,1/2+z
1/2-x,y,1/2+z
1/2+x,-y,1/2+z
1/2+x,1/2+y,z
1/2-x,1/2-y,z
1/2-x,1/2+y,z
1/2+x,1/2-y,z
loop_
_atom_site_type_symbol
_atom_site_label
_atom_site_fract_x
_atom_site_fract_y
_atom_site_fract_z
Si Si1 0.137784 0.500000 0.823830
Si Si2 0.210128 0.500000 0.527963
Si Si3 0.620754 0.758585 0.595151
Si Si4 0.000000 0.500000 0.613403
Si Si5 0.114075 0.500000 0.998383
Si Si6 0.409850 0.787455 0.258076
Si Si7 0.817994 0.000000 0.854020
O O1 0.106778 0.369279 0.779473
O O2 0.229191 0.500000 0.831909
O O3 0.104462 0.500000 0.908642
O O4 0.188639 0.355280 0.566903
O O5 0.297823 0.500000 0.515562
O O6 0.174342 0.500000 0.444318
O O7 0.590931 0.644140 0.536438
O O8 0.626236 0.683593 0.676011
O O9 0.562646 0.879457 0.610045
O O10 0.500000 0.814672 0.258110
O O11 0.363004 0.872588 0.319253
#
# Coordination Sequence:
#
# PCOD9369732 Si02
#       7
#     8   8  16   4   8  16   8
#     4  11  25  46  70  96 140 181 223 280 344 408
#     4  10  23  44  68  97 140 177 220 278 345 415
#     4  11  23  42  70  91 136 177 221 278 339 403
#     4  10  22  44  58  90 128 182 206 268 348 388
#     4  11  24  43  67 106 128 171 233 290 329 402
#     4  12  25  44  67 102 137 180 223 285 336 410
#     4  11  25  46  68 100 138 179 227 280 340 406
#
# _framework density 22.14321
#
# number of rings (size 3 to 8) (size 9 to 14) (size 15 to 20)
#    0.000    0.941    1.176    5.647    0.000    9.882 
#   21.176    0.000    0.000    0.000    0.000    0.000 
#    0.000    0.000    0.000    0.000    0.000    0.000 
#
# Total GULP energy -94702.131764 kJ/mol
# GULP energy per Si atom -5570.713633 kJ/mol
# Density = 2.209281 g / cm^3
# Si number density = 22.143210 Si / 1000 Ang^3
#
#
#
# Elastic Constant Matrix: (Units=GPa)
#
#
# Indices 1 2 3 4 5 6 
#
# 1 65.4660 12.5161 48.4442 0.0000 0.0000 0.0000
# 2 12.5161 123.6783 34.1713 0.0000 0.0000 0.0000
# 3 48.4442 34.1713 124.6924 0.0000 0.0000 0.0000
# 4 0.0000 0.0000 0.0000 35.8547 0.0000 0.0000
# 5 0.0000 0.0000 0.0000 0.0000 58.0230 0.0000
# 6 0.0000 0.0000 0.0000 0.0000 0.0000 55.4783
#
#
#
# Elastic Compliance Matrix: (Units=1/GPa)
#
#
# Indices 1 2 3 4 5 6 
#
# 1 0.021441 0.000143 -0.008369 0.000000 0.000000 0.000000
# 2 0.000143 0.008749 -0.002453 0.000000 0.000000 0.000000
# 3 -0.008369 -0.002453 0.011943 0.000000 0.000000 0.000000
# 4 0.000000 0.000000 0.000000 0.027890 0.000000 0.000000
# 5 0.000000 0.000000 0.000000 0.000000 0.017235 0.000000
# 6 0.000000 0.000000 0.000000 0.000000 0.000000 0.018025
#
#
# Mechanical properties :
#
#
# Convention : Reuss Voigt Hill
#
# Bulk Modulus (GPa) = 48.13678 56.01110 52.07394
# Shear Modulus (GPa) = 37.43452 44.45155 40.94303
#
# Velocity S-wave (km/s) = 4.11611 4.48533 4.30468
# Velocity P-wave (km/s) = 6.66152 7.22316 6.94802
#
# Compressibility (1/GPa) = 0.02077414
#
# Stress axis : x y z
#
# Youngs Moduli (GPa) = 46.63998 114.30148 83.72832
#
# Poissons Ratio (x) = -0.01629 0.70072
# Poissons Ratio (y) = -0.00665 0.20538
# Poissons Ratio (z) = 0.39033 0.28037
#
# Static dielectric constant tensor:
#      x y z
#    x 1.804650 0.000000 0.000000 
#    y 0.000000 1.747030 0.000000 
#    z 0.000000 0.000000 1.853230 
# 
# From -- ./inp_files/21406.got.cif
#   From: 2010.05.17/outbox.cif.g08.bks.cpg/sg42_11_cif.got.tgz:21406.got - 2010.06.03 19:03:34.
