data_PCOD9369315
_publ_section_title
;
Structure prediction by ZEFSAII (Michael W. Deem and Ramdas Pophale) SiO2 
 PCOD9369315
Probable space group: F M M 2
;
_chemical_formula_sum "Si O2"
_cell_formula_units_Z 100
_cell_length_a 32.111813
_cell_length_b 19.290958
_cell_length_c 7.081526
_cell_angle_alpha 90.000000
_cell_angle_beta 90.000000
_cell_angle_gamma 90.000000
_cell_volume 4386.776170
_symmetry_space_group_name_H-M "F M M 2"
_symmetry_group_IT_number 42
_symmetry_cell_setting 'orthorhombic'
loop_
_space_group_symop_operation_xyz
x,y,z
-x,-y,z
-x,y,z
x,-y,z
x,1/2+y,1/2+z
-x,1/2-y,1/2+z
-x,1/2+y,1/2+z
x,1/2-y,1/2+z
1/2+x,y,1/2+z
1/2-x,-y,1/2+z
1/2-x,y,1/2+z
1/2+x,-y,1/2+z
1/2+x,1/2+y,z
1/2-x,1/2-y,z
1/2-x,1/2+y,z
1/2+x,1/2-y,z
loop_
_atom_site_type_symbol
_atom_site_label
_atom_site_fract_x
_atom_site_fract_y
_atom_site_fract_z
Si Si1 0.286717 0.577750 0.293180
Si Si2 0.805491 0.920426 0.849939
Si Si3 0.128665 0.186579 0.939824
Si Si4 0.043382 0.371571 0.418263
Si Si5 0.452704 0.416802 0.358249
Si Si6 0.000000 0.000000 0.760769
Si Si7 0.866827 0.154225 0.381772
O O1 0.280821 0.500000 0.367695
O O2 0.239944 0.606980 0.287956
O O3 0.323694 0.612845 0.410121
O O4 0.301199 0.574457 0.077321
O O5 0.841008 0.863153 0.821122
O O6 0.813863 0.000000 0.784394
O O7 0.082104 0.174875 0.867185
O O8 0.138634 0.267230 0.947722
O O9 0.129518 0.160703 0.154514
O O10 0.047588 0.401928 0.631637
O O11 0.000000 0.330284 0.413169
O O12 0.035635 0.438601 0.289019
O O13 0.500000 0.395429 0.420340
O O14 0.451190 0.500000 0.386265
O O15 0.410879 0.381006 0.438080
#
# Coordination Sequence:
#
# PCOD9369315 Si02
#       7
#    16  16  16  16  16   4  16
#     4   9  18  35  53  76  94 123 161 205 247 283
#     4   9  19  33  55  74  96 121 162 207 244 283
#     4  10  21  33  48  74 101 133 161 195 239 291
#     4   8  14  25  47  74 100 118 158 203 245 274
#     4   9  14  27  50  77  95 122 164 209 241 276
#     4   8  12  24  48  76  96 122 154 216 240 274
#     4  10  21  33  49  71 104 132 160 195 241 290
#
# _framework density 22.795784999999999
#
# number of rings (size 3 to 8) (size 9 to 14) (size 15 to 20)
#    0.480    2.400    0.800    0.480    1.120    4.480 
#    0.000    3.200    0.000    0.960    0.000    0.000 
#    0.000    0.000    0.000    0.000    0.000    0.000 
#
# Total GULP energy -139191.582100 kJ/mol
# GULP energy per Si atom -5567.663284 kJ/mol
# Density = 2.274390 g / cm^3
# Si number density = 22.795785 Si / 1000 Ang^3
#
#
#
# Elastic Constant Matrix: (Units=GPa)
#
#
# Indices 1 2 3 4 5 6 
#
# 1 193.0823 75.6300 -14.4476 -0.0001 0.0000 -0.0001
# 2 75.6300 73.9549 -20.6535 0.0000 0.0000 -0.0001
# 3 -14.4476 -20.6535 47.0072 0.0000 0.0000 0.0000
# 4 -0.0001 0.0000 0.0000 16.8568 0.0000 0.0000
# 5 0.0000 0.0000 0.0000 0.0000 20.5104 0.0000
# 6 -0.0001 -0.0001 0.0000 0.0000 0.0000 68.2104
#
#
#
# Elastic Compliance Matrix: (Units=1/GPa)
#
#
# Indices 1 2 3 4 5 6 
#
# 1 0.008722 -0.009313 -0.001411 0.000000 0.000000 0.000000
# 2 -0.009313 0.025358 0.008279 0.000000 0.000000 0.000000
# 3 -0.001411 0.008279 0.024477 0.000000 0.000000 0.000000
# 4 0.000000 0.000000 0.000000 0.059323 0.000000 0.000000
# 5 0.000000 0.000000 0.000000 0.000000 0.048756 0.000000
# 6 0.000000 0.000000 0.000000 0.000000 0.000000 0.014661
#
#
# Mechanical properties :
#
#
# Convention : Reuss Voigt Hill
#
# Bulk Modulus (GPa) = 18.63385 43.90026 31.26705
# Shear Modulus (GPa) = 24.50070 39.34987 31.92529
#
# Velocity S-wave (km/s) = 3.28196 4.15925 3.74637
# Velocity P-wave (km/s) = 4.74907 6.50889 5.69734
#
# Compressibility (1/GPa) = 0.05366578
#
# Stress axis : x y z
#
# Youngs Moduli (GPa) = 114.65915 39.43517 40.85442
#
# Poissons Ratio (x) = 0.36727 0.05766
# Poissons Ratio (y) = 1.06785 -0.33824
# Poissons Ratio (z) = 0.16183 -0.32649
#
# Static dielectric constant tensor:
#      x y z
#    x 1.879630 0.000000 0.000000 
#    y 0.000000 1.783070 0.000000 
#    z 0.000000 0.000000 1.997760 
# 
# From -- ./inp_files/5594.got.cif
#   From: 2010.05.17/outbox.cif.g08.bks.cpg/sg42_3_cif.got.tgz:5594.got - 2010.06.03 19:03:34.
