data_PCOD9369581
_publ_section_title
;
Structure prediction by ZEFSAII (Michael W. Deem and Ramdas Pophale) SiO2 
 PCOD9369581
Probable space group: F M M 2
;
_chemical_formula_sum "Si O2"
_cell_formula_units_Z 112
_cell_length_a 24.807297
_cell_length_b 14.656012
_cell_length_c 14.288212
_cell_angle_alpha 90.000000
_cell_angle_beta 90.000000
_cell_angle_gamma 90.000000
_cell_volume 5194.851574
_symmetry_space_group_name_H-M "F M M 2"
_symmetry_group_IT_number 42
_symmetry_cell_setting 'orthorhombic'
loop_
_space_group_symop_operation_xyz
x,y,z
-x,-y,z
-x,y,z
x,-y,z
x,1/2+y,1/2+z
-x,1/2-y,1/2+z
-x,1/2+y,1/2+z
x,1/2-y,1/2+z
1/2+x,y,1/2+z
1/2-x,-y,1/2+z
1/2-x,y,1/2+z
1/2+x,-y,1/2+z
1/2+x,1/2+y,z
1/2-x,1/2-y,z
1/2-x,1/2+y,z
1/2+x,1/2-y,z
loop_
_atom_site_type_symbol
_atom_site_label
_atom_site_fract_x
_atom_site_fract_y
_atom_site_fract_z
Si Si1 0.336627 0.603174 0.842800
Si Si2 0.100130 0.728947 0.611945
Si Si3 0.559785 0.889987 0.449090
Si Si4 0.936444 0.104446 0.273206
Si Si5 0.265423 0.644619 0.468091
Si Si6 0.109798 0.394396 0.976635
Si Si7 0.795507 0.307785 0.160470
O O1 0.352798 0.500000 0.827677
O O2 0.388642 0.646643 0.892066
O O3 0.282588 0.601809 0.907049
O O4 0.326925 0.642916 0.741071
O O5 0.069533 0.655632 0.548915
O O6 0.087324 0.689634 0.714800
O O7 0.090179 0.827173 0.560423
O O8 0.165055 0.735843 0.609456
O O9 0.500000 0.866540 0.412623
O O10 0.562191 0.000000 0.457674
O O11 0.925134 0.116985 0.383343
O O12 0.000000 0.103890 0.256173
O O13 0.915983 0.000000 0.249148
O O14 0.250000 0.750000 0.458015
O O15 0.327887 0.624693 0.443128
O O16 0.269333 0.628770 0.580686
O O17 0.107687 0.500000 0.007449
O O18 0.750000 0.250000 0.210395
#
# Coordination Sequence:
#
# PCOD9369581 Si02
#       7
#    16  16  16  16  16  16  16
#     4  11  23  38  62  94 129 171 216 267 333 403
#     4  11  23  39  68  96 126 179 227 277 344 409
#     4  10  22  42  66  94 130 172 224 286 344 403
#     4  10  23  43  67  99 135 176 235 296 347 411
#     4  10  21  41  67  91 130 174 221 274 333 404
#     4  10  23  43  67  99 138 181 227 284 351 418
#     4  10  23  39  59  91 132 169 212 265 329 402
#
# _framework density 21.559806999999999
#
# number of rings (size 3 to 8) (size 9 to 14) (size 15 to 20)
#    0.000    1.714    0.000    4.286    6.000    5.143 
#    0.000    1.429    0.000    0.857    0.000   16.000 
#    0.000    0.000    0.000    0.000    0.000    0.000 
#
# Total GULP energy -155888.477980 kJ/mol
# GULP energy per Si atom -5567.445642 kJ/mol
# Density = 2.151074 g / cm^3
# Si number density = 21.559807 Si / 1000 Ang^3
#
#
#
# Elastic Constant Matrix: (Units=GPa)
#
#
# Indices 1 2 3 4 5 6 
#
# 1 70.6341 22.5042 27.4381 0.0000 0.0000 0.0000
# 2 22.5042 93.6833 38.5200 0.0000 0.0000 0.0000
# 3 27.4381 38.5200 74.7757 0.0000 0.0000 0.0000
# 4 0.0000 0.0000 0.0000 43.1590 0.0000 0.0000
# 5 0.0000 0.0000 0.0000 0.0000 25.9897 0.0000
# 6 0.0000 0.0000 0.0000 0.0000 0.0000 21.6208
#
#
#
# Elastic Compliance Matrix: (Units=1/GPa)
#
#
# Indices 1 2 3 4 5 6 
#
# 1 0.016774 -0.001901 -0.005175 0.000000 0.000000 0.000000
# 2 -0.001901 0.013758 -0.006390 0.000000 0.000000 0.000000
# 3 -0.005175 -0.006390 0.018564 0.000000 0.000000 0.000000
# 4 0.000000 0.000000 0.000000 0.023170 0.000000 0.000000
# 5 0.000000 0.000000 0.000000 0.000000 0.038477 0.000000
# 6 0.000000 0.000000 0.000000 0.000000 0.000000 0.046252
#
#
# Mechanical properties :
#
#
# Convention : Reuss Voigt Hill
#
# Bulk Modulus (GPa) = 45.12046 46.22418 45.67232
# Shear Modulus (GPa) = 26.13484 28.19594 27.16539
#
# Velocity S-wave (km/s) = 3.48545 3.62028 3.55350
# Velocity P-wave (km/s) = 6.09682 6.24193 6.16980
#
# Compressibility (1/GPa) = 0.02216289
#
# Stress axis : x y z
#
# Youngs Moduli (GPa) = 59.61731 72.68338 53.86747
#
# Poissons Ratio (x) = 0.13819 0.27879
# Poissons Ratio (y) = 0.11335 0.34420
# Poissons Ratio (z) = 0.30855 0.46443
#
# Static dielectric constant tensor:
#      x y z
#    x 1.815170 0.000000 0.000000 
#    y 0.000000 1.830610 0.000000 
#    z 0.000000 0.000000 1.808810 
# 
# From -- ./inp_files/16560.got.cif
#   From: 2010.05.17/outbox.cif.g08.bks.cpg/sg42_9_cif.got.tgz:16560.got - 2010.06.03 19:03:34.
