data_PCOD9369987
_publ_section_title
;
Structure prediction by ZEFSAII (Michael W. Deem and Ramdas Pophale) SiO2 
 PCOD9369987
Probable space group: F M M 2
;
_chemical_formula_sum "Si O2"
_cell_formula_units_Z 128
_cell_length_a 29.762439
_cell_length_b 7.437269
_cell_length_c 32.525890
_cell_angle_alpha 90.000000
_cell_angle_beta 90.000000
_cell_angle_gamma 90.000000
_cell_volume 7199.646895
_symmetry_space_group_name_H-M "F M M 2"
_symmetry_group_IT_number 42
_symmetry_cell_setting 'orthorhombic'
loop_
_space_group_symop_operation_xyz
x,y,z
-x,-y,z
-x,y,z
x,-y,z
x,1/2+y,1/2+z
-x,1/2-y,1/2+z
-x,1/2+y,1/2+z
x,1/2-y,1/2+z
1/2+x,y,1/2+z
1/2-x,-y,1/2+z
1/2-x,y,1/2+z
1/2+x,-y,1/2+z
1/2+x,1/2+y,z
1/2-x,1/2-y,z
1/2-x,1/2+y,z
1/2+x,1/2-y,z
loop_
_atom_site_type_symbol
_atom_site_label
_atom_site_fract_x
_atom_site_fract_y
_atom_site_fract_z
Si Si1 0.393356 0.720041 0.263620
Si Si2 0.552485 0.780616 0.005434
Si Si3 0.551791 0.784269 0.095407
Si Si4 0.800259 0.214775 0.391824
Si Si5 0.948375 0.780924 0.344691
Si Si6 0.106424 0.219882 0.425749
Si Si7 0.800236 0.785207 0.297679
Si Si8 0.051346 0.787066 0.185608
O O1 0.393189 0.500000 0.262704
O O2 0.422120 0.773513 0.303640
O O3 0.342143 0.779904 0.270950
O O4 0.417506 0.783357 0.222142
O O5 0.500000 0.728169 0.000672
O O6 0.569272 0.723925 0.050864
O O7 0.552619 0.000000 0.004790
O O8 0.582700 0.719196 0.967551
O O9 0.500000 0.720334 0.096828
O O10 0.571168 0.735844 0.139780
O O11 0.551192 0.000000 0.094147
O O12 0.750000 0.250000 0.407391
O O13 0.842306 0.279258 0.418482
O O14 0.803234 0.284593 0.344761
O O15 0.805029 0.000000 0.389258
O O16 0.922307 0.725546 0.385800
O O17 0.000000 0.721960 0.344559
O O18 0.948509 0.000000 0.344782
O O19 0.105957 0.000000 0.426610
O O20 0.750000 0.750000 0.282122
O O21 0.804956 0.000000 0.300357
O O22 0.000000 0.713691 0.186836
O O23 0.047458 0.000000 0.192361
#
# Coordination Sequence:
#
# PCOD9369987 Si02
#       8
#    16  16  16  16  16  16  16  16
#     4   9  15  24  36  54  80 107 130 157 195 232
#     4   8  13  21  35  56  81 106 130 158 194 233
#     4   8  14  25  39  55  78 106 132 161 196 228
#     4   9  16  26  40  57  78 103 131 163 196 229
#     4   9  14  19  30  51  81 110 130 151 185 229
#     4   9  14  21  34  56  81 104 130 160 193 229
#     4   9  16  27  41  56  77 103 131 163 197 230
#     4   9  16  25  39  59  81 105 133 161 190 230
#
# _framework density 17.778649999999999
#
# number of rings (size 3 to 8) (size 9 to 14) (size 15 to 20)
#    0.000    3.250    1.250    1.500    0.000    3.000 
#    0.000    0.625    0.000    0.750    0.000    0.875 
#    0.000    8.500    0.000    0.500    0.000    0.000 
#
# Total GULP energy -178302.401593 kJ/mol
# GULP energy per Si atom -5571.950050 kJ/mol
# Density = 1.773818 g / cm^3
# Si number density = 17.778650 Si / 1000 Ang^3
#
#
#
# Elastic Constant Matrix: (Units=GPa)
#
#
# Indices 1 2 3 4 5 6 
#
# 1 147.4263 3.2053 96.7162 -0.0029 0.0000 0.0003
# 2 3.2053 52.9576 3.6779 0.0002 -0.0001 -0.0013
# 3 96.7162 3.6779 173.9568 -0.0005 0.0000 -0.0003
# 4 -0.0029 0.0002 -0.0005 58.5926 -0.0001 0.0019
# 5 0.0000 -0.0001 0.0000 -0.0001 7.2056 0.0001
# 6 0.0003 -0.0013 -0.0003 0.0019 0.0001 8.2609
#
#
#
# Elastic Compliance Matrix: (Units=1/GPa)
#
#
# Indices 1 2 3 4 5 6 
#
# 1 0.010680 -0.000234 -0.005933 0.000000 0.000000 -0.000001
# 2 -0.000234 0.018916 -0.000270 0.000000 0.000000 0.000003
# 3 -0.005933 -0.000270 0.009053 0.000000 0.000000 0.000000
# 4 0.000000 0.000000 0.000000 0.017067 0.000000 -0.000004
# 5 0.000000 0.000000 0.000000 0.000000 0.138780 -0.000002
# 6 -0.000001 0.000003 0.000000 -0.000004 -0.000002 0.121052
#
#
# Mechanical properties :
#
#
# Convention : Reuss Voigt Hill
#
# Bulk Modulus (GPa) = 38.79720 64.61549 51.70635
# Shear Modulus (GPa) = 14.83617 32.86126 23.84871
#
# Velocity S-wave (km/s) = 2.89189 4.30391 3.66652
# Velocity P-wave (km/s) = 5.74634 7.81803 6.86083
#
# Compressibility (1/GPa) = 0.02577505
#
# Stress axis : x y z
#
# Youngs Moduli (GPa) = 93.62882 52.86549 110.46119
#
# Poissons Ratio (x) = 0.01239 0.65538
# Poissons Ratio (y) = 0.02195 0.02978
# Poissons Ratio (z) = 0.55551 0.01425
#
# Static dielectric constant tensor:
#      x y z
#    x 1.598090 0.000000 0.000000 
#    y 0.000000 1.697510 0.000000 
#    z 0.000000 0.000000 1.612080 
# 
# From -- ./inp_files/29105.got.cif
#   From: 2010.05.17/outbox.cif.g08.bks.cpg/sg42_15_cif.got.tgz:29105.got - 2010.06.03 19:03:34.
