data_PCOD9369028
_publ_section_title
;
Structure prediction by ZEFSAII (Michael W. Deem and Ramdas Pophale) SiO2 
 PCOD9369028
Probable space group: F M M 2
;
_chemical_formula_sum "Si O2"
_cell_formula_units_Z 108
_cell_length_a 27.705680
_cell_length_b 14.645861
_cell_length_c 12.545280
_cell_angle_alpha 90.000000
_cell_angle_beta 90.000000
_cell_angle_gamma 90.000000
_cell_volume 5090.542653
_symmetry_space_group_name_H-M "F M M 2"
_symmetry_group_IT_number 42
_symmetry_cell_setting 'orthorhombic'
loop_
_space_group_symop_operation_xyz
x,y,z
-x,-y,z
-x,y,z
x,-y,z
x,1/2+y,1/2+z
-x,1/2-y,1/2+z
-x,1/2+y,1/2+z
x,1/2-y,1/2+z
1/2+x,y,1/2+z
1/2-x,-y,1/2+z
1/2-x,y,1/2+z
1/2+x,-y,1/2+z
1/2+x,1/2+y,z
1/2-x,1/2-y,z
1/2-x,1/2+y,z
1/2+x,1/2-y,z
loop_
_atom_site_type_symbol
_atom_site_label
_atom_site_fract_x
_atom_site_fract_y
_atom_site_fract_z
Si Si1 0.555163 0.643286 0.700750
Si Si2 0.180878 0.605322 0.751859
Si Si3 0.922301 0.349801 0.650089
Si Si4 0.750000 0.750000 0.645317
Si Si5 0.801953 0.713859 0.944106
Si Si6 0.058589 0.601580 0.961742
Si Si7 0.099172 0.196093 0.914713
Si Si8 0.500000 0.500000 0.207658
O O1 0.500000 0.614204 0.720225
O O2 0.557568 0.750373 0.675063
O O3 0.571641 0.601361 0.588112
O O4 0.584978 0.639231 0.810102
O O5 0.188649 0.500000 0.728429
O O6 0.130544 0.636926 0.700283
O O7 0.222273 0.670187 0.705033
O O8 0.182076 0.625882 0.878225
O O9 0.918944 0.353605 0.521574
O O10 0.958198 0.421718 0.698868
O O11 0.790838 0.795839 0.568787
O O12 0.750000 0.750000 0.905145
O O13 0.843605 0.787664 0.924162
O O14 0.072802 0.500000 0.918915
O O15 0.000000 0.604865 0.953345
O O16 0.077650 0.698854 0.916008
#
# Coordination Sequence:
#
# PCOD9369028 Si02
#       8
#    16  16  16   8  16  16  16   4
#     4  10  20  35  59  84 119 167 206 246 310 374
#     4  12  23  41  69  97 127 168 215 269 332 388
#     4  11  22  39  59  90 132 165 203 265 321 381
#     4  10  22  46  66  90 130 170 208 272 334 390
#     4  10  22  40  67  89 123 162 211 263 322 382
#     4   9  20  39  57  86 125 161 203 255 301 364
#     4  11  21  37  65  87 119 168 210 253 321 380
#     4  12  24  40  56  96 138 166 216 268 320 386
#
# _framework density 21.215813000000001
#
# number of rings (size 3 to 8) (size 9 to 14) (size 15 to 20)
#    0.444    1.037    5.185    0.444    2.074    1.185 
#    2.667    0.000    0.000    0.000    0.000    0.000 
#    0.000    0.000    0.000    0.000    0.000    0.000 
#
# Total GULP energy -150409.013491 kJ/mol
# GULP energy per Si atom -5570.704203 kJ/mol
# Density = 2.116752 g / cm^3
# Si number density = 21.215813 Si / 1000 Ang^3
#
#
#
# Elastic Constant Matrix: (Units=GPa)
#
#
# Indices 1 2 3 4 5 6 
#
# 1 80.7799 11.3351 5.6552 0.0000 0.0000 0.0000
# 2 11.3351 101.1616 8.3920 0.0000 0.0000 0.0000
# 3 5.6552 8.3920 87.6839 0.0000 0.0000 0.0000
# 4 0.0000 0.0000 0.0000 16.0784 0.0000 0.0000
# 5 0.0000 0.0000 0.0000 0.0000 18.3813 0.0000
# 6 0.0000 0.0000 0.0000 0.0000 0.0000 36.1463
#
#
#
# Elastic Compliance Matrix: (Units=1/GPa)
#
#
# Indices 1 2 3 4 5 6 
#
# 1 0.012618 -0.001357 -0.000684 0.000000 0.000000 0.000000
# 2 -0.001357 0.010110 -0.000880 0.000000 0.000000 0.000000
# 3 -0.000684 -0.000880 0.011533 0.000000 0.000000 0.000000
# 4 0.000000 0.000000 0.000000 0.062195 0.000000 0.000000
# 5 0.000000 0.000000 0.000000 0.000000 0.054403 0.000000
# 6 0.000000 0.000000 0.000000 0.000000 0.000000 0.027665
#
#
# Mechanical properties :
#
#
# Convention : Reuss Voigt Hill
#
# Bulk Modulus (GPa) = 35.18812 35.59889 35.39351
# Shear Modulus (GPa) = 25.79453 30.40407 28.09930
#
# Velocity S-wave (km/s) = 3.49064 3.78972 3.64325
# Velocity P-wave (km/s) = 5.73305 5.99709 5.86656
#
# Compressibility (1/GPa) = 0.02841868
#
# Stress axis : x y z
#
# Youngs Moduli (GPa) = 79.25426 98.90957 86.70816
#
# Poissons Ratio (x) = 0.13423 0.05930
# Poissons Ratio (y) = 0.10755 0.07631
# Poissons Ratio (z) = 0.05420 0.08705
#
# Static dielectric constant tensor:
#      x y z
#    x 1.750840 0.000000 0.000000 
#    y 0.000000 1.726050 0.000000 
#    z 0.000000 0.000000 1.879140 
# 
# From -- ./inp_files/17092.got.cif
#   From: 2010.05.17/outbox.cif.g08.bks.cpg/sg42_9_cif.got.tgz:17092.got - 2010.06.03 19:03:34.
