data_PCOD9369744
_publ_section_title
;
Structure prediction by ZEFSAII (Michael W. Deem and Ramdas Pophale) SiO2 
 PCOD9369744
Probable space group: F M M 2
;
_chemical_formula_sum "Si O2"
_cell_formula_units_Z 80
_cell_length_a 20.377465
_cell_length_b 17.626629
_cell_length_c 10.177709
_cell_angle_alpha 90.000000
_cell_angle_beta 90.000000
_cell_angle_gamma 90.000000
_cell_volume 3655.690743
_symmetry_space_group_name_H-M "F M M 2"
_symmetry_group_IT_number 42
_symmetry_cell_setting 'orthorhombic'
loop_
_space_group_symop_operation_xyz
x,y,z
-x,-y,z
-x,y,z
x,-y,z
x,1/2+y,1/2+z
-x,1/2-y,1/2+z
-x,1/2+y,1/2+z
x,1/2-y,1/2+z
1/2+x,y,1/2+z
1/2-x,-y,1/2+z
1/2-x,y,1/2+z
1/2+x,-y,1/2+z
1/2+x,1/2+y,z
1/2-x,1/2-y,z
1/2-x,1/2+y,z
1/2+x,1/2-y,z
loop_
_atom_site_type_symbol
_atom_site_label
_atom_site_fract_x
_atom_site_fract_y
_atom_site_fract_z
Si Si1 0.150878 0.586150 0.636970
Si Si2 0.702413 0.912689 0.042584
Si Si3 0.799584 0.303360 0.815159
Si Si4 0.929420 0.671562 0.137887
Si Si5 0.396521 0.697190 0.938718
O O1 0.132134 0.500000 0.670134
O O2 0.230600 0.589159 0.626594
O O3 0.141428 0.655330 0.738163
O O4 0.116401 0.615828 0.505106
O O5 0.637536 0.874018 0.103413
O O6 0.686893 0.000000 0.015872
O O7 0.722822 0.870915 0.908852
O O8 0.750000 0.250000 0.731912
O O9 0.827673 0.239083 0.911371
O O10 0.926363 0.689727 0.293509
O O11 0.000000 0.632134 0.113085
O O12 0.929031 0.745338 0.042695
#
# Coordination Sequence:
#
# PCOD9369744 Si02
#       5
#    16  16  16  16  16
#     4  11  23  38  61  97 135 168 205 267 341 396
#     4  10  23  38  59  93 132 169 211 268 330 392
#     4  11  20  35  61  90 130 171 208 255 324 397
#     4  11  24  42  66  92 125 175 229 274 317 384
#     4  11  22  40  65  95 126 164 220 275 325 384
#
# _framework density 21.883689
#
# number of rings (size 3 to 8) (size 9 to 14) (size 15 to 20)
#    0.000    1.200    4.000    2.400    2.800    1.200 
#    0.000    0.000    0.000    1.800    0.000    0.000 
#    0.000    0.000    0.000    0.000    0.000    0.000 
#
# Total GULP energy -111351.694517 kJ/mol
# GULP energy per Si atom -5567.584726 kJ/mol
# Density = 2.183388 g / cm^3
# Si number density = 21.883689 Si / 1000 Ang^3
#
#
#
# Elastic Constant Matrix: (Units=GPa)
#
#
# Indices 1 2 3 4 5 6 
#
# 1 71.5520 26.4811 13.2026 0.0000 0.0000 0.0000
# 2 26.4811 131.6475 37.2310 0.0000 0.0000 0.0000
# 3 13.2026 37.2310 104.9260 0.0000 0.0000 0.0000
# 4 0.0000 0.0000 0.0000 22.4150 0.0000 0.0000
# 5 0.0000 0.0000 0.0000 0.0000 -1.2439 0.0000
# 6 0.0000 0.0000 0.0000 0.0000 0.0000 11.2325
#
#
#
# Elastic Compliance Matrix: (Units=1/GPa)
#
#
# Indices 1 2 3 4 5 6 
#
# 1 0.015179 -0.002793 -0.000919 0.000000 0.000000 0.000000
# 2 -0.002793 0.008957 -0.002827 0.000000 0.000000 0.000000
# 3 -0.000919 -0.002827 0.010649 0.000000 0.000000 0.000000
# 4 0.000000 0.000000 0.000000 0.044613 0.000000 0.000000
# 5 0.000000 0.000000 0.000000 0.000000 -0.803920 0.000000
# 6 0.000000 0.000000 0.000000 0.000000 0.000000 0.089027
#
#
# Mechanical properties :
#
#
# Convention : Reuss Voigt Hill
#
# Bulk Modulus (GPa) = 46.06677 51.32831 48.69754
# Shear Modulus (GPa) = -8.12770 21.89478 6.88354
#
# Velocity S-wave (km/s) = -1.92928 3.16651 1.77548
# Velocity P-wave (km/s) = 4.01667 6.07248 5.14823
#
# Compressibility (1/GPa) = 0.02170762
#
# Stress axis : x y z
#
# Youngs Moduli (GPa) = 65.87946 111.63923 93.90379
#
# Poissons Ratio (x) = 0.31186 0.08627
# Poissons Ratio (y) = 0.18403 0.26545
# Poissons Ratio (z) = 0.06053 0.31559
#
# Static dielectric constant tensor:
#      x y z
#    x 1.972320 0.000000 0.000000 
#    y 0.000000 1.799540 0.000000 
#    z 0.000000 0.000000 1.975500 
# 
# From -- ./inp_files/10014.got.cif
#   From: 2010.05.17/outbox.cif.g08.bks.cpg/sg42_6_cif.got.tgz:10014.got - 2010.06.03 19:03:34.
