data_PCOD9369662
_publ_section_title
;
Structure prediction by ZEFSAII (Michael W. Deem and Ramdas Pophale) SiO2 
 PCOD9369662
Probable space group: F M M 2
;
_chemical_formula_sum "Si O2"
_cell_formula_units_Z 80
_cell_length_a 17.221452
_cell_length_b 23.404561
_cell_length_c 10.239596
_cell_angle_alpha 90.000000
_cell_angle_beta 90.000000
_cell_angle_gamma 90.000000
_cell_volume 4127.176928
_symmetry_space_group_name_H-M "F M M 2"
_symmetry_group_IT_number 42
_symmetry_cell_setting 'orthorhombic'
loop_
_space_group_symop_operation_xyz
x,y,z
-x,-y,z
-x,y,z
x,-y,z
x,1/2+y,1/2+z
-x,1/2-y,1/2+z
-x,1/2+y,1/2+z
x,1/2-y,1/2+z
1/2+x,y,1/2+z
1/2-x,-y,1/2+z
1/2-x,y,1/2+z
1/2+x,-y,1/2+z
1/2+x,1/2+y,z
1/2-x,1/2-y,z
1/2-x,1/2+y,z
1/2+x,1/2-y,z
loop_
_atom_site_type_symbol
_atom_site_label
_atom_site_fract_x
_atom_site_fract_y
_atom_site_fract_z
Si Si1 0.411798 0.853803 0.097660
Si Si2 0.366361 0.135596 0.374058
Si Si3 0.181949 0.137523 0.342513
Si Si4 0.410490 0.250358 0.273412
Si Si5 0.910195 0.432212 0.633217
O O1 0.500000 0.859160 0.051456
O O2 0.401448 0.885848 0.235888
O O3 0.398225 0.787776 0.142722
O O4 0.353513 0.871482 0.986057
O O5 0.274174 0.137566 0.353563
O O6 0.397286 0.200883 0.381902
O O7 0.391038 0.099467 0.497836
O O8 0.148226 0.198159 0.291835
O O9 0.147704 0.091258 0.243090
O O10 0.500000 0.269810 0.277059
O O11 0.902175 0.500000 0.617711
O O12 0.000000 0.419657 0.669253
#
# Coordination Sequence:
#
# PCOD9369662 Si02
#       5
#    16  16  16  16  16
#     4   9  20  37  58  85 120 164 201 237 299 375
#     4  10  22  40  61  90 124 163 208 257 311 378
#     4  12  22  38  63  96 127 159 206 267 315 365
#     4   9  20  36  60  90 126 165 198 241 308 383
#     4  11  25  44  65  89 123 170 218 264 316 376
#
# _framework density 19.383709
#
# number of rings (size 3 to 8) (size 9 to 14) (size 15 to 20)
#    1.200    0.600    0.000    4.800    2.800    0.800 
#    3.600    1.000    0.000    3.600    0.000    0.000 
#    0.000    0.000    0.000    0.000    0.000    0.000 
#
# Total GULP energy -111574.579016 kJ/mol
# GULP energy per Si atom -5578.728951 kJ/mol
# Density = 1.933959 g / cm^3
# Si number density = 19.383709 Si / 1000 Ang^3
#
#
#
# Elastic Constant Matrix: (Units=GPa)
#
#
# Indices 1 2 3 4 5 6 
#
# 1 63.9829 8.0944 -3.1136 0.0000 0.0000 0.0000
# 2 8.0944 62.1153 10.2327 0.0000 0.0000 0.0000
# 3 -3.1136 10.2327 67.6694 0.0000 0.0000 0.0000
# 4 0.0000 0.0000 0.0000 30.2627 0.0000 0.0000
# 5 0.0000 0.0000 0.0000 0.0000 32.4016 0.0000
# 6 0.0000 0.0000 0.0000 0.0000 0.0000 -16.1241
#
#
#
# Elastic Compliance Matrix: (Units=1/GPa)
#
#
# Indices 1 2 3 4 5 6 
#
# 1 0.015967 -0.002258 0.001076 0.000000 0.000000 0.000000
# 2 -0.002258 0.016830 -0.002649 0.000000 0.000000 0.000000
# 3 0.001076 -0.002649 0.015228 0.000000 0.000000 0.000000
# 4 0.000000 0.000000 0.000000 0.033044 0.000000 0.000000
# 5 0.000000 0.000000 0.000000 0.000000 0.030863 0.000000
# 6 0.000000 0.000000 0.000000 0.000000 0.000000 -0.062019
#
#
# Mechanical properties :
#
#
# Convention : Reuss Voigt Hill
#
# Bulk Modulus (GPa) = 24.77499 24.91052 24.84276
# Shear Modulus (GPa) = 70.39437 21.21163 45.80300
#
# Velocity S-wave (km/s) = 6.03283 3.31161 4.86631
# Velocity P-wave (km/s) = 7.83172 5.24419 6.66474
#
# Compressibility (1/GPa) = 0.04036329
#
# Stress axis : x y z
#
# Youngs Moduli (GPa) = 62.62838 59.41879 65.66938
#
# Poissons Ratio (x) = 0.13417 -0.07067
# Poissons Ratio (y) = 0.14142 0.17395
# Poissons Ratio (z) = -0.06740 0.15739
#
# Static dielectric constant tensor:
#      x y z
#    x 1.646500 0.000000 0.000000 
#    y 0.000000 1.665410 0.000000 
#    z 0.000000 0.000000 1.697860 
# 
# From -- ./inp_files/3479.got.cif
#   From: 2010.05.17/outbox.cif.g08.bks.cpg/sg42_2_cif.got.tgz:3479.got - 2010.06.03 19:03:34.
