data_PCOD9369364
_publ_section_title
;
Structure prediction by ZEFSAII (Michael W. Deem and Ramdas Pophale) SiO2 
 PCOD9369364
Probable space group: F M M 2
;
_chemical_formula_sum "Si O2"
_cell_formula_units_Z 96
_cell_length_a 23.661265
_cell_length_b 15.025494
_cell_length_c 12.266058
_cell_angle_alpha 90.000000
_cell_angle_beta 90.000000
_cell_angle_gamma 90.000000
_cell_volume 4360.855868
_symmetry_space_group_name_H-M "F M M 2"
_symmetry_group_IT_number 42
_symmetry_cell_setting 'orthorhombic'
loop_
_space_group_symop_operation_xyz
x,y,z
-x,-y,z
-x,y,z
x,-y,z
x,1/2+y,1/2+z
-x,1/2-y,1/2+z
-x,1/2+y,1/2+z
x,1/2-y,1/2+z
1/2+x,y,1/2+z
1/2-x,-y,1/2+z
1/2-x,y,1/2+z
1/2+x,-y,1/2+z
1/2+x,1/2+y,z
1/2-x,1/2-y,z
1/2-x,1/2+y,z
1/2+x,1/2-y,z
loop_
_atom_site_type_symbol
_atom_site_label
_atom_site_fract_x
_atom_site_fract_y
_atom_site_fract_z
Si Si1 0.862555 0.893291 0.559610
Si Si2 0.262884 0.852358 0.217447
Si Si3 0.158123 0.892717 0.921544
Si Si4 0.433893 0.390531 0.351724
Si Si5 0.357423 0.101757 0.660613
Si Si6 0.562899 0.108610 0.262107
O O1 0.800507 0.877532 0.611304
O O2 0.889924 0.860930 0.446487
O O3 0.903832 0.861123 0.655682
O O4 0.866456 0.000000 0.552917
O O5 0.250000 0.750000 0.207003
O O6 0.296535 0.866050 0.330203
O O7 0.202562 0.900136 0.221908
O O8 0.098241 0.868904 0.868421
O O9 0.163957 0.000000 0.927365
O O10 0.157725 0.855529 0.043819
O O11 0.500000 0.365400 0.367149
O O12 0.433353 0.500000 0.351052
O O13 0.405829 0.359094 0.238006
O O14 0.375527 0.000000 0.638535
O O15 0.500000 0.142559 0.264647
O O16 0.561708 0.000000 0.256889
#
# Coordination Sequence:
#
# PCOD9369364 Si02
#       6
#    16  16  16  16  16  16
#     4   9  17  32  55  85 116 148 186 234 286 341
#     4  11  23  37  55  81 112 151 193 242 287 342
#     4   9  19  35  54  79 111 146 187 233 286 345
#     4   9  18  33  57  89 118 148 189 237 288 341
#     4  10  21  36  56  82 113 149 186 235 290 344
#     4   8  13  24  47  78 107 135 172 223 278 329
#
# _framework density 22.014029000000001
#
# number of rings (size 3 to 8) (size 9 to 14) (size 15 to 20)
#    0.000    2.667    0.000    3.000    2.333    3.333 
#    0.000    3.333    0.000    5.000    0.000    0.000 
#    0.000    0.000    0.000    0.000    0.000    0.000 
#
# Total GULP energy -133832.402199 kJ/mol
# GULP energy per Si atom -5576.350092 kJ/mol
# Density = 2.196392 g / cm^3
# Si number density = 22.014029 Si / 1000 Ang^3
#
#
#
# Elastic Constant Matrix: (Units=GPa)
#
#
# Indices 1 2 3 4 5 6 
#
# 1 90.7302 -6.0020 38.4059 0.0000 0.0000 0.0000
# 2 -6.0020 35.7249 10.9321 0.0000 0.0000 0.0000
# 3 38.4059 10.9321 126.2072 0.0000 0.0000 0.0000
# 4 0.0000 0.0000 0.0000 344.4705 0.0000 0.0000
# 5 0.0000 0.0000 0.0000 0.0000 18.1784 0.0000
# 6 0.0000 0.0000 0.0000 0.0000 0.0000 -28.8100
#
#
#
# Elastic Compliance Matrix: (Units=1/GPa)
#
#
# Indices 1 2 3 4 5 6 
#
# 1 0.013065 0.003505 -0.004279 0.000000 0.000000 0.000000
# 2 0.003505 0.029694 -0.003639 0.000000 0.000000 0.000000
# 3 -0.004279 -0.003639 0.009541 0.000000 0.000000 0.000000
# 4 0.000000 0.000000 0.000000 0.002903 0.000000 0.000000
# 5 0.000000 0.000000 0.000000 0.000000 0.055010 0.000000
# 6 0.000000 0.000000 0.000000 0.000000 0.000000 -0.034710
#
#
# Mechanical properties :
#
#
# Convention : Reuss Voigt Hill
#
# Bulk Modulus (GPa) = 23.00281 37.70382 30.35332
# Shear Modulus (GPa) = 50.59677 80.72287 65.65982
#
# Velocity S-wave (km/s) = 4.79935 6.06205 5.46728
# Velocity P-wave (km/s) = 6.41744 8.13402 7.32618
#
# Compressibility (1/GPa) = 0.04347294
#
# Stress axis : x y z
#
# Youngs Moduli (GPa) = 76.54065 33.67700 104.81207
#
# Poissons Ratio (x) = -0.11802 0.44853
# Poissons Ratio (y) = -0.26824 0.38136
# Poissons Ratio (z) = 0.32754 0.12254
#
# Static dielectric constant tensor:
#      x y z
#    x 1.795070 0.000000 0.000000 
#    y 0.000000 0.605600 0.000000 
#    z 0.000000 0.000000 1.833890 
# 
# From -- ./inp_files/10159.got.cif
#   From: 2010.05.17/outbox.cif.g08.bks.cpg/sg42_6_cif.got.tgz:10159.got - 2010.06.03 19:03:34.
