data_PCOD9369278
_publ_section_title
;
Structure prediction by ZEFSAII (Michael W. Deem and Ramdas Pophale) SiO2 
 PCOD9369278
Probable space group: F M M 2
;
_chemical_formula_sum "Si O2"
_cell_formula_units_Z 80
_cell_length_a 17.065833
_cell_length_b 11.224464
_cell_length_c 20.407078
_cell_angle_alpha 90.000000
_cell_angle_beta 90.000000
_cell_angle_gamma 90.000000
_cell_volume 3909.074319
_symmetry_space_group_name_H-M "F M M 2"
_symmetry_group_IT_number 42
_symmetry_cell_setting 'orthorhombic'
loop_
_space_group_symop_operation_xyz
x,y,z
-x,-y,z
-x,y,z
x,-y,z
x,1/2+y,1/2+z
-x,1/2-y,1/2+z
-x,1/2+y,1/2+z
x,1/2-y,1/2+z
1/2+x,y,1/2+z
1/2-x,-y,1/2+z
1/2-x,y,1/2+z
1/2+x,-y,1/2+z
1/2+x,1/2+y,z
1/2-x,1/2-y,z
1/2-x,1/2+y,z
1/2+x,1/2-y,z
loop_
_atom_site_type_symbol
_atom_site_label
_atom_site_fract_x
_atom_site_fract_y
_atom_site_fract_z
Si Si1 0.094270 0.500000 0.177390
Si Si2 0.905433 0.500000 0.326541
Si Si3 0.187743 0.139458 0.453508
Si Si4 0.905883 0.713021 0.081675
Si Si5 0.094420 0.868075 0.195902
Si Si6 0.842352 0.251905 0.825082
O O1 0.123322 0.500000 0.250926
O O2 0.115645 0.386943 0.134898
O O3 0.000000 0.500000 0.182967
O O4 0.871789 0.624291 0.352396
O O5 0.000000 0.500000 0.330755
O O6 0.250000 0.250000 0.452154
O O7 0.133079 0.175782 0.514181
O O8 0.145263 0.153081 0.383106
O O9 0.213939 0.000000 0.460523
O O10 0.880205 0.829532 0.122539
O O11 0.000000 0.715331 0.073123
O O12 0.116600 0.784350 0.256799
O O13 0.000000 0.867897 0.193671
O O14 0.124161 0.000000 0.210658
O O15 0.750000 0.250000 0.810948
#
# Coordination Sequence:
#
# PCOD9369278 Si02
#       6
#     8   8  16  16  16  16
#     4   9  16  34  63  88 118 152 203 262 317 372
#     4  11  22  42  69  98 131 174 225 278 334 394
#     4  11  26  44  65  90 130 176 218 267 329 392
#     4  10  20  39  65  93 121 161 212 266 320 385
#     4  10  21  39  63  93 129 165 208 267 329 389
#     4  11  25  40  65  91 132 169 220 269 331 392
#
# _framework density 20.465202000000001
#
# number of rings (size 3 to 8) (size 9 to 14) (size 15 to 20)
#    0.000    1.600    3.000    1.200    7.000    3.200 
#    0.000    0.000    0.000    0.000    0.000    0.000 
#    0.000    0.000    0.000    0.000    0.000    0.000 
#
# Total GULP energy -111464.574191 kJ/mol
# GULP energy per Si atom -5573.228710 kJ/mol
# Density = 2.041862 g / cm^3
# Si number density = 20.465202 Si / 1000 Ang^3
#
#
#
# Elastic Constant Matrix: (Units=GPa)
#
#
# Indices 1 2 3 4 5 6 
#
# 1 36.4442 31.4745 13.1283 0.0000 0.0000 0.0000
# 2 31.4745 136.9585 25.1897 0.0000 0.0000 0.0000
# 3 13.1283 25.1897 109.2005 0.0000 0.0000 0.0000
# 4 0.0000 0.0000 0.0000 50.7552 0.0000 0.0000
# 5 0.0000 0.0000 0.0000 0.0000 -7.5470 0.0000
# 6 0.0000 0.0000 0.0000 0.0000 0.0000 22.9710
#
#
#
# Elastic Compliance Matrix: (Units=1/GPa)
#
#
# Indices 1 2 3 4 5 6 
#
# 1 0.034848 -0.007559 -0.002446 0.000000 0.000000 0.000000
# 2 -0.007559 0.009264 -0.001228 0.000000 0.000000 0.000000
# 3 -0.002446 -0.001228 0.009735 0.000000 0.000000 0.000000
# 4 0.000000 0.000000 0.000000 0.019702 0.000000 0.000000
# 5 0.000000 0.000000 0.000000 0.000000 -0.132503 0.000000
# 6 0.000000 0.000000 0.000000 0.000000 0.000000 0.043533
#
#
# Mechanical properties :
#
#
# Convention : Reuss Voigt Hill
#
# Bulk Modulus (GPa) = 31.86572 46.90981 39.38776
# Shear Modulus (GPa) = 285.61439 27.42322 156.51881
#
# Velocity S-wave (km/s) = 11.82641 3.66456 8.75480
# Velocity P-wave (km/s) = 14.21583 6.39350 11.02195
#
# Compressibility (1/GPa) = 0.03138169
#
# Stress axis : x y z
#
# Youngs Moduli (GPa) = 28.69587 107.93947 102.72344
#
# Poissons Ratio (x) = 0.81587 0.25126
# Poissons Ratio (y) = 0.21690 0.12618
# Poissons Ratio (z) = 0.07019 0.13259
#
# Static dielectric constant tensor:
#      x y z
#    x 1.712150 0.000000 0.000000 
#    y 0.000000 1.812270 0.000000 
#    z 0.000000 0.000000 1.717590 
# 
# From -- ./inp_files/25762.got.cif
#   From: 2010.05.17/outbox.cif.g08.bks.cpg/sg42_13_cif.got.tgz:25762.got - 2010.06.03 19:03:34.
