data_PCOD9369458
_publ_section_title
;
Structure prediction by ZEFSAII (Michael W. Deem and Ramdas Pophale) SiO2 
 PCOD9369458
Probable space group: F M M 2
;
_chemical_formula_sum "Si O2"
_cell_formula_units_Z 48
_cell_length_a 12.624208
_cell_length_b 5.430097
_cell_length_c 32.113190
_cell_angle_alpha 90.000000
_cell_angle_beta 90.000000
_cell_angle_gamma 90.000000
_cell_volume 2201.380818
_symmetry_space_group_name_H-M "F M M 2"
_symmetry_group_IT_number 42
_symmetry_cell_setting 'orthorhombic'
loop_
_space_group_symop_operation_xyz
x,y,z
-x,-y,z
-x,y,z
x,-y,z
x,1/2+y,1/2+z
-x,1/2-y,1/2+z
-x,1/2+y,1/2+z
x,1/2-y,1/2+z
1/2+x,y,1/2+z
1/2-x,-y,1/2+z
1/2-x,y,1/2+z
1/2+x,-y,1/2+z
1/2+x,1/2+y,z
1/2-x,1/2-y,z
1/2-x,1/2+y,z
1/2+x,1/2-y,z
loop_
_atom_site_type_symbol
_atom_site_label
_atom_site_fract_x
_atom_site_fract_y
_atom_site_fract_z
Si Si1 0.819124 0.500000 0.112978
Si Si2 0.500000 0.500000 0.682039
Si Si3 0.320061 0.500000 0.920958
Si Si4 0.000000 0.500000 0.736482
Si Si5 0.000000 0.500000 0.043604
Si Si6 0.765946 0.000000 0.244227
Si Si7 0.000000 0.500000 0.489650
Si Si8 0.685561 0.500000 0.831588
O O1 0.750000 0.750000 0.112871
O O2 0.898243 0.500000 0.152244
O O3 0.896261 0.500000 0.072845
O O4 0.500000 0.750513 0.709228
O O5 0.250000 0.750000 0.923407
O O6 0.399766 0.500000 0.959014
O O7 0.377988 0.500000 0.875058
O O8 0.112360 0.500000 0.760635
O O9 0.000000 0.750505 0.016703
O O10 0.750000 0.250000 0.220004
O O11 0.676434 0.000000 0.280916
O O12 0.750000 0.250000 0.835957
#
# Coordination Sequence:
#
# PCOD9369458 Si02
#       8
#     8   4   8   4   4   8   4   8
#     4  11  24  45  70  92 124 171 200 241 312 368
#     4  11  26  42  62  99 128 153 214 253 290 391
#     4  10  21  38  58  85 120 160 207 255 310 367
#     4  12  24  39  62  93 128 163 200 263 318 350
#     4  11  26  42  62  99 128 153 214 253 290 391
#     4  10  21  38  58  85 120 160 207 255 310 367
#     4  12  24  39  62  93 128 163 200 263 318 350
#     4   8  16  34  54  76 112 152 200 256 292 354
#
# _framework density 21.804494999999999
#
# number of rings (size 3 to 8) (size 9 to 14) (size 15 to 20)
#    0.000    1.667    0.000    4.000    0.000   10.667 
#    0.000   15.000    0.000    0.000    0.000    0.000 
#    0.000    0.000    0.000    0.000    0.000    0.000 
#
# Total GULP energy -66810.340955 kJ/mol
# GULP energy per Si atom -5567.528413 kJ/mol
# Density = 2.175487 g / cm^3
# Si number density = 21.804495 Si / 1000 Ang^3
#
#
#
# Elastic Constant Matrix: (Units=GPa)
#
#
# Indices 1 2 3 4 5 6 
#
# 1 119.2767 70.3267 52.5439 0.0000 0.0000 0.0000
# 2 70.3267 252.6146 70.7149 0.0000 0.0000 0.0000
# 3 52.5439 70.7149 140.3602 0.0000 0.0000 0.0000
# 4 0.0000 0.0000 0.0000 46.8753 0.0000 0.0000
# 5 0.0000 0.0000 0.0000 0.0000 126.0167 0.0000
# 6 0.0000 0.0000 0.0000 0.0000 0.0000 32.5920
#
#
#
# Elastic Compliance Matrix: (Units=1/GPa)
#
#
# Indices 1 2 3 4 5 6 
#
# 1 0.011020 -0.002227 -0.003003 0.000000 0.000000 0.000000
# 2 -0.002227 0.005059 -0.001715 0.000000 0.000000 0.000000
# 3 -0.003003 -0.001715 0.009113 0.000000 0.000000 0.000000
# 4 0.000000 0.000000 0.000000 0.021333 0.000000 0.000000
# 5 0.000000 0.000000 0.000000 0.000000 0.007935 0.000000
# 6 0.000000 0.000000 0.000000 0.000000 0.000000 0.030682
#
#
# Mechanical properties :
#
#
# Convention : Reuss Voigt Hill
#
# Bulk Modulus (GPa) = 88.48917 99.93585 94.21251
# Shear Modulus (GPa) = 48.63803 62.34120 55.48961
#
# Velocity S-wave (km/s) = 4.72809 5.35285 5.05014
# Velocity P-wave (km/s) = 8.39509 9.17258 8.79243
#
# Compressibility (1/GPa) = 0.01130082
#
# Stress axis : x y z
#
# Youngs Moduli (GPa) = 90.74362 197.67957 109.73617
#
# Poissons Ratio (x) = 0.44028 0.32957
# Poissons Ratio (y) = 0.20211 0.18818
# Poissons Ratio (z) = 0.27253 0.33899
#
# Static dielectric constant tensor:
#      x y z
#    x 1.770570 0.000000 0.000000 
#    y 0.000000 1.781750 0.000000 
#    z 0.000000 0.000000 1.842500 
# 
# From -- ./inp_files/34258.got.cif
#   From: 2010.05.17/outbox.cif.g08.bks.cpg/sg42_18_cif.got.tgz:34258.got - 2010.06.03 19:03:34.
