data_PCOD9369566
_publ_section_title
;
Structure prediction by ZEFSAII (Michael W. Deem and Ramdas Pophale) SiO2 
 PCOD9369566
Probable space group: F M M 2
;
_chemical_formula_sum "Si O2"
_cell_formula_units_Z 68
_cell_length_a 9.747085
_cell_length_b 15.348605
_cell_length_c 23.880978
_cell_angle_alpha 90.000000
_cell_angle_beta 90.000000
_cell_angle_gamma 90.000000
_cell_volume 3572.693596
_symmetry_space_group_name_H-M "F M M 2"
_symmetry_group_IT_number 42
_symmetry_cell_setting 'orthorhombic'
loop_
_space_group_symop_operation_xyz
x,y,z
-x,-y,z
-x,y,z
x,-y,z
x,1/2+y,1/2+z
-x,1/2-y,1/2+z
-x,1/2+y,1/2+z
x,1/2-y,1/2+z
1/2+x,y,1/2+z
1/2-x,-y,1/2+z
1/2-x,y,1/2+z
1/2+x,-y,1/2+z
1/2+x,1/2+y,z
1/2-x,1/2-y,z
1/2-x,1/2+y,z
1/2+x,1/2-y,z
loop_
_atom_site_type_symbol
_atom_site_label
_atom_site_fract_x
_atom_site_fract_y
_atom_site_fract_z
Si Si1 0.287656 0.500000 0.018840
Si Si2 0.660538 0.104631 0.193925
Si Si3 0.778837 0.500000 0.395276
Si Si4 0.340651 0.832425 0.320263
Si Si5 0.339869 0.670517 0.091514
Si Si6 0.500000 0.000000 0.961485
O O1 0.329348 0.585903 0.052382
O O2 0.348166 0.500000 0.956328
O O3 0.123211 0.500000 0.009159
O O4 0.500000 0.123978 0.180497
O O5 0.688793 0.139333 0.256269
O O6 0.764459 0.145923 0.149593
O O7 0.675491 0.000000 0.193270
O O8 0.814999 0.414968 0.359816
O O9 0.620089 0.500000 0.412905
O O10 0.500000 0.808392 0.323429
O O11 0.250000 0.750000 0.336395
O O12 0.500000 0.693174 0.098960
O O13 0.250000 0.750000 0.067112
#
# Coordination Sequence:
#
# PCOD9369566 Si02
#       6
#     8  16   8  16  16   4
#     4  10  25  45  67  91 130 163 219 263 323 376
#     4  10  21  40  67  95 131 172 211 259 320 382
#     4  10  23  45  67  91 130 165 217 261 323 378
#     4  11  24  41  66  97 131 171 215 261 320 378
#     4  12  26  42  66  98 130 169 215 263 322 379
#     4   8  24  44  70  96 120 170 222 260 326 368
#
# _framework density 19.033258
#
# number of rings (size 3 to 8) (size 9 to 14) (size 15 to 20)
#    0.706    0.706    2.353    2.118    4.941    5.647 
#    0.000    0.000    0.000    0.000    0.000    0.000 
#    0.000    0.000    0.000    0.000    0.000    0.000 
#
# Total GULP energy -94665.220178 kJ/mol
# GULP energy per Si atom -5568.542363 kJ/mol
# Density = 1.898994 g / cm^3
# Si number density = 19.033258 Si / 1000 Ang^3
#
#
#
# Elastic Constant Matrix: (Units=GPa)
#
#
# Indices 1 2 3 4 5 6 
#
# 1 128.1377 49.6032 47.5292 0.0000 0.0000 0.0000
# 2 49.6032 153.3629 60.2691 0.0000 0.0000 0.0000
# 3 47.5292 60.2691 117.8455 0.0000 0.0000 0.0000
# 4 0.0000 0.0000 0.0000 -21.3121 0.0000 0.0000
# 5 0.0000 0.0000 0.0000 0.0000 36.6528 0.0000
# 6 0.0000 0.0000 0.0000 0.0000 0.0000 -33.5744
#
#
#
# Elastic Compliance Matrix: (Units=1/GPa)
#
#
# Indices 1 2 3 4 5 6 
#
# 1 0.009639 -0.001990 -0.002870 0.000000 0.000000 0.000000
# 2 -0.001990 0.008571 -0.003581 0.000000 0.000000 0.000000
# 3 -0.002870 -0.003581 0.011475 0.000000 0.000000 0.000000
# 4 0.000000 0.000000 0.000000 -0.046922 0.000000 0.000000
# 5 0.000000 0.000000 0.000000 0.000000 0.027283 0.000000
# 6 0.000000 0.000000 0.000000 0.000000 0.000000 -0.029785
#
#
# Mechanical properties :
#
#
# Convention : Reuss Voigt Hill
#
# Bulk Modulus (GPa) = 78.10467 79.34990 78.72728
# Shear Modulus (GPa) = 3543.87298 12.48291 1778.17794
#
# Velocity S-wave (km/s) = 43.19698 2.56373 30.59863
# Velocity P-wave (km/s) = 50.29013 7.10945 35.91407
#
# Compressibility (1/GPa) = 0.01280333
#
# Stress axis : x y z
#
# Youngs Moduli (GPa) = 103.74669 116.66772 87.14864
#
# Poissons Ratio (x) = 0.23214 0.25011
# Poissons Ratio (y) = 0.20643 0.31209
# Poissons Ratio (z) = 0.29775 0.41780
#
# Static dielectric constant tensor:
#      x y z
#    x 1.653500 0.000000 0.000000 
#    y 0.000000 1.725290 0.000000 
#    z 0.000000 0.000000 1.655900 
# 
# From -- ./inp_files/31017.got.cif
#   From: 2010.05.17/outbox.cif.g08.bks.cpg/sg42_16_cif.got.tgz:31017.got - 2010.06.03 19:03:34.
