data_PCOD9369921
_publ_section_title
;
Structure prediction by ZEFSAII (Michael W. Deem and Ramdas Pophale) SiO2 
 PCOD9369921
Probable space group: F M M 2
;
_chemical_formula_sum "Si O2"
_cell_formula_units_Z 112
_cell_length_a 17.167254
_cell_length_b 20.198713
_cell_length_c 17.484836
_cell_angle_alpha 90.000000
_cell_angle_beta 90.000000
_cell_angle_gamma 90.000000
_cell_volume 6062.979425
_symmetry_space_group_name_H-M "F M M 2"
_symmetry_group_IT_number 42
_symmetry_cell_setting 'orthorhombic'
loop_
_space_group_symop_operation_xyz
x,y,z
-x,-y,z
-x,y,z
x,-y,z
x,1/2+y,1/2+z
-x,1/2-y,1/2+z
-x,1/2+y,1/2+z
x,1/2-y,1/2+z
1/2+x,y,1/2+z
1/2-x,-y,1/2+z
1/2-x,y,1/2+z
1/2+x,-y,1/2+z
1/2+x,1/2+y,z
1/2-x,1/2-y,z
1/2-x,1/2+y,z
1/2+x,1/2-y,z
loop_
_atom_site_type_symbol
_atom_site_label
_atom_site_fract_x
_atom_site_fract_y
_atom_site_fract_z
Si Si1 0.092555 0.424788 0.779990
Si Si2 0.196214 0.926124 0.130089
Si Si3 0.593770 0.313493 0.395118
Si Si4 0.410008 0.269340 0.554694
Si Si5 0.910723 0.882894 0.997692
Si Si6 0.196330 0.311437 0.191829
Si Si7 0.592054 0.165494 0.331677
O O1 0.104225 0.500000 0.807750
O O2 0.133043 0.418704 0.698195
O O3 0.123603 0.371245 0.840375
O O4 0.000000 0.414106 0.770416
O O5 0.151164 0.919780 0.049991
O O6 0.255501 0.866933 0.146244
O O7 0.230709 0.000000 0.136442
O O8 0.500000 0.321863 0.401628
O O9 0.623424 0.310114 0.482119
O O10 0.605002 0.241937 0.356988
O O11 0.500000 0.288017 0.567004
O O12 0.409292 0.193078 0.527936
O O13 0.363209 0.279728 0.631441
O O14 0.000000 0.907046 0.007574
O O15 0.893383 0.878442 0.907271
O O16 0.250000 0.250000 0.218756
O O17 0.149338 0.344863 0.261129
O O18 0.500000 0.158806 0.312083
#
# Coordination Sequence:
#
# PCOD9369921 Si02
#       7
#    16  16  16  16  16  16  16
#     4   9  17  31  53  79 109 146 184 223 276 343
#     4  11  23  38  53  82 121 150 182 232 287 341
#     4   8  15  30  52  81 109 136 177 236 282 316
#     4   9  18  34  57  82 111 143 189 240 276 321
#     4   9  18  37  61  85 110 145 189 236 283 333
#     4  12  22  36  55  86 115 155 190 226 286 346
#     4   9  19  36  59  83 109 143 194 245 281 324
#
# _framework density 18.472764999999999
#
# number of rings (size 3 to 8) (size 9 to 14) (size 15 to 20)
#    0.000    2.429    1.429    3.429    0.000    0.857 
#    7.714    1.429    0.000    3.429    0.000    0.000 
#    0.000    0.000    0.000    0.000    0.000    0.000 
#
# Total GULP energy -156142.661311 kJ/mol
# GULP energy per Si atom -5576.523618 kJ/mol
# Density = 1.843072 g / cm^3
# Si number density = 18.472765 Si / 1000 Ang^3
#
#
#
# Elastic Constant Matrix: (Units=GPa)
#
#
# Indices 1 2 3 4 5 6 
#
# 1 45.3570 15.9080 35.8064 0.0000 0.0000 0.0000
# 2 15.9080 38.9226 4.2013 0.0000 0.0000 0.0000
# 3 35.8064 4.2013 78.1291 0.0000 0.0000 0.0000
# 4 0.0000 0.0000 0.0000 24.7915 0.0000 0.0000
# 5 0.0000 0.0000 0.0000 0.0000 14.4954 0.0000
# 6 0.0000 0.0000 0.0000 0.0000 0.0000 9.2711
#
#
#
# Elastic Compliance Matrix: (Units=1/GPa)
#
#
# Indices 1 2 3 4 5 6 
#
# 1 0.041850 -0.015122 -0.018367 0.000000 0.000000 0.000000
# 2 -0.015122 0.031306 0.005247 0.000000 0.000000 0.000000
# 3 -0.018367 0.005247 0.020935 0.000000 0.000000 0.000000
# 4 0.000000 0.000000 0.000000 0.040336 0.000000 0.000000
# 5 0.000000 0.000000 0.000000 0.000000 0.068987 0.000000
# 6 0.000000 0.000000 0.000000 0.000000 0.000000 0.107862
#
#
# Mechanical properties :
#
#
# Convention : Reuss Voigt Hill
#
# Bulk Modulus (GPa) = 26.59050 30.47111 28.53081
# Shear Modulus (GPa) = 13.14764 16.81115 14.97939
#
# Velocity S-wave (km/s) = 2.67072 3.01998 2.85070
# Velocity P-wave (km/s) = 4.89245 5.35643 5.12969
#
# Compressibility (1/GPa) = 0.03760742
#
# Stress axis : x y z
#
# Youngs Moduli (GPa) = 23.89462 31.94262 47.76774
#
# Poissons Ratio (x) = 0.48304 0.87734
# Poissons Ratio (y) = 0.36134 -0.25064
# Poissons Ratio (z) = 0.43887 -0.16760
#
# Static dielectric constant tensor:
#      x y z
#    x 1.640300 0.000000 0.000000 
#    y 0.000000 1.628960 0.000000 
#    z 0.000000 0.000000 1.642970 
# 
# From -- ./inp_files/21062.got.cif
#   From: 2010.05.17/outbox.cif.g08.bks.cpg/sg42_11_cif.got.tgz:21062.got - 2010.06.03 19:03:34.
