data_PCOD9369561
_publ_section_title
;
Structure prediction by ZEFSAII (Michael W. Deem and Ramdas Pophale) SiO2 
 PCOD9369561
Probable space group: F M M 2
;
_chemical_formula_sum "Si O2"
_cell_formula_units_Z 88
_cell_length_a 13.237108
_cell_length_b 19.025572
_cell_length_c 16.997646
_cell_angle_alpha 90.000000
_cell_angle_beta 90.000000
_cell_angle_gamma 90.000000
_cell_volume 4280.747533
_symmetry_space_group_name_H-M "F M M 2"
_symmetry_group_IT_number 42
_symmetry_cell_setting 'orthorhombic'
loop_
_space_group_symop_operation_xyz
x,y,z
-x,-y,z
-x,y,z
x,-y,z
x,1/2+y,1/2+z
-x,1/2-y,1/2+z
-x,1/2+y,1/2+z
x,1/2-y,1/2+z
1/2+x,y,1/2+z
1/2-x,-y,1/2+z
1/2-x,y,1/2+z
1/2+x,-y,1/2+z
1/2+x,1/2+y,z
1/2-x,1/2-y,z
1/2-x,1/2+y,z
1/2+x,1/2-y,z
loop_
_atom_site_type_symbol
_atom_site_label
_atom_site_fract_x
_atom_site_fract_y
_atom_site_fract_z
Si Si1 0.121115 0.853923 0.960970
Si Si2 0.250000 0.750000 0.224603
Si Si3 0.625467 0.000000 0.733024
Si Si4 0.878601 0.000000 0.049334
Si Si5 0.118621 0.079426 0.494551
Si Si6 0.120659 0.279712 0.075420
Si Si7 0.207497 0.873331 0.334686
O O1 0.185723 0.861826 0.880745
O O2 0.000000 0.851701 0.946345
O O3 0.146493 0.926391 0.006927
O O4 0.145598 0.784734 0.014653
O O5 0.164763 0.727439 0.162313
O O6 0.197193 0.804778 0.282471
O O7 0.681799 0.065093 0.773823
O O8 0.500000 0.000000 0.743552
O O9 0.649534 0.000000 0.640642
O O10 0.000000 0.000000 0.049073
O O11 0.156835 0.144048 0.546120
O O12 0.133714 0.107697 0.406362
O O13 0.000000 0.073994 0.510588
O O14 0.160206 0.000000 0.503567
O O15 0.000000 0.279351 0.078134
#
# Coordination Sequence:
#
# PCOD9369561 Si02
#       7
#    16   8   8   8  16  16  16
#     4  10  21  40  65  92 123 169 224 266 315 387
#     4  12  26  40  58  98 138 166 210 266 336 394
#     4  11  23  40  63  97 131 169 216 267 330 386
#     4   9  19  36  60  87 119 159 209 263 309 372
#     4  10  21  40  65  91 119 163 223 273 314 378
#     4  10  22  42  65  90 125 174 221 265 322 386
#     4  12  23  38  61  94 132 167 208 266 330 382
#
# _framework density 20.557157
#
# number of rings (size 3 to 8) (size 9 to 14) (size 15 to 20)
#    0.000    1.455    0.909    4.364    0.000    3.636 
#    1.636    0.000    0.000    0.000    0.000    0.000 
#    0.000    0.000    0.000    0.000    0.000    0.000 
#
# Total GULP energy -122633.666181 kJ/mol
# GULP energy per Si atom -5574.257554 kJ/mol
# Density = 2.051037 g / cm^3
# Si number density = 20.557157 Si / 1000 Ang^3
#
#
#
# Elastic Constant Matrix: (Units=GPa)
#
#
# Indices 1 2 3 4 5 6 
#
# 1 71.7803 29.2218 10.9621 0.0000 0.0000 0.0000
# 2 29.2218 174.5011 73.4483 0.0000 0.0000 0.0000
# 3 10.9621 73.4483 127.3190 0.0000 0.0000 0.0000
# 4 0.0000 0.0000 0.0000 -11.1602 0.0000 0.0000
# 5 0.0000 0.0000 0.0000 0.0000 43.8950 0.0000
# 6 0.0000 0.0000 0.0000 0.0000 0.0000 34.2171
#
#
#
# Elastic Compliance Matrix: (Units=1/GPa)
#
#
# Indices 1 2 3 4 5 6 
#
# 1 0.014955 -0.002592 0.000207 0.000000 0.000000 0.000000
# 2 -0.002592 0.008017 -0.004402 0.000000 0.000000 0.000000
# 3 0.000207 -0.004402 0.010376 0.000000 0.000000 0.000000
# 4 0.000000 0.000000 0.000000 -0.089604 0.000000 0.000000
# 5 0.000000 0.000000 0.000000 0.000000 0.022782 0.000000
# 6 0.000000 0.000000 0.000000 0.000000 0.000000 0.029225
#
#
# Mechanical properties :
#
#
# Convention : Reuss Voigt Hill
#
# Bulk Modulus (GPa) = 50.56695 66.76276 58.66486
# Shear Modulus (GPa) = 314.16920 30.72158 172.44539
#
# Velocity S-wave (km/s) = 12.37574 3.87000 9.16886
# Velocity P-wave (km/s) = 15.12824 7.24682 11.86128
#
# Compressibility (1/GPa) = 0.01977576
#
# Stress axis : x y z
#
# Youngs Moduli (GPa) = 66.86825 124.72816 96.37752
#
# Poissons Ratio (x) = 0.32325 -0.02000
# Poissons Ratio (y) = 0.17330 0.42425
# Poissons Ratio (z) = -0.01387 0.54905
#
# Static dielectric constant tensor:
#      x y z
#    x 1.810510 0.000000 0.000000 
#    y 0.000000 1.771360 0.000000 
#    z 0.000000 0.000000 1.715070 
# 
# From -- ./inp_files/19943.got.cif
#   From: 2010.05.17/outbox.cif.g08.bks.cpg/sg42_10_cif.got.tgz:19943.got - 2010.06.03 19:03:34.
