data_PCOD9369691
_publ_section_title
;
Structure prediction by ZEFSAII (Michael W. Deem and Ramdas Pophale) SiO2 
 PCOD9369691
Probable space group: F M M 2
;
_chemical_formula_sum "Si O2"
_cell_formula_units_Z 80
_cell_length_a 20.382627
_cell_length_b 13.992811
_cell_length_c 12.952385
_cell_angle_alpha 90.000000
_cell_angle_beta 90.000000
_cell_angle_gamma 90.000000
_cell_volume 3694.152929
_symmetry_space_group_name_H-M "F M M 2"
_symmetry_group_IT_number 42
_symmetry_cell_setting 'orthorhombic'
loop_
_space_group_symop_operation_xyz
x,y,z
-x,-y,z
-x,y,z
x,-y,z
x,1/2+y,1/2+z
-x,1/2-y,1/2+z
-x,1/2+y,1/2+z
x,1/2-y,1/2+z
1/2+x,y,1/2+z
1/2-x,-y,1/2+z
1/2-x,y,1/2+z
1/2+x,-y,1/2+z
1/2+x,1/2+y,z
1/2-x,1/2-y,z
1/2-x,1/2+y,z
1/2+x,1/2-y,z
loop_
_atom_site_type_symbol
_atom_site_label
_atom_site_fract_x
_atom_site_fract_y
_atom_site_fract_z
Si Si1 0.646702 0.886137 0.754530
Si Si2 0.571622 0.298439 0.441180
Si Si3 0.570642 0.887099 0.314961
Si Si4 0.288700 0.385843 0.841891
Si Si5 0.820330 0.719455 0.556611
O O1 0.592887 0.849056 0.835124
O O2 0.718381 0.856039 0.798350
O O3 0.641842 0.842380 0.641168
O O4 0.644534 0.000000 0.749224
O O5 0.500000 0.330837 0.476363
O O6 0.567264 0.185883 0.410965
O O7 0.631455 0.304431 0.520572
O O8 0.500000 0.870815 0.258620
O O9 0.644818 0.866115 0.274607
O O10 0.571392 0.000000 0.341249
O O11 0.284828 0.500000 0.853379
O O12 0.300590 0.339101 0.953312
O O13 0.750000 0.750000 0.599609
#
# Coordination Sequence:
#
# PCOD9369691 Si02
#       5
#    16  16  16  16  16
#     4  11  24  40  62  94 130 171 216 261 316 383
#     4  10  22  41  63  91 128 169 211 261 322 384
#     4   8  15  29  53  83 116 155 198 248 307 365
#     4   9  18  35  57  87 123 161 207 260 319 377
#     4  11  22  36  64  91 125 162 213 270 322 372
#
# _framework density 21.655843999999998
#
# number of rings (size 3 to 8) (size 9 to 14) (size 15 to 20)
#    0.000    2.200    2.000    0.600    5.600    2.000 
#    0.000    0.000    0.000    3.600    0.000    2.800 
#    0.000    0.000    0.000    0.000    0.000    0.000 
#
# Total GULP energy -111403.965833 kJ/mol
# GULP energy per Si atom -5570.198292 kJ/mol
# Density = 2.160655 g / cm^3
# Si number density = 21.655844 Si / 1000 Ang^3
#
#
#
# Elastic Constant Matrix: (Units=GPa)
#
#
# Indices 1 2 3 4 5 6 
#
# 1 125.9667 2.3523 9.5048 0.0000 0.0000 0.0000
# 2 2.3523 42.6728 21.7884 0.0000 0.0000 0.0000
# 3 9.5048 21.7884 86.4178 0.0000 0.0000 0.0000
# 4 0.0000 0.0000 0.0000 14.1896 0.0000 0.0000
# 5 0.0000 0.0000 0.0000 0.0000 5.4930 0.0000
# 6 0.0000 0.0000 0.0000 0.0000 0.0000 16.8179
#
#
#
# Elastic Compliance Matrix: (Units=1/GPa)
#
#
# Indices 1 2 3 4 5 6 
#
# 1 0.008005 0.000010 -0.000883 0.000000 0.000000 0.000000
# 2 0.000010 0.026897 -0.006782 0.000000 0.000000 0.000000
# 3 -0.000883 -0.006782 0.013379 0.000000 0.000000 0.000000
# 4 0.000000 0.000000 0.000000 0.070474 0.000000 0.000000
# 5 0.000000 0.000000 0.000000 0.000000 0.182051 0.000000
# 6 0.000000 0.000000 0.000000 0.000000 0.000000 0.059461
#
#
# Mechanical properties :
#
#
# Convention : Reuss Voigt Hill
#
# Bulk Modulus (GPa) = 30.33154 35.81647 33.07400
# Shear Modulus (GPa) = 12.93434 22.06087 17.49761
#
# Velocity S-wave (km/s) = 2.44656 3.19518 2.84559
# Velocity P-wave (km/s) = 4.69227 5.49427 5.10903
#
# Compressibility (1/GPa) = 0.03296898
#
# Stress axis : x y z
#
# Youngs Moduli (GPa) = 124.92130 37.17926 74.74486
#
# Poissons Ratio (x) = -0.00035 0.06599
# Poissons Ratio (y) = -0.00119 0.50695
# Poissons Ratio (z) = 0.11029 0.25217
#
# Static dielectric constant tensor:
#      x y z
#    x 1.908210 0.000000 0.000000 
#    y 0.000000 1.784200 0.000000 
#    z 0.000000 0.000000 1.753430 
# 
# From -- ./inp_files/10007.got.cif
#   From: 2010.05.17/outbox.cif.g08.bks.cpg/sg42_6_cif.got.tgz:10007.got - 2010.06.03 19:03:34.
