data_PCOD9369408
_publ_section_title
;
Structure prediction by ZEFSAII (Michael W. Deem and Ramdas Pophale) SiO2 
 PCOD9369408
Probable space group: F M M 2
;
_chemical_formula_sum "Si O2"
_cell_formula_units_Z 112
_cell_length_a 15.188172
_cell_length_b 14.380249
_cell_length_c 24.581236
_cell_angle_alpha 90.000000
_cell_angle_beta 90.000000
_cell_angle_gamma 90.000000
_cell_volume 5368.780263
_symmetry_space_group_name_H-M "F M M 2"
_symmetry_group_IT_number 42
_symmetry_cell_setting 'orthorhombic'
loop_
_space_group_symop_operation_xyz
x,y,z
-x,-y,z
-x,y,z
x,-y,z
x,1/2+y,1/2+z
-x,1/2-y,1/2+z
-x,1/2+y,1/2+z
x,1/2-y,1/2+z
1/2+x,y,1/2+z
1/2-x,-y,1/2+z
1/2-x,y,1/2+z
1/2+x,-y,1/2+z
1/2+x,1/2+y,z
1/2-x,1/2-y,z
1/2-x,1/2+y,z
1/2+x,1/2-y,z
loop_
_atom_site_type_symbol
_atom_site_label
_atom_site_fract_x
_atom_site_fract_y
_atom_site_fract_z
Si Si1 0.646817 0.776163 0.705950
Si Si2 0.400989 0.394341 0.767947
Si Si3 0.647808 0.723039 0.087071
Si Si4 0.904351 0.392674 0.024061
Si Si5 0.599038 0.887668 0.813488
Si Si6 0.722638 0.386640 0.867061
Si Si7 0.705535 0.110274 0.485774
O O1 0.750000 0.750000 0.708681
O O2 0.602482 0.677216 0.718750
O O3 0.621602 0.813533 0.646314
O O4 0.621099 0.845115 0.754481
O O5 0.500000 0.396039 0.789924
O O6 0.376463 0.500000 0.752396
O O7 0.336156 0.360699 0.815385
O O8 0.750000 0.750000 0.093371
O O9 0.598001 0.817209 0.071694
O O10 0.650446 0.657247 0.034174
O O11 0.899312 0.500000 0.042659
O O12 0.000000 0.383301 0.995144
O O13 0.811592 0.375441 0.993423
O O14 0.500000 0.859178 0.829191
O O15 0.676976 0.858942 0.854365
O O16 0.601260 0.000000 0.810370
O O17 0.721088 0.500000 0.869421
O O18 0.686762 0.354061 0.925099
O O19 0.690523 0.000000 0.488473
#
# Coordination Sequence:
#
# PCOD9369408 Si02
#       7
#    16  16  16  16  16  16  16
#     4  11  21  36  58  82 117 158 193 240 297 353
#     4  10  21  38  60  87 117 151 196 248 300 349
#     4   9  20  36  54  82 115 151 194 236 286 347
#     4   9  18  34  55  80 111 147 189 239 292 339
#     4  10  21  37  57  85 121 160 200 239 288 353
#     4   9  18  36  61  86 116 152 191 243 298 344
#     4   9  18  36  61  85 112 150 194 238 289 353
#
# _framework density 20.861348
#
# number of rings (size 3 to 8) (size 9 to 14) (size 15 to 20)
#    0.000    2.429    1.429    0.429    0.000    2.857 
#    7.714    7.857    0.000    1.286    0.000    0.000 
#    0.000    0.000    0.000    0.000    0.000    0.000 
#
# Total GULP energy -156090.079461 kJ/mol
# GULP energy per Si atom -5574.645695 kJ/mol
# Density = 2.081387 g / cm^3
# Si number density = 20.861348 Si / 1000 Ang^3
#
#
#
# Elastic Constant Matrix: (Units=GPa)
#
#
# Indices 1 2 3 4 5 6 
#
# 1 81.3924 10.7081 17.2421 0.0000 0.0000 0.0000
# 2 10.7081 50.8145 29.3058 0.0000 0.0000 0.0000
# 3 17.2421 29.3058 130.5350 0.0000 0.0000 0.0000
# 4 0.0000 0.0000 0.0000 24.1089 0.0000 0.0000
# 5 0.0000 0.0000 0.0000 0.0000 -6.3911 0.0000
# 6 0.0000 0.0000 0.0000 0.0000 0.0000 14.4690
#
#
#
# Elastic Compliance Matrix: (Units=1/GPa)
#
#
# Indices 1 2 3 4 5 6 
#
# 1 0.012811 -0.001980 -0.001248 0.000000 0.000000 0.000000
# 2 -0.001980 0.022912 -0.004882 0.000000 0.000000 0.000000
# 3 -0.001248 -0.004882 0.008922 0.000000 0.000000 0.000000
# 4 0.000000 0.000000 0.000000 0.041478 0.000000 0.000000
# 5 0.000000 0.000000 0.000000 0.000000 -0.156468 0.000000
# 6 0.000000 0.000000 0.000000 0.000000 0.000000 0.069113
#
#
# Mechanical properties :
#
#
# Convention : Reuss Voigt Hill
#
# Bulk Modulus (GPa) = 35.18052 41.91710 38.54881
# Shear Modulus (GPa) = 204.37526 20.13640 112.25583
#
# Velocity S-wave (km/s) = 9.90864 3.11022 7.34352
# Velocity P-wave (km/s) = 12.15766 5.74759 9.50903
#
# Compressibility (1/GPa) = 0.02842482
#
# Stress axis : x y z
#
# Youngs Moduli (GPa) = 78.05812 43.64430 112.08617
#
# Poissons Ratio (x) = 0.08642 0.13984
# Poissons Ratio (y) = 0.15456 0.54725
# Poissons Ratio (z) = 0.09739 0.21309
#
# Static dielectric constant tensor:
#      x y z
#    x 1.789840 0.000000 0.000000 
#    y 0.000000 1.768920 0.000000 
#    z 0.000000 0.000000 1.750880 
# 
# From -- ./inp_files/29488.got.cif
#   From: 2010.05.17/outbox.cif.g08.bks.cpg/sg42_15_cif.got.tgz:29488.got - 2010.06.03 19:03:34.
