data_PCOD9369864
_publ_section_title
;
Structure prediction by ZEFSAII (Michael W. Deem and Ramdas Pophale) SiO2 
 PCOD9369864
Probable space group: F M M 2
;
_chemical_formula_sum "Si O2"
_cell_formula_units_Z 80
_cell_length_a 10.177770
_cell_length_b 16.214118
_cell_length_c 23.527247
_cell_angle_alpha 90.000000
_cell_angle_beta 90.000000
_cell_angle_gamma 90.000000
_cell_volume 3882.550145
_symmetry_space_group_name_H-M "F M M 2"
_symmetry_group_IT_number 42
_symmetry_cell_setting 'orthorhombic'
loop_
_space_group_symop_operation_xyz
x,y,z
-x,-y,z
-x,y,z
x,-y,z
x,1/2+y,1/2+z
-x,1/2-y,1/2+z
-x,1/2+y,1/2+z
x,1/2-y,1/2+z
1/2+x,y,1/2+z
1/2-x,-y,1/2+z
1/2-x,y,1/2+z
1/2+x,-y,1/2+z
1/2+x,1/2+y,z
1/2-x,1/2-y,z
1/2-x,1/2+y,z
1/2+x,1/2-y,z
loop_
_atom_site_type_symbol
_atom_site_label
_atom_site_fract_x
_atom_site_fract_y
_atom_site_fract_z
Si Si1 0.000000 0.318841 0.690660
Si Si2 0.253965 0.591748 0.138731
Si Si3 0.155487 0.170202 0.523913
Si Si4 0.500000 0.638415 0.842497
Si Si5 0.500000 0.338264 0.321094
Si Si6 0.235120 0.649707 0.900557
Si Si7 0.000000 0.123149 0.712075
O O1 0.130839 0.346686 0.657895
O O2 0.000000 0.355884 0.754408
O O3 0.000000 0.221304 0.700292
O O4 0.310738 0.500000 0.136319
O O5 0.192311 0.616210 0.078285
O O6 0.133312 0.593011 0.182831
O O7 0.250000 0.250000 0.527305
O O8 0.188748 0.127380 0.463694
O O9 0.000000 0.191731 0.524493
O O10 0.500000 0.738469 0.831592
O O11 0.373110 0.616399 0.879095
O O12 0.500000 0.604165 0.778858
O O13 0.372839 0.370886 0.353519
O O14 0.250000 0.750000 0.901564
#
# Coordination Sequence:
#
# PCOD9369864 Si02
#       7
#     8  16  16   8   8  16   8
#     4  11  23  40  65  94 124 157 210 257 304 365
#     4  12  26  42  61  88 127 168 206 256 315 365
#     4  11  23  38  63  92 122 160 208 258 305 367
#     4   9  18  30  55  92 122 151 190 249 308 355
#     4   9  16  32  55  86 122 147 190 247 304 353
#     4   9  17  30  53  88 125 150 187 248 311 356
#     4  11  21  40  67  94 122 165 208 255 294 369
#
# _framework density 20.605013
#
# number of rings (size 3 to 8) (size 9 to 14) (size 15 to 20)
#    0.000    1.600    2.000    3.600    5.600    3.200 
#    0.000    0.000    0.000    7.200    0.000    0.000 
#    0.000    0.000    0.000    0.000    0.000    0.000 
#
# Total GULP energy -111762.370186 kJ/mol
# GULP energy per Si atom -5588.118509 kJ/mol
# Density = 2.055812 g / cm^3
# Si number density = 20.605013 Si / 1000 Ang^3
#
#
#
# Elastic Constant Matrix: (Units=GPa)
#
#
# Indices 1 2 3 4 5 6 
#
# 1 164.7651 15.2899 68.0138 0.0000 0.0000 0.0000
# 2 15.2899 46.9115 15.0921 0.0000 0.0000 0.0000
# 3 68.0138 15.0921 153.9128 0.0000 0.0000 0.0000
# 4 0.0000 0.0000 0.0000 -12.5352 0.0000 0.0000
# 5 0.0000 0.0000 0.0000 0.0000 44.7119 0.0000
# 6 0.0000 0.0000 0.0000 0.0000 0.0000 43.9699
#
#
#
# Elastic Compliance Matrix: (Units=1/GPa)
#
#
# Indices 1 2 3 4 5 6 
#
# 1 0.007515 -0.001426 -0.003181 0.000000 0.000000 0.000000
# 2 -0.001426 0.022282 -0.001555 0.000000 0.000000 0.000000
# 3 -0.003181 -0.001555 0.008055 0.000000 0.000000 0.000000
# 4 0.000000 0.000000 0.000000 -0.079775 0.000000 0.000000
# 5 0.000000 0.000000 0.000000 0.000000 0.022365 0.000000
# 6 0.000000 0.000000 0.000000 0.000000 0.000000 0.022743
#
#
# Mechanical properties :
#
#
# Convention : Reuss Voigt Hill
#
# Bulk Modulus (GPa) = 39.17195 62.48677 50.82936
# Shear Modulus (GPa) = 208.18684 33.04223 120.61453
#
# Velocity S-wave (km/s) = 10.06262 4.00884 7.65922
# Velocity P-wave (km/s) = 12.41211 7.19858 10.14594
#
# Compressibility (1/GPa) = 0.02552847
#
# Stress axis : x y z
#
# Youngs Moduli (GPa) = 133.07409 44.87997 124.14250
#
# Poissons Ratio (x) = 0.06399 0.39488
# Poissons Ratio (y) = 0.18975 0.19301
# Poissons Ratio (z) = 0.42329 0.06978
#
# Static dielectric constant tensor:
#      x y z
#    x 1.638880 0.000000 0.000000 
#    y 0.000000 1.753730 0.000000 
#    z 0.000000 0.000000 1.715570 
# 
# From -- ./inp_files/27842.got.cif
#   From: 2010.05.17/outbox.cif.g08.bks.cpg/sg42_14_cif.got.tgz:27842.got - 2010.06.03 19:03:34.
