data_PCOD9369523
_publ_section_title
;
Structure prediction by ZEFSAII (Michael W. Deem and Ramdas Pophale) SiO2 
 PCOD9369523
Probable space group: F M M 2
;
_chemical_formula_sum "Si O2"
_cell_formula_units_Z 100
_cell_length_a 7.785626
_cell_length_b 20.732756
_cell_length_c 29.433964
_cell_angle_alpha 90.000000
_cell_angle_beta 90.000000
_cell_angle_gamma 90.000000
_cell_volume 4751.156418
_symmetry_space_group_name_H-M "F M M 2"
_symmetry_group_IT_number 42
_symmetry_cell_setting 'orthorhombic'
loop_
_space_group_symop_operation_xyz
x,y,z
-x,-y,z
-x,y,z
x,-y,z
x,1/2+y,1/2+z
-x,1/2-y,1/2+z
-x,1/2+y,1/2+z
x,1/2-y,1/2+z
1/2+x,y,1/2+z
1/2-x,-y,1/2+z
1/2-x,y,1/2+z
1/2+x,-y,1/2+z
1/2+x,1/2+y,z
1/2-x,1/2-y,z
1/2-x,1/2+y,z
1/2+x,1/2-y,z
loop_
_atom_site_type_symbol
_atom_site_label
_atom_site_fract_x
_atom_site_fract_y
_atom_site_fract_z
Si Si1 0.204616 0.820425 0.415810
Si Si2 0.199947 0.174857 0.665034
Si Si3 0.301550 0.094816 0.343448
Si Si4 0.500000 0.500000 0.371742
Si Si5 0.704893 0.072636 0.590120
Si Si6 0.292675 0.071525 0.984583
Si Si7 0.791736 0.073157 0.737642
O O1 0.250000 0.750000 0.432323
O O2 0.286042 0.835722 0.366845
O O3 0.272291 0.873238 0.451597
O O4 0.000000 0.824243 0.412961
O O5 0.250000 0.250000 0.661203
O O6 0.226535 0.131318 0.620190
O O7 0.277857 0.129361 0.704903
O O8 0.000000 0.177803 0.675086
O O9 0.500000 0.073167 0.348378
O O10 0.257428 0.089121 0.290256
O O11 0.153528 0.054691 0.368730
O O12 0.500000 0.072024 0.595064
O O13 0.749232 0.082083 0.537246
O O14 0.769093 0.000000 0.603194
O O15 0.500000 0.069999 0.980383
O O16 0.229339 0.000000 0.972006
O O17 0.000000 0.070781 0.732999
O O18 0.728760 0.000000 0.727624
#
# Coordination Sequence:
#
# PCOD9369523 Si02
#       7
#    16  16  16   4  16  16  16
#     4  11  24  41  62  90 127 168 213 256 312 381
#     4  11  23  40  60  86 122 162 204 249 305 368
#     4  11  23  41  65  95 131 165 211 265 314 373
#     4  12  22  40  64 102 124 164 212 264 320 378
#     4  10  21  39  61  91 122 153 200 254 307 367
#     4   9  20  38  64  90 119 157 205 257 307 366
#     4   9  19  38  63  89 116 155 203 254 309 366
#
# _framework density 21.047508000000001
#
# number of rings (size 3 to 8) (size 9 to 14) (size 15 to 20)
#    0.000    1.760    1.600    2.160    1.120    4.160 
#    2.880    3.200    0.000    0.000    0.000    0.000 
#    0.000    0.000    0.000    0.000    0.000    0.000 
#
# Total GULP energy -139286.361313 kJ/mol
# GULP energy per Si atom -5571.454453 kJ/mol
# Density = 2.099960 g / cm^3
# Si number density = 21.047508 Si / 1000 Ang^3
#
#
#
# Elastic Constant Matrix: (Units=GPa)
#
#
# Indices 1 2 3 4 5 6 
#
# 1 65.7942 21.0824 5.3130 0.0000 0.0000 0.0000
# 2 21.0824 205.1610 95.2282 0.0000 0.0000 0.0000
# 3 5.3130 95.2282 90.9960 0.0000 0.0000 0.0000
# 4 0.0000 0.0000 0.0000 3.4904 0.0000 0.0000
# 5 0.0000 0.0000 0.0000 0.0000 12.6470 0.0000
# 6 0.0000 0.0000 0.0000 0.0000 0.0000 23.5659
#
#
#
# Elastic Compliance Matrix: (Units=1/GPa)
#
#
# Indices 1 2 3 4 5 6 
#
# 1 0.015823 -0.002328 0.001512 0.000000 0.000000 0.000000
# 2 -0.002328 0.009821 -0.010142 0.000000 0.000000 0.000000
# 3 0.001512 -0.010142 0.021515 0.000000 0.000000 0.000000
# 4 0.000000 0.000000 0.000000 0.286497 0.000000 0.000000
# 5 0.000000 0.000000 0.000000 0.000000 0.079070 0.000000
# 6 0.000000 0.000000 0.000000 0.000000 0.000000 0.042434
#
#
# Mechanical properties :
#
#
# Convention : Reuss Voigt Hill
#
# Bulk Modulus (GPa) = 39.61395 67.24427 53.42911
# Shear Modulus (GPa) = 10.29890 23.96251 17.13071
#
# Velocity S-wave (km/s) = 2.21445 3.37782 2.85600
# Velocity P-wave (km/s) = 5.03989 6.87249 6.02626
#
# Compressibility (1/GPa) = 0.02524363
#
# Stress axis : x y z
#
# Youngs Moduli (GPa) = 63.20026 101.82416 46.48007
#
# Poissons Ratio (x) = 0.23704 -0.07030
# Poissons Ratio (y) = 0.14713 0.47139
# Poissons Ratio (z) = -0.09558 1.03267
#
# Static dielectric constant tensor:
#      x y z
#    x 1.759020 0.000000 0.000000 
#    y 0.000000 1.803670 0.000000 
#    z 0.000000 0.000000 1.770180 
# 
# From -- ./inp_files/33876.got.cif
#   From: 2010.05.17/outbox.cif.g08.bks.cpg/sg42_17_cif.got.tgz:33876.got - 2010.06.03 19:03:34.
