data_PCOD9369960
_publ_section_title
;
Structure prediction by ZEFSAII (Michael W. Deem and Ramdas Pophale) SiO2 
 PCOD9369960
Probable space group: F M M 2
;
_chemical_formula_sum "Si O2"
_cell_formula_units_Z 72
_cell_length_a 13.802195
_cell_length_b 16.977800
_cell_length_c 15.189832
_cell_angle_alpha 90.000000
_cell_angle_beta 90.000000
_cell_angle_gamma 90.000000
_cell_volume 3559.447099
_symmetry_space_group_name_H-M "F M M 2"
_symmetry_group_IT_number 42
_symmetry_cell_setting 'orthorhombic'
loop_
_space_group_symop_operation_xyz
x,y,z
-x,-y,z
-x,y,z
x,-y,z
x,1/2+y,1/2+z
-x,1/2-y,1/2+z
-x,1/2+y,1/2+z
x,1/2-y,1/2+z
1/2+x,y,1/2+z
1/2-x,-y,1/2+z
1/2-x,y,1/2+z
1/2+x,-y,1/2+z
1/2+x,1/2+y,z
1/2-x,1/2-y,z
1/2-x,1/2+y,z
1/2+x,1/2-y,z
loop_
_atom_site_type_symbol
_atom_site_label
_atom_site_fract_x
_atom_site_fract_y
_atom_site_fract_z
Si Si1 0.811875 0.092573 0.853530
Si Si2 0.500000 0.796635 0.641538
Si Si3 0.787918 0.659930 0.690948
Si Si4 0.500000 0.305644 0.809567
Si Si5 0.686356 0.592773 0.521123
Si Si6 0.500000 0.195106 0.971659
O O1 0.730232 0.118033 0.783616
O O2 0.905483 0.143709 0.831126
O O3 0.832665 0.000000 0.844917
O O4 0.771726 0.108228 0.950863
O O5 0.599949 0.840757 0.662865
O O6 0.500000 0.722236 0.708669
O O7 0.500000 0.766769 0.541566
O O8 0.750000 0.750000 0.697260
O O9 0.723435 0.618095 0.616685
O O10 0.500000 0.229855 0.873516
O O11 0.663740 0.500000 0.519063
O O12 0.594486 0.643566 0.491967
#
# Coordination Sequence:
#
# PCOD9369960 Si02
#       6
#    16   8  16   8  16   8
#     4  11  25  43  64  94 132 172 213 267 331 389
#     4  12  24  38  62 104 120 164 218 262 318 372
#     4  12  23  42  67  94 129 167 217 267 322 384
#     4  12  23  39  68  95 128 168 218 270 319 386
#     4  11  25  43  64  94 132 172 213 267 331 389
#     4  12  23  39  68  95 128 168 218 270 319 386
#
# _framework density 20.227861000000001
#
# number of rings (size 3 to 8) (size 9 to 14) (size 15 to 20)
#    0.000    0.444    4.444    4.000    0.000    0.000 
#    0.000    7.778    0.000    0.000    0.000    0.000 
#    0.000    0.000    0.000    0.000    0.000    0.000 
#
# Total GULP energy -100774.524115 kJ/mol
# GULP energy per Si atom -5598.584673 kJ/mol
# Density = 2.018182 g / cm^3
# Si number density = 20.227861 Si / 1000 Ang^3
#
#
#
# Elastic Constant Matrix: (Units=GPa)
#
#
# Indices 1 2 3 4 5 6 
#
# 1 85.8567 13.1578 -32.7628 0.0000 0.0000 0.0000
# 2 13.1578 25.0981 -1.3448 0.0000 0.0000 0.0000
# 3 -32.7628 -1.3448 60.2306 0.0000 0.0000 0.0000
# 4 0.0000 0.0000 0.0000 34.6098 0.0000 0.0000
# 5 0.0000 0.0000 0.0000 0.0000 22.1381 0.0000
# 6 0.0000 0.0000 0.0000 0.0000 0.0000 46.8001
#
#
#
# Elastic Compliance Matrix: (Units=1/GPa)
#
#
# Indices 1 2 3 4 5 6 
#
# 1 0.016162 -0.008011 0.008612 0.000000 0.000000 0.000000
# 2 -0.008011 0.043863 -0.003378 0.000000 0.000000 0.000000
# 3 0.008612 -0.003378 0.021212 0.000000 0.000000 0.000000
# 4 0.000000 0.000000 0.000000 0.028894 0.000000 0.000000
# 5 0.000000 0.000000 0.000000 0.000000 0.045171 0.000000
# 6 0.000000 0.000000 0.000000 0.000000 0.000000 0.021367
#
#
# Mechanical properties :
#
#
# Convention : Reuss Voigt Hill
#
# Bulk Modulus (GPa) = 13.21330 14.36508 13.78919
# Shear Modulus (GPa) = 24.10215 33.51860 28.81038
#
# Velocity S-wave (km/s) = 3.45560 4.07511 3.77807
# Velocity P-wave (km/s) = 4.74004 5.40916 5.08562
#
# Compressibility (1/GPa) = 0.07568133
#
# Stress axis : x y z
#
# Youngs Moduli (GPa) = 61.87535 22.79848 47.14279
#
# Poissons Ratio (x) = 0.18265 -0.40601
# Poissons Ratio (y) = 0.49570 0.15927
# Poissons Ratio (z) = -0.53289 0.07702
#
# Static dielectric constant tensor:
#      x y z
#    x 1.698510 0.000000 0.000000 
#    y 0.000000 1.689060 0.000000 
#    z 0.000000 0.000000 1.673560 
# 
# From -- ./inp_files/19751.got.cif
#   From: 2010.05.17/outbox.cif.g08.bks.cpg/sg42_10_cif.got.tgz:19751.got - 2010.06.03 19:03:34.
