data_PCOD9369727
_publ_section_title
;
Structure prediction by ZEFSAII (Michael W. Deem and Ramdas Pophale) SiO2 
 PCOD9369727
Probable space group: F M M 2
;
_chemical_formula_sum "Si O2"
_cell_formula_units_Z 104
_cell_length_a 15.988468
_cell_length_b 14.742849
_cell_length_c 18.406373
_cell_angle_alpha 90.000000
_cell_angle_beta 90.000000
_cell_angle_gamma 90.000000
_cell_volume 4338.668693
_symmetry_space_group_name_H-M "F M M 2"
_symmetry_group_IT_number 42
_symmetry_cell_setting 'orthorhombic'
loop_
_space_group_symop_operation_xyz
x,y,z
-x,-y,z
-x,y,z
x,-y,z
x,1/2+y,1/2+z
-x,1/2-y,1/2+z
-x,1/2+y,1/2+z
x,1/2-y,1/2+z
1/2+x,y,1/2+z
1/2-x,-y,1/2+z
1/2-x,y,1/2+z
1/2+x,-y,1/2+z
1/2+x,1/2+y,z
1/2-x,1/2-y,z
1/2-x,1/2+y,z
1/2+x,1/2-y,z
loop_
_atom_site_type_symbol
_atom_site_label
_atom_site_fract_x
_atom_site_fract_y
_atom_site_fract_z
Si Si1 0.823032 0.896600 0.357420
Si Si2 0.198635 0.500000 0.143982
Si Si3 0.096804 0.659892 0.170360
Si Si4 0.375949 0.601571 0.833927
Si Si5 0.595306 0.403851 0.048672
Si Si6 0.656598 0.857967 0.695441
Si Si7 0.594027 0.749900 0.450793
O O1 0.724036 0.889444 0.342465
O O2 0.864201 0.870051 0.280068
O O3 0.850562 0.831263 0.421630
O O4 0.843260 0.000000 0.374149
O O5 0.134409 0.582208 0.119239
O O6 0.262131 0.580486 0.177412
O O7 0.099096 0.612852 0.250360
O O8 0.152060 0.750590 0.179373
O O9 0.000000 0.683625 0.153693
O O10 0.399311 0.500000 0.857571
O O11 0.411692 0.679879 0.883564
O O12 0.500000 0.406442 0.021957
O O13 0.638768 0.500000 0.029864
O O14 0.594316 0.396281 0.134806
O O15 0.632594 0.313390 0.013847
O O16 0.500000 0.719826 0.470348
#
# Coordination Sequence:
#
# PCOD9369727 Si02
#       7
#    16   8  16  16  16  16  16
#     4  11  22  40  66  97 135 178 227 286 354 415
#     4  12  23  42  65 100 142 188 226 286 355 420
#     4  12  24  38  64 104 143 182 230 289 352 418
#     4  11  21  38  63  91 132 179 221 279 340 415
#     4  10  22  43  68  97 137 181 231 291 351 416
#     4  12  22  42  71 102 137 183 233 294 356 419
#     4  11  24  39  64  97 132 176 227 285 344 411
#
# _framework density 23.970486000000001
#
# number of rings (size 3 to 8) (size 9 to 14) (size 15 to 20)
#    0.000    0.769    5.385    2.538    0.000    2.462 
#    0.000    3.077    5.077    0.000    0.000    0.000 
#    0.000    0.000    0.000    0.000    0.000    0.000 
#
# Total GULP energy -144785.637234 kJ/mol
# GULP energy per Si atom -5568.678355 kJ/mol
# Density = 2.391593 g / cm^3
# Si number density = 23.970486 Si / 1000 Ang^3
#
#
#
# Elastic Constant Matrix: (Units=GPa)
#
#
# Indices 1 2 3 4 5 6 
#
# 1 80.0620 57.3220 13.0508 0.0000 0.0000 0.0000
# 2 57.3220 215.3559 22.4679 0.0000 0.0000 0.0000
# 3 13.0508 22.4679 70.2815 0.0000 0.0000 0.0000
# 4 0.0000 0.0000 0.0000 18.2292 0.0000 0.0000
# 5 0.0000 0.0000 0.0000 0.0000 91.2624 0.0000
# 6 0.0000 0.0000 0.0000 0.0000 0.0000 30.8838
#
#
#
# Elastic Compliance Matrix: (Units=1/GPa)
#
#
# Indices 1 2 3 4 5 6 
#
# 1 0.015608 -0.003985 -0.001624 0.000000 0.000000 0.000000
# 2 -0.003985 0.005821 -0.001121 0.000000 0.000000 0.000000
# 3 -0.001624 -0.001121 0.014888 0.000000 0.000000 0.000000
# 4 0.000000 0.000000 0.000000 0.054857 0.000000 0.000000
# 5 0.000000 0.000000 0.000000 0.000000 0.010957 0.000000
# 6 0.000000 0.000000 0.000000 0.000000 0.000000 0.032379
#
#
# Mechanical properties :
#
#
# Convention : Reuss Voigt Hill
#
# Bulk Modulus (GPa) = 43.74998 61.26455 52.50726
# Shear Modulus (GPa) = 32.13539 46.26564 39.20052
#
# Velocity S-wave (km/s) = 3.66542 4.39807 4.04835
# Velocity P-wave (km/s) = 6.01706 7.16969 6.61851
#
# Compressibility (1/GPa) = 0.02285715
#
# Stress axis : x y z
#
# Youngs Moduli (GPa) = 64.06864 171.78797 67.16597
#
# Poissons Ratio (x) = 0.68458 0.10910
# Poissons Ratio (y) = 0.25532 0.07529
# Poissons Ratio (z) = 0.10407 0.19256
#
# Static dielectric constant tensor:
#      x y z
#    x 1.962120 0.000000 0.000000 
#    y 0.000000 1.952620 0.000000 
#    z 0.000000 0.000000 1.949180 
# 
# From -- ./inp_files/25939.got.cif
#   From: 2010.05.17/outbox.cif.g08.bks.cpg/sg42_13_cif.got.tgz:25939.got - 2010.06.03 19:03:34.
