data_PCOD9369132
_publ_section_title
;
Structure prediction by ZEFSAII (Michael W. Deem and Ramdas Pophale) SiO2 
 PCOD9369132
Probable space group: F M M 2
;
_chemical_formula_sum "Si O2"
_cell_formula_units_Z 96
_cell_length_a 19.520054
_cell_length_b 16.694229
_cell_length_c 14.624044
_cell_angle_alpha 90.000000
_cell_angle_beta 90.000000
_cell_angle_gamma 90.000000
_cell_volume 4765.570145
_symmetry_space_group_name_H-M "F M M 2"
_symmetry_group_IT_number 42
_symmetry_cell_setting 'orthorhombic'
loop_
_space_group_symop_operation_xyz
x,y,z
-x,-y,z
-x,y,z
x,-y,z
x,1/2+y,1/2+z
-x,1/2-y,1/2+z
-x,1/2+y,1/2+z
x,1/2-y,1/2+z
1/2+x,y,1/2+z
1/2-x,-y,1/2+z
1/2-x,y,1/2+z
1/2+x,-y,1/2+z
1/2+x,1/2+y,z
1/2-x,1/2-y,z
1/2-x,1/2+y,z
1/2+x,1/2-y,z
loop_
_atom_site_type_symbol
_atom_site_label
_atom_site_fract_x
_atom_site_fract_y
_atom_site_fract_z
Si Si1 0.827462 0.166864 0.877380
Si Si2 0.420410 0.824788 0.862160
Si Si3 0.719494 0.406739 0.056618
Si Si4 0.618060 0.594444 0.545396
Si Si5 0.701339 0.405326 0.271633
Si Si6 0.925416 0.093792 0.743251
O O1 0.872053 0.246183 0.859142
O O2 0.753833 0.151017 0.828830
O O3 0.874104 0.102705 0.825919
O O4 0.818340 0.149887 0.984514
O O5 0.500000 0.814419 0.834945
O O6 0.376180 0.887792 0.802757
O O7 0.417988 0.857118 0.965739
O O8 0.699569 0.500000 0.041921
O O9 0.800155 0.400432 0.035052
O O10 0.709338 0.388674 0.163628
O O11 0.599913 0.500000 0.537452
O O12 0.600704 0.626853 0.646415
O O13 0.717775 0.500000 0.287279
O O14 0.000000 0.127111 0.765401
O O15 0.931051 0.000000 0.725991
#
# Coordination Sequence:
#
# PCOD9369132 Si02
#       6
#    16  16  16  16  16  16
#     4  12  23  41  63  93 133 168 208 258 319 387
#     4  12  27  43  61  95 137 175 211 254 321 388
#     4  10  21  39  68 100 124 158 215 273 320 370
#     4  10  20  38  65  96 127 164 215 270 315 364
#     4  11  23  43  70  96 124 165 219 272 315 370
#     4  10  20  36  62  94 127 168 216 264 313 367
#
# _framework density 20.144494999999999
#
# number of rings (size 3 to 8) (size 9 to 14) (size 15 to 20)
#    0.000    1.167    3.333    3.500    0.000    3.333 
#    3.000    3.333    0.000    2.000    0.000    0.000 
#    0.000    0.000    0.000    0.000    0.000    0.000 
#
# Total GULP energy -133928.742435 kJ/mol
# GULP energy per Si atom -5580.364268 kJ/mol
# Density = 2.009865 g / cm^3
# Si number density = 20.144495 Si / 1000 Ang^3
#
#
#
# Elastic Constant Matrix: (Units=GPa)
#
#
# Indices 1 2 3 4 5 6 
#
# 1 128.2390 35.8732 39.1591 0.0000 0.0000 0.0000
# 2 35.8732 50.2517 22.4369 0.0000 0.0000 0.0000
# 3 39.1591 22.4369 84.7322 0.0000 0.0000 0.0000
# 4 0.0000 0.0000 0.0000 -190.5099 0.0000 0.0000
# 5 0.0000 0.0000 0.0000 0.0000 20.8325 0.0000
# 6 0.0000 0.0000 0.0000 0.0000 0.0000 10.8961
#
#
#
# Elastic Compliance Matrix: (Units=1/GPa)
#
#
# Indices 1 2 3 4 5 6 
#
# 1 0.010475 -0.006029 -0.003245 0.000000 0.000000 0.000000
# 2 -0.006029 0.026038 -0.004108 0.000000 0.000000 0.000000
# 3 -0.003245 -0.004108 0.014389 0.000000 0.000000 0.000000
# 4 0.000000 0.000000 0.000000 -0.005249 0.000000 0.000000
# 5 0.000000 0.000000 0.000000 0.000000 0.048002 0.000000
# 6 0.000000 0.000000 0.000000 0.000000 0.000000 0.091776
#
#
# Mechanical properties :
#
#
# Convention : Reuss Voigt Hill
#
# Bulk Modulus (GPa) = 41.42815 50.90681 46.16748
# Shear Modulus (GPa) = 22.70223 -20.70600 0.99812
#
# Velocity S-wave (km/s) = 3.36068 -3.20953 0.70467
# Velocity P-wave (km/s) = 5.97235 3.40455 4.86107
#
# Compressibility (1/GPa) = 0.02413818
#
# Stress axis : x y z
#
# Youngs Moduli (GPa) = 95.46225 38.40491 69.49608
#
# Poissons Ratio (x) = 0.23156 0.22549
# Poissons Ratio (y) = 0.57557 0.28552
# Poissons Ratio (z) = 0.30974 0.15778
#
# Static dielectric constant tensor:
#      x y z
#    x 1.732430 0.000000 0.000000 
#    y 0.000000 1.749500 0.000000 
#    z 0.000000 0.000000 1.698430 
# 
# From -- ./inp_files/13987.got.cif
#   From: 2010.05.17/outbox.cif.g08.bks.cpg/sg42_7_cif.got.tgz:13987.got - 2010.06.03 19:03:34.
