data_PCOD9369321
_publ_section_title
;
Structure prediction by ZEFSAII (Michael W. Deem and Ramdas Pophale) SiO2 
 PCOD9369321
Probable space group: F M M 2
;
_chemical_formula_sum "Si O2"
_cell_formula_units_Z 80
_cell_length_a 18.529772
_cell_length_b 7.706012
_cell_length_c 30.706531
_cell_angle_alpha 90.000000
_cell_angle_beta 90.000000
_cell_angle_gamma 90.000000
_cell_volume 4384.605379
_symmetry_space_group_name_H-M "F M M 2"
_symmetry_group_IT_number 42
_symmetry_cell_setting 'orthorhombic'
loop_
_space_group_symop_operation_xyz
x,y,z
-x,-y,z
-x,y,z
x,-y,z
x,1/2+y,1/2+z
-x,1/2-y,1/2+z
-x,1/2+y,1/2+z
x,1/2-y,1/2+z
1/2+x,y,1/2+z
1/2-x,-y,1/2+z
1/2-x,y,1/2+z
1/2+x,-y,1/2+z
1/2+x,1/2+y,z
1/2-x,1/2-y,z
1/2-x,1/2+y,z
1/2+x,1/2-y,z
loop_
_atom_site_type_symbol
_atom_site_label
_atom_site_fract_x
_atom_site_fract_y
_atom_site_fract_z
Si Si1 0.587054 0.500000 0.195240
Si Si2 0.419396 0.293918 0.955542
Si Si3 0.087707 0.500000 0.796390
Si Si4 0.166263 0.705155 0.041576
Si Si5 0.911758 0.200081 0.861130
Si Si6 0.664405 0.708836 0.639452
O O1 0.500000 0.500000 0.192008
O O2 0.608671 0.500000 0.246076
O O3 0.619832 0.329230 0.172132
O O4 0.500000 0.221026 0.961289
O O5 0.425344 0.500000 0.948892
O O6 0.388283 0.232760 0.909094
O O7 0.375651 0.268707 0.999445
O O8 0.111197 0.670082 0.823184
O O9 0.000000 0.500000 0.797099
O O10 0.158601 0.500000 0.042242
O O11 0.250000 0.750000 0.036802
O O12 0.143339 0.764012 0.089894
O O13 0.000000 0.200708 0.862736
O O14 0.889440 0.000000 0.854012
O O15 0.654047 0.500000 0.644606
O O16 0.750000 0.750000 0.643914
#
# Coordination Sequence:
#
# PCOD9369321 Si02
#       6
#     8  16   8  16  16  16
#     4  11  24  38  60  95 121 147 193 250 305 339
#     4   9  18  31  50  79 111 145 181 222 275 323
#     4   9  18  32  52  79 110 143 181 230 286 337
#     4  10  21  34  53  79 106 145 191 225 267 333
#     4   8  15  29  49  74 107 145 183 223 272 335
#     4  10  21  40  63  84 113 158 203 237 286 361
#
# _framework density 18.245654999999999
#
# number of rings (size 3 to 8) (size 9 to 14) (size 15 to 20)
#    0.000    2.600    1.000    1.800    4.200    2.400 
#    0.000    4.000    0.000    1.200    0.000    0.000 
#    0.000    0.000    0.000    0.000    0.000    0.000 
#
# Total GULP energy -111430.092281 kJ/mol
# GULP energy per Si atom -5571.504614 kJ/mol
# Density = 1.820413 g / cm^3
# Si number density = 18.245655 Si / 1000 Ang^3
#
#
#
# Elastic Constant Matrix: (Units=GPa)
#
#
# Indices 1 2 3 4 5 6 
#
# 1 30.9980 24.0175 56.7050 0.0000 0.0000 0.0000
# 2 24.0175 99.0903 80.4681 0.0000 0.0000 0.0000
# 3 56.7050 80.4681 208.5849 0.0000 0.0000 0.0000
# 4 0.0000 0.0000 0.0000 35.5607 0.0000 0.0000
# 5 0.0000 0.0000 0.0000 0.0000 -55.5181 0.0000
# 6 0.0000 0.0000 0.0000 0.0000 0.0000 21.4380
#
#
#
# Elastic Compliance Matrix: (Units=1/GPa)
#
#
# Indices 1 2 3 4 5 6 
#
# 1 0.064454 -0.002029 -0.016740 0.000000 0.000000 0.000000
# 2 -0.002029 0.014760 -0.005142 0.000000 0.000000 0.000000
# 3 -0.016740 -0.005142 0.011329 0.000000 0.000000 0.000000
# 4 0.000000 0.000000 0.000000 0.028121 0.000000 0.000000
# 5 0.000000 0.000000 0.000000 0.000000 -0.018012 0.000000
# 6 0.000000 0.000000 0.000000 0.000000 0.000000 0.046646
#
#
# Mechanical properties :
#
#
# Convention : Reuss Voigt Hill
#
# Bulk Modulus (GPa) = 23.40774 73.45048 48.42911
# Shear Modulus (GPa) = 23.88246 12.12830 18.00538
#
# Velocity S-wave (km/s) = 3.62185 2.58102 3.14479
# Velocity P-wave (km/s) = 5.50885 7.01613 6.30767
#
# Compressibility (1/GPa) = 0.04272092
#
# Stress axis : x y z
#
# Youngs Moduli (GPa) = 15.51498 67.75287 88.27065
#
# Poissons Ratio (x) = 0.13745 1.47761
# Poissons Ratio (y) = 0.03147 0.45393
# Poissons Ratio (z) = 0.25971 0.34841
#
# Static dielectric constant tensor:
#      x y z
#    x 1.607660 0.000000 0.000000 
#    y 0.000000 1.652050 0.000000 
#    z 0.000000 0.000000 1.664800 
# 
# From -- ./inp_files/31289.got.cif
#   From: 2010.05.17/outbox.cif.g08.bks.cpg/sg42_16_cif.got.tgz:31289.got - 2010.06.03 19:03:34.
