data_PCOD9369969
_publ_section_title
;
Structure prediction by ZEFSAII (Michael W. Deem and Ramdas Pophale) SiO2 
 PCOD9369969
Probable space group: F M M 2
;
_chemical_formula_sum "Si O2"
_cell_formula_units_Z 44
_cell_length_a 10.123725
_cell_length_b 10.123725
_cell_length_c 21.885676
_cell_angle_alpha 90.000000
_cell_angle_beta 90.000000
_cell_angle_gamma 90.000000
_cell_volume 2243.058728
_symmetry_space_group_name_H-M "F M M 2"
_symmetry_group_IT_number 42
_symmetry_cell_setting 'orthorhombic'
loop_
_space_group_symop_operation_xyz
x,y,z
-x,-y,z
-x,y,z
x,-y,z
x,1/2+y,1/2+z
-x,1/2-y,1/2+z
-x,1/2+y,1/2+z
x,1/2-y,1/2+z
1/2+x,y,1/2+z
1/2-x,-y,1/2+z
1/2-x,y,1/2+z
1/2+x,-y,1/2+z
1/2+x,1/2+y,z
1/2-x,1/2-y,z
1/2-x,1/2+y,z
1/2+x,1/2-y,z
loop_
_atom_site_type_symbol
_atom_site_label
_atom_site_fract_x
_atom_site_fract_y
_atom_site_fract_z
Si Si1 0.000000 0.652976 0.690250
Si Si2 0.652976 0.500000 0.545486
Si Si3 0.250000 0.750000 0.117868
Si Si4 0.500000 0.500000 0.867868
Si Si5 0.195593 0.500000 0.901351
Si Si6 0.000000 0.304407 0.834386
O O1 0.126910 0.721591 0.661394
O O2 0.000000 0.658750 0.763321
O O3 0.000000 0.500000 0.671535
O O4 0.500000 0.500000 0.564201
O O5 0.721590 0.626910 0.574342
O O6 0.658749 0.500000 0.472415
O O7 0.354716 0.500000 0.899083
O O8 0.500000 0.645284 0.836654
O O9 0.125872 0.625872 0.867868
#
# Coordination Sequence:
#
# PCOD9369969 Si02
#       6
#     8   8   8   4   8   8
#     4  12  26  47  70 103 144 180 237 282 343 412
#     4  12  26  47  70 103 144 180 237 282 343 412
#     4  12  28  44  74 104 136 192 228 286 340 408
#     4  12  28  40  68 116 128 180 236 272 358 412
#     4  11  26  47  71 100 146 183 223 287 352 406
#     4  11  26  47  71 100 146 183 223 287 352 406
#
# _framework density 19.616070000000001
#
# number of rings (size 3 to 8) (size 9 to 14) (size 15 to 20)
#    0.000    0.364    7.273    1.091   10.182    2.909 
#    0.000    0.000    0.000    0.000    0.000    0.000 
#    0.000    0.000    0.000    0.000    0.000    0.000 
#
# Total GULP energy -61448.892422 kJ/mol
# GULP energy per Si atom -5586.262947 kJ/mol
# Density = 1.957142 g / cm^3
# Si number density = 19.616070 Si / 1000 Ang^3
#
#
#
# Elastic Constant Matrix: (Units=GPa)
#
#
# Indices 1 2 3 4 5 6 
#
# 1 168.8242 46.5151 60.6337 0.0000 0.0000 0.0000
# 2 46.5151 168.8241 60.6337 0.0000 0.0000 0.0000
# 3 60.6337 60.6337 164.5689 0.0000 0.0000 0.0000
# 4 0.0000 0.0000 0.0000 -50.1166 0.0000 0.0000
# 5 0.0000 0.0000 0.0000 0.0000 -50.1171 0.0000
# 6 0.0000 0.0000 0.0000 0.0000 0.0000 24.3619
#
#
#
# Elastic Compliance Matrix: (Units=1/GPa)
#
#
# Indices 1 2 3 4 5 6 
#
# 1 0.007018 -0.001158 -0.002159 0.000000 0.000000 0.000000
# 2 -0.001158 0.007018 -0.002159 0.000000 0.000000 0.000000
# 3 -0.002159 -0.002159 0.007667 0.000000 0.000000 0.000000
# 4 0.000000 0.000000 0.000000 -0.019953 0.000000 0.000000
# 5 0.000000 0.000000 0.000000 0.000000 -0.019953 0.000000
# 6 0.000000 0.000000 0.000000 0.000000 0.000000 0.041048
#
#
# Mechanical properties :
#
#
# Convention : Reuss Voigt Hill
#
# Bulk Modulus (GPa) = 93.01532 93.08692 93.05112
# Shear Modulus (GPa) = 133.76251 7.12127 70.44189
#
# Velocity S-wave (km/s) = 8.26670 1.90741 5.99902
# Velocity P-wave (km/s) = 11.77449 7.23936 9.77361
#
# Compressibility (1/GPa) = 0.01075092
#
# Stress axis : x y z
#
# Youngs Moduli (GPa) = 142.49449 142.49447 130.42328
#
# Poissons Ratio (x) = 0.16504 0.28157
# Poissons Ratio (y) = 0.16504 0.28157
# Poissons Ratio (z) = 0.30763 0.30763
#
# Static dielectric constant tensor:
#      x y z
#    x 1.685930 0.000000 0.000000 
#    y 0.000000 1.685930 0.000000 
#    z 0.000000 0.000000 1.617170 
# 
# From -- ./inp_files/18529.got.cif
#   From: 2010.05.17/outbox.cif.g08.bks.cpg/sg42_10_cif.got.tgz:18529.got - 2010.06.03 19:03:34.
