data_PCOD9369517
_publ_section_title
;
Structure prediction by ZEFSAII (Michael W. Deem and Ramdas Pophale) SiO2 
 PCOD9369517
Probable space group: F M M 2
;
_chemical_formula_sum "Si O2"
_cell_formula_units_Z 100
_cell_length_a 7.949467
_cell_length_b 20.930691
_cell_length_c 29.953545
_cell_angle_alpha 90.000000
_cell_angle_beta 90.000000
_cell_angle_gamma 90.000000
_cell_volume 4983.905575
_symmetry_space_group_name_H-M "F M M 2"
_symmetry_group_IT_number 42
_symmetry_cell_setting 'orthorhombic'
loop_
_space_group_symop_operation_xyz
x,y,z
-x,-y,z
-x,y,z
x,-y,z
x,1/2+y,1/2+z
-x,1/2-y,1/2+z
-x,1/2+y,1/2+z
x,1/2-y,1/2+z
1/2+x,y,1/2+z
1/2-x,-y,1/2+z
1/2-x,y,1/2+z
1/2+x,-y,1/2+z
1/2+x,1/2+y,z
1/2-x,1/2-y,z
1/2-x,1/2+y,z
1/2+x,1/2-y,z
loop_
_atom_site_type_symbol
_atom_site_label
_atom_site_fract_x
_atom_site_fract_y
_atom_site_fract_z
Si Si1 0.700457 0.427572 0.376830
Si Si2 0.203274 0.571858 0.274304
Si Si3 0.194904 0.179535 0.945569
Si Si4 0.500000 0.000000 0.134732
Si Si5 0.192830 0.676952 0.044227
Si Si6 0.310887 0.600849 0.124303
Si Si7 0.298348 0.179065 0.204282
O O1 0.500000 0.426144 0.382848
O O2 0.760497 0.500000 0.386944
O O3 0.740045 0.415636 0.324840
O O4 0.777627 0.374128 0.408530
O O5 0.259404 0.500000 0.261512
O O6 0.259133 0.625779 0.239992
O O7 0.000000 0.571465 0.273731
O O8 0.250000 0.250000 0.929635
O O9 0.000000 0.183714 0.957825
O O10 0.290916 0.164088 0.991412
O O11 0.652201 0.054858 0.134024
O O12 0.250000 0.750000 0.050912
O O13 0.295320 0.627587 0.074110
O O14 0.000000 0.671085 0.058098
O O15 0.500000 0.574860 0.131145
O O16 0.285528 0.660612 0.157562
O O17 0.500000 0.175247 0.200320
O O18 0.250000 0.250000 0.218546
#
# Coordination Sequence:
#
# PCOD9369517 Si02
#       7
#    16  16  16   4  16  16  16
#     4  10  21  39  60  87 122 162 206 257 316 381
#     4   9  20  38  63  86 119 165 210 259 317 380
#     4  11  22  38  62  91 121 160 211 259 316 381
#     4  12  26  48  64  98 132 172 212 272 312 386
#     4  11  21  40  65  93 127 165 211 263 318 379
#     4  12  25  44  68  95 131 173 216 261 320 381
#     4  11  23  40  64  95 130 166 215 267 318 377
#
# _framework density 20.064585000000001
#
# number of rings (size 3 to 8) (size 9 to 14) (size 15 to 20)
#    0.000    1.280    1.600    5.520    1.120    2.880 
#    1.440    1.600    0.000    0.000    0.000    0.000 
#    0.000    0.000    0.000    0.000    0.000    0.000 
#
# Total GULP energy -139439.477590 kJ/mol
# GULP energy per Si atom -5577.579104 kJ/mol
# Density = 2.001892 g / cm^3
# Si number density = 20.064585 Si / 1000 Ang^3
#
#
#
# Elastic Constant Matrix: (Units=GPa)
#
#
# Indices 1 2 3 4 5 6 
#
# 1 110.8467 20.8800 4.7660 0.0000 0.0000 0.0000
# 2 20.8800 111.9677 58.7588 0.0000 0.0000 0.0000
# 3 4.7660 58.7588 64.9759 0.0000 0.0000 0.0000
# 4 0.0000 0.0000 0.0000 -0.2088 0.0000 0.0000
# 5 0.0000 0.0000 0.0000 0.0000 23.6574 0.0000
# 6 0.0000 0.0000 0.0000 0.0000 0.0000 27.5145
#
#
#
# Elastic Compliance Matrix: (Units=1/GPa)
#
#
# Indices 1 2 3 4 5 6 
#
# 1 0.009449 -0.002661 0.001714 0.000000 0.000000 0.000000
# 2 -0.002661 0.017747 -0.015854 0.000000 0.000000 0.000000
# 3 0.001714 -0.015854 0.029602 0.000000 0.000000 0.000000
# 4 0.000000 0.000000 0.000000 -4.789752 0.000000 0.000000
# 5 0.000000 0.000000 0.000000 0.000000 0.042270 0.000000
# 6 0.000000 0.000000 0.000000 0.000000 0.000000 0.036345
#
#
# Mechanical properties :
#
#
# Convention : Reuss Voigt Hill
#
# Bulk Modulus (GPa) = 43.11347 50.73334 46.92341
# Shear Modulus (GPa) = -1.08389 23.75166 11.33388
#
# Velocity S-wave (km/s) = -0.73578 3.44431 2.37928
# Velocity P-wave (km/s) = 4.56203 6.41542 5.56641
#
# Compressibility (1/GPa) = 0.02319461
#
# Stress axis : x y z
#
# Youngs Moduli (GPa) = 105.83009 56.34640 33.78191
#
# Poissons Ratio (x) = 0.14996 -0.05789
# Poissons Ratio (y) = 0.28165 0.53558
# Poissons Ratio (z) = -0.18135 0.89332
#
# Static dielectric constant tensor:
#      x y z
#    x 1.714360 0.000000 0.000000 
#    y 0.000000 1.699580 0.000000 
#    z 0.000000 0.000000 1.683190 
# 
# From -- ./inp_files/31556.got.cif
#   From: 2010.05.17/outbox.cif.g08.bks.cpg/sg42_16_cif.got.tgz:31556.got - 2010.06.03 19:03:34.
