data_PCOD9369477
_publ_section_title
;
Structure prediction by ZEFSAII (Michael W. Deem and Ramdas Pophale) SiO2 
 PCOD9369477
Probable space group: F M M 2
;
_chemical_formula_sum "Si O2"
_cell_formula_units_Z 80
_cell_length_a 15.874780
_cell_length_b 8.662846
_cell_length_c 29.771593
_cell_angle_alpha 90.000000
_cell_angle_beta 90.000000
_cell_angle_gamma 90.000000
_cell_volume 4094.212525
_symmetry_space_group_name_H-M "F M M 2"
_symmetry_group_IT_number 42
_symmetry_cell_setting 'orthorhombic'
loop_
_space_group_symop_operation_xyz
x,y,z
-x,-y,z
-x,y,z
x,-y,z
x,1/2+y,1/2+z
-x,1/2-y,1/2+z
-x,1/2+y,1/2+z
x,1/2-y,1/2+z
1/2+x,y,1/2+z
1/2-x,-y,1/2+z
1/2-x,y,1/2+z
1/2+x,-y,1/2+z
1/2+x,1/2+y,z
1/2-x,1/2-y,z
1/2-x,1/2+y,z
1/2+x,1/2-y,z
loop_
_atom_site_type_symbol
_atom_site_label
_atom_site_fract_x
_atom_site_fract_y
_atom_site_fract_z
Si Si1 0.000000 0.187046 0.575021
Si Si2 0.901337 0.814604 0.324987
Si Si3 0.500000 0.815956 0.474916
Si Si4 0.161410 0.186040 0.634326
Si Si5 0.599038 0.814418 0.230673
Si Si6 0.839487 0.685651 0.922022
O O1 0.000000 0.262794 0.526450
O O2 0.917272 0.230926 0.603406
O O3 0.000000 0.000000 0.570414
O O4 0.868408 0.749448 0.277933
O O5 0.854283 0.764923 0.370095
O O6 0.000000 0.767981 0.329257
O O7 0.898936 0.000000 0.322958
O O8 0.417367 0.748629 0.450599
O O9 0.500000 0.000000 0.471462
O O10 0.250000 0.250000 0.617850
O O11 0.144865 0.239840 0.685570
O O12 0.163910 0.000000 0.634999
O O13 0.500000 0.771075 0.226909
O O14 0.602917 0.000000 0.231922
O O15 0.839992 0.500000 0.923740
O O16 0.750000 0.750000 0.937805
#
# Coordination Sequence:
#
# PCOD9369477 Si02
#       6
#     8  16   8  16  16  16
#     4  10  22  44  67  84 115 159 196 245 309 364
#     4   9  18  34  56  84 120 161 201 243 295 350
#     4  12  26  44  67  94 121 155 202 253 313 376
#     4  10  21  38  61  88 119 156 199 243 295 355
#     4   9  17  32  55  83 116 157 203 242 285 349
#     4  11  23  42  65  92 126 163 205 253 304 363
#
# _framework density 19.539777999999998
#
# number of rings (size 3 to 8) (size 9 to 14) (size 15 to 20)
#    0.000    2.000    2.000    1.500    0.000    4.800 
#    0.000    6.000    0.000    0.000    0.000    0.000 
#    0.000    0.000    0.000    0.000    0.000    0.000 
#
# Total GULP energy -111724.634244 kJ/mol
# GULP energy per Si atom -5586.231712 kJ/mol
# Density = 1.949530 g / cm^3
# Si number density = 19.539778 Si / 1000 Ang^3
#
#
#
# Elastic Constant Matrix: (Units=GPa)
#
#
# Indices 1 2 3 4 5 6 
#
# 1 158.6460 41.9785 82.6407 0.0000 0.0000 0.0000
# 2 41.9785 37.7412 41.9521 0.0000 0.0000 0.0000
# 3 82.6407 41.9521 144.6369 0.0000 0.0000 0.0000
# 4 0.0000 0.0000 0.0000 31.5023 0.0000 0.0000
# 5 0.0000 0.0000 0.0000 0.0000 -4.6647 0.0000
# 6 0.0000 0.0000 0.0000 0.0000 0.0000 27.2145
#
#
#
# Elastic Compliance Matrix: (Units=1/GPa)
#
#
# Indices 1 2 3 4 5 6 
#
# 1 0.010127 -0.007131 -0.003718 0.000000 0.000000 0.000000
# 2 -0.007131 0.044126 -0.008724 0.000000 0.000000 0.000000
# 3 -0.003718 -0.008724 0.011568 0.000000 0.000000 0.000000
# 4 0.000000 0.000000 0.000000 0.031744 0.000000 0.000000
# 5 0.000000 0.000000 0.000000 0.000000 -0.214377 0.000000
# 6 0.000000 0.000000 0.000000 0.000000 0.000000 0.036745
#
#
# Mechanical properties :
#
#
# Convention : Reuss Voigt Hill
#
# Bulk Modulus (GPa) = 37.48861 74.90741 56.19801
# Shear Modulus (GPa) = -156.11012 22.44060 -66.83476
#
# Velocity S-wave (km/s) = -8.94801 3.39257 -5.85480
# Velocity P-wave (km/s) = 9.35567 7.33247 4.10873
#
# Compressibility (1/GPa) = 0.02667477
#
# Stress axis : x y z
#
# Youngs Moduli (GPa) = 98.74632 22.66248 86.44175
#
# Poissons Ratio (x) = 0.16162 0.32137
# Poissons Ratio (y) = 0.70420 0.75413
# Poissons Ratio (z) = 0.36711 0.19771
#
# Static dielectric constant tensor:
#      x y z
#    x 1.684150 0.000000 0.000000 
#    y 0.000000 1.661130 0.000000 
#    z 0.000000 0.000000 1.675560 
# 
# From -- ./inp_files/31307.got.cif
#   From: 2010.05.17/outbox.cif.g08.bks.cpg/sg42_16_cif.got.tgz:31307.got - 2010.06.03 19:03:34.
