data_PCOD9369812
_publ_section_title
;
Structure prediction by ZEFSAII (Michael W. Deem and Ramdas Pophale) SiO2 
 PCOD9369812
Probable space group: F M M 2
;
_chemical_formula_sum "Si O2"
_cell_formula_units_Z 96
_cell_length_a 25.647508
_cell_length_b 14.313139
_cell_length_c 14.163027
_cell_angle_alpha 90.000000
_cell_angle_beta 90.000000
_cell_angle_gamma 90.000000
_cell_volume 5199.195474
_symmetry_space_group_name_H-M "F M M 2"
_symmetry_group_IT_number 42
_symmetry_cell_setting 'orthorhombic'
loop_
_space_group_symop_operation_xyz
x,y,z
-x,-y,z
-x,y,z
x,-y,z
x,1/2+y,1/2+z
-x,1/2-y,1/2+z
-x,1/2+y,1/2+z
x,1/2-y,1/2+z
1/2+x,y,1/2+z
1/2-x,-y,1/2+z
1/2-x,y,1/2+z
1/2+x,-y,1/2+z
1/2+x,1/2+y,z
1/2-x,1/2-y,z
1/2-x,1/2+y,z
1/2+x,1/2-y,z
loop_
_atom_site_type_symbol
_atom_site_label
_atom_site_fract_x
_atom_site_fract_y
_atom_site_fract_z
Si Si1 0.261280 0.358853 0.142840
Si Si2 0.208495 0.602251 0.963237
Si Si3 0.879059 0.891244 0.071858
Si Si4 0.701677 0.394734 0.826891
Si Si5 0.874231 0.752562 0.895733
Si Si6 0.062388 0.608987 0.768827
O O1 0.250000 0.250000 0.135461
O O2 0.319758 0.381321 0.111190
O O3 0.246035 0.387767 0.247710
O O4 0.218596 0.402538 0.073803
O O5 0.193426 0.500000 0.926456
O O6 0.265699 0.624534 0.921701
O O7 0.168031 0.680141 0.935953
O O8 0.914983 0.873035 0.163578
O O9 0.885998 0.000000 0.042580
O O10 0.889206 0.820992 0.983704
O O11 0.681021 0.500000 0.829367
O O12 0.656299 0.319036 0.821216
O O13 0.915367 0.686628 0.841466
O O14 0.076793 0.500000 0.792731
O O15 0.000000 0.614052 0.767487
#
# Coordination Sequence:
#
# PCOD9369812 Si02
#       6
#    16  16  16  16  16  16
#     4  12  20  34  54  82 123 167 199 235 282 350
#     4  11  21  34  51  83 123 159 196 231 280 349
#     4  11  22  39  62  90 124 161 205 251 297 355
#     4  11  22  34  52  83 125 164 197 236 286 350
#     4  12  22  37  61  90 118 156 200 253 301 357
#     4  10  24  46  68  88 112 150 205 263 314 363
#
# _framework density 18.464395
#
# number of rings (size 3 to 8) (size 9 to 14) (size 15 to 20)
#    0.000    0.833    3.333    6.000    0.000    3.333 
#    0.000    0.000    0.000    1.500    0.000    0.000 
#    0.000    0.000    0.000    0.000    0.000    0.000 
#
# Total GULP energy -133942.349088 kJ/mol
# GULP energy per Si atom -5580.931212 kJ/mol
# Density = 1.842237 g / cm^3
# Si number density = 18.464395 Si / 1000 Ang^3
#
#
#
# Elastic Constant Matrix: (Units=GPa)
#
#
# Indices 1 2 3 4 5 6 
#
# 1 67.8471 57.2331 38.7529 0.0000 0.0000 0.0000
# 2 57.2331 154.1175 51.8053 0.0000 0.0000 0.0000
# 3 38.7529 51.8053 90.5288 0.0000 0.0000 0.0000
# 4 0.0000 0.0000 0.0000 39.5724 0.0000 0.0000
# 5 0.0000 0.0000 0.0000 0.0000 23.9635 0.0000
# 6 0.0000 0.0000 0.0000 0.0000 0.0000 13.2857
#
#
#
# Elastic Compliance Matrix: (Units=1/GPa)
#
#
# Indices 1 2 3 4 5 6 
#
# 1 0.024164 -0.006806 -0.006449 0.000000 0.000000 0.000000
# 2 -0.006806 0.009951 -0.002781 0.000000 0.000000 0.000000
# 3 -0.006449 -0.002781 0.015398 0.000000 0.000000 0.000000
# 4 0.000000 0.000000 0.000000 0.025270 0.000000 0.000000
# 5 0.000000 0.000000 0.000000 0.000000 0.041730 0.000000
# 6 0.000000 0.000000 0.000000 0.000000 0.000000 0.075269
#
#
# Mechanical properties :
#
#
# Convention : Reuss Voigt Hill
#
# Bulk Modulus (GPa) = 57.33617 67.56400 62.45009
# Shear Modulus (GPa) = 21.77061 26.34445 24.05753
#
# Velocity S-wave (km/s) = 3.43747 3.78136 3.61351
# Velocity P-wave (km/s) = 6.84650 7.46564 7.16277
#
# Compressibility (1/GPa) = 0.01744100
#
# Stress axis : x y z
#
# Youngs Moduli (GPa) = 41.38455 100.49563 64.94172
#
# Poissons Ratio (x) = 0.68393 0.41883
# Poissons Ratio (y) = 0.28164 0.18061
# Poissons Ratio (z) = 0.26690 0.27948
#
# Static dielectric constant tensor:
#      x y z
#    x 1.601870 0.000000 0.000000 
#    y 0.000000 1.671130 0.000000 
#    z 0.000000 0.000000 1.678960 
# 
# From -- ./inp_files/13993.got.cif
#   From: 2010.05.17/outbox.cif.g08.bks.cpg/sg42_7_cif.got.tgz:13993.got - 2010.06.03 19:03:34.
