data_PCOD9369497
_publ_section_title
;
Structure prediction by ZEFSAII (Michael W. Deem and Ramdas Pophale) SiO2 
 PCOD9369497
Probable space group: F M M 2
;
_chemical_formula_sum "Si O2"
_cell_formula_units_Z 100
_cell_length_a 8.044302
_cell_length_b 30.166782
_cell_length_c 20.183788
_cell_angle_alpha 90.000000
_cell_angle_beta 90.000000
_cell_angle_gamma 90.000000
_cell_volume 4898.014059
_symmetry_space_group_name_H-M "F M M 2"
_symmetry_group_IT_number 42
_symmetry_cell_setting 'orthorhombic'
loop_
_space_group_symop_operation_xyz
x,y,z
-x,-y,z
-x,y,z
x,-y,z
x,1/2+y,1/2+z
-x,1/2-y,1/2+z
-x,1/2+y,1/2+z
x,1/2-y,1/2+z
1/2+x,y,1/2+z
1/2-x,-y,1/2+z
1/2-x,y,1/2+z
1/2+x,-y,1/2+z
1/2+x,1/2+y,z
1/2-x,1/2-y,z
1/2-x,1/2+y,z
1/2+x,1/2-y,z
loop_
_atom_site_type_symbol
_atom_site_label
_atom_site_fract_x
_atom_site_fract_y
_atom_site_fract_z
Si Si1 0.811366 0.203959 0.352670
Si Si2 0.693050 0.660863 0.981412
Si Si3 0.000000 0.500000 0.480371
Si Si4 0.197768 0.950244 0.287171
Si Si5 0.199041 0.800398 0.121290
Si Si6 0.806117 0.435297 0.944777
Si Si7 0.189861 0.141452 0.742873
O O1 0.750000 0.250000 0.321886
O O2 0.707865 0.192023 0.417497
O O3 0.797947 0.165026 0.299353
O O4 0.000000 0.208930 0.374100
O O5 0.500000 0.649264 0.991212
O O6 0.790265 0.615890 0.965269
O O7 0.752837 0.685501 0.047467
O O8 0.152058 0.461980 0.477017
O O9 0.222356 0.940841 0.365460
O O10 0.277335 0.910890 0.245255
O O11 0.000000 0.949582 0.275423
O O12 0.260242 0.000000 0.273270
O O13 0.250000 0.750000 0.135779
O O14 0.271913 0.834913 0.173939
O O15 0.000000 0.802863 0.125270
O O16 0.000000 0.449242 0.957388
O O17 0.000000 0.149923 0.761599
#
# Coordination Sequence:
#
# PCOD9369497 Si02
#       7
#    16  16   4  16  16  16  16
#     4  12  24  39  61  92 129 165 209 268 330 393
#     4  11  23  41  65  95 130 171 216 268 333 396
#     4  12  22  36  64  94 140 168 230 264 334 398
#     4  10  21  38  62  93 129 168 214 264 327 388
#     4  11  25  45  68  92 128 172 220 267 327 398
#     4  11  22  37  62  97 133 175 218 275 329 392
#     4  12  25  40  64  93 128 167 216 270 325 389
#
# _framework density 20.416437999999999
#
# number of rings (size 3 to 8) (size 9 to 14) (size 15 to 20)
#    0.000    0.800    3.200    5.040    1.120    4.160 
#    0.000    0.000    1.760    0.000    0.000    0.000 
#    0.000    0.000    0.000    0.000    0.000    0.000 
#
# Total GULP energy -139470.196419 kJ/mol
# GULP energy per Si atom -5578.807857 kJ/mol
# Density = 2.036997 g / cm^3
# Si number density = 20.416438 Si / 1000 Ang^3
#
#
#
# Elastic Constant Matrix: (Units=GPa)
#
#
# Indices 1 2 3 4 5 6 
#
# 1 93.4127 26.2164 1.3125 0.0000 0.0000 0.0000
# 2 26.2164 146.1083 31.5369 0.0000 0.0000 0.0000
# 3 1.3125 31.5369 71.4677 0.0000 0.0000 0.0000
# 4 0.0000 0.0000 0.0000 13.3729 0.0000 0.0000
# 5 0.0000 0.0000 0.0000 0.0000 17.6635 0.0000
# 6 0.0000 0.0000 0.0000 0.0000 0.0000 35.1499
#
#
#
# Elastic Compliance Matrix: (Units=1/GPa)
#
#
# Indices 1 2 3 4 5 6 
#
# 1 0.011310 -0.002193 0.000760 0.000000 0.000000 0.000000
# 2 -0.002193 0.007990 -0.003486 0.000000 0.000000 0.000000
# 3 0.000760 -0.003486 0.015516 0.000000 0.000000 0.000000
# 4 0.000000 0.000000 0.000000 0.074778 0.000000 0.000000
# 5 0.000000 0.000000 0.000000 0.000000 0.056614 0.000000
# 6 0.000000 0.000000 0.000000 0.000000 0.000000 0.028450
#
#
# Mechanical properties :
#
#
# Convention : Reuss Voigt Hill
#
# Bulk Modulus (GPa) = 40.03353 47.68002 43.85678
# Shear Modulus (GPa) = 23.49376 30.03213 26.76294
#
# Velocity S-wave (km/s) = 3.39592 3.83949 3.62450
# Velocity P-wave (km/s) = 5.91839 6.56202 6.24850
#
# Compressibility (1/GPa) = 0.02497906
#
# Stress axis : x y z
#
# Youngs Moduli (GPa) = 88.41658 125.15392 64.44769
#
# Poissons Ratio (x) = 0.27452 -0.04899
# Poissons Ratio (y) = 0.19394 0.22464
# Poissons Ratio (z) = -0.06722 0.43623
#
# Static dielectric constant tensor:
#      x y z
#    x 1.751790 0.000000 0.000000 
#    y 0.000000 1.764510 0.000000 
#    z 0.000000 0.000000 1.692170 
# 
# From -- ./inp_files/23815.got.cif
#   From: 2010.05.17/outbox.cif.g08.bks.cpg/sg42_12_cif.got.tgz:23815.got - 2010.06.03 19:03:34.
