data_PCOD9369894
_publ_section_title
;
Structure prediction by ZEFSAII (Michael W. Deem and Ramdas Pophale) SiO2 
 PCOD9369894
Probable space group: F M M 2
;
_chemical_formula_sum "Si O2"
_cell_formula_units_Z 80
_cell_length_a 7.809665
_cell_length_b 16.127679
_cell_length_c 30.231079
_cell_angle_alpha 90.000000
_cell_angle_beta 90.000000
_cell_angle_gamma 90.000000
_cell_volume 3807.657916
_symmetry_space_group_name_H-M "F M M 2"
_symmetry_group_IT_number 42
_symmetry_cell_setting 'orthorhombic'
loop_
_space_group_symop_operation_xyz
x,y,z
-x,-y,z
-x,y,z
x,-y,z
x,1/2+y,1/2+z
-x,1/2-y,1/2+z
-x,1/2+y,1/2+z
x,1/2-y,1/2+z
1/2+x,y,1/2+z
1/2-x,-y,1/2+z
1/2-x,y,1/2+z
1/2+x,-y,1/2+z
1/2+x,1/2+y,z
1/2-x,1/2-y,z
1/2-x,1/2+y,z
1/2+x,1/2-y,z
loop_
_atom_site_type_symbol
_atom_site_label
_atom_site_fract_x
_atom_site_fract_y
_atom_site_fract_z
Si Si1 0.289530 0.000000 0.571331
Si Si2 0.797483 0.000000 0.171704
Si Si3 0.297573 0.160697 0.228192
Si Si4 0.793577 0.153198 0.011045
Si Si5 0.707975 0.094314 0.318392
Si Si6 0.294135 0.346384 0.912493
O O1 0.227348 0.000000 0.621801
O O2 0.234937 0.083730 0.545709
O O3 0.500000 0.000000 0.571095
O O4 0.750352 0.082558 0.198450
O O5 0.000000 0.000000 0.167551
O O6 0.500000 0.158478 0.232530
O O7 0.250000 0.250000 0.209309
O O8 0.225104 0.150111 0.278155
O O9 0.750000 0.250000 0.019942
O O10 0.000000 0.149668 0.010246
O O11 0.730967 0.129740 0.961422
O O12 0.500000 0.102994 0.320602
O O13 0.772546 0.111336 0.367858
O O14 0.745020 0.000000 0.305789
O O15 0.500000 0.357855 0.913221
O O16 0.250000 0.250000 0.907779
#
# Coordination Sequence:
#
# PCOD9369894 Si02
#       6
#     8   8  16  16  16  16
#     4   9  20  37  58  81 107 139 181 229 276 327
#     4  11  23  41  60  83 113 145 189 241 288 339
#     4  11  22  39  61  85 115 150 188 232 282 337
#     4   9  18  34  55  81 110 142 179 221 267 322
#     4   9  17  30  51  80 111 143 181 223 266 322
#     4   9  17  29  50  76 106 141 178 216 260 317
#
# _framework density 21.010290999999999
#
# number of rings (size 3 to 8) (size 9 to 14) (size 15 to 20)
#    0.000    2.400    1.000    1.500    1.400    0.800 
#    0.000    5.500    0.000    0.000    0.000    0.000 
#    0.000    0.000    0.000    0.000    0.000    0.000 
#
# Total GULP energy -111566.648957 kJ/mol
# GULP energy per Si atom -5578.332448 kJ/mol
# Density = 2.096247 g / cm^3
# Si number density = 21.010291 Si / 1000 Ang^3
#
#
#
# Elastic Constant Matrix: (Units=GPa)
#
#
# Indices 1 2 3 4 5 6 
#
# 1 30.6577 4.3769 14.4203 0.0000 0.0000 0.0000
# 2 4.3769 144.0116 103.0806 0.0000 0.0000 0.0000
# 3 14.4203 103.0806 164.7619 0.0000 0.0000 0.0000
# 4 0.0000 0.0000 0.0000 13.9716 0.0000 0.0000
# 5 0.0000 0.0000 0.0000 0.0000 13.0857 0.0000
# 6 0.0000 0.0000 0.0000 0.0000 0.0000 25.5360
#
#
#
# Elastic Compliance Matrix: (Units=1/GPa)
#
#
# Indices 1 2 3 4 5 6 
#
# 1 0.034336 0.002006 -0.004260 0.000000 0.000000 0.000000
# 2 0.002006 0.012692 -0.008116 0.000000 0.000000 0.000000
# 3 -0.004260 -0.008116 0.011520 0.000000 0.000000 0.000000
# 4 0.000000 0.000000 0.000000 0.071574 0.000000 0.000000
# 5 0.000000 0.000000 0.000000 0.000000 0.076419 0.000000
# 6 0.000000 0.000000 0.000000 0.000000 0.000000 0.039160
#
#
# Mechanical properties :
#
#
# Convention : Reuss Voigt Hill
#
# Bulk Modulus (GPa) = 26.45026 64.79855 45.62441
# Shear Modulus (GPa) = 17.91822 25.02220 21.47021
#
# Velocity S-wave (km/s) = 2.92349 3.45476 3.20017
# Velocity P-wave (km/s) = 4.90023 6.84267 5.95123
#
# Compressibility (1/GPa) = 0.03780681
#
# Stress axis : x y z
#
# Youngs Moduli (GPa) = 29.12427 78.78695 86.80506
#
# Poissons Ratio (x) = -0.15801 0.36978
# Poissons Ratio (y) = -0.05841 0.70454
# Poissons Ratio (z) = 0.12407 0.63946
#
# Static dielectric constant tensor:
#      x y z
#    x 1.782860 0.000000 0.000000 
#    y 0.000000 1.720600 0.000000 
#    z 0.000000 0.000000 1.795940 
# 
# From -- ./inp_files/31297.got.cif
#   From: 2010.05.17/outbox.cif.g08.bks.cpg/sg42_16_cif.got.tgz:31297.got - 2010.06.03 19:03:34.
