data_PCOD9369902
_publ_section_title
;
Structure prediction by ZEFSAII (Michael W. Deem and Ramdas Pophale) SiO2 
 PCOD9369902
Probable space group: F M M 2
;
_chemical_formula_sum "Si O2"
_cell_formula_units_Z 76
_cell_length_a 15.009749
_cell_length_b 21.427144
_cell_length_c 13.023235
_cell_angle_alpha 90.000000
_cell_angle_beta 90.000000
_cell_angle_gamma 90.000000
_cell_volume 4188.481441
_symmetry_space_group_name_H-M "F M M 2"
_symmetry_group_IT_number 42
_symmetry_cell_setting 'orthorhombic'
loop_
_space_group_symop_operation_xyz
x,y,z
-x,-y,z
-x,y,z
x,-y,z
x,1/2+y,1/2+z
-x,1/2-y,1/2+z
-x,1/2+y,1/2+z
x,1/2-y,1/2+z
1/2+x,y,1/2+z
1/2-x,-y,1/2+z
1/2-x,y,1/2+z
1/2+x,-y,1/2+z
1/2+x,1/2+y,z
1/2-x,1/2-y,z
1/2-x,1/2+y,z
1/2+x,1/2-y,z
loop_
_atom_site_type_symbol
_atom_site_label
_atom_site_fract_x
_atom_site_fract_y
_atom_site_fract_z
Si Si1 0.750000 0.750000 0.756990
Si Si2 0.103079 0.927843 0.761609
Si Si3 0.808049 0.346157 0.422068
Si Si4 0.896600 0.750803 0.580736
Si Si5 0.854071 0.892807 0.541771
Si Si6 0.500000 0.500000 0.495034
O O1 0.756196 0.808439 0.833287
O O2 0.835964 0.748085 0.682978
O O3 0.120507 0.886542 0.860419
O O4 0.158918 0.907326 0.662646
O O5 0.000000 0.922090 0.728118
O O6 0.120220 0.000000 0.783823
O O7 0.853042 0.296884 0.499400
O O8 0.738961 0.389592 0.482322
O O9 0.890083 0.821603 0.538531
O O10 0.000000 0.736110 0.600185
O O11 0.921831 0.944794 0.500593
#
# Coordination Sequence:
#
# PCOD9369902 Si02
#       6
#     8  16  16  16  16   4
#     4  12  22  42  58  94 130 166 212 264 330 392
#     4  11  22  40  63  91 122 166 216 257 311 391
#     4  12  24  40  63  95 128 167 214 268 330 382
#     4  12  23  40  64  94 132 165 210 276 323 382
#     4  12  21  40  63  91 125 163 215 270 314 378
#     4  12  24  40  64  96 130 170 222 272 328 388
#
# _framework density 18.145001000000001
#
# number of rings (size 3 to 8) (size 9 to 14) (size 15 to 20)
#    0.000    0.211    9.474    0.632    1.474    0.842 
#    1.895    0.000    0.000    0.000    0.000    0.000 
#    0.000    0.000    0.000    0.000    0.000    0.000 
#
# Total GULP energy -105838.396961 kJ/mol
# GULP energy per Si atom -5570.441945 kJ/mol
# Density = 1.810370 g / cm^3
# Si number density = 18.145001 Si / 1000 Ang^3
#
#
#
# Elastic Constant Matrix: (Units=GPa)
#
#
# Indices 1 2 3 4 5 6 
#
# 1 92.3356 35.3124 31.5832 0.0000 0.0000 0.0000
# 2 35.3124 108.8943 40.1397 0.0000 0.0000 0.0000
# 3 31.5832 40.1397 83.3676 0.0000 0.0000 0.0000
# 4 0.0000 0.0000 0.0000 12.2900 0.0000 0.0000
# 5 0.0000 0.0000 0.0000 0.0000 21.5887 0.0000
# 6 0.0000 0.0000 0.0000 0.0000 0.0000 39.4813
#
#
#
# Elastic Compliance Matrix: (Units=1/GPa)
#
#
# Indices 1 2 3 4 5 6 
#
# 1 0.013183 -0.002959 -0.003569 0.000000 0.000000 0.000000
# 2 -0.002959 0.011829 -0.004574 0.000000 0.000000 0.000000
# 3 -0.003569 -0.004574 0.015550 0.000000 0.000000 0.000000
# 4 0.000000 0.000000 0.000000 0.081367 0.000000 0.000000
# 5 0.000000 0.000000 0.000000 0.000000 0.046320 0.000000
# 6 0.000000 0.000000 0.000000 0.000000 0.000000 0.025328
#
#
# Mechanical properties :
#
#
# Convention : Reuss Voigt Hill
#
# Bulk Modulus (GPa) = 54.47927 55.40756 54.94341
# Shear Modulus (GPa) = 22.53250 26.50949 24.52099
#
# Velocity S-wave (km/s) = 3.52774 3.82642 3.68012
# Velocity P-wave (km/s) = 6.83249 7.07985 6.95727
#
# Compressibility (1/GPa) = 0.01835561
#
# Stress axis : x y z
#
# Youngs Moduli (GPa) = 75.85726 84.53814 64.30979
#
# Poissons Ratio (x) = 0.25016 0.22954
# Poissons Ratio (y) = 0.22448 0.29417
# Poissons Ratio (z) = 0.27076 0.38671
#
# Static dielectric constant tensor:
#      x y z
#    x 1.621330 0.000000 0.000000 
#    y 0.000000 1.635850 0.000000 
#    z 0.000000 0.000000 1.618810 
# 
# From -- ./inp_files/13842.got.cif
#   From: 2010.05.17/outbox.cif.g08.bks.cpg/sg42_7_cif.got.tgz:13842.got - 2010.06.03 19:03:34.
