data_PCOD9369977
_publ_section_title
;
Structure prediction by ZEFSAII (Michael W. Deem and Ramdas Pophale) SiO2 
 PCOD9369977
Probable space group: F M M 2
;
_chemical_formula_sum "Si O2"
_cell_formula_units_Z 116
_cell_length_a 15.853867
_cell_length_b 17.241381
_cell_length_c 17.346775
_cell_angle_alpha 90.000000
_cell_angle_beta 90.000000
_cell_angle_gamma 90.000000
_cell_volume 4741.611908
_symmetry_space_group_name_H-M "F M M 2"
_symmetry_group_IT_number 42
_symmetry_cell_setting 'orthorhombic'
loop_
_space_group_symop_operation_xyz
x,y,z
-x,-y,z
-x,y,z
x,-y,z
x,1/2+y,1/2+z
-x,1/2-y,1/2+z
-x,1/2+y,1/2+z
x,1/2-y,1/2+z
1/2+x,y,1/2+z
1/2-x,-y,1/2+z
1/2-x,y,1/2+z
1/2+x,-y,1/2+z
1/2+x,1/2+y,z
1/2-x,1/2-y,z
1/2-x,1/2+y,z
1/2+x,1/2-y,z
loop_
_atom_site_type_symbol
_atom_site_label
_atom_site_fract_x
_atom_site_fract_y
_atom_site_fract_z
Si Si1 0.349243 0.375233 0.524940
Si Si2 0.853796 0.416246 0.858749
Si Si3 0.402477 0.286370 0.969933
Si Si4 0.664447 0.909945 0.581651
Si Si5 0.838222 0.202786 0.227263
Si Si6 0.091759 0.635774 0.192153
Si Si7 0.000000 0.500000 0.380722
Si Si8 0.841528 0.390120 0.349206
O O1 0.387246 0.406946 0.445594
O O2 0.352452 0.282811 0.511424
O O3 0.255319 0.405148 0.540291
O O4 0.395080 0.390967 0.605437
O O5 0.879553 0.500000 0.826718
O O6 0.870122 0.345437 0.801020
O O7 0.751968 0.415738 0.869740
O O8 0.500000 0.264392 0.959413
O O9 0.396005 0.360830 0.025905
O O10 0.357359 0.307182 0.889330
O O11 0.672421 0.861426 0.660464
O O12 0.640492 0.000000 0.591507
O O13 0.750000 0.250000 0.239693
O O14 0.899605 0.271140 0.198209
O O15 0.154617 0.604526 0.256689
O O16 0.000000 0.610267 0.218723
O O17 0.076183 0.565050 0.378340
#
# Coordination Sequence:
#
# PCOD9369977 Si02
#       8
#    16  16  16  16  16  16   4  16
#     4  12  25  44  69 100 143 188 242 297 356 437
#     4  12  26  43  69 106 146 192 240 297 369 437
#     4  12  25  42  71 105 140 186 243 302 361 432
#     4  12  25  42  68 104 146 186 234 300 370 436
#     4  12  23  44  73 104 137 185 247 303 355 430
#     4  12  25  46  71 105 138 185 247 300 361 422
#     4  12  24  44  64 108 156 184 234 304 392 424
#     4  12  24  41  71 102 143 190 234 300 359 433
#
# _framework density 24.464254
#
# number of rings (size 3 to 8) (size 9 to 14) (size 15 to 20)
#    0.000    0.000    7.586    2.483    0.966    0.276 
#    2.483    0.690    0.000    7.862    0.000    0.000 
#    0.000    0.000    0.000    0.000    0.000    0.000 
#
# Total GULP energy -162007.359797 kJ/mol
# GULP energy per Si atom -5586.460683 kJ/mol
# Density = 2.440857 g / cm^3
# Si number density = 24.464254 Si / 1000 Ang^3
#
#
#
# Elastic Constant Matrix: (Units=GPa)
#
#
# Indices 1 2 3 4 5 6 
#
# 1 51.0806 -10.9672 -8.3565 0.0000 0.0000 0.0000
# 2 -10.9672 110.6173 27.8136 0.0000 0.0000 0.0000
# 3 -8.3565 27.8136 156.5940 0.0000 0.0000 0.0000
# 4 0.0000 0.0000 0.0000 -4.9925 0.0000 0.0000
# 5 0.0000 0.0000 0.0000 0.0000 22.2532 0.0000
# 6 0.0000 0.0000 0.0000 0.0000 0.0000 17.2966
#
#
#
# Elastic Compliance Matrix: (Units=1/GPa)
#
#
# Indices 1 2 3 4 5 6 
#
# 1 0.020087 0.001803 0.000752 0.000000 0.000000 0.000000
# 2 0.001803 0.009625 -0.001613 0.000000 0.000000 0.000000
# 3 0.000752 -0.001613 0.006713 0.000000 0.000000 0.000000
# 4 0.000000 0.000000 0.000000 -0.200301 0.000000 0.000000
# 5 0.000000 0.000000 0.000000 0.000000 0.044937 0.000000
# 6 0.000000 0.000000 0.000000 0.000000 0.000000 0.057815
#
#
# Mechanical properties :
#
#
# Convention : Reuss Voigt Hill
#
# Bulk Modulus (GPa) = 26.10558 37.25242 31.67900
# Shear Modulus (GPa) = -99.52554 27.56492 -35.98031
#
# Velocity S-wave (km/s) = -6.38517 3.36034 -3.83917
# Velocity P-wave (km/s) = 6.60805 5.50601 2.58362
#
# Compressibility (1/GPa) = 0.03830598
#
# Stress axis : x y z
#
# Youngs Moduli (GPa) = 49.78371 103.90113 148.97348
#
# Poissons Ratio (x) = -0.18728 -0.11199
# Poissons Ratio (y) = -0.08974 0.24034
# Poissons Ratio (z) = -0.03743 0.16762
#
# Static dielectric constant tensor:
#      x y z
#    x 1.915980 0.000000 0.000000 
#    y 0.000000 2.023860 0.000000 
#    z 0.000000 0.000000 1.970250 
# 
# From -- ./inp_files/20951.got.cif
#   From: 2010.05.17/outbox.cif.g08.bks.cpg/sg42_11_cif.got.tgz:20951.got - 2010.06.03 19:03:34.
