data_PCOD9369381
_publ_section_title
;
Structure prediction by ZEFSAII (Michael W. Deem and Ramdas Pophale) SiO2 
 PCOD9369381
Probable space group: F M M 2
;
_chemical_formula_sum "Si O2"
_cell_formula_units_Z 96
_cell_length_a 25.175801
_cell_length_b 22.371982
_cell_length_c 8.414022
_cell_angle_alpha 90.000000
_cell_angle_beta 90.000000
_cell_angle_gamma 90.000000
_cell_volume 4739.051208
_symmetry_space_group_name_H-M "F M M 2"
_symmetry_group_IT_number 42
_symmetry_cell_setting 'orthorhombic'
loop_
_space_group_symop_operation_xyz
x,y,z
-x,-y,z
-x,y,z
x,-y,z
x,1/2+y,1/2+z
-x,1/2-y,1/2+z
-x,1/2+y,1/2+z
x,1/2-y,1/2+z
1/2+x,y,1/2+z
1/2-x,-y,1/2+z
1/2-x,y,1/2+z
1/2+x,-y,1/2+z
1/2+x,1/2+y,z
1/2-x,1/2-y,z
1/2-x,1/2+y,z
1/2+x,1/2-y,z
loop_
_atom_site_type_symbol
_atom_site_label
_atom_site_fract_x
_atom_site_fract_y
_atom_site_fract_z
Si Si1 0.440277 0.300810 0.899740
Si Si2 0.655512 0.158853 0.527494
Si Si3 0.808617 0.237366 0.316621
Si Si4 0.322336 0.622895 0.501874
Si Si5 0.231515 0.070554 0.186263
Si Si6 0.561942 0.830675 0.026819
O O1 0.500000 0.304873 0.957613
O O2 0.406144 0.349322 0.995668
O O3 0.438087 0.314076 0.713183
O O4 0.425267 0.231495 0.934903
O O5 0.661300 0.201437 0.680752
O O6 0.670145 0.199851 0.377050
O O7 0.693124 0.103302 0.558484
O O8 0.750000 0.250000 0.256981
O O9 0.805839 0.191311 0.464558
O O10 0.290077 0.598006 0.653355
O O11 0.296575 0.586682 0.353576
O O12 0.386921 0.625379 0.503370
O O13 0.233732 0.000000 0.165900
O O14 0.500000 0.848577 0.987464
#
# Coordination Sequence:
#
# PCOD9369381 Si02
#       6
#    16  16  16  16  16  16
#     4  10  21  36  58  92 133 169 205 251 318 391
#     4  11  22  34  60  87 126 163 199 259 309 381
#     4  11  21  33  52  92 123 154 198 247 331 371
#     4  11  24  39  64  91 128 163 205 269 315 385
#     4  11  26  44  61  89 124 175 218 257 318 372
#     4  10  22  39  62  94 133 172 206 252 322 393
#
# _framework density 20.257218999999999
#
# number of rings (size 3 to 8) (size 9 to 14) (size 15 to 20)
#    0.000    1.333    3.333    2.000    7.000    0.000 
#    0.000    0.000    0.000    3.500    0.000    4.667 
#    0.000    0.000    0.000    0.000    0.000    0.000 
#
# Total GULP energy -133954.779381 kJ/mol
# GULP energy per Si atom -5581.449141 kJ/mol
# Density = 2.021111 g / cm^3
# Si number density = 20.257219 Si / 1000 Ang^3
#
#
#
# Elastic Constant Matrix: (Units=GPa)
#
#
# Indices 1 2 3 4 5 6 
#
# 1 157.5283 50.5769 39.5592 -0.0017 0.0001 0.0001
# 2 50.5769 100.0987 21.0629 -0.0048 0.0006 0.0020
# 3 39.5592 21.0629 56.4472 -0.0082 0.0011 0.0025
# 4 -0.0017 -0.0048 -0.0082 20.6520 0.0008 0.0026
# 5 0.0001 0.0006 0.0011 0.0008 33.6913 0.0001
# 6 0.0001 0.0020 0.0025 0.0026 0.0001 10.7370
#
#
#
# Elastic Compliance Matrix: (Units=1/GPa)
#
#
# Indices 1 2 3 4 5 6 
#
# 1 0.008628 -0.003350 -0.004797 -0.000002 0.000000 0.000002
# 2 -0.003350 0.012142 -0.002183 0.000002 0.000000 -0.000002
# 3 -0.004797 -0.002183 0.021892 0.000008 -0.000001 -0.000005
# 4 -0.000002 0.000002 0.000008 0.048421 -0.000001 -0.000012
# 5 0.000000 0.000000 -0.000001 -0.000001 0.029681 0.000000
# 6 0.000002 -0.000002 -0.000005 -0.000012 0.000000 0.093136
#
#
# Mechanical properties :
#
#
# Convention : Reuss Voigt Hill
#
# Bulk Modulus (GPa) = 45.44915 59.60805 52.52860
# Shear Modulus (GPa) = 20.67011 26.54107 23.60559
#
# Velocity S-wave (km/s) = 3.19781 3.62360 3.41734
# Velocity P-wave (km/s) = 6.00994 6.85542 6.44655
#
# Compressibility (1/GPa) = 0.02200261
#
# Stress axis : x y z
#
# Youngs Moduli (GPa) = 115.89765 82.35699 45.67917
#
# Poissons Ratio (x) = 0.27592 0.21911
# Poissons Ratio (y) = 0.38829 0.09971
# Poissons Ratio (z) = 0.55593 0.17977
#
# Static dielectric constant tensor:
#      x y z
#    x 1.895440 0.000000 0.000000 
#    y 0.000000 1.684640 0.000000 
#    z 0.000000 0.000000 1.808550 
# 
# From -- ./inp_files/5263.got.cif
#   From: 2010.05.17/outbox.cif.g08.bks.cpg/sg42_3_cif.got.tgz:5263.got - 2010.06.03 19:03:34.
