data_PCOD9369151
_publ_section_title
;
Structure prediction by ZEFSAII (Michael W. Deem and Ramdas Pophale) SiO2 
 PCOD9369151
Probable space group: F M M 2
;
_chemical_formula_sum "Si O2"
_cell_formula_units_Z 96
_cell_length_a 23.603967
_cell_length_b 18.690634
_cell_length_c 9.802175
_cell_angle_alpha 90.000000
_cell_angle_beta 90.000000
_cell_angle_gamma 90.000000
_cell_volume 4324.456011
_symmetry_space_group_name_H-M "F M M 2"
_symmetry_group_IT_number 42
_symmetry_cell_setting 'orthorhombic'
loop_
_space_group_symop_operation_xyz
x,y,z
-x,-y,z
-x,y,z
x,-y,z
x,1/2+y,1/2+z
-x,1/2-y,1/2+z
-x,1/2+y,1/2+z
x,1/2-y,1/2+z
1/2+x,y,1/2+z
1/2-x,-y,1/2+z
1/2-x,y,1/2+z
1/2+x,-y,1/2+z
1/2+x,1/2+y,z
1/2-x,1/2-y,z
1/2-x,1/2+y,z
1/2+x,1/2-y,z
loop_
_atom_site_type_symbol
_atom_site_label
_atom_site_fract_x
_atom_site_fract_y
_atom_site_fract_z
Si Si1 0.435259 0.293221 0.912200
Si Si2 0.618949 0.917883 0.225683
Si Si3 0.437630 0.603433 0.139531
Si Si4 0.257944 0.583555 0.846099
Si Si5 0.310760 0.417703 0.114490
Si Si6 0.433453 0.134647 0.948987
O O1 0.500000 0.286557 0.863112
O O2 0.407702 0.355472 0.820501
O O3 0.410470 0.214003 0.914974
O O4 0.436854 0.318190 0.070631
O O5 0.686312 0.914701 0.250477
O O6 0.601218 0.000000 0.261463
O O7 0.600731 0.902315 0.070209
O O8 0.500000 0.575819 0.096728
O O9 0.377301 0.576862 0.087364
O O10 0.434215 0.596669 0.302057
O O11 0.245241 0.500000 0.877197
O O12 0.206461 0.615454 0.759417
O O13 0.277868 0.617107 0.988412
O O14 0.291823 0.500000 0.124892
O O15 0.500000 0.140312 0.992152
#
# Coordination Sequence:
#
# PCOD9369151 Si02
#       6
#    16  16  16  16  16  16
#     4  10  20  38  62  86 121 171 218 257 312 389
#     4  11  22  38  62  95 126 158 213 277 323 364
#     4  10  21  36  58  87 118 159 209 260 311 368
#     4   9  20  36  58  86 116 160 209 255 314 378
#     4  10  20  37  58  84 119 161 207 252 312 387
#     4  10  22  38  58  88 126 173 216 254 316 391
#
# _framework density 22.199323
#
# number of rings (size 3 to 8) (size 9 to 14) (size 15 to 20)
#    0.000    2.000    1.667    1.500    2.333    5.000 
#    0.000    3.333    0.000    6.000    0.000    0.000 
#    0.000    0.000    0.000    0.000    0.000    0.000 
#
# Total GULP energy -133650.175754 kJ/mol
# GULP energy per Si atom -5568.757323 kJ/mol
# Density = 2.214880 g / cm^3
# Si number density = 22.199323 Si / 1000 Ang^3
#
#
#
# Elastic Constant Matrix: (Units=GPa)
#
#
# Indices 1 2 3 4 5 6 
#
# 1 67.8818 2.8870 20.5243 0.0000 0.0000 0.0000
# 2 2.8870 58.4776 -0.9936 0.0000 0.0000 0.0000
# 3 20.5243 -0.9936 90.5767 -0.0001 0.0000 0.0000
# 4 0.0000 0.0000 -0.0001 24.3495 0.0000 0.0000
# 5 0.0000 0.0000 0.0000 0.0000 38.8202 0.0000
# 6 0.0000 0.0000 0.0000 0.0000 0.0000 15.3494
#
#
#
# Elastic Compliance Matrix: (Units=1/GPa)
#
#
# Indices 1 2 3 4 5 6 
#
# 1 0.015857 -0.000844 -0.003602 0.000000 0.000000 0.000000
# 2 -0.000844 0.017149 0.000379 0.000000 0.000000 0.000000
# 3 -0.003602 0.000379 0.011861 0.000000 0.000000 0.000000
# 4 0.000000 0.000000 0.000000 0.041069 0.000000 0.000000
# 5 0.000000 0.000000 0.000000 0.000000 0.025760 0.000000
# 6 0.000000 0.000000 0.000000 0.000000 0.000000 0.065149
#
#
# Mechanical properties :
#
#
# Convention : Reuss Voigt Hill
#
# Bulk Modulus (GPa) = 27.22414 29.08573 28.15493
# Shear Modulus (GPa) = 25.35224 28.67173 27.01199
#
# Velocity S-wave (km/s) = 3.38306 3.59773 3.49204
# Velocity P-wave (km/s) = 5.24883 5.51259 5.38233
#
# Compressibility (1/GPa) = 0.03673211
#
# Stress axis : x y z
#
# Youngs Moduli (GPa) = 63.06545 58.31354 84.31146
#
# Poissons Ratio (x) = 0.04922 0.30371
# Poissons Ratio (y) = 0.05323 -0.03198
# Poissons Ratio (z) = 0.22718 -0.02212
#
# Static dielectric constant tensor:
#      x y z
#    x 1.825420 0.000000 0.000000 
#    y 0.000000 1.883330 0.000000 
#    z 0.000000 0.000000 1.917730 
# 
# From -- ./inp_files/5181.got.cif
#   From: 2010.05.17/outbox.cif.g08.bks.cpg/sg42_3_cif.got.tgz:5181.got - 2010.06.03 19:03:34.
