data_PCOD9369045
_publ_section_title
;
Structure prediction by ZEFSAII (Michael W. Deem and Ramdas Pophale) SiO2 
 PCOD9369045
Probable space group: F M M 2
;
_chemical_formula_sum "Si O2"
_cell_formula_units_Z 116
_cell_length_a 25.327848
_cell_length_b 18.260543
_cell_length_c 13.442248
_cell_angle_alpha 90.000000
_cell_angle_beta 90.000000
_cell_angle_gamma 90.000000
_cell_volume 6217.043161
_symmetry_space_group_name_H-M "F M M 2"
_symmetry_group_IT_number 42
_symmetry_cell_setting 'orthorhombic'
loop_
_space_group_symop_operation_xyz
x,y,z
-x,-y,z
-x,y,z
x,-y,z
x,1/2+y,1/2+z
-x,1/2-y,1/2+z
-x,1/2+y,1/2+z
x,1/2-y,1/2+z
1/2+x,y,1/2+z
1/2-x,-y,1/2+z
1/2-x,y,1/2+z
1/2+x,-y,1/2+z
1/2+x,1/2+y,z
1/2-x,1/2-y,z
1/2-x,1/2+y,z
1/2+x,1/2-y,z
loop_
_atom_site_type_symbol
_atom_site_label
_atom_site_fract_x
_atom_site_fract_y
_atom_site_fract_z
Si Si1 0.198965 0.086069 0.938620
Si Si2 0.438405 0.193049 0.138771
Si Si3 0.714172 0.182608 0.835530
Si Si4 0.411861 0.126430 0.347411
Si Si5 0.940462 0.856804 0.227114
Si Si6 0.166738 0.416029 0.662798
Si Si7 0.399207 0.787002 0.922271
Si Si8 0.000000 0.500000 0.383237
O O1 0.248915 0.132325 0.903774
O O2 0.147568 0.102200 0.871960
O O3 0.211058 0.000000 0.933962
O O4 0.182254 0.104648 0.051211
O O5 0.500000 0.175569 0.123155
O O6 0.417888 0.144182 0.230060
O O7 0.435108 0.277188 0.175482
O O8 0.408689 0.187948 0.034469
O O9 0.750000 0.250000 0.802017
O O10 0.693949 0.136568 0.742040
O O11 0.662463 0.211221 0.893224
O O12 0.420598 0.204515 0.403479
O O13 0.453586 0.064825 0.378912
O O14 0.895903 0.907422 0.179857
O O15 0.927815 0.840232 0.342841
O O16 0.000000 0.883542 0.214105
O O17 0.182309 0.500000 0.680108
#
# Coordination Sequence:
#
# PCOD9369045 Si02
#       8
#    16  16  16  16  16  16  16   4
#     4  11  23  42  63  90 124 167 210 259 321 384
#     4  10  20  35  62  90 124 163 204 261 306 368
#     4  11  23  41  65  91 121 161 211 272 318 365
#     4  11  22  40  61  93 130 166 203 257 318 375
#     4   9  19  35  57  88 121 159 201 254 308 363
#     4  10  23  42  60  87 126 163 207 258 312 386
#     4  10  21  38  61  91 123 159 215 259 314 366
#     4  12  24  40  64  92 140 174 198 260 314 400
#
# _framework density 18.658387999999999
#
# number of rings (size 3 to 8) (size 9 to 14) (size 15 to 20)
#    0.000    1.655    2.759    1.655    1.931    1.931 
#    1.241    0.000    7.586    0.000    0.000    0.000 
#    0.000    0.000    0.000    0.000    0.000    0.000 
#
# Total GULP energy -161735.567258 kJ/mol
# GULP energy per Si atom -5577.088526 kJ/mol
# Density = 1.861592 g / cm^3
# Si number density = 18.658388 Si / 1000 Ang^3
#
#
#
# Elastic Constant Matrix: (Units=GPa)
#
#
# Indices 1 2 3 4 5 6 
#
# 1 123.0115 50.1092 63.8396 0.0000 0.0000 0.0000
# 2 50.1092 75.4120 33.7651 0.0000 0.0000 0.0000
# 3 63.8396 33.7651 79.0032 0.0000 0.0000 0.0000
# 4 0.0000 0.0000 0.0000 502.4480 0.0000 0.0000
# 5 0.0000 0.0000 0.0000 0.0000 12.7029 0.0000
# 6 0.0000 0.0000 0.0000 0.0000 0.0000 32.9971
#
#
#
# Elastic Compliance Matrix: (Units=1/GPa)
#
#
# Indices 1 2 3 4 5 6 
#
# 1 0.015903 -0.005952 -0.010307 0.000000 0.000000 0.000000
# 2 -0.005952 0.018626 -0.003151 0.000000 0.000000 0.000000
# 3 -0.010307 -0.003151 0.022333 0.000000 0.000000 0.000000
# 4 0.000000 0.000000 0.000000 0.001990 0.000000 0.000000
# 5 0.000000 0.000000 0.000000 0.000000 0.078722 0.000000
# 6 0.000000 0.000000 0.000000 0.000000 0.000000 0.030306
#
#
# Mechanical properties :
#
#
# Convention : Reuss Voigt Hill
#
# Bulk Modulus (GPa) = 55.42474 63.65050 59.53762
# Shear Modulus (GPa) = 23.50579 118.27712 70.89145
#
# Velocity S-wave (km/s) = 3.55321 7.97047 6.17065
# Velocity P-wave (km/s) = 6.82666 10.90377 9.09658
#
# Compressibility (1/GPa) = 0.01804248
#
# Stress axis : x y z
#
# Youngs Moduli (GPa) = 62.88184 53.68710 44.77741
#
# Poissons Ratio (x) = 0.31956 0.46150
# Poissons Ratio (y) = 0.37429 0.14109
# Poissons Ratio (z) = 0.64809 0.16916
#
# Static dielectric constant tensor:
#      x y z
#    x 1.633120 0.000000 0.000000 
#    y 0.000000 1.637810 0.000000 
#    z 0.000000 0.000000 1.630400 
# 
# From -- ./inp_files/10728.got.cif
#   From: 2010.05.17/outbox.cif.g08.bks.cpg/sg42_6_cif.got.tgz:10728.got - 2010.06.03 19:03:34.
