data_PCOD9369108
_publ_section_title
;
Structure prediction by ZEFSAII (Michael W. Deem and Ramdas Pophale) SiO2 
 PCOD9369108
Probable space group: F M M 2
;
_chemical_formula_sum "Si O2"
_cell_formula_units_Z 84
_cell_length_a 14.494195
_cell_length_b 19.231878
_cell_length_c 13.943855
_cell_angle_alpha 90.000000
_cell_angle_beta 90.000000
_cell_angle_gamma 90.000000
_cell_volume 3886.857807
_symmetry_space_group_name_H-M "F M M 2"
_symmetry_group_IT_number 42
_symmetry_cell_setting 'orthorhombic'
loop_
_space_group_symop_operation_xyz
x,y,z
-x,-y,z
-x,y,z
x,-y,z
x,1/2+y,1/2+z
-x,1/2-y,1/2+z
-x,1/2+y,1/2+z
x,1/2-y,1/2+z
1/2+x,y,1/2+z
1/2-x,-y,1/2+z
1/2-x,y,1/2+z
1/2+x,-y,1/2+z
1/2+x,1/2+y,z
1/2-x,1/2-y,z
1/2-x,1/2+y,z
1/2+x,1/2-y,z
loop_
_atom_site_type_symbol
_atom_site_label
_atom_site_fract_x
_atom_site_fract_y
_atom_site_fract_z
Si Si1 0.796018 0.577394 0.626220
Si Si2 0.817373 0.073000 0.354344
Si Si3 0.500000 0.500000 0.408417
Si Si4 0.107300 0.286708 0.541472
Si Si5 0.393493 0.641858 0.646938
Si Si6 0.815937 0.308459 0.341433
O O1 0.822539 0.500000 0.591578
O O2 0.824870 0.580539 0.738828
O O3 0.840789 0.644860 0.578720
O O4 0.685129 0.586679 0.619756
O O5 0.754873 0.135850 0.386157
O O6 0.765382 0.000000 0.370952
O O7 0.917426 0.059869 0.399029
O O8 0.129645 0.214639 0.594536
O O9 0.127218 0.277765 0.428995
O O10 0.000000 0.299256 0.558481
O O11 0.500000 0.622376 0.627663
O O12 0.377882 0.656980 0.759973
O O13 0.750000 0.250000 0.295908
#
# Coordination Sequence:
#
# PCOD9369108 Si02
#       6
#    16  16   4  16  16  16
#     4  10  20  36  59  87 117 157 198 249 297 342
#     4   8  18  34  59  85 117 152 198 244 287 346
#     4   8  16  36  60  88 114 156 214 234 292 348
#     4  11  24  39  60  87 120 159 202 250 302 358
#     4  10  21  40  63  87 120 161 202 244 300 360
#     4  11  21  38  59  88 123 159 198 250 300 355
#
# _framework density 21.611287000000001
#
# number of rings (size 3 to 8) (size 9 to 14) (size 15 to 20)
#    0.571    1.524    0.000    4.571    1.333    1.524 
#    3.429    0.000    2.095    3.429    0.000    0.000 
#    0.000    0.000    0.000    0.000    0.000    0.000 
#
# Total GULP energy -116958.401455 kJ/mol
# GULP energy per Si atom -5569.447688 kJ/mol
# Density = 2.156210 g / cm^3
# Si number density = 21.611287 Si / 1000 Ang^3
#
#
#
# Elastic Constant Matrix: (Units=GPa)
#
#
# Indices 1 2 3 4 5 6 
#
# 1 66.4345 26.4858 3.1678 0.0000 0.0000 0.0000
# 2 26.4858 55.6851 -9.3978 0.0000 0.0000 0.0000
# 3 3.1678 -9.3978 55.3985 0.0000 0.0000 0.0000
# 4 0.0000 0.0000 0.0000 -41.2129 0.0000 0.0000
# 5 0.0000 0.0000 0.0000 0.0000 23.6088 0.0000
# 6 0.0000 0.0000 0.0000 0.0000 0.0000 48.6147
#
#
#
# Elastic Compliance Matrix: (Units=1/GPa)
#
#
# Indices 1 2 3 4 5 6 
#
# 1 0.018956 -0.009470 -0.002691 0.000000 0.000000 0.000000
# 2 -0.009470 0.023219 0.004480 0.000000 0.000000 0.000000
# 3 -0.002691 0.004480 0.018965 0.000000 0.000000 0.000000
# 4 0.000000 0.000000 0.000000 -0.024264 0.000000 0.000000
# 5 0.000000 0.000000 0.000000 0.000000 0.042357 0.000000
# 6 0.000000 0.000000 0.000000 0.000000 0.000000 0.020570
#
#
# Mechanical properties :
#
#
# Convention : Reuss Voigt Hill
#
# Bulk Modulus (GPa) = 21.84411 24.22552 23.03481
# Shear Modulus (GPa) = 38.33669 16.68628 27.51148
#
# Velocity S-wave (km/s) = 4.21636 2.78170 3.57180
# Velocity P-wave (km/s) = 5.81664 4.64232 5.26234
#
# Compressibility (1/GPa) = 0.04577892
#
# Stress axis : x y z
#
# Youngs Moduli (GPa) = 52.75291 43.06870 52.72891
#
# Poissons Ratio (x) = 0.40788 0.14187
# Poissons Ratio (y) = 0.49959 -0.23624
# Poissons Ratio (z) = 0.14193 -0.19296
#
# Static dielectric constant tensor:
#      x y z
#    x 1.757690 0.000000 0.000000 
#    y 0.000000 1.813470 0.000000 
#    z 0.000000 0.000000 1.820390 
# 
# From -- ./inp_files/13890.got.cif
#   From: 2010.05.17/outbox.cif.g08.bks.cpg/sg42_7_cif.got.tgz:13890.got - 2010.06.03 19:03:34.
