data_PCOD9369182
_publ_section_title
;
Structure prediction by ZEFSAII (Michael W. Deem and Ramdas Pophale) SiO2 
 PCOD9369182
Probable space group: F M M 2
;
_chemical_formula_sum "Si O2"
_cell_formula_units_Z 96
_cell_length_a 8.672756
_cell_length_b 24.022951
_cell_length_c 25.659921
_cell_angle_alpha 90.000000
_cell_angle_beta 90.000000
_cell_angle_gamma 90.000000
_cell_volume 5346.121178
_symmetry_space_group_name_H-M "F M M 2"
_symmetry_group_IT_number 42
_symmetry_cell_setting 'orthorhombic'
loop_
_space_group_symop_operation_xyz
x,y,z
-x,-y,z
-x,y,z
x,-y,z
x,1/2+y,1/2+z
-x,1/2-y,1/2+z
-x,1/2+y,1/2+z
x,1/2-y,1/2+z
1/2+x,y,1/2+z
1/2-x,-y,1/2+z
1/2-x,y,1/2+z
1/2+x,-y,1/2+z
1/2+x,1/2+y,z
1/2-x,1/2-y,z
1/2-x,1/2+y,z
1/2+x,1/2-y,z
loop_
_atom_site_type_symbol
_atom_site_label
_atom_site_fract_x
_atom_site_fract_y
_atom_site_fract_z
Si Si1 0.315741 0.188091 0.165360
Si Si2 0.814478 0.310365 0.362408
Si Si3 0.684492 0.310990 0.477614
Si Si4 0.816011 0.500000 0.107540
Si Si5 0.815889 0.616710 0.569949
Si Si6 0.815848 0.612262 0.266300
Si Si7 0.181429 0.000000 0.223887
O O1 0.500000 0.189782 0.157153
O O2 0.250000 0.250000 0.168998
O O3 0.238167 0.155417 0.117818
O O4 0.285348 0.154057 0.218309
O O5 0.750000 0.250000 0.345857
O O6 0.744469 0.322224 0.419178
O O7 0.774007 0.356620 0.319696
O O8 0.000000 0.306925 0.366266
O O9 0.500000 0.309007 0.478302
O O10 0.750000 0.250000 0.492596
O O11 0.746809 0.356309 0.517839
O O12 0.748277 0.444676 0.081328
O O13 0.768882 0.500000 0.168452
O O14 0.000000 0.500000 0.103788
O O15 0.000000 0.615640 0.567193
O O16 0.729118 0.555070 0.255197
O O17 0.000000 0.601386 0.266936
O O18 0.000000 0.000000 0.213157
#
# Coordination Sequence:
#
# PCOD9369182 Si02
#       7
#    16  16  16   8  16  16   8
#     4  11  22  36  56  85 120 157 192 241 297 355
#     4  10  20  37  61  90 120 158 199 244 299 356
#     4  11  22  39  62  89 121 160 199 247 301 356
#     4  12  24  42  63  86 119 158 198 242 298 358
#     4  12  24  40  61  88 118 154 200 247 294 355
#     4  10  22  39  60  84 119 159 198 243 298 353
#     4  12  24  38  61  88 117 158 204 246 292 348
#
# _framework density 17.956945000000001
#
# number of rings (size 3 to 8) (size 9 to 14) (size 15 to 20)
#    0.000    1.000    1.667    7.500    0.000    2.000 
#    0.000    0.833    0.000    3.000    0.000    0.000 
#    0.000    0.000    0.000    0.000    0.000    0.000 
#
# Total GULP energy -134251.068387 kJ/mol
# GULP energy per Si atom -5593.794516 kJ/mol
# Density = 1.791607 g / cm^3
# Si number density = 17.956945 Si / 1000 Ang^3
#
#
#
# Elastic Constant Matrix: (Units=GPa)
#
#
# Indices 1 2 3 4 5 6 
#
# 1 144.1641 83.8562 64.6214 0.0000 0.0000 0.0000
# 2 83.8562 160.7327 78.0445 0.0000 0.0000 0.0000
# 3 64.6214 78.0445 95.9752 0.0000 0.0000 0.0000
# 4 0.0000 0.0000 0.0000 3.1728 0.0000 0.0000
# 5 0.0000 0.0000 0.0000 0.0000 12.7553 0.0000
# 6 0.0000 0.0000 0.0000 0.0000 0.0000 32.5599
#
#
#
# Elastic Compliance Matrix: (Units=1/GPa)
#
#
# Indices 1 2 3 4 5 6 
#
# 1 0.011040 -0.003554 -0.004544 0.000000 0.000000 0.000000
# 2 -0.003554 0.011425 -0.006897 0.000000 0.000000 0.000000
# 3 -0.004544 -0.006897 0.019088 0.000000 0.000000 0.000000
# 4 0.000000 0.000000 0.000000 0.315183 0.000000 0.000000
# 5 0.000000 0.000000 0.000000 0.000000 0.078399 0.000000
# 6 0.000000 0.000000 0.000000 0.000000 0.000000 0.030713
#
#
# Mechanical properties :
#
#
# Convention : Reuss Voigt Hill
#
# Bulk Modulus (GPa) = 86.48554 94.87956 90.68255
# Shear Modulus (GPa) = 10.00617 21.32091 15.66354
#
# Velocity S-wave (km/s) = 2.36314 3.44951 2.95665
# Velocity P-wave (km/s) = 7.46413 8.29563 7.89084
#
# Compressibility (1/GPa) = 0.01156263
#
# Stress axis : x y z
#
# Youngs Moduli (GPa) = 90.57661 87.53096 52.38964
#
# Poissons Ratio (x) = 0.31104 0.23806
# Poissons Ratio (y) = 0.32187 0.36136
# Poissons Ratio (z) = 0.41158 0.60374
#
# Static dielectric constant tensor:
#      x y z
#    x 1.600950 0.000000 0.000000 
#    y 0.000000 1.585040 0.000000 
#    z 0.000000 0.000000 1.593800 
# 
# From -- ./inp_files/28125.got.cif
#   From: 2010.05.17/outbox.cif.g08.bks.cpg/sg42_15_cif.got.tgz:28125.got - 2010.06.03 19:03:34.
