data_PCOD9369272
_publ_section_title
;
Structure prediction by ZEFSAII (Michael W. Deem and Ramdas Pophale) SiO2 
 PCOD9369272
Probable space group: F M M 2
;
_chemical_formula_sum "Si O2"
_cell_formula_units_Z 64
_cell_length_a 10.527885
_cell_length_b 21.478607
_cell_length_c 14.481618
_cell_angle_alpha 90.000000
_cell_angle_beta 90.000000
_cell_angle_gamma 90.000000
_cell_volume 3274.645798
_symmetry_space_group_name_H-M "F M M 2"
_symmetry_group_IT_number 42
_symmetry_cell_setting 'orthorhombic'
loop_
_space_group_symop_operation_xyz
x,y,z
-x,-y,z
-x,y,z
x,-y,z
x,1/2+y,1/2+z
-x,1/2-y,1/2+z
-x,1/2+y,1/2+z
x,1/2-y,1/2+z
1/2+x,y,1/2+z
1/2-x,-y,1/2+z
1/2-x,y,1/2+z
1/2+x,-y,1/2+z
1/2+x,1/2+y,z
1/2-x,1/2-y,z
1/2-x,1/2+y,z
1/2+x,1/2-y,z
loop_
_atom_site_type_symbol
_atom_site_label
_atom_site_fract_x
_atom_site_fract_y
_atom_site_fract_z
Si Si1 0.799812 0.500000 0.630291
Si Si2 0.000000 0.253022 0.809161
Si Si3 0.000000 0.000000 0.293704
Si Si4 0.500000 0.134711 0.444561
Si Si5 0.761803 0.371259 0.060000
Si Si6 0.250000 0.250000 0.184511
Si Si7 0.500000 0.620883 0.424638
Si Si8 0.000000 0.500000 0.462281
O O1 0.882247 0.500000 0.722901
O O2 0.732634 0.566442 0.622305
O O3 0.883503 0.500000 0.535170
O O4 0.000000 0.190216 0.870981
O O5 0.874308 0.256867 0.747225
O O6 0.000000 0.313999 0.871848
O O7 0.000000 0.061515 0.356745
O O8 0.373885 0.136966 0.508121
O O9 0.500000 0.063872 0.405651
O O10 0.774409 0.310110 0.121539
O O11 0.873911 0.379159 0.986716
#
# Coordination Sequence:
#
# PCOD9369272 Si02
#       8
#     8   8   4   8  16   8   8   4
#     4   9  19  37  62  88 117 154 196 238 293 354
#     4  12  24  39  59  92 123 154 200 256 302 343
#     4  11  22  40  64  93 122 154 196 255 302 344
#     4  10  20  39  63  87 117 157 205 249 292 354
#     4  11  22  41  63  87 119 164 203 239 295 368
#     4  12  24  40  60  86 122 162 200 248 302 356
#     4  12  24  39  62  93 122 155 200 251 298 352
#     4   7  16  34  60  85 112 154 194 227 284 358
#
# _framework density 19.544098999999999
#
# number of rings (size 3 to 8) (size 9 to 14) (size 15 to 20)
#    0.000    1.250    0.000    7.500    0.000    0.000 
#    0.000    1.250    0.000    1.500    0.000    0.000 
#    0.000    0.000    0.000    0.000    0.000    0.000 
#
# Total GULP energy -89365.797946 kJ/mol
# GULP energy per Si atom -5585.362372 kJ/mol
# Density = 1.949962 g / cm^3
# Si number density = 19.544099 Si / 1000 Ang^3
#
#
#
# Elastic Constant Matrix: (Units=GPa)
#
#
# Indices 1 2 3 4 5 6 
#
# 1 138.1599 34.2817 69.5813 0.0000 0.0000 0.0000
# 2 34.2817 223.5212 99.9395 0.0000 0.0000 0.0000
# 3 69.5813 99.9395 121.6361 0.0000 0.0000 0.0000
# 4 0.0000 0.0000 0.0000 -49.4505 0.0000 0.0000
# 5 0.0000 0.0000 0.0000 0.0000 76.9887 0.0000
# 6 0.0000 0.0000 0.0000 0.0000 0.0000 27.4621
#
#
#
# Elastic Compliance Matrix: (Units=1/GPa)
#
#
# Indices 1 2 3 4 5 6 
#
# 1 0.010565 0.001710 -0.007449 0.000000 0.000000 0.000000
# 2 0.001710 0.007349 -0.007016 0.000000 0.000000 0.000000
# 3 -0.007449 -0.007016 0.018247 0.000000 0.000000 0.000000
# 4 0.000000 0.000000 0.000000 -0.020222 0.000000 0.000000
# 5 0.000000 0.000000 0.000000 0.000000 0.012989 0.000000
# 6 0.000000 0.000000 0.000000 0.000000 0.000000 0.036414
#
#
# Mechanical properties :
#
#
# Convention : Reuss Voigt Hill
#
# Bulk Modulus (GPa) = 93.88728 98.99136 96.43932
# Shear Modulus (GPa) = 52.96585 29.63437 41.30011
#
# Velocity S-wave (km/s) = 5.21148 3.89817 4.60192
# Velocity P-wave (km/s) = 9.18453 8.42741 8.81410
#
# Compressibility (1/GPa) = 0.01065107
#
# Stress axis : x y z
#
# Youngs Moduli (GPa) = 94.65156 136.08208 54.80434
#
# Poissons Ratio (x) = -0.23271 0.40822
# Poissons Ratio (y) = -0.16186 0.38450
# Poissons Ratio (z) = 0.70503 0.95475
#
# Static dielectric constant tensor:
#      x y z
#    x 1.687670 0.000000 0.000000 
#    y 0.000000 1.693740 0.000000 
#    z 0.000000 0.000000 1.645830 
# 
# From -- ./inp_files/11939.got.cif
#   From: 2010.05.17/outbox.cif.g08.bks.cpg/sg42_6_cif.got.tgz:11939.got - 2010.06.03 19:03:34.
