data_PCOD9369271
_publ_section_title
;
Structure prediction by ZEFSAII (Michael W. Deem and Ramdas Pophale) SiO2 
 PCOD9369271
Probable space group: F M M 2
;
_chemical_formula_sum "Si O2"
_cell_formula_units_Z 96
_cell_length_a 21.391953
_cell_length_b 15.693571
_cell_length_c 14.808009
_cell_angle_alpha 90.000000
_cell_angle_beta 90.000000
_cell_angle_gamma 90.000000
_cell_volume 4971.287522
_symmetry_space_group_name_H-M "F M M 2"
_symmetry_group_IT_number 42
_symmetry_cell_setting 'orthorhombic'
loop_
_space_group_symop_operation_xyz
x,y,z
-x,-y,z
-x,y,z
x,-y,z
x,1/2+y,1/2+z
-x,1/2-y,1/2+z
-x,1/2+y,1/2+z
x,1/2-y,1/2+z
1/2+x,y,1/2+z
1/2-x,-y,1/2+z
1/2-x,y,1/2+z
1/2+x,-y,1/2+z
1/2+x,1/2+y,z
1/2-x,1/2-y,z
1/2-x,1/2+y,z
1/2+x,1/2-y,z
loop_
_atom_site_type_symbol
_atom_site_label
_atom_site_fract_x
_atom_site_fract_y
_atom_site_fract_z
Si Si1 0.500000 0.856203 0.203701
Si Si2 0.381922 0.093835 0.089939
Si Si3 0.500000 0.202665 0.395022
Si Si4 0.369003 0.901079 0.583866
Si Si5 0.000000 0.168299 0.113359
Si Si6 0.250000 0.250000 0.338113
Si Si7 0.373489 0.244477 0.949039
Si Si8 0.254939 0.403454 0.702767
O O1 0.562482 0.896665 0.162157
O O2 0.500000 0.862833 0.312117
O O3 0.500000 0.758068 0.166271
O O4 0.314362 0.100223 0.136578
O O5 0.387042 0.000000 0.047168
O O6 0.387364 0.170942 0.020778
O O7 0.500000 0.178395 0.502377
O O8 0.565820 0.250629 0.385401
O O9 0.435151 0.880195 0.631956
O O10 0.364883 0.834206 0.501688
O O11 0.309332 0.887374 0.648314
O O12 0.368736 0.000000 0.554910
O O13 0.309988 0.272470 0.397239
O O14 0.264345 0.168578 0.276630
O O15 0.251955 0.500000 0.739778
#
# Coordination Sequence:
#
# PCOD9369271 Si02
#       8
#     8  16   8  16   8   8  16  16
#     4  12  21  40  65  89 128 162 204 259 309 372
#     4  11  22  41  65  88 122 167 209 254 313 369
#     4  10  22  37  60  91 124 157 202 258 300 364
#     4  10  20  39  63  86 118 162 205 254 308 364
#     4  10  21  39  63  92 124 161 210 253 303 368
#     4  12  24  36  62  86 128 164 198 258 324 354
#     4  11  22  39  59  92 119 162 209 254 310 369
#     4  10  23  39  59  91 123 161 213 254 304 377
#
# _framework density 19.310891999999999
#
# number of rings (size 3 to 8) (size 9 to 14) (size 15 to 20)
#    0.000    1.333    3.333    3.500    2.333    1.333 
#    0.000    8.333    0.000    0.000    0.000    0.000 
#    0.000    0.000    0.000    0.000    0.000    0.000 
#
# Total GULP energy -133939.065599 kJ/mol
# GULP energy per Si atom -5580.794400 kJ/mol
# Density = 1.926694 g / cm^3
# Si number density = 19.310892 Si / 1000 Ang^3
#
#
#
# Elastic Constant Matrix: (Units=GPa)
#
#
# Indices 1 2 3 4 5 6 
#
# 1 127.8776 -6.1725 5.7354 0.0000 0.0000 0.0000
# 2 -6.1725 78.2493 15.2579 0.0000 0.0000 0.0000
# 3 5.7354 15.2579 30.0534 0.0000 0.0000 0.0000
# 4 0.0000 0.0000 0.0000 66.4253 0.0000 0.0000
# 5 0.0000 0.0000 0.0000 0.0000 -128.1793 0.0000
# 6 0.0000 0.0000 0.0000 0.0000 0.0000 62.3006
#
#
#
# Elastic Compliance Matrix: (Units=1/GPa)
#
#
# Indices 1 2 3 4 5 6 
#
# 1 0.007961 0.001026 -0.002040 0.000000 0.000000 0.000000
# 2 0.001026 0.014316 -0.007464 0.000000 0.000000 0.000000
# 3 -0.002040 -0.007464 0.037453 0.000000 0.000000 0.000000
# 4 0.000000 0.000000 0.000000 0.015054 0.000000 0.000000
# 5 0.000000 0.000000 0.000000 0.000000 -0.007802 0.000000
# 6 0.000000 0.000000 0.000000 0.000000 0.000000 0.016051
#
#
# Mechanical properties :
#
#
# Convention : Reuss Voigt Hill
#
# Bulk Modulus (GPa) = 23.37898 29.53576 26.45737
# Shear Modulus (GPa) = 43.76439 14.86663 29.31551
#
# Velocity S-wave (km/s) = 4.76574 2.77764 3.90048
# Velocity P-wave (km/s) = 6.51275 5.06114 5.83228
#
# Compressibility (1/GPa) = 0.04277346
#
# Stress axis : x y z
#
# Youngs Moduli (GPa) = 125.61252 69.85205 26.70023
#
# Poissons Ratio (x) = -0.07165 0.05447
# Poissons Ratio (y) = -0.12885 0.19929
# Poissons Ratio (z) = 0.25626 0.52137
#
# Static dielectric constant tensor:
#      x y z
#    x 1.691070 0.000000 0.000000 
#    y 0.000000 1.635590 0.000000 
#    z 0.000000 0.000000 1.655330 
# 
# From -- ./inp_files/15886.got.cif
#   From: 2010.05.17/outbox.cif.g08.bks.cpg/sg42_8_cif.got.tgz:15886.got - 2010.06.03 19:03:34.
