data_PCOD9369913
_publ_section_title
;
Structure prediction by ZEFSAII (Michael W. Deem and Ramdas Pophale) SiO2 
 PCOD9369913
Probable space group: F M M 2
;
_chemical_formula_sum "Si O2"
_cell_formula_units_Z 80
_cell_length_a 15.570600
_cell_length_b 12.019419
_cell_length_c 22.094477
_cell_angle_alpha 90.000000
_cell_angle_beta 90.000000
_cell_angle_gamma 90.000000
_cell_volume 4134.971770
_symmetry_space_group_name_H-M "F M M 2"
_symmetry_group_IT_number 42
_symmetry_cell_setting 'orthorhombic'
loop_
_space_group_symop_operation_xyz
x,y,z
-x,-y,z
-x,y,z
x,-y,z
x,1/2+y,1/2+z
-x,1/2-y,1/2+z
-x,1/2+y,1/2+z
x,1/2-y,1/2+z
1/2+x,y,1/2+z
1/2-x,-y,1/2+z
1/2-x,y,1/2+z
1/2+x,-y,1/2+z
1/2+x,1/2+y,z
1/2-x,1/2-y,z
1/2-x,1/2+y,z
1/2+x,1/2-y,z
loop_
_atom_site_type_symbol
_atom_site_label
_atom_site_fract_x
_atom_site_fract_y
_atom_site_fract_z
Si Si1 0.603768 0.000000 0.319670
Si Si2 0.500000 0.370544 0.363927
Si Si3 0.500000 0.630545 0.218616
Si Si4 0.152673 0.709464 0.401142
Si Si5 0.897510 0.000000 0.679564
Si Si6 0.654333 0.257401 0.652574
Si Si7 0.897459 0.631282 0.534902
O O1 0.635400 0.109304 0.354403
O O2 0.500000 0.000000 0.321776
O O3 0.631597 0.000000 0.249764
O O4 0.500000 0.500000 0.381701
O O5 0.500000 0.364314 0.290983
O O6 0.584124 0.306476 0.387437
O O7 0.500000 0.500000 0.199811
O O8 0.583260 0.694121 0.192822
O O9 0.250000 0.750000 0.396038
O O10 0.134010 0.664995 0.468562
O O11 0.867760 0.112908 0.648580
O O12 0.000000 0.000000 0.680470
O O13 0.750000 0.250000 0.678440
O O14 0.649234 0.199731 0.587230
O O15 0.883829 0.500000 0.544093
O O16 0.000000 0.652560 0.539399
#
# Coordination Sequence:
#
# PCOD9369913 Si02
#       7
#     8   8   8  16   8  16  16
#     4  11  22  44  73  95 133 187 234 267 323 403
#     4  11  26  44  65  99 142 179 217 279 346 395
#     4  11  24  46  69  95 138 185 225 269 332 409
#     4  12  25  44  69 104 134 174 229 284 334 398
#     4  11  24  44  67  97 141 183 220 281 335 389
#     4  12  26  44  67 104 134 176 227 279 337 399
#     4  11  22  44  74  97 129 178 231 277 334 403
#
# _framework density 19.347169999999998
#
# number of rings (size 3 to 8) (size 9 to 14) (size 15 to 20)
#    0.000    0.600    5.000    2.400    4.200    3.200 
#    1.800    0.000    0.000    0.000    0.000    0.000 
#    0.000    0.000    0.000    0.000    0.000    0.000 
#
# Total GULP energy -111913.368679 kJ/mol
# GULP energy per Si atom -5595.668434 kJ/mol
# Density = 1.930313 g / cm^3
# Si number density = 19.347170 Si / 1000 Ang^3
#
#
#
# Elastic Constant Matrix: (Units=GPa)
#
#
# Indices 1 2 3 4 5 6 
#
# 1 147.6621 72.0843 24.6959 0.0000 0.0000 0.0000
# 2 72.0843 160.6418 33.6746 0.0000 0.0000 0.0000
# 3 24.6959 33.6746 71.9127 0.0000 0.0000 0.0000
# 4 0.0000 0.0000 0.0000 30.6582 0.0000 0.0000
# 5 0.0000 0.0000 0.0000 0.0000 -5.6057 0.0000
# 6 0.0000 0.0000 0.0000 0.0000 0.0000 25.6207
#
#
#
# Elastic Compliance Matrix: (Units=1/GPa)
#
#
# Indices 1 2 3 4 5 6 
#
# 1 0.008780 -0.003668 -0.001298 0.000000 0.000000 0.000000
# 2 -0.003668 0.008435 -0.002690 0.000000 0.000000 0.000000
# 3 -0.001298 -0.002690 0.015611 0.000000 0.000000 0.000000
# 4 0.000000 0.000000 0.000000 0.032618 0.000000 0.000000
# 5 0.000000 0.000000 0.000000 0.000000 -0.178390 0.000000
# 6 0.000000 0.000000 0.000000 0.000000 0.000000 0.039031
#
#
# Mechanical properties :
#
#
# Convention : Reuss Voigt Hill
#
# Bulk Modulus (GPa) = 57.09537 71.23624 64.16581
# Shear Modulus (GPa) = -94.75659 26.78544 -33.98557
#
# Velocity S-wave (km/s) = -7.00595 3.72487 -4.19575
# Velocity P-wave (km/s) = 5.98910 7.44308 3.12491
#
# Compressibility (1/GPa) = 0.01751455
#
# Stress axis : x y z
#
# Youngs Moduli (GPa) = 113.89927 118.55723 64.05697
#
# Poissons Ratio (x) = 0.43483 0.08312
# Poissons Ratio (y) = 0.41774 0.17233
# Poissons Ratio (z) = 0.14780 0.31894
#
# Static dielectric constant tensor:
#      x y z
#    x 1.652130 0.000000 0.000000 
#    y 0.000000 1.639910 0.000000 
#    z 0.000000 0.000000 1.657530 
# 
# From -- ./inp_files/28671.got.cif
#   From: 2010.05.17/outbox.cif.g08.bks.cpg/sg42_15_cif.got.tgz:28671.got - 2010.06.03 19:03:34.
