data_PCOD9369916
_publ_section_title
;
Structure prediction by ZEFSAII (Michael W. Deem and Ramdas Pophale) SiO2 
 PCOD9369916
Probable space group: F M M 2
;
_chemical_formula_sum "Si O2"
_cell_formula_units_Z 80
_cell_length_a 7.827261
_cell_length_b 18.024375
_cell_length_c 30.698898
_cell_angle_alpha 90.000000
_cell_angle_beta 90.000000
_cell_angle_gamma 90.000000
_cell_volume 4331.046194
_symmetry_space_group_name_H-M "F M M 2"
_symmetry_group_IT_number 42
_symmetry_cell_setting 'orthorhombic'
loop_
_space_group_symop_operation_xyz
x,y,z
-x,-y,z
-x,y,z
x,-y,z
x,1/2+y,1/2+z
-x,1/2-y,1/2+z
-x,1/2+y,1/2+z
x,1/2-y,1/2+z
1/2+x,y,1/2+z
1/2-x,-y,1/2+z
1/2-x,y,1/2+z
1/2+x,-y,1/2+z
1/2+x,1/2+y,z
1/2-x,1/2-y,z
1/2-x,1/2+y,z
1/2+x,1/2-y,z
loop_
_atom_site_type_symbol
_atom_site_label
_atom_site_fract_x
_atom_site_fract_y
_atom_site_fract_z
Si Si1 0.702529 0.664465 0.837620
Si Si2 0.000000 0.590422 0.990873
Si Si3 0.500000 0.590596 0.590819
Si Si4 0.697170 0.409399 0.154094
Si Si5 0.203783 0.583524 0.749513
Si Si6 0.698968 0.410607 0.926820
O O1 0.500000 0.656578 0.837506
O O2 0.750000 0.750000 0.841378
O O3 0.763588 0.631656 0.791903
O O4 0.762658 0.620777 0.880499
O O5 0.830229 0.613173 0.964423
O O6 0.000000 0.500000 0.991354
O O7 0.000000 0.615463 0.040830
O O8 0.500000 0.500000 0.590629
O O9 0.669251 0.613752 0.617274
O O10 0.500000 0.385930 0.146789
O O11 0.695571 0.500000 0.155232
O O12 0.761343 0.386630 0.202401
O O13 0.273055 0.500000 0.756232
O O14 0.000000 0.577720 0.744492
O O15 0.500000 0.388235 0.934128
O O16 0.701197 0.500000 0.924643
#
# Coordination Sequence:
#
# PCOD9369916 Si02
#       6
#    16   8   8  16  16  16
#     4  11  23  35  50  74 104 135 176 214 259 305
#     4   9  18  30  50  75 100 134 169 208 260 304
#     4   9  16  26  44  73 102 130 164 206 256 304
#     4   8  15  27  43  68 104 137 165 201 247 300
#     4   9  18  32  51  75 104 140 174 207 253 305
#     4   9  19  35  52  73 103 136 171 211 257 311
#
# _framework density 18.471287
#
# number of rings (size 3 to 8) (size 9 to 14) (size 15 to 20)
#    0.000    2.800    0.000    2.400    4.200    2.000 
#    0.000    4.000    0.000    0.000    0.000    1.400 
#    0.000    0.000    0.000    0.000    0.000    0.000 
#
# Total GULP energy -111456.677897 kJ/mol
# GULP energy per Si atom -5572.833895 kJ/mol
# Density = 1.842925 g / cm^3
# Si number density = 18.471287 Si / 1000 Ang^3
#
#
#
# Elastic Constant Matrix: (Units=GPa)
#
#
# Indices 1 2 3 4 5 6 
#
# 1 87.4188 14.4339 84.3169 0.0000 0.0000 0.0000
# 2 14.4339 14.4027 27.7708 0.0000 0.0000 0.0000
# 3 84.3169 27.7708 198.6700 0.0000 0.0000 0.0000
# 4 0.0000 0.0000 0.0000 -5.5976 0.0000 0.0000
# 5 0.0000 0.0000 0.0000 0.0000 35.1908 0.0000
# 6 0.0000 0.0000 0.0000 0.0000 0.0000 10.7911
#
#
#
# Elastic Compliance Matrix: (Units=1/GPa)
#
#
# Indices 1 2 3 4 5 6 
#
# 1 0.019620 -0.004938 -0.007637 0.000000 0.000000 0.000000
# 2 -0.004938 0.096293 -0.011364 0.000000 0.000000 0.000000
# 3 -0.007637 -0.011364 0.009863 0.000000 0.000000 0.000000
# 4 0.000000 0.000000 0.000000 -0.178649 0.000000 0.000000
# 5 0.000000 0.000000 0.000000 0.000000 0.028417 0.000000
# 6 0.000000 0.000000 0.000000 0.000000 0.000000 0.092669
#
#
# Mechanical properties :
#
#
# Convention : Reuss Voigt Hill
#
# Bulk Modulus (GPa) = 12.83730 61.50385 37.17058
# Shear Modulus (GPa) = 35.19725 19.67486 27.43606
#
# Velocity S-wave (km/s) = 4.36995 3.26722 3.85819
# Velocity P-wave (km/s) = 5.69447 6.89944 6.32571
#
# Compressibility (1/GPa) = 0.07789797
#
# Stress axis : x y z
#
# Youngs Moduli (GPa) = 50.96782 10.38500 101.38784
#
# Poissons Ratio (x) = 0.05128 0.77427
# Poissons Ratio (y) = 0.25167 1.15222
# Poissons Ratio (z) = 0.38923 0.11802
#
# Static dielectric constant tensor:
#      x y z
#    x 1.662270 0.000000 0.000000 
#    y 0.000000 1.600090 0.000000 
#    z 0.000000 0.000000 1.653540 
# 
# From -- ./inp_files/27827.got.cif
#   From: 2010.05.17/outbox.cif.g08.bks.cpg/sg42_14_cif.got.tgz:27827.got - 2010.06.03 19:03:34.
