data_PCOD9369126
_publ_section_title
;
Structure prediction by ZEFSAII (Michael W. Deem and Ramdas Pophale) SiO2 
 PCOD9369126
Probable space group: F M M 2
;
_chemical_formula_sum "Si O2"
_cell_formula_units_Z 72
_cell_length_a 9.360574
_cell_length_b 15.273956
_cell_length_c 25.101599
_cell_angle_alpha 90.000000
_cell_angle_beta 90.000000
_cell_angle_gamma 90.000000
_cell_volume 3588.850799
_symmetry_space_group_name_H-M "F M M 2"
_symmetry_group_IT_number 42
_symmetry_cell_setting 'orthorhombic'
loop_
_space_group_symop_operation_xyz
x,y,z
-x,-y,z
-x,y,z
x,-y,z
x,1/2+y,1/2+z
-x,1/2-y,1/2+z
-x,1/2+y,1/2+z
x,1/2-y,1/2+z
1/2+x,y,1/2+z
1/2-x,-y,1/2+z
1/2-x,y,1/2+z
1/2+x,-y,1/2+z
1/2+x,1/2+y,z
1/2-x,1/2-y,z
1/2-x,1/2+y,z
1/2+x,1/2-y,z
loop_
_atom_site_type_symbol
_atom_site_label
_atom_site_fract_x
_atom_site_fract_y
_atom_site_fract_z
Si Si1 0.157164 0.325810 0.841920
Si Si2 0.170759 0.598100 0.526809
Si Si3 0.826936 0.658144 0.647569
Si Si4 0.665412 0.000000 0.203083
Si Si5 0.750000 0.250000 0.445466
Si Si6 0.663635 0.500000 0.830610
O O1 0.250000 0.250000 0.812839
O O2 0.141317 0.287263 0.901526
O O3 0.250010 0.413289 0.846355
O O4 0.000000 0.340361 0.818482
O O5 0.229560 0.500000 0.517772
O O6 0.205771 0.631056 0.586210
O O7 0.212726 0.669368 0.483280
O O8 0.000000 0.592168 0.524956
O O9 0.750000 0.750000 0.658292
O O10 0.753687 0.583931 0.683315
O O11 0.000000 0.661661 0.653950
O O12 0.658759 0.000000 0.266706
O O13 0.500000 0.000000 0.183307
O O14 0.500000 0.500000 0.851239
#
# Coordination Sequence:
#
# PCOD9369126 Si02
#       6
#    16  16  16   8   8   8
#     4  10  23  41  64  94 128 163 211 263 315 376
#     4  10  20  36  60  91 128 172 213 253 307 370
#     4  11  22  40  65  95 130 171 211 259 312 373
#     4  11  25  45  66  95 124 163 214 267 324 381
#     4  10  22  36  64  94 130 168 214 254 318 362
#     4  11  25  45  70  91 122 165 212 269 330 377
#
# _framework density 20.062131999999998
#
# number of rings (size 3 to 8) (size 9 to 14) (size 15 to 20)
#    0.667    0.889    2.222    2.667    1.556    2.667 
#    0.000    0.000    0.000    0.000    0.000    0.000 
#    0.000    0.000    0.000    0.000    0.000    0.000 
#
# Total GULP energy -100341.595995 kJ/mol
# GULP energy per Si atom -5574.533111 kJ/mol
# Density = 2.001647 g / cm^3
# Si number density = 20.062132 Si / 1000 Ang^3
#
#
#
# Elastic Constant Matrix: (Units=GPa)
#
#
# Indices 1 2 3 4 5 6 
#
# 1 144.9589 76.3090 17.1919 0.0000 0.0000 0.0000
# 2 76.3090 190.6375 15.4159 0.0000 0.0000 0.0000
# 3 17.1919 15.4159 47.3407 0.0000 0.0000 0.0000
# 4 0.0000 0.0000 0.0000 88.0852 0.0000 0.0000
# 5 0.0000 0.0000 0.0000 0.0000 25.8820 0.0000
# 6 0.0000 0.0000 0.0000 0.0000 0.0000 15.4746
#
#
#
# Elastic Compliance Matrix: (Units=1/GPa)
#
#
# Indices 1 2 3 4 5 6 
#
# 1 0.008946 -0.003408 -0.002139 0.000000 0.000000 0.000000
# 2 -0.003408 0.006686 -0.000939 0.000000 0.000000 0.000000
# 3 -0.002139 -0.000939 0.022206 0.000000 0.000000 0.000000
# 4 0.000000 0.000000 0.000000 0.011353 0.000000 0.000000
# 5 0.000000 0.000000 0.000000 0.000000 0.038637 0.000000
# 6 0.000000 0.000000 0.000000 0.000000 0.000000 0.064622
#
#
# Mechanical properties :
#
#
# Convention : Reuss Voigt Hill
#
# Bulk Modulus (GPa) = 40.21721 66.75231 53.48476
# Shear Modulus (GPa) = 28.78340 44.15637 36.46989
#
# Velocity S-wave (km/s) = 3.79187 4.69655 4.26825
# Velocity P-wave (km/s) = 6.26585 7.92181 7.14199
#
# Compressibility (1/GPa) = 0.02486498
#
# Stress axis : x y z
#
# Youngs Moduli (GPa) = 111.77844 149.57250 45.03244
#
# Poissons Ratio (x) = 0.50975 0.09633
# Poissons Ratio (y) = 0.38095 0.04231
# Poissons Ratio (z) = 0.23910 0.14052
#
# Static dielectric constant tensor:
#      x y z
#    x 1.729680 0.000000 0.000000 
#    y 0.000000 1.685710 0.000000 
#    z 0.000000 0.000000 1.720530 
# 
# From -- ./inp_files/31155.got.cif
#   From: 2010.05.17/outbox.cif.g08.bks.cpg/sg42_16_cif.got.tgz:31155.got - 2010.06.03 19:03:34.
