data_PCOD9369852
_publ_section_title
;
Structure prediction by ZEFSAII (Michael W. Deem and Ramdas Pophale) SiO2 
 PCOD9369852
Probable space group: F M M 2
;
_chemical_formula_sum "Si O2"
_cell_formula_units_Z 112
_cell_length_a 29.071401
_cell_length_b 19.944653
_cell_length_c 9.576569
_cell_angle_alpha 90.000000
_cell_angle_beta 90.000000
_cell_angle_gamma 90.000000
_cell_volume 5552.676711
_symmetry_space_group_name_H-M "F M M 2"
_symmetry_group_IT_number 42
_symmetry_cell_setting 'orthorhombic'
loop_
_space_group_symop_operation_xyz
x,y,z
-x,-y,z
-x,y,z
x,-y,z
x,1/2+y,1/2+z
-x,1/2-y,1/2+z
-x,1/2+y,1/2+z
x,1/2-y,1/2+z
1/2+x,y,1/2+z
1/2-x,-y,1/2+z
1/2-x,y,1/2+z
1/2+x,-y,1/2+z
1/2+x,1/2+y,z
1/2-x,1/2-y,z
1/2-x,1/2+y,z
1/2+x,1/2-y,z
loop_
_atom_site_type_symbol
_atom_site_label
_atom_site_fract_x
_atom_site_fract_y
_atom_site_fract_z
Si Si1 0.143272 0.738837 0.389610
Si Si2 0.948523 0.578320 0.659961
Si Si3 0.351917 0.371850 0.210211
Si Si4 0.272208 0.681448 0.012862
Si Si5 0.447454 0.427168 0.496481
Si Si6 0.379019 0.831679 0.134329
Si Si7 0.308214 0.076842 0.978589
O O1 0.138873 0.806797 0.303743
O O2 0.195338 0.711858 0.392119
O O3 0.130630 0.763677 0.544776
O O4 0.116498 0.684982 0.297011
O O5 0.947488 0.500000 0.619788
O O6 0.898514 0.609728 0.626271
O O7 0.947525 0.581284 0.829429
O O8 0.000000 0.604643 0.617713
O O9 0.308278 0.356085 0.113379
O O10 0.336394 0.423255 0.332192
O O11 0.250000 0.750000 0.075295
O O12 0.235020 0.627330 0.963184
O O13 0.500000 0.429723 0.541078
O O14 0.425453 0.500000 0.527444
O O15 0.423270 0.366596 0.571487
O O16 0.338776 0.884536 0.095045
O O17 0.296688 0.000000 0.015087
#
# Coordination Sequence:
#
# PCOD9369852 Si02
#       7
#    16  16  16  16  16  16  16
#     4  11  22  37  59  83 116 159 199 245 296 376
#     4   9  17  32  58  89 117 154 203 256 314 366
#     4  11  21  36  60  85 122 153 205 257 310 359
#     4  12  24  40  61  86 119 168 209 247 312 383
#     4   9  17  33  59  88 116 152 201 257 310 368
#     4  11  21  38  60  87 119 153 206 245 314 353
#     4  11  24  37  57  85 117 157 208 256 298 358
#
# _framework density 20.170452000000001
#
# number of rings (size 3 to 8) (size 9 to 14) (size 15 to 20)
#    0.000    1.429    7.143    1.714    4.000    1.143 
#    0.000    2.143    0.000    1.714    0.000    2.000 
#    0.000    0.000    0.000    0.000    0.000    0.000 
#
# Total GULP energy -155957.685267 kJ/mol
# GULP energy per Si atom -5569.917331 kJ/mol
# Density = 2.012454 g / cm^3
# Si number density = 20.170452 Si / 1000 Ang^3
#
#
#
# Elastic Constant Matrix: (Units=GPa)
#
#
# Indices 1 2 3 4 5 6 
#
# 1 100.2182 33.2452 12.6287 0.0000 0.0000 0.0000
# 2 33.2452 104.7360 24.2257 0.0000 0.0000 0.0000
# 3 12.6287 24.2257 36.5402 -0.0001 0.0000 0.0000
# 4 0.0000 0.0000 -0.0001 13.6814 0.0000 0.0000
# 5 0.0000 0.0000 0.0000 0.0000 13.9307 0.0000
# 6 0.0000 0.0000 0.0000 0.0000 0.0000 39.4353
#
#
#
# Elastic Compliance Matrix: (Units=1/GPa)
#
#
# Indices 1 2 3 4 5 6 
#
# 1 0.011252 -0.003156 -0.001796 0.000000 0.000000 0.000000
# 2 -0.003156 0.012162 -0.006973 0.000000 0.000000 0.000000
# 3 -0.001796 -0.006973 0.032611 0.000000 0.000000 0.000000
# 4 0.000000 0.000000 0.000000 0.073092 0.000000 0.000000
# 5 0.000000 0.000000 0.000000 0.000000 0.071784 0.000000
# 6 0.000000 0.000000 0.000000 0.000000 0.000000 0.025358
#
#
# Mechanical properties :
#
#
# Convention : Reuss Voigt Hill
#
# Bulk Modulus (GPa) = 31.08036 42.41040 36.74538
# Shear Modulus (GPa) = 19.16930 24.83579 22.00255
#
# Velocity S-wave (km/s) = 3.08614 3.51279 3.30636
# Velocity P-wave (km/s) = 5.30484 6.12573 5.73001
#
# Compressibility (1/GPa) = 0.03217466
#
# Stress axis : x y z
#
# Youngs Moduli (GPa) = 88.87700 82.22067 30.66465
#
# Poissons Ratio (x) = 0.25948 0.05508
# Poissons Ratio (y) = 0.28049 0.21382
# Poissons Ratio (z) = 0.15965 0.57331
#
# Static dielectric constant tensor:
#      x y z
#    x 1.778920 0.000000 0.000000 
#    y 0.000000 1.761730 0.000000 
#    z 0.000000 0.000000 1.744800 
# 
# From -- ./inp_files/10755.got.cif
#   From: 2010.05.17/outbox.cif.g08.bks.cpg/sg42_6_cif.got.tgz:10755.got - 2010.06.03 19:03:34.
