data_PCOD9369431
_publ_section_title
;
Structure prediction by ZEFSAII (Michael W. Deem and Ramdas Pophale) SiO2 
 PCOD9369431
Probable space group: F M M 2
;
_chemical_formula_sum "Si O2"
_cell_formula_units_Z 96
_cell_length_a 14.040397
_cell_length_b 15.032447
_cell_length_c 22.851870
_cell_angle_alpha 90.000000
_cell_angle_beta 90.000000
_cell_angle_gamma 90.000000
_cell_volume 4823.150503
_symmetry_space_group_name_H-M "F M M 2"
_symmetry_group_IT_number 42
_symmetry_cell_setting 'orthorhombic'
loop_
_space_group_symop_operation_xyz
x,y,z
-x,-y,z
-x,y,z
x,-y,z
x,1/2+y,1/2+z
-x,1/2-y,1/2+z
-x,1/2+y,1/2+z
x,1/2-y,1/2+z
1/2+x,y,1/2+z
1/2-x,-y,1/2+z
1/2-x,y,1/2+z
1/2+x,-y,1/2+z
1/2+x,1/2+y,z
1/2-x,1/2-y,z
1/2-x,1/2+y,z
1/2+x,1/2-y,z
loop_
_atom_site_type_symbol
_atom_site_label
_atom_site_fract_x
_atom_site_fract_y
_atom_site_fract_z
Si Si1 0.738273 0.103132 0.397050
Si Si2 0.615155 0.000000 0.729245
Si Si3 0.384449 0.500000 0.093263
Si Si4 0.114945 0.500000 0.189203
Si Si5 0.887432 0.336592 0.810580
Si Si6 0.885592 0.500000 0.052475
Si Si7 0.236140 0.147163 0.025770
Si Si8 0.113148 0.862507 0.785044
O O1 0.829057 0.153430 0.370132
O O2 0.704995 0.144881 0.457782
O O3 0.661896 0.106554 0.344846
O O4 0.762524 0.000000 0.407681
O O5 0.643610 0.085522 0.766868
O O6 0.500000 0.000000 0.728100
O O7 0.643947 0.000000 0.661828
O O8 0.500000 0.500000 0.088447
O O9 0.338654 0.412518 0.062721
O O10 0.140022 0.500000 0.121631
O O11 0.145647 0.415693 0.227834
O O12 0.000000 0.500000 0.188715
O O13 0.868780 0.242109 0.781188
O O14 0.000000 0.344806 0.821487
O O15 0.833941 0.588835 0.028297
O O16 0.000000 0.500000 0.044418
O O17 0.250000 0.250000 0.044447
O O18 0.000000 0.876396 0.790382
#
# Coordination Sequence:
#
# PCOD9369431 Si02
#       8
#    16   8   8   8  16   8  16  16
#     4  12  22  39  62  84 119 158 194 242 300 355
#     4   9  19  37  60  87 121 154 194 242 291 353
#     4  10  23  43  65  90 121 163 209 252 302 356
#     4   9  19  37  60  87 121 154 194 242 291 353
#     4  10  21  37  60  90 120 152 191 238 296 358
#     4  10  23  43  65  90 121 163 209 252 302 356
#     4  11  25  44  62  89 124 160 209 259 300 356
#     4  10  21  37  60  90 120 152 191 238 296 358
#
# _framework density 19.904002999999999
#
# number of rings (size 3 to 8) (size 9 to 14) (size 15 to 20)
#    0.000    1.667    3.333    1.500    0.000    6.000 
#    0.000    3.333    0.000    0.000    0.000    0.000 
#    0.000    0.000    0.000    0.000    0.000    0.000 
#
# Total GULP energy -134023.666692 kJ/mol
# GULP energy per Si atom -5584.319445 kJ/mol
# Density = 1.985870 g / cm^3
# Si number density = 19.904003 Si / 1000 Ang^3
#
#
#
# Elastic Constant Matrix: (Units=GPa)
#
#
# Indices 1 2 3 4 5 6 
#
# 1 73.9841 9.6331 -4.6409 0.0000 0.0000 0.0000
# 2 9.6331 143.2568 27.3685 0.0000 0.0000 0.0000
# 3 -4.6409 27.3685 108.8445 0.0000 0.0000 0.0000
# 4 0.0000 0.0000 0.0000 8.6966 0.0000 0.0000
# 5 0.0000 0.0000 0.0000 0.0000 29.1875 0.0000
# 6 0.0000 0.0000 0.0000 0.0000 0.0000 16.4027
#
#
#
# Elastic Compliance Matrix: (Units=1/GPa)
#
#
# Indices 1 2 3 4 5 6 
#
# 1 0.013712 -0.001086 0.000858 0.000000 0.000000 0.000000
# 2 -0.001086 0.007419 -0.001912 0.000000 0.000000 0.000000
# 3 0.000858 -0.001912 0.009705 0.000000 0.000000 0.000000
# 4 0.000000 0.000000 0.000000 0.114988 0.000000 0.000000
# 5 0.000000 0.000000 0.000000 0.000000 0.034261 0.000000
# 6 0.000000 0.000000 0.000000 0.000000 0.000000 0.060966
#
#
# Mechanical properties :
#
#
# Convention : Reuss Voigt Hill
#
# Bulk Modulus (GPa) = 37.65743 43.42297 40.54020
# Shear Modulus (GPa) = 19.67100 30.43900 25.05500
#
# Velocity S-wave (km/s) = 3.14712 3.91486 3.55180
# Velocity P-wave (km/s) = 5.67155 6.50372 6.10184
#
# Compressibility (1/GPa) = 0.02655519
#
# Stress axis : x y z
#
# Youngs Moduli (GPa) = 72.93094 134.79429 103.04309
#
# Poissons Ratio (x) = 0.14637 -0.08838
# Poissons Ratio (y) = 0.07919 0.19699
# Poissons Ratio (z) = -0.06255 0.25769
#
# Static dielectric constant tensor:
#      x y z
#    x 1.734100 0.000000 0.000000 
#    y 0.000000 1.710960 0.000000 
#    z 0.000000 0.000000 1.676610 
# 
# From -- ./inp_files/25174.got.cif
#   From: 2010.05.17/outbox.cif.g08.bks.cpg/sg42_13_cif.got.tgz:25174.got - 2010.06.03 19:03:34.
