data_PCOD9369330
_publ_section_title
;
Structure prediction by ZEFSAII (Michael W. Deem and Ramdas Pophale) SiO2 
 PCOD9369330
Probable space group: F M M 2
;
_chemical_formula_sum "Si O2"
_cell_formula_units_Z 96
_cell_length_a 28.918301
_cell_length_b 8.676778
_cell_length_c 21.094386
_cell_angle_alpha 90.000000
_cell_angle_beta 90.000000
_cell_angle_gamma 90.000000
_cell_volume 5292.954352
_symmetry_space_group_name_H-M "F M M 2"
_symmetry_group_IT_number 42
_symmetry_cell_setting 'orthorhombic'
loop_
_space_group_symop_operation_xyz
x,y,z
-x,-y,z
-x,y,z
x,-y,z
x,1/2+y,1/2+z
-x,1/2-y,1/2+z
-x,1/2+y,1/2+z
x,1/2-y,1/2+z
1/2+x,y,1/2+z
1/2-x,-y,1/2+z
1/2-x,y,1/2+z
1/2+x,-y,1/2+z
1/2+x,1/2+y,z
1/2-x,1/2-y,z
1/2-x,1/2+y,z
1/2+x,1/2-y,z
loop_
_atom_site_type_symbol
_atom_site_label
_atom_site_fract_x
_atom_site_fract_y
_atom_site_fract_z
Si Si1 0.801940 0.685116 0.235690
Si Si2 0.644185 0.685817 0.608853
Si Si3 0.698521 0.814078 0.982985
Si Si4 0.856084 0.315456 0.856045
Si Si5 0.446958 0.185705 0.410348
Si Si6 0.947531 0.685705 0.557771
O O1 0.799612 0.500000 0.236376
O O2 0.750000 0.750000 0.237068
O O3 0.828648 0.734904 0.171755
O O4 0.830819 0.742681 0.295955
O O5 0.642800 0.500000 0.608489
O O6 0.671947 0.737901 0.546221
O O7 0.592264 0.747111 0.601769
O O8 0.750000 0.750000 0.981915
O O9 0.671129 0.766956 0.919891
O O10 0.700145 0.000000 0.983943
O O11 0.854304 0.500000 0.851268
O O12 0.908586 0.260914 0.866171
O O13 0.500000 0.226268 0.394515
O O14 0.439048 0.231926 0.484124
O O15 0.443004 0.000000 0.407416
O O16 0.945841 0.500000 0.559580
O O17 0.000000 0.733041 0.574180
#
# Coordination Sequence:
#
# PCOD9369330 Si02
#       6
#    16  16  16  16  16  16
#     4  11  24  41  60  81 113 154 194 235 284 342
#     4  10  21  38  57  82 113 147 188 233 282 336
#     4  10  21  35  53  80 109 139 181 232 280 329
#     4  11  22  37  58  84 115 149 190 236 283 339
#     4   9  18  34  57  86 118 150 186 231 286 342
#     4   9  18  33  56  87 118 148 184 229 282 337
#
# _framework density 18.137319000000002
#
# number of rings (size 3 to 8) (size 9 to 14) (size 15 to 20)
#    0.000    2.000    1.667    3.000    0.000    5.333 
#    0.000    2.500    0.000    1.000    0.000    0.000 
#    0.000    0.000    0.000    0.000    0.000    0.000 
#
# Total GULP energy -134016.407681 kJ/mol
# GULP energy per Si atom -5584.016987 kJ/mol
# Density = 1.809604 g / cm^3
# Si number density = 18.137319 Si / 1000 Ang^3
#
#
#
# Elastic Constant Matrix: (Units=GPa)
#
#
# Indices 1 2 3 4 5 6 
#
# 1 177.1498 37.9673 93.5432 0.0000 0.0000 0.0000
# 2 37.9673 23.4333 38.5791 0.0000 0.0000 0.0000
# 3 93.5432 38.5791 148.5850 0.0000 0.0000 0.0000
# 4 0.0000 0.0000 0.0000 24.8476 0.0000 0.0000
# 5 0.0000 0.0000 0.0000 0.0000 33.0948 0.0000
# 6 0.0000 0.0000 0.0000 0.0000 0.0000 37.1579
#
#
#
# Elastic Compliance Matrix: (Units=1/GPa)
#
#
# Indices 1 2 3 4 5 6 
#
# 1 0.009587 -0.009775 -0.003497 0.000000 0.000000 0.000000
# 2 -0.009775 0.084501 -0.015787 0.000000 0.000000 0.000000
# 3 -0.003497 -0.015787 0.013031 0.000000 0.000000 0.000000
# 4 0.000000 0.000000 0.000000 0.040245 0.000000 0.000000
# 5 0.000000 0.000000 0.000000 0.000000 0.030216 0.000000
# 6 0.000000 0.000000 0.000000 0.000000 0.000000 0.026912
#
#
# Mechanical properties :
#
#
# Convention : Reuss Voigt Hill
#
# Bulk Modulus (GPa) = 20.40742 76.59415 48.50079
# Shear Modulus (GPa) = 17.92474 30.95861 24.44168
#
# Velocity S-wave (km/s) = 3.14710 4.13595 3.67494
# Velocity P-wave (km/s) = 4.94790 8.07031 6.69371
#
# Compressibility (1/GPa) = 0.04900177
#
# Stress axis : x y z
#
# Youngs Moduli (GPa) = 104.31120 11.83412 76.74057
#
# Poissons Ratio (x) = 0.11567 0.26840
# Poissons Ratio (y) = 1.01960 1.21147
# Poissons Ratio (z) = 0.36483 0.18682
#
# Static dielectric constant tensor:
#      x y z
#    x 1.605020 0.000000 0.000000 
#    y 0.000000 1.616300 0.000000 
#    z 0.000000 0.000000 1.610140 
# 
# From -- ./inp_files/23679.got.cif
#   From: 2010.05.17/outbox.cif.g08.bks.cpg/sg42_12_cif.got.tgz:23679.got - 2010.06.03 19:03:34.
