data_PCOD9369792
_publ_section_title
;
Structure prediction by ZEFSAII (Michael W. Deem and Ramdas Pophale) SiO2 
 PCOD9369792
Probable space group: F M M 2
;
_chemical_formula_sum "Si O2"
_cell_formula_units_Z 88
_cell_length_a 28.598556
_cell_length_b 18.486333
_cell_length_c 7.779779
_cell_angle_alpha 90.000000
_cell_angle_beta 90.000000
_cell_angle_gamma 90.000000
_cell_volume 4113.032463
_symmetry_space_group_name_H-M "F M M 2"
_symmetry_group_IT_number 42
_symmetry_cell_setting 'orthorhombic'
loop_
_space_group_symop_operation_xyz
x,y,z
-x,-y,z
-x,y,z
x,-y,z
x,1/2+y,1/2+z
-x,1/2-y,1/2+z
-x,1/2+y,1/2+z
x,1/2-y,1/2+z
1/2+x,y,1/2+z
1/2-x,-y,1/2+z
1/2-x,y,1/2+z
1/2+x,-y,1/2+z
1/2+x,1/2+y,z
1/2-x,1/2-y,z
1/2-x,1/2+y,z
1/2+x,1/2-y,z
loop_
_atom_site_type_symbol
_atom_site_label
_atom_site_fract_x
_atom_site_fract_y
_atom_site_fract_z
Si Si1 0.908671 0.160523 0.233810
Si Si2 0.698519 0.648446 0.183988
Si Si3 0.761639 0.500000 0.829524
Si Si4 0.081803 0.419624 0.085392
Si Si5 0.672568 0.500000 0.659255
Si Si6 0.250000 0.750000 0.428017
Si Si7 0.947105 0.305193 0.368210
O O1 0.856703 0.141452 0.171620
O O2 0.922244 0.107250 0.389602
O O3 0.912596 0.239444 0.322450
O O4 0.938585 0.164171 0.059144
O O5 0.721178 0.572879 0.236659
O O6 0.709526 0.710146 0.324113
O O7 0.725145 0.684069 0.025090
O O8 0.704880 0.500000 0.828213
O O9 0.789244 0.500000 0.008798
O O10 0.061267 0.500000 0.102017
O O11 0.137020 0.432711 0.133527
O O12 0.060218 0.364970 0.221426
O O13 0.000000 0.276395 0.358767
#
# Coordination Sequence:
#
# PCOD9369792 Si02
#       7
#    16  16   8  16   8   8  16
#     4  12  24  44  75 104 146 185 242 296 364 440
#     4  11  23  41  61  99 131 185 226 289 342 405
#     4  12  22  40  72  93 139 185 245 276 332 428
#     4  10  25  50  71 104 152 187 234 299 369 428
#     4  10  24  44  67 105 143 191 238 292 360 404
#     4  10  24  38  60  92 142 170 234 280 346 408
#     4  12  27  46  77 111 138 188 243 302 377 450
#
# _framework density 21.395406000000001
#
# number of rings (size 3 to 8) (size 9 to 14) (size 15 to 20)
#    0.545    0.364    3.636    2.727    0.000    6.182 
#    0.000    0.000    0.000    0.000    0.000    0.000 
#    0.000    0.000    0.000    0.000    0.000    0.000 
#
# Total GULP energy -122865.255855 kJ/mol
# GULP energy per Si atom -5584.784357 kJ/mol
# Density = 2.134671 g / cm^3
# Si number density = 21.395406 Si / 1000 Ang^3
#
#
#
# Elastic Constant Matrix: (Units=GPa)
#
#
# Indices 1 2 3 4 5 6 
#
# 1 60.6577 -3.9512 11.9121 0.0000 0.0000 0.0000
# 2 -3.9512 68.3771 -16.8962 -0.0001 0.0000 -0.0002
# 3 11.9121 -16.8962 60.3729 -0.0002 0.0000 -0.0003
# 4 0.0000 -0.0001 -0.0002 30.6752 0.0000 -0.0001
# 5 0.0000 0.0000 0.0000 0.0000 22.7562 0.0000
# 6 0.0000 -0.0002 -0.0003 -0.0001 0.0000 69.4995
#
#
#
# Elastic Compliance Matrix: (Units=1/GPa)
#
#
# Indices 1 2 3 4 5 6 
#
# 1 0.017152 0.000166 -0.003338 0.000000 0.000000 0.000000
# 2 0.000166 0.015713 0.004365 0.000000 0.000000 0.000000
# 3 -0.003338 0.004365 0.018444 0.000000 0.000000 0.000000
# 4 0.000000 0.000000 0.000000 0.032600 0.000000 0.000000
# 5 0.000000 0.000000 0.000000 0.000000 0.043944 0.000000
# 6 0.000000 0.000000 0.000000 0.000000 0.000000 0.014389
#
#
# Mechanical properties :
#
#
# Convention : Reuss Voigt Hill
#
# Bulk Modulus (GPa) = 18.62349 19.05967 18.84158
# Shear Modulus (GPa) = 31.69508 37.80903 34.75205
#
# Velocity S-wave (km/s) = 3.85307 4.20832 4.03460
# Velocity P-wave (km/s) = 5.34024 5.70446 5.52535
#
# Compressibility (1/GPa) = 0.05369562
#
# Stress axis : x y z
#
# Youngs Moduli (GPa) = 58.30135 63.64189 54.21879
#
# Poissons Ratio (x) = -0.01059 0.18097
# Poissons Ratio (y) = -0.00970 -0.23665
# Poissons Ratio (z) = 0.19459 -0.27777
#
# Static dielectric constant tensor:
#      x y z
#    x 1.754010 0.000000 0.000000 
#    y 0.000000 1.732660 0.000000 
#    z 0.000000 0.000000 1.825040 
# 
# From -- ./inp_files/5562.got.cif
#   From: 2010.05.17/outbox.cif.g08.bks.cpg/sg42_3_cif.got.tgz:5562.got - 2010.06.03 19:03:34.
