data_PCOD9369624
_publ_section_title
;
Structure prediction by ZEFSAII (Michael W. Deem and Ramdas Pophale) SiO2 
 PCOD9369624
Probable space group: F M M 2
;
_chemical_formula_sum "Si O2"
_cell_formula_units_Z 112
_cell_length_a 13.864575
_cell_length_b 13.914213
_cell_length_c 26.909675
_cell_angle_alpha 90.000000
_cell_angle_beta 90.000000
_cell_angle_gamma 90.000000
_cell_volume 5191.270526
_symmetry_space_group_name_H-M "F M M 2"
_symmetry_group_IT_number 42
_symmetry_cell_setting 'orthorhombic'
loop_
_space_group_symop_operation_xyz
x,y,z
-x,-y,z
-x,y,z
x,-y,z
x,1/2+y,1/2+z
-x,1/2-y,1/2+z
-x,1/2+y,1/2+z
x,1/2-y,1/2+z
1/2+x,y,1/2+z
1/2-x,-y,1/2+z
1/2-x,y,1/2+z
1/2+x,-y,1/2+z
1/2+x,1/2+y,z
1/2-x,1/2-y,z
1/2-x,1/2+y,z
1/2+x,1/2-y,z
loop_
_atom_site_type_symbol
_atom_site_label
_atom_site_fract_x
_atom_site_fract_y
_atom_site_fract_z
Si Si1 0.698332 0.107534 0.963820
Si Si2 0.285692 0.388433 0.258792
Si Si3 0.390708 0.707060 0.805590
Si Si4 0.613203 0.318477 0.559245
Si Si5 0.271637 0.608215 0.647052
Si Si6 0.887262 0.602983 0.563567
Si Si7 0.108143 0.797667 0.924882
O O1 0.805073 0.137977 0.946270
O O2 0.627916 0.188371 0.941700
O O3 0.677018 0.000000 0.947372
O O4 0.677554 0.116242 0.022926
O O5 0.316782 0.500000 0.261714
O O6 0.356258 0.310249 0.283780
O O7 0.184108 0.371580 0.286138
O O8 0.262901 0.362837 0.201470
O O9 0.500000 0.688270 0.789947
O O10 0.385860 0.704801 0.865218
O O11 0.500000 0.342418 0.556277
O O12 0.652794 0.329352 0.615260
O O13 0.627855 0.208816 0.541080
O O14 0.312608 0.500000 0.651092
O O15 0.177866 0.603055 0.612331
O O16 0.869563 0.500000 0.536830
O O17 0.000000 0.603458 0.576743
O O18 0.000000 0.828939 0.939811
#
# Coordination Sequence:
#
# PCOD9369624 Si02
#       7
#    16  16  16  16  16  16  16
#     4  11  24  43  68  95 126 167 215 266 321 385
#     4  10  22  40  63  94 130 170 218 264 312 379
#     4  10  23  42  65  95 131 166 208 266 328 389
#     4  11  24  40  61  90 127 171 217 268 323 382
#     4  10  22  38  58  88 126 167 212 262 314 372
#     4   9  20  38  59  85 119 164 213 258 310 370
#     4  10  24  45  66  96 131 163 208 267 332 394
#
# _framework density 21.574680000000001
#
# number of rings (size 3 to 8) (size 9 to 14) (size 15 to 20)
#    0.000    1.857    0.000    3.000    8.000    6.286 
#    0.000    5.714    0.000    0.000    0.000    0.000 
#    0.000    0.000    0.000    0.000    0.000    0.000 
#
# Total GULP energy -156432.232157 kJ/mol
# GULP energy per Si atom -5586.865434 kJ/mol
# Density = 2.152557 g / cm^3
# Si number density = 21.574680 Si / 1000 Ang^3
#
#
#
# Elastic Constant Matrix: (Units=GPa)
#
#
# Indices 1 2 3 4 5 6 
#
# 1 95.0604 5.3570 12.7496 0.0000 0.0000 0.0000
# 2 5.3570 104.2435 -0.2233 0.0000 0.0000 0.0000
# 3 12.7496 -0.2233 75.4473 0.0000 0.0000 0.0000
# 4 0.0000 0.0000 0.0000 21.9687 0.0000 0.0000
# 5 0.0000 0.0000 0.0000 0.0000 12.7422 0.0000
# 6 0.0000 0.0000 0.0000 0.0000 0.0000 16.5022
#
#
#
# Elastic Compliance Matrix: (Units=1/GPa)
#
#
# Indices 1 2 3 4 5 6 
#
# 1 0.010796 -0.000559 -0.001826 0.000000 0.000000 0.000000
# 2 -0.000559 0.009622 0.000123 0.000000 0.000000 0.000000
# 3 -0.001826 0.000123 0.013563 0.000000 0.000000 0.000000
# 4 0.000000 0.000000 0.000000 0.045519 0.000000 0.000000
# 5 0.000000 0.000000 0.000000 0.000000 0.078479 0.000000
# 6 0.000000 0.000000 0.000000 0.000000 0.000000 0.060598
#
#
# Mechanical properties :
#
#
# Convention : Reuss Voigt Hill
#
# Bulk Modulus (GPa) = 33.94728 34.50197 34.22463
# Shear Modulus (GPa) = 21.46652 27.36713 24.41682
#
# Velocity S-wave (km/s) = 3.15776 3.56544 3.36778
# Velocity P-wave (km/s) = 5.39113 5.74251 5.56959
#
# Compressibility (1/GPa) = 0.02945744
#
# Stress axis : x y z
#
# Youngs Moduli (GPa) = 92.62665 103.92955 73.72873
#
# Poissons Ratio (x) = 0.05807 0.13463
# Poissons Ratio (y) = 0.05175 -0.00906
# Poissons Ratio (z) = 0.16914 -0.01277
#
# Static dielectric constant tensor:
#      x y z
#    x 1.774560 0.000000 0.000000 
#    y 0.000000 1.815290 0.000000 
#    z 0.000000 0.000000 1.797800 
# 
# From -- ./inp_files/29490.got.cif
#   From: 2010.05.17/outbox.cif.g08.bks.cpg/sg42_15_cif.got.tgz:29490.got - 2010.06.03 19:03:34.
