data_PCOD9369429
_publ_section_title
;
Structure prediction by ZEFSAII (Michael W. Deem and Ramdas Pophale) SiO2 
 PCOD9369429
Probable space group: F M M 2
;
_chemical_formula_sum "Si O2"
_cell_formula_units_Z 112
_cell_length_a 26.249118
_cell_length_b 13.963631
_cell_length_c 13.223800
_cell_angle_alpha 90.000000
_cell_angle_beta 90.000000
_cell_angle_gamma 90.000000
_cell_volume 4846.959057
_symmetry_space_group_name_H-M "F M M 2"
_symmetry_group_IT_number 42
_symmetry_cell_setting 'orthorhombic'
loop_
_space_group_symop_operation_xyz
x,y,z
-x,-y,z
-x,y,z
x,-y,z
x,1/2+y,1/2+z
-x,1/2-y,1/2+z
-x,1/2+y,1/2+z
x,1/2-y,1/2+z
1/2+x,y,1/2+z
1/2-x,-y,1/2+z
1/2-x,y,1/2+z
1/2+x,-y,1/2+z
1/2+x,1/2+y,z
1/2-x,1/2-y,z
1/2-x,1/2+y,z
1/2+x,1/2-y,z
loop_
_atom_site_type_symbol
_atom_site_label
_atom_site_fract_x
_atom_site_fract_y
_atom_site_fract_z
Si Si1 0.895760 0.802734 0.230250
Si Si2 0.440945 0.198895 0.934090
Si Si3 0.230556 0.148066 0.976776
Si Si4 0.699521 0.893672 0.827169
Si Si5 0.614092 0.388963 0.004127
Si Si6 0.108222 0.613336 0.128567
Si Si7 0.722233 0.386875 0.670992
O O1 0.933175 0.836979 0.319566
O O2 0.841885 0.818316 0.290265
O O3 0.890545 0.859214 0.123552
O O4 0.915192 0.695520 0.200763
O O5 0.500000 0.199595 0.961537
O O6 0.417688 0.306134 0.947238
O O7 0.410915 0.133539 0.015321
O O8 0.250000 0.250000 0.942044
O O9 0.282289 0.094280 0.942109
O O10 0.172416 0.118088 0.961266
O O11 0.233898 0.149043 0.098103
O O12 0.755616 0.870861 0.781506
O O13 0.683115 0.000000 0.790625
O O14 0.598209 0.500000 0.991659
O O15 0.102463 0.500000 0.153697
O O16 0.166825 0.646883 0.142185
O O17 0.719758 0.500000 0.660555
#
# Coordination Sequence:
#
# PCOD9369429 Si02
#       7
#    16  16  16  16  16  16  16
#     4  11  23  43  71 103 137 183 232 292 340 413
#     4  11  27  49  70  99 135 179 235 300 367 421
#     4  12  23  36  60  95 139 187 227 269 336 408
#     4  11  23  37  62  97 140 184 222 267 331 413
#     4  11  24  45  72 101 137 182 235 295 352 414
#     4  10  24  45  69 101 139 180 229 285 346 420
#     4  10  21  37  59  92 134 176 216 262 322 403
#
# _framework density 23.107272999999999
#
# number of rings (size 3 to 8) (size 9 to 14) (size 15 to 20)
#    0.000    1.143    1.429    5.143    4.000    5.714 
#    0.000    0.000    0.000    0.000    0.000    0.000 
#    0.000    0.000    0.000    0.000    0.000    0.000 
#
# Total GULP energy -155970.029067 kJ/mol
# GULP energy per Si atom -5570.358181 kJ/mol
# Density = 2.305468 g / cm^3
# Si number density = 23.107273 Si / 1000 Ang^3
#
#
#
# Elastic Constant Matrix: (Units=GPa)
#
#
# Indices 1 2 3 4 5 6 
#
# 1 49.3563 13.1180 -4.4923 0.0000 0.0000 0.0000
# 2 13.1180 98.7792 26.0145 0.0000 0.0000 0.0000
# 3 -4.4923 26.0145 64.3125 0.0000 0.0000 0.0000
# 4 0.0000 0.0000 0.0000 12.0070 0.0000 0.0000
# 5 0.0000 0.0000 0.0000 0.0000 21.1067 0.0000
# 6 0.0000 0.0000 0.0000 0.0000 0.0000 -7.3647
#
#
#
# Elastic Compliance Matrix: (Units=1/GPa)
#
#
# Indices 1 2 3 4 5 6 
#
# 1 0.021498 -0.003638 0.002973 0.000000 0.000000 0.000000
# 2 -0.003638 0.011946 -0.005086 0.000000 0.000000 0.000000
# 3 0.002973 -0.005086 0.017814 0.000000 0.000000 0.000000
# 4 0.000000 0.000000 0.000000 0.083284 0.000000 0.000000
# 5 0.000000 0.000000 0.000000 0.000000 0.047378 0.000000
# 6 0.000000 0.000000 0.000000 0.000000 0.000000 -0.135783
#
#
# Mechanical properties :
#
#
# Convention : Reuss Voigt Hill
#
# Bulk Modulus (GPa) = 25.15311 31.30317 28.22814
# Shear Modulus (GPa) = 70.52877 17.00365 43.76621
#
# Velocity S-wave (km/s) = 5.53069 2.71561 4.35678
# Velocity P-wave (km/s) = 7.18984 4.83829 6.12792
#
# Compressibility (1/GPa) = 0.03975652
#
# Stress axis : x y z
#
# Youngs Moduli (GPa) = 46.51511 83.70799 56.13486
#
# Poissons Ratio (x) = 0.30454 -0.16691
# Poissons Ratio (y) = 0.16923 0.28553
# Poissons Ratio (z) = -0.13830 0.42577
#
# Static dielectric constant tensor:
#      x y z
#    x 1.809480 0.000000 0.000000 
#    y 0.000000 1.640490 0.000000 
#    z 0.000000 0.000000 1.907810 
# 
# From -- ./inp_files/16556.got.cif
#   From: 2010.05.17/outbox.cif.g08.bks.cpg/sg42_9_cif.got.tgz:16556.got - 2010.06.03 19:03:34.
