data_PCOD9369303
_publ_section_title
;
Structure prediction by ZEFSAII (Michael W. Deem and Ramdas Pophale) SiO2 
 PCOD9369303
Probable space group: F M M 2
;
_chemical_formula_sum "Si O2"
_cell_formula_units_Z 72
_cell_length_a 23.280552
_cell_length_b 8.485679
_cell_length_c 16.084155
_cell_angle_alpha 90.000000
_cell_angle_beta 90.000000
_cell_angle_gamma 90.000000
_cell_volume 3177.445588
_symmetry_space_group_name_H-M "F M M 2"
_symmetry_group_IT_number 42
_symmetry_cell_setting 'orthorhombic'
loop_
_space_group_symop_operation_xyz
x,y,z
-x,-y,z
-x,y,z
x,-y,z
x,1/2+y,1/2+z
-x,1/2-y,1/2+z
-x,1/2+y,1/2+z
x,1/2-y,1/2+z
1/2+x,y,1/2+z
1/2-x,-y,1/2+z
1/2-x,y,1/2+z
1/2+x,-y,1/2+z
1/2+x,1/2+y,z
1/2-x,1/2-y,z
1/2-x,1/2+y,z
1/2+x,1/2-y,z
loop_
_atom_site_type_symbol
_atom_site_label
_atom_site_fract_x
_atom_site_fract_y
_atom_site_fract_z
Si Si1 0.876615 0.239014 0.335660
Si Si2 0.193224 0.500000 0.118556
Si Si3 0.684475 0.500000 0.436133
Si Si4 0.000000 0.818476 0.060885
Si Si5 0.717281 0.500000 0.800875
Si Si6 0.877346 0.674055 0.645365
Si Si7 0.500000 0.311283 0.383803
O O1 0.857566 0.144768 0.417775
O O2 0.824777 0.358442 0.323076
O O3 0.877496 0.160936 0.244995
O O4 0.943011 0.276207 0.351406
O O5 0.231412 0.500000 0.202453
O O6 0.157974 0.665870 0.124598
O O7 0.215526 0.500000 0.024234
O O8 0.728488 0.500000 0.359775
O O9 0.057757 0.799645 0.114038
O O10 0.000000 0.702939 0.983032
O O11 0.000000 0.000000 0.029604
O O12 0.858260 0.500000 0.611983
O O13 0.500000 0.500000 0.360152
#
# Coordination Sequence:
#
# PCOD9369303 Si02
#       7
#    16   8   8   8   8  16   8
#     4  11  23  42  72  98 137 185 228 285 355 415
#     4  10  24  43  72 102 132 183 240 286 356 414
#     4  12  22  47  73 101 140 180 235 290 350 415
#     4  10  23  35  58  94 137 176 224 285 346 415
#     4  10  26  47  69 103 140 182 239 290 344 425
#     4  10  20  41  65  97 139 183 229 287 348 422
#     4  12  23  39  64 100 137 180 228 284 353 424
#
# _framework density 22.659711000000001
#
# number of rings (size 3 to 8) (size 9 to 14) (size 15 to 20)
#    0.000    1.333    2.222    2.667    3.111    0.889 
#    2.000   14.444    0.000    0.000    0.000    0.000 
#    0.000    0.000    0.000    0.000    0.000    0.000 
#
# Total GULP energy -100363.999175 kJ/mol
# GULP energy per Si atom -5575.777732 kJ/mol
# Density = 2.260814 g / cm^3
# Si number density = 22.659711 Si / 1000 Ang^3
#
#
#
# Elastic Constant Matrix: (Units=GPa)
#
#
# Indices 1 2 3 4 5 6 
#
# 1 111.6535 7.6749 31.3047 0.0000 0.0000 0.0000
# 2 7.6749 69.3855 17.6338 0.0000 0.0000 0.0000
# 3 31.3047 17.6338 127.5426 0.0000 0.0000 0.0000
# 4 0.0000 0.0000 0.0000 16.4812 0.0000 0.0000
# 5 0.0000 0.0000 0.0000 0.0000 38.5218 0.0000
# 6 0.0000 0.0000 0.0000 0.0000 0.0000 1.7278
#
#
#
# Elastic Compliance Matrix: (Units=1/GPa)
#
#
# Indices 1 2 3 4 5 6 
#
# 1 0.009634 -0.000482 -0.002298 0.000000 0.000000 0.000000
# 2 -0.000482 0.014961 -0.001950 0.000000 0.000000 0.000000
# 3 -0.002298 -0.001950 0.008674 0.000000 0.000000 0.000000
# 4 0.000000 0.000000 0.000000 0.060675 0.000000 0.000000
# 5 0.000000 0.000000 0.000000 0.000000 0.025959 0.000000
# 6 0.000000 0.000000 0.000000 0.000000 0.000000 0.578755
#
#
# Mechanical properties :
#
#
# Convention : Reuss Voigt Hill
#
# Bulk Modulus (GPa) = 42.00036 46.86760 44.43398
# Shear Modulus (GPa) = 6.98271 28.14404 17.56337
#
# Velocity S-wave (km/s) = 1.75734 3.52807 2.78707
# Velocity P-wave (km/s) = 4.76373 6.10938 5.47803
#
# Compressibility (1/GPa) = 0.02380932
#
# Stress axis : x y z
#
# Youngs Moduli (GPa) = 103.80262 66.83974 115.28460
#
# Poissons Ratio (x) = 0.03219 0.26492
# Poissons Ratio (y) = 0.04999 0.22484
# Poissons Ratio (z) = 0.23853 0.13036
#
# Static dielectric constant tensor:
#      x y z
#    x 1.807840 0.000000 0.000000 
#    y 0.000000 1.911300 0.000000 
#    z 0.000000 0.000000 1.803960 
# 
# From -- ./inp_files/12097.got.cif
#   From: 2010.05.17/outbox.cif.g08.bks.cpg/sg42_7_cif.got.tgz:12097.got - 2010.06.03 19:03:34.
