data_PCOD9369552
_publ_section_title
;
Structure prediction by ZEFSAII (Michael W. Deem and Ramdas Pophale) SiO2 
 PCOD9369552
Probable space group: F M M 2
;
_chemical_formula_sum "Si O2"
_cell_formula_units_Z 96
_cell_length_a 19.336393
_cell_length_b 21.759758
_cell_length_c 12.409311
_cell_angle_alpha 90.000000
_cell_angle_beta 90.000000
_cell_angle_gamma 90.000000
_cell_volume 5221.282532
_symmetry_space_group_name_H-M "F M M 2"
_symmetry_group_IT_number 42
_symmetry_cell_setting 'orthorhombic'
loop_
_space_group_symop_operation_xyz
x,y,z
-x,-y,z
-x,y,z
x,-y,z
x,1/2+y,1/2+z
-x,1/2-y,1/2+z
-x,1/2+y,1/2+z
x,1/2-y,1/2+z
1/2+x,y,1/2+z
1/2-x,-y,1/2+z
1/2-x,y,1/2+z
1/2+x,-y,1/2+z
1/2+x,1/2+y,z
1/2-x,1/2-y,z
1/2-x,1/2+y,z
1/2+x,1/2-y,z
loop_
_atom_site_type_symbol
_atom_site_label
_atom_site_fract_x
_atom_site_fract_y
_atom_site_fract_z
Si Si1 0.859429 0.072263 0.808100
Si Si2 0.649804 0.644970 0.593980
Si Si3 0.750000 0.250000 0.826876
Si Si4 0.796986 0.850551 0.981802
Si Si5 0.500000 0.644280 0.798083
Si Si6 0.634022 0.713648 0.173370
Si Si7 0.500000 0.858273 0.042482
Si Si8 0.000000 0.717723 0.821906
O O1 0.832719 0.106500 0.701061
O O2 0.933687 0.104099 0.824145
O O3 0.864516 0.000000 0.791546
O O4 0.815939 0.090197 0.912807
O O5 0.718254 0.645933 0.522442
O O6 0.634196 0.716494 0.625388
O O7 0.579629 0.616120 0.541706
O O8 0.700430 0.210658 0.751110
O O9 0.797707 0.207112 0.899946
O O10 0.850031 0.833580 0.077153
O O11 0.500000 0.660153 0.669835
O O12 0.500000 0.710251 0.852273
O O13 0.566679 0.704350 0.246829
O O14 0.500000 0.816471 0.936193
#
# Coordination Sequence:
#
# PCOD9369552 Si02
#       8
#    16  16   8  16   8  16   8   8
#     4  11  24  40  60  86 117 162 205 245 291 358
#     4  11  20  39  56  87 119 157 199 249 295 361
#     4  12  18  36  56  82 118 152 192 234 300 366
#     4  12  22  35  61  85 123 159 194 243 313 358
#     4  10  21  40  57  83 119 154 206 250 294 355
#     4  12  21  34  53  90 119 151 191 242 304 359
#     4  10  22  35  57  86 123 155 196 244 308 356
#     4  12  22  33  58  89 126 149 189 252 310 363
#
# _framework density 18.386286999999999
#
# number of rings (size 3 to 8) (size 9 to 14) (size 15 to 20)
#    0.000    0.667    8.333    1.250    2.333    1.333 
#    0.000    0.000    0.000    0.000    0.000    5.833 
#    0.000    0.000    0.000    0.000    0.000    0.000 
#
# Total GULP energy -133815.382294 kJ/mol
# GULP energy per Si atom -5575.640929 kJ/mol
# Density = 1.834444 g / cm^3
# Si number density = 18.386287 Si / 1000 Ang^3
#
#
#
# Elastic Constant Matrix: (Units=GPa)
#
#
# Indices 1 2 3 4 5 6 
#
# 1 92.1281 26.0187 45.6311 0.0000 0.0000 0.0000
# 2 26.0187 54.1639 35.4466 0.0000 0.0000 0.0000
# 3 45.6311 35.4466 88.5908 0.0000 0.0000 0.0000
# 4 0.0000 0.0000 0.0000 16.2652 0.0000 0.0000
# 5 0.0000 0.0000 0.0000 0.0000 25.0098 0.0000
# 6 0.0000 0.0000 0.0000 0.0000 0.0000 -13.7615
#
#
#
# Elastic Compliance Matrix: (Units=1/GPa)
#
#
# Indices 1 2 3 4 5 6 
#
# 1 0.014899 -0.002892 -0.006517 0.000000 0.000000 0.000000
# 2 -0.002892 0.025573 -0.008743 0.000000 0.000000 0.000000
# 3 -0.006517 -0.008743 0.018143 0.000000 0.000000 0.000000
# 4 0.000000 0.000000 0.000000 0.061481 0.000000 0.000000
# 5 0.000000 0.000000 0.000000 0.000000 0.039984 0.000000
# 6 0.000000 0.000000 0.000000 0.000000 0.000000 -0.072667
#
#
# Mechanical properties :
#
#
# Convention : Reuss Voigt Hill
#
# Bulk Modulus (GPa) = 44.81986 49.89729 47.35857
# Shear Modulus (GPa) = 38.12312 14.02182 26.07247
#
# Velocity S-wave (km/s) = 4.55846 2.76456 3.76977
# Velocity P-wave (km/s) = 7.22051 6.11454 6.69042
#
# Compressibility (1/GPa) = 0.02231154
#
# Stress axis : x y z
#
# Youngs Moduli (GPa) = 67.11806 39.10345 55.11874
#
# Poissons Ratio (x) = 0.11309 0.35921
# Poissons Ratio (y) = 0.19411 0.48188
# Poissons Ratio (z) = 0.43741 0.34186
#
# Static dielectric constant tensor:
#      x y z
#    x 1.690270 0.000000 0.000000 
#    y 0.000000 1.602560 0.000000 
#    z 0.000000 0.000000 1.655100 
# 
# From -- ./inp_files/9583.got.cif
#   From: 2010.05.17/outbox.cif.g08.bks.cpg/sg42_5_cif.got.tgz:9583.got - 2010.06.03 19:03:34.
