data_PCOD9369660
_publ_section_title
;
Structure prediction by ZEFSAII (Michael W. Deem and Ramdas Pophale) SiO2 
 PCOD9369660
Probable space group: F M M 2
;
_chemical_formula_sum "Si O2"
_cell_formula_units_Z 88
_cell_length_a 8.434338
_cell_length_b 13.990339
_cell_length_c 30.774325
_cell_angle_alpha 90.000000
_cell_angle_beta 90.000000
_cell_angle_gamma 90.000000
_cell_volume 3631.347203
_symmetry_space_group_name_H-M "F M M 2"
_symmetry_group_IT_number 42
_symmetry_cell_setting 'orthorhombic'
loop_
_space_group_symop_operation_xyz
x,y,z
-x,-y,z
-x,y,z
x,-y,z
x,1/2+y,1/2+z
-x,1/2-y,1/2+z
-x,1/2+y,1/2+z
x,1/2-y,1/2+z
1/2+x,y,1/2+z
1/2-x,-y,1/2+z
1/2-x,y,1/2+z
1/2+x,-y,1/2+z
1/2+x,1/2+y,z
1/2-x,1/2-y,z
1/2-x,1/2+y,z
1/2+x,1/2-y,z
loop_
_atom_site_type_symbol
_atom_site_label
_atom_site_fract_x
_atom_site_fract_y
_atom_site_fract_z
Si Si1 0.680514 0.116538 0.448570
Si Si2 0.177792 0.883971 0.540612
Si Si3 0.682916 0.386182 0.131312
Si Si4 0.177792 0.383971 0.856528
Si Si5 0.817084 0.386182 0.265828
Si Si6 0.250000 0.250000 0.698570
O O1 0.500000 0.149939 0.448570
O O2 0.764434 0.145247 0.493119
O O3 0.764434 0.145247 0.404021
O O4 0.678576 0.000000 0.448570
O O5 0.288679 0.859764 0.581153
O O6 0.000000 0.849614 0.548789
O O7 0.174256 0.000000 0.539817
O O8 0.500000 0.363652 0.143852
O O9 0.705360 0.500000 0.135706
O O10 0.801664 0.328532 0.162393
O O11 0.174256 0.500000 0.857323
O O12 0.288679 0.359764 0.815987
O O13 0.000000 0.349614 0.848351
O O14 0.794640 0.500000 0.261434
O O15 0.698336 0.328532 0.234748
O O16 0.000000 0.363652 0.253288
#
# Coordination Sequence:
#
# PCOD9369660 Si02
#       6
#    16  16  16  16  16   8
#     4   9  15  25  47  80 117 156 196 237 286 347
#     4   9  17  30  51  81 117 155 196 242 291 347
#     4  10  22  40  61  87 120 157 199 248 301 357
#     4   9  17  30  51  81 117 155 196 242 291 347
#     4  10  22  40  61  87 120 157 199 248 301 357
#     4  12  24  40  64  90 114 152 202 254 306 360
#
# _framework density 24.233431
#
# number of rings (size 3 to 8) (size 9 to 14) (size 15 to 20)
#    0.000    2.364    0.000    2.727    0.000    9.455 
#    0.000    3.636    0.000    1.091    0.000    0.000 
#    0.000    0.000    0.000    0.000    0.000    2.545 
#
# Total GULP energy -122733.713407 kJ/mol
# GULP energy per Si atom -5578.805155 kJ/mol
# Density = 2.417827 g / cm^3
# Si number density = 24.233431 Si / 1000 Ang^3
#
#
#
# Elastic Constant Matrix: (Units=GPa)
#
#
# Indices 1 2 3 4 5 6 
#
# 1 94.0057 26.6945 38.2532 0.0000 0.0000 0.0000
# 2 26.6945 122.9721 30.5238 0.0000 0.0000 0.0000
# 3 38.2532 30.5238 194.3486 0.0000 0.0000 0.0000
# 4 0.0000 0.0000 0.0000 1154.0733 0.0000 0.0000
# 5 0.0000 0.0000 0.0000 0.0000 -51.4936 0.0000
# 6 0.0000 0.0000 0.0000 0.0000 0.0000 3.1763
#
#
#
# Elastic Compliance Matrix: (Units=1/GPa)
#
#
# Indices 1 2 3 4 5 6 
#
# 1 0.012069 -0.002113 -0.002044 0.000000 0.000000 0.000000
# 2 -0.002113 0.008832 -0.000971 0.000000 0.000000 0.000000
# 3 -0.002044 -0.000971 0.005700 0.000000 0.000000 0.000000
# 4 0.000000 0.000000 0.000000 0.000866 0.000000 0.000000
# 5 0.000000 0.000000 0.000000 0.000000 -0.019420 0.000000
# 6 0.000000 0.000000 0.000000 0.000000 0.000000 0.314834
#
#
# Mechanical properties :
#
#
# Convention : Reuss Voigt Hill
#
# Bulk Modulus (GPa) = 61.17801 66.91881 64.04841
# Shear Modulus (GPa) = 14.76731 242.20820 128.48775
#
# Velocity S-wave (km/s) = 2.47124 10.00824 7.28944
# Velocity P-wave (km/s) = 5.78297 12.69754 9.86586
#
# Compressibility (1/GPa) = 0.01634574
#
# Stress axis : x y z
#
# Youngs Moduli (GPa) = 82.85538 113.22957 175.43246
#
# Poissons Ratio (x) = 0.23922 0.35854
# Poissons Ratio (y) = 0.17505 0.17039
# Poissons Ratio (z) = 0.16934 0.10997
#
# Static dielectric constant tensor:
#      x y z
#    x 1.991510 0.000000 0.000000 
#    y 0.000000 1.952900 0.000000 
#    z 0.000000 0.000000 1.873530 
# 
# From -- ./inp_files/33709.got.cif
#   From: 2010.05.17/outbox.cif.g08.bks.cpg/sg42_17_cif.got.tgz:33709.got - 2010.06.03 19:03:34.
