data_PCOD9369360
_publ_section_title
;
Structure prediction by ZEFSAII (Michael W. Deem and Ramdas Pophale) SiO2 
 PCOD9369360
Probable space group: F M M 2
;
_chemical_formula_sum "Si O2"
_cell_formula_units_Z 112
_cell_length_a 18.009405
_cell_length_b 20.989910
_cell_length_c 14.002665
_cell_angle_alpha 90.000000
_cell_angle_beta 90.000000
_cell_angle_gamma 90.000000
_cell_volume 5293.228474
_symmetry_space_group_name_H-M "F M M 2"
_symmetry_group_IT_number 42
_symmetry_cell_setting 'orthorhombic'
loop_
_space_group_symop_operation_xyz
x,y,z
-x,-y,z
-x,y,z
x,-y,z
x,1/2+y,1/2+z
-x,1/2-y,1/2+z
-x,1/2+y,1/2+z
x,1/2-y,1/2+z
1/2+x,y,1/2+z
1/2-x,-y,1/2+z
1/2-x,y,1/2+z
1/2+x,-y,1/2+z
1/2+x,1/2+y,z
1/2-x,1/2-y,z
1/2-x,1/2+y,z
1/2+x,1/2-y,z
loop_
_atom_site_type_symbol
_atom_site_label
_atom_site_fract_x
_atom_site_fract_y
_atom_site_fract_z
Si Si1 0.583673 0.425890 0.392110
Si Si2 0.913057 0.666973 0.574658
Si Si3 0.872933 0.070646 0.618534
Si Si4 0.788163 0.427686 0.559176
Si Si5 0.783267 0.153794 0.387168
Si Si6 0.417590 0.789958 0.178036
Si Si7 0.862055 0.217544 0.877953
O O1 0.500000 0.400918 0.375788
O O2 0.585269 0.500000 0.365460
O O3 0.601261 0.423666 0.506827
O O4 0.651926 0.389301 0.343121
O O5 0.860260 0.607667 0.598017
O O6 0.879717 0.730661 0.624513
O O7 0.902911 0.680106 0.461641
O O8 0.000000 0.656491 0.597984
O O9 0.783678 0.069303 0.626455
O O10 0.895897 0.136498 0.666505
O O11 0.900157 0.000000 0.650798
O O12 0.804731 0.500000 0.528600
O O13 0.755105 0.386016 0.471870
O O14 0.828972 0.216535 0.419047
O O15 0.710549 0.180861 0.335116
O O16 0.500000 0.787673 0.136625
O O17 0.414253 0.771791 0.288618
#
# Coordination Sequence:
#
# PCOD9369360 Si02
#       7
#    16  16  16  16  16  16  16
#     4   9  16  28  52  83 110 141 182 228 282 338
#     4  10  21  37  58  83 113 152 191 231 286 344
#     4   9  18  33  54  82 115 149 189 241 294 341
#     4   9  18  34  58  86 113 147 194 240 284 342
#     4   9  18  33  52  76 108 143 179 227 279 328
#     4  11  23  37  57  86 117 150 190 236 288 349
#     4  10  21  36  55  82 112 144 187 235 279 334
#
# _framework density 21.159109000000001
#
# number of rings (size 3 to 8) (size 9 to 14) (size 15 to 20)
#    0.000    2.429    0.000    3.857    0.000    7.429 
#    0.000    3.571    0.000    5.143    0.000    0.000 
#    0.000    0.000    0.000    0.000    0.000    0.000 
#
# Total GULP energy -155870.160076 kJ/mol
# GULP energy per Si atom -5566.791431 kJ/mol
# Density = 2.111095 g / cm^3
# Si number density = 21.159109 Si / 1000 Ang^3
#
#
#
# Elastic Constant Matrix: (Units=GPa)
#
#
# Indices 1 2 3 4 5 6 
#
# 1 99.8499 49.2259 -12.4003 0.0000 0.0000 0.0000
# 2 49.2259 138.4755 9.7397 0.0000 0.0000 0.0000
# 3 -12.4003 9.7397 27.3185 0.0000 0.0000 0.0000
# 4 0.0000 0.0000 0.0000 4.0602 0.0000 0.0000
# 5 0.0000 0.0000 0.0000 0.0000 11.7778 0.0000
# 6 0.0000 0.0000 0.0000 0.0000 0.0000 30.1691
#
#
#
# Elastic Compliance Matrix: (Units=1/GPa)
#
#
# Indices 1 2 3 4 5 6 
#
# 1 0.013717 -0.005451 0.008170 0.000000 0.000000 0.000000
# 2 -0.005451 0.009573 -0.005887 0.000000 0.000000 0.000000
# 3 0.008170 -0.005887 0.042412 0.000000 0.000000 0.000000
# 4 0.000000 0.000000 0.000000 0.246291 0.000000 0.000000
# 5 0.000000 0.000000 0.000000 0.000000 0.084905 0.000000
# 6 0.000000 0.000000 0.000000 0.000000 0.000000 0.033147
#
#
# Mechanical properties :
#
#
# Convention : Reuss Voigt Hill
#
# Bulk Modulus (GPa) = 16.84472 39.86381 28.35427
# Shear Modulus (GPa) = 10.96082 23.80667 17.38375
#
# Velocity S-wave (km/s) = 2.27847 3.35793 2.86942
# Velocity P-wave (km/s) = 3.86007 5.82367 4.94041
#
# Compressibility (1/GPa) = 0.05936579
#
# Stress axis : x y z
#
# Youngs Moduli (GPa) = 72.90320 104.45806 23.57796
#
# Poissons Ratio (x) = 0.56937 -0.19262
# Poissons Ratio (y) = 0.39738 0.13881
# Poissons Ratio (z) = -0.59559 0.61497
#
# Static dielectric constant tensor:
#      x y z
#    x 1.811070 0.000000 0.000000 
#    y 0.000000 1.808930 0.000000 
#    z 0.000000 0.000000 1.754510 
# 
# From -- ./inp_files/21050.got.cif
#   From: 2010.05.17/outbox.cif.g08.bks.cpg/sg42_11_cif.got.tgz:21050.got - 2010.06.03 19:03:34.
