data_PCOD9369735
_publ_section_title
;
Structure prediction by ZEFSAII (Michael W. Deem and Ramdas Pophale) SiO2 
 PCOD9369735
Probable space group: F M M 2
;
_chemical_formula_sum "Si O2"
_cell_formula_units_Z 112
_cell_length_a 28.469246
_cell_length_b 17.687885
_cell_length_c 11.138834
_cell_angle_alpha 90.000000
_cell_angle_beta 90.000000
_cell_angle_gamma 90.000000
_cell_volume 5609.079595
_symmetry_space_group_name_H-M "F M M 2"
_symmetry_group_IT_number 42
_symmetry_cell_setting 'orthorhombic'
loop_
_space_group_symop_operation_xyz
x,y,z
-x,-y,z
-x,y,z
x,-y,z
x,1/2+y,1/2+z
-x,1/2-y,1/2+z
-x,1/2+y,1/2+z
x,1/2-y,1/2+z
1/2+x,y,1/2+z
1/2-x,-y,1/2+z
1/2-x,y,1/2+z
1/2+x,-y,1/2+z
1/2+x,1/2+y,z
1/2-x,1/2-y,z
1/2-x,1/2+y,z
1/2+x,1/2-y,z
loop_
_atom_site_type_symbol
_atom_site_label
_atom_site_fract_x
_atom_site_fract_y
_atom_site_fract_z
Si Si1 0.443595 0.909367 0.165600
Si Si2 0.949880 0.915153 0.023022
Si Si3 0.881766 0.836335 0.457490
Si Si4 0.283957 0.590505 0.802878
Si Si5 0.449880 0.915153 0.808178
Si Si6 0.716042 0.090505 0.028323
Si Si7 0.881766 0.336335 0.373710
O O1 0.500000 0.904949 0.165601
O O2 0.420703 0.864665 0.053586
O O3 0.420702 0.864665 0.277613
O O4 0.430924 0.000000 0.165600
O O5 0.951980 0.919084 0.165600
O O6 0.000000 0.878604 0.984220
O O7 0.950087 0.000000 0.972502
O O8 0.900938 0.878859 0.990046
O O9 0.900938 0.878860 0.341155
O O10 0.832165 0.864819 0.506243
O O11 0.880861 0.750000 0.415600
O O12 0.292963 0.500000 0.807847
O O13 0.266756 0.606583 0.665600
O O14 0.332164 0.635180 0.824960
O O15 0.249999 0.608465 0.915600
O O16 0.500000 0.878604 0.846980
O O17 0.450088 0.000000 0.858698
O O18 0.707036 0.000000 0.023355
#
# Coordination Sequence:
#
# PCOD9369735 Si02
#       7
#    16  16  16  16  16  16  16
#     4  11  24  44  70  95 129 187 243 280 331 408
#     4   9  19  36  58  85 121 167 216 266 321 387
#     4  12  25  39  62  97 134 172 215 278 341 406
#     4  10  22  44  72  99 129 174 232 289 346 418
#     4   9  19  36  58  85 121 167 216 266 321 387
#     4  10  22  44  72  99 129 174 232 289 346 418
#     4  12  25  39  62  97 134 172 215 278 341 406
#
# _framework density 19.967625000000002
#
# number of rings (size 3 to 8) (size 9 to 14) (size 15 to 20)
#    0.000    1.571    1.429    4.286    2.000    6.286 
#    0.000    4.286    0.000    0.000    0.000    0.000 
#    0.000    0.000    0.000    0.000    0.000    0.000 
#
# Total GULP energy -155971.917814 kJ/mol
# GULP energy per Si atom -5570.425636 kJ/mol
# Density = 1.992218 g / cm^3
# Si number density = 19.967625 Si / 1000 Ang^3
#
#
#
# Elastic Constant Matrix: (Units=GPa)
#
#
# Indices 1 2 3 4 5 6 
#
# 1 96.4574 51.0324 60.1293 0.0000 0.0000 0.0000
# 2 51.0324 69.9142 45.8839 0.0000 0.0000 0.0000
# 3 60.1293 45.8839 119.6105 0.0000 0.0000 0.0000
# 4 0.0000 0.0000 0.0000 15.5828 0.0000 0.0000
# 5 0.0000 0.0000 0.0000 0.0000 34.3405 0.0000
# 6 0.0000 0.0000 0.0000 0.0000 0.0000 18.6412
#
#
#
# Elastic Compliance Matrix: (Units=1/GPa)
#
#
# Indices 1 2 3 4 5 6 
#
# 1 0.019501 -0.010425 -0.005804 0.000000 0.000000 0.000000
# 2 -0.010425 0.024689 -0.004230 0.000000 0.000000 0.000000
# 3 -0.005804 -0.004230 0.012901 0.000000 0.000000 0.000000
# 4 0.000000 0.000000 0.000000 0.064173 0.000000 0.000000
# 5 0.000000 0.000000 0.000000 0.000000 0.029120 0.000000
# 6 0.000000 0.000000 0.000000 0.000000 0.000000 0.053645
#
#
# Mechanical properties :
#
#
# Convention : Reuss Voigt Hill
#
# Bulk Modulus (GPa) = 61.83470 66.67483 64.25476
# Shear Modulus (GPa) = 19.97291 22.30865 21.14078
#
# Velocity S-wave (km/s) = 3.16613 3.34614 3.25738
# Velocity P-wave (km/s) = 6.66337 6.95650 6.81151
#
# Compressibility (1/GPa) = 0.01617215
#
# Stress axis : x y z
#
# Youngs Moduli (GPa) = 51.27922 40.50369 77.51325
#
# Poissons Ratio (x) = 0.42226 0.44990
# Poissons Ratio (y) = 0.53460 0.32789
# Poissons Ratio (z) = 0.29763 0.17134
#
# Static dielectric constant tensor:
#      x y z
#    x 1.689730 0.000000 0.000000 
#    y 0.000000 1.642700 0.000000 
#    z 0.000000 0.000000 1.855260 
# 
# From -- ./inp_files/11109.got.cif
#   From: 2010.05.17/outbox.cif.g08.bks.cpg/sg42_6_cif.got.tgz:11109.got - 2010.06.03 19:03:34.
