data_PCOD9369070
_publ_section_title
;
Structure prediction by ZEFSAII (Michael W. Deem and Ramdas Pophale) SiO2 
 PCOD9369070
Probable space group: F M M 2
;
_chemical_formula_sum "Si O2"
_cell_formula_units_Z 112
_cell_length_a 10.588357
_cell_length_b 37.283811
_cell_length_c 14.665320
_cell_angle_alpha 90.000000
_cell_angle_beta 90.000000
_cell_angle_gamma 90.000000
_cell_volume 5789.491455
_symmetry_space_group_name_H-M "F M M 2"
_symmetry_group_IT_number 42
_symmetry_cell_setting 'orthorhombic'
loop_
_space_group_symop_operation_xyz
x,y,z
-x,-y,z
-x,y,z
x,-y,z
x,1/2+y,1/2+z
-x,1/2-y,1/2+z
-x,1/2+y,1/2+z
x,1/2-y,1/2+z
1/2+x,y,1/2+z
1/2-x,-y,1/2+z
1/2-x,y,1/2+z
1/2+x,-y,1/2+z
1/2+x,1/2+y,z
1/2-x,1/2-y,z
1/2-x,1/2+y,z
1/2+x,1/2-y,z
loop_
_atom_site_type_symbol
_atom_site_label
_atom_site_fract_x
_atom_site_fract_y
_atom_site_fract_z
Si Si1 0.850398 0.070917 0.431230
Si Si2 0.365760 0.765294 0.215058
Si Si3 0.857583 0.725280 0.908975
Si Si4 0.849807 0.849365 0.483421
Si Si5 0.355328 0.459131 0.060766
Si Si6 0.354101 0.593504 0.231683
Si Si7 0.853031 0.847097 0.697999
O O1 0.804775 0.111429 0.455502
O O2 0.753488 0.046221 0.485755
O O3 0.842239 0.069289 0.322114
O O4 0.000000 0.066283 0.456571
O O5 0.500000 0.762803 0.167656
O O6 0.250000 0.750000 0.159177
O O7 0.369282 0.740089 0.305120
O O8 0.347285 0.807034 0.238608
O O9 0.750000 0.750000 0.951053
O O10 0.000000 0.728067 0.947003
O O11 0.812791 0.684474 0.922430
O O12 0.825326 0.842610 0.589902
O O13 0.000000 0.851918 0.472007
O O14 0.500000 0.453718 0.026009
O O15 0.348854 0.500000 0.095485
O O16 0.335521 0.430719 0.142146
O O17 0.500000 0.607444 0.231731
O O18 0.250467 0.625045 0.233985
O O19 0.000000 0.859542 0.707431
#
# Coordination Sequence:
#
# PCOD9369070 Si02
#       7
#    16  16  16  16  16  16  16
#     4  10  21  38  63  94 121 160 211 247 292 361
#     4   9  19  32  49  73 103 144 191 240 297 353
#     4   9  18  32  48  70 103 142 188 238 295 350
#     4   9  18  34  56  78 110 153 196 248 301 351
#     4  10  22  42  64  91 131 164 190 243 310 362
#     4  10  22  38  62  95 124 158 203 249 301 359
#     4  10  20  36  57  82 115 156 203 254 306 361
#
# _framework density 19.345393999999999
#
# number of rings (size 3 to 8) (size 9 to 14) (size 15 to 20)
#    0.000    2.429    1.429    0.000    4.000    2.571 
#    0.000    2.857    0.000    0.000    0.000    0.000 
#    0.000    0.000    0.000    0.000    0.000    0.000 
#
# Total GULP energy -155917.264382 kJ/mol
# GULP energy per Si atom -5568.473728 kJ/mol
# Density = 1.930136 g / cm^3
# Si number density = 19.345394 Si / 1000 Ang^3
#
#
#
# Elastic Constant Matrix: (Units=GPa)
#
#
# Indices 1 2 3 4 5 6 
#
# 1 135.7656 33.7184 24.5140 0.0000 0.0000 0.0000
# 2 33.7184 60.5510 9.6103 0.0000 0.0000 0.0000
# 3 24.5140 9.6103 67.6094 0.0000 0.0000 0.0000
# 4 0.0000 0.0000 0.0000 20.7404 0.0000 0.0000
# 5 0.0000 0.0000 0.0000 0.0000 14.8425 0.0000
# 6 0.0000 0.0000 0.0000 0.0000 0.0000 35.0131
#
#
#
# Elastic Compliance Matrix: (Units=1/GPa)
#
#
# Indices 1 2 3 4 5 6 
#
# 1 0.008974 -0.004584 -0.002602 0.000000 0.000000 0.000000
# 2 -0.004584 0.019238 -0.001072 0.000000 0.000000 0.000000
# 3 -0.002602 -0.001072 0.015887 0.000000 0.000000 0.000000
# 4 0.000000 0.000000 0.000000 0.048215 0.000000 0.000000
# 5 0.000000 0.000000 0.000000 0.000000 0.067374 0.000000
# 6 0.000000 0.000000 0.000000 0.000000 0.000000 0.028561
#
#
# Mechanical properties :
#
#
# Convention : Reuss Voigt Hill
#
# Bulk Modulus (GPa) = 36.25672 44.40127 40.32899
# Shear Modulus (GPa) = 23.36882 27.19142 25.28012
#
# Velocity S-wave (km/s) = 3.47937 3.75317 3.61886
# Velocity P-wave (km/s) = 5.90964 6.46401 6.19303
#
# Compressibility (1/GPa) = 0.02758110
#
# Stress axis : x y z
#
# Youngs Moduli (GPa) = 111.43263 51.98044 62.94536
#
# Poissons Ratio (x) = 0.23829 0.16380
# Poissons Ratio (y) = 0.51084 0.06750
# Poissons Ratio (z) = 0.28997 0.05574
#
# Static dielectric constant tensor:
#      x y z
#    x 1.747930 0.000000 0.000000 
#    y 0.000000 1.683270 0.000000 
#    z 0.000000 0.000000 1.699690 
# 
# From -- ./inp_files/13239.got.cif
#   From: 2010.05.17/outbox.cif.g08.bks.cpg/sg42_7_cif.got.tgz:13239.got - 2010.06.03 19:03:34.
