data_PCOD9369619
_publ_section_title
;
Structure prediction by ZEFSAII (Michael W. Deem and Ramdas Pophale) SiO2 
 PCOD9369619
Probable space group: F M M 2
;
_chemical_formula_sum "Si O2"
_cell_formula_units_Z 128
_cell_length_a 16.127020
_cell_length_b 16.531072
_cell_length_c 25.311547
_cell_angle_alpha 90.000000
_cell_angle_beta 90.000000
_cell_angle_gamma 90.000000
_cell_volume 6747.980693
_symmetry_space_group_name_H-M "F M M 2"
_symmetry_group_IT_number 42
_symmetry_cell_setting 'orthorhombic'
loop_
_space_group_symop_operation_xyz
x,y,z
-x,-y,z
-x,y,z
x,-y,z
x,1/2+y,1/2+z
-x,1/2-y,1/2+z
-x,1/2+y,1/2+z
x,1/2-y,1/2+z
1/2+x,y,1/2+z
1/2-x,-y,1/2+z
1/2-x,y,1/2+z
1/2+x,-y,1/2+z
1/2+x,1/2+y,z
1/2-x,1/2-y,z
1/2-x,1/2+y,z
1/2+x,1/2-y,z
loop_
_atom_site_type_symbol
_atom_site_label
_atom_site_fract_x
_atom_site_fract_y
_atom_site_fract_z
Si Si1 0.334243 0.297936 0.133840
Si Si2 0.095875 0.372099 0.355534
Si Si3 0.596760 0.325328 0.238474
Si Si4 0.748936 0.406549 0.427655
Si Si5 0.748936 0.093451 0.549293
Si Si6 0.334243 0.797936 0.843109
Si Si7 0.404125 0.372099 0.621415
Si Si8 0.098130 0.629408 0.238474
O O1 0.250000 0.250000 0.148243
O O2 0.361762 0.350615 0.183837
O O3 0.311925 0.351145 0.083544
O O4 0.399108 0.226166 0.122280
O O5 0.160801 0.399851 0.399627
O O6 0.100892 0.273834 0.354668
O O7 0.126572 0.398849 0.296482
O O8 0.000000 0.396633 0.362903
O O9 0.500000 0.343632 0.238474
O O10 0.638238 0.350615 0.293112
O O11 0.607458 0.226981 0.238474
O O12 0.723046 0.500000 0.426385
O O13 0.750000 0.379808 0.488474
O O14 0.688075 0.351145 0.393405
O O15 0.839199 0.100149 0.577321
O O16 0.723046 0.000000 0.550564
O O17 0.250000 0.750000 0.828706
O O18 0.500000 0.396633 0.614045
O O19 0.373428 0.398849 0.680466
O O20 0.000000 0.612615 0.238474
#
# Coordination Sequence:
#
# PCOD9369619 Si02
#       8
#    16  16  16  16  16  16  16  16
#     4   9  17  30  52  78 103 131 165 206 252 300
#     4   9  17  32  57  83 103 125 161 210 256 299
#     4   9  15  27  49  76 106 133 160 199 246 299
#     4  10  22  38  51  67 100 142 176 207 249 301
#     4  10  22  38  51  67 100 142 176 207 249 301
#     4   9  17  30  52  78 103 131 165 206 252 300
#     4   9  17  32  57  83 103 125 161 210 256 299
#     4   7  12  25  47  78 106 122 144 191 256 306
#
# _framework density 18.968637999999999
#
# number of rings (size 3 to 8) (size 9 to 14) (size 15 to 20)
#    0.000    3.000    0.000    2.625    0.000    8.000 
#    0.000    6.250    0.000    9.000    0.000    0.000 
#    0.000    0.000    0.000    0.000    0.000    0.000 
#
# Total GULP energy -178267.327843 kJ/mol
# GULP energy per Si atom -5570.853995 kJ/mol
# Density = 1.892546 g / cm^3
# Si number density = 18.968638 Si / 1000 Ang^3
#
#
#
# Elastic Constant Matrix: (Units=GPa)
#
#
# Indices 1 2 3 4 5 6 
#
# 1 44.8258 10.8627 49.0349 0.0000 0.0000 0.0000
# 2 10.8627 39.4097 36.6647 0.0000 0.0000 0.0000
# 3 49.0349 36.6647 201.1638 0.0000 0.0000 0.0000
# 4 0.0000 0.0000 0.0000 84.8256 0.0000 0.0000
# 5 0.0000 0.0000 0.0000 0.0000 22.1515 0.0000
# 6 0.0000 0.0000 0.0000 0.0000 0.0000 -6.5045
#
#
#
# Elastic Compliance Matrix: (Units=1/GPa)
#
#
# Indices 1 2 3 4 5 6 
#
# 1 0.030525 -0.001796 -0.007113 0.000000 0.000000 0.000000
# 2 -0.001796 0.030661 -0.005151 0.000000 0.000000 0.000000
# 3 -0.007113 -0.005151 0.007644 0.000000 0.000000 0.000000
# 4 0.000000 0.000000 0.000000 0.011789 0.000000 0.000000
# 5 0.000000 0.000000 0.000000 0.000000 0.045144 0.000000
# 6 0.000000 0.000000 0.000000 0.000000 0.000000 -0.153739
#
#
# Mechanical properties :
#
#
# Convention : Reuss Voigt Hill
#
# Bulk Modulus (GPa) = 24.56375 53.16932 38.86654
# Shear Modulus (GPa) = 364.60580 32.68365 198.64472
#
# Velocity S-wave (km/s) = 13.87921 4.15545 10.24451
# Velocity P-wave (km/s) = 16.42623 7.14945 12.66759
#
# Compressibility (1/GPa) = 0.04071040
#
# Stress axis : x y z
#
# Youngs Moduli (GPa) = 32.75993 32.61433 130.82544
#
# Poissons Ratio (x) = 0.05857 0.93061
# Poissons Ratio (y) = 0.05883 0.67384
# Poissons Ratio (z) = 0.23303 0.16799
#
# Static dielectric constant tensor:
#      x y z
#    x 1.660440 0.000000 0.000000 
#    y 0.000000 1.685390 0.000000 
#    z 0.000000 0.000000 1.694980 
# 
# From -- ./inp_files/30011.got.cif
#   From: 2010.05.17/outbox.cif.g08.bks.cpg/sg42_16_cif.got.tgz:30011.got - 2010.06.03 19:03:34.
