data_PCOD9369779
_publ_section_title
;
Structure prediction by ZEFSAII (Michael W. Deem and Ramdas Pophale) SiO2 
 PCOD9369779
Probable space group: F M M 2
;
_chemical_formula_sum "Si O2"
_cell_formula_units_Z 72
_cell_length_a 26.125642
_cell_length_b 13.561725
_cell_length_c 9.149276
_cell_angle_alpha 90.000000
_cell_angle_beta 90.000000
_cell_angle_gamma 90.000000
_cell_volume 3241.668747
_symmetry_space_group_name_H-M "F M M 2"
_symmetry_group_IT_number 42
_symmetry_cell_setting 'orthorhombic'
loop_
_space_group_symop_operation_xyz
x,y,z
-x,-y,z
-x,y,z
x,-y,z
x,1/2+y,1/2+z
-x,1/2-y,1/2+z
-x,1/2+y,1/2+z
x,1/2-y,1/2+z
1/2+x,y,1/2+z
1/2-x,-y,1/2+z
1/2-x,y,1/2+z
1/2+x,-y,1/2+z
1/2+x,1/2+y,z
1/2-x,1/2-y,z
1/2-x,1/2+y,z
1/2+x,1/2-y,z
loop_
_atom_site_type_symbol
_atom_site_label
_atom_site_fract_x
_atom_site_fract_y
_atom_site_fract_z
Si Si1 0.574043 0.616703 0.798340
Si Si2 0.330843 0.391049 0.977590
Si Si3 0.845477 0.115126 0.294950
Si Si4 0.555941 0.193080 0.971135
Si Si5 0.250000 0.250000 0.877512
O O1 0.559268 0.500000 0.805660
O O2 0.634636 0.618422 0.833738
O O3 0.554104 0.692050 0.922293
O O4 0.561330 0.664566 0.641950
O O5 0.309312 0.500000 0.982375
O O6 0.285021 0.317782 0.975084
O O7 0.362680 0.377834 0.125739
O O8 0.892691 0.151973 0.393722
O O9 0.793186 0.178963 0.304982
O O10 0.835259 0.000000 0.328714
O O11 0.500000 0.151416 0.923981
#
# Coordination Sequence:
#
# PCOD9369779 Si02
#       5
#    16  16  16  16   8
#     4  11  25  47  75 107 147 191 245 306 367 436
#     4  10  23  43  68 102 144 187 234 299 374 438
#     4  11  25  44  70 106 146 191 246 305 368 442
#     4  12  26  46  75 108 146 194 246 303 367 438
#     4  12  22  40  74 104 142 190 238 306 372 438
#
# _framework density 22.210781000000001
#
# number of rings (size 3 to 8) (size 9 to 14) (size 15 to 20)
#    0.000    0.889    2.222    4.000    0.000    4.889 
#    0.000    4.444    0.000   13.333    0.000    0.000 
#    0.000    0.000    0.000    0.000    0.000    0.000 
#
# Total GULP energy -100325.333547 kJ/mol
# GULP energy per Si atom -5573.629642 kJ/mol
# Density = 2.216023 g / cm^3
# Si number density = 22.210781 Si / 1000 Ang^3
#
#
#
# Elastic Constant Matrix: (Units=GPa)
#
#
# Indices 1 2 3 4 5 6 
#
# 1 138.0153 79.3787 45.4953 0.0000 0.0000 0.0000
# 2 79.3787 168.8446 79.7693 0.0000 0.0000 0.0000
# 3 45.4953 79.7693 104.2748 0.0000 0.0000 0.0000
# 4 0.0000 0.0000 0.0000 26.8724 0.0000 0.0000
# 5 0.0000 0.0000 0.0000 0.0000 -9.7047 0.0000
# 6 0.0000 0.0000 0.0000 0.0000 0.0000 -6.9350
#
#
#
# Elastic Compliance Matrix: (Units=1/GPa)
#
#
# Indices 1 2 3 4 5 6 
#
# 1 0.010026 -0.004145 -0.001204 0.000000 0.000000 0.000000
# 2 -0.004145 0.010988 -0.006597 0.000000 0.000000 0.000000
# 3 -0.001204 -0.006597 0.015162 0.000000 0.000000 0.000000
# 4 0.000000 0.000000 0.000000 0.037213 0.000000 0.000000
# 5 0.000000 0.000000 0.000000 0.000000 -0.103043 0.000000
# 6 0.000000 0.000000 0.000000 0.000000 0.000000 -0.144196
#
#
# Mechanical properties :
#
#
# Convention : Reuss Voigt Hill
#
# Bulk Modulus (GPa) = 81.40266 91.15793 86.28030
# Shear Modulus (GPa) = -34.27882 15.81264 -9.23309
#
# Velocity S-wave (km/s) = -3.93280 2.67111 -2.04109
# Velocity P-wave (km/s) = 4.01336 7.11649 5.77717
#
# Compressibility (1/GPa) = 0.01228461
#
# Stress axis : x y z
#
# Youngs Moduli (GPa) = 99.73758 91.00682 65.95384
#
# Poissons Ratio (x) = 0.37723 0.07938
# Poissons Ratio (y) = 0.41342 0.43512
# Poissons Ratio (z) = 0.12004 0.60041
#
# Static dielectric constant tensor:
#      x y z
#    x 1.858850 0.000000 0.000000 
#    y 0.000000 1.877050 0.000000 
#    z 0.000000 0.000000 1.827220 
# 
# From -- ./inp_files/2817.got.cif
#   From: 2010.05.17/outbox.cif.g08.bks.cpg/sg42_2_cif.got.tgz:2817.got - 2010.06.03 19:03:34.
