data_PCOD9369175
_publ_section_title
;
Structure prediction by ZEFSAII (Michael W. Deem and Ramdas Pophale) SiO2 
 PCOD9369175
Probable space group: F M M 2
;
_chemical_formula_sum "Si O2"
_cell_formula_units_Z 80
_cell_length_a 7.574293
_cell_length_b 29.323698
_cell_length_c 16.282513
_cell_angle_alpha 90.000000
_cell_angle_beta 90.000000
_cell_angle_gamma 90.000000
_cell_volume 3616.448400
_symmetry_space_group_name_H-M "F M M 2"
_symmetry_group_IT_number 42
_symmetry_cell_setting 'orthorhombic'
loop_
_space_group_symop_operation_xyz
x,y,z
-x,-y,z
-x,y,z
x,-y,z
x,1/2+y,1/2+z
-x,1/2-y,1/2+z
-x,1/2+y,1/2+z
x,1/2-y,1/2+z
1/2+x,y,1/2+z
1/2-x,-y,1/2+z
1/2-x,y,1/2+z
1/2+x,-y,1/2+z
1/2+x,1/2+y,z
1/2-x,1/2-y,z
1/2-x,1/2+y,z
1/2+x,1/2-y,z
loop_
_atom_site_type_symbol
_atom_site_label
_atom_site_fract_x
_atom_site_fract_y
_atom_site_fract_z
Si Si1 0.213385 0.449346 0.375000
Si Si2 0.208248 0.142441 0.144924
Si Si3 0.715184 0.449845 0.067490
Si Si4 0.790131 0.196764 0.482804
Si Si5 0.704068 0.351075 0.319993
O O1 0.268780 0.500000 0.346899
O O2 0.263339 0.444938 0.471351
O O3 0.287154 0.405833 0.328272
O O4 0.000000 0.447456 0.370786
O O5 0.282007 0.093207 0.118128
O O6 0.222935 0.175547 0.067573
O O7 0.282942 0.160535 0.231059
O O8 0.000000 0.135349 0.160016
O O9 0.500000 0.449287 0.069112
O O10 0.772366 0.500000 0.096129
O O11 0.750000 0.250000 0.476772
O O12 0.716465 0.170670 0.402464
O O13 0.000000 0.189958 0.485384
O O14 0.500000 0.335850 0.320407
#
# Coordination Sequence:
#
# PCOD9369175 Si02
#       5
#    16  16  16  16  16
#     4   9  17  31  54  83 115 155 198 233 272 328
#     4  10  20  37  61  87 115 150 190 232 278 335
#     4   8  14  27  51  81 111 148 191 227 264 320
#     4  11  24  42  61  83 112 145 184 235 291 345
#     4  10  22  37  57  88 120 147 185 234 286 338
#
# _framework density 22.12115
#
# number of rings (size 3 to 8) (size 9 to 14) (size 15 to 20)
#    0.000    2.400    2.000    1.800    0.000    3.600 
#    0.000    4.000    0.000    0.600    0.000    0.000 
#    0.000    0.000    0.000    0.000    0.000    0.000 
#
# Total GULP energy -111668.019045 kJ/mol
# GULP energy per Si atom -5583.400952 kJ/mol
# Density = 2.207080 g / cm^3
# Si number density = 22.121150 Si / 1000 Ang^3
#
#
#
# Elastic Constant Matrix: (Units=GPa)
#
#
# Indices 1 2 3 4 5 6 
#
# 1 49.6945 -17.4847 0.3962 0.0000 0.0000 0.0000
# 2 -17.4847 103.5794 65.4391 0.0000 0.0000 0.0000
# 3 0.3962 65.4391 166.4223 0.0000 0.0000 0.0000
# 4 0.0000 0.0000 0.0000 -2.4763 0.0000 0.0000
# 5 0.0000 0.0000 0.0000 0.0000 0.1906 0.0000
# 6 0.0000 0.0000 0.0000 0.0000 0.0000 14.5378
#
#
#
# Elastic Compliance Matrix: (Units=1/GPa)
#
#
# Indices 1 2 3 4 5 6 
#
# 1 0.021884 0.004959 -0.002002 0.000000 0.000000 0.000000
# 2 0.004959 0.013969 -0.005505 0.000000 0.000000 0.000000
# 3 -0.002002 -0.005505 0.008178 0.000000 0.000000 0.000000
# 4 0.000000 0.000000 0.000000 -0.403833 0.000000 0.000000
# 5 0.000000 0.000000 0.000000 0.000000 5.245471 0.000000
# 6 0.000000 0.000000 0.000000 0.000000 0.000000 0.068786
#
#
# Mechanical properties :
#
#
# Convention : Reuss Voigt Hill
#
# Bulk Modulus (GPa) = 25.68355 46.26636 35.97496
# Shear Modulus (GPa) = 1.00552 20.54014 10.77283
#
# Velocity S-wave (km/s) = 0.67494 3.05048 2.20918
# Velocity P-wave (km/s) = 3.49900 5.77648 4.77549
#
# Compressibility (1/GPa) = 0.03893542
#
# Stress axis : x y z
#
# Youngs Moduli (GPa) = 45.69617 71.58596 122.27824
#
# Poissons Ratio (x) = -0.35498 0.24480
# Poissons Ratio (y) = -0.22660 0.67310
# Poissons Ratio (z) = 0.09148 0.39406
#
# Static dielectric constant tensor:
#      x y z
#    x 1.821710 0.000000 0.000000 
#    y 0.000000 1.775140 0.000000 
#    z 0.000000 0.000000 1.847690 
# 
# From -- ./inp_files/16917.got.cif
#   From: 2010.05.17/outbox.cif.g08.bks.cpg/sg42_9_cif.got.tgz:16917.got - 2010.06.03 19:03:34.
