data_PCOD9369939
_publ_section_title
;
Structure prediction by ZEFSAII (Michael W. Deem and Ramdas Pophale) SiO2 
 PCOD9369939
Probable space group: F M M 2
;
_chemical_formula_sum "Si O2"
_cell_formula_units_Z 52
_cell_length_a 7.856013
_cell_length_b 21.270900
_cell_length_c 14.138681
_cell_angle_alpha 90.000000
_cell_angle_beta 90.000000
_cell_angle_gamma 90.000000
_cell_volume 2362.636751
_symmetry_space_group_name_H-M "F M M 2"
_symmetry_group_IT_number 42
_symmetry_cell_setting 'orthorhombic'
loop_
_space_group_symop_operation_xyz
x,y,z
-x,-y,z
-x,y,z
x,-y,z
x,1/2+y,1/2+z
-x,1/2-y,1/2+z
-x,1/2+y,1/2+z
x,1/2-y,1/2+z
1/2+x,y,1/2+z
1/2-x,-y,1/2+z
1/2-x,y,1/2+z
1/2+x,-y,1/2+z
1/2+x,1/2+y,z
1/2-x,1/2-y,z
1/2-x,1/2+y,z
1/2+x,1/2-y,z
loop_
_atom_site_type_symbol
_atom_site_label
_atom_site_fract_x
_atom_site_fract_y
_atom_site_fract_z
Si Si1 0.000000 0.500000 0.365631
Si Si2 0.200901 0.319501 0.459242
Si Si3 0.797062 0.928873 0.604911
Si Si4 0.189909 0.907200 0.316807
O O1 0.152080 0.553567 0.357851
O O2 0.250000 0.250000 0.491515
O O3 0.258542 0.374327 0.531009
O O4 0.286322 0.337808 0.359408
O O5 0.000000 0.321455 0.450452
O O6 0.708226 0.913672 0.704301
O O7 0.000000 0.931000 0.622071
O O8 0.744012 0.000000 0.574604
O O9 0.000000 0.928736 0.344868
#
# Coordination Sequence:
#
# PCOD9369939 Si02
#       4
#     4  16  16  16
#     4  12  22  44  68 106 140 174 232 276 344 406
#     4  12  27  47  67  99 138 184 234 280 340 412
#     4  11  23  43  70 105 138 174 224 282 342 406
#     4  12  24  44  71 103 141 180 224 282 344 403
#
# _framework density 22.009307
#
# number of rings (size 3 to 8) (size 9 to 14) (size 15 to 20)
#    0.000    0.308    4.615    4.154    2.154    3.077 
#    0.000    6.154    0.000    0.000    0.000    0.000 
#    0.000    0.000    0.000    0.000    0.000    0.000 
#
# Total GULP energy -72454.458397 kJ/mol
# GULP energy per Si atom -5573.419877 kJ/mol
# Density = 2.195921 g / cm^3
# Si number density = 22.009307 Si / 1000 Ang^3
#
#
#
# Elastic Constant Matrix: (Units=GPa)
#
#
# Indices 1 2 3 4 5 6 
#
# 1 199.7077 45.4681 19.9350 0.0000 0.0000 0.0000
# 2 45.4681 175.5596 70.2486 0.0000 0.0000 0.0000
# 3 19.9350 70.2486 76.8557 0.0000 0.0000 0.0000
# 4 0.0000 0.0000 0.0000 24.3432 0.0000 0.0000
# 5 0.0000 0.0000 0.0000 0.0000 23.1565 0.0000
# 6 0.0000 0.0000 0.0000 0.0000 0.0000 9.3355
#
#
#
# Elastic Compliance Matrix: (Units=1/GPa)
#
#
# Indices 1 2 3 4 5 6 
#
# 1 0.005323 -0.001302 -0.000190 0.000000 0.000000 0.000000
# 2 -0.001302 0.009299 -0.008162 0.000000 0.000000 0.000000
# 3 -0.000190 -0.008162 0.020521 0.000000 0.000000 0.000000
# 4 0.000000 0.000000 0.000000 0.041079 0.000000 0.000000
# 5 0.000000 0.000000 0.000000 0.000000 0.043184 0.000000
# 6 0.000000 0.000000 0.000000 0.000000 0.000000 0.107118
#
#
# Mechanical properties :
#
#
# Convention : Reuss Voigt Hill
#
# Bulk Modulus (GPa) = 63.15552 80.38071 71.76811
# Shear Modulus (GPa) = 19.91135 32.46510 26.18823
#
# Velocity S-wave (km/s) = 3.01105 3.84482 3.45319
# Velocity P-wave (km/s) = 6.39107 7.50405 6.96981
#
# Compressibility (1/GPa) = 0.01583393
#
# Stress axis : x y z
#
# Youngs Moduli (GPa) = 187.86971 107.53377 48.73014
#
# Poissons Ratio (x) = 0.14006 0.00927
# Poissons Ratio (y) = 0.24470 0.39774
# Poissons Ratio (z) = 0.03572 0.87770
#
# Static dielectric constant tensor:
#      x y z
#    x 1.780660 0.000000 0.000000 
#    y 0.000000 1.906840 0.000000 
#    z 0.000000 0.000000 1.847260 
# 
# From -- ./inp_files/11670.got.cif
#   From: 2010.05.17/outbox.cif.g08.bks.cpg/sg42_6_cif.got.tgz:11670.got - 2010.06.03 19:03:34.
