data_PCOD9369384
_publ_section_title
;
Structure prediction by ZEFSAII (Michael W. Deem and Ramdas Pophale) SiO2 
 PCOD9369384
Probable space group: F M M 2
;
_chemical_formula_sum "Si O2"
_cell_formula_units_Z 116
_cell_length_a 16.756168
_cell_length_b 25.490656
_cell_length_c 13.223553
_cell_angle_alpha 90.000000
_cell_angle_beta 90.000000
_cell_angle_gamma 90.000000
_cell_volume 5648.119522
_symmetry_space_group_name_H-M "F M M 2"
_symmetry_group_IT_number 42
_symmetry_cell_setting 'orthorhombic'
loop_
_space_group_symop_operation_xyz
x,y,z
-x,-y,z
-x,y,z
x,-y,z
x,1/2+y,1/2+z
-x,1/2-y,1/2+z
-x,1/2+y,1/2+z
x,1/2-y,1/2+z
1/2+x,y,1/2+z
1/2-x,-y,1/2+z
1/2-x,y,1/2+z
1/2+x,-y,1/2+z
1/2+x,1/2+y,z
1/2-x,1/2-y,z
1/2-x,1/2+y,z
1/2+x,1/2-y,z
loop_
_atom_site_type_symbol
_atom_site_label
_atom_site_fract_x
_atom_site_fract_y
_atom_site_fract_z
Si Si1 0.326669 0.834303 0.298450
Si Si2 0.405944 0.327899 0.591945
Si Si3 0.646050 0.918549 0.969403
Si Si4 0.409093 0.746324 0.401599
Si Si5 0.325691 0.557287 0.909912
Si Si6 0.142287 0.151962 0.273182
Si Si7 0.000000 0.000000 0.488930
Si Si8 0.594990 0.941110 0.626629
O O1 0.381598 0.816306 0.205782
O O2 0.347836 0.793555 0.386523
O O3 0.340627 0.893713 0.336579
O O4 0.234538 0.831692 0.268123
O O5 0.500000 0.340385 0.585976
O O6 0.352888 0.377867 0.561313
O O7 0.391645 0.284019 0.506511
O O8 0.733863 0.941107 0.948910
O O9 0.627945 0.885217 0.869509
O O10 0.571494 0.955779 0.986178
O O11 0.500000 0.766036 0.406207
O O12 0.402733 0.704861 0.308008
O O13 0.339793 0.500000 0.861991
O O14 0.379386 0.561643 0.009967
O O15 0.123267 0.112122 0.181926
O O16 0.500000 0.941934 0.637353
O O17 0.623585 0.000000 0.664672
#
# Coordination Sequence:
#
# PCOD9369384 Si02
#       8
#    16  16  16  16  16  16   4  16
#     4  11  23  40  64  89 122 166 203 250 318 373
#     4  10  21  40  61  92 126 156 204 261 310 369
#     4  10  21  36  60  92 126 160 205 259 311 365
#     4  10  22  41  64  88 118 153 202 265 315 369
#     4  10  22  42  58  86 130 170 210 257 303 370
#     4  10  22  38  60  91 124 155 201 254 317 369
#     4  12  20  32  64  96 122 166 212 256 314 360
#     4  10  22  37  61  90 127 169 212 255 305 364
#
# _framework density 20.537808999999999
#
# number of rings (size 3 to 8) (size 9 to 14) (size 15 to 20)
#    0.000    1.793    1.379    2.069    2.897    2.759 
#    1.241    5.517    0.000    0.000    0.000    0.000 
#    0.000    0.000    0.000    0.000    0.000    0.000 
#
# Total GULP energy -161479.312509 kJ/mol
# GULP energy per Si atom -5568.252155 kJ/mol
# Density = 2.049106 g / cm^3
# Si number density = 20.537809 Si / 1000 Ang^3
#
#
#
# Elastic Constant Matrix: (Units=GPa)
#
#
# Indices 1 2 3 4 5 6 
#
# 1 61.8108 53.9469 17.4385 0.0000 0.0000 0.0000
# 2 53.9469 88.9529 27.2068 0.0000 0.0000 0.0000
# 3 17.4385 27.2068 52.2932 0.0000 0.0000 0.0000
# 4 0.0000 0.0000 0.0000 42.5182 0.0000 0.0000
# 5 0.0000 0.0000 0.0000 0.0000 21.8886 0.0000
# 6 0.0000 0.0000 0.0000 0.0000 0.0000 46.8670
#
#
#
# Elastic Compliance Matrix: (Units=1/GPa)
#
#
# Indices 1 2 3 4 5 6 
#
# 1 0.034395 -0.020635 -0.000734 0.000000 0.000000 0.000000
# 2 -0.020635 0.025749 -0.006515 0.000000 0.000000 0.000000
# 3 -0.000734 -0.006515 0.022757 0.000000 0.000000 0.000000
# 4 0.000000 0.000000 0.000000 0.023519 0.000000 0.000000
# 5 0.000000 0.000000 0.000000 0.000000 0.045686 0.000000
# 6 0.000000 0.000000 0.000000 0.000000 0.000000 0.021337
#
#
# Mechanical properties :
#
#
# Convention : Reuss Voigt Hill
#
# Bulk Modulus (GPa) = 36.85557 44.47126 40.66341
# Shear Modulus (GPa) = 20.98576 29.21908 25.10242
#
# Velocity S-wave (km/s) = 3.20005 3.77596 3.49987
# Velocity P-wave (km/s) = 5.62476 6.38051 6.01451
#
# Compressibility (1/GPa) = 0.02713294
#
# Stress axis : x y z
#
# Youngs Moduli (GPa) = 29.07390 38.83648 43.94157
#
# Poissons Ratio (x) = 0.80139 0.03226
# Poissons Ratio (y) = 0.59994 0.28629
# Poissons Ratio (z) = 0.02134 0.25303
#
# Static dielectric constant tensor:
#      x y z
#    x 1.713790 0.000000 0.000000 
#    y 0.000000 1.737470 0.000000 
#    z 0.000000 0.000000 1.735300 
# 
# From -- ./inp_files/15458.got.cif
#   From: 2010.05.17/outbox.cif.g08.bks.cpg/sg42_8_cif.got.tgz:15458.got - 2010.06.03 19:03:34.
