data_PCOD9369676
_publ_section_title
;
Structure prediction by ZEFSAII (Michael W. Deem and Ramdas Pophale) SiO2 
 PCOD9369676
Probable space group: F M M 2
;
_chemical_formula_sum "Si O2"
_cell_formula_units_Z 96
_cell_length_a 19.844252
_cell_length_b 19.927637
_cell_length_c 10.908391
_cell_angle_alpha 90.000000
_cell_angle_beta 90.000000
_cell_angle_gamma 90.000000
_cell_volume 4313.712862
_symmetry_space_group_name_H-M "F M M 2"
_symmetry_group_IT_number 42
_symmetry_cell_setting 'orthorhombic'
loop_
_space_group_symop_operation_xyz
x,y,z
-x,-y,z
-x,y,z
x,-y,z
x,1/2+y,1/2+z
-x,1/2-y,1/2+z
-x,1/2+y,1/2+z
x,1/2-y,1/2+z
1/2+x,y,1/2+z
1/2-x,-y,1/2+z
1/2-x,y,1/2+z
1/2+x,-y,1/2+z
1/2+x,1/2+y,z
1/2-x,1/2-y,z
1/2-x,1/2+y,z
1/2+x,1/2-y,z
loop_
_atom_site_type_symbol
_atom_site_label
_atom_site_fract_x
_atom_site_fract_y
_atom_site_fract_z
Si Si1 0.740308 0.926346 0.375000
Si Si2 0.572700 0.330517 0.208422
Si Si3 0.691554 0.304140 0.037596
Si Si4 0.120645 0.922080 0.709679
Si Si5 0.074340 0.203446 0.855650
Si Si6 0.895282 0.424156 0.924391
O O1 0.724227 0.864421 0.461884
O O2 0.699732 0.917027 0.247770
O O3 0.819868 0.928727 0.371530
O O4 0.717439 0.000000 0.422987
O O5 0.500000 0.347781 0.149187
O O6 0.575022 0.251916 0.239223
O O7 0.571993 0.370209 0.336290
O O8 0.642888 0.338979 0.137663
O O9 0.750000 0.250000 0.072947
O O10 0.634974 0.274250 0.944414
O O11 0.085839 0.871499 0.804601
O O12 0.107641 0.904930 0.567964
O O13 0.100643 0.000000 0.725840
O O14 0.000000 0.210616 0.910580
O O15 0.923489 0.500000 0.917254
#
# Coordination Sequence:
#
# PCOD9369676 Si02
#       6
#    16  16  16  16  16  16
#     4   9  20  38  63  96 130 164 210 271 333 384
#     4  11  26  42  61  92 133 175 217 267 331 395
#     4  11  24  41  67  93 126 169 223 270 324 390
#     4   9  20  39  65  98 129 168 221 271 325 389
#     4  10  23  42  64  91 131 172 214 270 328 388
#     4  10  22  40  65  95 130 171 216 269 326 392
#
# _framework density 22.254611000000001
#
# number of rings (size 3 to 8) (size 9 to 14) (size 15 to 20)
#    0.000    2.000    0.000    1.500    7.000    4.000 
#    0.000    1.667    0.000    3.000    0.000    0.000 
#    0.000    0.000    0.000    0.000    0.000    0.000 
#
# Total GULP energy -133803.418914 kJ/mol
# GULP energy per Si atom -5575.142455 kJ/mol
# Density = 2.220396 g / cm^3
# Si number density = 22.254611 Si / 1000 Ang^3
#
#
#
# Elastic Constant Matrix: (Units=GPa)
#
#
# Indices 1 2 3 4 5 6 
#
# 1 137.0680 24.1486 21.2110 0.0000 0.0000 0.0000
# 2 24.1486 69.3440 24.5854 0.0000 0.0000 0.0000
# 3 21.2110 24.5854 68.3338 0.0000 0.0000 0.0000
# 4 0.0000 0.0000 0.0000 33.6614 0.0000 0.0000
# 5 0.0000 0.0000 0.0000 0.0000 65.7546 0.0000
# 6 0.0000 0.0000 0.0000 0.0000 0.0000 -25.8815
#
#
#
# Elastic Compliance Matrix: (Units=1/GPa)
#
#
# Indices 1 2 3 4 5 6 
#
# 1 0.007938 -0.002167 -0.001684 0.000000 0.000000 0.000000
# 2 -0.002167 0.017121 -0.005487 0.000000 0.000000 0.000000
# 3 -0.001684 -0.005487 0.017131 0.000000 0.000000 0.000000
# 4 0.000000 0.000000 0.000000 0.029708 0.000000 0.000000
# 5 0.000000 0.000000 0.000000 0.000000 0.015208 0.000000
# 6 0.000000 0.000000 0.000000 0.000000 0.000000 -0.038638
#
#
# Mechanical properties :
#
#
# Convention : Reuss Voigt Hill
#
# Bulk Modulus (GPa) = 42.52995 46.07063 44.30029
# Shear Modulus (GPa) = 66.68165 28.36029 47.52097
#
# Velocity S-wave (km/s) = 5.47979 3.57368 4.62598
# Velocity P-wave (km/s) = 7.69348 6.14612 6.96292
#
# Compressibility (1/GPa) = 0.02351284
#
# Stress axis : x y z
#
# Youngs Moduli (GPa) = 125.97448 58.40780 58.37359
#
# Poissons Ratio (x) = 0.12658 0.09832
# Poissons Ratio (y) = 0.27302 0.32030
# Poissons Ratio (z) = 0.21218 0.32049
#
# Static dielectric constant tensor:
#      x y z
#    x 1.851080 0.000000 0.000000 
#    y 0.000000 1.812390 0.000000 
#    z 0.000000 0.000000 1.847210 
# 
# From -- ./inp_files/9537.got.cif
#   From: 2010.05.17/outbox.cif.g08.bks.cpg/sg42_5_cif.got.tgz:9537.got - 2010.06.03 19:03:34.
