data_PCOD9369085
_publ_section_title
;
Structure prediction by ZEFSAII (Michael W. Deem and Ramdas Pophale) SiO2 
 PCOD9369085
Probable space group: F M M 2
;
_chemical_formula_sum "Si O2"
_cell_formula_units_Z 80
_cell_length_a 14.904119
_cell_length_b 8.566525
_cell_length_c 31.363341
_cell_angle_alpha 90.000000
_cell_angle_beta 90.000000
_cell_angle_gamma 90.000000
_cell_volume 4004.361859
_symmetry_space_group_name_H-M "F M M 2"
_symmetry_group_IT_number 42
_symmetry_cell_setting 'orthorhombic'
loop_
_space_group_symop_operation_xyz
x,y,z
-x,-y,z
-x,y,z
x,-y,z
x,1/2+y,1/2+z
-x,1/2-y,1/2+z
-x,1/2+y,1/2+z
x,1/2-y,1/2+z
1/2+x,y,1/2+z
1/2-x,-y,1/2+z
1/2-x,y,1/2+z
1/2+x,-y,1/2+z
1/2+x,1/2+y,z
1/2-x,1/2-y,z
1/2-x,1/2+y,z
1/2+x,1/2-y,z
loop_
_atom_site_type_symbol
_atom_site_label
_atom_site_fract_x
_atom_site_fract_y
_atom_site_fract_z
Si Si1 0.647369 0.812204 0.635140
Si Si2 0.852075 0.188430 0.043068
Si Si3 0.850991 0.813187 0.724372
Si Si4 0.351482 0.187762 0.449527
Si Si5 0.500000 0.314731 0.386919
Si Si6 0.000000 0.688614 0.291468
O O1 0.750000 0.750000 0.634529
O O2 0.607886 0.764194 0.588966
O O3 0.609962 0.745859 0.679152
O O4 0.646945 0.000000 0.637591
O O5 0.750000 0.250000 0.043098
O O6 0.851416 0.000000 0.043377
O O7 0.888207 0.235786 0.996702
O O8 0.750000 0.750000 0.729017
O O9 0.913519 0.764396 0.763558
O O10 0.847831 0.000000 0.722795
O O11 0.250000 0.250000 0.445769
O O12 0.413939 0.251801 0.412501
O O13 0.350631 0.000000 0.447873
O O14 0.500000 0.500000 0.387887
O O15 0.500000 0.256877 0.338472
O O16 0.000000 0.500000 0.294403
#
# Coordination Sequence:
#
# PCOD9369085 Si02
#       6
#    16  16  16  16   8   8
#     4   9  15  26  47  78 113 147 183 221 265 319
#     4   8  15  27  48  78 111 148 185 221 265 321
#     4  10  20  36  58  83 111 145 184 225 275 332
#     4  10  20  38  62  87 118 154 192 235 284 337
#     4  12  26  42  61  86 113 145 190 241 295 350
#     4  10  24  44  61  78 107 145 184 233 291 344
#
# _framework density 19.978216
#
# number of rings (size 3 to 8) (size 9 to 14) (size 15 to 20)
#    0.000    2.400    0.000    3.900    0.000    4.000 
#    0.000    3.000    0.000    3.600    0.000    0.000 
#    0.000    0.000    0.000    0.000    0.000    0.000 
#
# Total GULP energy -111555.483061 kJ/mol
# GULP energy per Si atom -5577.774153 kJ/mol
# Density = 1.993274 g / cm^3
# Si number density = 19.978216 Si / 1000 Ang^3
#
#
#
# Elastic Constant Matrix: (Units=GPa)
#
#
# Indices 1 2 3 4 5 6 
#
# 1 100.1116 28.6073 84.0698 0.0000 0.0000 0.0000
# 2 28.6073 56.2975 62.5453 0.0000 0.0000 0.0000
# 3 84.0698 62.5453 253.3002 0.0000 0.0000 0.0000
# 4 0.0000 0.0000 0.0000 30.3681 0.0000 0.0000
# 5 0.0000 0.0000 0.0000 0.0000 43.8586 0.0000
# 6 0.0000 0.0000 0.0000 0.0000 0.0000 6.6695
#
#
#
# Elastic Compliance Matrix: (Units=1/GPa)
#
#
# Indices 1 2 3 4 5 6 
#
# 1 0.014144 -0.002717 -0.004023 0.000000 0.000000 0.000000
# 2 -0.002717 0.025000 -0.005271 0.000000 0.000000 0.000000
# 3 -0.004023 -0.005271 0.006585 0.000000 0.000000 0.000000
# 4 0.000000 0.000000 0.000000 0.032929 0.000000 0.000000
# 5 0.000000 0.000000 0.000000 0.000000 0.022801 0.000000
# 6 0.000000 0.000000 0.000000 0.000000 0.000000 0.149937
#
#
# Mechanical properties :
#
#
# Convention : Reuss Voigt Hill
#
# Bulk Modulus (GPa) = 46.07261 84.46158 65.26709
# Shear Modulus (GPa) = 17.68951 31.81169 24.75060
#
# Velocity S-wave (km/s) = 2.97886 3.99472 3.52359
# Velocity P-wave (km/s) = 5.91126 7.97782 7.02099
#
# Compressibility (1/GPa) = 0.02170487
#
# Stress axis : x y z
#
# Youngs Moduli (GPa) = 70.70111 40.00059 151.86500
#
# Poissons Ratio (x) = 0.10869 0.61102
# Poissons Ratio (y) = 0.19212 0.80049
# Poissons Ratio (z) = 0.28446 0.21085
#
# Static dielectric constant tensor:
#      x y z
#    x 1.742410 0.000000 0.000000 
#    y 0.000000 1.672430 0.000000 
#    z 0.000000 0.000000 1.739390 
# 
# From -- ./inp_files/32783.got.cif
#   From: 2010.05.17/outbox.cif.g08.bks.cpg/sg42_17_cif.got.tgz:32783.got - 2010.06.03 19:03:34.
