data_PCOD9369502
_publ_section_title
;
Structure prediction by ZEFSAII (Michael W. Deem and Ramdas Pophale) SiO2 
 PCOD9369502
Probable space group: F M M 2
;
_chemical_formula_sum "Si O2"
_cell_formula_units_Z 96
_cell_length_a 14.272114
_cell_length_b 17.749886
_cell_length_c 20.641689
_cell_angle_alpha 90.000000
_cell_angle_beta 90.000000
_cell_angle_gamma 90.000000
_cell_volume 5229.125975
_symmetry_space_group_name_H-M "F M M 2"
_symmetry_group_IT_number 42
_symmetry_cell_setting 'orthorhombic'
loop_
_space_group_symop_operation_xyz
x,y,z
-x,-y,z
-x,y,z
x,-y,z
x,1/2+y,1/2+z
-x,1/2-y,1/2+z
-x,1/2+y,1/2+z
x,1/2-y,1/2+z
1/2+x,y,1/2+z
1/2-x,-y,1/2+z
1/2-x,y,1/2+z
1/2+x,-y,1/2+z
1/2+x,1/2+y,z
1/2-x,1/2-y,z
1/2-x,1/2+y,z
1/2+x,1/2-y,z
loop_
_atom_site_type_symbol
_atom_site_label
_atom_site_fract_x
_atom_site_fract_y
_atom_site_fract_z
Si Si1 0.500000 0.170598 0.503041
Si Si2 0.205363 0.666527 0.346312
Si Si3 0.500000 0.778599 0.360444
Si Si4 0.500000 0.219127 0.125608
Si Si5 0.698792 0.409982 0.982970
Si Si6 0.793802 0.833956 0.602424
Si Si7 0.196698 0.089686 0.225137
Si Si8 0.000000 0.669992 0.745647
O O1 0.500000 0.224390 0.438962
O O2 0.500000 0.217724 0.568985
O O3 0.405816 0.120942 0.498950
O O4 0.250000 0.750000 0.348256
O O5 0.225063 0.622987 0.412857
O O6 0.245732 0.621818 0.285832
O O7 0.093899 0.677489 0.341284
O O8 0.500000 0.702133 0.318885
O O9 0.595944 0.173385 0.116369
O O10 0.500000 0.260156 0.195282
O O11 0.699213 0.500000 0.983202
O O12 0.768729 0.376177 0.036230
O O13 0.750000 0.750000 0.598948
O O14 0.742686 0.877210 0.660435
O O15 0.092219 0.121905 0.232146
O O16 0.196836 0.000000 0.224044
#
# Coordination Sequence:
#
# PCOD9369502 Si02
#       8
#     8  16   8   8  16  16  16   8
#     4  10  21  38  63  94 123 158 206 261 300 355
#     4  11  22  41  64  92 125 165 209 252 299 367
#     4  10  22  36  65  94 119 157 211 259 295 355
#     4  12  24  38  65  95 118 156 214 254 300 360
#     4  11  23  40  63  94 128 163 203 254 312 361
#     4  12  23  42  64  91 122 163 206 253 303 369
#     4  12  25  41  63  93 127 163 202 255 315 363
#     4  12  21  40  63  93 124 155 205 262 303 360
#
# _framework density 18.358708
#
# number of rings (size 3 to 8) (size 9 to 14) (size 15 to 20)
#    0.000    0.667    5.000    3.500    2.333    0.000 
#    0.000    6.250    0.000    0.000    0.000    0.000 
#    0.000    0.000    0.000    0.000    0.000    0.000 
#
# Total GULP energy -134224.906363 kJ/mol
# GULP energy per Si atom -5592.704432 kJ/mol
# Density = 1.831692 g / cm^3
# Si number density = 18.358708 Si / 1000 Ang^3
#
#
#
# Elastic Constant Matrix: (Units=GPa)
#
#
# Indices 1 2 3 4 5 6 
#
# 1 110.0278 44.6806 33.2004 0.0000 0.0000 0.0000
# 2 44.6806 129.2205 56.1424 0.0000 0.0000 0.0000
# 3 33.2004 56.1424 97.2567 0.0000 0.0000 0.0000
# 4 0.0000 0.0000 0.0000 21.3561 0.0000 0.0000
# 5 0.0000 0.0000 0.0000 0.0000 126.7510 0.0000
# 6 0.0000 0.0000 0.0000 0.0000 0.0000 14.9256
#
#
#
# Elastic Compliance Matrix: (Units=1/GPa)
#
#
# Indices 1 2 3 4 5 6 
#
# 1 0.010873 -0.002866 -0.002058 0.000000 0.000000 0.000000
# 2 -0.002866 0.011085 -0.005420 0.000000 0.000000 0.000000
# 3 -0.002058 -0.005420 0.014113 0.000000 0.000000 0.000000
# 4 0.000000 0.000000 0.000000 0.046825 0.000000 0.000000
# 5 0.000000 0.000000 0.000000 0.000000 0.007889 0.000000
# 6 0.000000 0.000000 0.000000 0.000000 0.000000 0.066999
#
#
# Mechanical properties :
#
#
# Convention : Reuss Voigt Hill
#
# Bulk Modulus (GPa) = 65.00291 67.17242 66.08767
# Shear Modulus (GPa) = 27.23317 46.10534 36.66925
#
# Velocity S-wave (km/s) = 3.85566 5.01678 4.47405
# Velocity P-wave (km/s) = 7.43677 8.38008 7.92248
#
# Compressibility (1/GPa) = 0.01538393
#
# Stress axis : x y z
#
# Youngs Moduli (GPa) = 91.96956 90.21529 70.85446
#
# Poissons Ratio (x) = 0.25853 0.14578
# Poissons Ratio (y) = 0.26356 0.38406
# Poissons Ratio (z) = 0.18923 0.48901
#
# Static dielectric constant tensor:
#      x y z
#    x 1.617680 0.000000 0.000000 
#    y 0.000000 1.596480 0.000000 
#    z 0.000000 0.000000 1.630210 
# 
# From -- ./inp_files/25170.got.cif
#   From: 2010.05.17/outbox.cif.g08.bks.cpg/sg42_13_cif.got.tgz:25170.got - 2010.06.03 19:03:34.
