data_PCOD9369338
_publ_section_title
;
Structure prediction by ZEFSAII (Michael W. Deem and Ramdas Pophale) SiO2 
 PCOD9369338
Probable space group: F M M 2
;
_chemical_formula_sum "Si O2"
_cell_formula_units_Z 64
_cell_length_a 25.263684
_cell_length_b 9.841891
_cell_length_c 11.314808
_cell_angle_alpha 90.000000
_cell_angle_beta 90.000000
_cell_angle_gamma 90.000000
_cell_volume 2813.341290
_symmetry_space_group_name_H-M "F M M 2"
_symmetry_group_IT_number 42
_symmetry_cell_setting 'orthorhombic'
loop_
_space_group_symop_operation_xyz
x,y,z
-x,-y,z
-x,y,z
x,-y,z
x,1/2+y,1/2+z
-x,1/2-y,1/2+z
-x,1/2+y,1/2+z
x,1/2-y,1/2+z
1/2+x,y,1/2+z
1/2-x,-y,1/2+z
1/2-x,y,1/2+z
1/2+x,-y,1/2+z
1/2+x,1/2+y,z
1/2-x,1/2-y,z
1/2-x,1/2+y,z
1/2+x,1/2-y,z
loop_
_atom_site_type_symbol
_atom_site_label
_atom_site_fract_x
_atom_site_fract_y
_atom_site_fract_z
Si Si1 0.180348 0.500000 0.895280
Si Si2 0.250000 0.250000 0.780428
Si Si3 0.438463 0.287656 0.626839
Si Si4 0.060940 0.000000 0.416517
Si Si5 0.563395 0.500000 0.067139
Si Si6 0.603416 0.000000 0.307645
Si Si7 0.803197 0.000000 0.673872
O O1 0.211708 0.359713 0.853747
O O2 0.118200 0.500000 0.852576
O O3 0.174820 0.500000 0.039411
O O4 0.276352 0.356052 0.690161
O O5 0.500000 0.278282 0.659425
O O6 0.437346 0.368985 0.503433
O O7 0.414814 0.139535 0.616247
O O8 0.411772 0.372141 0.728527
O O9 0.000000 0.000000 0.362525
O O10 0.500000 0.500000 0.081854
O O11 0.574719 0.500000 0.929126
O O12 0.665637 0.000000 0.301974
#
# Coordination Sequence:
#
# PCOD9369338 Si02
#       7
#     8   8  16   8   8   8   8
#     4  11  21  45  71  89 139 167 209 277 328 364
#     4  10  26  42  66 102 120 166 224 268 316 392
#     4   9  18  36  56  85 124 163 210 253 305 377
#     4   9  18  35  64  93 128 175 207 253 330 390
#     4  10  21  35  57  87 124 166 212 257 301 369
#     4  11  21  35  63  87 118 162 207 255 319 373
#     4  11  23  42  66  92 123 160 215 264 326 378
#
# _framework density 22.748749
#
# number of rings (size 3 to 8) (size 9 to 14) (size 15 to 20)
#    0.000    2.000    2.500    2.625    3.500    0.000 
#    0.000    5.000    0.000    9.000    0.000    0.000 
#    0.000    0.000    0.000    0.000    0.000    0.000 
#
# Total GULP energy -89071.114365 kJ/mol
# GULP energy per Si atom -5566.944648 kJ/mol
# Density = 2.269697 g / cm^3
# Si number density = 22.748749 Si / 1000 Ang^3
#
#
#
# Elastic Constant Matrix: (Units=GPa)
#
#
# Indices 1 2 3 4 5 6 
#
# 1 78.0283 39.3500 16.9228 0.0000 0.0000 0.0000
# 2 39.3500 208.9115 41.0325 0.0000 0.0000 0.0000
# 3 16.9228 41.0325 86.0260 0.0000 0.0000 0.0000
# 4 0.0000 0.0000 0.0000 -19.6281 0.0000 0.0000
# 5 0.0000 0.0000 0.0000 0.0000 38.3936 0.0000
# 6 0.0000 0.0000 0.0000 0.0000 0.0000 16.0155
#
#
#
# Elastic Compliance Matrix: (Units=1/GPa)
#
#
# Indices 1 2 3 4 5 6 
#
# 1 0.014382 -0.002376 -0.001696 0.000000 0.000000 0.000000
# 2 -0.002376 0.005674 -0.002239 0.000000 0.000000 0.000000
# 3 -0.001696 -0.002239 0.013026 0.000000 0.000000 0.000000
# 4 0.000000 0.000000 0.000000 -0.050947 0.000000 0.000000
# 5 0.000000 0.000000 0.000000 0.000000 0.026046 0.000000
# 6 0.000000 0.000000 0.000000 0.000000 0.000000 0.062439
#
#
# Mechanical properties :
#
#
# Convention : Reuss Voigt Hill
#
# Bulk Modulus (GPa) = 48.87525 63.06406 55.96965
# Shear Modulus (GPa) = 55.51768 25.33357 40.42562
#
# Velocity S-wave (km/s) = 4.94547 3.34072 4.22008
# Velocity P-wave (km/s) = 7.35811 6.53167 6.95717
#
# Compressibility (1/GPa) = 0.02046025
#
# Stress axis : x y z
#
# Youngs Moduli (GPa) = 69.53221 176.24304 76.76969
#
# Poissons Ratio (x) = 0.41872 0.13020
# Poissons Ratio (y) = 0.16520 0.17189
# Poissons Ratio (z) = 0.11792 0.39461
#
# Static dielectric constant tensor:
#      x y z
#    x 1.433780 0.000000 0.000000 
#    y 0.000000 2.000640 0.000000 
#    z 0.000000 0.000000 1.833450 
# 
# From -- ./inp_files/16295.got.cif
#   From: 2010.05.17/outbox.cif.g08.bks.cpg/sg42_9_cif.got.tgz:16295.got - 2010.06.03 19:03:34.
