data_PCOD9369159
_publ_section_title
;
Structure prediction by ZEFSAII (Michael W. Deem and Ramdas Pophale) SiO2 
 PCOD9369159
Probable space group: F M M 2
;
_chemical_formula_sum "Si O2"
_cell_formula_units_Z 96
_cell_length_a 24.156491
_cell_length_b 8.665363
_cell_length_c 25.830847
_cell_angle_alpha 90.000000
_cell_angle_beta 90.000000
_cell_angle_gamma 90.000000
_cell_volume 5407.035935
_symmetry_space_group_name_H-M "F M M 2"
_symmetry_group_IT_number 42
_symmetry_cell_setting 'orthorhombic'
loop_
_space_group_symop_operation_xyz
x,y,z
-x,-y,z
-x,y,z
x,-y,z
x,1/2+y,1/2+z
-x,1/2-y,1/2+z
-x,1/2+y,1/2+z
x,1/2-y,1/2+z
1/2+x,y,1/2+z
1/2-x,-y,1/2+z
1/2-x,y,1/2+z
1/2+x,-y,1/2+z
1/2+x,1/2+y,z
1/2-x,1/2-y,z
1/2-x,1/2+y,z
1/2+x,1/2-y,z
loop_
_atom_site_type_symbol
_atom_site_label
_atom_site_fract_x
_atom_site_fract_y
_atom_site_fract_z
Si Si1 0.310132 0.814474 0.457450
Si Si2 0.500000 0.685462 0.710740
Si Si3 0.379808 0.185162 0.169317
Si Si4 0.500000 0.316116 0.326921
Si Si5 0.688027 0.184746 0.766498
Si Si6 0.310835 0.185530 0.576634
Si Si7 0.616326 0.314174 0.861498
O O1 0.250000 0.750000 0.442428
O O2 0.321420 0.768029 0.516845
O O3 0.356135 0.767473 0.416000
O O4 0.306879 0.000000 0.456629
O O5 0.500000 0.500000 0.719092
O O6 0.443849 0.725208 0.680378
O O7 0.500000 0.764048 0.766860
O O8 0.343337 0.257607 0.215222
O O9 0.355990 0.247602 0.115557
O O10 0.374483 0.000000 0.171033
O O11 0.500000 0.500000 0.329444
O O12 0.445008 0.249461 0.353265
O O13 0.750000 0.250000 0.767087
O O14 0.654421 0.248999 0.815546
O O15 0.689033 0.000000 0.767728
O O16 0.250000 0.250000 0.590803
O O17 0.309873 0.000000 0.579913
O O18 0.615474 0.500000 0.858185
#
# Coordination Sequence:
#
# PCOD9369159 Si02
#       7
#    16   8  16   8  16  16  16
#     4   9  20  37  60  86 115 152 191 234 289 345
#     4  10  22  40  61  80 111 153 194 236 290 345
#     4  11  22  38  59  84 113 151 193 236 290 346
#     4  12  24  38  59  86 115 153 198 238 286 343
#     4  12  24  37  55  84 117 150 188 236 291 348
#     4  10  20  37  59  86 117 151 191 237 288 344
#     4  11  22  39  60  84 116 153 193 238 289 344
#
# _framework density 17.754645
#
# number of rings (size 3 to 8) (size 9 to 14) (size 15 to 20)
#    0.000    1.333    1.667    4.750    0.000    4.000 
#    0.000    0.833    0.000    3.000    0.000    0.000 
#    0.000    0.000    0.000    0.000    0.000    0.000 
#
# Total GULP energy -134156.758566 kJ/mol
# GULP energy per Si atom -5589.864940 kJ/mol
# Density = 1.771423 g / cm^3
# Si number density = 17.754645 Si / 1000 Ang^3
#
#
#
# Elastic Constant Matrix: (Units=GPa)
#
#
# Indices 1 2 3 4 5 6 
#
# 1 195.1147 67.2353 102.7220 0.0000 0.0000 0.0000
# 2 67.2353 81.6432 49.7566 -0.0001 -0.0001 0.0001
# 3 102.7220 49.7566 121.4987 0.0000 0.0000 0.0000
# 4 0.0000 -0.0001 0.0000 10.7117 0.0000 0.0000
# 5 0.0000 -0.0001 0.0000 0.0000 -9.5887 0.0000
# 6 0.0000 0.0001 0.0000 0.0000 0.0000 27.2856
#
#
#
# Elastic Compliance Matrix: (Units=1/GPa)
#
#
# Indices 1 2 3 4 5 6 
#
# 1 0.010212 -0.004195 -0.006916 0.000000 0.000000 0.000000
# 2 -0.004195 0.018045 -0.003843 0.000000 0.000000 0.000000
# 3 -0.006916 -0.003843 0.015651 0.000000 0.000000 0.000000
# 4 0.000000 0.000000 0.000000 0.093356 0.000000 0.000000
# 5 0.000000 0.000000 0.000000 0.000000 -0.104290 0.000000
# 6 0.000000 0.000000 0.000000 0.000000 0.000000 0.036649
#
#
# Mechanical properties :
#
#
# Convention : Reuss Voigt Hill
#
# Bulk Modulus (GPa) = 71.42573 93.07602 82.25088
# Shear Modulus (GPa) = 47.98568 17.58459 32.78513
#
# Velocity S-wave (km/s) = 5.20440 3.15051 4.30183
# Velocity P-wave (km/s) = 8.74248 8.10997 8.43216
#
# Compressibility (1/GPa) = 0.01400056
#
# Stress axis : x y z
#
# Youngs Moduli (GPa) = 97.92865 55.41607 63.89261
#
# Poissons Ratio (x) = 0.23246 0.44185
# Poissons Ratio (y) = 0.41080 0.24556
# Poissons Ratio (z) = 0.67723 0.21299
#
# Static dielectric constant tensor:
#      x y z
#    x 1.580920 0.000000 0.000000 
#    y 0.000000 1.596290 0.000000 
#    z 0.000000 0.000000 1.595720 
# 
# From -- ./inp_files/28103.got.cif
#   From: 2010.05.17/outbox.cif.g08.bks.cpg/sg42_15_cif.got.tgz:28103.got - 2010.06.03 19:03:34.
