data_PCOD9369538
_publ_section_title
;
Structure prediction by ZEFSAII (Michael W. Deem and Ramdas Pophale) SiO2 
 PCOD9369538
Probable space group: F M M 2
;
_chemical_formula_sum "Si O2"
_cell_formula_units_Z 112
_cell_length_a 14.077531
_cell_length_b 15.209138
_cell_length_c 23.734274
_cell_angle_alpha 90.000000
_cell_angle_beta 90.000000
_cell_angle_gamma 90.000000
_cell_volume 5081.676854
_symmetry_space_group_name_H-M "F M M 2"
_symmetry_group_IT_number 42
_symmetry_cell_setting 'orthorhombic'
loop_
_space_group_symop_operation_xyz
x,y,z
-x,-y,z
-x,y,z
x,-y,z
x,1/2+y,1/2+z
-x,1/2-y,1/2+z
-x,1/2+y,1/2+z
x,1/2-y,1/2+z
1/2+x,y,1/2+z
1/2-x,-y,1/2+z
1/2-x,y,1/2+z
1/2+x,-y,1/2+z
1/2+x,1/2+y,z
1/2-x,1/2-y,z
1/2-x,1/2+y,z
1/2+x,1/2-y,z
loop_
_atom_site_type_symbol
_atom_site_label
_atom_site_fract_x
_atom_site_fract_y
_atom_site_fract_z
Si Si1 0.278089 0.846115 0.110910
Si Si2 0.115864 0.101139 0.299692
Si Si3 0.604563 0.603561 0.177966
Si Si4 0.384100 0.277271 0.403434
Si Si5 0.113526 0.097672 0.502801
Si Si6 0.886418 0.104279 0.719979
Si Si7 0.884009 0.099967 0.849323
O O1 0.250000 0.750000 0.090931
O O2 0.178436 0.887769 0.128466
O O3 0.335539 0.894362 0.062576
O O4 0.338027 0.843984 0.169048
O O5 0.141594 0.138363 0.238062
O O6 0.145464 0.162861 0.350478
O O7 0.000000 0.099536 0.299392
O O8 0.147782 0.000000 0.307067
O O9 0.500000 0.640197 0.165405
O O10 0.594940 0.500000 0.189298
O O11 0.500000 0.277827 0.403873
O O12 0.354679 0.326006 0.460340
O O13 0.354375 0.177236 0.391532
O O14 0.000000 0.105906 0.511131
O O15 0.130414 0.000000 0.478223
O O16 0.856315 0.122131 0.784556
O O17 0.000000 0.116645 0.717383
O O18 0.866224 0.000000 0.710163
O O19 0.000000 0.099123 0.848841
O O20 0.854232 0.000000 0.862785
#
# Coordination Sequence:
#
# PCOD9369538 Si02
#       7
#    16  16  16  16  16  16  16
#     4  12  25  36  55  85 124 165 204 257 311 365
#     4   8  14  26  48  81 117 151 188 238 303 366
#     4   9  19  36  57  82 117 159 202 249 304 366
#     4   9  16  28  55  90 123 154 194 248 305 368
#     4  10  21  39  64  92 122 162 211 263 316 367
#     4   9  18  35  60  89 123 164 205 247 303 370
#     4   8  15  28  51  87 127 163 200 245 302 371
#
# _framework density 22.039968999999999
#
# number of rings (size 3 to 8) (size 9 to 14) (size 15 to 20)
#    0.000    2.714    0.000    3.857    2.000    4.000 
#    0.000    0.000    3.143    2.571    0.000    2.000 
#    0.000    0.000    0.000    0.286    0.000    0.286 
#
# Total GULP energy -156446.348358 kJ/mol
# GULP energy per Si atom -5587.369584 kJ/mol
# Density = 2.198980 g / cm^3
# Si number density = 22.039969 Si / 1000 Ang^3
#
#
#
# Elastic Constant Matrix: (Units=GPa)
#
#
# Indices 1 2 3 4 5 6 
#
# 1 72.4044 26.2669 39.2613 0.0000 0.0000 0.0000
# 2 26.2669 106.1293 62.6324 0.0000 0.0000 0.0000
# 3 39.2613 62.6324 119.3142 0.0000 0.0000 0.0000
# 4 0.0000 0.0000 0.0000 34.9282 0.0000 0.0000
# 5 0.0000 0.0000 0.0000 0.0000 22.4979 0.0000
# 6 0.0000 0.0000 0.0000 0.0000 0.0000 15.0834
#
#
#
# Elastic Compliance Matrix: (Units=1/GPa)
#
#
# Indices 1 2 3 4 5 6 
#
# 1 0.016935 -0.001308 -0.004886 0.000000 0.000000 0.000000
# 2 -0.001308 0.013753 -0.006789 0.000000 0.000000 0.000000
# 3 -0.004886 -0.006789 0.013553 0.000000 0.000000 0.000000
# 4 0.000000 0.000000 0.000000 0.028630 0.000000 0.000000
# 5 0.000000 0.000000 0.000000 0.000000 0.044449 0.000000
# 6 0.000000 0.000000 0.000000 0.000000 0.000000 0.066298
#
#
# Mechanical properties :
#
#
# Convention : Reuss Voigt Hill
#
# Bulk Modulus (GPa) = 54.71991 61.57434 58.14712
# Shear Modulus (GPa) = 23.18305 25.81440 24.49873
#
# Velocity S-wave (km/s) = 3.24676 3.42607 3.33762
# Velocity P-wave (km/s) = 6.23993 6.60673 6.42595
#
# Compressibility (1/GPa) = 0.01827489
#
# Stress axis : x y z
#
# Youngs Moduli (GPa) = 59.04826 72.71327 73.78550
#
# Poissons Ratio (x) = 0.09510 0.36053
# Poissons Ratio (y) = 0.07723 0.50092
# Poissons Ratio (z) = 0.28852 0.49364
#
# Static dielectric constant tensor:
#      x y z
#    x 1.843250 0.000000 0.000000 
#    y 0.000000 1.796610 0.000000 
#    z 0.000000 0.000000 1.760740 
# 
# From -- ./inp_files/29501.got.cif
#   From: 2010.05.17/outbox.cif.g08.bks.cpg/sg42_15_cif.got.tgz:29501.got - 2010.06.03 19:03:34.
