data_PCOD9369512
_publ_section_title
;
Structure prediction by ZEFSAII (Michael W. Deem and Ramdas Pophale) SiO2 
 PCOD9369512
Probable space group: F M M 2
;
_chemical_formula_sum "Si O2"
_cell_formula_units_Z 88
_cell_length_a 15.300283
_cell_length_b 13.395305
_cell_length_c 20.170962
_cell_angle_alpha 90.000000
_cell_angle_beta 90.000000
_cell_angle_gamma 90.000000
_cell_volume 4134.078144
_symmetry_space_group_name_H-M "F M M 2"
_symmetry_group_IT_number 42
_symmetry_cell_setting 'orthorhombic'
loop_
_space_group_symop_operation_xyz
x,y,z
-x,-y,z
-x,y,z
x,-y,z
x,1/2+y,1/2+z
-x,1/2-y,1/2+z
-x,1/2+y,1/2+z
x,1/2-y,1/2+z
1/2+x,y,1/2+z
1/2-x,-y,1/2+z
1/2-x,y,1/2+z
1/2+x,-y,1/2+z
1/2+x,1/2+y,z
1/2-x,1/2-y,z
1/2-x,1/2+y,z
1/2+x,1/2-y,z
loop_
_atom_site_type_symbol
_atom_site_label
_atom_site_fract_x
_atom_site_fract_y
_atom_site_fract_z
Si Si1 0.500000 0.121464 0.953390
Si Si2 0.500000 0.392983 0.119983
Si Si3 0.179911 0.612203 0.540943
Si Si4 0.651218 0.262656 0.908033
Si Si5 0.099669 0.619196 0.281609
Si Si6 0.187230 0.113221 0.654807
Si Si7 0.000000 0.831345 0.607175
O O1 0.587926 0.167254 0.919387
O O2 0.500000 0.000000 0.955491
O O3 0.500000 0.169586 0.027066
O O4 0.500000 0.500000 0.159250
O O5 0.413303 0.395484 0.076080
O O6 0.500000 0.277771 0.142838
O O7 0.208015 0.500000 0.519790
O O8 0.166372 0.682149 0.478148
O O9 0.247101 0.647784 0.597667
O O10 0.750000 0.250000 0.882753
O O11 0.607020 0.332065 0.853182
O O12 0.112292 0.500000 0.286820
O O13 0.169191 0.659722 0.227259
O O14 0.000000 0.634254 0.257585
O O15 0.089960 0.114915 0.624973
O O16 0.217159 0.000000 0.667128
#
# Coordination Sequence:
#
# PCOD9369512 Si02
#       7
#     8   8  16  16  16  16   8
#     4  12  26  43  65  97 143 188 231 290 354 417
#     4  10  22  38  58  93 128 166 213 271 334 387
#     4  10  21  40  66  97 135 172 218 280 336 397
#     4  12  24  42  66 100 136 181 231 276 348 424
#     4  10  21  42  70  98 130 174 229 288 343 402
#     4  10  21  38  66 101 133 169 222 282 338 398
#     4  12  20  37  63  90 125 166 216 275 336 402
#
# _framework density 21.286486
#
# number of rings (size 3 to 8) (size 9 to 14) (size 15 to 20)
#    0.000    1.273    3.636    2.455    0.000    2.909 
#    3.273    0.000    0.000    2.182    0.000    0.000 
#    0.000    0.000    0.000    0.000    0.000    0.000 
#
# Total GULP energy -122615.286924 kJ/mol
# GULP energy per Si atom -5573.422133 kJ/mol
# Density = 2.123804 g / cm^3
# Si number density = 21.286486 Si / 1000 Ang^3
#
#
#
# Elastic Constant Matrix: (Units=GPa)
#
#
# Indices 1 2 3 4 5 6 
#
# 1 127.8942 30.1679 43.3530 0.0000 0.0000 0.0000
# 2 30.1679 133.8228 35.1849 0.0000 0.0000 0.0000
# 3 43.3530 35.1849 109.4153 0.0000 0.0000 0.0000
# 4 0.0000 0.0000 0.0000 -0.3302 0.0000 0.0000
# 5 0.0000 0.0000 0.0000 0.0000 7.9725 0.0000
# 6 0.0000 0.0000 0.0000 0.0000 0.0000 26.4332
#
#
#
# Elastic Compliance Matrix: (Units=1/GPa)
#
#
# Indices 1 2 3 4 5 6 
#
# 1 0.009211 -0.001220 -0.003257 0.000000 0.000000 0.000000
# 2 -0.001220 0.008324 -0.002193 0.000000 0.000000 0.000000
# 3 -0.003257 -0.002193 0.011135 0.000000 0.000000 0.000000
# 4 0.000000 0.000000 0.000000 -3.028477 0.000000 0.000000
# 5 0.000000 0.000000 0.000000 0.000000 0.125431 0.000000
# 6 0.000000 0.000000 0.000000 0.000000 0.000000 0.037831
#
#
# Mechanical properties :
#
#
# Convention : Reuss Voigt Hill
#
# Bulk Modulus (GPa) = 65.23514 65.39378 65.31446
# Shear Modulus (GPa) = -1.77425 24.31020 11.26797
#
# Velocity S-wave (km/s) = -0.91396 3.38309 2.30325
# Velocity P-wave (km/s) = 5.44050 6.78586 6.15008
#
# Compressibility (1/GPa) = 0.01532916
#
# Stress axis : x y z
#
# Youngs Moduli (GPa) = 108.56739 120.13008 89.80327
#
# Poissons Ratio (x) = 0.14656 0.29251
# Poissons Ratio (y) = 0.13245 0.19698
# Poissons Ratio (z) = 0.35363 0.26350
#
# Static dielectric constant tensor:
#      x y z
#    x 1.821600 0.000000 0.000000 
#    y 0.000000 1.850530 0.000000 
#    z 0.000000 0.000000 1.752010 
# 
# From -- ./inp_files/25041.got.cif
#   From: 2010.05.17/outbox.cif.g08.bks.cpg/sg42_13_cif.got.tgz:25041.got - 2010.06.03 19:03:34.
