data_PCOD9369044
_publ_section_title
;
Structure prediction by ZEFSAII (Michael W. Deem and Ramdas Pophale) SiO2 
 PCOD9369044
Probable space group: F M M 2
;
_chemical_formula_sum "Si O2"
_cell_formula_units_Z 116
_cell_length_a 26.939122
_cell_length_b 17.989030
_cell_length_c 11.755545
_cell_angle_alpha 90.000000
_cell_angle_beta 90.000000
_cell_angle_gamma 90.000000
_cell_volume 5696.839073
_symmetry_space_group_name_H-M "F M M 2"
_symmetry_group_IT_number 42
_symmetry_cell_setting 'orthorhombic'
loop_
_space_group_symop_operation_xyz
x,y,z
-x,-y,z
-x,y,z
x,-y,z
x,1/2+y,1/2+z
-x,1/2-y,1/2+z
-x,1/2+y,1/2+z
x,1/2-y,1/2+z
1/2+x,y,1/2+z
1/2-x,-y,1/2+z
1/2-x,y,1/2+z
1/2+x,-y,1/2+z
1/2+x,1/2+y,z
1/2-x,1/2-y,z
1/2-x,1/2+y,z
1/2+x,1/2-y,z
loop_
_atom_site_type_symbol
_atom_site_label
_atom_site_fract_x
_atom_site_fract_y
_atom_site_fract_z
Si Si1 0.910060 0.882012 0.990650
Si Si2 0.362533 0.314773 0.190162
Si Si3 0.944333 0.778317 0.819265
Si Si4 0.775782 0.668679 0.867035
Si Si5 0.443733 0.088059 0.135377
Si Si6 0.321731 0.085844 0.312974
Si Si7 0.848028 0.662902 0.075732
Si Si8 0.000000 0.500000 0.480653
O O1 0.931778 0.803261 0.946511
O O2 0.864515 0.899562 0.905710
O O3 0.888260 0.879096 0.117433
O O4 0.956038 0.936653 0.980000
O O5 0.402850 0.277241 0.273567
O O6 0.312991 0.333215 0.259259
O O7 0.351529 0.250744 0.097446
O O8 0.942528 0.854877 0.742974
O O9 0.000000 0.748667 0.808556
O O10 0.750000 0.750000 0.873467
O O11 0.731188 0.610969 0.859180
O O12 0.809250 0.651607 0.976173
O O13 0.500000 0.092470 0.089575
O O14 0.400461 0.120792 0.055950
O O15 0.435384 0.000000 0.164813
O O16 0.330902 0.131356 0.197756
O O17 0.322451 0.000000 0.283413
#
# Coordination Sequence:
#
# PCOD9369044 Si02
#       8
#    16  16  16  16  16  16  16   4
#     4  12  24  44  71 106 139 181 234 281 352 425
#     4  11  24  43  67 100 137 178 232 290 350 424
#     4  10  20  35  62 100 134 176 223 280 341 408
#     4  12  26  47  71  96 132 189 233 290 367 415
#     4   9  18  33  61  94 132 173 218 275 336 400
#     4  12  26  44  68 103 137 177 243 295 348 419
#     4  11  23  41  69 100 138 170 235 291 350 419
#     4  12  28  44  76 104 150 192 218 292 350 422
#
# _framework density 20.362169000000002
#
# number of rings (size 3 to 8) (size 9 to 14) (size 15 to 20)
#    0.000    0.966    5.517    2.069    5.793    1.103 
#    1.241    0.690    0.000    0.000    0.000    0.000 
#    0.000    0.000    0.000    0.000    0.000    0.000 
#
# Total GULP energy -161759.427686 kJ/mol
# GULP energy per Si atom -5577.911300 kJ/mol
# Density = 2.031582 g / cm^3
# Si number density = 20.362169 Si / 1000 Ang^3
#
#
#
# Elastic Constant Matrix: (Units=GPa)
#
#
# Indices 1 2 3 4 5 6 
#
# 1 200.1523 31.9913 63.7865 0.0000 0.0000 0.0000
# 2 31.9913 31.5522 20.2305 0.0000 0.0000 0.0000
# 3 63.7865 20.2305 71.7309 0.0000 0.0000 0.0000
# 4 0.0000 0.0000 0.0000 -10.6697 0.0000 0.0000
# 5 0.0000 0.0000 0.0000 0.0000 24.2974 0.0000
# 6 0.0000 0.0000 0.0000 0.0000 0.0000 -52.9577
#
#
#
# Elastic Compliance Matrix: (Units=1/GPa)
#
#
# Indices 1 2 3 4 5 6 
#
# 1 0.007361 -0.003988 -0.005421 0.000000 0.000000 0.000000
# 2 -0.003988 0.040850 -0.007975 0.000000 0.000000 0.000000
# 3 -0.005421 -0.007975 0.021011 0.000000 0.000000 0.000000
# 4 0.000000 0.000000 0.000000 -0.093723 0.000000 0.000000
# 5 0.000000 0.000000 0.000000 0.000000 0.041157 0.000000
# 6 0.000000 0.000000 0.000000 0.000000 0.000000 -0.018883
#
#
# Mechanical properties :
#
#
# Convention : Reuss Voigt Hill
#
# Bulk Modulus (GPa) = 29.02390 59.49467 44.25929
# Shear Modulus (GPa) = 113.56921 4.62914 59.09917
#
# Velocity S-wave (km/s) = 7.47634 1.50942 5.39324
# Velocity P-wave (km/s) = 9.42403 5.68502 7.78241
#
# Compressibility (1/GPa) = 0.03445436
#
# Stress axis : x y z
#
# Youngs Moduli (GPa) = 135.84565 24.47973 47.59373
#
# Poissons Ratio (x) = 0.09762 0.25802
# Poissons Ratio (y) = 0.54171 0.37956
# Poissons Ratio (z) = 0.73647 0.19523
#
# Static dielectric constant tensor:
#      x y z
#    x 1.748440 0.000000 0.000000 
#    y 0.000000 1.730580 0.000000 
#    z 0.000000 0.000000 1.741150 
# 
# From -- ./inp_files/10742.got.cif
#   From: 2010.05.17/outbox.cif.g08.bks.cpg/sg42_6_cif.got.tgz:10742.got - 2010.06.03 19:03:34.
