data_PCOD9369187
_publ_section_title
;
Structure prediction by ZEFSAII (Michael W. Deem and Ramdas Pophale) SiO2 
 PCOD9369187
Probable space group: F M M 2
;
_chemical_formula_sum "Si O2"
_cell_formula_units_Z 96
_cell_length_a 13.403706
_cell_length_b 19.242909
_cell_length_c 18.474566
_cell_angle_alpha 90.000000
_cell_angle_beta 90.000000
_cell_angle_gamma 90.000000
_cell_volume 4765.076357
_symmetry_space_group_name_H-M "F M M 2"
_symmetry_group_IT_number 42
_symmetry_cell_setting 'orthorhombic'
loop_
_space_group_symop_operation_xyz
x,y,z
-x,-y,z
-x,y,z
x,-y,z
x,1/2+y,1/2+z
-x,1/2-y,1/2+z
-x,1/2+y,1/2+z
x,1/2-y,1/2+z
1/2+x,y,1/2+z
1/2-x,-y,1/2+z
1/2-x,y,1/2+z
1/2+x,-y,1/2+z
1/2+x,1/2+y,z
1/2-x,1/2-y,z
1/2-x,1/2+y,z
1/2+x,1/2-y,z
loop_
_atom_site_type_symbol
_atom_site_label
_atom_site_fract_x
_atom_site_fract_y
_atom_site_fract_z
Si Si1 0.612897 0.375709 0.916350
Si Si2 0.110262 0.000000 0.392687
Si Si3 0.885596 0.213718 0.444324
Si Si4 0.754322 0.618981 0.542075
Si Si5 0.119306 0.584726 0.672294
Si Si6 0.789114 0.368719 0.821515
Si Si7 0.111212 0.500000 0.065916
O O1 0.500000 0.401380 0.911193
O O2 0.610986 0.296788 0.947645
O O3 0.671992 0.371419 0.840629
O O4 0.683296 0.413672 0.974761
O O5 0.164335 0.066811 0.364174
O O6 0.103717 0.000000 0.478561
O O7 0.000000 0.000000 0.360541
O O8 0.814251 0.178571 0.504661
O O9 0.839471 0.194551 0.365746
O O10 0.000000 0.187010 0.450004
O O11 0.839241 0.626391 0.602674
O O12 0.675941 0.567802 0.580824
O O13 0.137250 0.500000 0.667662
O O14 0.176641 0.618623 0.740301
O O15 0.000000 0.593014 0.679662
O O16 0.000000 0.500000 0.096441
#
# Coordination Sequence:
#
# PCOD9369187 Si02
#       7
#    16   8  16  16  16  16   8
#     4  10  22  39  58  83 115 150 193 239 288 341
#     4  11  18  29  54  86 110 135 185 244 288 333
#     4  10  20  37  62  87 110 146 194 244 288 331
#     4  11  20  36  56  84 116 151 186 232 286 342
#     4  11  23  37  55  83 120 157 191 230 283 347
#     4  11  20  35  58  83 113 149 190 237 284 338
#     4  11  20  31  54  88 114 139 185 242 290 337
#
# _framework density 20.146581000000001
#
# number of rings (size 3 to 8) (size 9 to 14) (size 15 to 20)
#    0.000    1.333    5.000    4.500    0.000    0.000 
#    0.000    6.250    0.000    4.000    0.000    0.000 
#    0.000    0.000    0.000    0.000    0.000    0.000 
#
# Total GULP energy -133756.669874 kJ/mol
# GULP energy per Si atom -5573.194578 kJ/mol
# Density = 2.010073 g / cm^3
# Si number density = 20.146581 Si / 1000 Ang^3
#
#
#
# Elastic Constant Matrix: (Units=GPa)
#
#
# Indices 1 2 3 4 5 6 
#
# 1 171.2038 9.1493 38.4538 0.0000 0.0000 0.0000
# 2 9.1493 42.3149 -4.0239 0.0000 0.0000 0.0000
# 3 38.4538 -4.0239 110.2628 0.0000 0.0000 0.0000
# 4 0.0000 0.0000 0.0000 10.7812 0.0000 0.0000
# 5 0.0000 0.0000 0.0000 0.0000 27.5296 0.0000
# 6 0.0000 0.0000 0.0000 0.0000 0.0000 28.3280
#
#
#
# Elastic Compliance Matrix: (Units=1/GPa)
#
#
# Indices 1 2 3 4 5 6 
#
# 1 0.006445 -0.001613 -0.002307 0.000000 0.000000 0.000000
# 2 -0.001613 0.024118 0.001443 0.000000 0.000000 0.000000
# 3 -0.002307 0.001443 0.009926 0.000000 0.000000 0.000000
# 4 0.000000 0.000000 0.000000 0.092754 0.000000 0.000000
# 5 0.000000 0.000000 0.000000 0.000000 0.036325 0.000000
# 6 0.000000 0.000000 0.000000 0.000000 0.000000 0.035301
#
#
# Mechanical properties :
#
#
# Convention : Reuss Voigt Hill
#
# Bulk Modulus (GPa) = 28.14041 45.65997 36.90019
# Shear Modulus (GPa) = 22.55621 32.00792 27.28207
#
# Velocity S-wave (km/s) = 3.34968 3.99024 3.68391
# Velocity P-wave (km/s) = 5.38132 6.62891 6.03743
#
# Compressibility (1/GPa) = 0.03553608
#
# Stress axis : x y z
#
# Youngs Moduli (GPa) = 155.15238 41.46237 100.74222
#
# Poissons Ratio (x) = 0.06688 0.23238
# Poissons Ratio (y) = 0.25025 -0.14534
# Poissons Ratio (z) = 0.35788 -0.05982
#
# Static dielectric constant tensor:
#      x y z
#    x 1.775110 0.000000 0.000000 
#    y 0.000000 1.755860 0.000000 
#    z 0.000000 0.000000 1.716140 
# 
# From -- ./inp_files/24478.got.cif
#   From: 2010.05.17/outbox.cif.g08.bks.cpg/sg42_13_cif.got.tgz:24478.got - 2010.06.03 19:03:34.
