data_PCOD9369963
_publ_section_title
;
Structure prediction by ZEFSAII (Michael W. Deem and Ramdas Pophale) SiO2 
 PCOD9369963
Probable space group: F M M 2
;
_chemical_formula_sum "Si O2"
_cell_formula_units_Z 68
_cell_length_a 7.948605
_cell_length_b 19.671127
_cell_length_c 20.122605
_cell_angle_alpha 90.000000
_cell_angle_beta 90.000000
_cell_angle_gamma 90.000000
_cell_volume 3146.330643
_symmetry_space_group_name_H-M "F M M 2"
_symmetry_group_IT_number 42
_symmetry_cell_setting 'orthorhombic'
loop_
_space_group_symop_operation_xyz
x,y,z
-x,-y,z
-x,y,z
x,-y,z
x,1/2+y,1/2+z
-x,1/2-y,1/2+z
-x,1/2+y,1/2+z
x,1/2-y,1/2+z
1/2+x,y,1/2+z
1/2-x,-y,1/2+z
1/2-x,y,1/2+z
1/2+x,-y,1/2+z
1/2+x,1/2+y,z
1/2-x,1/2-y,z
1/2-x,1/2+y,z
1/2+x,1/2-y,z
loop_
_atom_site_type_symbol
_atom_site_label
_atom_site_fract_x
_atom_site_fract_y
_atom_site_fract_z
Si Si1 0.196848 0.172494 0.153970
Si Si2 0.695840 0.077629 0.037858
Si Si3 0.307896 0.678358 0.927102
Si Si4 0.306951 0.110748 0.798688
Si Si5 0.000000 0.500000 0.307652
O O1 0.250000 0.250000 0.142809
O O2 0.287993 0.119266 0.105936
O O3 0.222229 0.151287 0.230272
O O4 0.000000 0.166574 0.138330
O O5 0.500000 0.075955 0.018611
O O6 0.755574 0.000000 0.045176
O O7 0.790060 0.118724 0.980695
O O8 0.500000 0.684950 0.906718
O O9 0.250000 0.750000 0.957266
O O10 0.201846 0.659773 0.862346
O O11 0.500000 0.082662 0.795423
O O12 0.152295 0.058442 0.806887
#
# Coordination Sequence:
#
# PCOD9369963 Si02
#       5
#    16  16  16  16   4
#     4  11  25  44  70 100 136 181 230 288 345 416
#     4  11  26  44  68  98 137 181 230 288 349 417
#     4  12  25  45  71 101 138 184 233 289 350 417
#     4  11  26  45  72 107 142 181 235 287 346 419
#     4  12  26  44  72 106 144 192 220 290 364 402
#
# _framework density 21.612477999999999
#
# number of rings (size 3 to 8) (size 9 to 14) (size 15 to 20)
#    0.000    0.706    1.176    5.294    6.588    3.765 
#    0.000    0.000    0.000    0.000    0.000    0.000 
#    0.000    0.000    0.000    0.000    0.000    0.000 
#
# Total GULP energy -94825.548346 kJ/mol
# GULP energy per Si atom -5577.973432 kJ/mol
# Density = 2.156329 g / cm^3
# Si number density = 21.612478 Si / 1000 Ang^3
#
#
#
# Elastic Constant Matrix: (Units=GPa)
#
#
# Indices 1 2 3 4 5 6 
#
# 1 124.4637 42.0920 7.5543 0.0000 0.0000 0.0000
# 2 42.0920 165.4750 34.9600 0.0000 0.0000 0.0000
# 3 7.5543 34.9600 95.6785 0.0000 0.0000 0.0000
# 4 0.0000 0.0000 0.0000 -201.0194 0.0000 0.0000
# 5 0.0000 0.0000 0.0000 0.0000 28.5891 0.0000
# 6 0.0000 0.0000 0.0000 0.0000 0.0000 28.5686
#
#
#
# Elastic Compliance Matrix: (Units=1/GPa)
#
#
# Indices 1 2 3 4 5 6 
#
# 1 0.008792 -0.002265 0.000133 0.000000 0.000000 0.000000
# 2 -0.002265 0.007132 -0.002427 0.000000 0.000000 0.000000
# 3 0.000133 -0.002427 0.011328 0.000000 0.000000 0.000000
# 4 0.000000 0.000000 0.000000 -0.004975 0.000000 0.000000
# 5 0.000000 0.000000 0.000000 0.000000 0.034978 0.000000
# 6 0.000000 0.000000 0.000000 0.000000 0.000000 0.035003
#
#
# Mechanical properties :
#
#
# Convention : Reuss Voigt Hill
#
# Bulk Modulus (GPa) = 55.14126 61.64778 58.39452
# Shear Modulus (GPa) = 46.54553 -8.70495 18.92029
#
# Velocity S-wave (km/s) = 4.64577 -2.00910 2.96198
# Velocity P-wave (km/s) = 7.37201 4.81706 6.22698
#
# Compressibility (1/GPa) = 0.01813524
#
# Stress axis : x y z
#
# Youngs Moduli (GPa) = 113.73645 140.21186 88.27667
#
# Poissons Ratio (x) = 0.31753 -0.01177
# Poissons Ratio (y) = 0.25757 0.21426
# Poissons Ratio (z) = -0.01516 0.34032
#
# Static dielectric constant tensor:
#      x y z
#    x 1.764760 0.000000 0.000000 
#    y 0.000000 1.793750 0.000000 
#    z 0.000000 0.000000 1.751430 
# 
# From -- ./inp_files/23240.got.cif
#   From: 2010.05.17/outbox.cif.g08.bks.cpg/sg42_12_cif.got.tgz:23240.got - 2010.06.03 19:03:34.
