data_PCOD9369989
_publ_section_title
;
Structure prediction by ZEFSAII (Michael W. Deem and Ramdas Pophale) SiO2 
 PCOD9369989
Probable space group: F M M 2
;
_chemical_formula_sum "Si O2"
_cell_formula_units_Z 80
_cell_length_a 7.579912
_cell_length_b 19.875364
_cell_length_c 27.174365
_cell_angle_alpha 90.000000
_cell_angle_beta 90.000000
_cell_angle_gamma 90.000000
_cell_volume 4093.913472
_symmetry_space_group_name_H-M "F M M 2"
_symmetry_group_IT_number 42
_symmetry_cell_setting 'orthorhombic'
loop_
_space_group_symop_operation_xyz
x,y,z
-x,-y,z
-x,y,z
x,-y,z
x,1/2+y,1/2+z
-x,1/2-y,1/2+z
-x,1/2+y,1/2+z
x,1/2-y,1/2+z
1/2+x,y,1/2+z
1/2-x,-y,1/2+z
1/2-x,y,1/2+z
1/2+x,-y,1/2+z
1/2+x,1/2+y,z
1/2-x,1/2-y,z
1/2-x,1/2+y,z
1/2+x,1/2-y,z
loop_
_atom_site_type_symbol
_atom_site_label
_atom_site_fract_x
_atom_site_fract_y
_atom_site_fract_z
Si Si1 0.710092 0.423272 0.277100
Si Si2 0.712080 0.328055 0.363495
Si Si3 0.288125 0.422152 0.669727
Si Si4 0.784394 0.921499 0.562216
Si Si5 0.788185 0.671902 0.974022
O O1 0.500000 0.428093 0.283770
O O2 0.781453 0.500000 0.278333
O O3 0.780641 0.376933 0.320895
O O4 0.737194 0.392926 0.222517
O O5 0.500000 0.335075 0.364873
O O6 0.750000 0.250000 0.352864
O O7 0.778590 0.343146 0.418784
O O8 0.500000 0.422599 0.668670
O O9 0.226595 0.500000 0.671068
O O10 0.228665 0.395562 0.616499
O O11 0.720986 0.876425 0.517061
O O12 0.000000 0.920395 0.561667
O O13 0.733831 0.000000 0.557346
O O14 0.750000 0.750000 0.984514
O O15 0.000000 0.664173 0.972703
#
# Coordination Sequence:
#
# PCOD9369989 Si02
#       5
#    16  16  16  16  16
#     4   9  17  29  45  66  90 113 141 179 218 254
#     4   9  18  31  46  64  87 116 146 176 214 258
#     4   8  14  26  44  65  88 114 143 174 211 255
#     4   8  14  26  46  69  88 109 143 182 213 248
#     4   9  17  30  47  65  87 115 144 176 216 258
#
# _framework density 19.541205999999999
#
# number of rings (size 3 to 8) (size 9 to 14) (size 15 to 20)
#    0.000    3.400    0.000    1.200    0.000    1.600 
#    0.000    6.000    0.000    6.600    0.000    5.600 
#    0.000    0.000    0.000    0.000    0.000    0.000 
#
# Total GULP energy -111373.733385 kJ/mol
# GULP energy per Si atom -5568.686669 kJ/mol
# Density = 1.949673 g / cm^3
# Si number density = 19.541206 Si / 1000 Ang^3
#
#
#
# Elastic Constant Matrix: (Units=GPa)
#
#
# Indices 1 2 3 4 5 6 
#
# 1 42.2151 1.4458 7.9289 0.0000 0.0000 0.0000
# 2 1.4458 74.0157 113.4075 0.0000 0.0000 0.0000
# 3 7.9289 113.4075 231.9275 0.0000 0.0000 0.0000
# 4 0.0000 0.0000 0.0000 -173.5922 0.0000 0.0000
# 5 0.0000 0.0000 0.0000 0.0000 14.6828 0.0000
# 6 0.0000 0.0000 0.0000 0.0000 0.0000 14.9675
#
#
#
# Elastic Compliance Matrix: (Units=1/GPa)
#
#
# Indices 1 2 3 4 5 6 
#
# 1 0.024024 0.003147 -0.002360 0.000000 0.000000 0.000000
# 2 0.003147 0.054286 -0.026652 0.000000 0.000000 0.000000
# 3 -0.002360 -0.026652 0.017425 0.000000 0.000000 0.000000
# 4 0.000000 0.000000 0.000000 -0.005761 0.000000 0.000000
# 5 0.000000 0.000000 0.000000 0.000000 0.068107 0.000000
# 6 0.000000 0.000000 0.000000 0.000000 0.000000 0.066812
#
#
# Mechanical properties :
#
#
# Convention : Reuss Voigt Hill
#
# Bulk Modulus (GPa) = 22.72554 65.96919 44.34737
# Shear Modulus (GPa) = 17.16496 -13.76331 1.70082
#
# Velocity S-wave (km/s) = 2.96699 -2.65679 0.93395
# Velocity P-wave (km/s) = 4.83655 4.94176 4.88943
#
# Compressibility (1/GPa) = 0.04400336
#
# Stress axis : x y z
#
# Youngs Moduli (GPa) = 41.62557 18.42096 57.38969
#
# Poissons Ratio (x) = -0.05796 0.13544
# Poissons Ratio (y) = -0.13098 1.52956
# Poissons Ratio (z) = 0.09823 0.49096
#
# Static dielectric constant tensor:
#      x y z
#    x 1.752030 0.000000 0.000000 
#    y 0.000000 1.644900 0.000000 
#    z 0.000000 0.000000 1.729730 
# 
# From -- ./inp_files/28615.got.cif
#   From: 2010.05.17/outbox.cif.g08.bks.cpg/sg42_15_cif.got.tgz:28615.got - 2010.06.03 19:03:34.
