data_PCOD9369590
_publ_section_title
;
Structure prediction by ZEFSAII (Michael W. Deem and Ramdas Pophale) SiO2 
 PCOD9369590
Probable space group: F M M 2
;
_chemical_formula_sum "Si O2"
_cell_formula_units_Z 100
_cell_length_a 25.348021
_cell_length_b 16.588391
_cell_length_c 10.671246
_cell_angle_alpha 90.000000
_cell_angle_beta 90.000000
_cell_angle_gamma 90.000000
_cell_volume 4487.076288
_symmetry_space_group_name_H-M "F M M 2"
_symmetry_group_IT_number 42
_symmetry_cell_setting 'orthorhombic'
loop_
_space_group_symop_operation_xyz
x,y,z
-x,-y,z
-x,y,z
x,-y,z
x,1/2+y,1/2+z
-x,1/2-y,1/2+z
-x,1/2+y,1/2+z
x,1/2-y,1/2+z
1/2+x,y,1/2+z
1/2-x,-y,1/2+z
1/2-x,y,1/2+z
1/2+x,-y,1/2+z
1/2+x,1/2+y,z
1/2-x,1/2-y,z
1/2-x,1/2+y,z
1/2+x,1/2-y,z
loop_
_atom_site_type_symbol
_atom_site_label
_atom_site_fract_x
_atom_site_fract_y
_atom_site_fract_z
Si Si1 0.699768 0.707639 0.843180
Si Si2 0.869579 0.592785 0.991544
Si Si3 0.107096 0.192844 0.254946
Si Si4 0.000000 0.000000 0.843744
Si Si5 0.646521 0.093565 0.533359
Si Si6 0.733164 0.908858 0.127096
Si Si7 0.556809 0.362712 0.716329
O O1 0.750000 0.750000 0.909031
O O2 0.665920 0.770131 0.762078
O O3 0.724475 0.645866 0.745904
O O4 0.656411 0.659020 0.924050
O O5 0.872416 0.500000 0.952962
O O6 0.808411 0.613686 0.017636
O O7 0.898420 0.606293 0.123482
O O8 0.896896 0.645696 0.885368
O O9 0.107570 0.132576 0.136716
O O10 0.068972 0.269947 0.247178
O O11 0.045447 0.072819 0.826816
O O12 0.706519 0.090867 0.586617
O O13 0.633680 0.000000 0.504601
O O14 0.718056 0.000000 0.162063
O O15 0.500000 0.366983 0.646780
#
# Coordination Sequence:
#
# PCOD9369590 Si02
#       7
#    16  16  16   4  16  16  16
#     4  12  23  36  61  88 126 169 218 260 309 367
#     4  11  21  40  65  95 125 168 219 261 315 380
#     4  12  24  37  65  94 127 163 209 269 320 372
#     4   8  20  44  68  96 126 162 204 268 320 412
#     4  11  25  43  56  88 134 172 212 258 319 378
#     4  10  22  38  61  86 124 172 217 256 305 372
#     4  10  21  42  67  94 124 158 205 265 325 387
#
# _framework density 22.286228000000001
#
# number of rings (size 3 to 8) (size 9 to 14) (size 15 to 20)
#    0.480    0.640    4.000    2.880    2.240    0.640 
#    1.440    0.000    0.000    1.440    0.000    0.000 
#    0.000    0.000    0.000    0.000    0.000    0.000 
#
# Total GULP energy -139270.561651 kJ/mol
# GULP energy per Si atom -5570.822466 kJ/mol
# Density = 2.223550 g / cm^3
# Si number density = 22.286228 Si / 1000 Ang^3
#
#
#
# Elastic Constant Matrix: (Units=GPa)
#
#
# Indices 1 2 3 4 5 6 
#
# 1 49.6379 25.3227 -12.9057 0.0000 0.0000 0.0000
# 2 25.3227 113.4343 24.9350 0.0000 0.0000 0.0000
# 3 -12.9057 24.9350 35.1423 0.0000 0.0000 0.0000
# 4 0.0000 0.0000 0.0000 36.6123 0.0000 0.0000
# 5 0.0000 0.0000 0.0000 0.0000 5.0038 0.0000
# 6 0.0000 0.0000 0.0000 0.0000 0.0000 74.7044
#
#
#
# Elastic Compliance Matrix: (Units=1/GPa)
#
#
# Indices 1 2 3 4 5 6 
#
# 1 0.030787 -0.011088 0.019173 0.000000 0.000000 0.000000
# 2 -0.011088 0.014438 -0.014316 0.000000 0.000000 0.000000
# 3 0.019173 -0.014316 0.045655 0.000000 0.000000 0.000000
# 4 0.000000 0.000000 0.000000 0.027313 0.000000 0.000000
# 5 0.000000 0.000000 0.000000 0.000000 0.199847 0.000000
# 6 0.000000 0.000000 0.000000 0.000000 0.000000 0.013386
#
#
# Mechanical properties :
#
#
# Convention : Reuss Voigt Hill
#
# Bulk Modulus (GPa) = 12.75192 30.32428 21.53810
# Shear Modulus (GPa) = 13.51254 33.98826 23.75040
#
# Velocity S-wave (km/s) = 2.46502 3.90946 3.26805
# Velocity P-wave (km/s) = 3.71969 5.83222 4.89136
#
# Compressibility (1/GPa) = 0.07841955
#
# Stress axis : x y z
#
# Youngs Moduli (GPa) = 32.48104 69.26281 21.90345
#
# Poissons Ratio (x) = 0.76795 -0.41996
# Poissons Ratio (y) = 0.36013 0.31357
# Poissons Ratio (z) = -0.62277 0.99157
#
# Static dielectric constant tensor:
#      x y z
#    x 1.850480 0.000000 0.000000 
#    y 0.000000 2.041310 0.000000 
#    z 0.000000 0.000000 1.854360 
# 
# From -- ./inp_files/11052.got.cif
#   From: 2010.05.17/outbox.cif.g08.bks.cpg/sg42_6_cif.got.tgz:11052.got - 2010.06.03 19:03:34.
