data_PCOD9369231
_publ_section_title
;
Structure prediction by ZEFSAII (Michael W. Deem and Ramdas Pophale) SiO2 
 PCOD9369231
Probable space group: F M M 2
;
_chemical_formula_sum "Si O2"
_cell_formula_units_Z 96
_cell_length_a 24.124959
_cell_length_b 8.630544
_cell_length_c 25.801033
_cell_angle_alpha 90.000000
_cell_angle_beta 90.000000
_cell_angle_gamma 90.000000
_cell_volume 5372.072302
_symmetry_space_group_name_H-M "F M M 2"
_symmetry_group_IT_number 42
_symmetry_cell_setting 'orthorhombic'
loop_
_space_group_symop_operation_xyz
x,y,z
-x,-y,z
-x,y,z
x,-y,z
x,1/2+y,1/2+z
-x,1/2-y,1/2+z
-x,1/2+y,1/2+z
x,1/2-y,1/2+z
1/2+x,y,1/2+z
1/2-x,-y,1/2+z
1/2-x,y,1/2+z
1/2+x,-y,1/2+z
1/2+x,1/2+y,z
1/2-x,1/2-y,z
1/2-x,1/2+y,z
1/2+x,1/2-y,z
loop_
_atom_site_type_symbol
_atom_site_label
_atom_site_fract_x
_atom_site_fract_y
_atom_site_fract_z
Si Si1 0.500000 0.314191 0.698280
Si Si2 0.116953 0.813466 0.233236
Si Si3 0.687816 0.685615 0.637413
Si Si4 0.311112 0.813449 0.949108
Si Si5 0.189628 0.186254 0.329670
Si Si6 0.500000 0.813752 0.075843
Si Si7 0.382706 0.185182 0.541183
O O1 0.500000 0.500000 0.701467
O O2 0.444763 0.247842 0.724221
O O3 0.500000 0.272249 0.637080
O O4 0.155425 0.745860 0.187835
O O5 0.143580 0.765942 0.288195
O O6 0.117161 0.000000 0.229945
O O7 0.688351 0.500000 0.636957
O O8 0.750000 0.750000 0.637263
O O9 0.654995 0.746948 0.587391
O O10 0.250000 0.750000 0.963089
O O11 0.321574 0.767482 0.889163
O O12 0.310932 0.000000 0.952832
O O13 0.356080 0.743918 0.987772
O O14 0.250000 0.250000 0.314636
O O15 0.192656 0.000000 0.328857
O O16 0.444669 0.746885 0.050151
O O17 0.500000 0.000000 0.072186
O O18 0.381946 0.000000 0.543457
#
# Coordination Sequence:
#
# PCOD9369231 Si02
#       7
#     8  16  16  16  16   8  16
#     4  11  23  39  60  85 115 156 199 239 290 346
#     4  11  22  38  60  87 117 152 195 241 289 344
#     4  12  24  38  56  84 118 153 190 236 292 348
#     4  10  20  38  61  87 120 156 195 240 291 347
#     4   9  20  37  60  88 118 155 194 236 290 346
#     4  11  23  41  62  85 115 154 197 239 290 348
#     4  12  24  39  60  87 116 151 195 241 291 346
#
# _framework density 17.870197999999998
#
# number of rings (size 3 to 8) (size 9 to 14) (size 15 to 20)
#    0.000    1.167    1.667    5.500    0.000    4.000 
#    0.000    0.833    0.000    2.000    0.000    0.000 
#    0.000    0.000    0.000    0.000    0.000    0.000 
#
# Total GULP energy -134201.282595 kJ/mol
# GULP energy per Si atom -5591.720108 kJ/mol
# Density = 1.782952 g / cm^3
# Si number density = 17.870198 Si / 1000 Ang^3
#
#
#
# Elastic Constant Matrix: (Units=GPa)
#
#
# Indices 1 2 3 4 5 6 
#
# 1 201.4305 66.0368 105.1808 0.0000 0.0000 0.0000
# 2 66.0368 100.8226 51.5024 0.0000 0.0003 0.0000
# 3 105.1808 51.5024 122.0523 0.0000 0.0000 0.0000
# 4 0.0000 0.0000 0.0000 28.5065 0.0000 0.0000
# 5 0.0000 0.0003 0.0000 0.0000 255.9990 0.0000
# 6 0.0000 0.0000 0.0000 0.0000 0.0000 36.1001
#
#
#
# Elastic Compliance Matrix: (Units=1/GPa)
#
#
# Indices 1 2 3 4 5 6 
#
# 1 0.009536 -0.002611 -0.007116 0.000000 0.000000 0.000000
# 2 -0.002611 0.013359 -0.003387 0.000000 0.000000 0.000000
# 3 -0.007116 -0.003387 0.015755 0.000000 0.000000 0.000000
# 4 0.000000 0.000000 0.000000 0.035080 0.000000 0.000000
# 5 0.000000 0.000000 0.000000 0.000000 0.003906 0.000000
# 6 0.000000 0.000000 0.000000 0.000000 0.000000 0.027701
#
#
# Mechanical properties :
#
#
# Convention : Reuss Voigt Hill
#
# Bulk Modulus (GPa) = 80.50518 96.63837 88.57177
# Shear Modulus (GPa) = 36.84431 77.56016 57.20223
#
# Velocity S-wave (km/s) = 4.54560 6.59516 5.66386
# Velocity P-wave (km/s) = 8.52630 10.59199 9.61478
#
# Compressibility (1/GPa) = 0.01242156
#
# Stress axis : x y z
#
# Youngs Moduli (GPa) = 104.86063 74.85796 63.47130
#
# Poissons Ratio (x) = 0.19545 0.45169
# Poissons Ratio (y) = 0.27378 0.21497
# Poissons Ratio (z) = 0.74624 0.25354
#
# Static dielectric constant tensor:
#      x y z
#    x 1.566990 0.000000 0.000000 
#    y 0.000000 1.598950 0.000000 
#    z 0.000000 0.000000 1.606700 
# 
# From -- ./inp_files/30440.got.cif
#   From: 2010.05.17/outbox.cif.g08.bks.cpg/sg42_16_cif.got.tgz:30440.got - 2010.06.03 19:03:34.
