data_PCOD9369325
_publ_section_title
;
Structure prediction by ZEFSAII (Michael W. Deem and Ramdas Pophale) SiO2 
 PCOD9369325
Probable space group: F M M 2
;
_chemical_formula_sum "Si O2"
_cell_formula_units_Z 104
_cell_length_a 26.101394
_cell_length_b 21.704441
_cell_length_c 8.801373
_cell_angle_alpha 90.000000
_cell_angle_beta 90.000000
_cell_angle_gamma 90.000000
_cell_volume 4986.120088
_symmetry_space_group_name_H-M "F M M 2"
_symmetry_group_IT_number 42
_symmetry_cell_setting 'orthorhombic'
loop_
_space_group_symop_operation_xyz
x,y,z
-x,-y,z
-x,y,z
x,-y,z
x,1/2+y,1/2+z
-x,1/2-y,1/2+z
-x,1/2+y,1/2+z
x,1/2-y,1/2+z
1/2+x,y,1/2+z
1/2-x,-y,1/2+z
1/2-x,y,1/2+z
1/2+x,-y,1/2+z
1/2+x,1/2+y,z
1/2-x,1/2-y,z
1/2-x,1/2+y,z
1/2+x,1/2-y,z
loop_
_atom_site_type_symbol
_atom_site_label
_atom_site_fract_x
_atom_site_fract_y
_atom_site_fract_z
Si Si1 0.443727 0.106002 0.010980
Si Si2 0.407267 0.792723 0.793102
Si Si3 0.380717 0.927603 0.300743
Si Si4 0.060207 0.174980 0.955744
Si Si5 0.400027 0.500000 0.307386
Si Si6 0.726373 0.426804 0.949068
Si Si7 0.679132 0.111738 0.755077
O O1 0.500000 0.101627 0.082126
O O2 0.400472 0.095038 0.137446
O O3 0.437111 0.170217 0.924628
O O4 0.436057 0.053726 0.885253
O O5 0.432072 0.804033 0.628908
O O6 0.410822 0.722320 0.843651
O O7 0.351960 0.825583 0.783976
O O8 0.412891 0.890445 0.426291
O O9 0.320291 0.919881 0.329116
O O10 0.391987 0.000000 0.312103
O O11 0.000000 0.173429 0.920508
O O12 0.360512 0.445255 0.250193
O O13 0.731038 0.500000 0.984268
O O14 0.779616 0.403049 0.884189
O O15 0.708904 0.389851 0.096632
#
# Coordination Sequence:
#
# PCOD9369325 Si02
#       7
#    16  16  16  16   8  16  16
#     4  11  22  39  63  97 141 185 232 284 352 418
#     4  11  26  46  71 102 137 180 245 295 354 422
#     4  11  25  41  68 105 146 182 238 294 353 427
#     4  12  24  46  74  99 138 189 239 294 359 433
#     4  10  21  34  62  94 138 178 225 288 330 408
#     4  11  22  40  70 102 140 190 231 284 356 423
#     4  11  23  41  68 101 140 179 238 290 352 417
#
# _framework density 20.857900999999998
#
# number of rings (size 3 to 8) (size 9 to 14) (size 15 to 20)
#    0.000    0.923    3.846    3.000    4.308    0.923 
#    0.000    0.769    0.000    0.000    0.000    0.000 
#    0.000    0.000    0.000    0.000    0.000    0.000 
#
# Total GULP energy -144900.150208 kJ/mol
# GULP energy per Si atom -5573.082700 kJ/mol
# Density = 2.081043 g / cm^3
# Si number density = 20.857901 Si / 1000 Ang^3
#
#
#
# Elastic Constant Matrix: (Units=GPa)
#
#
# Indices 1 2 3 4 5 6 
#
# 1 80.1977 32.5803 27.3144 -0.0001 -0.0001 0.0000
# 2 32.5803 63.5511 25.5174 0.0006 0.0000 -0.0001
# 3 27.3144 25.5174 60.5991 0.0010 -0.0003 -0.0003
# 4 -0.0001 0.0006 0.0010 24.1430 -0.0001 -0.0003
# 5 -0.0001 0.0000 -0.0003 -0.0001 27.8710 0.0002
# 6 0.0000 -0.0001 -0.0003 -0.0003 0.0002 -15.6806
#
#
#
# Elastic Compliance Matrix: (Units=1/GPa)
#
#
# Indices 1 2 3 4 5 6 
#
# 1 0.016815 -0.006712 -0.004753 0.000000 0.000000 0.000000
# 2 -0.006712 0.021616 -0.006077 0.000000 0.000000 0.000000
# 3 -0.004753 -0.006077 0.021203 -0.000001 0.000000 0.000000
# 4 0.000000 0.000000 -0.000001 0.041420 0.000000 -0.000001
# 5 0.000000 0.000000 0.000000 0.000000 0.035880 0.000000
# 6 0.000000 0.000000 0.000000 -0.000001 0.000000 -0.063773
#
#
# Mechanical properties :
#
#
# Convention : Reuss Voigt Hill
#
# Bulk Modulus (GPa) = 40.73189 41.68579 41.20884
# Shear Modulus (GPa) = 42.94524 15.19574 29.07049
#
# Velocity S-wave (km/s) = 4.54248 2.70207 3.73733
# Velocity P-wave (km/s) = 6.86169 5.45563 6.19866
#
# Compressibility (1/GPa) = 0.02455079
#
# Stress axis : x y z
#
# Youngs Moduli (GPa) = 59.47211 46.26120 47.16298
#
# Poissons Ratio (x) = 0.31050 0.22415
# Poissons Ratio (y) = 0.39917 0.28661
# Poissons Ratio (z) = 0.28266 0.28113
#
# Static dielectric constant tensor:
#      x y z
#    x 1.762660 0.000000 0.000000 
#    y 0.000000 1.761190 0.000000 
#    z 0.000000 0.000000 1.793530 
# 
# From -- ./inp_files/4272.got.cif
#   From: 2010.05.17/outbox.cif.g08.bks.cpg/sg42_3_cif.got.tgz:4272.got - 2010.06.03 19:03:34.
