data_PCOD9369607
_publ_section_title
;
Structure prediction by ZEFSAII (Michael W. Deem and Ramdas Pophale) SiO2 
 PCOD9369607
Probable space group: F M M 2
;
_chemical_formula_sum "Si O2"
_cell_formula_units_Z 88
_cell_length_a 10.723536
_cell_length_b 31.387436
_cell_length_c 12.819479
_cell_angle_alpha 90.000000
_cell_angle_beta 90.000000
_cell_angle_gamma 90.000000
_cell_volume 4314.835364
_symmetry_space_group_name_H-M "F M M 2"
_symmetry_group_IT_number 42
_symmetry_cell_setting 'orthorhombic'
loop_
_space_group_symop_operation_xyz
x,y,z
-x,-y,z
-x,y,z
x,-y,z
x,1/2+y,1/2+z
-x,1/2-y,1/2+z
-x,1/2+y,1/2+z
x,1/2-y,1/2+z
1/2+x,y,1/2+z
1/2-x,-y,1/2+z
1/2-x,y,1/2+z
1/2+x,-y,1/2+z
1/2+x,1/2+y,z
1/2-x,1/2-y,z
1/2-x,1/2+y,z
1/2+x,1/2-y,z
loop_
_atom_site_type_symbol
_atom_site_label
_atom_site_fract_x
_atom_site_fract_y
_atom_site_fract_z
Si Si1 0.500000 0.000000 0.823690
Si Si2 0.776472 0.913579 0.031391
Si Si3 0.363158 0.639519 0.856772
Si Si4 0.639873 0.154159 0.699581
Si Si5 0.226953 0.000000 0.162008
Si Si6 0.000000 0.500000 0.173936
Si Si7 0.500000 0.072734 0.000244
Si Si8 0.138173 0.781759 0.018756
O O1 0.619362 0.000000 0.748042
O O2 0.500000 0.041671 0.898815
O O3 0.841202 0.882879 0.114687
O O4 0.781502 0.959715 0.084056
O O5 0.630613 0.902652 0.009309
O O6 0.843454 0.903903 0.922140
O O7 0.500000 0.638912 0.805968
O O8 0.249981 0.647435 0.779996
O O9 0.360002 0.678488 0.939147
O O10 0.500000 0.151641 0.744287
O O11 0.651537 0.197752 0.633833
O O12 0.361473 0.000000 0.221038
O O13 0.000000 0.458934 0.098967
O O14 0.250000 0.750000 0.996733
O O15 0.000000 0.761840 0.010904
#
# Coordination Sequence:
#
# PCOD9369607 Si02
#       8
#     4  16  16  16   8   4   8  16
#     4  11  24  34  64  93 110 150 213 262 308 347
#     4  10  22  40  60  84 124 159 202 253 310 349
#     4  10  23  40  60  88 127 158 200 249 301 357
#     4  10  23  41  62  89 123 160 204 247 300 361
#     4  10  22  36  62  85 115 158 203 253 300 359
#     4   7  16  42  52  69 120 150 177 252 310 339
#     4   9  20  38  58  83 115 151 201 254 295 361
#     4   9  20  41  63  89 124 159 192 246 299 358
#
# _framework density 20.394753000000001
#
# number of rings (size 3 to 8) (size 9 to 14) (size 15 to 20)
#    0.000    2.364    0.000    2.182    7.636    2.182 
#    3.273    3.636    2.000    1.091    0.000    0.000 
#    0.000    0.000    0.000    0.000    0.000    0.000 
#
# Total GULP energy -122732.715120 kJ/mol
# GULP energy per Si atom -5578.759778 kJ/mol
# Density = 2.034833 g / cm^3
# Si number density = 20.394753 Si / 1000 Ang^3
#
#
#
# Elastic Constant Matrix: (Units=GPa)
#
#
# Indices 1 2 3 4 5 6 
#
# 1 167.3725 8.2867 42.3909 0.0000 0.0000 0.0000
# 2 8.2867 38.0948 -17.5881 0.0000 0.0000 0.0000
# 3 42.3909 -17.5881 56.1490 0.0000 0.0000 0.0000
# 4 0.0000 0.0000 0.0000 14.4026 0.0000 0.0000
# 5 0.0000 0.0000 0.0000 0.0000 34.9450 0.0000
# 6 0.0000 0.0000 0.0000 0.0000 0.0000 30.3871
#
#
#
# Elastic Compliance Matrix: (Units=1/GPa)
#
#
# Indices 1 2 3 4 5 6 
#
# 1 0.008258 -0.005465 -0.007946 0.000000 0.000000 0.000000
# 2 -0.005465 0.034305 0.014872 0.000000 0.000000 0.000000
# 3 -0.007946 0.014872 0.028467 0.000000 0.000000 0.000000
# 4 0.000000 0.000000 0.000000 0.069432 0.000000 0.000000
# 5 0.000000 0.000000 0.000000 0.000000 0.028616 0.000000
# 6 0.000000 0.000000 0.000000 0.000000 0.000000 0.032909
#
#
# Mechanical properties :
#
#
# Convention : Reuss Voigt Hill
#
# Bulk Modulus (GPa) = 13.52242 36.42170 24.97206
# Shear Modulus (GPa) = 22.34966 31.18208 26.76587
#
# Velocity S-wave (km/s) = 3.31396 3.91439 3.62662
# Velocity P-wave (km/s) = 4.61387 6.19089 5.45962
#
# Compressibility (1/GPa) = 0.07395127
#
# Stress axis : x y z
#
# Youngs Moduli (GPa) = 121.09667 29.15002 35.12786
#
# Poissons Ratio (x) = 0.15931 0.27914
# Poissons Ratio (y) = 0.66180 -0.52241
# Poissons Ratio (z) = 0.96227 -0.43351
#
# Static dielectric constant tensor:
#      x y z
#    x 1.759030 0.000000 0.000000 
#    y 0.000000 1.728230 0.000000 
#    z 0.000000 0.000000 1.723540 
# 
# From -- ./inp_files/7112.got.cif
#   From: 2010.05.17/outbox.cif.g08.bks.cpg/sg42_4_cif.got.tgz:7112.got - 2010.06.03 19:03:34.
