data_PCOD9369084
_publ_section_title
;
Structure prediction by ZEFSAII (Michael W. Deem and Ramdas Pophale) SiO2 
 PCOD9369084
Probable space group: F M M 2
;
_chemical_formula_sum "Si O2"
_cell_formula_units_Z 88
_cell_length_a 15.013249
_cell_length_b 10.579654
_cell_length_c 22.902342
_cell_angle_alpha 90.000000
_cell_angle_beta 90.000000
_cell_angle_gamma 90.000000
_cell_volume 3637.693030
_symmetry_space_group_name_H-M "F M M 2"
_symmetry_group_IT_number 42
_symmetry_cell_setting 'orthorhombic'
loop_
_space_group_symop_operation_xyz
x,y,z
-x,-y,z
-x,y,z
x,-y,z
x,1/2+y,1/2+z
-x,1/2-y,1/2+z
-x,1/2+y,1/2+z
x,1/2-y,1/2+z
1/2+x,y,1/2+z
1/2-x,-y,1/2+z
1/2-x,y,1/2+z
1/2+x,-y,1/2+z
1/2+x,1/2+y,z
1/2-x,1/2-y,z
1/2-x,1/2+y,z
1/2+x,1/2-y,z
loop_
_atom_site_type_symbol
_atom_site_label
_atom_site_fract_x
_atom_site_fract_y
_atom_site_fract_z
Si Si1 0.355446 0.223816 0.789430
Si Si2 0.144693 0.768256 0.419395
Si Si3 0.901819 0.000000 0.884712
Si Si4 0.610529 0.500000 0.633990
Si Si5 0.390414 0.500000 0.070128
Si Si6 0.105641 0.281387 0.044905
Si Si7 0.868617 0.500000 0.265172
Si Si8 0.394626 0.000000 0.703097
O O1 0.250000 0.250000 0.790772
O O2 0.383112 0.183129 0.855133
O O3 0.401884 0.355020 0.770810
O O4 0.369527 0.120237 0.741028
O O5 0.250000 0.750000 0.418832
O O6 0.105265 0.626458 0.420886
O O7 0.120134 0.834625 0.479556
O O8 0.828394 0.000000 0.832633
O O9 0.000000 0.000000 0.856573
O O10 0.500000 0.500000 0.643357
O O11 0.635353 0.377042 0.595552
O O12 0.657842 0.500000 0.697119
O O13 0.500000 0.500000 0.064383
O O14 0.358071 0.362814 0.047077
O O15 0.361324 0.500000 0.137558
O O16 0.000000 0.271171 0.053737
O O17 0.500000 0.000000 0.697108
#
# Coordination Sequence:
#
# PCOD9369084 Si02
#       8
#    16  16   8   8   8  16   8   8
#     4  10  22  40  61  87 123 161 194 242 308 362
#     4  10  22  38  58  84 118 155 195 243 298 352
#     4  10  20  36  63  91 112 149 205 251 284 344
#     4  10  21  35  53  81 116 149 183 239 307 352
#     4   9  19  37  59  83 115 154 195 244 295 342
#     4  10  20  36  58  82 112 153 198 242 291 351
#     4  10  20  37  62  86 116 155 200 242 289 359
#     4  11  23  39  63  95 124 153 199 252 300 353
#
# _framework density 24.191157
#
# number of rings (size 3 to 8) (size 9 to 14) (size 15 to 20)
#    0.000    2.000    0.000    3.000    0.000   10.182 
#    0.000    6.364    0.000    0.000    0.000    0.000 
#    0.000    0.000    0.000    0.000    0.000    0.000 
#
# Total GULP energy -122649.014702 kJ/mol
# GULP energy per Si atom -5574.955214 kJ/mol
# Density = 2.413610 g / cm^3
# Si number density = 24.191157 Si / 1000 Ang^3
#
#
#
# Elastic Constant Matrix: (Units=GPa)
#
#
# Indices 1 2 3 4 5 6 
#
# 1 56.6995 10.2837 -7.8005 0.0000 0.0000 0.0000
# 2 10.2837 112.5290 51.7644 0.0000 0.0000 0.0000
# 3 -7.8005 51.7644 209.8601 0.0000 0.0000 0.0000
# 4 0.0000 0.0000 0.0000 24.1603 0.0000 0.0000
# 5 0.0000 0.0000 0.0000 0.0000 14.2423 0.0000
# 6 0.0000 0.0000 0.0000 0.0000 0.0000 13.6783
#
#
#
# Elastic Compliance Matrix: (Units=1/GPa)
#
#
# Indices 1 2 3 4 5 6 
#
# 1 0.018210 -0.002228 0.001227 0.000000 0.000000 0.000000
# 2 -0.002228 0.010297 -0.002623 0.000000 0.000000 0.000000
# 3 0.001227 -0.002623 0.005458 0.000000 0.000000 0.000000
# 4 0.000000 0.000000 0.000000 0.041390 0.000000 0.000000
# 5 0.000000 0.000000 0.000000 0.000000 0.070213 0.000000
# 6 0.000000 0.000000 0.000000 0.000000 0.000000 0.073108
#
#
# Mechanical properties :
#
#
# Convention : Reuss Voigt Hill
#
# Bulk Modulus (GPa) = 37.43207 54.17598 45.80403
# Shear Modulus (GPa) = 21.29203 32.07226 26.68214
#
# Velocity S-wave (km/s) = 2.96996 3.64508 3.32470
# Velocity P-wave (km/s) = 5.22187 6.33712 5.80633
#
# Compressibility (1/GPa) = 0.02671506
#
# Stress axis : x y z
#
# Youngs Moduli (GPa) = 54.91569 97.11879 183.23180
#
# Poissons Ratio (x) = 0.21641 -0.22473
# Poissons Ratio (y) = 0.12237 0.48055
# Poissons Ratio (z) = -0.06735 0.25471
#
# Static dielectric constant tensor:
#      x y z
#    x 2.000630 0.000000 0.000000 
#    y 0.000000 1.782710 0.000000 
#    z 0.000000 0.000000 1.914870 
# 
# From -- ./inp_files/25824.got.cif
#   From: 2010.05.17/outbox.cif.g08.bks.cpg/sg42_13_cif.got.tgz:25824.got - 2010.06.03 19:03:34.
