data_PCOD9369116
_publ_section_title
;
Structure prediction by ZEFSAII (Michael W. Deem and Ramdas Pophale) SiO2 
 PCOD9369116
Probable space group: F M M 2
;
_chemical_formula_sum "Si O2"
_cell_formula_units_Z 72
_cell_length_a 10.928047
_cell_length_b 24.611160
_cell_length_c 14.501808
_cell_angle_alpha 90.000000
_cell_angle_beta 90.000000
_cell_angle_gamma 90.000000
_cell_volume 3900.289007
_symmetry_space_group_name_H-M "F M M 2"
_symmetry_group_IT_number 42
_symmetry_cell_setting 'orthorhombic'
loop_
_space_group_symop_operation_xyz
x,y,z
-x,-y,z
-x,y,z
x,-y,z
x,1/2+y,1/2+z
-x,1/2-y,1/2+z
-x,1/2+y,1/2+z
x,1/2-y,1/2+z
1/2+x,y,1/2+z
1/2-x,-y,1/2+z
1/2-x,y,1/2+z
1/2+x,-y,1/2+z
1/2+x,1/2+y,z
1/2-x,1/2-y,z
1/2-x,1/2+y,z
1/2+x,1/2-y,z
loop_
_atom_site_type_symbol
_atom_site_label
_atom_site_fract_x
_atom_site_fract_y
_atom_site_fract_z
Si Si1 0.760144 0.370120 0.479330
Si Si2 0.500000 0.852660 0.232591
Si Si3 0.201934 0.062422 0.801751
Si Si4 0.000000 0.300583 0.426936
Si Si5 0.358213 0.061488 0.635476
Si Si6 0.000000 0.681519 0.016491
O O1 0.775171 0.417851 0.404690
O O2 0.874341 0.330225 0.458544
O O3 0.780968 0.395802 0.578937
O O4 0.625722 0.344479 0.478008
O O5 0.387443 0.893636 0.254231
O O6 0.500000 0.807055 0.314545
O O7 0.500000 0.827959 0.128885
O O8 0.325741 0.064519 0.742597
O O9 0.156151 0.000000 0.798327
O O10 0.000000 0.242658 0.477097
O O11 0.500000 0.071044 0.617372
O O12 0.327750 0.000000 0.605620
#
# Coordination Sequence:
#
# PCOD9369116 Si02
#       6
#    16   8  16   8  16   8
#     4  11  22  41  63  89 126 158 207 256 306 361
#     4  10  21  42  66  88 122 160 207 262 306 367
#     4  10  21  38  61  92 126 163 198 244 307 377
#     4  10  24  45  63  85 118 169 215 248 311 377
#     4  10  20  36  59  89 124 164 200 238 302 378
#     4  12  24  43  63  95 122 157 213 272 311 348
#
# _framework density 18.460170999999999
#
# number of rings (size 3 to 8) (size 9 to 14) (size 15 to 20)
#    0.000    1.556    3.333    1.667    1.556    0.000 
#    4.000    3.889    0.000    0.000    0.000    0.000 
#    0.000    0.000    0.000    0.000    0.000    0.000 
#
# Total GULP energy -100292.835586 kJ/mol
# GULP energy per Si atom -5571.824199 kJ/mol
# Density = 1.841815 g / cm^3
# Si number density = 18.460171 Si / 1000 Ang^3
#
#
#
# Elastic Constant Matrix: (Units=GPa)
#
#
# Indices 1 2 3 4 5 6 
#
# 1 97.5473 36.6892 7.8749 0.0000 0.0000 0.0000
# 2 36.6892 93.3919 38.7965 0.0000 0.0000 0.0000
# 3 7.8749 38.7965 81.6143 0.0000 0.0000 0.0000
# 4 0.0000 0.0000 0.0000 31.8009 0.0000 0.0000
# 5 0.0000 0.0000 0.0000 0.0000 24.3097 0.0000
# 6 0.0000 0.0000 0.0000 0.0000 0.0000 22.4751
#
#
#
# Elastic Compliance Matrix: (Units=1/GPa)
#
#
# Indices 1 2 3 4 5 6 
#
# 1 0.012150 -0.005341 0.001366 0.000000 0.000000 0.000000
# 2 -0.005341 0.015690 -0.006943 0.000000 0.000000 0.000000
# 3 0.001366 -0.006943 0.015421 0.000000 0.000000 0.000000
# 4 0.000000 0.000000 0.000000 0.031446 0.000000 0.000000
# 5 0.000000 0.000000 0.000000 0.000000 0.041136 0.000000
# 6 0.000000 0.000000 0.000000 0.000000 0.000000 0.044494
#
#
# Mechanical properties :
#
#
# Convention : Reuss Voigt Hill
#
# Bulk Modulus (GPa) = 46.67130 48.80831 47.73980
# Shear Modulus (GPa) = 26.41120 28.32998 27.37059
#
# Velocity S-wave (km/s) = 3.78658 3.92172 3.85474
# Velocity P-wave (km/s) = 6.66743 6.85592 6.76233
#
# Compressibility (1/GPa) = 0.02142645
#
# Stress axis : x y z
#
# Youngs Moduli (GPa) = 82.30541 63.73486 64.84481
#
# Poissons Ratio (x) = 0.34039 -0.08861
# Poissons Ratio (y) = 0.43957 0.45023
# Poissons Ratio (z) = -0.11247 0.44252
#
# Static dielectric constant tensor:
#      x y z
#    x 1.647830 0.000000 0.000000 
#    y 0.000000 1.634050 0.000000 
#    z 0.000000 0.000000 1.616980 
# 
# From -- ./inp_files/6877.got.cif
#   From: 2010.05.17/outbox.cif.g08.bks.cpg/sg42_4_cif.got.tgz:6877.got - 2010.06.03 19:03:34.
