data_PCOD9369934
_publ_section_title
;
Structure prediction by ZEFSAII (Michael W. Deem and Ramdas Pophale) SiO2 
 PCOD9369934
Probable space group: F M M 2
;
_chemical_formula_sum "Si O2"
_cell_formula_units_Z 96
_cell_length_a 15.033220
_cell_length_b 28.478017
_cell_length_c 10.795351
_cell_angle_alpha 90.000000
_cell_angle_beta 90.000000
_cell_angle_gamma 90.000000
_cell_volume 4621.665670
_symmetry_space_group_name_H-M "F M M 2"
_symmetry_group_IT_number 42
_symmetry_cell_setting 'orthorhombic'
loop_
_space_group_symop_operation_xyz
x,y,z
-x,-y,z
-x,y,z
x,-y,z
x,1/2+y,1/2+z
-x,1/2-y,1/2+z
-x,1/2+y,1/2+z
x,1/2-y,1/2+z
1/2+x,y,1/2+z
1/2-x,-y,1/2+z
1/2-x,y,1/2+z
1/2+x,-y,1/2+z
1/2+x,1/2+y,z
1/2-x,1/2-y,z
1/2-x,1/2+y,z
1/2+x,1/2-y,z
loop_
_atom_site_type_symbol
_atom_site_label
_atom_site_fract_x
_atom_site_fract_y
_atom_site_fract_z
Si Si1 0.368419 0.849569 0.879380
Si Si2 0.177956 0.052484 0.661138
Si Si3 0.175786 0.550845 0.877218
Si Si4 0.500000 0.210086 0.741655
Si Si5 0.693179 0.701570 0.868341
Si Si6 0.000000 0.783139 0.963709
Si Si7 0.402193 0.343732 0.658158
O O1 0.386143 0.904323 0.863439
O O2 0.413182 0.821388 0.768437
O O3 0.263784 0.839689 0.890856
O O4 0.404065 0.834069 0.012491
O O5 0.213124 0.053932 0.518556
O O6 0.251506 0.053575 0.768745
O O7 0.124219 0.101275 0.674184
O O8 0.134128 0.000000 0.672030
O O9 0.131346 0.500000 0.867518
O O10 0.500000 0.231817 0.606930
O O11 0.500000 0.245570 0.854732
O O12 0.750000 0.750000 0.885197
O O13 0.601077 0.696080 0.944983
O O14 0.662670 0.692314 0.726952
O O15 0.500000 0.338014 0.712734
#
# Coordination Sequence:
#
# PCOD9369934 Si02
#       7
#    16  16  16   8  16   8  16
#     4  11  24  42  67  95 130 179 219 273 332 392
#     4   9  18  34  60  93 127 168 217 271 330 391
#     4   9  18  35  60  94 128 167 219 272 326 391
#     4  12  28  48  67  98 133 171 220 275 322 397
#     4  12  26  43  66  96 131 173 219 268 329 391
#     4  12  30  46  68  98 133 171 223 271 324 385
#     4  11  23  41  66  95 133 169 219 276 330 391
#
# _framework density 20.771730999999999
#
# number of rings (size 3 to 8) (size 9 to 14) (size 15 to 20)
#    0.000    1.333    5.000    0.000    4.667    1.000 
#    0.000    0.417    0.000    0.000    0.000    2.333 
#    0.000    0.000    0.000    0.000    0.000    0.000 
#
# Total GULP energy -133683.772986 kJ/mol
# GULP energy per Si atom -5570.157208 kJ/mol
# Density = 2.072445 g / cm^3
# Si number density = 20.771731 Si / 1000 Ang^3
#
#
#
# Elastic Constant Matrix: (Units=GPa)
#
#
# Indices 1 2 3 4 5 6 
#
# 1 100.4606 21.2501 27.7715 0.0000 0.0000 0.0000
# 2 21.2501 90.8122 35.9472 0.0000 0.0000 0.0000
# 3 27.7715 35.9472 102.2153 0.0000 0.0000 0.0000
# 4 0.0000 0.0000 0.0000 30.0914 0.0000 0.0000
# 5 0.0000 0.0000 0.0000 0.0000 22.9174 0.0000
# 6 0.0000 0.0000 0.0000 0.0000 0.0000 -53.4236
#
#
#
# Elastic Compliance Matrix: (Units=1/GPa)
#
#
# Indices 1 2 3 4 5 6 
#
# 1 0.010962 -0.001610 -0.002412 0.000000 0.000000 0.000000
# 2 -0.001610 0.013029 -0.004145 0.000000 0.000000 0.000000
# 3 -0.002412 -0.004145 0.011896 0.000000 0.000000 0.000000
# 4 0.000000 0.000000 0.000000 0.033232 0.000000 0.000000
# 5 0.000000 0.000000 0.000000 0.000000 0.043635 0.000000
# 6 0.000000 0.000000 0.000000 0.000000 0.000000 -0.018718
#
#
# Mechanical properties :
#
#
# Convention : Reuss Voigt Hill
#
# Bulk Modulus (GPa) = 51.14235 51.49175 51.31705
# Shear Modulus (GPa) = 42.77644 13.81833 28.29738
#
# Velocity S-wave (km/s) = 4.54294 2.58204 3.69494
# Velocity P-wave (km/s) = 7.22442 5.80796 6.55457
#
# Compressibility (1/GPa) = 0.01955327
#
# Stress axis : x y z
#
# Youngs Moduli (GPa) = 91.22823 76.75093 84.06074
#
# Poissons Ratio (x) = 0.12359 0.20275
# Poissons Ratio (y) = 0.14690 0.34840
# Poissons Ratio (z) = 0.22003 0.31810
#
# Static dielectric constant tensor:
#      x y z
#    x 1.802910 0.000000 0.000000 
#    y 0.000000 1.811770 0.000000 
#    z 0.000000 0.000000 1.727190 
# 
# From -- ./inp_files/8061.got.cif
#   From: 2010.05.17/outbox.cif.g08.bks.cpg/sg42_5_cif.got.tgz:8061.got - 2010.06.03 19:03:34.
