data_PCOD9369441
_publ_section_title
;
Structure prediction by ZEFSAII (Michael W. Deem and Ramdas Pophale) SiO2 
 PCOD9369441
Probable space group: F M M 2
;
_chemical_formula_sum "Si O2"
_cell_formula_units_Z 88
_cell_length_a 24.373326
_cell_length_b 14.958419
_cell_length_c 12.123505
_cell_angle_alpha 90.000000
_cell_angle_beta 90.000000
_cell_angle_gamma 90.000000
_cell_volume 4420.065319
_symmetry_space_group_name_H-M "F M M 2"
_symmetry_group_IT_number 42
_symmetry_cell_setting 'orthorhombic'
loop_
_space_group_symop_operation_xyz
x,y,z
-x,-y,z
-x,y,z
x,-y,z
x,1/2+y,1/2+z
-x,1/2-y,1/2+z
-x,1/2+y,1/2+z
x,1/2-y,1/2+z
1/2+x,y,1/2+z
1/2-x,-y,1/2+z
1/2-x,y,1/2+z
1/2+x,-y,1/2+z
1/2+x,1/2+y,z
1/2-x,1/2-y,z
1/2-x,1/2+y,z
1/2+x,1/2-y,z
loop_
_atom_site_type_symbol
_atom_site_label
_atom_site_fract_x
_atom_site_fract_y
_atom_site_fract_z
Si Si1 0.941129 0.101822 0.271780
Si Si2 0.062136 0.105177 0.858810
Si Si3 0.250000 0.750000 0.382118
Si Si4 0.321227 0.896091 0.761253
Si Si5 0.351668 0.313422 0.025766
Si Si6 0.060271 0.281324 0.137282
O O1 0.880737 0.114261 0.322893
O O2 0.943887 0.179275 0.181398
O O3 0.000000 0.109055 0.333879
O O4 0.939625 0.000000 0.226867
O O5 0.070562 0.158839 0.745147
O O6 0.000000 0.127592 0.897526
O O7 0.064431 0.000000 0.837290
O O8 0.106840 0.132028 0.948193
O O9 0.276838 0.671380 0.309549
O O10 0.298273 0.788459 0.457467
O O11 0.333656 0.867292 0.635116
O O12 0.305179 0.000000 0.767798
O O13 0.386870 0.225446 0.060611
O O14 0.000000 0.305841 0.091564
#
# Coordination Sequence:
#
# PCOD9369441 Si02
#       6
#    16  16   8  16  16  16
#     4   8  14  28  54  84 109 135 172 224 287 348
#     4  10  21  37  61  95 128 155 188 235 296 366
#     4  12  26  42  56  80 118 158 208 258 292 334
#     4  10  22  40  60  84 115 151 193 245 302 352
#     4  11  21  38  61  85 113 156 204 250 292 348
#     4   9  18  34  57  87 123 155 185 234 300 361
#
# _framework density 19.909209000000001
#
# number of rings (size 3 to 8) (size 9 to 14) (size 15 to 20)
#    0.000    2.182    0.000    3.818    0.000    2.909 
#    0.000    9.091    0.000    1.091    0.000    5.091 
#    0.000    0.000    0.000    0.000    0.000    0.000 
#
# Total GULP energy -122599.206557 kJ/mol
# GULP energy per Si atom -5572.691207 kJ/mol
# Density = 1.986389 g / cm^3
# Si number density = 19.909209 Si / 1000 Ang^3
#
#
#
# Elastic Constant Matrix: (Units=GPa)
#
#
# Indices 1 2 3 4 5 6 
#
# 1 173.1060 83.5339 70.1797 0.0000 0.0000 0.0000
# 2 83.5339 98.3648 69.1176 0.0000 0.0000 0.0000
# 3 70.1797 69.1176 78.8426 0.0000 0.0000 0.0000
# 4 0.0000 0.0000 0.0000 -0.4858 0.0000 0.0000
# 5 0.0000 0.0000 0.0000 0.0000 43.5424 0.0000
# 6 0.0000 0.0000 0.0000 0.0000 0.0000 -82.0181
#
#
#
# Elastic Compliance Matrix: (Units=1/GPa)
#
#
# Indices 1 2 3 4 5 6 
#
# 1 0.010224 -0.005958 -0.003878 0.000000 0.000000 0.000000
# 2 -0.005958 0.029946 -0.020949 0.000000 0.000000 0.000000
# 3 -0.003878 -0.020949 0.034500 0.000000 0.000000 0.000000
# 4 0.000000 0.000000 0.000000 -2.058284 0.000000 0.000000
# 5 0.000000 0.000000 0.000000 0.000000 0.022966 0.000000
# 6 0.000000 0.000000 0.000000 0.000000 0.000000 -0.012192
#
#
# Mechanical properties :
#
#
# Convention : Reuss Voigt Hill
#
# Bulk Modulus (GPa) = 76.32972 88.44175 82.38573
# Shear Modulus (GPa) = -2.62205 0.70651 -0.95777
#
# Velocity S-wave (km/s) = -1.14885 0.59635 -0.69434
# Velocity P-wave (km/s) = 6.05494 6.70769 6.38966
#
# Compressibility (1/GPa) = 0.01310106
#
# Stress axis : x y z
#
# Youngs Moduli (GPa) = 97.81146 33.39367 28.98528
#
# Poissons Ratio (x) = 0.19894 0.11240
# Poissons Ratio (y) = 0.58272 0.60722
# Poissons Ratio (z) = 0.37928 0.69957
#
# Static dielectric constant tensor:
#      x y z
#    x 1.764280 0.000000 0.000000 
#    y 0.000000 1.685440 0.000000 
#    z 0.000000 0.000000 1.716820 
# 
# From -- ./inp_files/10056.got.cif
#   From: 2010.05.17/outbox.cif.g08.bks.cpg/sg42_6_cif.got.tgz:10056.got - 2010.06.03 19:03:34.
