data_PCOD9369377
_publ_section_title
;
Structure prediction by ZEFSAII (Michael W. Deem and Ramdas Pophale) SiO2 
 PCOD9369377
Probable space group: F M M 2
;
_chemical_formula_sum "Si O2"
_cell_formula_units_Z 100
_cell_length_a 9.021227
_cell_length_b 19.717765
_cell_length_c 31.009124
_cell_angle_alpha 90.000000
_cell_angle_beta 90.000000
_cell_angle_gamma 90.000000
_cell_volume 5515.854417
_symmetry_space_group_name_H-M "F M M 2"
_symmetry_group_IT_number 42
_symmetry_cell_setting 'orthorhombic'
loop_
_space_group_symop_operation_xyz
x,y,z
-x,-y,z
-x,y,z
x,-y,z
x,1/2+y,1/2+z
-x,1/2-y,1/2+z
-x,1/2+y,1/2+z
x,1/2-y,1/2+z
1/2+x,y,1/2+z
1/2-x,-y,1/2+z
1/2-x,y,1/2+z
1/2+x,-y,1/2+z
1/2+x,1/2+y,z
1/2-x,1/2-y,z
1/2-x,1/2+y,z
1/2+x,1/2-y,z
loop_
_atom_site_type_symbol
_atom_site_label
_atom_site_fract_x
_atom_site_fract_y
_atom_site_fract_z
Si Si1 0.670707 0.917610 0.817480
Si Si2 0.175454 0.679042 0.974954
Si Si3 0.500000 0.500000 0.056802
Si Si4 0.663127 0.859214 0.560142
Si Si5 0.824355 0.418829 0.406884
Si Si6 0.177630 0.177718 0.158429
Si Si7 0.823846 0.919051 0.727965
O O1 0.500000 0.894724 0.817851
O O2 0.756219 0.897460 0.860853
O O3 0.753800 0.897289 0.773753
O O4 0.669891 0.000000 0.817480
O O5 0.250000 0.750000 0.962081
O O6 0.243508 0.620565 0.944928
O O7 0.000000 0.681988 0.970302
O O8 0.223732 0.663765 0.023962
O O9 0.626517 0.439196 0.057367
O O10 0.500000 0.825990 0.551415
O O11 0.708492 0.840358 0.608489
O O12 0.803620 0.500000 0.411554
O O13 0.000000 0.405684 0.408192
O O14 0.250000 0.250000 0.168549
O O15 0.245813 0.121365 0.189714
O O16 0.000000 0.179732 0.163575
O O17 0.000000 0.907296 0.728045
O O18 0.799042 0.000000 0.723136
#
# Coordination Sequence:
#
# PCOD9369377 Si02
#       7
#    16  16   4  16  16  16  16
#     4   9  17  33  56  86 117 151 193 240 293 351
#     4  12  25  40  59  85 118 158 201 241 290 350
#     4   8  20  40  66  92 116 152 188 248 292 348
#     4   9  21  39  63  85 118 151 190 233 291 344
#     4  10  21  37  61  87 118 154 194 242 296 349
#     4  11  23  38  60  84 117 156 199 240 290 351
#     4  10  21  36  58  86 119 153 194 244 296 349
#
# _framework density 18.129557999999999
#
# number of rings (size 3 to 8) (size 9 to 14) (size 15 to 20)
#    0.480    1.440    0.000    3.840    2.240    6.400 
#    0.000    0.800    0.000    0.000    0.000    0.000 
#    0.000    0.000    0.000    0.000    0.000    0.000 
#
# Total GULP energy -139276.160597 kJ/mol
# GULP energy per Si atom -5571.046424 kJ/mol
# Density = 1.808829 g / cm^3
# Si number density = 18.129558 Si / 1000 Ang^3
#
#
#
# Elastic Constant Matrix: (Units=GPa)
#
#
# Indices 1 2 3 4 5 6 
#
# 1 151.9925 59.7911 100.4079 0.0000 0.0000 0.0000
# 2 59.7911 58.0067 41.8624 0.0000 0.0000 0.0000
# 3 100.4079 41.8624 138.5473 0.0000 0.0000 0.0000
# 4 0.0000 0.0000 0.0000 70.8884 0.0000 0.0000
# 5 0.0000 0.0000 0.0000 0.0000 35.5421 0.0000
# 6 0.0000 0.0000 0.0000 0.0000 0.0000 26.8170
#
#
#
# Elastic Compliance Matrix: (Units=1/GPa)
#
#
# Indices 1 2 3 4 5 6 
#
# 1 0.016639 -0.010804 -0.008794 0.000000 0.000000 0.000000
# 2 -0.010804 0.029062 -0.000951 0.000000 0.000000 0.000000
# 3 -0.008794 -0.000951 0.013878 0.000000 0.000000 0.000000
# 4 0.000000 0.000000 0.000000 0.014107 0.000000 0.000000
# 5 0.000000 0.000000 0.000000 0.000000 0.028136 0.000000
# 6 0.000000 0.000000 0.000000 0.000000 0.000000 0.037290
#
#
# Mechanical properties :
#
#
# Convention : Reuss Voigt Hill
#
# Bulk Modulus (GPa) = 54.11042 83.62994 68.87018
# Shear Modulus (GPa) = 26.82821 36.41517 31.62169
#
# Velocity S-wave (km/s) = 3.85100 4.48661 4.18090
# Velocity P-wave (km/s) = 7.04875 8.54803 7.83434
#
# Compressibility (1/GPa) = 0.01848073
#
# Stress axis : x y z
#
# Youngs Moduli (GPa) = 60.10021 34.40861 72.05473
#
# Poissons Ratio (x) = 0.37176 0.63365
# Poissons Ratio (y) = 0.64934 0.06854
# Poissons Ratio (z) = 0.52852 0.03273
#
# Static dielectric constant tensor:
#      x y z
#    x 1.610020 0.000000 0.000000 
#    y 0.000000 1.607960 0.000000 
#    z 0.000000 0.000000 1.609700 
# 
# From -- ./inp_files/31513.got.cif
#   From: 2010.05.17/outbox.cif.g08.bks.cpg/sg42_16_cif.got.tgz:31513.got - 2010.06.03 19:03:34.
