data_PCOD9369901
_publ_section_title
;
Structure prediction by ZEFSAII (Michael W. Deem and Ramdas Pophale) SiO2 
 PCOD9369901
Probable space group: F M M 2
;
_chemical_formula_sum "Si O2"
_cell_formula_units_Z 80
_cell_length_a 7.780990
_cell_length_b 17.388110
_cell_length_c 30.692605
_cell_angle_alpha 90.000000
_cell_angle_beta 90.000000
_cell_angle_gamma 90.000000
_cell_volume 4152.608479
_symmetry_space_group_name_H-M "F M M 2"
_symmetry_group_IT_number 42
_symmetry_cell_setting 'orthorhombic'
loop_
_space_group_symop_operation_xyz
x,y,z
-x,-y,z
-x,y,z
x,-y,z
x,1/2+y,1/2+z
-x,1/2-y,1/2+z
-x,1/2+y,1/2+z
x,1/2-y,1/2+z
1/2+x,y,1/2+z
1/2-x,-y,1/2+z
1/2-x,y,1/2+z
1/2+x,-y,1/2+z
1/2+x,1/2+y,z
1/2-x,1/2-y,z
1/2-x,1/2+y,z
1/2+x,1/2-y,z
loop_
_atom_site_type_symbol
_atom_site_label
_atom_site_fract_x
_atom_site_fract_y
_atom_site_fract_z
Si Si1 0.205412 0.839112 0.347720
Si Si2 0.790965 0.088680 0.439981
Si Si3 0.187280 0.593788 0.629001
Si Si4 0.298015 0.093489 0.034323
Si Si5 0.500000 0.908511 0.288706
Si Si6 0.500000 0.405792 0.689148
O O1 0.250000 0.750000 0.343316
O O2 0.253690 0.865366 0.396767
O O3 0.329112 0.882347 0.314120
O O4 0.000000 0.852678 0.341565
O O5 0.731104 0.119798 0.487053
O O6 0.000000 0.087473 0.442610
O O7 0.734373 0.000000 0.434960
O O8 0.195603 0.500000 0.627544
O O9 0.212026 0.619640 0.579004
O O10 0.335212 0.619369 0.661434
O O11 0.000000 0.616350 0.644904
O O12 0.500000 0.111667 0.038080
O O13 0.284844 0.000000 0.032684
O O14 0.500000 0.879372 0.238912
O O15 0.500000 0.000000 0.287341
O O16 0.500000 0.500000 0.689583
#
# Coordination Sequence:
#
# PCOD9369901 Si02
#       6
#    16  16  16  16   8   8
#     4  11  22  40  61  83 118 155 198 242 294 352
#     4   8  15  28  50  79 111 149 189 230 281 334
#     4   9  15  24  41  67 104 144 177 218 278 340
#     4   8  12  22  41  67 103 144 179 218 274 333
#     4  11  24  40  62  91 115 149 199 248 301 349
#     4   9  18  32  48  71 108 141 175 230 290 337
#
# _framework density 19.265001000000002
#
# number of rings (size 3 to 8) (size 9 to 14) (size 15 to 20)
#    0.000    2.800    2.000    1.800    0.000    2.000 
#    1.800    2.000    0.000    0.000    0.000    1.400 
#    0.000    0.000    0.000    0.000    0.000    0.000 
#
# Total GULP energy -111474.939205 kJ/mol
# GULP energy per Si atom -5573.746960 kJ/mol
# Density = 1.922115 g / cm^3
# Si number density = 19.265001 Si / 1000 Ang^3
#
#
#
# Elastic Constant Matrix: (Units=GPa)
#
#
# Indices 1 2 3 4 5 6 
#
# 1 125.8130 13.8466 91.2291 0.0000 0.0000 0.0000
# 2 13.8466 26.0011 24.9937 0.0000 0.0000 0.0000
# 3 91.2291 24.9937 179.8104 0.0000 0.0000 0.0000
# 4 0.0000 0.0000 0.0000 -10.1447 0.0000 0.0000
# 5 0.0000 0.0000 0.0000 0.0000 -140.5829 0.0000
# 6 0.0000 0.0000 0.0000 0.0000 0.0000 -0.8144
#
#
#
# Elastic Compliance Matrix: (Units=1/GPa)
#
#
# Indices 1 2 3 4 5 6 
#
# 1 0.012584 -0.000651 -0.006294 0.000000 0.000000 0.000000
# 2 -0.000651 0.044425 -0.005845 0.000000 0.000000 0.000000
# 3 -0.006294 -0.005845 0.009567 0.000000 0.000000 0.000000
# 4 0.000000 0.000000 0.000000 -0.098573 0.000000 0.000000
# 5 0.000000 0.000000 0.000000 0.000000 -0.007113 0.000000
# 6 0.000000 0.000000 0.000000 0.000000 0.000000 -1.227922
#
#
# Mechanical properties :
#
#
# Convention : Reuss Voigt Hill
#
# Bulk Modulus (GPa) = 24.39253 65.75148 45.07201
# Shear Modulus (GPa) = -4.07237 -16.87141 -10.47189
#
# Velocity S-wave (km/s) = -1.45549 -2.96253 -2.33399
# Velocity P-wave (km/s) = 3.14077 4.74363 4.02284
#
# Compressibility (1/GPa) = 0.04099616
#
# Stress axis : x y z
#
# Youngs Moduli (GPa) = 79.46642 22.50986 104.52341
#
# Poissons Ratio (x) = 0.01466 0.65788
# Poissons Ratio (y) = 0.05174 0.61091
# Poissons Ratio (z) = 0.50017 0.13156
#
# Static dielectric constant tensor:
#      x y z
#    x 1.811650 0.000000 0.000000 
#    y 0.000000 1.647050 0.000000 
#    z 0.000000 0.000000 1.679260 
# 
# From -- ./inp_files/31278.got.cif
#   From: 2010.05.17/outbox.cif.g08.bks.cpg/sg42_16_cif.got.tgz:31278.got - 2010.06.03 19:03:34.
