data_PCOD9369991
_publ_section_title
;
Structure prediction by ZEFSAII (Michael W. Deem and Ramdas Pophale) SiO2 
 PCOD9369991
Probable space group: F M M 2
;
_chemical_formula_sum "Si O2"
_cell_formula_units_Z 24
_cell_length_a 27.000000
_cell_length_b 9.000000
_cell_length_c 24.000000
_cell_angle_alpha 90.000000
_cell_angle_beta 90.000000
_cell_angle_gamma 90.000000
_cell_volume 5832.000000
_symmetry_space_group_name_H-M "F M M 2"
_symmetry_group_IT_number 42
_symmetry_cell_setting 'orthorhombic'
loop_
_space_group_symop_operation_xyz
x,y,z
-x,-y,z
-x,y,z
x,-y,z
x,1/2+y,1/2+z
-x,1/2-y,1/2+z
-x,1/2+y,1/2+z
x,1/2-y,1/2+z
1/2+x,y,1/2+z
1/2-x,-y,1/2+z
1/2-x,y,1/2+z
1/2+x,-y,1/2+z
1/2+x,1/2+y,z
1/2-x,1/2-y,z
1/2-x,1/2+y,z
1/2+x,1/2-y,z
loop_
_atom_site_type_symbol
_atom_site_label
_atom_site_fract_x
_atom_site_fract_y
_atom_site_fract_z
Si Si1 0.303620 0.319649 0.810900
Si Si2 0.696542 0.681642 0.187966
Si Si3 0.119525 0.667262 0.592748
Si Si4 0.859273 0.677844 0.910184
Si Si5 0.557038 0.678711 0.500355
Si Si6 0.204024 0.667134 0.500004
O O1 0.300932 0.500000 0.809927
O O2 0.250000 0.250000 0.828388
O O3 0.312224 0.251750 0.749156
O O4 0.346422 0.262398 0.852907
O O5 0.700272 0.500000 0.190019
O O6 0.750000 0.750000 0.169669
O O7 0.650498 0.720030 0.146940
O O8 0.100843 0.500000 0.604399
O O9 0.078294 0.760619 0.559294
O O10 0.161779 0.657239 0.545733
O O11 0.859921 0.500000 0.901712
O O12 0.907919 0.721122 0.947268
O O13 0.814755 0.729312 0.950358
O O14 0.500000 0.725158 0.492409
O O15 0.559147 0.500000 0.502664
O O16 0.215322 0.500000 0.480471
O O17 0.250000 0.750000 0.526531
#
# Coordination Sequence:
#
# PCOD9369991 Si02
#       6
#    16  16  16  16  16  16
#     4  11  21  33  49  71 100 134 170 202 238 283
#     4  10  19  32  49  72 102 135 170 201 235 280
#     4   9  19  32  48  71  98 128 161 198 239 288
#     4  10  19  32  49  69  95 126 160 199 243 290
#     4   9  19  35  55  77  98 123 158 202 252 300
#     4  10  18  28  42  65  96 126 157 192 234 284
#
# _framework density 4.1152259999999998
#
# number of rings (size 3 to 8) (size 9 to 14) (size 15 to 20)
#    0.000    2.167    0.000    5.000    0.000    3.000 
#    0.000    0.000    0.000    1.000    0.000    2.333 
#    0.000    0.000    0.000    0.000    0.000    0.000 
#
# Total GULP energy -133642.402345 kJ/mol
# GULP energy per Si atom -5568.433431 kJ/mol
# Density = 0.410586 g / cm^3
# Si number density = 4.115226 Si / 1000 Ang^3
#
#
#
# Elastic Constant Matrix: (Units=GPa)
#
#
# Indices 1 2 3 4 5 6 
#
# 1 88.5354 41.3040 45.0470 0.0000 0.0000 0.0000
# 2 41.3040 83.1793 31.2926 0.0000 0.0000 0.0000
# 3 45.0470 31.2926 101.3528 0.0000 0.0000 0.0000
# 4 0.0000 0.0000 0.0000 25.4948 0.0000 0.0000
# 5 0.0000 0.0000 0.0000 0.0000 24.7736 0.0000
# 6 0.0000 0.0000 0.0000 0.0000 0.0000 21.4074
#
#
#
# Elastic Compliance Matrix: (Units=1/GPa)
#
#
# Indices 1 2 3 4 5 6 
#
# 1 0.017151 -0.006391 -0.005650 0.000000 0.000000 0.000000
# 2 -0.006391 0.015984 -0.002094 0.000000 0.000000 0.000000
# 3 -0.005650 -0.002094 0.013024 0.000000 0.000000 0.000000
# 4 0.000000 0.000000 0.000000 0.039224 0.000000 0.000000
# 5 0.000000 0.000000 0.000000 0.000000 0.040366 0.000000
# 6 0.000000 0.000000 0.000000 0.000000 0.000000 0.046713
#
#
# Mechanical properties :
#
#
# Convention : Reuss Voigt Hill
#
# Bulk Modulus (GPa) = 55.90143 56.48386 56.19264
# Shear Modulus (GPa) = 24.19028 24.69675 24.44352
#
# Velocity S-wave (km/s) = 3.83764 3.87761 3.85768
# Velocity P-wave (km/s) = 7.32602 7.37809 7.35210
#
# Compressibility (1/GPa) = 0.01788863
#
# Stress axis : x y z
#
# Youngs Moduli (GPa) = 58.30521 62.56336 76.78022
#
# Poissons Ratio (x) = 0.39986 0.43378
# Poissons Ratio (y) = 0.37264 0.16081
# Poissons Ratio (z) = 0.32940 0.13103
#
# Static dielectric constant tensor:
#      x y z
#    x 1.585850 0.000000 0.000000 
#    y 0.000000 1.576070 0.000000 
#    z 0.000000 0.000000 1.569670 
# 
# From -- ./inp_files/28165.got.cif
#   From: 2010.05.17/outbox.ucp.g08.bks.cvg/sg42_15_cif.got.tgz:28165.got - 2010.06.11 16:29:10.
