data_PCOD9369978
_publ_section_title
;
Structure prediction by ZEFSAII (Michael W. Deem and Ramdas Pophale) SiO2 
 PCOD9369978
Probable space group: F M M 2
;
_chemical_formula_sum "Si O2"
_cell_formula_units_Z 64
_cell_length_a 15.179685
_cell_length_b 10.112843
_cell_length_c 20.518517
_cell_angle_alpha 90.000000
_cell_angle_beta 90.000000
_cell_angle_gamma 90.000000
_cell_volume 3149.792850
_symmetry_space_group_name_H-M "F M M 2"
_symmetry_group_IT_number 42
_symmetry_cell_setting 'orthorhombic'
loop_
_space_group_symop_operation_xyz
x,y,z
-x,-y,z
-x,y,z
x,-y,z
x,1/2+y,1/2+z
-x,1/2-y,1/2+z
-x,1/2+y,1/2+z
x,1/2-y,1/2+z
1/2+x,y,1/2+z
1/2-x,-y,1/2+z
1/2-x,y,1/2+z
1/2+x,-y,1/2+z
1/2+x,1/2+y,z
1/2-x,1/2-y,z
1/2-x,1/2+y,z
1/2+x,1/2-y,z
loop_
_atom_site_type_symbol
_atom_site_label
_atom_site_fract_x
_atom_site_fract_y
_atom_site_fract_z
Si Si1 0.000000 0.286247 0.521050
Si Si2 0.833360 0.500000 0.727878
Si Si3 0.829376 0.347624 0.434374
Si Si4 0.500000 0.500000 0.580177
Si Si5 0.000000 0.500000 0.632860
Si Si6 0.102968 0.259492 0.293459
Si Si7 0.635785 0.500000 0.695909
O O1 0.913506 0.324023 0.480220
O O2 0.000000 0.131899 0.537650
O O3 0.000000 0.371596 0.587058
O O4 0.843067 0.369340 0.771772
O O5 0.741010 0.500000 0.690722
O O6 0.914384 0.500000 0.678075
O O7 0.801403 0.500000 0.439028
O O8 0.750000 0.250000 0.451629
O O9 0.860313 0.316854 0.360731
O O10 0.584155 0.500000 0.628343
O O11 0.109821 0.371257 0.237995
O O12 0.000000 0.223428 0.301330
#
# Coordination Sequence:
#
# PCOD9369978 Si02
#       7
#     8   8  16   4   4  16   8
#     4  12  28  48  75  95 143 193 242 287 341 415
#     4  12  26  43  71 108 141 181 229 288 346 411
#     4  12  27  48  75 105 139 183 232 294 360 422
#     4  12  28  44  72 108 136 190 250 286 338 412
#     4  12  24  48  70  98 138 192 242 280 340 410
#     4  12  23  44  73 105 142 180 222 285 361 422
#     4  12  24  45  73 102 141 181 227 286 352 413
#
# _framework density 20.318795999999999
#
# number of rings (size 3 to 8) (size 9 to 14) (size 15 to 20)
#    0.000    0.000    6.250    3.750    3.500    2.000 
#    0.000    0.000    0.000    0.000    0.000    0.000 
#    0.000    0.000    0.000    0.000    0.000    0.000 
#
# Total GULP energy -89658.483710 kJ/mol
# GULP energy per Si atom -5603.655232 kJ/mol
# Density = 2.027255 g / cm^3
# Si number density = 20.318796 Si / 1000 Ang^3
#
#
#
# Elastic Constant Matrix: (Units=GPa)
#
#
# Indices 1 2 3 4 5 6 
#
# 1 154.6765 25.0419 22.4354 0.0000 0.0000 0.0000
# 2 25.0419 171.2555 36.7562 0.0000 0.0000 0.0000
# 3 22.4354 36.7562 72.3597 0.0000 0.0000 0.0000
# 4 0.0000 0.0000 0.0000 39.3076 0.0000 0.0000
# 5 0.0000 0.0000 0.0000 0.0000 -2.1348 0.0000
# 6 0.0000 0.0000 0.0000 0.0000 0.0000 59.3726
#
#
#
# Elastic Compliance Matrix: (Units=1/GPa)
#
#
# Indices 1 2 3 4 5 6 
#
# 1 0.006826 -0.000610 -0.001806 0.000000 0.000000 0.000000
# 2 -0.000610 0.006608 -0.003168 0.000000 0.000000 0.000000
# 3 -0.001806 -0.003168 0.015989 0.000000 0.000000 0.000000
# 4 0.000000 0.000000 0.000000 0.025440 0.000000 0.000000
# 5 0.000000 0.000000 0.000000 0.000000 -0.468436 0.000000
# 6 0.000000 0.000000 0.000000 0.000000 0.000000 0.016843
#
#
# Mechanical properties :
#
#
# Convention : Reuss Voigt Hill
#
# Bulk Modulus (GPa) = 54.78079 62.97318 58.87698
# Shear Modulus (GPa) = -13.17606 40.24630 13.53512
#
# Velocity S-wave (km/s) = -2.54926 4.45538 2.58377
# Velocity P-wave (km/s) = 4.28418 7.58466 6.15960
#
# Compressibility (1/GPa) = 0.01825458
#
# Stress axis : x y z
#
# Youngs Moduli (GPa) = 146.49997 151.32423 62.54343
#
# Poissons Ratio (x) = 0.09237 0.11297
# Poissons Ratio (y) = 0.08943 0.19811
# Poissons Ratio (z) = 0.26463 0.47932
#
# Static dielectric constant tensor:
#      x y z
#    x 1.712120 0.000000 0.000000 
#    y 0.000000 1.717870 0.000000 
#    z 0.000000 0.000000 1.678800 
# 
# From -- ./inp_files/19637.got.cif
#   From: 2010.05.17/outbox.cif.g08.bks.cpg/sg42_10_cif.got.tgz:19637.got - 2010.06.03 19:03:34.
