data_PCOD9369447
_publ_section_title
;
Structure prediction by ZEFSAII (Michael W. Deem and Ramdas Pophale) SiO2 
 PCOD9369447
Probable space group: F M M 2
;
_chemical_formula_sum "Si O2"
_cell_formula_units_Z 116
_cell_length_a 15.756985
_cell_length_b 28.555159
_cell_length_c 11.171348
_cell_angle_alpha 90.000000
_cell_angle_beta 90.000000
_cell_angle_gamma 90.000000
_cell_volume 5026.472202
_symmetry_space_group_name_H-M "F M M 2"
_symmetry_group_IT_number 42
_symmetry_cell_setting 'orthorhombic'
loop_
_space_group_symop_operation_xyz
x,y,z
-x,-y,z
-x,y,z
x,-y,z
x,1/2+y,1/2+z
-x,1/2-y,1/2+z
-x,1/2+y,1/2+z
x,1/2-y,1/2+z
1/2+x,y,1/2+z
1/2-x,-y,1/2+z
1/2-x,y,1/2+z
1/2+x,-y,1/2+z
1/2+x,1/2+y,z
1/2-x,1/2-y,z
1/2-x,1/2+y,z
1/2+x,1/2-y,z
loop_
_atom_site_type_symbol
_atom_site_label
_atom_site_fract_x
_atom_site_fract_y
_atom_site_fract_z
Si Si1 0.855808 0.132777 0.407580
Si Si2 0.500000 0.500000 0.682821
Si Si3 0.371467 0.591583 0.665411
Si Si4 0.100727 0.779391 0.036285
Si Si5 0.336747 0.862076 0.396396
Si Si6 0.905913 0.447798 0.492444
Si Si7 0.187978 0.052680 0.233849
Si Si8 0.096497 0.273297 0.802659
O O1 0.883957 0.118451 0.540102
O O2 0.760010 0.153590 0.399879
O O3 0.850369 0.084694 0.335809
O O4 0.907527 0.172240 0.338576
O O5 0.426775 0.543744 0.678574
O O6 0.381734 0.632003 0.768170
O O7 0.272769 0.576058 0.679141
O O8 0.114901 0.833057 0.997307
O O9 0.135551 0.752041 0.919419
O O10 0.000000 0.770130 0.042831
O O11 0.135610 0.768669 0.169363
O O12 0.335869 0.916425 0.432849
O O13 0.905762 0.500000 0.442528
O O14 0.882565 0.449612 0.630301
O O15 0.000000 0.428594 0.470779
O O16 0.207094 0.000000 0.273748
O O17 0.000000 0.254749 0.794181
#
# Coordination Sequence:
#
# PCOD9369447 Si02
#       8
#    16   4  16  16  16  16  16  16
#     4  11  25  42  65  95 131 181 223 279 353 409
#     4  12  28  44  60 100 140 196 236 272 350 416
#     4  11  26  42  62  96 139 181 230 284 337 416
#     4  10  23  45  73 102 132 176 226 290 351 416
#     4  11  24  40  68  94 133 174 225 286 343 407
#     4  10  21  37  63  94 125 168 222 276 333 403
#     4  10  21  42  64  89 132 176 223 282 343 396
#     4  10  24  46  72  99 137 175 229 288 352 422
#
# _framework density 23.077815000000001
#
# number of rings (size 3 to 8) (size 9 to 14) (size 15 to 20)
#    0.000    1.517    2.069    1.241    8.690    2.759 
#    0.000    1.379    0.000    0.000    0.000    0.000 
#    0.000    0.000    0.000    0.000    0.000    0.000 
#
# Total GULP energy -161536.430902 kJ/mol
# GULP energy per Si atom -5570.221755 kJ/mol
# Density = 2.302529 g / cm^3
# Si number density = 23.077815 Si / 1000 Ang^3
#
#
#
# Elastic Constant Matrix: (Units=GPa)
#
#
# Indices 1 2 3 4 5 6 
#
# 1 60.9317 3.5957 11.4240 0.0000 0.0000 0.0000
# 2 3.5957 46.2352 30.6013 0.0000 0.0000 0.0000
# 3 11.4240 30.6013 175.0695 0.0000 0.0000 0.0000
# 4 0.0000 0.0000 0.0000 32.7326 0.0000 0.0000
# 5 0.0000 0.0000 0.0000 0.0000 3.7496 0.0000
# 6 0.0000 0.0000 0.0000 0.0000 0.0000 25.9769
#
#
#
# Elastic Compliance Matrix: (Units=1/GPa)
#
#
# Indices 1 2 3 4 5 6 
#
# 1 0.016632 -0.000650 -0.000972 0.000000 0.000000 0.000000
# 2 -0.000650 0.024484 -0.004237 0.000000 0.000000 0.000000
# 3 -0.000972 -0.004237 0.006516 0.000000 0.000000 0.000000
# 4 0.000000 0.000000 0.000000 0.030551 0.000000 0.000000
# 5 0.000000 0.000000 0.000000 0.000000 0.266694 0.000000
# 6 0.000000 0.000000 0.000000 0.000000 0.000000 0.038496
#
#
# Mechanical properties :
#
#
# Convention : Reuss Voigt Hill
#
# Bulk Modulus (GPa) = 27.84466 41.49763 34.67115
# Shear Modulus (GPa) = 12.28315 28.26618 20.27466
#
# Velocity S-wave (km/s) = 2.30956 3.50354 2.96722
# Velocity P-wave (km/s) = 4.38222 5.86405 5.17643
#
# Compressibility (1/GPa) = 0.03591352
#
# Stress axis : x y z
#
# Youngs Moduli (GPa) = 60.12375 40.84377 153.46703
#
# Poissons Ratio (x) = 0.02656 0.14912
# Poissons Ratio (y) = 0.03910 0.65027
# Poissons Ratio (z) = 0.05842 0.17306
#
# Static dielectric constant tensor:
#      x y z
#    x 1.906370 0.000000 0.000000 
#    y 0.000000 1.892720 0.000000 
#    z 0.000000 0.000000 1.967320 
# 
# From -- ./inp_files/9023.got.cif
#   From: 2010.05.17/outbox.cif.g08.bks.cpg/sg42_5_cif.got.tgz:9023.got - 2010.06.03 19:03:34.
