data_PCOD9369696
_publ_section_title
;
Structure prediction by ZEFSAII (Michael W. Deem and Ramdas Pophale) SiO2 
 PCOD9369696
Probable space group: F M M 2
;
_chemical_formula_sum "Si O2"
_cell_formula_units_Z 64
_cell_length_a 32.160016
_cell_length_b 10.247301
_cell_length_c 8.994903
_cell_angle_alpha 90.000000
_cell_angle_beta 90.000000
_cell_angle_gamma 90.000000
_cell_volume 2964.300544
_symmetry_space_group_name_H-M "F M M 2"
_symmetry_group_IT_number 42
_symmetry_cell_setting 'orthorhombic'
loop_
_space_group_symop_operation_xyz
x,y,z
-x,-y,z
-x,y,z
x,-y,z
x,1/2+y,1/2+z
-x,1/2-y,1/2+z
-x,1/2+y,1/2+z
x,1/2-y,1/2+z
1/2+x,y,1/2+z
1/2-x,-y,1/2+z
1/2-x,y,1/2+z
1/2+x,-y,1/2+z
1/2+x,1/2+y,z
1/2-x,1/2-y,z
1/2-x,1/2+y,z
1/2+x,1/2-y,z
loop_
_atom_site_type_symbol
_atom_site_label
_atom_site_fract_x
_atom_site_fract_y
_atom_site_fract_z
Si Si1 0.223095 0.500000 0.047820
Si Si2 0.453180 0.354157 0.185202
Si Si3 0.838950 0.795132 0.670092
Si Si4 0.192019 0.000000 0.207063
Si Si5 0.895861 0.282882 0.424689
O O1 0.202043 0.626639 0.125114
O O2 0.271500 0.500000 0.085001
O O3 0.212033 0.500000 0.872917
O O4 0.500000 0.303346 0.158618
O O5 0.456576 0.500000 0.243574
O O6 0.427052 0.276184 0.304961
O O7 0.425806 0.358036 0.036440
O O8 0.832335 0.637853 0.687836
O O9 0.871080 0.814829 0.534097
O O10 0.859667 0.844454 0.822833
#
# Coordination Sequence:
#
# PCOD9369696 Si02
#       5
#     8  16  16   8  16
#     4  12  28  46  70  98 135 177 220 278 343 397
#     4  10  22  41  66  95 132 172 218 275 334 391
#     4  11  25  43  71  98 135 177 223 275 331 399
#     4  12  28  48  66 102 137 171 226 278 339 401
#     4  10  23  39  66  94 132 170 218 270 324 391
#
# _framework density 21.590252
#
# number of rings (size 3 to 8) (size 9 to 14) (size 15 to 20)
#    0.000    1.250    2.500    1.500   14.000    2.000 
#    0.000    0.000    0.000    7.500    0.000    0.000 
#    0.000    0.000    0.000    0.000    0.000    0.000 
#
# Total GULP energy -89276.693324 kJ/mol
# GULP energy per Si atom -5579.793333 kJ/mol
# Density = 2.154111 g / cm^3
# Si number density = 21.590252 Si / 1000 Ang^3
#
#
#
# Elastic Constant Matrix: (Units=GPa)
#
#
# Indices 1 2 3 4 5 6 
#
# 1 102.2128 21.7987 23.0998 0.0000 0.0000 0.0000
# 2 21.7987 94.1040 14.2372 0.0000 0.0000 0.0000
# 3 23.0998 14.2372 119.7116 0.0000 0.0000 0.0000
# 4 0.0000 0.0000 0.0000 1.3473 0.0000 0.0000
# 5 0.0000 0.0000 0.0000 0.0000 37.3369 0.0000
# 6 0.0000 0.0000 0.0000 0.0000 0.0000 53.5707
#
#
#
# Elastic Compliance Matrix: (Units=1/GPa)
#
#
# Indices 1 2 3 4 5 6 
#
# 1 0.010658 -0.002197 -0.001795 0.000000 0.000000 0.000000
# 2 -0.002197 0.011274 -0.000917 0.000000 0.000000 0.000000
# 3 -0.001795 -0.000917 0.008809 0.000000 0.000000 0.000000
# 4 0.000000 0.000000 0.000000 0.742222 0.000000 0.000000
# 5 0.000000 0.000000 0.000000 0.000000 0.026783 0.000000
# 6 0.000000 0.000000 0.000000 0.000000 0.000000 0.018667
#
#
# Mechanical properties :
#
#
# Convention : Reuss Voigt Hill
#
# Bulk Modulus (GPa) = 47.79595 48.25554 48.02575
# Shear Modulus (GPa) = 5.98655 35.57716 20.78186
#
# Velocity S-wave (km/s) = 1.66698 4.06376 3.10588
# Velocity P-wave (km/s) = 5.08831 6.66468 5.92912
#
# Compressibility (1/GPa) = 0.02092228
#
# Stress axis : x y z
#
# Youngs Moduli (GPa) = 93.82775 88.69790 113.52196
#
# Poissons Ratio (x) = 0.19489 0.20380
# Poissons Ratio (y) = 0.20616 0.10408
# Poissons Ratio (z) = 0.16844 0.08132
#
# Static dielectric constant tensor:
#      x y z
#    x 1.796460 0.000000 0.000000 
#    y 0.000000 1.801730 0.000000 
#    z 0.000000 0.000000 1.777490 
# 
# From -- ./inp_files/2229.got.cif
#   From: 2010.05.17/outbox.cif.g08.bks.cpg/sg42_2_cif.got.tgz:2229.got - 2010.06.03 19:03:34.
