data_PCOD9369614
_publ_section_title
;
Structure prediction by ZEFSAII (Michael W. Deem and Ramdas Pophale) SiO2 
 PCOD9369614
Probable space group: F M M 2
;
_chemical_formula_sum "Si O2"
_cell_formula_units_Z 48
_cell_length_a 20.755914
_cell_length_b 17.524828
_cell_length_c 5.304297
_cell_angle_alpha 90.000000
_cell_angle_beta 90.000000
_cell_angle_gamma 90.000000
_cell_volume 1929.405268
_symmetry_space_group_name_H-M "F M M 2"
_symmetry_group_IT_number 42
_symmetry_cell_setting 'orthorhombic'
loop_
_space_group_symop_operation_xyz
x,y,z
-x,-y,z
-x,y,z
x,-y,z
x,1/2+y,1/2+z
-x,1/2-y,1/2+z
-x,1/2+y,1/2+z
x,1/2-y,1/2+z
1/2+x,y,1/2+z
1/2-x,-y,1/2+z
1/2-x,y,1/2+z
1/2+x,-y,1/2+z
1/2+x,1/2+y,z
1/2-x,1/2-y,z
1/2-x,1/2+y,z
1/2+x,1/2-y,z
loop_
_atom_site_type_symbol
_atom_site_label
_atom_site_fract_x
_atom_site_fract_y
_atom_site_fract_z
Si Si1 0.000000 0.303087 0.750000
Si Si2 0.707639 0.000000 0.444011
Si Si3 0.322580 0.281982 0.554322
Si Si4 0.377084 0.913341 0.769995
O O1 0.060575 0.361320 0.746296
O O2 0.000000 0.246588 0.508583
O O3 0.661175 0.071339 0.509327
O O4 0.743152 0.000000 0.181442
O O5 0.352977 0.266453 0.824780
O O6 0.250000 0.250000 0.584444
O O7 0.329059 0.367178 0.453318
O O8 0.391545 0.000000 0.860205
#
# Coordination Sequence:
#
# PCOD9369614 Si02
#       4
#     8   8  16  16
#     4  12  27  52  75 104 144 192 248 304 365 430
#     4  10  26  41  70 105 150 180 238 290 368 418
#     4  10  22  37  60  92 133 176 222 278 349 411
#     4  10  25  46  73 103 146 187 248 293 360 425
#
# _framework density 24.878129999999999
#
# number of rings (size 3 to 8) (size 9 to 14) (size 15 to 20)
#    1.000    0.667    0.000    2.500    9.333    2.667 
#    0.000    1.667    0.000    0.000    0.000    0.000 
#    0.000    0.000    0.000    0.000    0.000    0.000 
#
# Total GULP energy -67075.912050 kJ/mol
# GULP energy per Si atom -5589.659337 kJ/mol
# Density = 2.482151 g / cm^3
# Si number density = 24.878130 Si / 1000 Ang^3
#
#
#
# Elastic Constant Matrix: (Units=GPa)
#
#
# Indices 1 2 3 4 5 6 
#
# 1 153.4683 83.0418 21.0749 -0.0082 0.0013 0.0041
# 2 83.0418 234.3675 61.6186 -0.0166 -0.0009 0.0071
# 3 21.0749 61.6186 140.5070 -0.0309 0.0008 0.0142
# 4 -0.0082 -0.0166 -0.0309 45.2421 -0.0017 0.0051
# 5 0.0013 -0.0009 0.0008 -0.0017 9.5729 0.0005
# 6 0.0041 0.0071 0.0142 0.0051 0.0005 68.1832
#
#
#
# Elastic Compliance Matrix: (Units=1/GPa)
#
#
# Indices 1 2 3 4 5 6 
#
# 1 0.008062 -0.002869 0.000049 0.000000 -0.000001 0.000000
# 2 -0.002869 0.005844 -0.002133 0.000000 0.000001 0.000000
# 3 0.000049 -0.002133 0.008045 0.000005 -0.000001 -0.000001
# 4 0.000000 0.000000 0.000005 0.022103 0.000004 -0.000002
# 5 -0.000001 0.000001 -0.000001 0.000004 0.104462 -0.000001
# 6 0.000000 0.000000 -0.000001 -0.000002 -0.000001 0.014666
#
#
# Mechanical properties :
#
#
# Convention : Reuss Voigt Hill
#
# Bulk Modulus (GPa) = 83.01945 95.53481 89.27713
# Shear Modulus (GPa) = 28.23209 48.77347 38.50278
#
# Velocity S-wave (km/s) = 3.37236 4.43255 3.93829
# Velocity P-wave (km/s) = 6.97184 8.04246 7.52621
#
# Compressibility (1/GPa) = 0.01204537
#
# Stress axis : x y z
#
# Youngs Moduli (GPa) = 124.04000 171.11001 124.30193
#
# Poissons Ratio (x) = 0.49099 -0.00611
# Poissons Ratio (y) = 0.35593 0.26508
# Poissons Ratio (z) = -0.00610 0.36490
#
# Static dielectric constant tensor:
#      x y z
#    x 2.283470 0.000000 0.000000 
#    y 0.000000 2.017270 0.000000 
#    z 0.000000 0.000000 2.007010 
# 
# From -- ./inp_files/472.got.cif
#   From: 2010.05.17/outbox.cif.g08.bks.cpg/sg42_1_cif.got.tgz:472.got - 2010.06.03 19:03:34.
