data_PCOD9369717
_publ_section_title
;
Structure prediction by ZEFSAII (Michael W. Deem and Ramdas Pophale) SiO2 
 PCOD9369717
Probable space group: F M M 2
;
_chemical_formula_sum "Si O2"
_cell_formula_units_Z 68
_cell_length_a 7.547634
_cell_length_b 20.105067
_cell_length_c 20.506906
_cell_angle_alpha 90.000000
_cell_angle_beta 90.000000
_cell_angle_gamma 90.000000
_cell_volume 3111.834545
_symmetry_space_group_name_H-M "F M M 2"
_symmetry_group_IT_number 42
_symmetry_cell_setting 'orthorhombic'
loop_
_space_group_symop_operation_xyz
x,y,z
-x,-y,z
-x,y,z
x,-y,z
x,1/2+y,1/2+z
-x,1/2-y,1/2+z
-x,1/2+y,1/2+z
x,1/2-y,1/2+z
1/2+x,y,1/2+z
1/2-x,-y,1/2+z
1/2-x,y,1/2+z
1/2+x,-y,1/2+z
1/2+x,1/2+y,z
1/2-x,1/2-y,z
1/2-x,1/2+y,z
1/2+x,1/2-y,z
loop_
_atom_site_type_symbol
_atom_site_label
_atom_site_fract_x
_atom_site_fract_y
_atom_site_fract_z
Si Si1 0.716520 0.121765 0.803530
Si Si2 0.208408 0.174947 0.443846
Si Si3 0.500000 0.500000 0.804825
Si Si4 0.207615 0.925344 0.055843
Si Si5 0.711069 0.675006 0.163057
O O1 0.500000 0.108240 0.803110
O O2 0.758740 0.163228 0.868795
O O3 0.763063 0.161199 0.737452
O O4 0.842045 0.057679 0.804930
O O5 0.250000 0.250000 0.464882
O O6 0.284267 0.117919 0.490257
O O7 0.000000 0.166491 0.448433
O O8 0.286439 0.880388 0.113853
O O9 0.000000 0.933096 0.070596
O O10 0.282393 0.000000 0.049783
O O11 0.500000 0.668733 0.161288
O O12 0.750000 0.750000 0.142287
#
# Coordination Sequence:
#
# PCOD9369717 Si02
#       5
#    16  16   4  16  16
#     4  10  25  44  67 101 136 168 222 275 325 396
#     4  11  24  42  66  94 130 172 216 275 327 390
#     4  12  26  40  72 102 132 184 208 270 352 382
#     4  10  23  41  65  93 130 174 217 268 332 393
#     4  10  22  42  66  94 131 172 217 274 328 390
#
# _framework density 21.852062
#
# number of rings (size 3 to 8) (size 9 to 14) (size 15 to 20)
#    0.000    1.647    0.000    2.471    8.235    3.294 
#    0.000    0.000    0.000    0.000    0.000    0.000 
#    0.000    0.000    0.000    0.000    0.000    0.000 
#
# Total GULP energy -94673.890524 kJ/mol
# GULP energy per Si atom -5569.052384 kJ/mol
# Density = 2.180233 g / cm^3
# Si number density = 21.852062 Si / 1000 Ang^3
#
#
#
# Elastic Constant Matrix: (Units=GPa)
#
#
# Indices 1 2 3 4 5 6 
#
# 1 61.9360 17.1567 8.2377 0.0000 0.0000 0.0000
# 2 17.1567 211.3779 80.8957 0.0000 0.0000 0.0000
# 3 8.2377 80.8957 141.9665 0.0000 0.0000 0.0000
# 4 0.0000 0.0000 0.0000 76.6084 0.0000 0.0000
# 5 0.0000 0.0000 0.0000 0.0000 6.8455 0.0000
# 6 0.0000 0.0000 0.0000 0.0000 0.0000 36.3114
#
#
#
# Elastic Compliance Matrix: (Units=1/GPa)
#
#
# Indices 1 2 3 4 5 6 
#
# 1 0.016524 -0.001246 -0.000249 0.000000 0.000000 0.000000
# 2 -0.001246 0.006144 -0.003429 0.000000 0.000000 0.000000
# 3 -0.000249 -0.003429 0.009012 0.000000 0.000000 0.000000
# 4 0.000000 0.000000 0.000000 0.013053 0.000000 0.000000
# 5 0.000000 0.000000 0.000000 0.000000 0.146081 0.000000
# 6 0.000000 0.000000 0.000000 0.000000 0.000000 0.027540
#
#
# Mechanical properties :
#
#
# Convention : Reuss Voigt Hill
#
# Bulk Modulus (GPa) = 45.80199 69.76228 57.78214
# Shear Modulus (GPa) = 21.23329 44.55240 32.89284
#
# Velocity S-wave (km/s) = 3.12057 4.52023 3.88397
# Velocity P-wave (km/s) = 5.83005 7.69658 6.82740
#
# Compressibility (1/GPa) = 0.02183311
#
# Stress axis : x y z
#
# Youngs Moduli (GPa) = 60.51824 162.75454 110.96101
#
# Poissons Ratio (x) = 0.20278 0.02761
# Poissons Ratio (y) = 0.07540 0.38047
# Poissons Ratio (z) = 0.01506 0.55806
#
# Static dielectric constant tensor:
#      x y z
#    x 1.828710 0.000000 0.000000 
#    y 0.000000 1.770930 0.000000 
#    z 0.000000 0.000000 1.815890 
# 
# From -- ./inp_files/17943.got.cif
#   From: 2010.05.17/outbox.cif.g08.bks.cpg/sg42_9_cif.got.tgz:17943.got - 2010.06.03 19:03:34.
