data_PCOD9369069
_publ_section_title
;
Structure prediction by ZEFSAII (Michael W. Deem and Ramdas Pophale) SiO2 
 PCOD9369069
Probable space group: F M M 2
;
_chemical_formula_sum "Si O2"
_cell_formula_units_Z 80
_cell_length_a 31.291577
_cell_length_b 8.587835
_cell_length_c 14.903737
_cell_angle_alpha 90.000000
_cell_angle_beta 90.000000
_cell_angle_gamma 90.000000
_cell_volume 4005.035045
_symmetry_space_group_name_H-M "F M M 2"
_symmetry_group_IT_number 42
_symmetry_cell_setting 'orthorhombic'
loop_
_space_group_symop_operation_xyz
x,y,z
-x,-y,z
-x,y,z
x,-y,z
x,1/2+y,1/2+z
-x,1/2-y,1/2+z
-x,1/2+y,1/2+z
x,1/2-y,1/2+z
1/2+x,y,1/2+z
1/2-x,-y,1/2+z
1/2-x,y,1/2+z
1/2+x,-y,1/2+z
1/2+x,1/2+y,z
1/2-x,1/2-y,z
1/2-x,1/2+y,z
1/2+x,1/2-y,z
loop_
_atom_site_type_symbol
_atom_site_label
_atom_site_fract_x
_atom_site_fract_y
_atom_site_fract_z
Si Si1 0.363866 0.186320 0.952400
Si Si2 0.546645 0.186174 0.460750
Si Si3 0.634846 0.313473 0.750723
Si Si4 0.546444 0.186229 0.757455
Si Si5 0.702232 0.687764 0.602904
O O1 0.409522 0.237870 0.993511
O O2 0.359923 0.256072 0.852800
O O3 0.363946 0.000000 0.945530
O O4 0.325089 0.236831 0.015912
O O5 0.500000 0.235659 0.497137
O O6 0.545817 0.233349 0.355396
O O7 0.549654 0.000000 0.469596
O O8 0.632119 0.500000 0.750048
O O9 0.589898 0.246600 0.714107
O O10 0.674384 0.263442 0.689200
O O11 0.500000 0.219129 0.714941
O O12 0.549567 0.000000 0.769032
O O13 0.703651 0.500000 0.602786
O O14 0.750000 0.750000 0.603481
#
# Coordination Sequence:
#
# PCOD9369069 Si02
#       5
#    16  16  16  16  16
#     4  10  20  36  57  82 110 142 180 220 266 319
#     4   9  16  27  47  77 110 144 180 216 258 310
#     4  10  20  36  57  82 110 142 180 220 266 319
#     4   9  16  27  47  77 110 144 180 216 258 310
#     4  10  24  42  59  80 107 139 178 225 275 326
#
# _framework density 19.974857
#
# number of rings (size 3 to 8) (size 9 to 14) (size 15 to 20)
#    0.000    2.400    0.000    4.800    0.000    6.400 
#    0.000    5.000    0.000    6.000    0.000    0.000 
#    0.000    0.000    0.000    0.000    0.000    0.000 
#
# Total GULP energy -111585.489782 kJ/mol
# GULP energy per Si atom -5579.274489 kJ/mol
# Density = 1.992939 g / cm^3
# Si number density = 19.974857 Si / 1000 Ang^3
#
#
#
# Elastic Constant Matrix: (Units=GPa)
#
#
# Indices 1 2 3 4 5 6 
#
# 1 224.7001 28.3799 62.8759 0.0000 0.0000 0.0000
# 2 28.3799 31.0329 3.8892 0.0000 0.0000 0.0000
# 3 62.8759 3.8892 80.3119 0.0000 0.0000 0.0000
# 4 0.0000 0.0000 0.0000 12.1266 0.0000 0.0000
# 5 0.0000 0.0000 0.0000 0.0000 58.2972 0.0000
# 6 0.0000 0.0000 0.0000 0.0000 0.0000 40.4012
#
#
#
# Elastic Compliance Matrix: (Units=1/GPa)
#
#
# Indices 1 2 3 4 5 6 
#
# 1 0.006466 -0.005311 -0.004805 0.000000 0.000000 0.000000
# 2 -0.005311 0.036783 0.002377 0.000000 0.000000 0.000000
# 3 -0.004805 0.002377 0.016098 0.000000 0.000000 0.000000
# 4 0.000000 0.000000 0.000000 0.082463 0.000000 0.000000
# 5 0.000000 0.000000 0.000000 0.000000 0.017153 0.000000
# 6 0.000000 0.000000 0.000000 0.000000 0.000000 0.024752
#
#
# Mechanical properties :
#
#
# Convention : Reuss Voigt Hill
#
# Bulk Modulus (GPa) = 22.79539 58.48165 40.63852
# Shear Modulus (GPa) = 23.38463 38.22497 30.80480
#
# Velocity S-wave (km/s) = 3.42527 4.37928 3.93132
# Velocity P-wave (km/s) = 5.20385 7.41026 6.40281
#
# Compressibility (1/GPa) = 0.04386851
#
# Stress axis : x y z
#
# Youngs Moduli (GPa) = 154.66495 27.18662 62.11965
#
# Poissons Ratio (x) = 0.14438 0.29847
# Poissons Ratio (y) = 0.82138 -0.14763
# Poissons Ratio (z) = 0.74312 -0.06461
#
# Static dielectric constant tensor:
#      x y z
#    x 1.727170 0.000000 0.000000 
#    y 0.000000 1.672280 0.000000 
#    z 0.000000 0.000000 1.747360 
# 
# From -- ./inp_files/3543.got.cif
#   From: 2010.05.17/outbox.cif.g08.bks.cpg/sg42_2_cif.got.tgz:3543.got - 2010.06.03 19:03:34.
