data_PCOD9369306
_publ_section_title
;
Structure prediction by ZEFSAII (Michael W. Deem and Ramdas Pophale) SiO2 
 PCOD9369306
Probable space group: F M M 2
;
_chemical_formula_sum "Si O2"
_cell_formula_units_Z 100
_cell_length_a 23.125325
_cell_length_b 24.454249
_cell_length_c 9.535754
_cell_angle_alpha 90.000000
_cell_angle_beta 90.000000
_cell_angle_gamma 90.000000
_cell_volume 5392.587662
_symmetry_space_group_name_H-M "F M M 2"
_symmetry_group_IT_number 42
_symmetry_cell_setting 'orthorhombic'
loop_
_space_group_symop_operation_xyz
x,y,z
-x,-y,z
-x,y,z
x,-y,z
x,1/2+y,1/2+z
-x,1/2-y,1/2+z
-x,1/2+y,1/2+z
x,1/2-y,1/2+z
1/2+x,y,1/2+z
1/2-x,-y,1/2+z
1/2-x,y,1/2+z
1/2+x,-y,1/2+z
1/2+x,1/2+y,z
1/2-x,1/2-y,z
1/2-x,1/2+y,z
1/2+x,1/2-y,z
loop_
_atom_site_type_symbol
_atom_site_label
_atom_site_fract_x
_atom_site_fract_y
_atom_site_fract_z
Si Si1 0.125830 0.708824 0.876880
Si Si2 0.274378 0.631926 0.484813
Si Si3 0.000000 0.823887 0.788538
Si Si4 0.907806 0.904938 0.900892
Si Si5 0.656277 0.813152 0.558997
Si Si6 0.000000 0.000000 0.964879
Si Si7 0.709622 0.937091 0.254412
Si Si8 0.500000 0.780603 0.975139
O O1 0.139061 0.708357 0.711777
O O2 0.169079 0.666189 0.948753
O O3 0.139936 0.767585 0.944595
O O4 0.059228 0.695575 0.911510
O O5 0.223730 0.671501 0.543621
O O6 0.287208 0.585669 0.598285
O O7 0.249585 0.602240 0.347796
O O8 0.944790 0.863346 0.804021
O O9 0.000000 0.790410 0.642731
O O10 0.000000 0.782101 0.920038
O O11 0.854922 0.930169 0.814166
O O12 0.879402 0.867947 0.022665
O O13 0.949726 0.951793 0.956704
O O14 0.727676 0.000000 0.263335
#
# Coordination Sequence:
#
# PCOD9369306 Si02
#       8
#    16  16   8  16  16   4  16   8
#     4  12  25  42  63  98 135 176 213 267 333 406
#     4  11  24  41  65  94 130 172 219 278 332 397
#     4  11  22  39  59  94 130 169 218 253 320 395
#     4  10  22  39  66  95 126 166 229 272 323 393
#     4  11  25  41  65  97 135 170 223 268 335 399
#     4  10  20  42  68  96 122 180 220 284 318 402
#     4  11  22  42  65  95 123 169 221 282 329 386
#     4  12  24  37  63  92 134 176 204 262 323 400
#
# _framework density 18.543973999999999
#
# number of rings (size 3 to 8) (size 9 to 14) (size 15 to 20)
#    0.000    0.960    4.000    2.880    4.480    1.920 
#    0.000    0.000    0.000    0.000    0.000    0.000 
#    0.000    0.000    0.000    0.000    0.000    0.000 
#
# Total GULP energy -139446.512756 kJ/mol
# GULP energy per Si atom -5577.860510 kJ/mol
# Density = 1.850177 g / cm^3
# Si number density = 18.543974 Si / 1000 Ang^3
#
#
#
# Elastic Constant Matrix: (Units=GPa)
#
#
# Indices 1 2 3 4 5 6 
#
# 1 134.2709 46.0109 7.2789 0.0000 0.0001 0.0000
# 2 46.0109 99.3358 34.4058 -0.0002 0.0001 0.0001
# 3 7.2789 34.4058 78.8614 -0.0005 0.0002 0.0002
# 4 0.0000 -0.0002 -0.0005 15.3740 0.0001 0.0001
# 5 0.0001 0.0001 0.0002 0.0001 11.3822 0.0000
# 6 0.0000 0.0001 0.0002 0.0001 0.0000 34.2336
#
#
#
# Elastic Compliance Matrix: (Units=1/GPa)
#
#
# Indices 1 2 3 4 5 6 
#
# 1 0.008941 -0.004542 0.001156 0.000000 0.000000 0.000000
# 2 -0.004542 0.014166 -0.005761 0.000000 0.000000 0.000000
# 3 0.001156 -0.005761 0.015087 0.000000 0.000000 0.000000
# 4 0.000000 0.000000 0.000000 0.065045 -0.000001 0.000000
# 5 0.000000 0.000000 0.000000 -0.000001 0.087856 0.000000
# 6 0.000000 0.000000 0.000000 0.000000 0.000000 0.029211
#
#
# Mechanical properties :
#
#
# Convention : Reuss Voigt Hill
#
# Bulk Modulus (GPa) = 50.24886 54.20657 52.22772
# Shear Modulus (GPa) = 20.38866 27.18280 23.78573
#
# Velocity S-wave (km/s) = 3.31943 3.83280 3.58532
# Velocity P-wave (km/s) = 6.46896 6.99157 6.73534
#
# Compressibility (1/GPa) = 0.01990095
#
# Stress axis : x y z
#
# Youngs Moduli (GPa) = 111.83974 70.59112 66.28116
#
# Poissons Ratio (x) = 0.32063 -0.07664
# Poissons Ratio (y) = 0.50798 0.38186
# Poissons Ratio (z) = -0.12932 0.40669
#
# Static dielectric constant tensor:
#      x y z
#    x 1.655090 0.000000 0.000000 
#    y 0.000000 1.619940 0.000000 
#    z 0.000000 0.000000 1.617760 
# 
# From -- ./inp_files/4298.got.cif
#   From: 2010.05.17/outbox.cif.g08.bks.cpg/sg42_3_cif.got.tgz:4298.got - 2010.06.03 19:03:34.
