data_PCOD9369533
_publ_section_title
;
Structure prediction by ZEFSAII (Michael W. Deem and Ramdas Pophale) SiO2 
 PCOD9369533
Probable space group: F M M 2
;
_chemical_formula_sum "Si O2"
_cell_formula_units_Z 112
_cell_length_a 15.326281
_cell_length_b 14.304506
_cell_length_c 24.231972
_cell_angle_alpha 90.000000
_cell_angle_beta 90.000000
_cell_angle_gamma 90.000000
_cell_volume 5312.493438
_symmetry_space_group_name_H-M "F M M 2"
_symmetry_group_IT_number 42
_symmetry_cell_setting 'orthorhombic'
loop_
_space_group_symop_operation_xyz
x,y,z
-x,-y,z
-x,y,z
x,-y,z
x,1/2+y,1/2+z
-x,1/2-y,1/2+z
-x,1/2+y,1/2+z
x,1/2-y,1/2+z
1/2+x,y,1/2+z
1/2-x,-y,1/2+z
1/2-x,y,1/2+z
1/2+x,-y,1/2+z
1/2+x,1/2+y,z
1/2-x,1/2-y,z
1/2-x,1/2+y,z
1/2+x,1/2-y,z
loop_
_atom_site_type_symbol
_atom_site_label
_atom_site_fract_x
_atom_site_fract_y
_atom_site_fract_z
Si Si1 0.276047 0.113895 0.170220
Si Si2 0.098393 0.387064 0.616935
Si Si3 0.903177 0.605318 0.834993
Si Si4 0.099483 0.700602 0.386111
Si Si5 0.851034 0.222413 0.007434
Si Si6 0.598197 0.106807 0.070469
Si Si7 0.786053 0.109940 0.790621
O O1 0.176700 0.142286 0.157402
O O2 0.336023 0.139311 0.118308
O O3 0.308903 0.146532 0.229772
O O4 0.277349 0.000000 0.172635
O O5 0.099431 0.500000 0.614718
O O6 0.122382 0.345987 0.557055
O O7 0.000000 0.357219 0.631990
O O8 0.897546 0.500000 0.857902
O O9 0.897391 0.687090 0.879463
O O10 0.818863 0.617290 0.796651
O O11 0.000000 0.613781 0.808415
O O12 0.125011 0.679170 0.448627
O O13 0.165014 0.660141 0.340581
O O14 0.000000 0.670252 0.374799
O O15 0.750000 0.250000 0.008307
O O16 0.897813 0.320668 0.020655
O O17 0.500000 0.106440 0.092920
O O18 0.620635 0.000000 0.054665
O O19 0.807817 0.000000 0.794182
#
# Coordination Sequence:
#
# PCOD9369533 Si02
#       7
#    16  16  16  16  16  16  16
#     4   9  19  38  62  90 121 158 205 253 307 369
#     4  10  21  39  62  91 129 168 207 256 315 375
#     4   9  19  38  61  85 116 157 205 255 305 358
#     4  11  24  41  60  89 128 164 207 259 309 373
#     4  12  23  39  64  90 124 167 206 260 309 370
#     4  10  21  39  62  89 122 159 205 260 312 361
#     4  10  21  39  64  90 122 163 205 252 310 377
#
# _framework density 21.082379
#
# number of rings (size 3 to 8) (size 9 to 14) (size 15 to 20)
#    0.000    1.857    1.429    2.571    0.000    2.571 
#    5.143    5.714    0.000    0.000    0.000    0.000 
#    0.000    0.000    0.000    0.000    0.000    0.000 
#
# Total GULP energy -156339.292548 kJ/mol
# GULP energy per Si atom -5583.546162 kJ/mol
# Density = 2.103439 g / cm^3
# Si number density = 21.082379 Si / 1000 Ang^3
#
#
#
# Elastic Constant Matrix: (Units=GPa)
#
#
# Indices 1 2 3 4 5 6 
#
# 1 131.5523 14.6373 41.5652 0.0000 0.0000 0.0000
# 2 14.6373 55.8613 25.5894 0.0000 0.0000 0.0000
# 3 41.5652 25.5894 125.5899 0.0000 0.0000 0.0000
# 4 0.0000 0.0000 0.0000 20.4915 0.0000 0.0000
# 5 0.0000 0.0000 0.0000 0.0000 7.5323 0.0000
# 6 0.0000 0.0000 0.0000 0.0000 0.0000 24.4042
#
#
#
# Elastic Compliance Matrix: (Units=1/GPa)
#
#
# Indices 1 2 3 4 5 6 
#
# 1 0.008544 -0.001041 -0.002616 0.000000 0.000000 0.000000
# 2 -0.001041 0.019871 -0.003704 0.000000 0.000000 0.000000
# 3 -0.002616 -0.003704 0.009583 0.000000 0.000000 0.000000
# 4 0.000000 0.000000 0.000000 0.048801 0.000000 0.000000
# 5 0.000000 0.000000 0.000000 0.000000 0.132761 0.000000
# 6 0.000000 0.000000 0.000000 0.000000 0.000000 0.040977
#
#
# Mechanical properties :
#
#
# Convention : Reuss Voigt Hill
#
# Bulk Modulus (GPa) = 42.96173 52.95417 47.95795
# Shear Modulus (GPa) = 17.66680 25.89969 21.78325
#
# Velocity S-wave (km/s) = 2.89794 3.50880 3.21790
# Velocity P-wave (km/s) = 5.62314 6.44886 6.05010
#
# Compressibility (1/GPa) = 0.02327653
#
# Stress axis : x y z
#
# Youngs Moduli (GPa) = 117.04468 50.32438 104.35275
#
# Poissons Ratio (x) = 0.05236 0.27295
# Poissons Ratio (y) = 0.12179 0.38657
# Poissons Ratio (z) = 0.30614 0.18642
#
# Static dielectric constant tensor:
#      x y z
#    x 1.784890 0.000000 0.000000 
#    y 0.000000 1.795130 0.000000 
#    z 0.000000 0.000000 1.726790 
# 
# From -- ./inp_files/29477.got.cif
#   From: 2010.05.17/outbox.cif.g08.bks.cpg/sg42_15_cif.got.tgz:29477.got - 2010.06.03 19:03:34.
