data_PCOD9369850
_publ_section_title
;
Structure prediction by ZEFSAII (Michael W. Deem and Ramdas Pophale) SiO2 
 PCOD9369850
Probable space group: F M M 2
;
_chemical_formula_sum "Si O2"
_cell_formula_units_Z 96
_cell_length_a 7.927286
_cell_length_b 27.097272
_cell_length_c 25.273106
_cell_angle_alpha 90.000000
_cell_angle_beta 90.000000
_cell_angle_gamma 90.000000
_cell_volume 5428.860930
_symmetry_space_group_name_H-M "F M M 2"
_symmetry_group_IT_number 42
_symmetry_cell_setting 'orthorhombic'
loop_
_space_group_symop_operation_xyz
x,y,z
-x,-y,z
-x,y,z
x,-y,z
x,1/2+y,1/2+z
-x,1/2-y,1/2+z
-x,1/2+y,1/2+z
x,1/2-y,1/2+z
1/2+x,y,1/2+z
1/2-x,-y,1/2+z
1/2-x,y,1/2+z
1/2+x,-y,1/2+z
1/2+x,1/2+y,z
1/2-x,1/2-y,z
1/2-x,1/2+y,z
1/2+x,1/2-y,z
loop_
_atom_site_type_symbol
_atom_site_label
_atom_site_fract_x
_atom_site_fract_y
_atom_site_fract_z
Si Si1 0.809675 0.875007 0.882940
Si Si2 0.799773 0.305846 0.790915
Si Si3 0.500000 0.441597 0.415909
Si Si4 0.200226 0.305846 0.168204
Si Si5 0.297640 0.192905 0.979559
Si Si6 0.000000 0.558403 0.043210
Si Si7 0.690325 0.124993 0.576179
O O1 0.786613 0.846247 0.827846
O O2 0.665807 0.915822 0.891795
O O3 0.776052 0.834413 0.928405
O O4 0.000000 0.894329 0.887908
O O5 0.750000 0.250000 0.806893
O O6 0.750000 0.311486 0.729559
O O7 0.000000 0.310738 0.796652
O O8 0.500000 0.500000 0.406721
O O9 0.500000 0.433164 0.479560
O O10 0.250000 0.250000 0.152225
O O11 0.286614 0.346247 0.131273
O O12 0.000000 0.310738 0.162466
O O13 0.500000 0.187918 0.979559
O O14 0.250000 0.250000 0.979559
O O15 0.223949 0.165587 0.030714
O O16 0.165807 0.584178 0.067324
O O17 0.000000 0.500000 0.052398
O O18 0.500000 0.105671 0.571211
#
# Coordination Sequence:
#
# PCOD9369850 Si02
#       7
#    16  16   8  16  16   8  16
#     4  12  22  39  60  88 121 157 199 245 301 354
#     4  11  21  36  56  89 126 165 205 241 288 358
#     4  11  24  44  66  89 118 154 202 256 305 357
#     4  11  21  36  56  89 126 165 205 241 288 358
#     4  12  22  36  54  86 125 161 194 236 288 357
#     4  11  24  44  66  89 118 154 202 256 305 357
#     4  12  22  39  60  88 121 157 199 245 301 354
#
# _framework density 17.683268999999999
#
# number of rings (size 3 to 8) (size 9 to 14) (size 15 to 20)
#    0.000    0.500    5.000    6.500    0.000    0.667 
#    0.000    1.667    0.000    1.000    0.000    0.000 
#    0.000    0.000    0.000    0.000    0.000    0.000 
#
# Total GULP energy -134235.175407 kJ/mol
# GULP energy per Si atom -5593.132309 kJ/mol
# Density = 1.764302 g / cm^3
# Si number density = 17.683269 Si / 1000 Ang^3
#
#
#
# Elastic Constant Matrix: (Units=GPa)
#
#
# Indices 1 2 3 4 5 6 
#
# 1 176.4797 54.1715 26.4262 0.0000 0.0000 0.0000
# 2 54.1715 128.5355 46.1454 0.0000 0.0000 0.0000
# 3 26.4262 46.1454 69.3639 0.0000 0.0000 0.0000
# 4 0.0000 0.0000 0.0000 31.5404 0.0000 0.0000
# 5 0.0000 0.0000 0.0000 0.0000 29.1081 0.0000
# 6 0.0000 0.0000 0.0000 0.0000 0.0000 24.3211
#
#
#
# Elastic Compliance Matrix: (Units=1/GPa)
#
#
# Indices 1 2 3 4 5 6 
#
# 1 0.006548 -0.002449 -0.000865 0.000000 0.000000 0.000000
# 2 -0.002449 0.011137 -0.006476 0.000000 0.000000 0.000000
# 3 -0.000865 -0.006476 0.019055 0.000000 0.000000 0.000000
# 4 0.000000 0.000000 0.000000 0.031705 0.000000 0.000000
# 5 0.000000 0.000000 0.000000 0.000000 0.034355 0.000000
# 6 0.000000 0.000000 0.000000 0.000000 0.000000 0.041117
#
#
# Mechanical properties :
#
#
# Convention : Reuss Voigt Hill
#
# Bulk Modulus (GPa) = 58.27937 69.76282 64.02109
# Shear Modulus (GPa) = 29.54799 33.50298 31.52548
#
# Velocity S-wave (km/s) = 4.09217 4.35744 4.22689
# Velocity P-wave (km/s) = 7.44021 8.05316 7.75274
#
# Compressibility (1/GPa) = 0.01715873
#
# Stress axis : x y z
#
# Youngs Moduli (GPa) = 152.72670 89.79086 52.48034
#
# Poissons Ratio (x) = 0.21988 0.04542
# Poissons Ratio (y) = 0.37400 0.33987
# Poissons Ratio (z) = 0.13217 0.58149
#
# Static dielectric constant tensor:
#      x y z
#    x 1.616380 0.000000 0.000000 
#    y 0.000000 1.566930 0.000000 
#    z 0.000000 0.000000 1.604280 
# 
# From -- ./inp_files/28204.got.cif
#   From: 2010.05.17/outbox.cif.g08.bks.cpg/sg42_15_cif.got.tgz:28204.got - 2010.06.03 19:03:34.
