data_PCOD9369196
_publ_section_title
;
Structure prediction by ZEFSAII (Michael W. Deem and Ramdas Pophale) SiO2 
 PCOD9369196
Probable space group: F M M 2
;
_chemical_formula_sum "Si O2"
_cell_formula_units_Z 116
_cell_length_a 29.471878
_cell_length_b 7.605544
_cell_length_c 25.123467
_cell_angle_alpha 90.000000
_cell_angle_beta 90.000000
_cell_angle_gamma 90.000000
_cell_volume 5631.416709
_symmetry_space_group_name_H-M "F M M 2"
_symmetry_group_IT_number 42
_symmetry_cell_setting 'orthorhombic'
loop_
_space_group_symop_operation_xyz
x,y,z
-x,-y,z
-x,y,z
x,-y,z
x,1/2+y,1/2+z
-x,1/2-y,1/2+z
-x,1/2+y,1/2+z
x,1/2-y,1/2+z
1/2+x,y,1/2+z
1/2-x,-y,1/2+z
1/2-x,y,1/2+z
1/2+x,-y,1/2+z
1/2+x,1/2+y,z
1/2-x,1/2-y,z
1/2-x,1/2+y,z
1/2+x,1/2-y,z
loop_
_atom_site_type_symbol
_atom_site_label
_atom_site_fract_x
_atom_site_fract_y
_atom_site_fract_z
Si Si1 0.615591 0.706201 0.507040
Si Si2 0.803162 0.290743 0.433708
Si Si3 0.919883 0.302727 0.621279
Si Si4 0.000000 0.000000 0.629272
Si Si5 0.870227 0.713536 0.223007
Si Si6 0.447949 0.712121 0.413180
Si Si7 0.449575 0.708098 0.796116
Si Si8 0.303121 0.210792 0.314835
O O1 0.605722 0.500000 0.513724
O O2 0.665377 0.723024 0.481327
O O3 0.602568 0.789377 0.562867
O O4 0.582460 0.777761 0.461001
O O5 0.808534 0.500000 0.432872
O O6 0.750000 0.250000 0.441013
O O7 0.816527 0.222303 0.374208
O O8 0.938137 0.500000 0.628642
O O9 0.878661 0.272918 0.663150
O O10 0.959294 0.155416 0.628479
O O11 0.868550 0.500000 0.222299
O O12 0.915755 0.777066 0.252695
O O13 0.830454 0.774244 0.262946
O O14 0.500000 0.772502 0.418139
O O15 0.447979 0.500000 0.414171
O O16 0.430912 0.768327 0.355377
O O17 0.500000 0.784787 0.794351
O O18 0.453251 0.500000 0.786367
O O19 0.250000 0.250000 0.308894
O O20 0.309410 0.000000 0.316539
#
# Coordination Sequence:
#
# PCOD9369196 Si02
#       8
#    16  16  16   4  16  16  16  16
#     4  11  22  39  62  86 125 167 208 270 322 374
#     4  10  20  37  62  96 128 166 215 262 324 398
#     4  12  27  44  69  97 123 173 224 264 325 384
#     4  12  26  52  68  90 136 164 218 284 316 368
#     4  10  20  38  60  85 123 166 207 267 323 376
#     4   9  19  33  52  78 114 155 195 243 309 373
#     4   9  18  31  52  79 112 152 193 244 314 374
#     4   9  19  35  60  92 129 169 211 263 328 386
#
# _framework density 20.598725000000002
#
# number of rings (size 3 to 8) (size 9 to 14) (size 15 to 20)
#    0.000    1.931    1.379    1.862    1.931    3.862 
#    0.000    0.690    0.000    1.655    0.000    0.000 
#    0.000    0.000    0.000    0.000    0.000    0.000 
#
# Total GULP energy -161579.648747 kJ/mol
# GULP energy per Si atom -5571.712026 kJ/mol
# Density = 2.055184 g / cm^3
# Si number density = 20.598725 Si / 1000 Ang^3
#
#
#
# Elastic Constant Matrix: (Units=GPa)
#
#
# Indices 1 2 3 4 5 6 
#
# 1 55.1521 3.6184 15.9092 0.0000 -0.0001 0.0004
# 2 3.6184 92.2997 -3.0603 0.0000 -0.0001 0.0004
# 3 15.9092 -3.0603 62.4251 0.0000 -0.0001 -0.0001
# 4 0.0000 0.0000 0.0000 11.7207 0.0000 0.0000
# 5 -0.0001 -0.0001 -0.0001 0.0000 1.6832 0.0000
# 6 0.0004 0.0004 -0.0001 0.0000 0.0000 19.4690
#
#
#
# Elastic Compliance Matrix: (Units=1/GPa)
#
#
# Indices 1 2 3 4 5 6 
#
# 1 0.019651 -0.000938 -0.005054 0.000000 0.000001 0.000000
# 2 -0.000938 0.010897 0.000773 0.000000 0.000001 0.000000
# 3 -0.005054 0.000773 0.017345 0.000000 0.000001 0.000000
# 4 0.000000 0.000000 0.000000 0.085319 0.000002 0.000000
# 5 0.000001 0.000001 0.000001 0.000002 0.594121 -0.000001
# 6 0.000000 0.000000 0.000000 0.000000 -0.000001 0.051364
#
#
# Mechanical properties :
#
#
# Convention : Reuss Voigt Hill
#
# Bulk Modulus (GPa) = 26.69852 26.97907 26.83879
# Shear Modulus (GPa) = 6.23737 19.46855 12.85296
#
# Velocity S-wave (km/s) = 1.74201 3.07764 2.50065
# Velocity P-wave (km/s) = 4.12741 5.07494 4.62550
#
# Compressibility (1/GPa) = 0.03745527
#
# Stress axis : x y z
#
# Youngs Moduli (GPa) = 50.88770 91.77109 57.65300
#
# Poissons Ratio (x) = 0.08608 0.29138
# Poissons Ratio (y) = 0.04773 -0.04458
# Poissons Ratio (z) = 0.25719 -0.07096
#
# Static dielectric constant tensor:
#      x y z
#    x 1.730920 0.000000 0.000000 
#    y 0.000000 1.770700 0.000000 
#    z 0.000000 0.000000 1.748510 
# 
# From -- ./inp_files/30874.got.cif
#   From: 2010.05.17/outbox.cif.g08.bks.cpg/sg42_16_cif.got.tgz:30874.got - 2010.06.03 19:03:34.
