data_PCOD9369846
_publ_section_title
;
Structure prediction by ZEFSAII (Michael W. Deem and Ramdas Pophale) SiO2 
 PCOD9369846
Probable space group: F M M 2
;
_chemical_formula_sum "Si O2"
_cell_formula_units_Z 104
_cell_length_a 21.967978
_cell_length_b 14.700510
_cell_length_c 18.532876
_cell_angle_alpha 90.000000
_cell_angle_beta 90.000000
_cell_angle_gamma 90.000000
_cell_volume 5985.015876
_symmetry_space_group_name_H-M "F M M 2"
_symmetry_group_IT_number 42
_symmetry_cell_setting 'orthorhombic'
loop_
_space_group_symop_operation_xyz
x,y,z
-x,-y,z
-x,y,z
x,-y,z
x,1/2+y,1/2+z
-x,1/2-y,1/2+z
-x,1/2+y,1/2+z
x,1/2-y,1/2+z
1/2+x,y,1/2+z
1/2-x,-y,1/2+z
1/2-x,y,1/2+z
1/2+x,-y,1/2+z
1/2+x,1/2+y,z
1/2-x,1/2-y,z
1/2-x,1/2+y,z
1/2+x,1/2-y,z
loop_
_atom_site_type_symbol
_atom_site_label
_atom_site_fract_x
_atom_site_fract_y
_atom_site_fract_z
Si Si1 0.160640 0.899806 0.502020
Si Si2 0.160640 0.100194 0.893250
Si Si3 0.067601 0.662895 0.893329
Si Si4 0.071699 0.810770 0.612788
Si Si5 0.750000 0.750000 0.947635
Si Si6 0.428301 0.189230 0.282482
Si Si7 0.567601 0.662895 0.001940
O O1 0.120107 0.896186 0.428806
O O2 0.114624 0.877586 0.567419
O O3 0.208247 0.817666 0.494500
O O4 0.187885 0.000000 0.510278
O O5 0.208247 0.182334 0.900770
O O6 0.114624 0.122414 0.827851
O O7 0.120107 0.103814 0.966464
O O8 0.187885 0.000000 0.884992
O O9 0.080854 0.710137 0.816829
O O10 0.065107 0.750000 0.947635
O O11 0.000000 0.621452 0.892889
O O12 0.083614 0.813478 0.697635
O O13 0.080854 0.710137 0.578441
O O14 0.000000 0.832540 0.600623
O O15 0.500000 0.167460 0.294647
O O16 0.500000 0.621452 0.002381
#
# Coordination Sequence:
#
# PCOD9369846 Si02
#       7
#    16  16  16  16   8  16  16
#     4  11  21  34  56  79 103 138 181 224 265 306
#     4  11  21  34  56  79 103 138 181 224 265 306
#     4   8  14  29  51  76 105 136 167 205 260 316
#     4   9  17  32  56  84 113 139 164 209 275 329
#     4  12  22  40  52  74 104 144 188 226 252 298
#     4   9  17  32  56  84 113 139 164 209 275 329
#     4   8  14  29  51  76 105 136 167 205 260 316
#
# _framework density 17.376729000000001
#
# number of rings (size 3 to 8) (size 9 to 14) (size 15 to 20)
#    0.000    2.462    4.615    3.231    0.000    3.077 
#    0.000    2.308    0.000    0.923    0.000    4.308 
#    0.000    0.000    0.000    0.000    0.000    0.000 
#
# Total GULP energy -144750.897361 kJ/mol
# GULP energy per Si atom -5567.342206 kJ/mol
# Density = 1.733718 g / cm^3
# Si number density = 17.376729 Si / 1000 Ang^3
#
#
#
# Elastic Constant Matrix: (Units=GPa)
#
#
# Indices 1 2 3 4 5 6 
#
# 1 70.6346 44.5050 37.0852 0.0000 0.0000 0.0000
# 2 44.5050 99.1491 40.6373 0.0000 0.0000 0.0000
# 3 37.0852 40.6373 84.8089 0.0000 0.0000 0.0000
# 4 0.0000 0.0000 0.0000 10.9713 0.0000 0.0000
# 5 0.0000 0.0000 0.0000 0.0000 14.0858 0.0000
# 6 0.0000 0.0000 0.0000 0.0000 0.0000 -0.8408
#
#
#
# Elastic Compliance Matrix: (Units=1/GPa)
#
#
# Indices 1 2 3 4 5 6 
#
# 1 0.022004 -0.007383 -0.006084 0.000000 0.000000 0.000000
# 2 -0.007383 0.015028 -0.003972 0.000000 0.000000 0.000000
# 3 -0.006084 -0.003972 0.016355 0.000000 0.000000 0.000000
# 4 0.000000 0.000000 0.000000 0.091147 0.000000 0.000000
# 5 0.000000 0.000000 0.000000 0.000000 0.070994 0.000000
# 6 0.000000 0.000000 0.000000 0.000000 0.000000 -1.189355
#
#
# Mechanical properties :
#
#
# Convention : Reuss Voigt Hill
#
# Bulk Modulus (GPa) = 54.03182 55.44973 54.74078
# Shear Modulus (GPa) = -5.36033 13.66759 4.15363
#
# Velocity S-wave (km/s) = -1.75826 2.80758 1.54775
# Velocity P-wave (km/s) = 5.19999 6.51841 5.89617
#
# Compressibility (1/GPa) = 0.01850761
#
# Stress axis : x y z
#
# Youngs Moduli (GPa) = 45.44726 66.54247 61.14328
#
# Poissons Ratio (x) = 0.49129 0.37199
# Poissons Ratio (y) = 0.33554 0.24288
# Poissons Ratio (z) = 0.27650 0.26433
#
# Static dielectric constant tensor:
#      x y z
#    x 1.637990 0.000000 0.000000 
#    y 0.000000 1.633890 0.000000 
#    z 0.000000 0.000000 1.591380 
# 
# From -- ./inp_files/21704.got.cif
#   From: 2010.05.17/outbox.cif.g08.bks.cpg/sg42_11_cif.got.tgz:21704.got - 2010.06.03 19:03:34.
