data_PCOD9369804
_publ_section_title
;
Structure prediction by ZEFSAII (Michael W. Deem and Ramdas Pophale) SiO2 
 PCOD9369804
Probable space group: F M M 2
;
_chemical_formula_sum "Si O2"
_cell_formula_units_Z 52
_cell_length_a 16.013599
_cell_length_b 13.302314
_cell_length_c 9.507570
_cell_angle_alpha 90.000000
_cell_angle_beta 90.000000
_cell_angle_gamma 90.000000
_cell_volume 2025.282806
_symmetry_space_group_name_H-M "F M M 2"
_symmetry_group_IT_number 42
_symmetry_cell_setting 'orthorhombic'
loop_
_space_group_symop_operation_xyz
x,y,z
-x,-y,z
-x,y,z
x,-y,z
x,1/2+y,1/2+z
-x,1/2-y,1/2+z
-x,1/2+y,1/2+z
x,1/2-y,1/2+z
1/2+x,y,1/2+z
1/2-x,-y,1/2+z
1/2-x,y,1/2+z
1/2+x,-y,1/2+z
1/2+x,1/2+y,z
1/2-x,1/2-y,z
1/2-x,1/2+y,z
1/2+x,1/2-y,z
loop_
_atom_site_type_symbol
_atom_site_label
_atom_site_fract_x
_atom_site_fract_y
_atom_site_fract_z
Si Si1 0.000000 0.000000 0.418061
Si Si2 0.248537 0.386519 0.650776
Si Si3 0.857903 0.175068 0.399777
Si Si4 0.092311 0.389270 0.350296
O O1 0.073363 0.088708 0.414955
O O2 0.217093 0.500000 0.643622
O O3 0.279211 0.351738 0.498700
O O4 0.334957 0.390655 0.736983
O O5 0.180389 0.326719 0.741475
O O6 0.894555 0.285466 0.433360
O O7 0.094068 0.500000 0.421776
O O8 0.000000 0.382966 0.283280
#
# Coordination Sequence:
#
# PCOD9369804 Si02
#       4
#     4  16  16  16
#     4  12  24  44  86 118 150 196 264 320 384 456
#     4  11  24  45  76 111 154 199 256 314 388 457
#     4  12  25  48  80 116 155 202 259 314 392 457
#     4  10  24  43  72 111 157 201 256 320 381 450
#
# _framework density 25.675426999999999
#
# number of rings (size 3 to 8) (size 9 to 14) (size 15 to 20)
#    0.000    0.923    4.615    0.923    2.154    4.923 
#    0.000    4.615    6.769    1.846    0.000    0.000 
#    0.000    4.923    0.000    0.000    0.000    0.000 
#
# Total GULP energy -72499.759462 kJ/mol
# GULP energy per Si atom -5576.904574 kJ/mol
# Density = 2.561699 g / cm^3
# Si number density = 25.675427 Si / 1000 Ang^3
#
#
#
# Elastic Constant Matrix: (Units=GPa)
#
#
# Indices 1 2 3 4 5 6 
#
# 1 147.7024 49.7887 38.9443 0.0000 0.0000 0.0000
# 2 49.7887 300.2661 29.2909 0.0000 0.0000 0.0000
# 3 38.9443 29.2909 95.0428 0.0000 0.0000 0.0000
# 4 0.0000 0.0000 0.0000 9.9580 0.0000 0.0000
# 5 0.0000 0.0000 0.0000 0.0000 15.9482 0.0000
# 6 0.0000 0.0000 0.0000 0.0000 0.0000 56.9990
#
#
#
# Elastic Compliance Matrix: (Units=1/GPa)
#
#
# Indices 1 2 3 4 5 6 
#
# 1 0.007884 -0.001023 -0.002915 0.000000 0.000000 0.000000
# 2 -0.001023 0.003566 -0.000680 0.000000 0.000000 0.000000
# 3 -0.002915 -0.000680 0.011926 0.000000 0.000000 0.000000
# 4 0.000000 0.000000 0.000000 0.100422 0.000000 0.000000
# 5 0.000000 0.000000 0.000000 0.000000 0.062703 0.000000
# 6 0.000000 0.000000 0.000000 0.000000 0.000000 0.017544
#
#
# Mechanical properties :
#
#
# Convention : Reuss Voigt Hill
#
# Bulk Modulus (GPa) = 70.72283 86.56213 78.64248
# Shear Modulus (GPa) = 22.93641 44.91352 33.92496
#
# Velocity S-wave (km/s) = 2.99209 4.18698 3.63891
# Velocity P-wave (km/s) = 6.28821 7.56053 6.95353
#
# Compressibility (1/GPa) = 0.01413971
#
# Stress axis : x y z
#
# Youngs Moduli (GPa) = 126.84218 280.40123 83.85286
#
# Poissons Ratio (x) = 0.28682 0.24445
# Poissons Ratio (y) = 0.12974 0.05702
# Poissons Ratio (z) = 0.36977 0.19066
#
# Static dielectric constant tensor:
#      x y z
#    x 1.971550 0.000000 0.000000 
#    y 0.000000 2.059590 0.000000 
#    z 0.000000 0.000000 2.031070 
# 
# From -- ./inp_files/8306.got.cif
#   From: 2010.05.17/outbox.cif.g08.bks.cpg/sg42_5_cif.got.tgz:8306.got - 2010.06.03 19:03:34.
