data_PCOD9369898
_publ_section_title
;
Structure prediction by ZEFSAII (Michael W. Deem and Ramdas Pophale) SiO2 
 PCOD9369898
Probable space group: F M M 2
;
_chemical_formula_sum "Si O2"
_cell_formula_units_Z 88
_cell_length_a 24.648090
_cell_length_b 14.532410
_cell_length_c 11.966192
_cell_angle_alpha 90.000000
_cell_angle_beta 90.000000
_cell_angle_gamma 90.000000
_cell_volume 4286.243900
_symmetry_space_group_name_H-M "F M M 2"
_symmetry_group_IT_number 42
_symmetry_cell_setting 'orthorhombic'
loop_
_space_group_symop_operation_xyz
x,y,z
-x,-y,z
-x,y,z
x,-y,z
x,1/2+y,1/2+z
-x,1/2-y,1/2+z
-x,1/2+y,1/2+z
x,1/2-y,1/2+z
1/2+x,y,1/2+z
1/2-x,-y,1/2+z
1/2-x,y,1/2+z
1/2+x,-y,1/2+z
1/2+x,1/2+y,z
1/2-x,1/2-y,z
1/2-x,1/2+y,z
1/2+x,1/2-y,z
loop_
_atom_site_type_symbol
_atom_site_label
_atom_site_fract_x
_atom_site_fract_y
_atom_site_fract_z
Si Si1 0.060051 0.128744 0.363360
Si Si2 0.197016 0.697862 0.774918
Si Si3 0.360096 0.500000 0.502669
Si Si4 0.761939 0.000000 0.359198
Si Si5 0.361683 0.000000 0.269374
Si Si6 0.891384 0.681927 0.388549
Si Si7 0.386871 0.895400 0.630830
O O1 0.106725 0.083750 0.442055
O O2 0.065869 0.238277 0.365855
O O3 0.071338 0.101590 0.234460
O O4 0.000000 0.101357 0.398857
O O5 0.250000 0.750000 0.737564
O O6 0.215002 0.595698 0.810834
O O7 0.165578 0.762011 0.865547
O O8 0.156443 0.678364 0.674550
O O9 0.295428 0.500000 0.475818
O O10 0.361902 0.500000 0.635555
O O11 0.697687 0.000000 0.332414
O O12 0.389991 0.093971 0.308483
O O13 0.902845 0.641082 0.510486
O O14 0.365523 0.000000 0.618543
#
# Coordination Sequence:
#
# PCOD9369898 Si02
#       7
#    16  16   8   8   8  16  16
#     4  11  25  47  75 101 131 185 244 291 351 412
#     4  11  22  39  63  99 137 184 236 275 337 407
#     4  12  25  47  72 101 144 177 241 290 338 425
#     4  12  22  43  65 104 134 186 232 272 336 410
#     4  12  28  44  67 105 148 187 220 288 364 407
#     4  11  25  43  65 102 143 179 227 290 354 413
#     4  11  22  43  70  95 140 176 233 298 346 413
#
# _framework density 20.530795000000001
#
# number of rings (size 3 to 8) (size 9 to 14) (size 15 to 20)
#    0.000    0.727    8.182    0.273    5.091    2.909 
#    0.000    1.364    0.000    0.000    0.000    0.000 
#    0.000    0.000    0.000    0.000    0.000    0.000 
#
# Total GULP energy -122564.716925 kJ/mol
# GULP energy per Si atom -5571.123497 kJ/mol
# Density = 2.048407 g / cm^3
# Si number density = 20.530795 Si / 1000 Ang^3
#
#
#
# Elastic Constant Matrix: (Units=GPa)
#
#
# Indices 1 2 3 4 5 6 
#
# 1 79.6910 18.9582 12.6116 0.0000 0.0000 0.0000
# 2 18.9582 155.5544 55.4558 0.0000 0.0000 0.0000
# 3 12.6116 55.4558 140.2730 0.0000 0.0000 0.0000
# 4 0.0000 0.0000 0.0000 35.7501 0.0000 0.0000
# 5 0.0000 0.0000 0.0000 0.0000 -4.6322 0.0000
# 6 0.0000 0.0000 0.0000 0.0000 0.0000 -27.8327
#
#
#
# Elastic Compliance Matrix: (Units=1/GPa)
#
#
# Indices 1 2 3 4 5 6 
#
# 1 0.012971 -0.001356 -0.000630 0.000000 0.000000 0.000000
# 2 -0.001356 0.007625 -0.002893 0.000000 0.000000 0.000000
# 3 -0.000630 -0.002893 0.008329 0.000000 0.000000 0.000000
# 4 0.000000 0.000000 0.000000 0.027972 0.000000 0.000000
# 5 0.000000 0.000000 0.000000 0.000000 -0.215881 0.000000
# 6 0.000000 0.000000 0.000000 0.000000 0.000000 -0.035929
#
#
# Mechanical properties :
#
#
# Convention : Reuss Voigt Hill
#
# Bulk Modulus (GPa) = 52.17177 61.06329 56.61753
# Shear Modulus (GPa) = -27.96952 19.88989 -4.03981
#
# Velocity S-wave (km/s) = -3.69497 3.11591 -1.40426
# Velocity P-wave (km/s) = 2.69498 6.53850 5.00075
#
# Compressibility (1/GPa) = 0.01916745
#
# Stress axis : x y z
#
# Youngs Moduli (GPa) = 77.09623 131.14528 120.06012
#
# Poissons Ratio (x) = 0.17786 0.07564
# Poissons Ratio (y) = 0.10456 0.34729
# Poissons Ratio (z) = 0.04857 0.37935
#
# Static dielectric constant tensor:
#      x y z
#    x 1.776330 0.000000 0.000000 
#    y 0.000000 1.748440 0.000000 
#    z 0.000000 0.000000 1.711900 
# 
# From -- ./inp_files/10625.got.cif
#   From: 2010.05.17/outbox.cif.g08.bks.cpg/sg42_6_cif.got.tgz:10625.got - 2010.06.03 19:03:34.
