data_PCOD9369297
_publ_section_title
;
Structure prediction by ZEFSAII (Michael W. Deem and Ramdas Pophale) SiO2 
 PCOD9369297
Probable space group: F M M 2
;
_chemical_formula_sum "Si O2"
_cell_formula_units_Z 112
_cell_length_a 15.126885
_cell_length_b 30.772409
_cell_length_c 10.028058
_cell_angle_alpha 90.000000
_cell_angle_beta 90.000000
_cell_angle_gamma 90.000000
_cell_volume 4667.967659
_symmetry_space_group_name_H-M "F M M 2"
_symmetry_group_IT_number 42
_symmetry_cell_setting 'orthorhombic'
loop_
_space_group_symop_operation_xyz
x,y,z
-x,-y,z
-x,y,z
x,-y,z
x,1/2+y,1/2+z
-x,1/2-y,1/2+z
-x,1/2+y,1/2+z
x,1/2-y,1/2+z
1/2+x,y,1/2+z
1/2-x,-y,1/2+z
1/2-x,y,1/2+z
1/2+x,-y,1/2+z
1/2+x,1/2+y,z
1/2-x,1/2-y,z
1/2-x,1/2+y,z
1/2+x,1/2-y,z
loop_
_atom_site_type_symbol
_atom_site_label
_atom_site_fract_x
_atom_site_fract_y
_atom_site_fract_z
Si Si1 0.360393 0.304244 0.090000
Si Si2 0.770040 0.049171 0.160812
Si Si3 0.095741 0.397825 0.185373
Si Si4 0.357964 0.751872 0.345901
Si Si5 0.406850 0.047702 0.434962
Si Si6 0.657567 0.824516 0.028252
Si Si7 0.896355 0.382426 0.786297
O O1 0.382757 0.265433 0.197850
O O2 0.392324 0.348277 0.161794
O O3 0.385928 0.293424 0.936144
O O4 0.253888 0.310094 0.078249
O O5 0.679601 0.074731 0.138686
O O6 0.837889 0.075874 0.252249
O O7 0.756731 0.000000 0.207689
O O8 0.821583 0.047923 0.022729
O O9 0.094371 0.411553 0.338699
O O10 0.000000 0.411093 0.129826
O O11 0.110485 0.347653 0.151417
O O12 0.250000 0.750000 0.343580
O O13 0.387232 0.714470 0.449242
O O14 0.500000 0.049922 0.513833
O O15 0.409616 0.000000 0.365714
O O16 0.653727 0.860396 0.911209
O O17 0.000000 0.389922 0.815423
#
# Coordination Sequence:
#
# PCOD9369297 Si02
#       7
#    16  16  16  16  16  16  16
#     4  10  20  40  66  99 138 184 229 277 342 416
#     4  11  24  42  68  95 130 181 239 294 355 429
#     4  11  23  40  63  96 132 172 222 288 355 422
#     4   9  18  34  64 100 132 178 230 274 331 409
#     4   9  20  40  63  87 123 172 226 284 346 413
#     4  10  21  39  65  96 137 177 222 280 354 417
#     4  11  24  43  67 101 143 187 234 296 359 425
#
# _framework density 23.993312
#
# number of rings (size 3 to 8) (size 9 to 14) (size 15 to 20)
#    0.000    1.857    1.429    2.571    2.000    1.714 
#    2.571    4.286    0.000    3.429    0.000    0.000 
#    0.000    0.000    0.000    0.000    0.000    0.000 
#
# Total GULP energy -156163.388417 kJ/mol
# GULP energy per Si atom -5577.263872 kJ/mol
# Density = 2.393870 g / cm^3
# Si number density = 23.993312 Si / 1000 Ang^3
#
#
#
# Elastic Constant Matrix: (Units=GPa)
#
#
# Indices 1 2 3 4 5 6 
#
# 1 138.4648 24.5211 33.3097 0.0000 0.0000 0.0000
# 2 24.5211 65.1283 38.0445 0.0000 0.0000 0.0000
# 3 33.3097 38.0445 106.2453 0.0000 0.0000 0.0000
# 4 0.0000 0.0000 0.0000 43.4591 0.0000 0.0000
# 5 0.0000 0.0000 0.0000 0.0000 -1.4067 0.0000
# 6 0.0000 0.0000 0.0000 0.0000 0.0000 113.5010
#
#
#
# Elastic Compliance Matrix: (Units=1/GPa)
#
#
# Indices 1 2 3 4 5 6 
#
# 1 0.008004 -0.001957 -0.001809 0.000000 0.000000 0.000000
# 2 -0.001957 0.019894 -0.006510 0.000000 0.000000 0.000000
# 3 -0.001809 -0.006510 0.012310 0.000000 0.000000 0.000000
# 4 0.000000 0.000000 0.000000 0.023010 0.000000 0.000000
# 5 0.000000 0.000000 0.000000 0.000000 -0.710894 0.000000
# 6 0.000000 0.000000 0.000000 0.000000 0.000000 0.008810
#
#
# Mechanical properties :
#
#
# Convention : Reuss Voigt Hill
#
# Bulk Modulus (GPa) = 50.87313 55.73211 53.30262
# Shear Modulus (GPa) = -8.17311 45.37491 18.60090
#
# Velocity S-wave (km/s) = -1.84765 4.35345 2.78736
# Velocity P-wave (km/s) = 4.08624 6.96769 5.71165
#
# Compressibility (1/GPa) = 0.01965674
#
# Stress axis : x y z
#
# Youngs Moduli (GPa) = 124.94246 50.26648 81.23251
#
# Poissons Ratio (x) = 0.09837 0.14691
# Poissons Ratio (y) = 0.24451 0.52883
# Poissons Ratio (z) = 0.22596 0.32724
#
# Static dielectric constant tensor:
#      x y z
#    x 1.985290 0.000000 0.000000 
#    y 0.000000 2.080940 0.000000 
#    z 0.000000 0.000000 1.980160 
# 
# From -- ./inp_files/8097.got.cif
#   From: 2010.05.17/outbox.cif.g08.bks.cpg/sg42_5_cif.got.tgz:8097.got - 2010.06.03 19:03:34.
