data_PCOD9369037
_publ_section_title
;
Structure prediction by ZEFSAII (Michael W. Deem and Ramdas Pophale) SiO2 
 PCOD9369037
Probable space group: F M M 2
;
_chemical_formula_sum "Si O2"
_cell_formula_units_Z 96
_cell_length_a 16.037320
_cell_length_b 19.180511
_cell_length_c 14.775523
_cell_angle_alpha 90.000000
_cell_angle_beta 90.000000
_cell_angle_gamma 90.000000
_cell_volume 4545.009869
_symmetry_space_group_name_H-M "F M M 2"
_symmetry_group_IT_number 42
_symmetry_cell_setting 'orthorhombic'
loop_
_space_group_symop_operation_xyz
x,y,z
-x,-y,z
-x,y,z
x,-y,z
x,1/2+y,1/2+z
-x,1/2-y,1/2+z
-x,1/2+y,1/2+z
x,1/2-y,1/2+z
1/2+x,y,1/2+z
1/2-x,-y,1/2+z
1/2-x,y,1/2+z
1/2+x,-y,1/2+z
1/2+x,1/2+y,z
1/2-x,1/2-y,z
1/2-x,1/2+y,z
1/2+x,1/2-y,z
loop_
_atom_site_type_symbol
_atom_site_label
_atom_site_fract_x
_atom_site_fract_y
_atom_site_fract_z
Si Si1 0.690119 0.417160 0.557950
Si Si2 0.643589 0.175160 0.550386
Si Si3 0.903723 0.307324 0.950393
Si Si4 0.410517 0.082900 0.398292
Si Si5 0.723900 0.581993 0.759472
Si Si6 0.595980 0.847372 0.748935
O O1 0.702059 0.500000 0.540655
O O2 0.772977 0.370814 0.549575
O O3 0.625084 0.382094 0.489526
O O4 0.673919 0.408098 0.665298
O O5 0.649235 0.248013 0.499166
O O6 0.586160 0.124915 0.490864
O O7 0.609693 0.188151 0.651459
O O8 0.897712 0.303949 0.841810
O O9 0.000000 0.295490 0.974759
O O10 0.500000 0.091807 0.350230
O O11 0.332738 0.111090 0.340237
O O12 0.400272 0.000000 0.414946
O O13 0.727494 0.500000 0.774562
O O14 0.819913 0.605796 0.754360
O O15 0.500000 0.876789 0.749515
#
# Coordination Sequence:
#
# PCOD9369037 Si02
#       6
#    16  16  16  16  16  16
#     4  10  22  41  64  90 122 162 206 251 302 361
#     4  11  22  41  64  88 120 158 202 253 305 358
#     4  11  24  40  61  90 123 161 203 249 305 367
#     4  10  20  35  59  90 122 159 202 250 305 360
#     4   9  20  38  60  88 121 157 201 252 301 356
#     4  10  22  39  59  86 120 158 201 249 303 363
#
# _framework density 21.122067000000001
#
# number of rings (size 3 to 8) (size 9 to 14) (size 15 to 20)
#    0.000    1.833    0.000    3.500    0.000    5.333 
#    0.000    6.667    0.000    0.000    0.000    0.000 
#    0.000    0.000    0.000    0.000    0.000    0.000 
#
# Total GULP energy -133723.264082 kJ/mol
# GULP energy per Si atom -5571.802670 kJ/mol
# Density = 2.107399 g / cm^3
# Si number density = 21.122067 Si / 1000 Ang^3
#
#
#
# Elastic Constant Matrix: (Units=GPa)
#
#
# Indices 1 2 3 4 5 6 
#
# 1 74.3212 23.5681 52.5138 0.0000 0.0000 0.0000
# 2 23.5681 86.7647 52.4614 0.0000 0.0000 0.0000
# 3 52.5138 52.4614 137.8408 0.0000 0.0000 0.0000
# 4 0.0000 0.0000 0.0000 21.1805 0.0000 0.0000
# 5 0.0000 0.0000 0.0000 0.0000 14.5052 0.0000
# 6 0.0000 0.0000 0.0000 0.0000 0.0000 61.7058
#
#
#
# Elastic Compliance Matrix: (Units=1/GPa)
#
#
# Indices 1 2 3 4 5 6 
#
# 1 0.018477 -0.000991 -0.006662 0.000000 0.000000 0.000000
# 2 -0.000991 0.015024 -0.005340 0.000000 0.000000 0.000000
# 3 -0.006662 -0.005340 0.011825 0.000000 0.000000 0.000000
# 4 0.000000 0.000000 0.000000 0.047213 0.000000 0.000000
# 5 0.000000 0.000000 0.000000 0.000000 0.068941 0.000000
# 6 0.000000 0.000000 0.000000 0.000000 0.000000 0.016206
#
#
# Mechanical properties :
#
#
# Convention : Reuss Voigt Hill
#
# Bulk Modulus (GPa) = 51.70869 61.77925 56.74397
# Shear Modulus (GPa) = 23.79616 30.83721 27.31668
#
# Velocity S-wave (km/s) = 3.36013 3.82508 3.60012
# Velocity P-wave (km/s) = 6.29190 6.98716 6.64863
#
# Compressibility (1/GPa) = 0.01933911
#
# Stress axis : x y z
#
# Youngs Moduli (GPa) = 54.12275 66.56199 84.56402
#
# Poissons Ratio (x) = 0.06594 0.56337
# Poissons Ratio (y) = 0.05362 0.45161
# Poissons Ratio (z) = 0.36057 0.35547
#
# Static dielectric constant tensor:
#      x y z
#    x 1.821100 0.000000 0.000000 
#    y 0.000000 1.744560 0.000000 
#    z 0.000000 0.000000 1.792430 
# 
# From -- ./inp_files/14004.got.cif
#   From: 2010.05.17/outbox.cif.g08.bks.cpg/sg42_8_cif.got.tgz:14004.got - 2010.06.03 19:03:34.
