data_PCOD9369419
_publ_section_title
;
Structure prediction by ZEFSAII (Michael W. Deem and Ramdas Pophale) SiO2 
 PCOD9369419
Probable space group: F M M 2
;
_chemical_formula_sum "Si O2"
_cell_formula_units_Z 116
_cell_length_a 8.040869
_cell_length_b 30.845407
_cell_length_c 25.548360
_cell_angle_alpha 90.000000
_cell_angle_beta 90.000000
_cell_angle_gamma 90.000000
_cell_volume 6336.603297
_symmetry_space_group_name_H-M "F M M 2"
_symmetry_group_IT_number 42
_symmetry_cell_setting 'orthorhombic'
loop_
_space_group_symop_operation_xyz
x,y,z
-x,-y,z
-x,y,z
x,-y,z
x,1/2+y,1/2+z
-x,1/2-y,1/2+z
-x,1/2+y,1/2+z
x,1/2-y,1/2+z
1/2+x,y,1/2+z
1/2-x,-y,1/2+z
1/2-x,y,1/2+z
1/2+x,-y,1/2+z
1/2+x,1/2+y,z
1/2-x,1/2-y,z
1/2-x,1/2+y,z
1/2+x,1/2-y,z
loop_
_atom_site_type_symbol
_atom_site_label
_atom_site_fract_x
_atom_site_fract_y
_atom_site_fract_z
Si Si1 0.305819 0.700230 0.267230
Si Si2 0.688365 0.937673 0.024528
Si Si3 0.305182 0.136303 0.178855
Si Si4 0.500000 0.500000 0.998998
Si Si5 0.699211 0.297773 0.590332
Si Si6 0.197373 0.344820 0.490181
Si Si7 0.699438 0.299251 0.885079
Si Si8 0.305092 0.951667 0.640880
O O1 0.500000 0.697810 0.256068
O O2 0.250000 0.750000 0.257991
O O3 0.218160 0.665605 0.229994
O O4 0.272669 0.690350 0.328194
O O5 0.500000 0.951028 0.009239
O O6 0.710506 0.887512 0.009923
O O7 0.706047 0.943782 0.087200
O O8 0.848274 0.962979 0.001419
O O9 0.500000 0.129215 0.170245
O O10 0.239137 0.165304 0.130445
O O11 0.224013 0.088909 0.178665
O O12 0.500000 0.299938 0.588669
O O13 0.750000 0.250000 0.608546
O O14 0.769669 0.307711 0.533077
O O15 0.253095 0.329596 0.432798
O O16 0.000000 0.352969 0.488458
O O17 0.500000 0.301052 0.880804
O O18 0.750000 0.250000 0.897553
O O19 0.500000 0.952292 0.626059
O O20 0.264164 0.000000 0.661241
#
# Coordination Sequence:
#
# PCOD9369419 Si02
#       8
#    16  16  16   4  16  16  16  16
#     4  11  22  38  60  84 113 151 196 248 297 351
#     4  12  22  36  59  85 119 159 197 246 302 356
#     4  11  23  37  56  84 116 152 197 240 293 356
#     4  12  22  40  56  86 120 156 202 252 292 362
#     4  11  23  35  51  78 114 159 196 233 286 353
#     4  11  22  37  56  84 120 155 195 244 293 355
#     4  10  21  37  59  84 115 153 197 248 293 344
#     4  11  21  37  57  85 119 154 195 244 294 351
#
# _framework density 18.306338
#
# number of rings (size 3 to 8) (size 9 to 14) (size 15 to 20)
#    0.000    0.966    3.448    5.172    0.000    6.897 
#    0.000    0.000    0.000    0.000    1.793    0.000 
#    0.000    0.000    0.000    0.000    0.000    0.000 
#
# Total GULP energy -161717.640541 kJ/mol
# GULP energy per Si atom -5576.470363 kJ/mol
# Density = 1.826467 g / cm^3
# Si number density = 18.306338 Si / 1000 Ang^3
#
#
#
# Elastic Constant Matrix: (Units=GPa)
#
#
# Indices 1 2 3 4 5 6 
#
# 1 86.2647 20.1556 3.9875 0.0000 0.0000 0.0000
# 2 20.1556 128.2323 46.9509 0.0000 0.0000 0.0000
# 3 3.9875 46.9509 62.4873 0.0000 0.0000 0.0000
# 4 0.0000 0.0000 0.0000 34.6388 0.0000 0.0000
# 5 0.0000 0.0000 0.0000 0.0000 15.9404 0.0000
# 6 0.0000 0.0000 0.0000 0.0000 0.0000 22.9013
#
#
#
# Elastic Compliance Matrix: (Units=1/GPa)
#
#
# Indices 1 2 3 4 5 6 
#
# 1 0.012071 -0.002228 0.000904 0.000000 0.000000 0.000000
# 2 -0.002228 0.011169 -0.008250 0.000000 0.000000 0.000000
# 3 0.000904 -0.008250 0.022144 0.000000 0.000000 0.000000
# 4 0.000000 0.000000 0.000000 0.028869 0.000000 0.000000
# 5 0.000000 0.000000 0.000000 0.000000 0.062734 0.000000
# 6 0.000000 0.000000 0.000000 0.000000 0.000000 0.043666
#
#
# Mechanical properties :
#
#
# Convention : Reuss Voigt Hill
#
# Bulk Modulus (GPa) = 38.11558 46.57471 42.34514
# Shear Modulus (GPa) = 23.97535 28.42211 26.19873
#
# Velocity S-wave (km/s) = 3.62287 3.94456 3.78713
# Velocity P-wave (km/s) = 6.19406 6.80023 6.50421
#
# Compressibility (1/GPa) = 0.02623599
#
# Stress axis : x y z
#
# Youngs Moduli (GPa) = 82.84263 89.53150 45.15826
#
# Poissons Ratio (x) = 0.19951 -0.04082
# Poissons Ratio (y) = 0.18460 0.37256
# Poissons Ratio (z) = -0.07489 0.73864
#
# Static dielectric constant tensor:
#      x y z
#    x 1.646300 0.000000 0.000000 
#    y 0.000000 1.664790 0.000000 
#    z 0.000000 0.000000 1.611080 
# 
# From -- ./inp_files/28347.got.cif
#   From: 2010.05.17/outbox.cif.g08.bks.cpg/sg42_15_cif.got.tgz:28347.got - 2010.06.03 19:03:34.
