data_PCOD9369914
_publ_section_title
;
Structure prediction by ZEFSAII (Michael W. Deem and Ramdas Pophale) SiO2 
 PCOD9369914
Probable space group: F M M 2
;
_chemical_formula_sum "Si O2"
_cell_formula_units_Z 64
_cell_length_a 11.349410
_cell_length_b 16.534393
_cell_length_c 15.671260
_cell_angle_alpha 90.000000
_cell_angle_beta 90.000000
_cell_angle_gamma 90.000000
_cell_volume 2940.799780
_symmetry_space_group_name_H-M "F M M 2"
_symmetry_group_IT_number 42
_symmetry_cell_setting 'orthorhombic'
loop_
_space_group_symop_operation_xyz
x,y,z
-x,-y,z
-x,y,z
x,-y,z
x,1/2+y,1/2+z
-x,1/2-y,1/2+z
-x,1/2+y,1/2+z
x,1/2-y,1/2+z
1/2+x,y,1/2+z
1/2-x,-y,1/2+z
1/2-x,y,1/2+z
1/2+x,-y,1/2+z
1/2+x,1/2+y,z
1/2-x,1/2-y,z
1/2-x,1/2+y,z
1/2+x,1/2-y,z
loop_
_atom_site_type_symbol
_atom_site_label
_atom_site_fract_x
_atom_site_fract_y
_atom_site_fract_z
Si Si1 0.000000 0.091796 0.134030
Si Si2 0.760945 0.156200 0.860433
Si Si3 0.136523 0.689047 0.023339
Si Si4 0.747606 0.594727 0.673740
Si Si5 0.500000 0.591853 0.931973
O O1 0.122014 0.131871 0.159005
O O2 0.000000 0.000000 0.171413
O O3 0.000000 0.084861 0.033136
O O4 0.750000 0.250000 0.834440
O O5 0.767392 0.104772 0.774362
O O6 0.884903 0.139060 0.904544
O O7 0.662285 0.141441 0.933717
O O8 0.250000 0.750000 0.023163
O O9 0.157647 0.637439 0.109330
O O10 0.000000 0.718168 0.022562
O O11 0.749830 0.500000 0.650354
O O12 0.500000 0.500000 0.896811
#
# Coordination Sequence:
#
# PCOD9369914 Si02
#       5
#     8  16  16  16   8
#     4   9  20  39  66  95 131 179 229 280 345 422
#     4  11  26  42  69 102 141 184 236 294 353 425
#     4  11  27  47  72 102 141 185 236 299 361 426
#     4  11  24  44  69 101 139 183 233 289 356 427
#     4  11  22  45  72  99 138 193 243 288 356 436
#
# _framework density 21.762786999999999
#
# number of rings (size 3 to 8) (size 9 to 14) (size 15 to 20)
#    0.000    1.250    2.500    1.500   12.250    1.500 
#    0.000    0.000    0.000    0.000    0.000    0.000 
#    0.000    0.000    0.000    0.000    0.000    0.000 
#
# Total GULP energy -89263.532347 kJ/mol
# GULP energy per Si atom -5578.970772 kJ/mol
# Density = 2.171325 g / cm^3
# Si number density = 21.762787 Si / 1000 Ang^3
#
#
#
# Elastic Constant Matrix: (Units=GPa)
#
#
# Indices 1 2 3 4 5 6 
#
# 1 162.4321 26.8113 40.8806 0.0000 0.0000 0.0000
# 2 26.8113 54.7836 1.0207 0.0000 0.0000 0.0000
# 3 40.8806 1.0207 118.1472 0.0000 0.0000 0.0000
# 4 0.0000 0.0000 0.0000 -470.9029 0.0000 0.0000
# 5 0.0000 0.0000 0.0000 0.0000 22.3693 0.0000
# 6 0.0000 0.0000 0.0000 0.0000 0.0000 26.2342
#
#
#
# Elastic Compliance Matrix: (Units=1/GPa)
#
#
# Indices 1 2 3 4 5 6 
#
# 1 0.007380 -0.003565 -0.002523 0.000000 0.000000 0.000000
# 2 -0.003565 0.019978 0.001061 0.000000 0.000000 0.000000
# 3 -0.002523 0.001061 0.009328 0.000000 0.000000 0.000000
# 4 0.000000 0.000000 0.000000 -0.002124 0.000000 0.000000
# 5 0.000000 0.000000 0.000000 0.000000 0.044704 0.000000
# 6 0.000000 0.000000 0.000000 0.000000 0.000000 0.038118
#
#
# Mechanical properties :
#
#
# Convention : Reuss Voigt Hill
#
# Bulk Modulus (GPa) = 37.54765 52.53203 45.03984
# Shear Modulus (GPa) = 36.67967 -66.68319 -15.00176
#
# Velocity S-wave (km/s) = 4.10985 -5.54143 -2.62836
# Velocity P-wave (km/s) = 6.30966 4.09297 3.39554
#
# Compressibility (1/GPa) = 0.02663283
#
# Stress axis : x y z
#
# Youngs Moduli (GPa) = 135.50660 50.05396 107.20712
#
# Poissons Ratio (x) = 0.17843 0.27045
# Poissons Ratio (y) = 0.48304 -0.11373
# Poissons Ratio (z) = 0.34184 -0.05310
#
# Static dielectric constant tensor:
#      x y z
#    x 1.775140 0.000000 0.000000 
#    y 0.000000 2.037010 0.000000 
#    z 0.000000 0.000000 1.841750 
# 
# From -- ./inp_files/12588.got.cif
#   From: 2010.05.17/outbox.cif.g08.bks.cpg/sg42_7_cif.got.tgz:12588.got - 2010.06.03 19:03:34.
