data_PCOD9369884
_publ_section_title
;
Structure prediction by ZEFSAII (Michael W. Deem and Ramdas Pophale) SiO2 
 PCOD9369884
Probable space group: F M M 2
;
_chemical_formula_sum "Si O2"
_cell_formula_units_Z 84
_cell_length_a 7.542316
_cell_length_b 20.194454
_cell_length_c 25.568925
_cell_angle_alpha 90.000000
_cell_angle_beta 90.000000
_cell_angle_gamma 90.000000
_cell_volume 3894.478485
_symmetry_space_group_name_H-M "F M M 2"
_symmetry_group_IT_number 42
_symmetry_cell_setting 'orthorhombic'
loop_
_space_group_symop_operation_xyz
x,y,z
-x,-y,z
-x,y,z
x,-y,z
x,1/2+y,1/2+z
-x,1/2-y,1/2+z
-x,1/2+y,1/2+z
x,1/2-y,1/2+z
1/2+x,y,1/2+z
1/2-x,-y,1/2+z
1/2-x,y,1/2+z
1/2+x,-y,1/2+z
1/2+x,1/2+y,z
1/2-x,1/2-y,z
1/2-x,1/2+y,z
1/2+x,1/2-y,z
loop_
_atom_site_type_symbol
_atom_site_label
_atom_site_fract_x
_atom_site_fract_y
_atom_site_fract_z
Si Si1 0.212832 0.173185 0.990080
Si Si2 0.788199 0.673589 0.372506
Si Si3 0.282770 0.076600 0.582252
Si Si4 0.500000 0.500000 0.241219
Si Si5 0.210600 0.177657 0.170613
Si Si6 0.296125 0.606965 0.767418
O O1 0.250000 0.250000 0.003872
O O2 0.281499 0.160810 0.931091
O O3 0.000000 0.167300 0.988630
O O4 0.275373 0.119348 0.031965
O O5 0.750000 0.750000 0.360207
O O6 0.729394 0.627581 0.325036
O O7 0.000000 0.666002 0.374536
O O8 0.500000 0.075717 0.582740
O O9 0.226146 0.118846 0.632662
O O10 0.225928 0.000000 0.582411
O O11 0.656608 0.556553 0.243417
O O12 0.250000 0.250000 0.148005
O O13 0.293935 0.168736 0.227660
O O14 0.000000 0.172720 0.174883
O O15 0.500000 0.583220 0.771106
#
# Coordination Sequence:
#
# PCOD9369884 Si02
#       6
#    16  16  16   4  16  16
#     4   9  17  34  58  86 116 155 203 256 309 366
#     4   9  19  34  59  89 120 156 206 261 313 369
#     4   9  19  34  57  84 118 162 208 254 314 377
#     4  12  26  44  64  90 132 176 204 252 320 376
#     4  11  22  37  62  92 123 162 213 264 315 376
#     4  11  24  42  64  95 127 166 212 255 309 378
#
# _framework density 21.568997
#
# number of rings (size 3 to 8) (size 9 to 14) (size 15 to 20)
#    0.000    2.095    0.952    2.000    2.667    1.524 
#    1.714    0.952    0.000    2.857    0.000    0.000 
#    0.000    0.000    0.000    0.000    0.000    0.000 
#
# Total GULP energy -117001.830206 kJ/mol
# GULP energy per Si atom -5571.515724 kJ/mol
# Density = 2.151991 g / cm^3
# Si number density = 21.568997 Si / 1000 Ang^3
#
#
#
# Elastic Constant Matrix: (Units=GPa)
#
#
# Indices 1 2 3 4 5 6 
#
# 1 85.6250 13.9977 11.0073 0.0000 0.0000 0.0000
# 2 13.9977 141.7543 66.5678 0.0000 0.0000 0.0000
# 3 11.0073 66.5678 107.2551 0.0000 0.0000 0.0000
# 4 0.0000 0.0000 0.0000 -30.2589 0.0000 0.0000
# 5 0.0000 0.0000 0.0000 0.0000 3.8094 0.0000
# 6 0.0000 0.0000 0.0000 0.0000 0.0000 83.2766
#
#
#
# Elastic Compliance Matrix: (Units=1/GPa)
#
#
# Indices 1 2 3 4 5 6 
#
# 1 0.011907 -0.000850 -0.000695 0.000000 0.000000 0.000000
# 2 -0.000850 0.010017 -0.006130 0.000000 0.000000 0.000000
# 3 -0.000695 -0.006130 0.013199 0.000000 0.000000 0.000000
# 4 0.000000 0.000000 0.000000 -0.033048 0.000000 0.000000
# 5 0.000000 0.000000 0.000000 0.000000 0.262511 0.000000
# 6 0.000000 0.000000 0.000000 0.000000 0.000000 0.012008
#
#
# Mechanical properties :
#
#
# Convention : Reuss Voigt Hill
#
# Bulk Modulus (GPa) = 50.56854 57.53109 54.04982
# Shear Modulus (GPa) = 16.74852 27.56951 22.15901
#
# Velocity S-wave (km/s) = 2.78961 3.57907 3.20871
# Velocity P-wave (km/s) = 5.81995 6.61896 6.23227
#
# Compressibility (1/GPa) = 0.01977514
#
# Stress axis : x y z
#
# Youngs Moduli (GPa) = 83.98411 99.83135 75.76149
#
# Poissons Ratio (x) = 0.08481 0.05263
# Poissons Ratio (y) = 0.07135 0.46440
# Poissons Ratio (z) = 0.05835 0.61195
#
# Static dielectric constant tensor:
#      x y z
#    x 1.813220 0.000000 0.000000 
#    y 0.000000 1.790530 0.000000 
#    z 0.000000 0.000000 1.810920 
# 
# From -- ./inp_files/27811.got.cif
#   From: 2010.05.17/outbox.cif.g08.bks.cpg/sg42_14_cif.got.tgz:27811.got - 2010.06.03 19:03:34.
