data_PCOD9369634
_publ_section_title
;
Structure prediction by ZEFSAII (Michael W. Deem and Ramdas Pophale) SiO2 
 PCOD9369634
Probable space group: F M M 2
;
_chemical_formula_sum "Si O2"
_cell_formula_units_Z 80
_cell_length_a 8.319099
_cell_length_b 23.785457
_cell_length_c 21.010107
_cell_angle_alpha 90.000000
_cell_angle_beta 90.000000
_cell_angle_gamma 90.000000
_cell_volume 4157.344911
_symmetry_space_group_name_H-M "F M M 2"
_symmetry_group_IT_number 42
_symmetry_cell_setting 'orthorhombic'
loop_
_space_group_symop_operation_xyz
x,y,z
-x,-y,z
-x,y,z
x,-y,z
x,1/2+y,1/2+z
-x,1/2-y,1/2+z
-x,1/2+y,1/2+z
x,1/2-y,1/2+z
1/2+x,y,1/2+z
1/2-x,-y,1/2+z
1/2-x,y,1/2+z
1/2+x,-y,1/2+z
1/2+x,1/2+y,z
1/2-x,1/2-y,z
1/2-x,1/2+y,z
1/2+x,1/2-y,z
loop_
_atom_site_type_symbol
_atom_site_label
_atom_site_fract_x
_atom_site_fract_y
_atom_site_fract_z
Si Si1 0.807198 0.186394 0.320520
Si Si2 0.805045 0.185222 0.573905
Si Si3 0.695817 0.120377 0.947023
Si Si4 0.191243 0.500000 0.748008
Si Si5 0.808815 0.118081 0.698794
Si Si6 0.303309 0.000000 0.896407
O O1 0.750000 0.250000 0.319598
O O2 0.755868 0.156885 0.385950
O O3 0.736822 0.153642 0.260734
O O4 0.000000 0.183637 0.316949
O O5 0.750000 0.250000 0.573538
O O6 0.750363 0.150883 0.511410
O O7 0.749033 0.151410 0.636513
O O8 0.000000 0.185802 0.574029
O O9 0.500000 0.119480 0.948985
O O10 0.747922 0.056518 0.932893
O O11 0.243954 0.555712 0.710964
O O12 0.250452 0.500000 0.822089
O O13 0.000000 0.500000 0.752486
O O14 0.000000 0.114178 0.693213
O O15 0.500000 0.000000 0.895014
#
# Coordination Sequence:
#
# PCOD9369634 Si02
#       6
#    16  16  16   8  16   8
#     4  11  21  35  57  85 114 151 199 246 294 345
#     4  10  22  39  59  84 117 156 195 240 291 344
#     4   9  18  34  58  85 112 148 196 242 289 344
#     4  11  21  38  63  89 117 154 194 239 293 349
#     4  11  23  38  58  87 119 153 193 241 294 346
#     4   9  16  32  59  87 111 142 188 237 285 341
#
# _framework density 19.24305
#
# number of rings (size 3 to 8) (size 9 to 14) (size 15 to 20)
#    0.000    1.800    2.000    2.700    0.000    4.000 
#    0.000    4.000    0.000    0.000    0.000    0.000 
#    0.000    0.000    0.000    0.000    0.000    0.000 
#
# Total GULP energy -111705.526216 kJ/mol
# GULP energy per Si atom -5585.276311 kJ/mol
# Density = 1.919925 g / cm^3
# Si number density = 19.243050 Si / 1000 Ang^3
#
#
#
# Elastic Constant Matrix: (Units=GPa)
#
#
# Indices 1 2 3 4 5 6 
#
# 1 16.9072 21.0459 20.3714 0.0000 0.0000 0.0000
# 2 21.0459 229.9854 119.2278 0.0000 0.0000 0.0000
# 3 20.3714 119.2278 195.1606 0.0000 0.0000 0.0000
# 4 0.0000 0.0000 0.0000 27.6024 0.0000 0.0000
# 5 0.0000 0.0000 0.0000 0.0000 19.5587 0.0000
# 6 0.0000 0.0000 0.0000 0.0000 0.0000 -5.9980
#
#
#
# Elastic Compliance Matrix: (Units=1/GPa)
#
#
# Indices 1 2 3 4 5 6 
#
# 1 0.069881 -0.003825 -0.004958 0.000000 0.000000 0.000000
# 2 -0.003825 0.006573 -0.003616 0.000000 0.000000 0.000000
# 3 -0.004958 -0.003616 0.007851 0.000000 0.000000 0.000000
# 4 0.000000 0.000000 0.000000 0.036229 0.000000 0.000000
# 5 0.000000 0.000000 0.000000 0.000000 0.051128 0.000000
# 6 0.000000 0.000000 0.000000 0.000000 0.000000 -0.166722
#
#
# Mechanical properties :
#
#
# Convention : Reuss Voigt Hill
#
# Bulk Modulus (GPa) = 16.80475 84.81593 50.81034
# Shear Modulus (GPa) = 100.86419 26.99316 63.92868
#
# Velocity S-wave (km/s) = 7.24774 3.74939 5.77008
# Velocity P-wave (km/s) = 8.87645 7.93194 8.41746
#
# Compressibility (1/GPa) = 0.05950698
#
# Stress axis : x y z
#
# Youngs Moduli (GPa) = 14.31010 152.14212 127.37645
#
# Poissons Ratio (x) = 0.58187 0.63151
# Poissons Ratio (y) = 0.05473 0.46062
# Poissons Ratio (z) = 0.07095 0.55018
#
# Static dielectric constant tensor:
#      x y z
#    x 1.676360 0.000000 0.000000 
#    y 0.000000 1.665160 0.000000 
#    z 0.000000 0.000000 1.658230 
# 
# From -- ./inp_files/23479.got.cif
#   From: 2010.05.17/outbox.cif.g08.bks.cpg/sg42_12_cif.got.tgz:23479.got - 2010.06.03 19:03:34.
