data_PCOD9369154
_publ_section_title
;
Structure prediction by ZEFSAII (Michael W. Deem and Ramdas Pophale) SiO2 
 PCOD9369154
Probable space group: F M M 2
;
_chemical_formula_sum "Si O2"
_cell_formula_units_Z 96
_cell_length_a 8.304964
_cell_length_b 29.314564
_cell_length_c 21.088919
_cell_angle_alpha 90.000000
_cell_angle_beta 90.000000
_cell_angle_gamma 90.000000
_cell_volume 5134.232272
_symmetry_space_group_name_H-M "F M M 2"
_symmetry_group_IT_number 42
_symmetry_cell_setting 'orthorhombic'
loop_
_space_group_symop_operation_xyz
x,y,z
-x,-y,z
-x,y,z
x,-y,z
x,1/2+y,1/2+z
-x,1/2-y,1/2+z
-x,1/2+y,1/2+z
x,1/2-y,1/2+z
1/2+x,y,1/2+z
1/2-x,-y,1/2+z
1/2-x,y,1/2+z
1/2+x,-y,1/2+z
1/2+x,1/2+y,z
1/2-x,1/2-y,z
1/2-x,1/2+y,z
1/2+x,1/2-y,z
loop_
_atom_site_type_symbol
_atom_site_label
_atom_site_fract_x
_atom_site_fract_y
_atom_site_fract_z
Si Si1 0.695219 0.146161 0.224880
Si Si2 0.696083 0.550845 0.674955
Si Si3 0.196198 0.449077 0.027321
Si Si4 0.192061 0.697972 0.598924
Si Si5 0.307656 0.854794 0.974290
Si Si6 0.691849 0.197950 0.350445
O O1 0.500000 0.146001 0.225881
O O2 0.749854 0.093683 0.216579
O O3 0.749515 0.173234 0.162631
O O4 0.753943 0.171482 0.288039
O O5 0.500000 0.550525 0.675907
O O6 0.749922 0.500000 0.694034
O O7 0.742470 0.558203 0.601138
O O8 0.248850 0.500000 0.008344
O O9 0.000000 0.448892 0.026467
O O10 0.251517 0.406752 0.985056
O O11 0.250000 0.750000 0.599495
O O12 0.263157 0.672612 0.537759
O O13 0.000000 0.696495 0.595587
O O14 0.500000 0.855753 0.968370
O O15 0.239127 0.829414 0.913337
O O16 0.500000 0.199145 0.346349
O O17 0.750000 0.250000 0.352712
#
# Coordination Sequence:
#
# PCOD9369154 Si02
#       6
#    16  16  16  16  16  16
#     4  10  20  37  59  84 113 147 188 231 276 330
#     4   8  13  26  53  86 114 142 181 224 268 325
#     4   8  14  27  53  86 113 141 181 225 269 326
#     4  12  24  37  56  82 112 142 183 236 285 335
#     4  11  21  37  60  83 112 147 189 232 277 331
#     4  11  24  40  57  79 112 151 192 234 283 337
#
# _framework density 18.698024
#
# number of rings (size 3 to 8) (size 9 to 14) (size 15 to 20)
#    0.000    2.000    1.667    4.500    0.000    2.667 
#    0.000    0.833    0.000    4.500    0.000    0.000 
#    0.000    0.000    0.000    0.000    0.000    0.000 
#
# Total GULP energy -133973.499450 kJ/mol
# GULP energy per Si atom -5582.229144 kJ/mol
# Density = 1.865547 g / cm^3
# Si number density = 18.698024 Si / 1000 Ang^3
#
#
#
# Elastic Constant Matrix: (Units=GPa)
#
#
# Indices 1 2 3 4 5 6 
#
# 1 21.9628 15.6955 9.2813 0.0000 0.0000 0.0000
# 2 15.6955 211.4656 94.9397 0.0000 0.0000 0.0000
# 3 9.2813 94.9397 136.9426 0.0000 0.0000 0.0000
# 4 0.0000 0.0000 0.0000 31.1707 0.0000 0.0000
# 5 0.0000 0.0000 0.0000 0.0000 19.6705 0.0000
# 6 0.0000 0.0000 0.0000 0.0000 0.0000 8.3660
#
#
#
# Elastic Compliance Matrix: (Units=1/GPa)
#
#
# Indices 1 2 3 4 5 6 
#
# 1 0.048205 -0.003065 -0.001142 0.000000 0.000000 0.000000
# 2 -0.003065 0.007061 -0.004687 0.000000 0.000000 0.000000
# 3 -0.001142 -0.004687 0.010629 0.000000 0.000000 0.000000
# 4 0.000000 0.000000 0.000000 0.032081 0.000000 0.000000
# 5 0.000000 0.000000 0.000000 0.000000 0.050837 0.000000
# 6 0.000000 0.000000 0.000000 0.000000 0.000000 0.119531
#
#
# Mechanical properties :
#
#
# Convention : Reuss Voigt Hill
#
# Bulk Modulus (GPa) = 20.78754 67.80044 44.29399
# Shear Modulus (GPa) = 16.54702 28.53843 22.54272
#
# Velocity S-wave (km/s) = 2.97806 3.91100 3.47597
# Velocity P-wave (km/s) = 4.79236 7.53220 6.31272
#
# Compressibility (1/GPa) = 0.04810575
#
# Stress axis : x y z
#
# Youngs Moduli (GPa) = 20.74485 141.62556 94.07835
#
# Poissons Ratio (x) = 0.43410 0.10745
# Poissons Ratio (y) = 0.06359 0.44099
# Poissons Ratio (z) = 0.02369 0.66386
#
# Static dielectric constant tensor:
#      x y z
#    x 1.639170 0.000000 0.000000 
#    y 0.000000 1.665330 0.000000 
#    z 0.000000 0.000000 1.616900 
# 
# From -- ./inp_files/23682.got.cif
#   From: 2010.05.17/outbox.cif.g08.bks.cpg/sg42_12_cif.got.tgz:23682.got - 2010.06.03 19:03:34.
