data_PCOD9369879
_publ_section_title
;
Structure prediction by ZEFSAII (Michael W. Deem and Ramdas Pophale) SiO2 
 PCOD9369879
Probable space group: F M M 2
;
_chemical_formula_sum "Si O2"
_cell_formula_units_Z 116
_cell_length_a 7.920463
_cell_length_b 30.094077
_cell_length_c 25.838209
_cell_angle_alpha 90.000000
_cell_angle_beta 90.000000
_cell_angle_gamma 90.000000
_cell_volume 6158.770264
_symmetry_space_group_name_H-M "F M M 2"
_symmetry_group_IT_number 42
_symmetry_cell_setting 'orthorhombic'
loop_
_space_group_symop_operation_xyz
x,y,z
-x,-y,z
-x,y,z
x,-y,z
x,1/2+y,1/2+z
-x,1/2-y,1/2+z
-x,1/2+y,1/2+z
x,1/2-y,1/2+z
1/2+x,y,1/2+z
1/2-x,-y,1/2+z
1/2-x,y,1/2+z
1/2+x,-y,1/2+z
1/2+x,1/2+y,z
1/2-x,1/2-y,z
1/2-x,1/2+y,z
1/2+x,1/2-y,z
loop_
_atom_site_type_symbol
_atom_site_label
_atom_site_fract_x
_atom_site_fract_y
_atom_site_fract_z
Si Si1 0.702024 0.948550 0.311460
Si Si2 0.702875 0.202416 0.840826
Si Si3 0.797451 0.397261 0.706031
Si Si4 0.200406 0.448438 0.103480
Si Si5 0.796802 0.798294 0.222282
Si Si6 0.311353 0.431629 0.994800
Si Si7 0.000000 0.500000 0.978093
Si Si8 0.699691 0.616817 0.401682
O O1 0.500000 0.949219 0.316004
O O2 0.747295 0.919638 0.260685
O O3 0.773647 0.924560 0.362426
O O4 0.760555 0.000000 0.306681
O O5 0.500000 0.199044 0.837998
O O6 0.750000 0.250000 0.863693
O O7 0.766951 0.201425 0.781749
O O8 0.765533 0.160283 0.872213
O O9 0.732018 0.426616 0.658658
O O10 0.738726 0.345930 0.700352
O O11 0.000000 0.397333 0.704531
O O12 0.257682 0.500000 0.102769
O O13 0.000000 0.449201 0.093278
O O14 0.289125 0.423615 0.056004
O O15 0.750000 0.750000 0.199414
O O16 0.000000 0.799678 0.222747
O O17 0.500000 0.450137 0.986634
O O18 0.151797 0.462311 0.980127
O O19 0.291071 0.390969 0.955710
O O20 0.500000 0.621979 0.410242
#
# Coordination Sequence:
#
# PCOD9369879 Si02
#       8
#    16  16  16  16  16  16   4  16
#     4  11  24  37  50  77 114 156 196 236 288 353
#     4   9  18  34  57  82 114 151 191 241 295 352
#     4  11  22  37  56  83 114 151 193 240 296 355
#     4  11  22  40  60  84 117 153 199 250 290 342
#     4   9  18  34  54  81 112 145 190 238 290 352
#     4  12  24  40  63  89 118 159 204 251 302 348
#     4  12  22  44  60  90 120 156 202 260 292 348
#     4  11  22  39  58  84 121 155 193 246 301 355
#
# _framework density 18.834928999999999
#
# number of rings (size 3 to 8) (size 9 to 14) (size 15 to 20)
#    0.000    1.379    3.448    2.276    0.966    5.793 
#    0.000    0.000    0.000    0.828    0.000    5.793 
#    0.000    0.000    0.000    0.000    0.000    0.000 
#
# Total GULP energy -161569.289945 kJ/mol
# GULP energy per Si atom -5571.354826 kJ/mol
# Density = 1.879206 g / cm^3
# Si number density = 18.834929 Si / 1000 Ang^3
#
#
#
# Elastic Constant Matrix: (Units=GPa)
#
#
# Indices 1 2 3 4 5 6 
#
# 1 77.9260 7.3645 5.3932 0.0000 0.0000 0.0000
# 2 7.3645 94.8656 34.0332 0.0000 0.0000 0.0000
# 3 5.3932 34.0332 93.1606 0.0000 0.0000 0.0000
# 4 0.0000 0.0000 0.0000 34.4015 0.0000 0.0000
# 5 0.0000 0.0000 0.0000 0.0000 23.7957 0.0000
# 6 0.0000 0.0000 0.0000 0.0000 0.0000 19.2293
#
#
#
# Elastic Compliance Matrix: (Units=1/GPa)
#
#
# Indices 1 2 3 4 5 6 
#
# 1 0.012943 -0.000847 -0.000440 0.000000 0.000000 0.000000
# 2 -0.000847 0.012187 -0.004403 0.000000 0.000000 0.000000
# 3 -0.000440 -0.004403 0.012368 0.000000 0.000000 0.000000
# 4 0.000000 0.000000 0.000000 0.029069 0.000000 0.000000
# 5 0.000000 0.000000 0.000000 0.000000 0.042024 0.000000
# 6 0.000000 0.000000 0.000000 0.000000 0.000000 0.052004
#
#
# Mechanical properties :
#
#
# Convention : Reuss Voigt Hill
#
# Bulk Modulus (GPa) = 38.28745 39.94823 39.11784
# Shear Modulus (GPa) = 27.67317 30.09603 28.88460
#
# Velocity S-wave (km/s) = 3.83723 4.00169 3.92033
# Velocity P-wave (km/s) = 6.32491 6.52741 6.42696
#
# Compressibility (1/GPa) = 0.02611822
#
# Stress axis : x y z
#
# Youngs Moduli (GPa) = 77.26076 82.05771 80.85324
#
# Poissons Ratio (x) = 0.06950 0.03557
# Poissons Ratio (y) = 0.06544 0.35599
# Poissons Ratio (z) = 0.03399 0.36129
#
# Static dielectric constant tensor:
#      x y z
#    x 1.668550 0.000000 0.000000 
#    y 0.000000 1.683500 0.000000 
#    z 0.000000 0.000000 1.659570 
# 
# From -- ./inp_files/28465.got.cif
#   From: 2010.05.17/outbox.cif.g08.bks.cpg/sg42_15_cif.got.tgz:28465.got - 2010.06.03 19:03:34.
