data_PCOD9369529
_publ_section_title
;
Structure prediction by ZEFSAII (Michael W. Deem and Ramdas Pophale) SiO2 
 PCOD9369529
Probable space group: F M M 2
;
_chemical_formula_sum "Si O2"
_cell_formula_units_Z 112
_cell_length_a 19.339989
_cell_length_b 23.772396
_cell_length_c 11.138567
_cell_angle_alpha 90.000000
_cell_angle_beta 90.000000
_cell_angle_gamma 90.000000
_cell_volume 5121.043918
_symmetry_space_group_name_H-M "F M M 2"
_symmetry_group_IT_number 42
_symmetry_cell_setting 'orthorhombic'
loop_
_space_group_symop_operation_xyz
x,y,z
-x,-y,z
-x,y,z
x,-y,z
x,1/2+y,1/2+z
-x,1/2-y,1/2+z
-x,1/2+y,1/2+z
x,1/2-y,1/2+z
1/2+x,y,1/2+z
1/2-x,-y,1/2+z
1/2-x,y,1/2+z
1/2+x,-y,1/2+z
1/2+x,1/2+y,z
1/2-x,1/2-y,z
1/2-x,1/2+y,z
1/2+x,1/2-y,z
loop_
_atom_site_type_symbol
_atom_site_label
_atom_site_fract_x
_atom_site_fract_y
_atom_site_fract_z
Si Si1 0.818116 0.270995 0.172160
Si Si2 0.231946 0.934971 0.309458
Si Si3 0.782335 0.880009 0.555445
Si Si4 0.921754 0.848555 0.816824
Si Si5 0.078845 0.934047 0.626007
Si Si6 0.076240 0.561449 0.745621
Si Si7 0.422568 0.674879 0.093543
O O1 0.750000 0.250000 0.239790
O O2 0.787881 0.312733 0.069335
O O3 0.866563 0.309641 0.252560
O O4 0.864735 0.219354 0.129585
O O5 0.252575 0.902306 0.432428
O O6 0.251134 0.905587 0.181217
O O7 0.148278 0.937712 0.315226
O O8 0.257096 0.000000 0.309013
O O9 0.861718 0.901288 0.556900
O O10 0.914737 0.910883 0.762203
O O11 0.000000 0.829795 0.786260
O O12 0.913739 0.843138 0.956943
O O13 0.000000 0.921781 0.588230
O O14 0.090587 0.000000 0.617109
O O15 0.077286 0.500000 0.681657
O O16 0.079700 0.617201 0.666965
O O17 0.000000 0.563088 0.807258
O O18 0.500000 0.699531 0.108879
#
# Coordination Sequence:
#
# PCOD9369529 Si02
#       7
#    16  16  16  16  16  16  16
#     4  11  24  39  58  84 119 159 206 260 308 361
#     4  11  23  42  66  93 127 165 205 252 313 377
#     4  11  25  42  62  91 126 164 208 256 307 368
#     4   9  20  38  59  85 119 159 203 251 304 365
#     4   9  18  35  60  90 122 155 195 246 303 362
#     4   9  20  39  63  92 123 154 197 255 311 367
#     4  10  21  39  62  87 119 163 209 253 310 374
#
# _framework density 21.870539999999998
#
# number of rings (size 3 to 8) (size 9 to 14) (size 15 to 20)
#    0.000    2.000    0.000    2.571    0.000    9.143 
#    0.000    7.143    0.000    0.000    0.000    0.000 
#    0.000    0.000    0.000    0.000    0.000    0.000 
#
# Total GULP energy -156199.854085 kJ/mol
# GULP energy per Si atom -5578.566217 kJ/mol
# Density = 2.182076 g / cm^3
# Si number density = 21.870540 Si / 1000 Ang^3
#
#
#
# Elastic Constant Matrix: (Units=GPa)
#
#
# Indices 1 2 3 4 5 6 
#
# 1 105.0349 27.8748 7.0277 0.0000 0.0000 0.0000
# 2 27.8748 108.8830 41.0211 0.0000 0.0000 0.0000
# 3 7.0277 41.0211 87.1055 0.0000 0.0000 0.0000
# 4 0.0000 0.0000 0.0000 -3.1785 0.0000 0.0000
# 5 0.0000 0.0000 0.0000 0.0000 11.3191 0.0000
# 6 0.0000 0.0000 0.0000 0.0000 0.0000 51.0372
#
#
#
# Elastic Compliance Matrix: (Units=1/GPa)
#
#
# Indices 1 2 3 4 5 6 
#
# 1 0.010232 -0.002806 0.000496 0.000000 0.000000 0.000000
# 2 -0.002806 0.011935 -0.005394 0.000000 0.000000 0.000000
# 3 0.000496 -0.005394 0.013981 0.000000 0.000000 0.000000
# 4 0.000000 0.000000 0.000000 -0.314612 0.000000 0.000000
# 5 0.000000 0.000000 0.000000 0.000000 0.088347 0.000000
# 6 0.000000 0.000000 0.000000 0.000000 0.000000 0.019594
#
#
# Mechanical properties :
#
#
# Convention : Reuss Voigt Hill
#
# Bulk Modulus (GPa) = 48.21886 50.31898 49.26892
# Shear Modulus (GPa) = -33.73765 26.84220 -3.44773
#
# Velocity S-wave (km/s) = -3.93186 3.50712 -1.25692
# Velocity P-wave (km/s) = 1.21759 6.28151 4.52437
#
# Compressibility (1/GPa) = 0.02073877
#
# Stress axis : x y z
#
# Youngs Moduli (GPa) = 97.73037 83.78831 71.52775
#
# Poissons Ratio (x) = 0.23515 -0.03549
# Poissons Ratio (y) = 0.27427 0.38583
# Poissons Ratio (z) = -0.04848 0.45196
#
# Static dielectric constant tensor:
#      x y z
#    x 1.856630 0.000000 0.000000 
#    y 0.000000 1.829920 0.000000 
#    z 0.000000 0.000000 1.800780 
# 
# From -- ./inp_files/9653.got.cif
#   From: 2010.05.17/outbox.cif.g08.bks.cpg/sg42_5_cif.got.tgz:9653.got - 2010.06.03 19:03:34.
