data_PCOD9369795
_publ_section_title
;
Structure prediction by ZEFSAII (Michael W. Deem and Ramdas Pophale) SiO2 
 PCOD9369795
Probable space group: F M M 2
;
_chemical_formula_sum "Si O2"
_cell_formula_units_Z 68
_cell_length_a 15.270806
_cell_length_b 11.475932
_cell_length_c 20.295245
_cell_angle_alpha 90.000000
_cell_angle_beta 90.000000
_cell_angle_gamma 90.000000
_cell_volume 3556.675346
_symmetry_space_group_name_H-M "F M M 2"
_symmetry_group_IT_number 42
_symmetry_cell_setting 'orthorhombic'
loop_
_space_group_symop_operation_xyz
x,y,z
-x,-y,z
-x,y,z
x,-y,z
x,1/2+y,1/2+z
-x,1/2-y,1/2+z
-x,1/2+y,1/2+z
x,1/2-y,1/2+z
1/2+x,y,1/2+z
1/2-x,-y,1/2+z
1/2-x,y,1/2+z
1/2+x,-y,1/2+z
1/2+x,1/2+y,z
1/2-x,1/2-y,z
1/2-x,1/2+y,z
1/2+x,1/2-y,z
loop_
_atom_site_type_symbol
_atom_site_label
_atom_site_fract_x
_atom_site_fract_y
_atom_site_fract_z
Si Si1 0.500000 0.000000 0.985841
Si Si2 0.397019 0.000000 0.735754
Si Si3 0.846261 0.800811 0.140267
Si Si4 0.397350 0.130133 0.496438
Si Si5 0.665257 0.000000 0.883587
Si Si6 0.000000 0.127878 0.620128
Si Si7 0.250000 0.250000 0.916738
O O1 0.411334 0.000000 0.941051
O O2 0.500000 0.894363 0.040343
O O3 0.355407 0.886960 0.701422
O O4 0.382762 0.000000 0.813327
O O5 0.500000 0.000000 0.719629
O O6 0.750000 0.750000 0.133864
O O7 0.874291 0.866281 0.073541
O O8 0.915358 0.696587 0.143034
O O9 0.500000 0.151644 0.487060
O O10 0.334584 0.219123 0.460207
O O11 0.378454 0.000000 0.471698
O O12 0.721166 0.122941 0.885612
O O13 0.000000 0.000000 0.649545
#
# Coordination Sequence:
#
# PCOD9369795 Si02
#       7
#     4   8  16  16   8   8   8
#     4  10  24  44  68 102 140 178 222 282 352 402
#     4  12  26  48  71  94 131 190 238 274 334 419
#     4  12  24  40  67  98 137 176 226 287 348 406
#     4  11  22  39  66 103 139 173 218 291 364 409
#     4  12  28  47  68  98 140 191 236 278 331 420
#     4  10  24  40  64 104 138 167 217 287 355 413
#     4  12  26  46  68 104 136 182 232 284 348 416
#
# _framework density 19.118979
#
# number of rings (size 3 to 8) (size 9 to 14) (size 15 to 20)
#    0.353    0.235    6.471    1.412    4.941    0.000 
#    0.000    0.000    0.000    0.000    3.059    0.000 
#    0.000    0.000    0.000    0.000    0.000    0.000 
#
# Total GULP energy -94807.600359 kJ/mol
# GULP energy per Si atom -5576.917668 kJ/mol
# Density = 1.907546 g / cm^3
# Si number density = 19.118979 Si / 1000 Ang^3
#
#
#
# Elastic Constant Matrix: (Units=GPa)
#
#
# Indices 1 2 3 4 5 6 
#
# 1 139.0889 51.6757 16.4262 0.0000 0.0000 0.0000
# 2 51.6757 148.9285 20.4591 0.0000 0.0000 0.0000
# 3 16.4262 20.4591 51.1882 0.0000 0.0000 0.0000
# 4 0.0000 0.0000 0.0000 8.9532 0.0000 0.0000
# 5 0.0000 0.0000 0.0000 0.0000 28.6349 0.0000
# 6 0.0000 0.0000 0.0000 0.0000 0.0000 16.5562
#
#
#
# Elastic Compliance Matrix: (Units=1/GPa)
#
#
# Indices 1 2 3 4 5 6 
#
# 1 0.008378 -0.002685 -0.001615 0.000000 0.000000 0.000000
# 2 -0.002685 0.007965 -0.002322 0.000000 0.000000 0.000000
# 3 -0.001615 -0.002322 0.020982 0.000000 0.000000 0.000000
# 4 0.000000 0.000000 0.000000 0.111692 0.000000 0.000000
# 5 0.000000 0.000000 0.000000 0.000000 0.034922 0.000000
# 6 0.000000 0.000000 0.000000 0.000000 0.000000 0.060400
#
#
# Mechanical properties :
#
#
# Convention : Reuss Voigt Hill
#
# Bulk Modulus (GPa) = 41.52697 57.36973 49.44835
# Shear Modulus (GPa) = 18.82449 27.53852 23.18151
#
# Velocity S-wave (km/s) = 3.14123 3.79935 3.48586
# Velocity P-wave (km/s) = 5.90964 7.02272 6.49009
#
# Compressibility (1/GPa) = 0.02408074
#
# Stress axis : x y z
#
# Youngs Moduli (GPa) = 119.36003 125.54443 47.65957
#
# Poissons Ratio (x) = 0.33710 0.07698
# Poissons Ratio (y) = 0.32050 0.11066
# Poissons Ratio (z) = 0.19280 0.29151
#
# Static dielectric constant tensor:
#      x y z
#    x 1.634130 0.000000 0.000000 
#    y 0.000000 1.749110 0.000000 
#    z 0.000000 0.000000 1.632320 
# 
# From -- ./inp_files/24193.got.cif
#   From: 2010.05.17/outbox.cif.g08.bks.cpg/sg42_13_cif.got.tgz:24193.got - 2010.06.03 19:03:34.
