data_PCOD9369226
_publ_section_title
;
Structure prediction by ZEFSAII (Michael W. Deem and Ramdas Pophale) SiO2 
 PCOD9369226
Probable space group: F M M 2
;
_chemical_formula_sum "Si O2"
_cell_formula_units_Z 88
_cell_length_a 23.031088
_cell_length_b 19.555537
_cell_length_c 9.258639
_cell_angle_alpha 90.000000
_cell_angle_beta 90.000000
_cell_angle_gamma 90.000000
_cell_volume 4169.954844
_symmetry_space_group_name_H-M "F M M 2"
_symmetry_group_IT_number 42
_symmetry_cell_setting 'orthorhombic'
loop_
_space_group_symop_operation_xyz
x,y,z
-x,-y,z
-x,y,z
x,-y,z
x,1/2+y,1/2+z
-x,1/2-y,1/2+z
-x,1/2+y,1/2+z
x,1/2-y,1/2+z
1/2+x,y,1/2+z
1/2-x,-y,1/2+z
1/2-x,y,1/2+z
1/2+x,-y,1/2+z
1/2+x,1/2+y,z
1/2-x,1/2-y,z
1/2-x,1/2+y,z
1/2+x,1/2-y,z
loop_
_atom_site_type_symbol
_atom_site_label
_atom_site_fract_x
_atom_site_fract_y
_atom_site_fract_z
Si Si1 0.000000 0.348420 0.830370
Si Si2 0.379642 0.287863 0.894301
Si Si3 0.703023 0.500000 0.879522
Si Si4 0.208822 0.371789 0.588304
Si Si5 0.000000 0.731597 0.541334
Si Si6 0.373881 0.625142 0.351266
Si Si7 0.166785 0.879190 0.660219
O O1 0.000000 0.287706 0.709823
O O2 0.940594 0.389512 0.811453
O O3 0.000000 0.310310 0.986238
O O4 0.441192 0.298676 0.972771
O O5 0.370944 0.207680 0.868258
O O6 0.375671 0.326865 0.742039
O O7 0.329869 0.319429 0.996117
O O8 0.680447 0.440690 0.766802
O O9 0.720298 0.439434 0.995335
O O10 0.171773 0.393970 0.728545
O O11 0.271211 0.342726 0.632275
O O12 0.358180 0.597018 0.507649
#
# Coordination Sequence:
#
# PCOD9369226 Si02
#       7
#     8  16   8  16   8  16  16
#     4  10  22  36  62  91 123 170 206 239 292 365
#     4  10  22  37  60  93 132 160 194 242 309 369
#     4  10  24  44  60  83 116 165 218 252 296 356
#     4  11  22  40  62  88 122 162 203 251 308 361
#     4  10  20  38  60  87 127 170 206 235 286 371
#     4  11  22  37  63  94 126 158 203 247 302 372
#     4  11  24  38  62  93 120 161 205 253 309 358
#
# _framework density 21.103345000000001
#
# number of rings (size 3 to 8) (size 9 to 14) (size 15 to 20)
#    0.000    1.455    1.818    3.818    7.636    5.091 
#    0.000    0.000    0.000   20.727    0.000    0.000 
#    0.000    0.000    0.000    0.000    0.000    0.000 
#
# Total GULP energy -122495.969845 kJ/mol
# GULP energy per Si atom -5567.998629 kJ/mol
# Density = 2.105531 g / cm^3
# Si number density = 21.103345 Si / 1000 Ang^3
#
#
#
# Elastic Constant Matrix: (Units=GPa)
#
#
# Indices 1 2 3 4 5 6 
#
# 1 82.6371 4.3852 -7.2558 0.0000 0.0000 0.0001
# 2 4.3852 48.8007 1.1868 0.0000 0.0000 0.0000
# 3 -7.2558 1.1868 93.7536 0.0001 -0.0002 0.0001
# 4 0.0000 0.0000 0.0001 21.8733 -0.0001 0.0000
# 5 0.0000 0.0000 -0.0002 -0.0001 33.3121 -0.0001
# 6 0.0001 0.0000 0.0001 0.0000 -0.0001 -8.0596
#
#
#
# Elastic Compliance Matrix: (Units=1/GPa)
#
#
# Indices 1 2 3 4 5 6 
#
# 1 0.012245 -0.001124 0.000962 0.000000 0.000000 0.000000
# 2 -0.001124 0.020601 -0.000348 0.000000 0.000000 0.000000
# 3 0.000962 -0.000348 0.010745 0.000000 0.000000 0.000000
# 4 0.000000 0.000000 0.000000 0.045718 0.000000 0.000000
# 5 0.000000 0.000000 0.000000 0.000000 0.030019 0.000000
# 6 0.000000 0.000000 0.000000 0.000000 0.000000 -0.124075
#
#
# Mechanical properties :
#
#
# Convention : Reuss Voigt Hill
#
# Bulk Modulus (GPa) = 23.48956 24.64708 24.06832
# Shear Modulus (GPa) = 477.87154 24.55017 251.21086
#
# Velocity S-wave (km/s) = 15.06437 3.41446 10.92231
# Velocity P-wave (km/s) = 17.71257 5.22009 13.05727
#
# Compressibility (1/GPa) = 0.04257211
#
# Stress axis : x y z
#
# Youngs Moduli (GPa) = 81.66471 48.54144 93.06562
#
# Poissons Ratio (x) = 0.05455 -0.08952
# Poissons Ratio (y) = 0.09177 0.03236
# Poissons Ratio (z) = -0.07855 0.01688
#
# Static dielectric constant tensor:
#      x y z
#    x 1.780030 0.000000 0.000000 
#    y 0.000000 1.725300 0.000000 
#    z 0.000000 0.000000 1.791770 
# 
# From -- ./inp_files/4066.got.cif
#   From: 2010.05.17/outbox.cif.g08.bks.cpg/sg42_3_cif.got.tgz:4066.got - 2010.06.03 19:03:34.
