data_PCOD9369519
_publ_section_title
;
Structure prediction by ZEFSAII (Michael W. Deem and Ramdas Pophale) SiO2 
 PCOD9369519
Probable space group: F M M 2
;
_chemical_formula_sum "Si O2"
_cell_formula_units_Z 100
_cell_length_a 20.280324
_cell_length_b 7.925444
_cell_length_c 30.198764
_cell_angle_alpha 90.000000
_cell_angle_beta 90.000000
_cell_angle_gamma 90.000000
_cell_volume 4853.864616
_symmetry_space_group_name_H-M "F M M 2"
_symmetry_group_IT_number 42
_symmetry_cell_setting 'orthorhombic'
loop_
_space_group_symop_operation_xyz
x,y,z
-x,-y,z
-x,y,z
x,-y,z
x,1/2+y,1/2+z
-x,1/2-y,1/2+z
-x,1/2+y,1/2+z
x,1/2-y,1/2+z
1/2+x,y,1/2+z
1/2-x,-y,1/2+z
1/2-x,y,1/2+z
1/2+x,-y,1/2+z
1/2+x,1/2+y,z
1/2-x,1/2-y,z
1/2-x,1/2+y,z
1/2+x,1/2-y,z
loop_
_atom_site_type_symbol
_atom_site_label
_atom_site_fract_x
_atom_site_fract_y
_atom_site_fract_z
Si Si1 0.178021 0.301556 0.458360
Si Si2 0.574591 0.201797 0.388753
Si Si3 0.323933 0.201605 0.813761
Si Si4 0.823998 0.201827 0.212309
Si Si5 0.923259 0.800090 0.636614
Si Si6 0.396391 0.304929 0.041660
Si Si7 0.000000 0.000000 0.526279
O O1 0.174849 0.500000 0.450916
O O2 0.250000 0.250000 0.443430
O O3 0.117936 0.227384 0.429553
O O4 0.166395 0.274069 0.510405
O O5 0.500000 0.270664 0.386806
O O6 0.618657 0.232992 0.345404
O O7 0.568518 0.000000 0.393952
O O8 0.250000 0.250000 0.828804
O O9 0.331429 0.263740 0.763048
O O10 0.327610 0.000000 0.813450
O O11 0.750000 0.250000 0.197558
O O12 0.880251 0.270244 0.180108
O O13 0.828803 0.000000 0.212541
O O14 0.890304 0.710129 0.594501
O O15 0.000000 0.744329 0.640635
O O16 0.925347 0.000000 0.627154
O O17 0.418392 0.500000 0.031903
O O18 0.444386 0.152293 0.028759
#
# Coordination Sequence:
#
# PCOD9369519 Si02
#       7
#    16  16  16  16  16  16   4
#     4  10  24  42  63  89 121 162 203 251 309 369
#     4  10  22  40  62  90 123 157 200 249 307 367
#     4  10  21  39  61  87 118 157 204 250 306 370
#     4  10  22  39  60  86 119 160 204 253 310 368
#     4  11  22  39  61  91 123 159 207 254 307 375
#     4  11  23  41  64  91 129 166 208 262 311 367
#     4  12  22  40  64  98 120 164 216 256 312 386
#
# _framework density 20.602139999999999
#
# number of rings (size 3 to 8) (size 9 to 14) (size 15 to 20)
#    0.000    1.600    1.600    2.160    2.240    6.400 
#    0.000    4.800    0.000    0.000    0.000    0.000 
#    0.000    0.000    0.000    0.000    0.000    0.000 
#
# Total GULP energy -139253.252541 kJ/mol
# GULP energy per Si atom -5570.130102 kJ/mol
# Density = 2.055525 g / cm^3
# Si number density = 20.602140 Si / 1000 Ang^3
#
#
#
# Elastic Constant Matrix: (Units=GPa)
#
#
# Indices 1 2 3 4 5 6 
#
# 1 159.5874 13.9270 91.6657 0.0000 0.0003 -0.0003
# 2 13.9270 74.9683 7.8869 0.0000 0.0004 -0.0004
# 3 91.6657 7.8869 114.4084 0.0000 0.0001 0.0000
# 4 0.0000 0.0000 0.0000 14.2862 0.0000 0.0000
# 5 0.0003 0.0004 0.0001 0.0000 115.6689 -0.0003
# 6 -0.0003 -0.0004 0.0000 0.0000 -0.0003 35.6355
#
#
#
# Elastic Compliance Matrix: (Units=1/GPa)
#
#
# Indices 1 2 3 4 5 6 
#
# 1 0.011714 -0.001197 -0.009303 0.000000 0.000000 0.000000
# 2 -0.001197 0.013559 0.000025 0.000000 0.000000 0.000000
# 3 -0.009303 0.000025 0.016193 0.000000 0.000000 0.000000
# 4 0.000000 0.000000 0.000000 0.069998 0.000000 0.000000
# 5 0.000000 0.000000 0.000000 0.000000 0.008645 0.000000
# 6 0.000000 0.000000 0.000000 0.000000 0.000000 0.028062
#
#
# Mechanical properties :
#
#
# Convention : Reuss Voigt Hill
#
# Bulk Modulus (GPa) = 48.74689 63.99146 56.36918
# Shear Modulus (GPa) = 28.41547 48.81709 38.61628
#
# Velocity S-wave (km/s) = 3.71785 4.87305 4.33411
# Velocity P-wave (km/s) = 6.49171 7.92402 7.24336
#
# Compressibility (1/GPa) = 0.02051413
#
# Stress axis : x y z
#
# Youngs Moduli (GPa) = 85.36573 73.75269 61.75615
#
# Poissons Ratio (x) = 0.08832 0.57453
# Poissons Ratio (y) = 0.10222 -0.00153
# Poissons Ratio (z) = 0.79417 -0.00182
#
# Static dielectric constant tensor:
#      x y z
#    x 1.690180 0.000000 0.000000 
#    y 0.000000 1.740730 0.000000 
#    z 0.000000 0.000000 1.774360 
# 
# From -- ./inp_files/33029.got.cif
#   From: 2010.05.17/outbox.cif.g08.bks.cpg/sg42_17_cif.got.tgz:33029.got - 2010.06.03 19:03:34.
