data_PCOD9369143
_publ_section_title
;
Structure prediction by ZEFSAII (Michael W. Deem and Ramdas Pophale) SiO2 
 PCOD9369143
Probable space group: F M M 2
;
_chemical_formula_sum "Si O2"
_cell_formula_units_Z 112
_cell_length_a 15.306828
_cell_length_b 28.214089
_cell_length_c 11.905874
_cell_angle_alpha 90.000000
_cell_angle_beta 90.000000
_cell_angle_gamma 90.000000
_cell_volume 5141.768463
_symmetry_space_group_name_H-M "F M M 2"
_symmetry_group_IT_number 42
_symmetry_cell_setting 'orthorhombic'
loop_
_space_group_symop_operation_xyz
x,y,z
-x,-y,z
-x,y,z
x,-y,z
x,1/2+y,1/2+z
-x,1/2-y,1/2+z
-x,1/2+y,1/2+z
x,1/2-y,1/2+z
1/2+x,y,1/2+z
1/2-x,-y,1/2+z
1/2-x,y,1/2+z
1/2+x,-y,1/2+z
1/2+x,1/2+y,z
1/2-x,1/2-y,z
1/2-x,1/2+y,z
1/2+x,1/2-y,z
loop_
_atom_site_type_symbol
_atom_site_label
_atom_site_fract_x
_atom_site_fract_y
_atom_site_fract_z
Si Si1 0.843519 0.872371 0.793330
Si Si2 0.346214 0.847013 0.725440
Si Si3 0.855612 0.305471 0.485320
Si Si4 0.601154 0.052427 0.684539
Si Si5 0.144157 0.801298 0.453434
Si Si6 0.906386 0.898922 0.561505
Si Si7 0.268758 0.946018 0.472176
O O1 0.759265 0.849366 0.731044
O O2 0.887013 0.833897 0.875601
O O3 0.899514 0.895729 0.696066
O O4 0.805050 0.911969 0.876374
O O5 0.375931 0.831676 0.601894
O O6 0.379776 0.899953 0.753824
O O7 0.373645 0.810831 0.822063
O O8 0.884156 0.251034 0.487969
O O9 0.749342 0.305108 0.471898
O O10 0.500000 0.054147 0.649366
O O11 0.665466 0.056142 0.578215
O O12 0.615582 0.000000 0.736449
O O13 0.102417 0.844855 0.519086
O O14 0.824597 0.927695 0.514343
O O15 0.000000 0.918663 0.526083
O O16 0.264781 0.000000 0.433739
#
# Coordination Sequence:
#
# PCOD9369143 Si02
#       7
#    16  16  16  16  16  16  16
#     4  11  20  41  65  97 129 178 225 278 343 408
#     4  11  19  39  65  94 130 170 221 283 338 406
#     4  10  20  36  67  95 125 171 232 276 338 401
#     4  10  21  39  67  98 127 166 222 287 344 397
#     4  10  22  36  62  98 127 174 223 281 336 405
#     4  12  25  44  66  98 146 184 226 283 346 413
#     4  11  23  44  69  96 134 177 227 280 341 414
#
# _framework density 21.782388999999998
#
# number of rings (size 3 to 8) (size 9 to 14) (size 15 to 20)
#    0.000    1.286    7.143    0.000    2.000    3.714 
#    0.000    1.429    0.000    0.000    0.000    0.000 
#    0.000    0.000    0.000    0.000    0.000    0.000 
#
# Total GULP energy -156544.968128 kJ/mol
# GULP energy per Si atom -5590.891719 kJ/mol
# Density = 2.173281 g / cm^3
# Si number density = 21.782389 Si / 1000 Ang^3
#
#
#
# Elastic Constant Matrix: (Units=GPa)
#
#
# Indices 1 2 3 4 5 6 
#
# 1 86.0313 -0.1078 0.2046 0.0000 0.0000 0.0000
# 2 -0.1078 100.2038 8.3566 0.0000 0.0000 0.0000
# 3 0.2046 8.3566 56.4525 0.0000 0.0000 0.0000
# 4 0.0000 0.0000 0.0000 14.6723 0.0000 0.0000
# 5 0.0000 0.0000 0.0000 0.0000 -5.2516 0.0000
# 6 0.0000 0.0000 0.0000 0.0000 0.0000 11.9079
#
#
#
# Elastic Compliance Matrix: (Units=1/GPa)
#
#
# Indices 1 2 3 4 5 6 
#
# 1 0.011624 0.000016 -0.000045 0.000000 0.000000 0.000000
# 2 0.000016 0.010104 -0.001496 0.000000 0.000000 0.000000
# 3 -0.000045 -0.001496 0.017936 0.000000 0.000000 0.000000
# 4 0.000000 0.000000 0.000000 0.068156 0.000000 0.000000
# 5 0.000000 0.000000 0.000000 0.000000 -0.190418 0.000000
# 6 0.000000 0.000000 0.000000 0.000000 0.000000 0.083978
#
#
# Mechanical properties :
#
#
# Convention : Reuss Voigt Hill
#
# Bulk Modulus (GPa) = 27.31080 28.84385 28.07733
# Shear Modulus (GPa) = 300.60988 19.88133 160.24561
#
# Velocity S-wave (km/s) = 11.76034 3.02441 8.58640
# Velocity P-wave (km/s) = 14.03469 5.04645 10.54607
#
# Compressibility (1/GPa) = 0.03661555
#
# Stress axis : x y z
#
# Youngs Moduli (GPa) = 86.03039 98.96658 55.75508
#
# Poissons Ratio (x) = -0.00160 0.00248
# Poissons Ratio (y) = -0.00139 0.08340
# Poissons Ratio (z) = 0.00383 0.14804
#
# Static dielectric constant tensor:
#      x y z
#    x 1.814910 0.000000 0.000000 
#    y 0.000000 1.784840 0.000000 
#    z 0.000000 0.000000 1.780730 
# 
# From -- ./inp_files/8147.got.cif
#   From: 2010.05.17/outbox.cif.g08.bks.cpg/sg42_5_cif.got.tgz:8147.got - 2010.06.03 19:03:34.
