data_PCOD9369525
_publ_section_title
;
Structure prediction by ZEFSAII (Michael W. Deem and Ramdas Pophale) SiO2 
 PCOD9369525
Probable space group: F M M 2
;
_chemical_formula_sum "Si O2"
_cell_formula_units_Z 80
_cell_length_a 24.385643
_cell_length_b 16.497679
_cell_length_c 9.396419
_cell_angle_alpha 90.000000
_cell_angle_beta 90.000000
_cell_angle_gamma 90.000000
_cell_volume 3780.240538
_symmetry_space_group_name_H-M "F M M 2"
_symmetry_group_IT_number 42
_symmetry_cell_setting 'orthorhombic'
loop_
_space_group_symop_operation_xyz
x,y,z
-x,-y,z
-x,y,z
x,-y,z
x,1/2+y,1/2+z
-x,1/2-y,1/2+z
-x,1/2+y,1/2+z
x,1/2-y,1/2+z
1/2+x,y,1/2+z
1/2-x,-y,1/2+z
1/2-x,y,1/2+z
1/2+x,-y,1/2+z
1/2+x,1/2+y,z
1/2-x,1/2-y,z
1/2-x,1/2+y,z
1/2+x,1/2-y,z
loop_
_atom_site_type_symbol
_atom_site_label
_atom_site_fract_x
_atom_site_fract_y
_atom_site_fract_z
Si Si1 0.622442 0.591976 0.500000
Si Si2 0.716023 0.332351 0.660304
Si Si3 0.800340 0.592433 0.460959
Si Si4 0.602904 0.404991 0.175596
Si Si5 0.000000 0.354241 0.038164
Si Si6 0.000000 0.794048 0.227559
O O1 0.639516 0.500000 0.536632
O O2 0.656353 0.658276 0.588267
O O3 0.631277 0.604624 0.330808
O O4 0.557158 0.598061 0.527995
O O5 0.750000 0.250000 0.639501
O O6 0.752232 0.397820 0.575633
O O7 0.644403 0.110891 0.547622
O O8 0.803095 0.500000 0.409632
O O9 0.789835 0.648854 0.326332
O O10 0.585432 0.500000 0.169749
O O11 0.552603 0.343832 0.173934
O O12 0.000000 0.298287 0.897628
O O13 0.000000 0.296757 0.173441
#
# Coordination Sequence:
#
# PCOD9369525 Si02
#       6
#    16  16  16  16   8   8
#     4  10  21  43  70  97 129 171 221 270 325 395
#     4  12  26  42  64  94 131 168 215 275 331 386
#     4  11  23  42  65  92 126 172 220 268 325 392
#     4   9  20  39  68  95 127 172 222 268 324 392
#     4  10  23  39  65  97 133 174 212 265 327 393
#     4  10  21  39  61  95 139 170 212 265 329 389
#
# _framework density 21.162676000000001
#
# number of rings (size 3 to 8) (size 9 to 14) (size 15 to 20)
#    0.000    1.600    0.000    4.200    2.800    5.600 
#    0.000    1.000    0.000    3.600    0.000    0.000 
#    0.000    0.000    0.000    0.000    0.000    0.000 
#
# Total GULP energy -111807.825021 kJ/mol
# GULP energy per Si atom -5590.391251 kJ/mol
# Density = 2.111451 g / cm^3
# Si number density = 21.162676 Si / 1000 Ang^3
#
#
#
# Elastic Constant Matrix: (Units=GPa)
#
#
# Indices 1 2 3 4 5 6 
#
# 1 68.9366 25.2979 35.2003 0.0000 0.0000 0.0000
# 2 25.2979 73.0489 43.6900 0.0000 0.0000 0.0000
# 3 35.2003 43.6900 85.4215 0.0000 0.0000 0.0000
# 4 0.0000 0.0000 0.0000 27.7780 0.0000 0.0000
# 5 0.0000 0.0000 0.0000 0.0000 30.0060 0.0000
# 6 0.0000 0.0000 0.0000 0.0000 0.0000 29.3264
#
#
#
# Elastic Compliance Matrix: (Units=1/GPa)
#
#
# Indices 1 2 3 4 5 6 
#
# 1 0.018733 -0.002695 -0.006341 0.000000 0.000000 0.000000
# 2 -0.002695 0.020110 -0.009175 0.000000 0.000000 0.000000
# 3 -0.006341 -0.009175 0.019012 0.000000 0.000000 0.000000
# 4 0.000000 0.000000 0.000000 0.036000 0.000000 0.000000
# 5 0.000000 0.000000 0.000000 0.000000 0.033327 0.000000
# 6 0.000000 0.000000 0.000000 0.000000 0.000000 0.034099
#
#
# Mechanical properties :
#
#
# Convention : Reuss Voigt Hill
#
# Bulk Modulus (GPa) = 46.65630 48.42039 47.53834
# Shear Modulus (GPa) = 24.40833 25.63665 25.02249
#
# Velocity S-wave (km/s) = 3.39981 3.48431 3.44232
# Velocity P-wave (km/s) = 6.12421 6.25435 6.18962
#
# Compressibility (1/GPa) = 0.02143333
#
# Stress axis : x y z
#
# Youngs Moduli (GPa) = 53.38194 49.72553 52.59712
#
# Poissons Ratio (x) = 0.13401 0.33352
# Poissons Ratio (y) = 0.14386 0.48259
# Poissons Ratio (z) = 0.33850 0.45624
#
# Static dielectric constant tensor:
#      x y z
#    x 1.780880 0.000000 0.000000 
#    y 0.000000 1.757200 0.000000 
#    z 0.000000 0.000000 1.727000 
# 
# From -- ./inp_files/10022.got.cif
#   From: 2010.05.17/outbox.cif.g08.bks.cpg/sg42_6_cif.got.tgz:10022.got - 2010.06.03 19:03:34.
