data_PCOD9369417
_publ_section_title
;
Structure prediction by ZEFSAII (Michael W. Deem and Ramdas Pophale) SiO2 
 PCOD9369417
Probable space group: F M M 2
;
_chemical_formula_sum "Si O2"
_cell_formula_units_Z 112
_cell_length_a 27.642383
_cell_length_b 14.533320
_cell_length_c 11.593982
_cell_angle_alpha 90.000000
_cell_angle_beta 90.000000
_cell_angle_gamma 90.000000
_cell_volume 4657.715289
_symmetry_space_group_name_H-M "F M M 2"
_symmetry_group_IT_number 42
_symmetry_cell_setting 'orthorhombic'
loop_
_space_group_symop_operation_xyz
x,y,z
-x,-y,z
-x,y,z
x,-y,z
x,1/2+y,1/2+z
-x,1/2-y,1/2+z
-x,1/2+y,1/2+z
x,1/2-y,1/2+z
1/2+x,y,1/2+z
1/2-x,-y,1/2+z
1/2-x,y,1/2+z
1/2+x,-y,1/2+z
1/2+x,1/2+y,z
1/2-x,1/2-y,z
1/2-x,1/2+y,z
1/2+x,1/2-y,z
loop_
_atom_site_type_symbol
_atom_site_label
_atom_site_fract_x
_atom_site_fract_y
_atom_site_fract_z
Si Si1 0.634175 0.764445 0.757850
Si Si2 0.947113 0.900400 0.503257
Si Si3 0.447971 0.199240 0.394508
Si Si4 0.843800 0.597978 0.123163
Si Si5 0.755936 0.898103 0.014075
Si Si6 0.779037 0.887779 0.280642
Si Si7 0.554945 0.606629 0.139788
O O1 0.602431 0.691924 0.830555
O O2 0.664404 0.695344 0.680509
O O3 0.670827 0.837054 0.810554
O O4 0.593627 0.824734 0.693444
O O5 0.946757 0.806964 0.431673
O O6 0.898903 0.898798 0.578610
O O7 0.000000 0.899104 0.563515
O O8 0.945312 0.000000 0.439850
O O9 0.500000 0.183273 0.334596
O O10 0.447239 0.135127 0.505997
O O11 0.837874 0.500000 0.188702
O O12 0.802050 0.593658 0.028142
O O13 0.770502 0.863965 0.143437
O O14 0.778457 0.000000 0.008407
O O15 0.759367 0.859255 0.882629
O O16 0.781416 0.000000 0.284194
O O17 0.500000 0.619778 0.185725
O O18 0.568086 0.500000 0.153296
#
# Coordination Sequence:
#
# PCOD9369417 Si02
#       7
#    16  16  16  16  16  16  16
#     4  12  23  37  64  97 126 171 227 289 337 412
#     4   9  17  32  57  87 119 157 204 264 330 395
#     4  10  21  37  58  88 128 171 217 271 335 404
#     4  10  21  38  60  89 125 167 214 275 343 408
#     4   9  20  43  69  96 132 173 219 282 353 418
#     4  10  22  42  70 101 135 174 224 288 354 418
#     4  10  22  41  62  90 136 185 226 275 342 417
#
# _framework density 24.046123000000001
#
# number of rings (size 3 to 8) (size 9 to 14) (size 15 to 20)
#    0.000    2.000    1.429    1.714    0.000    4.000 
#    2.571    2.857    0.000    0.000    0.000    0.000 
#    0.000    0.000    0.000    0.000    0.000    0.000 
#
# Total GULP energy -155919.892918 kJ/mol
# GULP energy per Si atom -5568.567604 kJ/mol
# Density = 2.399139 g / cm^3
# Si number density = 24.046123 Si / 1000 Ang^3
#
#
#
# Elastic Constant Matrix: (Units=GPa)
#
#
# Indices 1 2 3 4 5 6 
#
# 1 65.7340 1.3814 14.0392 0.0000 0.0000 0.0000
# 2 1.3814 109.8214 19.8764 0.0000 0.0000 0.0000
# 3 14.0392 19.8764 95.1727 0.0000 0.0000 0.0000
# 4 0.0000 0.0000 0.0000 5.2692 0.0000 0.0000
# 5 0.0000 0.0000 0.0000 0.0000 25.6483 0.0000
# 6 0.0000 0.0000 0.0000 0.0000 0.0000 23.7480
#
#
#
# Elastic Compliance Matrix: (Units=1/GPa)
#
#
# Indices 1 2 3 4 5 6 
#
# 1 0.015713 0.000231 -0.002366 0.000000 0.000000 0.000000
# 2 0.000231 0.009467 -0.002011 0.000000 0.000000 0.000000
# 3 -0.002366 -0.002011 0.011276 0.000000 0.000000 0.000000
# 4 0.000000 0.000000 0.000000 0.189781 0.000000 0.000000
# 5 0.000000 0.000000 0.000000 0.000000 0.038989 0.000000
# 6 0.000000 0.000000 0.000000 0.000000 0.000000 0.042109
#
#
# Mechanical properties :
#
#
# Convention : Reuss Voigt Hill
#
# Bulk Modulus (GPa) = 35.50739 37.92467 36.71603
# Shear Modulus (GPa) = 15.38386 26.62853 21.00619
#
# Velocity S-wave (km/s) = 2.53210 3.33136 2.95884
# Velocity P-wave (km/s) = 4.83189 5.53201 5.19376
#
# Compressibility (1/GPa) = 0.02816315
#
# Stress axis : x y z
#
# Youngs Moduli (GPa) = 63.64031 105.63254 88.68194
#
# Poissons Ratio (x) = -0.02436 0.20983
# Poissons Ratio (y) = -0.01467 0.17835
# Poissons Ratio (z) = 0.15058 0.21244
#
# Static dielectric constant tensor:
#      x y z
#    x 1.978460 0.000000 0.000000 
#    y 0.000000 1.896180 0.000000 
#    z 0.000000 0.000000 2.084980 
# 
# From -- ./inp_files/11118.got.cif
#   From: 2010.05.17/outbox.cif.g08.bks.cpg/sg42_6_cif.got.tgz:11118.got - 2010.06.03 19:03:34.
