data_PCOD9369363
_publ_section_title
;
Structure prediction by ZEFSAII (Michael W. Deem and Ramdas Pophale) SiO2 
 PCOD9369363
Probable space group: F M M 2
;
_chemical_formula_sum "Si O2"
_cell_formula_units_Z 64
_cell_length_a 30.474882
_cell_length_b 17.738950
_cell_length_c 4.930294
_cell_angle_alpha 90.000000
_cell_angle_beta 90.000000
_cell_angle_gamma 90.000000
_cell_volume 2665.279506
_symmetry_space_group_name_H-M "F M M 2"
_symmetry_group_IT_number 42
_symmetry_cell_setting 'orthorhombic'
loop_
_space_group_symop_operation_xyz
x,y,z
-x,-y,z
-x,y,z
x,-y,z
x,1/2+y,1/2+z
-x,1/2-y,1/2+z
-x,1/2+y,1/2+z
x,1/2-y,1/2+z
1/2+x,y,1/2+z
1/2-x,-y,1/2+z
1/2-x,y,1/2+z
1/2+x,-y,1/2+z
1/2+x,1/2+y,z
1/2-x,1/2-y,z
1/2-x,1/2+y,z
1/2+x,1/2-y,z
loop_
_atom_site_type_symbol
_atom_site_label
_atom_site_fract_x
_atom_site_fract_y
_atom_site_fract_z
Si Si1 0.357069 0.413118 0.286610
Si Si2 0.276760 0.908472 0.152464
Si Si3 0.600464 0.196645 0.414761
Si Si4 0.452271 0.584857 0.213945
O O1 0.346628 0.500000 0.211148
O O2 0.321161 0.386196 0.498867
O O3 0.362162 0.360609 0.023520
O O4 0.407751 0.413558 0.393571
O O5 0.237113 0.884651 0.951618
O O6 0.278105 0.000000 0.160303
O O7 0.602323 0.233318 0.123434
O O8 0.557123 0.148370 0.489392
O O9 0.500000 0.596085 0.342452
O O10 0.451927 0.500000 0.095183
#
# Coordination Sequence:
#
# PCOD9369363 Si02
#       4
#    16  16  16  16
#     4   8  17  35  55  82 112 146 183 228 277 324
#     4   9  17  30  52  80 105 134 179 229 272 318
#     4  10  21  36  56  81 112 146 185 224 271 325
#     4   8  16  35  59  84 113 147 185 225 274 329
#
# _framework density 24.012491000000001
#
# number of rings (size 3 to 8) (size 9 to 14) (size 15 to 20)
#    1.500    1.750    0.000    0.000    0.000    3.000 
#    0.000    7.500    0.000    7.500    0.000    0.000 
#    0.000    0.000    0.000    0.000    0.000    0.000 
#
# Total GULP energy -89135.505410 kJ/mol
# GULP energy per Si atom -5570.969088 kJ/mol
# Density = 2.395784 g / cm^3
# Si number density = 24.012491 Si / 1000 Ang^3
#
#
#
# Elastic Constant Matrix: (Units=GPa)
#
#
# Indices 1 2 3 4 5 6 
#
# 1 138.7002 6.7918 12.9810 -0.0004 0.0002 0.0000
# 2 6.7918 111.6306 21.1631 0.0001 0.0001 0.0001
# 3 12.9810 21.1631 73.0304 -0.0004 0.0006 0.0000
# 4 -0.0004 0.0001 -0.0004 16.6012 0.0002 0.0001
# 5 0.0002 0.0001 0.0006 0.0002 14.7552 0.0000
# 6 0.0000 0.0001 0.0000 0.0001 0.0000 9.7326
#
#
#
# Elastic Compliance Matrix: (Units=1/GPa)
#
#
# Indices 1 2 3 4 5 6 
#
# 1 0.007336 -0.000211 -0.001243 0.000000 0.000000 0.000000
# 2 -0.000211 0.009485 -0.002711 0.000000 0.000000 0.000000
# 3 -0.001243 -0.002711 0.014700 0.000000 -0.000001 0.000000
# 4 0.000000 0.000000 0.000000 0.060237 -0.000001 -0.000001
# 5 0.000000 0.000000 -0.000001 -0.000001 0.067773 0.000000
# 6 0.000000 0.000000 0.000000 -0.000001 0.000000 0.102747
#
#
# Mechanical properties :
#
#
# Convention : Reuss Voigt Hill
#
# Bulk Modulus (GPa) = 43.11976 45.02590 44.07283
# Shear Modulus (GPa) = 17.96383 27.04616 22.50499
#
# Velocity S-wave (km/s) = 2.73812 3.35974 3.06473
# Velocity P-wave (km/s) = 5.29080 5.81740 5.56034
#
# Compressibility (1/GPa) = 0.02319122
#
# Stress axis : x y z
#
# Youngs Moduli (GPa) = 136.30587 105.43050 68.02942
#
# Poissons Ratio (x) = 0.02222 0.08456
# Poissons Ratio (y) = 0.02872 0.18444
# Poissons Ratio (z) = 0.16942 0.28584
#
# Static dielectric constant tensor:
#      x y z
#    x 2.026620 0.000000 0.000000 
#    y 0.000000 1.922700 0.000000 
#    z 0.000000 0.000000 1.925160 
# 
# From -- ./inp_files/1144.got.cif
#   From: 2010.05.17/outbox.cif.g08.bks.cpg/sg42_1_cif.got.tgz:1144.got - 2010.06.03 19:03:34.
