data_PCOD9369491
_publ_section_title
;
Structure prediction by ZEFSAII (Michael W. Deem and Ramdas Pophale) SiO2 
 PCOD9369491
Probable space group: F M M 2
;
_chemical_formula_sum "Si O2"
_cell_formula_units_Z 112
_cell_length_a 14.209472
_cell_length_b 28.759452
_cell_length_c 12.285404
_cell_angle_alpha 90.000000
_cell_angle_beta 90.000000
_cell_angle_gamma 90.000000
_cell_volume 5020.511771
_symmetry_space_group_name_H-M "F M M 2"
_symmetry_group_IT_number 42
_symmetry_cell_setting 'orthorhombic'
loop_
_space_group_symop_operation_xyz
x,y,z
-x,-y,z
-x,y,z
x,-y,z
x,1/2+y,1/2+z
-x,1/2-y,1/2+z
-x,1/2+y,1/2+z
x,1/2-y,1/2+z
1/2+x,y,1/2+z
1/2-x,-y,1/2+z
1/2-x,y,1/2+z
1/2+x,-y,1/2+z
1/2+x,1/2+y,z
1/2-x,1/2-y,z
1/2-x,1/2+y,z
1/2+x,1/2-y,z
loop_
_atom_site_type_symbol
_atom_site_label
_atom_site_fract_x
_atom_site_fract_y
_atom_site_fract_z
Si Si1 0.104621 0.421889 0.810640
Si Si2 0.725200 0.799647 0.936706
Si Si3 0.894642 0.686074 0.737440
Si Si4 0.112857 0.050095 0.967612
Si Si5 0.803808 0.551587 0.225819
Si Si6 0.611690 0.117056 0.044900
Si Si7 0.611033 0.348481 0.004755
O O1 0.102623 0.368102 0.773379
O O2 0.193128 0.445125 0.753724
O O3 0.000000 0.441303 0.787342
O O4 0.120237 0.417505 0.940426
O O5 0.750000 0.750000 0.986432
O O6 0.672379 0.790295 0.823591
O O7 0.820961 0.828090 0.914099
O O8 0.661965 0.834667 0.009627
O O9 0.869810 0.682389 0.611272
O O10 0.000000 0.705188 0.747535
O O11 0.144575 0.055575 0.842766
O O12 0.139308 0.097988 0.025835
O O13 0.000000 0.048352 0.972764
O O14 0.149619 0.000000 0.007307
O O15 0.826469 0.500000 0.182251
O O16 0.840432 0.591769 0.146659
O O17 0.500000 0.124646 0.062158
O O18 0.500000 0.346888 0.981270
#
# Coordination Sequence:
#
# PCOD9369491 Si02
#       7
#    16  16  16  16  16  16  16
#     4   9  19  37  60  85 117 160 212 267 319 378
#     4  11  23  39  65  94 123 158 207 267 325 381
#     4   9  19  39  62  83 114 158 203 251 313 377
#     4   9  18  34  58  91 128 164 207 262 322 382
#     4  11  22  36  60  94 132 175 222 270 321 381
#     4  10  22  42  66  92 127 172 220 271 330 392
#     4  10  21  38  62  91 126 164 202 251 312 380
#
# _framework density 22.308482000000001
#
# number of rings (size 3 to 8) (size 9 to 14) (size 15 to 20)
#    0.000    2.143    0.000    4.286    0.000    3.429 
#    0.000    5.714    0.000    9.429    0.000    4.000 
#    0.000    0.000    0.000    0.000    0.000    0.000 
#
# Total GULP energy -156407.555445 kJ/mol
# GULP energy per Si atom -5585.984123 kJ/mol
# Density = 2.225771 g / cm^3
# Si number density = 22.308482 Si / 1000 Ang^3
#
#
#
# Elastic Constant Matrix: (Units=GPa)
#
#
# Indices 1 2 3 4 5 6 
#
# 1 104.6466 64.2810 44.5712 0.0000 0.0000 0.0000
# 2 64.2810 118.0025 25.4947 0.0000 0.0000 0.0000
# 3 44.5712 25.4947 61.6163 0.0000 0.0000 0.0000
# 4 0.0000 0.0000 0.0000 22.3297 0.0000 0.0000
# 5 0.0000 0.0000 0.0000 0.0000 25.3788 0.0000
# 6 0.0000 0.0000 0.0000 0.0000 0.0000 18.1159
#
#
#
# Elastic Compliance Matrix: (Units=1/GPa)
#
#
# Indices 1 2 3 4 5 6 
#
# 1 0.018921 -0.008072 -0.010347 0.000000 0.000000 0.000000
# 2 -0.008072 0.012750 0.000563 0.000000 0.000000 0.000000
# 3 -0.010347 0.000563 0.023481 0.000000 0.000000 0.000000
# 4 0.000000 0.000000 0.000000 0.044783 0.000000 0.000000
# 5 0.000000 0.000000 0.000000 0.000000 0.039403 0.000000
# 6 0.000000 0.000000 0.000000 0.000000 0.000000 0.055200
#
#
# Mechanical properties :
#
#
# Convention : Reuss Voigt Hill
#
# Bulk Modulus (GPa) = 51.43736 61.43989 56.43863
# Shear Modulus (GPa) = 21.12110 23.15943 22.14027
#
# Velocity S-wave (km/s) = 3.08031 3.22552 3.15375
# Velocity P-wave (km/s) = 5.97984 6.43994 6.21415
#
# Compressibility (1/GPa) = 0.01944112
#
# Stress axis : x y z
#
# Youngs Moduli (GPa) = 52.85070 78.43352 42.58733
#
# Poissons Ratio (x) = 0.63309 0.44066
# Poissons Ratio (y) = 0.42659 -0.02399
# Poissons Ratio (z) = 0.54686 -0.04419
#
# Static dielectric constant tensor:
#      x y z
#    x 1.841780 0.000000 0.000000 
#    y 0.000000 1.812220 0.000000 
#    z 0.000000 0.000000 1.851240 
# 
# From -- ./inp_files/8130.got.cif
#   From: 2010.05.17/outbox.cif.g08.bks.cpg/sg42_5_cif.got.tgz:8130.got - 2010.06.03 19:03:34.
