data_PCOD9369455
_publ_section_title
;
Structure prediction by ZEFSAII (Michael W. Deem and Ramdas Pophale) SiO2 
 PCOD9369455
Probable space group: F M M 2
;
_chemical_formula_sum "Si O2"
_cell_formula_units_Z 112
_cell_length_a 30.588147
_cell_length_b 15.214857
_cell_length_c 11.360281
_cell_angle_alpha 90.000000
_cell_angle_beta 90.000000
_cell_angle_gamma 90.000000
_cell_volume 5287.009825
_symmetry_space_group_name_H-M "F M M 2"
_symmetry_group_IT_number 42
_symmetry_cell_setting 'orthorhombic'
loop_
_space_group_symop_operation_xyz
x,y,z
-x,-y,z
-x,y,z
x,-y,z
x,1/2+y,1/2+z
-x,1/2-y,1/2+z
-x,1/2+y,1/2+z
x,1/2-y,1/2+z
1/2+x,y,1/2+z
1/2-x,-y,1/2+z
1/2-x,y,1/2+z
1/2+x,-y,1/2+z
1/2+x,1/2+y,z
1/2-x,1/2-y,z
1/2-x,1/2+y,z
1/2+x,1/2-y,z
loop_
_atom_site_type_symbol
_atom_site_label
_atom_site_fract_x
_atom_site_fract_y
_atom_site_fract_z
Si Si1 0.451053 0.209706 0.146610
Si Si2 0.450901 0.096321 0.922852
Si Si3 0.383166 0.647010 0.231125
Si Si4 0.134439 0.901797 0.975819
Si Si5 0.230350 0.392981 0.511457
Si Si6 0.713209 0.107723 0.780461
Si Si7 0.046909 0.604203 0.371122
O O1 0.500000 0.250665 0.156979
O O2 0.411120 0.269132 0.188819
O O3 0.452317 0.126785 0.234404
O O4 0.445083 0.172502 0.017088
O O5 0.500000 0.104667 0.872508
O O6 0.414136 0.102369 0.825590
O O7 0.448529 0.000000 0.980183
O O8 0.376515 0.591957 0.112930
O O9 0.334030 0.654806 0.279413
O O10 0.182148 0.859709 0.972625
O O11 0.138552 0.000000 0.923184
O O12 0.091756 0.857406 0.921495
O O13 0.229149 0.500000 0.511825
O O14 0.262318 0.368944 0.403088
O O15 0.235817 0.370269 0.651862
O O16 0.707572 0.000000 0.780648
O O17 0.047332 0.500000 0.393616
O O18 0.000000 0.638373 0.417698
#
# Coordination Sequence:
#
# PCOD9369455 Si02
#       7
#    16  16  16  16  16  16  16
#     4  10  22  37  55  80 115 158 200 241 294 355
#     4  10  21  38  58  82 117 161 208 254 298 354
#     4  11  21  34  56  86 120 152 191 244 301 360
#     4   9  18  33  55  84 115 147 186 236 295 356
#     4   8  15  30  53  82 116 149 189 241 296 359
#     4   9  17  33  57  87 120 153 196 252 309 367
#     4   9  18  34  56  81 110 146 192 242 287 343
#
# _framework density 21.183996
#
# number of rings (size 3 to 8) (size 9 to 14) (size 15 to 20)
#    0.000    2.571    0.000    3.000    2.000    2.857 
#    2.571    1.429    0.000    0.857    0.000    0.000 
#    0.000    0.000    0.000    0.571    0.000    0.000 
#
# Total GULP energy -155900.615652 kJ/mol
# GULP energy per Si atom -5567.879130 kJ/mol
# Density = 2.113578 g / cm^3
# Si number density = 21.183996 Si / 1000 Ang^3
#
#
#
# Elastic Constant Matrix: (Units=GPa)
#
#
# Indices 1 2 3 4 5 6 
#
# 1 151.7346 28.3601 86.9933 0.0000 0.0000 0.0000
# 2 28.3601 47.4318 19.5277 0.0000 0.0000 0.0000
# 3 86.9933 19.5277 101.5812 0.0000 0.0000 0.0000
# 4 0.0000 0.0000 0.0000 21.6110 0.0000 0.0000
# 5 0.0000 0.0000 0.0000 0.0000 42.1646 0.0000
# 6 0.0000 0.0000 0.0000 0.0000 0.0000 -137.8155
#
#
#
# Elastic Compliance Matrix: (Units=1/GPa)
#
#
# Indices 1 2 3 4 5 6 
#
# 1 0.013489 -0.003594 -0.010861 0.000000 0.000000 0.000000
# 2 -0.003594 0.023852 -0.001508 0.000000 0.000000 0.000000
# 3 -0.010861 -0.001508 0.019436 0.000000 0.000000 0.000000
# 4 0.000000 0.000000 0.000000 0.046273 0.000000 0.000000
# 5 0.000000 0.000000 0.000000 0.000000 0.023717 0.000000
# 6 0.000000 0.000000 0.000000 0.000000 0.000000 -0.007256
#
#
# Mechanical properties :
#
#
# Convention : Reuss Voigt Hill
#
# Bulk Modulus (GPa) = 40.23827 63.39000 51.81413
# Shear Modulus (GPa) = 31.30497 -3.75019 13.77739
#
# Velocity S-wave (km/s) = 3.84834 -1.33197 2.55300
# Velocity P-wave (km/s) = 6.22754 5.25576 5.76217
#
# Compressibility (1/GPa) = 0.02485196
#
# Stress axis : x y z
#
# Youngs Moduli (GPa) = 74.13395 41.92457 51.45224
#
# Poissons Ratio (x) = 0.15067 0.55883
# Poissons Ratio (y) = 0.26642 0.07757
# Poissons Ratio (z) = 0.80518 0.06321
#
# Static dielectric constant tensor:
#      x y z
#    x 1.797050 0.000000 0.000000 
#    y 0.000000 1.761190 0.000000 
#    z 0.000000 0.000000 1.757230 
# 
# From -- ./inp_files/11112.got.cif
#   From: 2010.05.17/outbox.cif.g08.bks.cpg/sg42_6_cif.got.tgz:11112.got - 2010.06.03 19:03:34.
