data_PCOD9369376
_publ_section_title
;
Structure prediction by ZEFSAII (Michael W. Deem and Ramdas Pophale) SiO2 
 PCOD9369376
Probable space group: F M M 2
;
_chemical_formula_sum "Si O2"
_cell_formula_units_Z 112
_cell_length_a 24.269198
_cell_length_b 15.173480
_cell_length_c 14.592611
_cell_angle_alpha 90.000000
_cell_angle_beta 90.000000
_cell_angle_gamma 90.000000
_cell_volume 5373.702595
_symmetry_space_group_name_H-M "F M M 2"
_symmetry_group_IT_number 42
_symmetry_cell_setting 'orthorhombic'
loop_
_space_group_symop_operation_xyz
x,y,z
-x,-y,z
-x,y,z
x,-y,z
x,1/2+y,1/2+z
-x,1/2-y,1/2+z
-x,1/2+y,1/2+z
x,1/2-y,1/2+z
1/2+x,y,1/2+z
1/2-x,-y,1/2+z
1/2-x,y,1/2+z
1/2+x,-y,1/2+z
1/2+x,1/2+y,z
1/2-x,1/2-y,z
1/2-x,1/2+y,z
1/2+x,1/2-y,z
loop_
_atom_site_type_symbol
_atom_site_label
_atom_site_fract_x
_atom_site_fract_y
_atom_site_fract_z
Si Si1 0.119907 0.755076 0.373890
Si Si2 0.253884 0.104534 0.080508
Si Si3 0.281751 0.842559 0.768814
Si Si4 0.123286 0.322829 0.076902
Si Si5 0.693003 0.097510 0.400392
Si Si6 0.933662 0.000000 0.287589
Si Si7 0.937540 0.810426 0.213023
Si Si8 0.566656 0.500000 0.506089
O O1 0.164512 0.820894 0.327350
O O2 0.116605 0.774893 0.479875
O O3 0.144622 0.658156 0.363795
O O4 0.065525 0.771273 0.316010
O O5 0.214651 0.120296 0.167193
O O6 0.312664 0.152136 0.093881
O O7 0.264585 0.000000 0.068677
O O8 0.222411 0.137432 0.990162
O O9 0.250000 0.750000 0.761738
O O10 0.241087 0.904249 0.825670
O O11 0.099958 0.255525 0.153015
O O12 0.090234 0.414238 0.059107
O O13 0.673423 0.000000 0.422518
O O14 0.919666 0.087809 0.229493
O O15 0.915208 0.000000 0.396280
O O16 0.000000 0.000000 0.294922
O O17 0.000000 0.809414 0.177459
O O18 0.500000 0.500000 0.507237
#
# Coordination Sequence:
#
# PCOD9369376 Si02
#       8
#    16  16  16  16  16   8  16   8
#     4  11  24  42  66  94 130 180 224 284 337 411
#     4  11  23  39  62  95 133 174 217 273 337 415
#     4  10  21  36  58  85 123 169 207 260 327 392
#     4  12  23  41  71 103 135 173 230 287 346 406
#     4  10  22  40  61  90 133 175 217 266 333 411
#     4   9  20  44  70  94 132 178 230 291 342 403
#     4  11  25  45  70 100 135 177 231 291 351 407
#     4  11  22  42  72 100 134 182 238 289 339 403
#
# _framework density 20.842238999999999
#
# number of rings (size 3 to 8) (size 9 to 14) (size 15 to 20)
#    0.000    1.286    3.571    2.571    4.000    0.571 
#    6.429    0.000    0.000    0.000    0.000    0.000 
#    0.000    0.000    0.000    0.000    0.000    0.000 
#
# Total GULP energy -156364.629781 kJ/mol
# GULP energy per Si atom -5584.451064 kJ/mol
# Density = 2.079480 g / cm^3
# Si number density = 20.842239 Si / 1000 Ang^3
#
#
#
# Elastic Constant Matrix: (Units=GPa)
#
#
# Indices 1 2 3 4 5 6 
#
# 1 51.3504 36.6622 5.3152 0.0000 0.0000 0.0000
# 2 36.6622 126.0508 29.1136 0.0000 0.0000 0.0000
# 3 5.3152 29.1136 89.2855 0.0000 0.0000 0.0000
# 4 0.0000 0.0000 0.0000 -55.3884 0.0000 0.0000
# 5 0.0000 0.0000 0.0000 0.0000 28.6244 0.0000
# 6 0.0000 0.0000 0.0000 0.0000 0.0000 19.0461
#
#
#
# Elastic Compliance Matrix: (Units=1/GPa)
#
#
# Indices 1 2 3 4 5 6 
#
# 1 0.024651 -0.007387 0.000941 0.000000 0.000000 0.000000
# 2 -0.007387 0.010793 -0.003080 0.000000 0.000000 0.000000
# 3 0.000941 -0.003080 0.012148 0.000000 0.000000 0.000000
# 4 0.000000 0.000000 0.000000 -0.018054 0.000000 0.000000
# 5 0.000000 0.000000 0.000000 0.000000 0.034935 0.000000
# 6 0.000000 0.000000 0.000000 0.000000 0.000000 0.052504
#
#
# Mechanical properties :
#
#
# Convention : Reuss Voigt Hill
#
# Bulk Modulus (GPa) = 35.03714 45.42987 40.23351
# Shear Modulus (GPa) = 34.35440 11.49613 22.92526
#
# Velocity S-wave (km/s) = 4.06434 2.35112 3.32014
# Velocity P-wave (km/s) = 6.23476 5.40506 5.83468
#
# Compressibility (1/GPa) = 0.02854114
#
# Stress axis : x y z
#
# Youngs Moduli (GPa) = 40.56673 92.65120 82.31691
#
# Poissons Ratio (x) = 0.68443 -0.07748
# Poissons Ratio (y) = 0.29967 0.25350
# Poissons Ratio (z) = -0.03818 0.28533
#
# Static dielectric constant tensor:
#      x y z
#    x 1.764230 0.000000 0.000000 
#    y 0.000000 1.941770 0.000000 
#    z 0.000000 0.000000 1.740530 
# 
# From -- ./inp_files/17093.got.cif
#   From: 2010.05.17/outbox.cif.g08.bks.cpg/sg42_9_cif.got.tgz:17093.got - 2010.06.03 19:03:34.
