data_PCOD9369243
_publ_section_title
;
Structure prediction by ZEFSAII (Michael W. Deem and Ramdas Pophale) SiO2 
 PCOD9369243
Probable space group: F M M 2
;
_chemical_formula_sum "Si O2"
_cell_formula_units_Z 120
_cell_length_a 13.232614
_cell_length_b 24.245017
_cell_length_c 19.100914
_cell_angle_alpha 90.000000
_cell_angle_beta 90.000000
_cell_angle_gamma 90.000000
_cell_volume 6128.049805
_symmetry_space_group_name_H-M "F M M 2"
_symmetry_group_IT_number 42
_symmetry_cell_setting 'orthorhombic'
loop_
_space_group_symop_operation_xyz
x,y,z
-x,-y,z
-x,y,z
x,-y,z
x,1/2+y,1/2+z
-x,1/2-y,1/2+z
-x,1/2+y,1/2+z
x,1/2-y,1/2+z
1/2+x,y,1/2+z
1/2-x,-y,1/2+z
1/2-x,y,1/2+z
1/2+x,-y,1/2+z
1/2+x,1/2+y,z
1/2-x,1/2-y,z
1/2-x,1/2+y,z
1/2+x,1/2-y,z
loop_
_atom_site_type_symbol
_atom_site_label
_atom_site_fract_x
_atom_site_fract_y
_atom_site_fract_z
Si Si1 0.883395 0.563081 0.591400
Si Si2 0.883161 0.094942 0.929830
Si Si3 0.880412 0.176575 0.312053
Si Si4 0.726122 0.061154 0.811412
Si Si5 0.795158 0.647053 0.107161
Si Si6 0.250000 0.250000 0.204524
Si Si7 0.235562 0.187912 0.456958
Si Si8 0.608174 0.939814 0.191511
O O1 0.856131 0.500000 0.611878
O O2 0.880168 0.567568 0.506657
O O3 0.807911 0.610722 0.617138
O O4 0.000000 0.572967 0.612714
O O5 0.800007 0.068513 0.878586
O O6 0.840900 0.157388 0.938104
O O7 0.000000 0.092688 0.905840
O O8 0.848988 0.112355 0.302644
O O9 0.827004 0.217030 0.255708
O O10 0.834639 0.189096 0.388839
O O11 0.000000 0.183462 0.309482
O O12 0.803302 0.064534 0.747013
O O13 0.679548 0.000000 0.813232
O O14 0.793022 0.702475 0.153226
O O15 0.881300 0.607829 0.136038
O O16 0.806806 0.656956 0.024790
O O17 0.250000 0.250000 0.480369
O O18 0.500000 0.936177 0.228446
O O19 0.614393 0.000000 0.157419
#
# Coordination Sequence:
#
# PCOD9369243 Si02
#       8
#    16  16  16  16  16   8  16  16
#     4   9  18  34  58  90 126 162 202 251 311 372
#     4   9  18  32  57  91 125 161 204 255 312 363
#     4  11  25  45  66  91 126 164 206 256 311 372
#     4  10  20  38  63  91 124 159 202 256 310 368
#     4  11  22  39  64  89 124 161 207 262 310 367
#     4  12  24  44  64  90 124 164 208 254 310 364
#     4  10  21  40  61  88 124 164 212 255 305 370
#     4  10  21  37  58  87 123 162 206 255 310 369
#
# _framework density 19.582086
#
# number of rings (size 3 to 8) (size 9 to 14) (size 15 to 20)
#    0.000    1.867    2.667    1.200    0.000    3.733 
#    0.000    0.667    0.000    0.000    0.000    0.000 
#    0.000    0.000    0.000    0.000    0.000    0.000 
#
# Total GULP energy -167315.237577 kJ/mol
# GULP energy per Si atom -5577.174586 kJ/mol
# Density = 1.953752 g / cm^3
# Si number density = 19.582086 Si / 1000 Ang^3
#
#
#
# Elastic Constant Matrix: (Units=GPa)
#
#
# Indices 1 2 3 4 5 6 
#
# 1 69.4637 11.4566 13.9717 0.0000 0.0000 0.0000
# 2 11.4566 95.7873 15.9030 0.0000 0.0000 0.0000
# 3 13.9717 15.9030 76.0453 0.0000 0.0000 0.0000
# 4 0.0000 0.0000 0.0000 -33.3174 0.0000 0.0000
# 5 0.0000 0.0000 0.0000 0.0000 13.4182 0.0000
# 6 0.0000 0.0000 0.0000 0.0000 0.0000 10.2485
#
#
#
# Elastic Compliance Matrix: (Units=1/GPa)
#
#
# Indices 1 2 3 4 5 6 
#
# 1 0.015127 -0.001396 -0.002487 0.000000 0.000000 0.000000
# 2 -0.001396 0.010944 -0.002032 0.000000 0.000000 0.000000
# 3 -0.002487 -0.002032 0.014032 0.000000 0.000000 0.000000
# 4 0.000000 0.000000 0.000000 -0.030014 0.000000 0.000000
# 5 0.000000 0.000000 0.000000 0.000000 0.074526 0.000000
# 6 0.000000 0.000000 0.000000 0.000000 0.000000 0.097575
#
#
# Mechanical properties :
#
#
# Convention : Reuss Voigt Hill
#
# Bulk Modulus (GPa) = 35.37131 35.99542 35.68337
# Shear Modulus (GPa) = 24.57672 11.40085 17.98879
#
# Velocity S-wave (km/s) = 3.54653 2.41552 3.03419
# Velocity P-wave (km/s) = 5.90532 5.11873 5.52604
#
# Compressibility (1/GPa) = 0.02827150
#
# Stress axis : x y z
#
# Youngs Moduli (GPa) = 66.10889 91.37275 71.26565
#
# Poissons Ratio (x) = 0.12758 0.17725
# Poissons Ratio (y) = 0.09231 0.14482
# Poissons Ratio (z) = 0.16442 0.18569
#
# Static dielectric constant tensor:
#      x y z
#    x 1.673330 0.000000 0.000000 
#    y 0.000000 1.734900 0.000000 
#    z 0.000000 0.000000 1.696190 
# 
# From -- ./inp_files/24606.got.cif
#   From: 2010.05.17/outbox.cif.g08.bks.cpg/sg42_13_cif.got.tgz:24606.got - 2010.06.03 19:03:34.
