data_PCOD9369319
_publ_section_title
;
Structure prediction by ZEFSAII (Michael W. Deem and Ramdas Pophale) SiO2 
 PCOD9369319
Probable space group: F M M 2
;
_chemical_formula_sum "Si O2"
_cell_formula_units_Z 116
_cell_length_a 9.564035
_cell_length_b 29.234837
_cell_length_c 25.155031
_cell_angle_alpha 90.000000
_cell_angle_beta 90.000000
_cell_angle_gamma 90.000000
_cell_volume 7033.422241
_symmetry_space_group_name_H-M "F M M 2"
_symmetry_group_IT_number 42
_symmetry_cell_setting 'orthorhombic'
loop_
_space_group_symop_operation_xyz
x,y,z
-x,-y,z
-x,y,z
x,-y,z
x,1/2+y,1/2+z
-x,1/2-y,1/2+z
-x,1/2+y,1/2+z
x,1/2-y,1/2+z
1/2+x,y,1/2+z
1/2-x,-y,1/2+z
1/2-x,y,1/2+z
1/2+x,-y,1/2+z
1/2+x,1/2+y,z
1/2-x,1/2-y,z
1/2-x,1/2+y,z
1/2+x,1/2-y,z
loop_
_atom_site_type_symbol
_atom_site_label
_atom_site_fract_x
_atom_site_fract_y
_atom_site_fract_z
Si Si1 0.664799 0.053908 0.405580
Si Si2 0.661808 0.606606 0.493577
Si Si3 0.835201 0.553908 0.796544
Si Si4 0.788295 0.449105 0.101062
Si Si5 0.666340 0.794913 0.038489
Si Si6 0.000000 0.000000 0.101062
Si Si7 0.838192 0.893394 0.708547
Si Si8 0.666340 0.705087 0.663636
O O1 0.500000 0.063795 0.398986
O O2 0.735679 0.083740 0.451298
O O3 0.750000 0.060636 0.351062
O O4 0.676942 0.000000 0.420070
O O5 0.500000 0.604420 0.475235
O O6 0.671795 0.578862 0.548774
O O7 0.698753 0.659161 0.506237
O O8 0.823058 0.500000 0.782055
O O9 0.764321 0.583740 0.750826
O O10 0.000000 0.563795 0.803138
O O11 0.852063 0.500000 0.101062
O O12 0.623512 0.460599 0.101062
O O13 0.828205 0.421138 0.153350
O O14 0.500000 0.786906 0.034619
O O15 0.750000 0.750000 0.021295
O O16 0.698430 0.803036 0.101062
O O17 0.801246 0.840839 0.695888
O O18 0.000000 0.895580 0.726889
O O19 0.500000 0.713094 0.667506
O O20 0.750000 0.750000 0.680830
#
# Coordination Sequence:
#
# PCOD9369319 Si02
#       8
#    16  16  16  16  16   4  16  16
#     4  10  22  38  57  79 108 142 184 227 267 316
#     4  11  21  34  55  79 110 143 180 220 269 325
#     4  10  22  38  57  79 108 142 184 227 267 316
#     4  10  21  34  49  72 113 145 177 215 267 312
#     4   9  18  34  51  76 108 141 179 220 263 318
#     4   8  24  36  42  72 120 140 182 224 260 310
#     4  11  21  34  55  79 110 143 180 220 269 325
#     4   9  18  34  51  76 108 141 179 220 263 318
#
# _framework density 16.492681999999999
#
# number of rings (size 3 to 8) (size 9 to 14) (size 15 to 20)
#    0.414    1.655    1.379    2.069    1.931    4.966 
#    0.000    0.000    0.000    0.828    0.000    5.793 
#    0.000    0.000    0.000    0.000    0.000    0.000 
#
# Total GULP energy -161486.975771 kJ/mol
# GULP energy per Si atom -5568.516406 kJ/mol
# Density = 1.645514 g / cm^3
# Si number density = 16.492682 Si / 1000 Ang^3
#
#
#
# Elastic Constant Matrix: (Units=GPa)
#
#
# Indices 1 2 3 4 5 6 
#
# 1 124.1056 74.9625 59.0089 0.0000 0.0000 0.0000
# 2 74.9625 136.0505 73.2430 0.0000 0.0000 0.0000
# 3 59.0089 73.2430 81.7062 0.0000 0.0000 0.0000
# 4 0.0000 0.0000 0.0000 -0.5416 0.0000 0.0000
# 5 0.0000 0.0000 0.0000 0.0000 16.3388 0.0000
# 6 0.0000 0.0000 0.0000 0.0000 0.0000 32.2999
#
#
#
# Elastic Compliance Matrix: (Units=1/GPa)
#
#
# Indices 1 2 3 4 5 6 
#
# 1 0.013410 -0.004203 -0.005917 0.000000 0.000000 0.000000
# 2 -0.004203 0.015523 -0.010880 0.000000 0.000000 0.000000
# 3 -0.005917 -0.010880 0.026265 0.000000 0.000000 0.000000
# 4 0.000000 0.000000 0.000000 -1.846324 0.000000 0.000000
# 5 0.000000 0.000000 0.000000 0.000000 0.061204 0.000000
# 6 0.000000 0.000000 0.000000 0.000000 0.000000 0.030960
#
#
# Mechanical properties :
#
#
# Convention : Reuss Voigt Hill
#
# Bulk Modulus (GPa) = 75.76656 84.03235 79.89946
# Shear Modulus (GPa) = -3.02560 18.59593 7.78516
#
# Velocity S-wave (km/s) = -1.35591 3.36151 2.17500
# Velocity P-wave (km/s) = 6.60211 8.13193 7.40662
#
# Compressibility (1/GPa) = 0.01319843
#
# Stress axis : x y z
#
# Youngs Moduli (GPa) = 74.57216 64.41899 38.07380
#
# Poissons Ratio (x) = 0.27078 0.22527
# Poissons Ratio (y) = 0.31346 0.41423
# Poissons Ratio (z) = 0.44122 0.70086
#
# Static dielectric constant tensor:
#      x y z
#    x 1.553530 0.000000 0.000000 
#    y 0.000000 1.541160 0.000000 
#    z 0.000000 0.000000 1.533900 
# 
# From -- ./inp_files/28493.got.cif
#   From: 2010.05.17/outbox.cif.g08.bks.cpg/sg42_15_cif.got.tgz:28493.got - 2010.06.03 19:03:34.
