data_PCOD9369435
_publ_section_title
;
Structure prediction by ZEFSAII (Michael W. Deem and Ramdas Pophale) SiO2 
 PCOD9369435
Probable space group: F M M 2
;
_chemical_formula_sum "Si O2"
_cell_formula_units_Z 80
_cell_length_a 27.881159
_cell_length_b 14.110194
_cell_length_c 9.251649
_cell_angle_alpha 90.000000
_cell_angle_beta 90.000000
_cell_angle_gamma 90.000000
_cell_volume 3639.677933
_symmetry_space_group_name_H-M "F M M 2"
_symmetry_group_IT_number 42
_symmetry_cell_setting 'orthorhombic'
loop_
_space_group_symop_operation_xyz
x,y,z
-x,-y,z
-x,y,z
x,-y,z
x,1/2+y,1/2+z
-x,1/2-y,1/2+z
-x,1/2+y,1/2+z
x,1/2-y,1/2+z
1/2+x,y,1/2+z
1/2-x,-y,1/2+z
1/2-x,y,1/2+z
1/2+x,-y,1/2+z
1/2+x,1/2+y,z
1/2-x,1/2-y,z
1/2-x,1/2+y,z
1/2+x,1/2-y,z
loop_
_atom_site_type_symbol
_atom_site_label
_atom_site_fract_x
_atom_site_fract_y
_atom_site_fract_z
Si Si1 0.413650 0.792651 0.639040
Si Si2 0.230010 0.887478 0.521520
Si Si3 0.629224 0.897109 0.128115
Si Si4 0.813884 0.884851 0.217610
Si Si5 0.052210 0.852602 0.847051
O O1 0.393802 0.696351 0.559550
O O2 0.367012 0.846396 0.695606
O O3 0.441912 0.848699 0.517789
O O4 0.444503 0.750594 0.770003
O O5 0.186051 0.881121 0.635915
O O6 0.209440 0.852244 0.369317
O O7 0.278900 0.849758 0.589172
O O8 0.238502 0.000000 0.499313
O O9 0.599506 0.899677 0.277396
O O10 0.622751 0.000000 0.054870
O O11 0.814777 0.000000 0.217509
O O12 0.000000 0.892314 0.807254
#
# Coordination Sequence:
#
# PCOD9369435 Si02
#       5
#    16  16  16  16  16
#     4  10  22  38  62  90 121 163 204 264 312 363
#     4   9  19  36  59  87 128 169 205 251 303 368
#     4   9  21  39  61  89 122 162 209 252 307 373
#     4  10  21  37  60  93 130 169 207 251 312 373
#     4  10  22  40  63  90 121 160 207 262 320 368
#
# _framework density 21.979966999999998
#
# number of rings (size 3 to 8) (size 9 to 14) (size 15 to 20)
#    1.200    1.200    0.000    1.800    2.800    2.000 
#    0.000    2.000    0.000    3.000    0.000    0.000 
#    0.000    0.000    0.000    0.000    0.000    0.000 
#
# Total GULP energy -111354.542092 kJ/mol
# GULP energy per Si atom -5567.727105 kJ/mol
# Density = 2.192994 g / cm^3
# Si number density = 21.979967 Si / 1000 Ang^3
#
#
#
# Elastic Constant Matrix: (Units=GPa)
#
#
# Indices 1 2 3 4 5 6 
#
# 1 115.0513 18.1172 50.3600 0.0000 0.0000 0.0000
# 2 18.1172 54.1069 7.4130 0.0000 0.0000 0.0000
# 3 50.3600 7.4130 97.7327 0.0000 0.0000 0.0000
# 4 0.0000 0.0000 0.0000 13.0068 0.0000 0.0000
# 5 0.0000 0.0000 0.0000 0.0000 27.6931 0.0000
# 6 0.0000 0.0000 0.0000 0.0000 0.0000 -62.3530
#
#
#
# Elastic Compliance Matrix: (Units=1/GPa)
#
#
# Indices 1 2 3 4 5 6 
#
# 1 0.011726 -0.003131 -0.005804 0.000000 0.000000 0.000000
# 2 -0.003131 0.019512 0.000133 0.000000 0.000000 0.000000
# 3 -0.005804 0.000133 0.013213 0.000000 0.000000 0.000000
# 4 0.000000 0.000000 0.000000 0.076883 0.000000 0.000000
# 5 0.000000 0.000000 0.000000 0.000000 0.036110 0.000000
# 6 0.000000 0.000000 0.000000 0.000000 0.000000 -0.016038
#
#
# Mechanical properties :
#
#
# Convention : Reuss Voigt Hill
#
# Bulk Modulus (GPa) = 37.24921 46.51903 41.88412
# Shear Modulus (GPa) = 29.76927 8.40276 19.08602
#
# Velocity S-wave (km/s) = 3.68419 1.95735 2.94995
# Velocity P-wave (km/s) = 5.92295 5.13016 5.54075
#
# Compressibility (1/GPa) = 0.02684621
#
# Stress axis : x y z
#
# Youngs Moduli (GPa) = 85.28398 51.25047 75.68403
#
# Poissons Ratio (x) = 0.16046 0.43931
# Poissons Ratio (y) = 0.26702 -0.01009
# Poissons Ratio (z) = 0.49503 -0.00683
#
# Static dielectric constant tensor:
#      x y z
#    x 1.768070 0.000000 0.000000 
#    y 0.000000 1.879940 0.000000 
#    z 0.000000 0.000000 1.795210 
# 
# From -- ./inp_files/5111.got.cif
#   From: 2010.05.17/outbox.cif.g08.bks.cpg/sg42_3_cif.got.tgz:5111.got - 2010.06.03 19:03:34.
