data_PCOD9369135
_publ_section_title
;
Structure prediction by ZEFSAII (Michael W. Deem and Ramdas Pophale) SiO2 
 PCOD9369135
Probable space group: F M M 2
;
_chemical_formula_sum "Si O2"
_cell_formula_units_Z 120
_cell_length_a 20.799693
_cell_length_b 22.430015
_cell_length_c 12.513595
_cell_angle_alpha 90.000000
_cell_angle_beta 90.000000
_cell_angle_gamma 90.000000
_cell_volume 5838.060401
_symmetry_space_group_name_H-M "F M M 2"
_symmetry_group_IT_number 42
_symmetry_cell_setting 'orthorhombic'
loop_
_space_group_symop_operation_xyz
x,y,z
-x,-y,z
-x,y,z
x,-y,z
x,1/2+y,1/2+z
-x,1/2-y,1/2+z
-x,1/2+y,1/2+z
x,1/2-y,1/2+z
1/2+x,y,1/2+z
1/2-x,-y,1/2+z
1/2-x,y,1/2+z
1/2+x,-y,1/2+z
1/2+x,1/2+y,z
1/2-x,1/2-y,z
1/2-x,1/2+y,z
1/2+x,1/2-y,z
loop_
_atom_site_type_symbol
_atom_site_label
_atom_site_fract_x
_atom_site_fract_y
_atom_site_fract_z
Si Si1 0.425393 0.104624 0.315630
Si Si2 0.190599 0.291982 0.030424
Si Si3 0.258467 0.604697 0.139567
Si Si4 0.424151 0.727241 0.685055
Si Si5 0.154801 0.674436 0.805238
Si Si6 0.609395 0.430377 0.042994
Si Si7 0.327151 0.500000 0.739827
Si Si8 0.426447 0.931811 0.786371
O O1 0.500000 0.088979 0.297274
O O2 0.413463 0.167206 0.255244
O O3 0.414227 0.108370 0.443778
O O4 0.378632 0.052910 0.274495
O O5 0.250000 0.250000 0.063856
O O6 0.208623 0.357805 0.070306
O O7 0.122916 0.274917 0.083183
O O8 0.185376 0.291614 0.903580
O O9 0.292825 0.650002 0.222154
O O10 0.315085 0.580033 0.063376
O O11 0.224562 0.551901 0.202129
O O12 0.500000 0.731801 0.660905
O O13 0.398116 0.783699 0.750710
O O14 0.118187 0.615060 0.844913
O O15 0.596983 0.500000 0.018082
O O16 0.578113 0.418389 0.158903
O O17 0.500000 0.927520 0.820465
O O18 0.404268 0.000000 0.799630
#
# Coordination Sequence:
#
# PCOD9369135 Si02
#       8
#    16  16  16  16  16  16   8  16
#     4  11  24  40  67 102 138 181 225 275 339 407
#     4  12  27  45  72  98 131 178 229 282 342 410
#     4  11  25  44  63  99 134 178 220 282 338 398
#     4  11  26  48  69  99 140 180 228 281 337 410
#     4  11  26  43  70  96 135 173 229 279 343 399
#     4  10  20  36  62  99 133 172 225 272 331 390
#     4  12  23  40  66  92 143 176 222 274 342 404
#     4   9  19  39  64  94 135 175 220 276 333 397
#
# _framework density 20.554773000000001
#
# number of rings (size 3 to 8) (size 9 to 14) (size 15 to 20)
#    0.000    1.200    4.000    1.000    6.533    1.600 
#    1.200    2.667    0.000    0.000    0.000    0.000 
#    0.000    0.000    0.000    0.000    0.000    0.000 
#
# Total GULP energy -167100.483894 kJ/mol
# GULP energy per Si atom -5570.016130 kJ/mol
# Density = 2.050799 g / cm^3
# Si number density = 20.554773 Si / 1000 Ang^3
#
#
#
# Elastic Constant Matrix: (Units=GPa)
#
#
# Indices 1 2 3 4 5 6 
#
# 1 95.2317 37.6137 19.1813 0.0000 0.0000 0.0000
# 2 37.6137 87.3204 18.8626 0.0000 0.0000 0.0000
# 3 19.1813 18.8626 31.5412 0.0000 0.0000 0.0000
# 4 0.0000 0.0000 0.0000 18.4531 0.0000 0.0000
# 5 0.0000 0.0000 0.0000 0.0000 20.3286 0.0000
# 6 0.0000 0.0000 0.0000 0.0000 0.0000 37.6251
#
#
#
# Elastic Compliance Matrix: (Units=1/GPa)
#
#
# Indices 1 2 3 4 5 6 
#
# 1 0.013409 -0.004610 -0.005397 0.000000 0.000000 0.000000
# 2 -0.004610 0.014736 -0.006009 0.000000 0.000000 0.000000
# 3 -0.005397 -0.006009 0.038581 0.000000 0.000000 0.000000
# 4 0.000000 0.000000 0.000000 0.054191 0.000000 0.000000
# 5 0.000000 0.000000 0.000000 0.000000 0.049192 0.000000
# 6 0.000000 0.000000 0.000000 0.000000 0.000000 0.026578
#
#
# Mechanical properties :
#
#
# Convention : Reuss Voigt Hill
#
# Bulk Modulus (GPa) = 28.82485 40.60096 34.71290
# Shear Modulus (GPa) = 20.80879 24.51039 22.65959
#
# Velocity S-wave (km/s) = 3.18521 3.45692 3.32384
# Velocity P-wave (km/s) = 5.25179 5.97739 5.62630
#
# Compressibility (1/GPa) = 0.03469229
#
# Stress axis : x y z
#
# Youngs Moduli (GPa) = 74.57889 67.86166 25.91983
#
# Poissons Ratio (x) = 0.31284 0.13990
# Poissons Ratio (y) = 0.34380 0.15575
# Poissons Ratio (z) = 0.40253 0.40778
#
# Static dielectric constant tensor:
#      x y z
#    x 1.725880 0.000000 0.000000 
#    y 0.000000 1.728020 0.000000 
#    z 0.000000 0.000000 1.733470 
# 
# From -- ./inp_files/9716.got.cif
#   From: 2010.05.17/outbox.cif.g08.bks.cpg/sg42_5_cif.got.tgz:9716.got - 2010.06.03 19:03:34.
