data_PCOD9369546
_publ_section_title
;
Structure prediction by ZEFSAII (Michael W. Deem and Ramdas Pophale) SiO2 
 PCOD9369546
Probable space group: F M M 2
;
_chemical_formula_sum "Si O2"
_cell_formula_units_Z 96
_cell_length_a 17.730501
_cell_length_b 17.540930
_cell_length_c 15.395639
_cell_angle_alpha 90.000000
_cell_angle_beta 90.000000
_cell_angle_gamma 90.000000
_cell_volume 4788.189632
_symmetry_space_group_name_H-M "F M M 2"
_symmetry_group_IT_number 42
_symmetry_cell_setting 'orthorhombic'
loop_
_space_group_symop_operation_xyz
x,y,z
-x,-y,z
-x,y,z
x,-y,z
x,1/2+y,1/2+z
-x,1/2-y,1/2+z
-x,1/2+y,1/2+z
x,1/2-y,1/2+z
1/2+x,y,1/2+z
1/2-x,-y,1/2+z
1/2-x,y,1/2+z
1/2+x,-y,1/2+z
1/2+x,1/2+y,z
1/2-x,1/2-y,z
1/2-x,1/2+y,z
1/2+x,1/2-y,z
loop_
_atom_site_type_symbol
_atom_site_label
_atom_site_fract_x
_atom_site_fract_y
_atom_site_fract_z
Si Si1 0.135531 0.587578 0.159250
Si Si2 0.679230 0.808195 0.847636
Si Si3 0.588480 0.591515 0.016173
Si Si4 0.308649 0.411219 0.176862
Si Si5 0.911531 0.335844 0.336182
Si Si6 0.585846 0.908039 0.974170
O O1 0.112453 0.500000 0.173254
O O2 0.224300 0.589759 0.139101
O O3 0.123138 0.629719 0.249310
O O4 0.091860 0.616415 0.074982
O O5 0.750000 0.750000 0.862487
O O6 0.690624 0.857670 0.760871
O O7 0.608309 0.752364 0.836571
O O8 0.652377 0.865866 0.922539
O O9 0.500000 0.610880 0.026127
O O10 0.594652 0.500000 0.008448
O O11 0.617434 0.627925 0.926478
O O12 0.634402 0.614584 0.101569
O O13 0.326037 0.500000 0.200158
O O14 0.000000 0.351163 0.333532
O O15 0.500000 0.892330 0.942740
O O16 0.596606 0.000000 0.970655
#
# Coordination Sequence:
#
# PCOD9369546 Si02
#       6
#    16  16  16  16  16  16
#     4  10  21  39  66  95 124 163 209 262 315 368
#     4  12  25  42  60  93 130 172 206 256 318 385
#     4   9  20  39  64  93 125 165 212 263 315 370
#     4  10  22  41  65  93 123 161 214 263 310 372
#     4  11  23  40  62  93 130 166 206 255 314 379
#     4  10  23  44  69  95 124 166 220 270 316 372
#
# _framework density 20.049330999999999
#
# number of rings (size 3 to 8) (size 9 to 14) (size 15 to 20)
#    0.000    1.667    1.667    2.000    2.333    4.333 
#    0.000    3.333    0.000    0.000    0.000    0.000 
#    0.000    0.000    0.000    0.000    0.000    0.000 
#
# Total GULP energy -133955.296204 kJ/mol
# GULP energy per Si atom -5581.470675 kJ/mol
# Density = 2.000370 g / cm^3
# Si number density = 20.049331 Si / 1000 Ang^3
#
#
#
# Elastic Constant Matrix: (Units=GPa)
#
#
# Indices 1 2 3 4 5 6 
#
# 1 68.6723 31.3916 58.0854 0.0000 0.0000 0.0000
# 2 31.3916 56.1167 53.8138 0.0000 0.0000 0.0000
# 3 58.0854 53.8138 120.5162 0.0000 0.0000 0.0000
# 4 0.0000 0.0000 0.0000 -142.2780 0.0000 0.0000
# 5 0.0000 0.0000 0.0000 0.0000 32.4901 0.0000
# 6 0.0000 0.0000 0.0000 0.0000 0.0000 33.1990
#
#
#
# Elastic Compliance Matrix: (Units=1/GPa)
#
#
# Indices 1 2 3 4 5 6 
#
# 1 0.025158 -0.004277 -0.010216 0.000000 0.000000 0.000000
# 2 -0.004277 0.031892 -0.012179 0.000000 0.000000 0.000000
# 3 -0.010216 -0.012179 0.018660 0.000000 0.000000 0.000000
# 4 0.000000 0.000000 0.000000 -0.007028 0.000000 0.000000
# 5 0.000000 0.000000 0.000000 0.000000 0.030779 0.000000
# 6 0.000000 0.000000 0.000000 0.000000 0.000000 0.030121
#
#
# Mechanical properties :
#
#
# Convention : Reuss Voigt Hill
#
# Bulk Modulus (GPa) = 44.71102 59.09853 51.90478
# Shear Modulus (GPa) = 26.26336 -8.51680 8.87328
#
# Velocity S-wave (km/s) = 3.62323 -2.06328 2.10602
# Velocity P-wave (km/s) = 6.31290 4.88512 5.64433
#
# Compressibility (1/GPa) = 0.02236585
#
# Stress axis : x y z
#
# Youngs Moduli (GPa) = 39.74945 31.35583 53.59157
#
# Poissons Ratio (x) = 0.13410 0.54747
# Poissons Ratio (y) = 0.17000 0.65271
# Poissons Ratio (z) = 0.40606 0.38189
#
# Static dielectric constant tensor:
#      x y z
#    x 1.724890 0.000000 0.000000 
#    y 0.000000 1.731550 0.000000 
#    z 0.000000 0.000000 1.696450 
# 
# From -- ./inp_files/15825.got.cif
#   From: 2010.05.17/outbox.cif.g08.bks.cpg/sg42_8_cif.got.tgz:15825.got - 2010.06.03 19:03:34.
