data_PCOD9369166
_publ_section_title
;
Structure prediction by ZEFSAII (Michael W. Deem and Ramdas Pophale) SiO2 
 PCOD9369166
Probable space group: F M M 2
;
_chemical_formula_sum "Si O2"
_cell_formula_units_Z 96
_cell_length_a 24.195900
_cell_length_b 8.613917
_cell_length_c 25.908974
_cell_angle_alpha 90.000000
_cell_angle_beta 90.000000
_cell_angle_gamma 90.000000
_cell_volume 5399.986560
_symmetry_space_group_name_H-M "F M M 2"
_symmetry_group_IT_number 42
_symmetry_cell_setting 'orthorhombic'
loop_
_space_group_symop_operation_xyz
x,y,z
-x,-y,z
-x,y,z
x,-y,z
x,1/2+y,1/2+z
-x,1/2-y,1/2+z
-x,1/2+y,1/2+z
x,1/2-y,1/2+z
1/2+x,y,1/2+z
1/2-x,-y,1/2+z
1/2-x,y,1/2+z
1/2+x,-y,1/2+z
1/2+x,1/2+y,z
1/2-x,1/2-y,z
1/2-x,1/2+y,z
1/2+x,1/2-y,z
loop_
_atom_site_type_symbol
_atom_site_label
_atom_site_fract_x
_atom_site_fract_y
_atom_site_fract_z
Si Si1 0.380682 0.813281 0.951190
Si Si2 0.000000 0.311205 0.991247
Si Si3 0.000000 0.685609 0.110819
Si Si4 0.615365 0.813126 0.647722
Si Si5 0.189083 0.314679 0.357953
Si Si6 0.688063 0.813330 0.547951
Si Si7 0.810669 0.686909 0.743899
O O1 0.443601 0.763062 0.963174
O O2 0.355162 0.743952 0.899245
O O3 0.379098 0.000000 0.948519
O O4 0.343288 0.756731 0.998810
O O5 0.000000 0.500000 0.992231
O O6 0.000000 0.258461 0.050978
O O7 0.944819 0.743819 0.138493
O O8 0.000000 0.500000 0.109764
O O9 0.654267 0.769484 0.599420
O O10 0.645087 0.765848 0.700752
O O11 0.611021 0.000000 0.647936
O O12 0.191551 0.500000 0.357377
O O13 0.250000 0.250000 0.372145
O O14 0.176567 0.252234 0.300614
O O15 0.750000 0.750000 0.550571
O O16 0.688992 0.000000 0.543867
O O17 0.808314 0.500000 0.746258
O O18 0.750000 0.750000 0.729363
#
# Coordination Sequence:
#
# PCOD9369166 Si02
#       7
#    16   8   8  16  16  16  16
#     4  11  21  38  59  82 113 148 190 234 281 339
#     4   9  20  37  58  83 110 147 190 232 281 333
#     4  11  21  37  60  85 112 151 196 236 281 333
#     4  10  22  38  57  83 116 151 190 232 282 338
#     4  11  22  38  59  86 115 149 190 233 287 340
#     4  11  22  35  53  82 115 148 183 230 284 337
#     4  10  20  37  60  86 115 151 190 232 285 338
#
# _framework density 17.777820999999999
#
# number of rings (size 3 to 8) (size 9 to 14) (size 15 to 20)
#    0.000    1.500    1.667    5.250    0.000    2.000 
#    0.000    2.500    0.000    2.000    0.000    0.000 
#    0.000    0.000    0.000    0.000    0.000    0.000 
#
# Total GULP energy -134125.599531 kJ/mol
# GULP energy per Si atom -5588.566647 kJ/mol
# Density = 1.773736 g / cm^3
# Si number density = 17.777821 Si / 1000 Ang^3
#
#
#
# Elastic Constant Matrix: (Units=GPa)
#
#
# Indices 1 2 3 4 5 6 
#
# 1 193.9532 53.3019 114.6500 0.0000 0.0000 0.0000
# 2 53.3019 73.8402 48.1793 0.0000 0.0000 0.0000
# 3 114.6500 48.1793 134.1353 0.0000 0.0000 0.0000
# 4 0.0000 0.0000 0.0000 29.6067 0.0000 0.0000
# 5 0.0000 0.0000 0.0000 0.0000 12.3844 0.0000
# 6 0.0000 0.0000 0.0000 0.0000 0.0000 17.0640
#
#
#
# Elastic Compliance Matrix: (Units=1/GPa)
#
#
# Indices 1 2 3 4 5 6 
#
# 1 0.010711 -0.002297 -0.008330 0.000000 0.000000 0.000000
# 2 -0.002297 0.018181 -0.004567 0.000000 0.000000 0.000000
# 3 -0.008330 -0.004567 0.016216 0.000000 0.000000 0.000000
# 4 0.000000 0.000000 0.000000 0.033776 0.000000 0.000000
# 5 0.000000 0.000000 0.000000 0.000000 0.080747 0.000000
# 6 0.000000 0.000000 0.000000 0.000000 0.000000 0.058603
#
#
# Mechanical properties :
#
#
# Convention : Reuss Voigt Hill
#
# Bulk Modulus (GPa) = 67.93761 92.68789 80.31275
# Shear Modulus (GPa) = 19.72164 24.19752 21.95958
#
# Velocity S-wave (km/s) = 3.33429 3.69332 3.51839
# Velocity P-wave (km/s) = 7.28842 8.39270 7.85998
#
# Compressibility (1/GPa) = 0.01471939
#
# Stress axis : x y z
#
# Youngs Moduli (GPa) = 93.35912 55.00374 61.66773
#
# Poissons Ratio (x) = 0.12632 0.51372
# Poissons Ratio (y) = 0.21441 0.28165
# Poissons Ratio (z) = 0.77772 0.25121
#
# Static dielectric constant tensor:
#      x y z
#    x 1.582230 0.000000 0.000000 
#    y 0.000000 1.601830 0.000000 
#    z 0.000000 0.000000 1.589510 
# 
# From -- ./inp_files/30435.got.cif
#   From: 2010.05.17/outbox.cif.g08.bks.cpg/sg42_16_cif.got.tgz:30435.got - 2010.06.03 19:03:34.
