data_PCOD9369148
_publ_section_title
;
Structure prediction by ZEFSAII (Michael W. Deem and Ramdas Pophale) SiO2 
 PCOD9369148
Probable space group: F M M 2
;
_chemical_formula_sum "Si O2"
_cell_formula_units_Z 96
_cell_length_a 19.450208
_cell_length_b 15.235975
_cell_length_c 14.165644
_cell_angle_alpha 90.000000
_cell_angle_beta 90.000000
_cell_angle_gamma 90.000000
_cell_volume 4197.887780
_symmetry_space_group_name_H-M "F M M 2"
_symmetry_group_IT_number 42
_symmetry_cell_setting 'orthorhombic'
loop_
_space_group_symop_operation_xyz
x,y,z
-x,-y,z
-x,y,z
x,-y,z
x,1/2+y,1/2+z
-x,1/2-y,1/2+z
-x,1/2+y,1/2+z
x,1/2-y,1/2+z
1/2+x,y,1/2+z
1/2-x,-y,1/2+z
1/2-x,y,1/2+z
1/2+x,-y,1/2+z
1/2+x,1/2+y,z
1/2-x,1/2-y,z
1/2-x,1/2+y,z
1/2+x,1/2-y,z
loop_
_atom_site_type_symbol
_atom_site_label
_atom_site_fract_x
_atom_site_fract_y
_atom_site_fract_z
Si Si1 0.717272 0.097147 0.288010
Si Si2 0.421943 0.153212 0.198882
Si Si3 0.076826 0.773245 0.364850
Si Si4 0.130858 0.103617 0.957579
Si Si5 0.635374 0.599996 0.506685
Si Si6 0.770894 0.652897 0.601824
O O1 0.640102 0.096456 0.242322
O O2 0.698810 0.124576 0.393264
O O3 0.762663 0.149352 0.214423
O O4 0.746344 0.000000 0.291904
O O5 0.500000 0.123727 0.218767
O O6 0.412315 0.244585 0.255795
O O7 0.409537 0.149840 0.087253
O O8 0.080699 0.679334 0.420446
O O9 0.128838 0.841183 0.412994
O O10 0.000000 0.809508 0.374530
O O11 0.113245 0.000000 0.944993
O O12 0.156393 0.122042 0.062902
O O13 0.611534 0.500000 0.492378
O O14 0.710544 0.596029 0.554165
O O15 0.750000 0.750000 0.571787
#
# Coordination Sequence:
#
# PCOD9369148 Si02
#       6
#    16  16  16  16  16  16
#     4   9  19  33  52  81 110 140 187 237 284 343
#     4   9  18  33  55  82 114 148 186 236 288 338
#     4  10  21  37  57  88 121 152 193 242 296 350
#     4  10  20  37  57  80 115 154 189 236 292 347
#     4  11  22  38  61  90 119 154 200 247 295 350
#     4  11  20  35  56  80 113 153 190 240 291 345
#
# _framework density 22.868642999999999
#
# number of rings (size 3 to 8) (size 9 to 14) (size 15 to 20)
#    0.000    2.000    1.667    3.500    0.000    4.000 
#    3.000    5.000    0.000    1.000    0.000    2.333 
#    0.000    0.000    0.000    0.000    0.000    0.000 
#
# Total GULP energy -133809.895378 kJ/mol
# GULP energy per Si atom -5575.412307 kJ/mol
# Density = 2.281659 g / cm^3
# Si number density = 22.868643 Si / 1000 Ang^3
#
#
#
# Elastic Constant Matrix: (Units=GPa)
#
#
# Indices 1 2 3 4 5 6 
#
# 1 40.7210 -5.2732 8.2805 0.0000 0.0000 0.0000
# 2 -5.2732 99.9424 29.2608 0.0000 0.0000 0.0000
# 3 8.2805 29.2608 82.0689 0.0000 0.0000 0.0000
# 4 0.0000 0.0000 0.0000 12.9764 0.0000 0.0000
# 5 0.0000 0.0000 0.0000 0.0000 28.6927 0.0000
# 6 0.0000 0.0000 0.0000 0.0000 0.0000 10.4815
#
#
#
# Elastic Compliance Matrix: (Units=1/GPa)
#
#
# Indices 1 2 3 4 5 6 
#
# 1 0.025556 0.002348 -0.003416 0.000000 0.000000 0.000000
# 2 0.002348 0.011388 -0.004297 0.000000 0.000000 0.000000
# 3 -0.003416 -0.004297 0.014062 0.000000 0.000000 0.000000
# 4 0.000000 0.000000 0.000000 0.077063 0.000000 0.000000
# 5 0.000000 0.000000 0.000000 0.000000 0.034852 0.000000
# 6 0.000000 0.000000 0.000000 0.000000 0.000000 0.095406
#
#
# Mechanical properties :
#
#
# Convention : Reuss Voigt Hill
#
# Bulk Modulus (GPa) = 24.82842 31.91873 28.37357
# Shear Modulus (GPa) = 17.70029 23.12774 20.41402
#
# Velocity S-wave (km/s) = 2.78510 3.18359 2.99099
# Velocity P-wave (km/s) = 4.60683 5.24418 4.93580
#
# Compressibility (1/GPa) = 0.04027643
#
# Stress axis : x y z
#
# Youngs Moduli (GPa) = 39.12969 87.81348 71.11549
#
# Poissons Ratio (x) = -0.20623 0.24292
# Poissons Ratio (y) = -0.09189 0.30559
# Poissons Ratio (z) = 0.13366 0.37735
#
# Static dielectric constant tensor:
#      x y z
#    x 1.874720 0.000000 0.000000 
#    y 0.000000 1.807570 0.000000 
#    z 0.000000 0.000000 1.923910 
# 
# From -- ./inp_files/14007.got.cif
#   From: 2010.05.17/outbox.cif.g08.bks.cpg/sg42_8_cif.got.tgz:14007.got - 2010.06.03 19:03:34.
