data_PCOD9369229
_publ_section_title
;
Structure prediction by ZEFSAII (Michael W. Deem and Ramdas Pophale) SiO2 
 PCOD9369229
Probable space group: F M M 2
;
_chemical_formula_sum "Si O2"
_cell_formula_units_Z 112
_cell_length_a 24.954391
_cell_length_b 15.619899
_cell_length_c 13.405312
_cell_angle_alpha 90.000000
_cell_angle_beta 90.000000
_cell_angle_gamma 90.000000
_cell_volume 5225.190436
_symmetry_space_group_name_H-M "F M M 2"
_symmetry_group_IT_number 42
_symmetry_cell_setting 'orthorhombic'
loop_
_space_group_symop_operation_xyz
x,y,z
-x,-y,z
-x,y,z
x,-y,z
x,1/2+y,1/2+z
-x,1/2-y,1/2+z
-x,1/2+y,1/2+z
x,1/2-y,1/2+z
1/2+x,y,1/2+z
1/2-x,-y,1/2+z
1/2-x,y,1/2+z
1/2+x,-y,1/2+z
1/2+x,1/2+y,z
1/2-x,1/2-y,z
1/2-x,1/2+y,z
1/2+x,1/2-y,z
loop_
_atom_site_type_symbol
_atom_site_label
_atom_site_fract_x
_atom_site_fract_y
_atom_site_fract_z
Si Si1 0.160849 0.653849 0.934730
Si Si2 0.373316 0.341295 0.905287
Si Si3 0.597187 0.273909 0.695285
Si Si4 0.063987 0.402791 0.598866
Si Si5 0.788929 0.174842 0.625546
Si Si6 0.560177 0.097383 0.020552
Si Si7 0.741164 0.596429 0.823222
O O1 0.145244 0.751767 0.952014
O O2 0.103764 0.608068 0.932568
O O3 0.207784 0.651969 0.855434
O O4 0.189375 0.620619 0.034156
O O5 0.408067 0.313882 0.806864
O O6 0.405961 0.388582 0.992334
O O7 0.317341 0.385151 0.871263
O O8 0.579207 0.176598 0.672283
O O9 0.660774 0.279553 0.677617
O O10 0.571826 0.336551 0.611051
O O11 0.076661 0.500000 0.634543
O O12 0.000000 0.397681 0.583163
O O13 0.750000 0.250000 0.590501
O O14 0.763972 0.113455 0.706614
O O15 0.500000 0.112641 0.983931
O O16 0.563898 0.000000 0.058651
O O17 0.756037 0.500000 0.847241
#
# Coordination Sequence:
#
# PCOD9369229 Si02
#       7
#    16  16  16  16  16  16  16
#     4  11  22  39  66  92 129 173 219 269 333 402
#     4  11  22  41  66  95 125 177 225 278 337 412
#     4  10  22  39  66  92 132 173 220 280 345 403
#     4  11  24  43  66  97 136 178 230 289 349 412
#     4  10  20  38  61  86 121 167 211 260 325 400
#     4  10  21  39  64  93 128 172 225 278 331 394
#     4  11  23  37  58  95 134 165 213 274 334 402
#
# _framework density 21.434625
#
# number of rings (size 3 to 8) (size 9 to 14) (size 15 to 20)
#    0.000    1.429    2.857    4.286    0.000    7.429 
#    0.000    5.000    0.000    1.714    0.000    0.000 
#    0.000    0.000    0.000    0.000    0.000    0.000 
#
# Total GULP energy -156151.775325 kJ/mol
# GULP energy per Si atom -5576.849119 kJ/mol
# Density = 2.138584 g / cm^3
# Si number density = 21.434625 Si / 1000 Ang^3
#
#
#
# Elastic Constant Matrix: (Units=GPa)
#
#
# Indices 1 2 3 4 5 6 
#
# 1 83.6656 6.7748 4.1874 0.0000 0.0000 0.0000
# 2 6.7748 85.8421 -14.6160 0.0000 0.0000 0.0000
# 3 4.1874 -14.6160 42.4470 0.0000 0.0000 0.0000
# 4 0.0000 0.0000 0.0000 16.8018 0.0000 0.0000
# 5 0.0000 0.0000 0.0000 0.0000 -13.8564 0.0000
# 6 0.0000 0.0000 0.0000 0.0000 0.0000 19.5599
#
#
#
# Elastic Compliance Matrix: (Units=1/GPa)
#
#
# Indices 1 2 3 4 5 6 
#
# 1 0.012133 -0.001234 -0.001622 0.000000 0.000000 0.000000
# 2 -0.001234 0.012500 0.004426 0.000000 0.000000 0.000000
# 3 -0.001622 0.004426 0.025243 0.000000 0.000000 0.000000
# 4 0.000000 0.000000 0.000000 0.059518 0.000000 0.000000
# 5 0.000000 0.000000 0.000000 0.000000 -0.072169 0.000000
# 6 0.000000 0.000000 0.000000 0.000000 0.000000 0.051125
#
#
# Mechanical properties :
#
#
# Convention : Reuss Voigt Hill
#
# Bulk Modulus (GPa) = 18.86173 22.73859 20.80016
# Shear Modulus (GPa) = 48.59954 18.87496 33.73725
#
# Velocity S-wave (km/s) = 4.76682 2.97068 3.97162
# Velocity P-wave (km/s) = 6.25424 4.73265 5.54588
#
# Compressibility (1/GPa) = 0.05301739
#
# Stress axis : x y z
#
# Youngs Moduli (GPa) = 82.41705 79.99832 39.61527
#
# Poissons Ratio (x) = 0.09870 0.06425
# Poissons Ratio (y) = 0.10168 -0.17534
# Poissons Ratio (z) = 0.13366 -0.35407
#
# Static dielectric constant tensor:
#      x y z
#    x 1.811380 0.000000 0.000000 
#    y 0.000000 1.769210 0.000000 
#    z 0.000000 0.000000 1.834030 
# 
# From -- ./inp_files/16546.got.cif
#   From: 2010.05.17/outbox.cif.g08.bks.cpg/sg42_9_cif.got.tgz:16546.got - 2010.06.03 19:03:34.
