data_PCOD9369885
_publ_section_title
;
Structure prediction by ZEFSAII (Michael W. Deem and Ramdas Pophale) SiO2 
 PCOD9369885
Probable space group: F M M 2
;
_chemical_formula_sum "Si O2"
_cell_formula_units_Z 84
_cell_length_a 14.221081
_cell_length_b 13.049547
_cell_length_c 21.604464
_cell_angle_alpha 90.000000
_cell_angle_beta 90.000000
_cell_angle_gamma 90.000000
_cell_volume 4009.327585
_symmetry_space_group_name_H-M "F M M 2"
_symmetry_group_IT_number 42
_symmetry_cell_setting 'orthorhombic'
loop_
_space_group_symop_operation_xyz
x,y,z
-x,-y,z
-x,y,z
x,-y,z
x,1/2+y,1/2+z
-x,1/2-y,1/2+z
-x,1/2+y,1/2+z
x,1/2-y,1/2+z
1/2+x,y,1/2+z
1/2-x,-y,1/2+z
1/2-x,y,1/2+z
1/2+x,-y,1/2+z
1/2+x,1/2+y,z
1/2-x,1/2-y,z
1/2-x,1/2+y,z
1/2+x,1/2-y,z
loop_
_atom_site_type_symbol
_atom_site_label
_atom_site_fract_x
_atom_site_fract_y
_atom_site_fract_z
Si Si1 0.838250 0.696170 0.831700
Si Si2 0.500000 0.264779 0.040936
Si Si3 0.199373 0.000000 0.105162
Si Si4 0.618491 0.500000 0.246374
Si Si5 0.500000 0.500000 0.036370
Si Si6 0.500000 0.123596 0.922812
Si Si7 0.331066 0.678929 0.622474
Si Si8 0.608629 0.608676 0.752228
O O1 0.750000 0.750000 0.865944
O O2 0.846322 0.599298 0.784677
O O3 0.857511 0.791778 0.786703
O O4 0.911598 0.664105 0.883828
O O5 0.500000 0.380352 0.012131
O O6 0.407640 0.242039 0.083389
O O7 0.500000 0.177976 0.988803
O O8 0.167572 0.000000 0.178289
O O9 0.266455 0.095580 0.088052
O O10 0.098988 0.000000 0.072425
O O11 0.500000 0.500000 0.242481
O O12 0.500000 0.000000 0.926178
O O13 0.250000 0.750000 0.651084
O O14 0.381040 0.622685 0.679048
O O15 0.500000 0.603531 0.767744
O O16 0.652574 0.500000 0.771125
#
# Coordination Sequence:
#
# PCOD9369885 Si02
#       8
#    16   8   8   8   4   8  16  16
#     4  12  25  44  72 104 141 185 242 294 351 426
#     4  12  30  49  75 101 139 192 240 318 353 436
#     4  12  24  39  72 111 149 187 225 288 354 446
#     4  12  22  44  76 107 151 199 229 285 360 442
#     4  12  26  52  68 102 146 180 238 290 372 432
#     4  12  28  56  76  97 131 189 260 302 359 421
#     4  12  24  42  69 109 146 186 239 283 369 434
#     4  11  22  37  64 104 149 183 218 284 359 429
#
# _framework density 20.951143999999999
#
# number of rings (size 3 to 8) (size 9 to 14) (size 15 to 20)
#    0.000    0.190    7.143    2.857    2.667    0.762 
#    1.714    0.000    0.000    0.000    0.000    0.000 
#    0.000    0.000    0.000    0.000    0.000    0.000 
#
# Total GULP energy -116981.813137 kJ/mol
# GULP energy per Si atom -5570.562530 kJ/mol
# Density = 2.090346 g / cm^3
# Si number density = 20.951144 Si / 1000 Ang^3
#
#
#
# Elastic Constant Matrix: (Units=GPa)
#
#
# Indices 1 2 3 4 5 6 
#
# 1 114.1414 44.1575 16.7471 0.0000 0.0000 0.0000
# 2 44.1575 181.7638 25.3736 0.0000 0.0000 0.0000
# 3 16.7471 25.3736 51.1714 0.0000 0.0000 0.0000
# 4 0.0000 0.0000 0.0000 26.3234 0.0000 0.0000
# 5 0.0000 0.0000 0.0000 0.0000 19.7928 0.0000
# 6 0.0000 0.0000 0.0000 0.0000 0.0000 34.1490
#
#
#
# Elastic Compliance Matrix: (Units=1/GPa)
#
#
# Indices 1 2 3 4 5 6 
#
# 1 0.009895 -0.002097 -0.002199 0.000000 0.000000 0.000000
# 2 -0.002097 0.006355 -0.002465 0.000000 0.000000 0.000000
# 3 -0.002199 -0.002465 0.021484 0.000000 0.000000 0.000000
# 4 0.000000 0.000000 0.000000 0.037989 0.000000 0.000000
# 5 0.000000 0.000000 0.000000 0.000000 0.050523 0.000000
# 6 0.000000 0.000000 0.000000 0.000000 0.000000 0.029283
#
#
# Mechanical properties :
#
#
# Convention : Reuss Voigt Hill
#
# Bulk Modulus (GPa) = 41.29999 57.73697 49.51848
# Shear Modulus (GPa) = 28.22918 33.43961 30.83440
#
# Velocity S-wave (km/s) = 3.67465 3.99943 3.84047
# Velocity P-wave (km/s) = 6.14487 6.99607 6.58424
#
# Compressibility (1/GPa) = 0.02421308
#
# Stress axis : x y z
#
# Youngs Moduli (GPa) = 101.06238 157.35209 46.54634
#
# Poissons Ratio (x) = 0.32996 0.10234
# Poissons Ratio (y) = 0.21192 0.11474
# Poissons Ratio (z) = 0.22219 0.38787
#
# Static dielectric constant tensor:
#      x y z
#    x 1.844050 0.000000 0.000000 
#    y 0.000000 1.776250 0.000000 
#    z 0.000000 0.000000 1.706050 
# 
# From -- ./inp_files/28755.got.cif
#   From: 2010.05.17/outbox.cif.g08.bks.cpg/sg42_15_cif.got.tgz:28755.got - 2010.06.03 19:03:34.
