data_PCOD9369545
_publ_section_title
;
Structure prediction by ZEFSAII (Michael W. Deem and Ramdas Pophale) SiO2 
 PCOD9369545
Probable space group: F M M 2
;
_chemical_formula_sum "Si O2"
_cell_formula_units_Z 80
_cell_length_a 22.782896
_cell_length_b 17.742938
_cell_length_c 9.597942
_cell_angle_alpha 90.000000
_cell_angle_beta 90.000000
_cell_angle_gamma 90.000000
_cell_volume 3879.828991
_symmetry_space_group_name_H-M "F M M 2"
_symmetry_group_IT_number 42
_symmetry_cell_setting 'orthorhombic'
loop_
_space_group_symop_operation_xyz
x,y,z
-x,-y,z
-x,y,z
x,-y,z
x,1/2+y,1/2+z
-x,1/2-y,1/2+z
-x,1/2+y,1/2+z
x,1/2-y,1/2+z
1/2+x,y,1/2+z
1/2-x,-y,1/2+z
1/2-x,y,1/2+z
1/2+x,-y,1/2+z
1/2+x,1/2+y,z
1/2-x,1/2-y,z
1/2-x,1/2+y,z
1/2+x,1/2-y,z
loop_
_atom_site_type_symbol
_atom_site_label
_atom_site_fract_x
_atom_site_fract_y
_atom_site_fract_z
Si Si1 0.687791 0.652298 0.837640
Si Si2 0.567477 0.704991 0.146033
Si Si3 0.137217 0.803755 0.427232
Si Si4 0.226730 0.911358 0.556228
Si Si5 0.565843 0.589576 0.898999
O O1 0.682899 0.739463 0.877501
O O2 0.724942 0.633445 0.701325
O O3 0.621072 0.622682 0.815690
O O4 0.715811 0.607888 0.967102
O O5 0.500000 0.728621 0.158604
O O6 0.593878 0.688505 0.296975
O O7 0.604065 0.767073 0.059369
O O8 0.569616 0.631040 0.048078
O O9 0.171971 0.878188 0.469087
O O10 0.221900 0.000000 0.581838
O O11 0.500000 0.606576 0.843322
O O12 0.571396 0.500000 0.909833
#
# Coordination Sequence:
#
# PCOD9369545 Si02
#       5
#    16  16  16  16  16
#     4  11  25  44  66  94 131 175 221 263 325 394
#     4  10  21  39  65  94 126 172 222 269 325 387
#     4  11  23  42  65  95 130 172 218 275 317 393
#     4  12  26  43  65  97 135 173 215 271 331 387
#     4   9  19  38  65  95 129 169 217 271 327 388
#
# _framework density 20.619465000000002
#
# number of rings (size 3 to 8) (size 9 to 14) (size 15 to 20)
#    0.000    1.400    2.000    3.000    5.600    3.200 
#    0.000    0.000    0.000    3.000    0.000    0.000 
#    0.000    0.000    0.000    0.000    0.000    0.000 
#
# Total GULP energy -111830.170970 kJ/mol
# GULP energy per Si atom -5591.508548 kJ/mol
# Density = 2.057253 g / cm^3
# Si number density = 20.619465 Si / 1000 Ang^3
#
#
#
# Elastic Constant Matrix: (Units=GPa)
#
#
# Indices 1 2 3 4 5 6 
#
# 1 93.1359 1.5242 30.0286 0.0000 0.0000 0.0000
# 2 1.5242 49.0730 10.4989 0.0000 0.0000 0.0000
# 3 30.0286 10.4989 99.3698 0.0000 0.0000 0.0000
# 4 0.0000 0.0000 0.0000 18.5905 0.0000 0.0000
# 5 0.0000 0.0000 0.0000 0.0000 34.4179 0.0000
# 6 0.0000 0.0000 0.0000 0.0000 0.0000 29.0864
#
#
#
# Elastic Compliance Matrix: (Units=1/GPa)
#
#
# Indices 1 2 3 4 5 6 
#
# 1 0.011904 0.000409 -0.003641 0.000000 0.000000 0.000000
# 2 0.000409 0.020863 -0.002328 0.000000 0.000000 0.000000
# 3 -0.003641 -0.002328 0.011410 0.000000 0.000000 0.000000
# 4 0.000000 0.000000 0.000000 0.053791 0.000000 0.000000
# 5 0.000000 0.000000 0.000000 0.000000 0.029055 0.000000
# 6 0.000000 0.000000 0.000000 0.000000 0.000000 0.034380
#
#
# Mechanical properties :
#
#
# Convention : Reuss Voigt Hill
#
# Bulk Modulus (GPa) = 30.24981 36.18692 33.21837
# Shear Modulus (GPa) = 27.24195 29.72078 28.48137
#
# Velocity S-wave (km/s) = 3.63874 3.80069 3.72060
# Velocity P-wave (km/s) = 5.68826 6.07028 5.88237
#
# Compressibility (1/GPa) = 0.03305805
#
# Stress axis : x y z
#
# Youngs Moduli (GPa) = 84.00488 47.93145 87.64620
#
# Poissons Ratio (x) = -0.01961 0.31908
# Poissons Ratio (y) = -0.03437 0.20403
# Poissons Ratio (z) = 0.30582 0.11158
#
# Static dielectric constant tensor:
#      x y z
#    x 1.773000 0.000000 0.000000 
#    y 0.000000 1.700940 0.000000 
#    z 0.000000 0.000000 1.714520 
# 
# From -- ./inp_files/3498.got.cif
#   From: 2010.05.17/outbox.cif.g08.bks.cpg/sg42_2_cif.got.tgz:3498.got - 2010.06.03 19:03:34.
