data_PCOD9369559
_publ_section_title
;
Structure prediction by ZEFSAII (Michael W. Deem and Ramdas Pophale) SiO2 
 PCOD9369559
Probable space group: F M M 2
;
_chemical_formula_sum "Si O2"
_cell_formula_units_Z 100
_cell_length_a 23.139264
_cell_length_b 15.880911
_cell_length_c 14.286395
_cell_angle_alpha 90.000000
_cell_angle_beta 90.000000
_cell_angle_gamma 90.000000
_cell_volume 5249.858604
_symmetry_space_group_name_H-M "F M M 2"
_symmetry_group_IT_number 42
_symmetry_cell_setting 'orthorhombic'
loop_
_space_group_symop_operation_xyz
x,y,z
-x,-y,z
-x,y,z
x,-y,z
x,1/2+y,1/2+z
-x,1/2-y,1/2+z
-x,1/2+y,1/2+z
x,1/2-y,1/2+z
1/2+x,y,1/2+z
1/2-x,-y,1/2+z
1/2-x,y,1/2+z
1/2+x,-y,1/2+z
1/2+x,1/2+y,z
1/2-x,1/2-y,z
1/2-x,1/2+y,z
1/2+x,1/2-y,z
loop_
_atom_site_type_symbol
_atom_site_label
_atom_site_fract_x
_atom_site_fract_y
_atom_site_fract_z
Si Si1 0.707774 0.898534 0.574650
Si Si2 0.431702 0.746532 0.780758
Si Si3 0.500000 0.000000 0.462538
Si Si4 0.092433 0.846662 0.969061
Si Si5 0.174823 0.899769 0.483562
Si Si6 0.848085 0.400037 0.770390
Si Si7 0.564189 0.683489 0.577052
O O1 0.655225 0.868157 0.510000
O O2 0.769393 0.865855 0.538613
O O3 0.692704 0.878697 0.682454
O O4 0.709259 0.000000 0.567805
O O5 0.500000 0.756466 0.798661
O O6 0.404395 0.698862 0.868772
O O7 0.402369 0.837218 0.766038
O O8 0.424879 0.690459 0.687661
O O9 0.449241 0.073528 0.462769
O O10 0.065191 0.778599 0.039327
O O11 0.179864 0.885752 0.372232
O O12 0.115493 0.862342 0.523037
O O13 0.172183 0.000000 0.497527
O O14 0.863271 0.500000 0.763471
O O15 0.500000 0.647311 0.560352
#
# Coordination Sequence:
#
# PCOD9369559 Si02
#       7
#    16  16   4  16  16  16  16
#     4  10  22  41  65  95 126 167 217 267 318 382
#     4  11  23  40  60  94 130 164 212 270 322 374
#     4  12  24  40  68  96 122 182 214 256 332 380
#     4  12  22  41  65  91 131 167 210 269 318 381
#     4  10  23  43  65  91 130 171 209 262 323 386
#     4  10  21  40  64  91 125 165 216 266 320 384
#     4  11  23  41  63  92 130 166 212 266 316 382
#
# _framework density 19.048131000000001
#
# number of rings (size 3 to 8) (size 9 to 14) (size 15 to 20)
#    0.000    1.280    5.600    0.000    0.000    2.560 
#    1.440    4.800    0.000    0.000    0.000    0.000 
#    0.000    0.000    0.000    0.000    0.000    0.000 
#
# Total GULP energy -139311.230868 kJ/mol
# GULP energy per Si atom -5572.449235 kJ/mol
# Density = 1.900478 g / cm^3
# Si number density = 19.048131 Si / 1000 Ang^3
#
#
#
# Elastic Constant Matrix: (Units=GPa)
#
#
# Indices 1 2 3 4 5 6 
#
# 1 153.0370 46.8216 80.0121 0.0000 0.0000 0.0000
# 2 46.8216 50.8898 43.2150 0.0000 0.0000 0.0000
# 3 80.0121 43.2150 145.7387 0.0000 0.0000 0.0000
# 4 0.0000 0.0000 0.0000 19.4940 0.0000 0.0000
# 5 0.0000 0.0000 0.0000 0.0000 12.0526 0.0000
# 6 0.0000 0.0000 0.0000 0.0000 0.0000 21.4495
#
#
#
# Elastic Compliance Matrix: (Units=1/GPa)
#
#
# Indices 1 2 3 4 5 6 
#
# 1 0.010515 -0.006378 -0.003882 0.000000 0.000000 0.000000
# 2 -0.006378 0.030133 -0.005433 0.000000 0.000000 0.000000
# 3 -0.003882 -0.005433 0.010604 0.000000 0.000000 0.000000
# 4 0.000000 0.000000 0.000000 0.051298 0.000000 0.000000
# 5 0.000000 0.000000 0.000000 0.000000 0.082969 0.000000
# 6 0.000000 0.000000 0.000000 0.000000 0.000000 0.046621
#
#
# Mechanical properties :
#
#
# Convention : Reuss Voigt Hill
#
# Bulk Modulus (GPa) = 50.33955 76.64033 63.48994
# Shear Modulus (GPa) = 18.50834 22.57368 20.54101
#
# Velocity S-wave (km/s) = 3.12053 3.44624 3.28742
# Velocity P-wave (km/s) = 6.28240 7.49386 6.91471
#
# Compressibility (1/GPa) = 0.01986510
#
# Stress axis : x y z
#
# Youngs Moduli (GPa) = 95.09959 33.18654 94.30637
#
# Poissons Ratio (x) = 0.21168 0.36606
# Poissons Ratio (y) = 0.60659 0.51239
# Poissons Ratio (z) = 0.36914 0.18031
#
# Static dielectric constant tensor:
#      x y z
#    x 1.651840 0.000000 0.000000 
#    y 0.000000 1.655190 0.000000 
#    z 0.000000 0.000000 1.673380 
# 
# From -- ./inp_files/15215.got.cif
#   From: 2010.05.17/outbox.cif.g08.bks.cpg/sg42_8_cif.got.tgz:15215.got - 2010.06.03 19:03:34.
