data_PCOD9369318
_publ_section_title
;
Structure prediction by ZEFSAII (Michael W. Deem and Ramdas Pophale) SiO2 
 PCOD9369318
Probable space group: F M M 2
;
_chemical_formula_sum "Si O2"
_cell_formula_units_Z 112
_cell_length_a 19.336572
_cell_length_b 26.563756
_cell_length_c 11.988316
_cell_angle_alpha 90.000000
_cell_angle_beta 90.000000
_cell_angle_gamma 90.000000
_cell_volume 6157.822256
_symmetry_space_group_name_H-M "F M M 2"
_symmetry_group_IT_number 42
_symmetry_cell_setting 'orthorhombic'
loop_
_space_group_symop_operation_xyz
x,y,z
-x,-y,z
-x,y,z
x,-y,z
x,1/2+y,1/2+z
-x,1/2-y,1/2+z
-x,1/2+y,1/2+z
x,1/2-y,1/2+z
1/2+x,y,1/2+z
1/2-x,-y,1/2+z
1/2-x,y,1/2+z
1/2+x,-y,1/2+z
1/2+x,1/2+y,z
1/2-x,1/2-y,z
1/2-x,1/2+y,z
1/2+x,1/2-y,z
loop_
_atom_site_type_symbol
_atom_site_label
_atom_site_fract_x
_atom_site_fract_y
_atom_site_fract_z
Si Si1 0.583187 0.558141 0.695040
Si Si2 0.625657 0.200065 0.321005
Si Si3 0.080137 0.187077 0.372990
Si Si4 0.790402 0.300816 0.529495
Si Si5 0.077288 0.098686 0.924404
Si Si6 0.417676 0.845132 0.631591
Si Si7 0.840629 0.349828 0.089394
O O1 0.500000 0.570318 0.691230
O O2 0.590943 0.500000 0.664414
O O3 0.608837 0.566773 0.823371
O O4 0.626165 0.596342 0.618638
O O5 0.595012 0.255340 0.337153
O O6 0.694608 0.196799 0.397416
O O7 0.578967 0.155411 0.373101
O O8 0.639468 0.185056 0.194566
O O9 0.092466 0.152593 0.263787
O O10 0.126959 0.171770 0.476268
O O11 0.000000 0.182692 0.405145
O O12 0.750000 0.250000 0.555550
O O13 0.865243 0.302631 0.587275
O O14 0.741761 0.345742 0.572437
O O15 0.000000 0.078940 0.936235
O O16 0.102167 0.107961 0.050842
O O17 0.500000 0.834881 0.614068
#
# Coordination Sequence:
#
# PCOD9369318 Si02
#       7
#    16  16  16  16  16  16  16
#     4   9  18  36  63  91 119 153 199 253 304 355
#     4  10  21  34  47  74 111 156 200 235 283 347
#     4  11  22  34  52  82 119 161 202 240 291 356
#     4  11  21  36  53  77 114 158 202 244 296 349
#     4   8  15  31  53  79 107 142 185 238 289 333
#     4   9  20  36  55  79 113 154 198 241 287 347
#     4  11  23  36  56  83 120 158 196 253 296 357
#
# _framework density 18.188248000000002
#
# number of rings (size 3 to 8) (size 9 to 14) (size 15 to 20)
#    0.000    2.143    1.429    1.714    4.000    2.857 
#    0.000    0.000    0.000    8.571    0.000    4.000 
#    0.000    0.000    0.000    0.000    0.000    0.000 
#
# Total GULP energy -155905.702433 kJ/mol
# GULP energy per Si atom -5568.060801 kJ/mol
# Density = 1.814685 g / cm^3
# Si number density = 18.188248 Si / 1000 Ang^3
#
#
#
# Elastic Constant Matrix: (Units=GPa)
#
#
# Indices 1 2 3 4 5 6 
#
# 1 74.2174 22.6578 35.1031 0.0000 0.0000 0.0000
# 2 22.6578 65.9180 14.1116 0.0000 0.0000 0.0000
# 3 35.1031 14.1116 102.7068 0.0000 0.0000 0.0000
# 4 0.0000 0.0000 0.0000 15.1282 0.0000 0.0000
# 5 0.0000 0.0000 0.0000 0.0000 28.0501 0.0000
# 6 0.0000 0.0000 0.0000 0.0000 0.0000 11.9474
#
#
#
# Elastic Compliance Matrix: (Units=1/GPa)
#
#
# Indices 1 2 3 4 5 6 
#
# 1 0.017468 -0.004869 -0.005301 0.000000 0.000000 0.000000
# 2 -0.004869 0.016987 -0.000670 0.000000 0.000000 0.000000
# 3 -0.005301 -0.000670 0.011640 0.000000 0.000000 0.000000
# 4 0.000000 0.000000 0.000000 0.066102 0.000000 0.000000
# 5 0.000000 0.000000 0.000000 0.000000 0.035650 0.000000
# 6 0.000000 0.000000 0.000000 0.000000 0.000000 0.083701
#
#
# Mechanical properties :
#
#
# Convention : Reuss Voigt Hill
#
# Bulk Modulus (GPa) = 40.95820 42.95412 41.95616
# Shear Modulus (GPa) = 19.13020 22.42313 20.77666
#
# Velocity S-wave (km/s) = 3.24665 3.51499 3.38348
# Velocity P-wave (km/s) = 6.05163 6.33571 6.19530
#
# Compressibility (1/GPa) = 0.02441513
#
# Stress axis : x y z
#
# Youngs Moduli (GPa) = 57.24834 58.86693 85.90853
#
# Poissons Ratio (x) = 0.28664 0.45541
# Poissons Ratio (y) = 0.27876 0.05754
# Poissons Ratio (z) = 0.30348 0.03943
#
# Static dielectric constant tensor:
#      x y z
#    x 1.661290 0.000000 0.000000 
#    y 0.000000 1.623890 0.000000 
#    z 0.000000 0.000000 1.676500 
# 
# From -- ./inp_files/9781.got.cif
#   From: 2010.05.17/outbox.cif.g08.bks.cpg/sg42_5_cif.got.tgz:9781.got - 2010.06.03 19:03:34.
