data_PCOD9369816
_publ_section_title
;
Structure prediction by ZEFSAII (Michael W. Deem and Ramdas Pophale) SiO2 
 PCOD9369816
Probable space group: F M M 2
;
_chemical_formula_sum "Si O2"
_cell_formula_units_Z 64
_cell_length_a 10.435744
_cell_length_b 31.048054
_cell_length_c 9.125729
_cell_angle_alpha 90.000000
_cell_angle_beta 90.000000
_cell_angle_gamma 90.000000
_cell_volume 2956.823285
_symmetry_space_group_name_H-M "F M M 2"
_symmetry_group_IT_number 42
_symmetry_cell_setting 'orthorhombic'
loop_
_space_group_symop_operation_xyz
x,y,z
-x,-y,z
-x,y,z
x,-y,z
x,1/2+y,1/2+z
-x,1/2-y,1/2+z
-x,1/2+y,1/2+z
x,1/2-y,1/2+z
1/2+x,y,1/2+z
1/2-x,-y,1/2+z
1/2-x,y,1/2+z
1/2+x,-y,1/2+z
1/2+x,1/2+y,z
1/2-x,1/2-y,z
1/2-x,1/2+y,z
1/2+x,1/2-y,z
loop_
_atom_site_type_symbol
_atom_site_label
_atom_site_fract_x
_atom_site_fract_y
_atom_site_fract_z
Si Si1 0.000000 0.048637 0.269290
Si Si2 0.000000 0.946464 0.602490
Si Si3 0.223385 0.405342 0.638038
Si Si4 0.641610 0.786011 0.146498
Si Si5 0.252793 0.343601 0.386478
O O1 0.875973 0.058009 0.174231
O O2 0.000000 0.068792 0.431355
O O3 0.000000 0.000000 0.311729
O O4 0.867815 0.923920 0.658494
O O5 0.000000 0.000000 0.622351
O O6 0.202856 0.383890 0.480498
O O7 0.182063 0.367139 0.749500
O O8 0.500000 0.767240 0.137104
O O9 0.750000 0.750000 0.146096
O O10 0.666084 0.683371 0.505096
O O11 0.656215 0.812512 0.298659
#
# Coordination Sequence:
#
# PCOD9369816 Si02
#       5
#     8   8  16  16  16
#     4  11  24  43  69 101 138 181 229 281 337 401
#     4  11  24  45  67  99 146 181 221 291 345 389
#     4  11  23  44  69 102 135 182 229 276 338 399
#     4  11  26  48  70 101 137 177 222 278 345 406
#     4  10  25  41  70  98 137 175 221 279 332 399
#
# _framework density 21.644850000000002
#
# number of rings (size 3 to 8) (size 9 to 14) (size 15 to 20)
#    0.000    1.250    2.500    1.500   10.500    4.000 
#    4.500    1.250    0.000    0.000    0.000    0.000 
#    0.000    0.000    0.000    0.000    0.000    0.000 
#
# Total GULP energy -89141.472907 kJ/mol
# GULP energy per Si atom -5571.342057 kJ/mol
# Density = 2.159559 g / cm^3
# Si number density = 21.644850 Si / 1000 Ang^3
#
#
#
# Elastic Constant Matrix: (Units=GPa)
#
#
# Indices 1 2 3 4 5 6 
#
# 1 165.2686 43.8795 34.4588 0.0000 0.0000 0.0000
# 2 43.8795 62.6315 12.4462 0.0000 0.0000 0.0000
# 3 34.4588 12.4462 105.0119 0.0000 0.0000 0.0000
# 4 0.0000 0.0000 0.0000 26.1756 0.0000 0.0000
# 5 0.0000 0.0000 0.0000 0.0000 11.3117 0.0000
# 6 0.0000 0.0000 0.0000 0.0000 0.0000 27.6204
#
#
#
# Elastic Compliance Matrix: (Units=1/GPa)
#
#
# Indices 1 2 3 4 5 6 
#
# 1 0.007808 -0.005081 -0.001960 0.000000 0.000000 0.000000
# 2 -0.005081 0.019658 -0.000663 0.000000 0.000000 0.000000
# 3 -0.001960 -0.000663 0.010244 0.000000 0.000000 0.000000
# 4 0.000000 0.000000 0.000000 0.038204 0.000000 0.000000
# 5 0.000000 0.000000 0.000000 0.000000 0.088404 0.000000
# 6 0.000000 0.000000 0.000000 0.000000 0.000000 0.036205
#
#
# Mechanical properties :
#
#
# Convention : Reuss Voigt Hill
#
# Bulk Modulus (GPa) = 44.83633 57.16455 51.00044
# Shear Modulus (GPa) = 22.38481 29.16336 25.77408
#
# Velocity S-wave (km/s) = 3.21937 3.67462 3.45450
# Velocity P-wave (km/s) = 5.88036 6.66868 6.28689
#
# Compressibility (1/GPa) = 0.02230334
#
# Stress axis : x y z
#
# Youngs Moduli (GPa) = 128.06574 50.87014 97.61396
#
# Poissons Ratio (x) = 0.25848 0.19133
# Poissons Ratio (y) = 0.65072 0.06468
# Poissons Ratio (z) = 0.25102 0.03370
#
# Static dielectric constant tensor:
#      x y z
#    x 1.792030 0.000000 0.000000 
#    y 0.000000 1.838710 0.000000 
#    z 0.000000 0.000000 1.808060 
# 
# From -- ./inp_files/2242.got.cif
#   From: 2010.05.17/outbox.cif.g08.bks.cpg/sg42_2_cif.got.tgz:2242.got - 2010.06.03 19:03:34.
