data_PCOD9369664
_publ_section_title
;
Structure prediction by ZEFSAII (Michael W. Deem and Ramdas Pophale) SiO2 
 PCOD9369664
Probable space group: F M M 2
;
_chemical_formula_sum "Si O2"
_cell_formula_units_Z 80
_cell_length_a 8.645414
_cell_length_b 29.733414
_cell_length_c 15.933338
_cell_angle_alpha 90.000000
_cell_angle_beta 90.000000
_cell_angle_gamma 90.000000
_cell_volume 4095.786800
_symmetry_space_group_name_H-M "F M M 2"
_symmetry_group_IT_number 42
_symmetry_cell_setting 'orthorhombic'
loop_
_space_group_symop_operation_xyz
x,y,z
-x,-y,z
-x,y,z
x,-y,z
x,1/2+y,1/2+z
-x,1/2-y,1/2+z
-x,1/2+y,1/2+z
x,1/2-y,1/2+z
1/2+x,y,1/2+z
1/2-x,-y,1/2+z
1/2-x,y,1/2+z
1/2+x,-y,1/2+z
1/2+x,1/2+y,z
1/2-x,1/2-y,z
1/2-x,1/2+y,z
1/2+x,1/2-y,z
loop_
_atom_site_type_symbol
_atom_site_label
_atom_site_fract_x
_atom_site_fract_y
_atom_site_fract_z
Si Si1 0.315187 0.702484 0.214240
Si Si2 0.684707 0.109177 0.154642
Si Si3 0.813769 0.111200 0.467640
Si Si4 0.313076 0.051785 0.808316
Si Si5 0.184365 0.796883 0.903786
O O1 0.500000 0.703213 0.213523
O O2 0.250000 0.750000 0.181872
O O3 0.252418 0.659127 0.166393
O O4 0.256152 0.698182 0.310408
O O5 0.500000 0.111345 0.163835
O O6 0.751824 0.077622 0.226945
O O7 0.721676 0.093160 0.060415
O O8 0.764828 0.078530 0.392160
O O9 0.736009 0.159553 0.454721
O O10 0.000000 0.117009 0.462014
O O11 0.500000 0.052529 0.806182
O O12 0.262213 0.000000 0.809985
O O13 0.250000 0.750000 0.938920
O O14 0.000000 0.794274 0.897218
#
# Coordination Sequence:
#
# PCOD9369664 Si02
#       5
#    16  16  16  16  16
#     4  11  21  36  59  87 123 164 205 248 300 356
#     4  11  23  39  62  93 124 159 205 252 301 358
#     4  10  22  40  62  89 124 162 202 247 301 362
#     4  10  22  42  66  89 118 159 202 251 311 366
#     4  11  21  35  59  89 123 162 205 247 296 355
#
# _framework density 19.532267000000001
#
# number of rings (size 3 to 8) (size 9 to 14) (size 15 to 20)
#    0.000    1.400    2.000    5.400    0.000    3.600 
#    0.000    2.000    0.000    0.000    0.000    0.000 
#    0.000    0.000    0.000    0.000    0.000    0.000 
#
# Total GULP energy -111815.216715 kJ/mol
# GULP energy per Si atom -5590.760836 kJ/mol
# Density = 1.948781 g / cm^3
# Si number density = 19.532267 Si / 1000 Ang^3
#
#
#
# Elastic Constant Matrix: (Units=GPa)
#
#
# Indices 1 2 3 4 5 6 
#
# 1 57.7929 41.5263 45.0899 0.0000 0.0000 0.0000
# 2 41.5263 153.9945 85.6833 0.0000 0.0000 0.0000
# 3 45.0899 85.6833 141.0124 0.0000 0.0000 0.0000
# 4 0.0000 0.0000 0.0000 -4.5786 0.0000 0.0000
# 5 0.0000 0.0000 0.0000 0.0000 21.7931 0.0000
# 6 0.0000 0.0000 0.0000 0.0000 0.0000 26.9555
#
#
#
# Elastic Compliance Matrix: (Units=1/GPa)
#
#
# Indices 1 2 3 4 5 6 
#
# 1 0.024145 -0.003347 -0.005687 0.000000 0.000000 0.000000
# 2 -0.003347 0.010274 -0.005173 0.000000 0.000000 0.000000
# 3 -0.005687 -0.005173 0.012053 0.000000 0.000000 0.000000
# 4 0.000000 0.000000 0.000000 -0.218409 0.000000 0.000000
# 5 0.000000 0.000000 0.000000 0.000000 0.045886 0.000000
# 6 0.000000 0.000000 0.000000 0.000000 0.000000 0.037098
#
#
# Mechanical properties :
#
#
# Convention : Reuss Voigt Hill
#
# Bulk Modulus (GPa) = 55.37289 77.48877 66.43083
# Shear Modulus (GPa) = -91.71065 20.86735 -35.42165
#
# Velocity S-wave (km/s) = -6.85969 3.27211 -4.26313
# Velocity P-wave (km/s) = 5.85914 7.35078 3.13883
#
# Compressibility (1/GPa) = 0.01805938
#
# Stress axis : x y z
#
# Youngs Moduli (GPa) = 41.41674 97.32877 82.96498
#
# Poissons Ratio (x) = 0.32573 0.47182
# Poissons Ratio (y) = 0.13861 0.42917
# Poissons Ratio (z) = 0.23554 0.50348
#
# Static dielectric constant tensor:
#      x y z
#    x 1.656450 0.000000 0.000000 
#    y 0.000000 1.663350 0.000000 
#    z 0.000000 0.000000 1.699660 
# 
# From -- ./inp_files/18210.got.cif
#   From: 2010.05.17/outbox.cif.g08.bks.cpg/sg42_10_cif.got.tgz:18210.got - 2010.06.03 19:03:34.
