data_PCOD9369484
_publ_section_title
;
Structure prediction by ZEFSAII (Michael W. Deem and Ramdas Pophale) SiO2 
 PCOD9369484
Probable space group: F M M 2
;
_chemical_formula_sum "Si O2"
_cell_formula_units_Z 88
_cell_length_a 21.498336
_cell_length_b 19.083870
_cell_length_c 8.300458
_cell_angle_alpha 90.000000
_cell_angle_beta 90.000000
_cell_angle_gamma 90.000000
_cell_volume 3405.440935
_symmetry_space_group_name_H-M "F M M 2"
_symmetry_group_IT_number 42
_symmetry_cell_setting 'orthorhombic'
loop_
_space_group_symop_operation_xyz
x,y,z
-x,-y,z
-x,y,z
x,-y,z
x,1/2+y,1/2+z
-x,1/2-y,1/2+z
-x,1/2+y,1/2+z
x,1/2-y,1/2+z
1/2+x,y,1/2+z
1/2-x,-y,1/2+z
1/2-x,y,1/2+z
1/2+x,-y,1/2+z
1/2+x,1/2+y,z
1/2-x,1/2-y,z
1/2-x,1/2+y,z
1/2+x,1/2-y,z
loop_
_atom_site_type_symbol
_atom_site_label
_atom_site_fract_x
_atom_site_fract_y
_atom_site_fract_z
Si Si1 0.857775 0.000000 0.984441
Si Si2 0.869439 0.221462 0.950526
Si Si3 0.704194 0.316557 0.261601
Si Si4 0.500000 0.372360 0.406289
Si Si5 0.207144 0.500000 0.994939
Si Si6 0.500000 0.759103 0.607942
Si Si7 0.410406 0.500000 0.314821
Si Si8 0.672677 0.112280 0.246799
O O1 0.865527 0.066941 0.873182
O O2 0.781687 0.000000 0.007152
O O3 0.909049 0.000000 0.122169
O O4 0.842791 0.298402 0.905979
O O5 0.937810 0.219235 0.015514
O O6 0.861721 0.185796 0.773944
O O7 0.827385 0.182735 0.086078
O O8 0.750000 0.250000 0.258040
O O9 0.754137 0.376884 0.293228
O O10 0.500000 0.326970 0.574203
O O11 0.443306 0.428809 0.380284
O O12 0.500000 0.309125 0.269950
O O13 0.179940 0.567008 0.089826
O O14 0.164306 0.500000 0.838158
#
# Coordination Sequence:
#
# PCOD9369484 Si02
#       8
#     8  16  16   8   8   8   8  16
#     4  11  22  38  66  97 132 174 227 284 340 425
#     4  11  23  40  63  93 136 179 226 288 353 419
#     4  10  21  38  61  91 129 173 216 270 347 416
#     4  11  28  50  76 101 140 192 244 297 352 420
#     4  11  24  38  64  99 130 172 229 284 340 421
#     4  12  26  44  70 106 134 178 240 298 344 402
#     4  11  26  52  74 100 144 197 236 284 366 437
#     4  10  22  40  62  96 133 175 224 281 352 419
#
# _framework density 25.840999
#
# number of rings (size 3 to 8) (size 9 to 14) (size 15 to 20)
#    0.000    1.273    0.000    6.000    0.000   10.182 
#    0.000    0.909    0.000    3.273    0.000    0.000 
#    0.000    0.000    0.000    0.000    0.000    0.000 
#
# Total GULP energy -122741.753805 kJ/mol
# GULP energy per Si atom -5579.170628 kJ/mol
# Density = 2.578218 g / cm^3
# Si number density = 25.840999 Si / 1000 Ang^3
#
#
#
# Elastic Constant Matrix: (Units=GPa)
#
#
# Indices 1 2 3 4 5 6 
#
# 1 99.9797 14.6047 9.4657 0.0000 0.0000 -0.0003
# 2 14.6047 121.7923 12.5586 0.0001 0.0000 -0.0001
# 3 9.4657 12.5586 59.2606 0.0001 0.0000 0.0003
# 4 0.0000 0.0001 0.0001 41.8733 -0.0001 0.0003
# 5 0.0000 0.0000 0.0000 -0.0001 41.0747 -0.0001
# 6 -0.0003 -0.0001 0.0003 0.0003 -0.0001 107.5171
#
#
#
# Elastic Compliance Matrix: (Units=1/GPa)
#
#
# Indices 1 2 3 4 5 6 
#
# 1 0.010295 -0.001089 -0.001414 0.000000 0.000000 0.000000
# 2 -0.001089 0.008509 -0.001629 0.000000 0.000000 0.000000
# 3 -0.001414 -0.001629 0.017446 0.000000 0.000000 0.000000
# 4 0.000000 0.000000 0.000000 0.023882 0.000000 0.000000
# 5 0.000000 0.000000 0.000000 0.000000 0.024346 0.000000
# 6 0.000000 0.000000 0.000000 0.000000 0.000000 0.009301
#
#
# Mechanical properties :
#
#
# Convention : Reuss Voigt Hill
#
# Bulk Modulus (GPa) = 35.73179 39.36563 37.54871
# Shear Modulus (GPa) = 44.89515 54.38659 49.64087
#
# Velocity S-wave (km/s) = 4.17269 4.59264 4.38769
# Velocity P-wave (km/s) = 6.08873 6.58710 6.34282
#
# Compressibility (1/GPa) = 0.02798629
#
# Stress axis : x y z
#
# Youngs Moduli (GPa) = 97.13534 117.51891 57.32063
#
# Poissons Ratio (x) = 0.12795 0.08103
# Poissons Ratio (y) = 0.10576 0.09340
# Poissons Ratio (z) = 0.13732 0.19148
#
# Static dielectric constant tensor:
#      x y z
#    x 2.047580 0.000000 0.000000 
#    y 0.000000 2.263910 0.000000 
#    z 0.000000 0.000000 2.113460 
# 
# From -- ./inp_files/4675.got.cif
#   From: 2010.05.17/outbox.cif.g08.bks.cpg/sg42_3_cif.got.tgz:4675.got - 2010.06.03 19:03:34.
