data_PCOD9369613
_publ_section_title
;
Structure prediction by ZEFSAII (Michael W. Deem and Ramdas Pophale) SiO2 
 PCOD9369613
Probable space group: F M M 2
;
_chemical_formula_sum "Si O2"
_cell_formula_units_Z 96
_cell_length_a 17.308068
_cell_length_b 15.982300
_cell_length_c 17.392368
_cell_angle_alpha 90.000000
_cell_angle_beta 90.000000
_cell_angle_gamma 90.000000
_cell_volume 4811.124408
_symmetry_space_group_name_H-M "F M M 2"
_symmetry_group_IT_number 42
_symmetry_cell_setting 'orthorhombic'
loop_
_space_group_symop_operation_xyz
x,y,z
-x,-y,z
-x,y,z
x,-y,z
x,1/2+y,1/2+z
-x,1/2-y,1/2+z
-x,1/2+y,1/2+z
x,1/2-y,1/2+z
1/2+x,y,1/2+z
1/2-x,-y,1/2+z
1/2-x,y,1/2+z
1/2+x,-y,1/2+z
1/2+x,1/2+y,z
1/2-x,1/2-y,z
1/2-x,1/2+y,z
1/2+x,1/2-y,z
loop_
_atom_site_type_symbol
_atom_site_label
_atom_site_fract_x
_atom_site_fract_y
_atom_site_fract_z
Si Si1 0.349593 0.160556 0.210590
Si Si2 0.912345 0.600594 0.890169
Si Si3 0.000000 0.600319 0.300864
Si Si4 0.650421 0.903154 0.564956
Si Si5 0.000000 0.897145 0.979258
Si Si6 0.324573 0.357515 0.233844
Si Si7 0.176196 0.397885 0.043237
O O1 0.422669 0.132467 0.259704
O O2 0.336910 0.259236 0.219253
O O3 0.266966 0.121626 0.236440
O O4 0.360913 0.135716 0.121700
O O5 0.916239 0.500000 0.896019
O O6 0.866583 0.620131 0.812423
O O7 0.000000 0.633300 0.887007
O O8 0.867519 0.629509 0.966442
O O9 0.000000 0.500000 0.297013
O O10 0.000000 0.625530 0.390116
O O11 0.576923 0.865841 0.521987
O O12 0.641925 0.899650 0.656962
O O13 0.734629 0.867425 0.544468
O O14 0.654138 0.000000 0.541101
O O15 0.000000 0.000000 0.984177
O O16 0.175725 0.500000 0.046929
#
# Coordination Sequence:
#
# PCOD9369613 Si02
#       7
#    16  16   8  16   8  16  16
#     4  10  23  41  59  87 118 159 201 241 302 358
#     4  10  22  37  60  90 118 152 198 249 297 352
#     4  11  24  39  62  89 120 159 206 257 296 347
#     4   9  18  35  60  85 114 153 195 243 295 352
#     4   9  20  35  54  85 113 143 196 243 287 343
#     4  10  22  41  59  86 122 158 197 241 300 366
#     4   9  19  38  61  85 115 152 197 247 298 353
#
# _framework density 19.953757
#
# number of rings (size 3 to 8) (size 9 to 14) (size 15 to 20)
#    0.000    2.333    0.000    1.000    5.833    2.000 
#    3.000    1.667    0.000    0.000    0.000    0.000 
#    0.000    0.000    0.000    0.000    0.000    0.000 
#
# Total GULP energy -133982.467641 kJ/mol
# GULP energy per Si atom -5582.602818 kJ/mol
# Density = 1.990834 g / cm^3
# Si number density = 19.953757 Si / 1000 Ang^3
#
#
#
# Elastic Constant Matrix: (Units=GPa)
#
#
# Indices 1 2 3 4 5 6 
#
# 1 141.9588 15.0732 123.1175 0.0000 0.0000 0.0000
# 2 15.0732 21.4468 5.1310 0.0000 0.0000 0.0000
# 3 123.1175 5.1310 178.9345 0.0000 0.0000 0.0000
# 4 0.0000 0.0000 0.0000 -20.2877 0.0000 0.0000
# 5 0.0000 0.0000 0.0000 0.0000 31.0216 0.0000
# 6 0.0000 0.0000 0.0000 0.0000 0.0000 15.4644
#
#
#
# Elastic Compliance Matrix: (Units=1/GPa)
#
#
# Indices 1 2 3 4 5 6 
#
# 1 0.019611 -0.010628 -0.013189 0.000000 0.000000 0.000000
# 2 -0.010628 0.052708 0.005801 0.000000 0.000000 0.000000
# 3 -0.013189 0.005801 0.014497 0.000000 0.000000 0.000000
# 4 0.000000 0.000000 0.000000 -0.049291 0.000000 0.000000
# 5 0.000000 0.000000 0.000000 0.000000 0.032236 0.000000
# 6 0.000000 0.000000 0.000000 0.000000 0.000000 0.064665
#
#
# Mechanical properties :
#
#
# Convention : Reuss Voigt Hill
#
# Bulk Modulus (GPa) = 19.69065 69.88704 44.78884
# Shear Modulus (GPa) = 26.68297 18.50755 22.59526
#
# Velocity S-wave (km/s) = 3.66080 3.04883 3.36874
# Velocity P-wave (km/s) = 5.26860 6.89161 6.13402
#
# Compressibility (1/GPa) = 0.05078553
#
# Stress axis : x y z
#
# Youngs Moduli (GPa) = 50.99144 18.97231 68.97978
#
# Poissons Ratio (x) = 0.20163 0.90976
# Poissons Ratio (y) = 0.54192 -0.40016
# Poissons Ratio (z) = 0.67252 -0.11006
#
# Static dielectric constant tensor:
#      x y z
#    x 1.717930 0.000000 0.000000 
#    y 0.000000 1.714910 0.000000 
#    z 0.000000 0.000000 1.657560 
# 
# From -- ./inp_files/14058.got.cif
#   From: 2010.05.17/outbox.cif.g08.bks.cpg/sg42_8_cif.got.tgz:14058.got - 2010.06.03 19:03:34.
