data_PCOD9369311
_publ_section_title
;
Structure prediction by ZEFSAII (Michael W. Deem and Ramdas Pophale) SiO2 
 PCOD9369311
Probable space group: F M M 2
;
_chemical_formula_sum "Si O2"
_cell_formula_units_Z 92
_cell_length_a 23.318748
_cell_length_b 21.248614
_cell_length_c 8.850191
_cell_angle_alpha 90.000000
_cell_angle_beta 90.000000
_cell_angle_gamma 90.000000
_cell_volume 4385.190654
_symmetry_space_group_name_H-M "F M M 2"
_symmetry_group_IT_number 42
_symmetry_cell_setting 'orthorhombic'
loop_
_space_group_symop_operation_xyz
x,y,z
-x,-y,z
-x,y,z
x,-y,z
x,1/2+y,1/2+z
-x,1/2-y,1/2+z
-x,1/2+y,1/2+z
x,1/2-y,1/2+z
1/2+x,y,1/2+z
1/2-x,-y,1/2+z
1/2-x,y,1/2+z
1/2+x,-y,1/2+z
1/2+x,1/2+y,z
1/2-x,1/2-y,z
1/2-x,1/2+y,z
1/2+x,1/2-y,z
loop_
_atom_site_type_symbol
_atom_site_label
_atom_site_fract_x
_atom_site_fract_y
_atom_site_fract_z
Si Si1 0.406238 0.396970 0.631340
Si Si2 0.934936 0.214028 0.847062
Si Si3 0.311434 0.127470 0.887521
Si Si4 0.362260 0.694459 0.141224
Si Si5 0.000000 0.000000 0.540597
Si Si6 0.756013 0.500000 0.006673
Si Si7 0.333718 0.000000 0.294557
Si Si8 0.750000 0.750000 0.492341
O O1 0.435434 0.341596 0.724390
O O2 0.362007 0.368283 0.511145
O O3 0.449999 0.444664 0.552056
O O4 0.370396 0.439132 0.750496
O O5 0.896168 0.267907 0.771495
O O6 0.000000 0.234951 0.878781
O O7 0.904012 0.189889 0.998564
O O8 0.338922 0.131622 0.721429
O O9 0.280583 0.062989 0.929112
O O10 0.268451 0.186967 0.902624
O O11 0.305963 0.732046 0.088031
O O12 0.689437 0.500000 0.963862
O O13 0.780318 0.500000 0.175933
#
# Coordination Sequence:
#
# PCOD9369311 Si02
#       8
#    16  16  16  16   4   8   8   8
#     4  10  21  42  65  97 127 176 237 288 341 416
#     4  12  24  44  67  97 134 183 232 293 351 414
#     4  11  25  44  66 103 144 177 237 284 358 428
#     4  12  26  42  68 102 140 180 226 294 361 419
#     4  10  20  44  76  90 128 196 244 298 340 424
#     4  10  24  40  62  95 137 187 217 275 343 427
#     4   9  22  35  60  89 129 170 221 262 336 409
#     4  12  24  42  72 104 140 184 232 290 358 430
#
# _framework density 20.979704000000002
#
# number of rings (size 3 to 8) (size 9 to 14) (size 15 to 20)
#    0.000    1.043    4.348    1.565    7.304    0.000 
#    3.130    0.870    0.000    0.000    0.000    0.000 
#    0.000    0.000    0.000    0.000    0.000    0.000 
#
# Total GULP energy -128260.274906 kJ/mol
# GULP energy per Si atom -5576.533692 kJ/mol
# Density = 2.093195 g / cm^3
# Si number density = 20.979704 Si / 1000 Ang^3
#
#
#
# Elastic Constant Matrix: (Units=GPa)
#
#
# Indices 1 2 3 4 5 6 
#
# 1 120.4132 15.9645 19.4312 -0.0001 0.0001 0.0001
# 2 15.9645 91.6426 22.8473 -0.0001 0.0001 0.0001
# 3 19.4312 22.8473 40.9227 -0.0001 0.0003 0.0001
# 4 -0.0001 -0.0001 -0.0001 7.5652 0.0001 0.0000
# 5 0.0001 0.0001 0.0003 0.0001 12.2937 -0.0001
# 6 0.0001 0.0001 0.0001 0.0000 -0.0001 22.6699
#
#
#
# Elastic Compliance Matrix: (Units=1/GPa)
#
#
# Indices 1 2 3 4 5 6 
#
# 1 0.009021 -0.000585 -0.003957 0.000000 0.000000 0.000000
# 2 -0.000585 0.012714 -0.006821 0.000000 0.000000 0.000000
# 3 -0.003957 -0.006821 0.030123 0.000000 -0.000001 0.000000
# 4 0.000000 0.000000 0.000000 0.132185 -0.000001 0.000000
# 5 0.000000 0.000000 -0.000001 -0.000001 0.081342 0.000000
# 6 0.000000 0.000000 0.000000 0.000000 0.000000 0.044111
#
#
# Mechanical properties :
#
#
# Convention : Reuss Voigt Hill
#
# Bulk Modulus (GPa) = 34.32482 41.05159 37.68820
# Shear Modulus (GPa) = 14.62278 21.48814 18.05546
#
# Velocity S-wave (km/s) = 2.64293 3.20384 2.93681
# Velocity P-wave (km/s) = 5.07050 5.77026 5.43166
#
# Compressibility (1/GPa) = 0.02913344
#
# Stress axis : x y z
#
# Youngs Moduli (GPa) = 110.85494 78.65153 33.19714
#
# Poissons Ratio (x) = 0.04601 0.13135
# Poissons Ratio (y) = 0.06485 0.22643
# Poissons Ratio (z) = 0.43862 0.53646
#
# Static dielectric constant tensor:
#      x y z
#    x 1.774830 0.000000 0.000000 
#    y 0.000000 1.757260 0.000000 
#    z 0.000000 0.000000 1.770210 
# 
# From -- ./inp_files/4107.got.cif
#   From: 2010.05.17/outbox.cif.g08.bks.cpg/sg42_3_cif.got.tgz:4107.got - 2010.06.03 19:03:34.
