data_PCOD9369843
_publ_section_title
;
Structure prediction by ZEFSAII (Michael W. Deem and Ramdas Pophale) SiO2 
 PCOD9369843
Probable space group: F M M 2
;
_chemical_formula_sum "Si O2"
_cell_formula_units_Z 112
_cell_length_a 16.685085
_cell_length_b 14.451811
_cell_length_c 23.068383
_cell_angle_alpha 90.000000
_cell_angle_beta 90.000000
_cell_angle_gamma 90.000000
_cell_volume 5562.472156
_symmetry_space_group_name_H-M "F M M 2"
_symmetry_group_IT_number 42
_symmetry_cell_setting 'orthorhombic'
loop_
_space_group_symop_operation_xyz
x,y,z
-x,-y,z
-x,y,z
x,-y,z
x,1/2+y,1/2+z
-x,1/2-y,1/2+z
-x,1/2+y,1/2+z
x,1/2-y,1/2+z
1/2+x,y,1/2+z
1/2-x,-y,1/2+z
1/2-x,y,1/2+z
1/2+x,-y,1/2+z
1/2+x,1/2+y,z
1/2-x,1/2-y,z
1/2-x,1/2+y,z
1/2+x,1/2-y,z
loop_
_atom_site_type_symbol
_atom_site_label
_atom_site_fract_x
_atom_site_fract_y
_atom_site_fract_z
Si Si1 0.320998 0.106963 0.599580
Si Si2 0.409619 0.263930 0.327861
Si Si3 0.590381 0.236070 0.039150
Si Si4 0.097498 0.393873 0.933506
Si Si5 0.364759 0.393066 0.229525
Si Si6 0.679002 0.106963 0.267431
Si Si7 0.364759 0.893066 0.137486
O O1 0.352192 0.177944 0.552083
O O2 0.366024 0.124768 0.660881
O O3 0.227539 0.117401 0.615951
O O4 0.334184 0.000000 0.583564
O O5 0.500000 0.233388 0.343090
O O6 0.379683 0.334657 0.377122
O O7 0.412398 0.323022 0.268864
O O8 0.352192 0.177944 0.314928
O O9 0.500000 0.266612 0.023921
O O10 0.587602 0.176978 0.098147
O O11 0.620317 0.165343 0.989889
O O12 0.127022 0.500000 0.933506
O O13 0.000000 0.398939 0.933506
O O14 0.388165 0.500000 0.239121
O O15 0.272461 0.382599 0.251060
O O16 0.633976 0.124768 0.206130
O O17 0.665816 0.000000 0.283447
O O18 0.388166 0.000000 0.127890
#
# Coordination Sequence:
#
# PCOD9369843 Si02
#       7
#    16  16  16  16  16  16  16
#     4   9  19  35  53  76 109 143 169 200 252 318
#     4  11  21  33  53  78 102 133 175 221 263 303
#     4  11  21  33  53  78 102 133 175 221 263 303
#     4   9  20  38  54  71 101 139 177 218 266 316
#     4   9  18  34  55  77 105 141 173 204 252 311
#     4   9  19  35  53  76 109 143 169 200 252 318
#     4   9  18  34  55  77 105 141 173 204 252 311
#
# _framework density 20.134933
#
# number of rings (size 3 to 8) (size 9 to 14) (size 15 to 20)
#    0.000    2.429    0.000    4.286    0.000    6.857 
#    0.000    6.429    0.000    6.000    0.000    0.000 
#    0.000    0.000    0.000    0.000    0.000    0.000 
#
# Total GULP energy -156327.062889 kJ/mol
# GULP energy per Si atom -5583.109389 kJ/mol
# Density = 2.008911 g / cm^3
# Si number density = 20.134933 Si / 1000 Ang^3
#
#
#
# Elastic Constant Matrix: (Units=GPa)
#
#
# Indices 1 2 3 4 5 6 
#
# 1 25.5107 39.2409 18.6904 0.0000 0.0000 0.0000
# 2 39.2409 140.1415 76.2871 0.0000 0.0000 0.0000
# 3 18.6904 76.2871 57.9458 0.0000 0.0000 0.0000
# 4 0.0000 0.0000 0.0000 39.5263 0.0000 0.0000
# 5 0.0000 0.0000 0.0000 0.0000 14.2164 0.0000
# 6 0.0000 0.0000 0.0000 0.0000 0.0000 15.4026
#
#
#
# Elastic Compliance Matrix: (Units=1/GPa)
#
#
# Indices 1 2 3 4 5 6 
#
# 1 0.070980 -0.026160 0.011546 0.000000 0.000000 0.000000
# 2 -0.026160 0.034826 -0.037411 0.000000 0.000000 0.000000
# 3 0.011546 -0.037411 0.062786 0.000000 0.000000 0.000000
# 4 0.000000 0.000000 0.000000 0.025300 0.000000 0.000000
# 5 0.000000 0.000000 0.000000 0.000000 0.070341 0.000000
# 6 0.000000 0.000000 0.000000 0.000000 0.000000 0.064924
#
#
# Mechanical properties :
#
#
# Convention : Reuss Voigt Hill
#
# Bulk Modulus (GPa) = 15.49396 54.67052 35.08224
# Shear Modulus (GPa) = 10.99578 19.78771 15.39174
#
# Velocity S-wave (km/s) = 2.33942 3.13829 2.76783
# Velocity P-wave (km/s) = 3.87414 6.35160 5.26079
#
# Compressibility (1/GPa) = 0.06454126
#
# Stress axis : x y z
#
# Youngs Moduli (GPa) = 14.08849 28.71449 15.92719
#
# Poissons Ratio (x) = 0.75118 -0.18390
# Poissons Ratio (y) = 0.36856 0.59585
# Poissons Ratio (z) = -0.16267 1.07423
#
# Static dielectric constant tensor:
#      x y z
#    x 1.786810 0.000000 0.000000 
#    y 0.000000 1.706490 0.000000 
#    z 0.000000 0.000000 1.708160 
# 
# From -- ./inp_files/29481.got.cif
#   From: 2010.05.17/outbox.cif.g08.bks.cpg/sg42_15_cif.got.tgz:29481.got - 2010.06.03 19:03:34.
