data_PCOD9369001
_publ_section_title
;
Structure prediction by ZEFSAII (Michael W. Deem and Ramdas Pophale) SiO2 
 PCOD9369001
Probable space group: F M M 2
;
_chemical_formula_sum "Si O2"
_cell_formula_units_Z 96
_cell_length_a 18.333758
_cell_length_b 8.551243
_cell_length_c 31.764086
_cell_angle_alpha 90.000000
_cell_angle_beta 90.000000
_cell_angle_gamma 90.000000
_cell_volume 4979.859680
_symmetry_space_group_name_H-M "F M M 2"
_symmetry_group_IT_number 42
_symmetry_cell_setting 'orthorhombic'
loop_
_space_group_symop_operation_xyz
x,y,z
-x,-y,z
-x,y,z
x,-y,z
x,1/2+y,1/2+z
-x,1/2-y,1/2+z
-x,1/2+y,1/2+z
x,1/2-y,1/2+z
1/2+x,y,1/2+z
1/2-x,-y,1/2+z
1/2-x,y,1/2+z
1/2+x,-y,1/2+z
1/2+x,1/2+y,z
1/2-x,1/2-y,z
1/2-x,1/2+y,z
1/2+x,1/2-y,z
loop_
_atom_site_type_symbol
_atom_site_label
_atom_site_fract_x
_atom_site_fract_y
_atom_site_fract_z
Si Si1 0.415952 0.690758 0.131880
Si Si2 0.167769 0.186304 0.883231
Si Si3 0.915027 0.689289 0.801304
Si Si4 0.332264 0.187965 0.547245
Si Si5 0.415106 0.687770 0.465234
Si Si6 0.332205 0.810911 0.716120
O O1 0.500000 0.742442 0.131463
O O2 0.416579 0.500000 0.132191
O O3 0.373359 0.739487 0.089887
O O4 0.374234 0.741657 0.174031
O O5 0.250000 0.250000 0.882975
O O6 0.126275 0.241846 0.841359
O O7 0.125426 0.250075 0.923921
O O8 0.169605 0.000000 0.884773
O O9 0.911886 0.500000 0.803820
O O10 0.875469 0.737481 0.758092
O O11 0.000000 0.734642 0.801045
O O12 0.250000 0.250000 0.546853
O O13 0.375431 0.248641 0.506671
O O14 0.331118 0.000000 0.546372
O O15 0.500000 0.735502 0.464892
O O16 0.411748 0.500000 0.465251
O O17 0.250000 0.750000 0.716736
O O18 0.330765 0.000000 0.715653
#
# Coordination Sequence:
#
# PCOD9369001 Si02
#       6
#    16  16  16  16  16  16
#     4   9  18  34  57  84 113 149 194 240 286 339
#     4  12  25  41  62  87 117 152 192 237 286 342
#     4  10  21  38  60  86 117 153 193 238 289 343
#     4  11  22  37  59  86 118 154 194 239 287 341
#     4  11  24  42  63  87 117 151 189 236 289 344
#     4  10  20  35  57  84 115 152 193 237 285 339
#
# _framework density 19.277652
#
# number of rings (size 3 to 8) (size 9 to 14) (size 15 to 20)
#    0.000    1.500    0.000    5.500    0.000    8.333 
#    0.000    0.833    0.000    3.500    0.000    0.000 
#    0.000    0.000    0.000    0.000    0.000    0.000 
#
# Total GULP energy -134229.391467 kJ/mol
# GULP energy per Si atom -5592.891311 kJ/mol
# Density = 1.923378 g / cm^3
# Si number density = 19.277652 Si / 1000 Ang^3
#
#
#
# Elastic Constant Matrix: (Units=GPa)
#
#
# Indices 1 2 3 4 5 6 
#
# 1 244.0710 54.2258 149.9333 0.0000 0.0000 0.0000
# 2 54.2258 44.3969 52.2487 0.0000 0.0000 0.0000
# 3 149.9333 52.2487 242.7052 0.0000 0.0000 0.0000
# 4 0.0000 0.0000 0.0000 37.3165 0.0000 0.0000
# 5 0.0000 0.0000 0.0000 0.0000 47.1061 0.0000
# 6 0.0000 0.0000 0.0000 0.0000 0.0000 26.7693
#
#
#
# Elastic Compliance Matrix: (Units=1/GPa)
#
#
# Indices 1 2 3 4 5 6 
#
# 1 0.007304 -0.004836 -0.003471 0.000000 0.000000 0.000000
# 2 -0.004836 0.033369 -0.004196 0.000000 0.000000 0.000000
# 3 -0.003471 -0.004196 0.007168 0.000000 0.000000 0.000000
# 4 0.000000 0.000000 0.000000 0.026798 0.000000 0.000000
# 5 0.000000 0.000000 0.000000 0.000000 0.021229 0.000000
# 6 0.000000 0.000000 0.000000 0.000000 0.000000 0.037356
#
#
# Mechanical properties :
#
#
# Convention : Reuss Voigt Hill
#
# Bulk Modulus (GPa) = 43.79349 115.99876 79.89613
# Shear Modulus (GPa) = 30.14949 40.55608 35.35279
#
# Velocity S-wave (km/s) = 3.95898 4.59168 4.28702
# Velocity P-wave (km/s) = 6.60792 9.40291 8.12648
#
# Compressibility (1/GPa) = 0.02283444
#
# Stress axis : x y z
#
# Youngs Moduli (GPa) = 136.91574 29.96809 139.51460
#
# Poissons Ratio (x) = 0.14493 0.48424
# Poissons Ratio (y) = 0.66212 0.58541
# Poissons Ratio (z) = 0.47522 0.12575
#
# Static dielectric constant tensor:
#      x y z
#    x 1.632580 0.000000 0.000000 
#    y 0.000000 1.661870 0.000000 
#    z 0.000000 0.000000 1.637910 
# 
# From -- ./inp_files/32994.got.cif
#   From: 2010.05.17/outbox.cif.g08.bks.cpg/sg42_17_cif.got.tgz:32994.got - 2010.06.03 19:03:34.
