data_PCOD9369296
_publ_section_title
;
Structure prediction by ZEFSAII (Michael W. Deem and Ramdas Pophale) SiO2 
 PCOD9369296
Probable space group: F M M 2
;
_chemical_formula_sum "Si O2"
_cell_formula_units_Z 88
_cell_length_a 15.696772
_cell_length_b 30.415995
_cell_length_c 9.199659
_cell_angle_alpha 90.000000
_cell_angle_beta 90.000000
_cell_angle_gamma 90.000000
_cell_volume 4392.220231
_symmetry_space_group_name_H-M "F M M 2"
_symmetry_group_IT_number 42
_symmetry_cell_setting 'orthorhombic'
loop_
_space_group_symop_operation_xyz
x,y,z
-x,-y,z
-x,y,z
x,-y,z
x,1/2+y,1/2+z
-x,1/2-y,1/2+z
-x,1/2+y,1/2+z
x,1/2-y,1/2+z
1/2+x,y,1/2+z
1/2-x,-y,1/2+z
1/2-x,y,1/2+z
1/2+x,-y,1/2+z
1/2+x,1/2+y,z
1/2-x,1/2-y,z
1/2-x,1/2+y,z
1/2+x,1/2-y,z
loop_
_atom_site_type_symbol
_atom_site_label
_atom_site_fract_x
_atom_site_fract_y
_atom_site_fract_z
Si Si1 0.660428 0.804004 0.321770
Si Si2 0.783726 0.500000 0.186114
Si Si3 0.735653 0.431752 0.441808
Si Si4 0.595258 0.380654 0.012538
Si Si5 0.155443 0.344242 0.815316
Si Si6 0.903536 0.231950 0.519178
O O1 0.609670 0.846121 0.381975
O O2 0.754751 0.820173 0.282946
O O3 0.657200 0.768986 0.452169
O O4 0.619474 0.781253 0.182264
O O5 0.754473 0.461791 0.303136
O O6 0.805782 0.538608 0.065687
O O7 0.828330 0.415417 0.498998
O O8 0.680969 0.389123 0.398222
O O9 0.500000 0.399365 0.006245
O O10 0.608753 0.355802 0.165763
O O11 0.105098 0.311332 0.919569
O O12 0.000000 0.249046 0.512152
#
# Coordination Sequence:
#
# PCOD9369296 Si02
#       6
#    16   8  16  16  16  16
#     4  11  24  41  60  87 122 169 213 247 299 370
#     4  10  20  40  66  92 122 158 208 252 306 374
#     4  10  21  39  67  95 117 165 204 255 301 379
#     4  11  22  40  64  95 128 160 202 259 315 367
#     4  11  23  40  63  91 121 162 211 250 300 370
#     4  12  24  39  59  87 125 164 202 257 308 352
#
# _framework density 20.035425
#
# number of rings (size 3 to 8) (size 9 to 14) (size 15 to 20)
#    0.000    1.091    1.818    6.000    2.545    1.455 
#    0.000    1.818    0.000    2.182    0.000    0.000 
#    0.000    0.000    0.000    0.000    0.000    0.000 
#
# Total GULP energy -122489.058713 kJ/mol
# GULP energy per Si atom -5567.684487 kJ/mol
# Density = 1.998982 g / cm^3
# Si number density = 20.035425 Si / 1000 Ang^3
#
#
#
# Elastic Constant Matrix: (Units=GPa)
#
#
# Indices 1 2 3 4 5 6 
#
# 1 52.6137 -4.4158 -24.4100 0.0000 0.0000 0.0000
# 2 -4.4158 76.5790 -10.9255 0.0000 0.0000 0.0000
# 3 -24.4100 -10.9255 48.9362 0.0000 0.0000 0.0000
# 4 0.0000 0.0000 0.0000 40.3650 0.0000 0.0000
# 5 0.0000 0.0000 0.0000 0.0000 14.7835 0.0000
# 6 0.0000 0.0000 0.0000 0.0000 0.0000 5.3483
#
#
#
# Elastic Compliance Matrix: (Units=1/GPa)
#
#
# Indices 1 2 3 4 5 6 
#
# 1 0.025559 0.003401 0.013509 0.000000 0.000000 0.000000
# 2 0.003401 0.013941 0.004809 0.000000 0.000000 0.000000
# 3 0.013509 0.004809 0.028247 0.000000 0.000000 0.000000
# 4 0.000000 0.000000 0.000000 0.024774 0.000000 0.000000
# 5 0.000000 0.000000 0.000000 0.000000 0.067643 0.000000
# 6 0.000000 0.000000 0.000000 0.000000 0.000000 0.186977
#
#
# Mechanical properties :
#
#
# Convention : Reuss Voigt Hill
#
# Bulk Modulus (GPa) = 8.99413 10.95846 9.97629
# Shear Modulus (GPa) = 14.67289 26.62470 20.64879
#
# Velocity S-wave (km/s) = 2.70913 3.64934 3.21380
# Velocity P-wave (km/s) = 3.77951 4.82061 4.33145
#
# Compressibility (1/GPa) = 0.11118368
#
# Stress axis : x y z
#
# Youngs Moduli (GPa) = 39.12488 71.73282 35.40239
#
# Poissons Ratio (x) = -0.24397 -0.47824
# Poissons Ratio (y) = -0.13307 -0.17025
# Poissons Ratio (z) = -0.52852 -0.34496
#
# Static dielectric constant tensor:
#      x y z
#    x 1.704440 0.000000 0.000000 
#    y 0.000000 1.698070 0.000000 
#    z 0.000000 0.000000 1.698450 
# 
# From -- ./inp_files/3615.got.cif
#   From: 2010.05.17/outbox.cif.g08.bks.cpg/sg42_2_cif.got.tgz:3615.got - 2010.06.03 19:03:34.
