data_PCOD9369598
_publ_section_title
;
Structure prediction by ZEFSAII (Michael W. Deem and Ramdas Pophale) SiO2 
 PCOD9369598
Probable space group: F M M 2
;
_chemical_formula_sum "Si O2"
_cell_formula_units_Z 112
_cell_length_a 21.093486
_cell_length_b 22.713021
_cell_length_c 10.952440
_cell_angle_alpha 90.000000
_cell_angle_beta 90.000000
_cell_angle_gamma 90.000000
_cell_volume 5247.278852
_symmetry_space_group_name_H-M "F M M 2"
_symmetry_group_IT_number 42
_symmetry_cell_setting 'orthorhombic'
loop_
_space_group_symop_operation_xyz
x,y,z
-x,-y,z
-x,y,z
x,-y,z
x,1/2+y,1/2+z
-x,1/2-y,1/2+z
-x,1/2+y,1/2+z
x,1/2-y,1/2+z
1/2+x,y,1/2+z
1/2-x,-y,1/2+z
1/2-x,y,1/2+z
1/2+x,-y,1/2+z
1/2+x,1/2+y,z
1/2-x,1/2-y,z
1/2-x,1/2+y,z
1/2+x,1/2-y,z
loop_
_atom_site_type_symbol
_atom_site_label
_atom_site_fract_x
_atom_site_fract_y
_atom_site_fract_z
Si Si1 0.572343 0.262000 0.342010
Si Si2 0.338376 0.432243 0.706569
Si Si3 0.799351 0.391571 0.755426
Si Si4 0.658182 0.835028 0.996336
Si Si5 0.072250 0.373351 0.405932
Si Si6 0.811475 0.727866 0.662255
Si Si7 0.430303 0.431744 0.167866
O O1 0.500000 0.268040 0.301904
O O2 0.592438 0.312566 0.436711
O O3 0.581257 0.196880 0.397596
O O4 0.622499 0.266713 0.232906
O O5 0.355206 0.500000 0.678420
O O6 0.263414 0.429063 0.737535
O O7 0.349477 0.385740 0.596912
O O8 0.378409 0.407541 0.820811
O O9 0.799201 0.359168 0.885876
O O10 0.799786 0.341393 0.649688
O O11 0.867826 0.422030 0.747845
O O12 0.685534 0.774940 0.054228
O O13 0.076082 0.394071 0.545082
O O14 0.000000 0.385703 0.363327
O O15 0.750000 0.750000 0.737880
O O16 0.500000 0.418368 0.223528
O O17 0.430922 0.500000 0.131524
#
# Coordination Sequence:
#
# PCOD9369598 Si02
#       7
#    16  16  16  16  16  16  16
#     4  10  22  40  68 101 137 175 220 281 343 411
#     4  12  26  44  66 101 144 188 232 280 342 418
#     4  11  25  42  67  97 137 178 229 285 342 417
#     4  11  25  42  67 100 136 179 227 285 353 412
#     4  10  21  42  70  99 131 175 230 283 337 400
#     4  11  21  42  67  96 131 172 218 282 342 403
#     4  10  22  42  67  95 129 175 230 279 330 398
#
# _framework density 21.344397000000001
#
# number of rings (size 3 to 8) (size 9 to 14) (size 15 to 20)
#    0.000    1.286    2.857    1.714    2.000    8.857 
#    0.000    0.000    0.000    0.000    0.000    0.000 
#    0.000    0.000    0.000    0.000    0.000    0.000 
#
# Total GULP energy -156362.937785 kJ/mol
# GULP energy per Si atom -5584.390635 kJ/mol
# Density = 2.129582 g / cm^3
# Si number density = 21.344397 Si / 1000 Ang^3
#
#
#
# Elastic Constant Matrix: (Units=GPa)
#
#
# Indices 1 2 3 4 5 6 
#
# 1 148.8148 36.6542 30.3304 0.0000 0.0000 0.0000
# 2 36.6542 91.7468 13.2433 0.0000 0.0000 0.0000
# 3 30.3304 13.2433 54.9021 0.0000 0.0000 0.0000
# 4 0.0000 0.0000 0.0000 17.0365 0.0000 0.0000
# 5 0.0000 0.0000 0.0000 0.0000 27.0280 0.0000
# 6 0.0000 0.0000 0.0000 0.0000 0.0000 31.2100
#
#
#
# Elastic Compliance Matrix: (Units=1/GPa)
#
#
# Indices 1 2 3 4 5 6 
#
# 1 0.008174 -0.002708 -0.003862 0.000000 0.000000 0.000000
# 2 -0.002708 0.012190 -0.001444 0.000000 0.000000 0.000000
# 3 -0.003862 -0.001444 0.020696 0.000000 0.000000 0.000000
# 4 0.000000 0.000000 0.000000 0.058697 0.000000 0.000000
# 5 0.000000 0.000000 0.000000 0.000000 0.036999 0.000000
# 6 0.000000 0.000000 0.000000 0.000000 0.000000 0.032041
#
#
# Mechanical properties :
#
#
# Convention : Reuss Voigt Hill
#
# Bulk Modulus (GPa) = 39.95109 50.65773 45.30441
# Shear Modulus (GPa) = 25.88382 29.40395 27.64388
#
# Velocity S-wave (km/s) = 3.48613 3.71562 3.60270
# Velocity P-wave (km/s) = 5.91288 6.49560 6.21108
#
# Compressibility (1/GPa) = 0.02503061
#
# Stress axis : x y z
#
# Youngs Moduli (GPa) = 122.33896 82.03457 48.31754
#
# Poissons Ratio (x) = 0.22216 0.18662
# Poissons Ratio (y) = 0.33131 0.06979
# Poissons Ratio (z) = 0.47253 0.11849
#
# Static dielectric constant tensor:
#      x y z
#    x 1.815810 0.000000 0.000000 
#    y 0.000000 1.780970 0.000000 
#    z 0.000000 0.000000 1.778610 
# 
# From -- ./inp_files/9678.got.cif
#   From: 2010.05.17/outbox.cif.g08.bks.cpg/sg42_5_cif.got.tgz:9678.got - 2010.06.03 19:03:34.
