data_PCOD9369789
_publ_section_title
;
Structure prediction by ZEFSAII (Michael W. Deem and Ramdas Pophale) SiO2 
 PCOD9369789
Probable space group: F M M 2
;
_chemical_formula_sum "Si O2"
_cell_formula_units_Z 100
_cell_length_a 22.117303
_cell_length_b 25.497162
_cell_length_c 9.471349
_cell_angle_alpha 90.000000
_cell_angle_beta 90.000000
_cell_angle_gamma 90.000000
_cell_volume 5341.163233
_symmetry_space_group_name_H-M "F M M 2"
_symmetry_group_IT_number 42
_symmetry_cell_setting 'orthorhombic'
loop_
_space_group_symop_operation_xyz
x,y,z
-x,-y,z
-x,y,z
x,-y,z
x,1/2+y,1/2+z
-x,1/2-y,1/2+z
-x,1/2+y,1/2+z
x,1/2-y,1/2+z
1/2+x,y,1/2+z
1/2-x,-y,1/2+z
1/2-x,y,1/2+z
1/2+x,-y,1/2+z
1/2+x,1/2+y,z
1/2-x,1/2-y,z
1/2-x,1/2+y,z
1/2+x,1/2-y,z
loop_
_atom_site_type_symbol
_atom_site_label
_atom_site_fract_x
_atom_site_fract_y
_atom_site_fract_z
Si Si1 0.310665 0.220534 0.443650
Si Si2 0.699477 0.134314 0.681792
Si Si3 0.663262 0.871873 0.229349
Si Si4 0.623489 0.825906 0.943839
Si Si5 0.402460 0.407456 0.987737
Si Si6 0.500000 0.000000 0.524007
Si Si7 0.500000 0.710569 0.318826
Si Si8 0.500000 0.815180 0.497536
O O1 0.250000 0.250000 0.398895
O O2 0.296631 0.185248 0.580085
O O3 0.331293 0.182157 0.319300
O O4 0.357716 0.266081 0.478143
O O5 0.767180 0.112714 0.699049
O O6 0.670843 0.151070 0.830499
O O7 0.651620 0.097723 0.600671
O O8 0.628001 0.910676 0.333220
O O9 0.628511 0.859652 0.085325
O O10 0.558430 0.821011 0.872799
O O11 0.447396 0.454143 0.020165
O O12 0.441823 0.353442 0.988969
O O13 0.500000 0.769343 0.381768
O O14 0.500000 0.711887 0.150302
#
# Coordination Sequence:
#
# PCOD9369789 Si02
#       8
#    16  16  16  16  16   4   8   8
#     4  11  20  32  52  84 132 181 228 229 278 360
#     4  11  20  37  57  91 129 161 204 263 298 373
#     4  11  22  35  58  92 127 162 201 267 301 368
#     4  12  23  33  52  83 128 177 210 244 300 348
#     4  10  23  45  68  91 113 158 219 269 317 388
#     4  10  24  50  84  82 104 160 224 272 342 390
#     4  12  26  35  51  80 128 182 202 254 292 354
#     4  11  24  41  55  82 126 165 226 254 291 370
#
# _framework density 18.722514
#
# number of rings (size 3 to 8) (size 9 to 14) (size 15 to 20)
#    0.000    0.960    4.800    3.840    4.480    0.640 
#    0.000    0.800    0.000    1.920    0.000    0.000 
#    0.000    0.000    0.000    0.000    0.000    0.000 
#
# Total GULP energy -139473.946615 kJ/mol
# GULP energy per Si atom -5578.957865 kJ/mol
# Density = 1.867990 g / cm^3
# Si number density = 18.722514 Si / 1000 Ang^3
#
#
#
# Elastic Constant Matrix: (Units=GPa)
#
#
# Indices 1 2 3 4 5 6 
#
# 1 100.7624 30.2331 8.9931 -0.0002 0.0001 0.0000
# 2 30.2331 58.2844 21.6214 -0.0003 0.0001 0.0001
# 3 8.9931 21.6214 94.2815 -0.0008 0.0000 0.0001
# 4 -0.0002 -0.0003 -0.0008 -0.7133 0.0002 0.0002
# 5 0.0001 0.0001 0.0000 0.0002 25.6332 0.0000
# 6 0.0000 0.0001 0.0001 0.0002 0.0000 25.4879
#
#
#
# Elastic Compliance Matrix: (Units=1/GPa)
#
#
# Indices 1 2 3 4 5 6 
#
# 1 0.011762 -0.006213 0.000303 -0.000001 0.000000 0.000000
# 2 -0.006213 0.022035 -0.004461 -0.000001 0.000000 0.000000
# 3 0.000303 -0.004461 0.011601 -0.000012 0.000000 0.000000
# 4 -0.000001 -0.000001 -0.000012 -1.401937 0.000008 0.000011
# 5 0.000000 0.000000 0.000000 0.000008 0.039012 0.000000
# 6 0.000000 0.000000 0.000000 0.000011 0.000000 0.039234
#
#
# Mechanical properties :
#
#
# Convention : Reuss Voigt Hill
#
# Bulk Modulus (GPa) = 40.55927 41.66928 41.11427
# Shear Modulus (GPa) = -4.00213 22.91361 9.45574
#
# Velocity S-wave (km/s) = -1.46364 3.50216 2.24976
# Velocity P-wave (km/s) = 4.34213 6.21756 5.36247
#
# Compressibility (1/GPa) = 0.02465528
#
# Stress axis : x y z
#
# Youngs Moduli (GPa) = 85.02262 45.38249 86.20271
#
# Poissons Ratio (x) = 0.28198 -0.02612
# Poissons Ratio (y) = 0.52827 0.38451
# Poissons Ratio (z) = -0.02576 0.20243
#
# Static dielectric constant tensor:
#      x y z
#    x 1.699940 0.000000 0.000000 
#    y 0.000000 1.616840 0.000000 
#    z 0.000000 0.000000 1.651360 
# 
# From -- ./inp_files/4289.got.cif
#   From: 2010.05.17/outbox.cif.g08.bks.cpg/sg42_3_cif.got.tgz:4289.got - 2010.06.03 19:03:34.
