data_PCOD9369449
_publ_section_title
;
Structure prediction by ZEFSAII (Michael W. Deem and Ramdas Pophale) SiO2 
 PCOD9369449
Probable space group: F M M 2
;
_chemical_formula_sum "Si O2"
_cell_formula_units_Z 68
_cell_length_a 18.778503
_cell_length_b 8.663245
_cell_length_c 19.037726
_cell_angle_alpha 90.000000
_cell_angle_beta 90.000000
_cell_angle_gamma 90.000000
_cell_volume 3097.110042
_symmetry_space_group_name_H-M "F M M 2"
_symmetry_group_IT_number 42
_symmetry_cell_setting 'orthorhombic'
loop_
_space_group_symop_operation_xyz
x,y,z
-x,-y,z
-x,y,z
x,-y,z
x,1/2+y,1/2+z
-x,1/2-y,1/2+z
-x,1/2+y,1/2+z
x,1/2-y,1/2+z
1/2+x,y,1/2+z
1/2-x,-y,1/2+z
1/2-x,y,1/2+z
1/2+x,-y,1/2+z
1/2+x,1/2+y,z
1/2-x,1/2-y,z
1/2-x,1/2+y,z
1/2+x,1/2-y,z
loop_
_atom_site_type_symbol
_atom_site_label
_atom_site_fract_x
_atom_site_fract_y
_atom_site_fract_z
Si Si1 0.087243 0.000000 0.459491
Si Si2 0.500000 0.666794 0.790111
Si Si3 0.750000 0.750000 0.235978
Si Si4 0.611075 0.333890 0.664825
Si Si5 0.000000 0.000000 0.300157
Si Si6 0.915774 0.671834 0.526022
Si Si7 0.151089 0.500000 0.803106
O O1 0.111114 0.167256 0.491271
O O2 0.120419 0.000000 0.381326
O O3 0.000000 0.000000 0.462544
O O4 0.500000 0.500000 0.827549
O O5 0.433735 0.671671 0.736666
O O6 0.500000 0.825653 0.833010
O O7 0.693173 0.832196 0.186038
O O8 0.700910 0.642240 0.283692
O O9 0.591185 0.500000 0.631900
O O10 0.594336 0.202167 0.609196
O O11 0.076014 0.000000 0.260268
O O12 0.886709 0.500000 0.506825
O O13 0.000000 0.666937 0.511551
#
# Coordination Sequence:
#
# PCOD9369449 Si02
#       7
#     8   8   8  16   4  16   8
#     4  10  22  45  70  97 129 175 238 290 329 388
#     4  10  22  34  59  99 139 171 220 274 339 408
#     4  12  26  42  64  98 140 180 224 280 356 408
#     4  11  21  37  61  98 140 175 210 275 348 419
#     4  12  22  42  70  98 126 184 252 272 334 414
#     4  10  21  37  67 104 135 170 223 289 345 400
#     4  12  26  47  69  97 136 187 237 289 333 414
#
# _framework density 21.955953000000001
#
# number of rings (size 3 to 8) (size 9 to 14) (size 15 to 20)
#    0.000    1.176    6.471    0.000    3.294    0.000 
#    2.118    1.176    0.000    0.000    0.000    0.000 
#    0.000    0.000    0.000    0.000    0.000    0.000 
#
# Total GULP energy -94683.666822 kJ/mol
# GULP energy per Si atom -5569.627460 kJ/mol
# Density = 2.190598 g / cm^3
# Si number density = 21.955953 Si / 1000 Ang^3
#
#
#
# Elastic Constant Matrix: (Units=GPa)
#
#
# Indices 1 2 3 4 5 6 
#
# 1 104.1213 23.5389 -4.5919 0.0000 0.0000 0.0000
# 2 23.5389 229.9141 44.1131 0.0000 0.0000 0.0000
# 3 -4.5919 44.1131 53.0322 0.0000 0.0000 0.0000
# 4 0.0000 0.0000 0.0000 40.7616 0.0000 0.0000
# 5 0.0000 0.0000 0.0000 0.0000 25.8433 0.0000
# 6 0.0000 0.0000 0.0000 0.0000 0.0000 12.6490
#
#
#
# Elastic Compliance Matrix: (Units=1/GPa)
#
#
# Indices 1 2 3 4 5 6 
#
# 1 0.010015 -0.001418 0.002047 0.000000 0.000000 0.000000
# 2 -0.001418 0.005376 -0.004595 0.000000 0.000000 0.000000
# 3 0.002047 -0.004595 0.022856 0.000000 0.000000 0.000000
# 4 0.000000 0.000000 0.000000 0.024533 0.000000 0.000000
# 5 0.000000 0.000000 0.000000 0.000000 0.038695 0.000000
# 6 0.000000 0.000000 0.000000 0.000000 0.000000 0.079058
#
#
# Mechanical properties :
#
#
# Convention : Reuss Voigt Hill
#
# Bulk Modulus (GPa) = 32.98727 57.02084 45.00406
# Shear Modulus (GPa) = 25.18008 37.45126 31.31567
#
# Velocity S-wave (km/s) = 3.39018 4.13455 3.78073
# Velocity P-wave (km/s) = 5.51193 6.98710 6.29289
#
# Compressibility (1/GPa) = 0.03031472
#
# Stress axis : x y z
#
# Youngs Moduli (GPa) = 99.84991 186.00384 43.75264
#
# Poissons Ratio (x) = 0.26376 -0.08955
# Poissons Ratio (y) = 0.14159 0.20104
# Poissons Ratio (z) = -0.20437 0.85466
#
# Static dielectric constant tensor:
#      x y z
#    x 1.790440 0.000000 0.000000 
#    y 0.000000 1.928780 0.000000 
#    z 0.000000 0.000000 1.807560 
# 
# From -- ./inp_files/23261.got.cif
#   From: 2010.05.17/outbox.cif.g08.bks.cpg/sg42_12_cif.got.tgz:23261.got - 2010.06.03 19:03:34.
