data_PCOD9369531
_publ_section_title
;
Structure prediction by ZEFSAII (Michael W. Deem and Ramdas Pophale) SiO2 
 PCOD9369531
Probable space group: F M M 2
;
_chemical_formula_sum "Si O2"
_cell_formula_units_Z 72
_cell_length_a 20.146759
_cell_length_b 19.012021
_cell_length_c 9.113901
_cell_angle_alpha 90.000000
_cell_angle_beta 90.000000
_cell_angle_gamma 90.000000
_cell_volume 3490.903016
_symmetry_space_group_name_H-M "F M M 2"
_symmetry_group_IT_number 42
_symmetry_cell_setting 'orthorhombic'
loop_
_space_group_symop_operation_xyz
x,y,z
-x,-y,z
-x,y,z
x,-y,z
x,1/2+y,1/2+z
-x,1/2-y,1/2+z
-x,1/2+y,1/2+z
x,1/2-y,1/2+z
1/2+x,y,1/2+z
1/2-x,-y,1/2+z
1/2-x,y,1/2+z
1/2+x,-y,1/2+z
1/2+x,1/2+y,z
1/2-x,1/2-y,z
1/2-x,1/2+y,z
1/2+x,1/2-y,z
loop_
_atom_site_type_symbol
_atom_site_label
_atom_site_fract_x
_atom_site_fract_y
_atom_site_fract_z
Si Si1 0.277570 0.849190 0.968610
Si Si2 0.110103 0.923111 0.345746
Si Si3 0.000000 0.312034 0.816739
Si Si4 0.635471 0.418792 0.996786
Si Si5 0.250000 0.250000 0.222755
Si Si6 0.000000 0.837800 0.967268
O O1 0.326422 0.913685 0.949145
O O2 0.292700 0.797235 0.832592
O O3 0.201377 0.874624 0.958469
O O4 0.286845 0.803859 0.115057
O O5 0.062149 0.857773 0.372078
O O6 0.131149 0.920310 0.174582
O O7 0.079243 0.000000 0.368024
O O8 0.000000 0.316545 0.639775
O O9 0.000000 0.232946 0.872834
O O10 0.640629 0.500000 0.946959
O O11 0.567214 0.382843 0.943175
#
# Coordination Sequence:
#
# PCOD9369531 Si02
#       6
#    16  16   8  16   8   8
#     4  11  21  38  60  88 120 156 196 244 292 352
#     4  10  21  39  62  89 119 156 198 243 294 352
#     4  10  23  39  63  87 117 154 200 243 293 349
#     4  10  21  39  62  89 119 156 198 243 294 352
#     4  10  24  34  58  88 128 150 194 244 300 338
#     4  10  23  39  63  87 117 154 200 243 293 349
#
# _framework density 20.625036000000001
#
# number of rings (size 3 to 8) (size 9 to 14) (size 15 to 20)
#    0.000    1.778    2.222    1.333    6.222    2.667 
#    0.000    0.000    0.000    1.333    0.000    0.000 
#    0.000    0.000    0.000    0.000    0.000    0.000 
#
# Total GULP energy -100466.023229 kJ/mol
# GULP energy per Si atom -5581.445735 kJ/mol
# Density = 2.057809 g / cm^3
# Si number density = 20.625036 Si / 1000 Ang^3
#
#
#
# Elastic Constant Matrix: (Units=GPa)
#
#
# Indices 1 2 3 4 5 6 
#
# 1 125.3155 51.0088 14.6305 0.0000 0.0000 0.0000
# 2 51.0088 140.2926 29.6978 0.0000 0.0000 0.0000
# 3 14.6305 29.6978 54.8793 0.0000 0.0000 0.0000
# 4 0.0000 0.0000 0.0000 25.1328 0.0000 0.0000
# 5 0.0000 0.0000 0.0000 0.0000 17.7577 0.0000
# 6 0.0000 0.0000 0.0000 0.0000 0.0000 19.9961
#
#
#
# Elastic Compliance Matrix: (Units=1/GPa)
#
#
# Indices 1 2 3 4 5 6 
#
# 1 0.009393 -0.003258 -0.000741 0.000000 0.000000 0.000000
# 2 -0.003258 0.009180 -0.004099 0.000000 0.000000 0.000000
# 3 -0.000741 -0.004099 0.020638 0.000000 0.000000 0.000000
# 4 0.000000 0.000000 0.000000 0.039789 0.000000 0.000000
# 5 0.000000 0.000000 0.000000 0.000000 0.056313 0.000000
# 6 0.000000 0.000000 0.000000 0.000000 0.000000 0.050010
#
#
# Mechanical properties :
#
#
# Convention : Reuss Voigt Hill
#
# Bulk Modulus (GPa) = 43.45207 56.79575 50.12391
# Shear Modulus (GPa) = 23.90166 27.58734 25.74450
#
# Velocity S-wave (km/s) = 3.40791 3.66124 3.53684
# Velocity P-wave (km/s) = 6.04967 6.74314 6.40580
#
# Compressibility (1/GPa) = 0.02301386
#
# Stress axis : x y z
#
# Youngs Moduli (GPa) = 106.46692 108.92800 48.45514
#
# Poissons Ratio (x) = 0.35491 0.03590
# Poissons Ratio (y) = 0.34689 0.19863
# Poissons Ratio (z) = 0.07887 0.44653
#
# Static dielectric constant tensor:
#      x y z
#    x 1.758480 0.000000 0.000000 
#    y 0.000000 1.740910 0.000000 
#    z 0.000000 0.000000 1.720920 
# 
# From -- ./inp_files/3919.got.cif
#   From: 2010.05.17/outbox.cif.g08.bks.cpg/sg42_2_cif.got.tgz:3919.got - 2010.06.03 19:03:34.
