data_PCOD9369667
_publ_section_title
;
Structure prediction by ZEFSAII (Michael W. Deem and Ramdas Pophale) SiO2 
 PCOD9369667
Probable space group: F M M 2
;
_chemical_formula_sum "Si O2"
_cell_formula_units_Z 96
_cell_length_a 24.299901
_cell_length_b 14.159009
_cell_length_c 13.629517
_cell_angle_alpha 90.000000
_cell_angle_beta 90.000000
_cell_angle_gamma 90.000000
_cell_volume 4689.405924
_symmetry_space_group_name_H-M "F M M 2"
_symmetry_group_IT_number 42
_symmetry_cell_setting 'orthorhombic'
loop_
_space_group_symop_operation_xyz
x,y,z
-x,-y,z
-x,y,z
x,-y,z
x,1/2+y,1/2+z
-x,1/2-y,1/2+z
-x,1/2+y,1/2+z
x,1/2-y,1/2+z
1/2+x,y,1/2+z
1/2-x,-y,1/2+z
1/2-x,y,1/2+z
1/2+x,-y,1/2+z
1/2+x,1/2+y,z
1/2-x,1/2-y,z
1/2-x,1/2+y,z
1/2+x,1/2-y,z
loop_
_atom_site_type_symbol
_atom_site_label
_atom_site_fract_x
_atom_site_fract_y
_atom_site_fract_z
Si Si1 0.062963 0.700267 0.257470
Si Si2 0.173127 0.886453 0.447440
Si Si3 0.939785 0.113936 0.540125
Si Si4 0.671262 0.292394 0.244021
Si Si5 0.160737 0.891409 0.844116
Si Si6 0.781863 0.387108 0.552393
O O1 0.064168 0.648194 0.152075
O O2 0.104217 0.788691 0.244936
O O3 0.095949 0.633371 0.333453
O O4 0.000000 0.720149 0.282719
O O5 0.113093 0.851441 0.480452
O O6 0.188094 0.849939 0.340196
O O7 0.219970 0.857785 0.524092
O O8 0.172649 0.000000 0.445206
O O9 0.000000 0.143416 0.501648
O O10 0.937991 0.000000 0.539775
O O11 0.813559 0.316815 0.267286
O O12 0.693988 0.333837 0.144941
O O13 0.171795 0.000000 0.819340
O O14 0.182950 0.872029 0.952792
O O15 0.782187 0.500000 0.571528
#
# Coordination Sequence:
#
# PCOD9369667 Si02
#       6
#    16  16  16  16  16  16
#     4   9  20  37  61  91 123 166 216 267 319 380
#     4  10  22  40  63  92 124 166 211 258 324 390
#     4   9  18  35  60  90 123 159 207 265 319 376
#     4  10  23  39  64  93 123 166 209 267 317 384
#     4   9  21  40  63  93 128 168 211 264 321 380
#     4  10  22  44  66  90 130 168 209 263 324 390
#
# _framework density 20.471677
#
# number of rings (size 3 to 8) (size 9 to 14) (size 15 to 20)
#    1.000    1.500    0.000    1.000    2.333    3.667 
#    3.000    5.833    0.000    3.500    0.000    0.000 
#    0.000    0.000    0.000    0.000    0.000    0.000 
#
# Total GULP energy -133991.760759 kJ/mol
# GULP energy per Si atom -5582.990032 kJ/mol
# Density = 2.042508 g / cm^3
# Si number density = 20.471677 Si / 1000 Ang^3
#
#
#
# Elastic Constant Matrix: (Units=GPa)
#
#
# Indices 1 2 3 4 5 6 
#
# 1 156.0845 49.6737 81.8098 0.0000 0.0000 0.0000
# 2 49.6737 70.2670 63.1826 0.0000 0.0000 0.0000
# 3 81.8098 63.1826 125.5683 0.0000 0.0000 0.0000
# 4 0.0000 0.0000 0.0000 34.3322 0.0000 0.0000
# 5 0.0000 0.0000 0.0000 0.0000 31.3617 0.0000
# 6 0.0000 0.0000 0.0000 0.0000 0.0000 23.0005
#
#
#
# Elastic Compliance Matrix: (Units=1/GPa)
#
#
# Indices 1 2 3 4 5 6 
#
# 1 0.009911 -0.002192 -0.005354 0.000000 0.000000 0.000000
# 2 -0.002192 0.026475 -0.011894 0.000000 0.000000 0.000000
# 3 -0.005354 -0.011894 0.017437 0.000000 0.000000 0.000000
# 4 0.000000 0.000000 0.000000 0.029127 0.000000 0.000000
# 5 0.000000 0.000000 0.000000 0.000000 0.031886 0.000000
# 6 0.000000 0.000000 0.000000 0.000000 0.000000 0.043477
#
#
# Mechanical properties :
#
#
# Convention : Reuss Voigt Hill
#
# Bulk Modulus (GPa) = 66.91871 82.36134 74.64003
# Shear Modulus (GPa) = 24.73122 28.22246 26.47684
#
# Velocity S-wave (km/s) = 3.47950 3.71699 3.60021
# Velocity P-wave (km/s) = 6.99299 7.66424 7.33630
#
# Compressibility (1/GPa) = 0.01494350
#
# Stress axis : x y z
#
# Youngs Moduli (GPa) = 100.90214 37.77077 57.35053
#
# Poissons Ratio (x) = 0.08279 0.30706
# Poissons Ratio (y) = 0.22116 0.68211
# Poissons Ratio (z) = 0.54023 0.44924
#
# Static dielectric constant tensor:
#      x y z
#    x 1.789900 0.000000 0.000000 
#    y 0.000000 1.738970 0.000000 
#    z 0.000000 0.000000 1.688690 
# 
# From -- ./inp_files/15819.got.cif
#   From: 2010.05.17/outbox.cif.g08.bks.cpg/sg42_8_cif.got.tgz:15819.got - 2010.06.03 19:03:34.
