data_PCOD9369923
_publ_section_title
;
Structure prediction by ZEFSAII (Michael W. Deem and Ramdas Pophale) SiO2 
 PCOD9369923
Probable space group: F M M 2
;
_chemical_formula_sum "Si O2"
_cell_formula_units_Z 96
_cell_length_a 8.787566
_cell_length_b 28.700346
_cell_length_c 20.821854
_cell_angle_alpha 90.000000
_cell_angle_beta 90.000000
_cell_angle_gamma 90.000000
_cell_volume 5251.400356
_symmetry_space_group_name_H-M "F M M 2"
_symmetry_group_IT_number 42
_symmetry_cell_setting 'orthorhombic'
loop_
_space_group_symop_operation_xyz
x,y,z
-x,-y,z
-x,y,z
x,-y,z
x,1/2+y,1/2+z
-x,1/2-y,1/2+z
-x,1/2+y,1/2+z
x,1/2-y,1/2+z
1/2+x,y,1/2+z
1/2-x,-y,1/2+z
1/2-x,y,1/2+z
1/2+x,-y,1/2+z
1/2+x,1/2+y,z
1/2-x,1/2-y,z
1/2-x,1/2+y,z
1/2+x,1/2-y,z
loop_
_atom_site_type_symbol
_atom_site_label
_atom_site_fract_x
_atom_site_fract_y
_atom_site_fract_z
Si Si1 0.318828 0.145360 0.886660
Si Si2 0.817661 0.946336 0.936395
Si Si3 0.681647 0.801600 0.509349
Si Si4 0.682127 0.801900 0.264609
Si Si5 0.180763 0.646100 0.131056
Si Si6 0.317387 0.946541 0.588075
O O1 0.500000 0.149316 0.887635
O O2 0.267888 0.091811 0.894611
O O3 0.248720 0.171801 0.947995
O O4 0.252674 0.169249 0.823205
O O5 0.000000 0.940120 0.929877
O O6 0.781526 0.000000 0.920488
O O7 0.781756 0.939430 0.012217
O O8 0.500000 0.800082 0.504892
O O9 0.750000 0.750000 0.511199
O O10 0.731770 0.828400 0.573458
O O11 0.500000 0.799129 0.272435
O O12 0.750000 0.750000 0.263302
O O13 0.714953 0.828438 0.197948
O O14 0.232944 0.592474 0.128882
O O15 0.000000 0.649222 0.119507
O O16 0.500000 0.941384 0.594550
O O17 0.278159 0.000000 0.604175
#
# Coordination Sequence:
#
# PCOD9369923 Si02
#       6
#    16  16  16  16  16  16
#     4  12  24  39  61  90 121 155 201 248 298 356
#     4   9  18  35  60  90 123 159 197 242 299 354
#     4  12  24  39  60  86 119 154 195 248 301 353
#     4  11  25  44  63  85 119 161 203 247 302 360
#     4  11  23  39  61  91 121 155 200 247 298 356
#     4   9  18  34  59  90 123 160 198 242 298 353
#
# _framework density 18.280839
#
# number of rings (size 3 to 8) (size 9 to 14) (size 15 to 20)
#    0.000    1.333    1.667    6.000    0.000    4.667 
#    0.000    2.500    0.000    1.000    0.000    0.000 
#    0.000    0.000    0.000    0.000    0.000    0.000 
#
# Total GULP energy -134188.157147 kJ/mol
# GULP energy per Si atom -5591.173214 kJ/mol
# Density = 1.823923 g / cm^3
# Si number density = 18.280839 Si / 1000 Ang^3
#
#
#
# Elastic Constant Matrix: (Units=GPa)
#
#
# Indices 1 2 3 4 5 6 
#
# 1 116.1323 81.4192 84.1077 0.0000 0.0000 0.0000
# 2 81.4192 162.4277 80.4136 0.0000 0.0000 0.0000
# 3 84.1077 80.4136 120.9321 0.0000 0.0000 0.0000
# 4 0.0000 0.0000 0.0000 29.9480 0.0000 0.0000
# 5 0.0000 0.0000 0.0000 0.0000 29.0327 0.0000
# 6 0.0000 0.0000 0.0000 0.0000 0.0000 36.1847
#
#
#
# Elastic Compliance Matrix: (Units=1/GPa)
#
#
# Indices 1 2 3 4 5 6 
#
# 1 0.019353 -0.004528 -0.010449 0.000000 0.000000 0.000000
# 2 -0.004528 0.010237 -0.003658 0.000000 0.000000 0.000000
# 3 -0.010449 -0.003658 0.017969 0.000000 0.000000 0.000000
# 4 0.000000 0.000000 0.000000 0.033391 0.000000 0.000000
# 5 0.000000 0.000000 0.000000 0.000000 0.034444 0.000000
# 6 0.000000 0.000000 0.000000 0.000000 0.000000 0.027636
#
#
# Mechanical properties :
#
#
# Convention : Reuss Voigt Hill
#
# Bulk Modulus (GPa) = 97.19217 99.04144 98.11680
# Shear Modulus (GPa) = 27.21380 29.26984 28.24182
#
# Velocity S-wave (km/s) = 3.86249 4.00574 3.93477
# Velocity P-wave (km/s) = 8.55414 8.70000 8.62738
#
# Compressibility (1/GPa) = 0.01028890
#
# Stress axis : x y z
#
# Youngs Moduli (GPa) = 51.67163 97.68200 55.65178
#
# Poissons Ratio (x) = 0.44229 0.58151
# Poissons Ratio (y) = 0.23396 0.20358
# Poissons Ratio (z) = 0.53992 0.35734
#
# Static dielectric constant tensor:
#      x y z
#    x 1.609020 0.000000 0.000000 
#    y 0.000000 1.626980 0.000000 
#    z 0.000000 0.000000 1.596670 
# 
# From -- ./inp_files/23708.got.cif
#   From: 2010.05.17/outbox.cif.g08.bks.cpg/sg42_12_cif.got.tgz:23708.got - 2010.06.03 19:03:34.
