data_PCOD9369031
_publ_section_title
;
Structure prediction by ZEFSAII (Michael W. Deem and Ramdas Pophale) SiO2 
 PCOD9369031
Probable space group: F M M 2
;
_chemical_formula_sum "Si O2"
_cell_formula_units_Z 100
_cell_length_a 18.759970
_cell_length_b 13.825016
_cell_length_c 14.562066
_cell_angle_alpha 90.000000
_cell_angle_beta 90.000000
_cell_angle_gamma 90.000000
_cell_volume 3776.772083
_symmetry_space_group_name_H-M "F M M 2"
_symmetry_group_IT_number 42
_symmetry_cell_setting 'orthorhombic'
loop_
_space_group_symop_operation_xyz
x,y,z
-x,-y,z
-x,y,z
x,-y,z
x,1/2+y,1/2+z
-x,1/2-y,1/2+z
-x,1/2+y,1/2+z
x,1/2-y,1/2+z
1/2+x,y,1/2+z
1/2-x,-y,1/2+z
1/2-x,y,1/2+z
1/2+x,-y,1/2+z
1/2+x,1/2+y,z
1/2-x,1/2-y,z
1/2-x,1/2+y,z
1/2+x,1/2-y,z
loop_
_atom_site_type_symbol
_atom_site_label
_atom_site_fract_x
_atom_site_fract_y
_atom_site_fract_z
Si Si1 0.000000 0.000000 0.692611
Si Si2 0.096119 0.605889 0.641151
Si Si3 0.421123 0.681127 0.415804
Si Si4 0.612182 0.897331 0.431662
Si Si5 0.262860 0.863424 0.877987
Si Si6 0.905766 0.816935 0.635478
Si Si7 0.762799 0.397616 0.168426
O O1 0.060941 0.088534 0.682642
O O2 0.076089 0.500000 0.680755
O O3 0.079196 0.603862 0.533084
O O4 0.073453 0.711656 0.676100
O O5 0.181045 0.610583 0.645008
O O6 0.500000 0.647931 0.384120
O O7 0.409436 0.794632 0.388037
O O8 0.348042 0.623604 0.390541
O O9 0.423373 0.679112 0.527106
O O10 0.698518 0.899987 0.441805
O O11 0.589833 0.000000 0.386705
O O12 0.250000 0.750000 0.882508
O O13 0.238732 0.897396 0.778365
O O14 0.820081 0.820653 0.638403
O O15 0.788786 0.500000 0.130363
#
# Coordination Sequence:
#
# PCOD9369031 Si02
#       7
#     4  16  16  16  16  16  16
#     4  12  24  40  62  92 132 172 206 256 328 384
#     4   9  19  35  62  92 118 159 212 272 317 358
#     4  10  21  38  62  91 129 165 199 257 327 381
#     4   9  18  35  59  88 118 159 216 261 306 371
#     4  10  20  35  59  87 123 169 212 263 313 370
#     4  11  21  40  61  93 132 166 212 259 315 389
#     4  11  21  36  62  90 123 164 217 272 316 369
#
# _framework density 26.477637000000001
#
# number of rings (size 3 to 8) (size 9 to 14) (size 15 to 20)
#    0.000    1.920    1.600    2.880    0.000    2.880 
#    2.880    0.400   15.840    0.000    0.000    0.000 
#    0.000    0.000    0.000    0.000    0.000    0.000 
#
# Total GULP energy -139313.790014 kJ/mol
# GULP energy per Si atom -5572.551601 kJ/mol
# Density = 2.641737 g / cm^3
# Si number density = 26.477637 Si / 1000 Ang^3
#
#
#
# Elastic Constant Matrix: (Units=GPa)
#
#
# Indices 1 2 3 4 5 6 
#
# 1 234.6482 27.0450 -2.1488 0.0000 0.0000 0.0000
# 2 27.0450 209.3182 9.2085 0.0000 0.0000 0.0000
# 3 -2.1488 9.2085 52.0446 0.0000 0.0000 0.0000
# 4 0.0000 0.0000 0.0000 20.4003 0.0000 0.0000
# 5 0.0000 0.0000 0.0000 0.0000 -29.5203 0.0000
# 6 0.0000 0.0000 0.0000 0.0000 0.0000 -6.3690
#
#
#
# Elastic Compliance Matrix: (Units=1/GPa)
#
#
# Indices 1 2 3 4 5 6 
#
# 1 0.004330 -0.000572 0.000280 0.000000 0.000000 0.000000
# 2 -0.000572 0.004890 -0.000889 0.000000 0.000000 0.000000
# 3 0.000280 -0.000889 0.019383 0.000000 0.000000 0.000000
# 4 0.000000 0.000000 0.000000 0.049019 0.000000 0.000000
# 5 0.000000 0.000000 0.000000 0.000000 -0.033875 0.000000
# 6 0.000000 0.000000 0.000000 0.000000 0.000000 -0.157011
#
#
# Mechanical properties :
#
#
# Convention : Reuss Voigt Hill
#
# Bulk Modulus (GPa) = 38.10652 62.69115 50.39883
# Shear Modulus (GPa) = -48.94560 27.69596 -10.62482
#
# Velocity S-wave (km/s) = -4.30416 3.23772 -2.00536
# Velocity P-wave (km/s) = 3.20590 6.14048 3.70322
#
# Compressibility (1/GPa) = 0.02624223
#
# Stress axis : x y z
#
# Youngs Moduli (GPa) = 230.93802 204.48228 51.59125
#
# Poissons Ratio (x) = 0.11692 -0.01444
# Poissons Ratio (y) = 0.13205 0.04586
# Poissons Ratio (z) = -0.06465 0.18176
#
# Static dielectric constant tensor:
#      x y z
#    x 2.097890 0.000000 0.000000 
#    y 0.000000 2.119640 0.000000 
#    z 0.000000 0.000000 2.092090 
# 
# From -- ./inp_files/21705.got.cif
#   From: 2010.05.17/outbox.cif.g08.bks.cpg/sg42_11_cif.got.tgz:21705.got - 2010.06.03 19:03:34.
