data_PCOD9369218
_publ_section_title
;
Structure prediction by ZEFSAII (Michael W. Deem and Ramdas Pophale) SiO2 
 PCOD9369218
Probable space group: F M M 2
;
_chemical_formula_sum "Si O2"
_cell_formula_units_Z 88
_cell_length_a 15.514689
_cell_length_b 19.164442
_cell_length_c 13.714118
_cell_angle_alpha 90.000000
_cell_angle_beta 90.000000
_cell_angle_gamma 90.000000
_cell_volume 4077.623608
_symmetry_space_group_name_H-M "F M M 2"
_symmetry_group_IT_number 42
_symmetry_cell_setting 'orthorhombic'
loop_
_space_group_symop_operation_xyz
x,y,z
-x,-y,z
-x,y,z
x,-y,z
x,1/2+y,1/2+z
-x,1/2-y,1/2+z
-x,1/2+y,1/2+z
x,1/2-y,1/2+z
1/2+x,y,1/2+z
1/2-x,-y,1/2+z
1/2-x,y,1/2+z
1/2+x,-y,1/2+z
1/2+x,1/2+y,z
1/2-x,1/2-y,z
1/2-x,1/2+y,z
1/2+x,1/2-y,z
loop_
_atom_site_type_symbol
_atom_site_label
_atom_site_fract_x
_atom_site_fract_y
_atom_site_fract_z
Si Si1 0.670985 0.707421 0.993730
Si Si2 0.854300 0.919767 0.316510
Si Si3 0.500000 0.236310 0.578833
Si Si4 0.000000 0.627468 0.185612
Si Si5 0.500000 0.584257 0.460875
Si Si6 0.750000 0.750000 0.178194
Si Si7 0.000000 0.421183 0.652808
Si Si8 0.665041 0.642359 0.800434
O O1 0.750000 0.750000 0.946475
O O2 0.645417 0.650326 0.915065
O O3 0.586336 0.750888 0.018624
O O4 0.711536 0.693214 0.101023
O O5 0.916561 0.918109 0.222898
O O6 0.761624 0.887274 0.296799
O O7 0.914064 0.890347 0.403962
O O8 0.836683 0.000000 0.341456
O O9 0.500000 0.287910 0.670724
O O10 0.500000 0.152519 0.596243
O O11 0.000000 0.600296 0.074974
O O12 0.913597 0.606665 0.243679
O O13 0.500000 0.500000 0.447927
O O14 0.677461 0.783600 0.244873
O O15 0.000000 0.500000 0.606763
#
# Coordination Sequence:
#
# PCOD9369218 Si02
#       8
#    16  16   8   8   8   8   8  16
#     4  10  23  38  56  88 134 165 207 266 320 399
#     4   9  21  42  68  94 125 171 225 273 327 391
#     4  12  22  40  60  90 134 171 216 268 339 390
#     4  12  26  38  64 104 136 169 224 274 342 393
#     4   9  22  45  68  97 132 178 229 278 328 406
#     4  10  20  38  58  88 124 170 212 256 318 388
#     4   9  20  41  68  93 122 170 225 276 323 399
#     4  12  23  40  63  95 132 173 213 274 332 392
#
# _framework density 21.581197
#
# number of rings (size 3 to 8) (size 9 to 14) (size 15 to 20)
#    0.545    1.091    2.727    2.727    5.091    0.727 
#    3.273    0.909    0.000    1.091    0.000    0.000 
#    0.000    0.000    0.000    0.000    0.000    0.000 
#
# Total GULP energy -122502.507820 kJ/mol
# GULP energy per Si atom -5568.295810 kJ/mol
# Density = 2.153208 g / cm^3
# Si number density = 21.581197 Si / 1000 Ang^3
#
#
#
# Elastic Constant Matrix: (Units=GPa)
#
#
# Indices 1 2 3 4 5 6 
#
# 1 184.0165 14.3884 49.9433 0.0000 0.0000 0.0000
# 2 14.3884 60.4900 26.9641 0.0000 0.0000 0.0000
# 3 49.9433 26.9641 92.5681 0.0000 0.0000 0.0000
# 4 0.0000 0.0000 0.0000 30.9442 0.0000 0.0000
# 5 0.0000 0.0000 0.0000 0.0000 14.4994 0.0000
# 6 0.0000 0.0000 0.0000 0.0000 0.0000 16.0898
#
#
#
# Elastic Compliance Matrix: (Units=1/GPa)
#
#
# Indices 1 2 3 4 5 6 
#
# 1 0.006367 0.000019 -0.003441 0.000000 0.000000 0.000000
# 2 0.000019 0.018999 -0.005545 0.000000 0.000000 0.000000
# 3 -0.003441 -0.005545 0.014274 0.000000 0.000000 0.000000
# 4 0.000000 0.000000 0.000000 0.032316 0.000000 0.000000
# 5 0.000000 0.000000 0.000000 0.000000 0.068968 0.000000
# 6 0.000000 0.000000 0.000000 0.000000 0.000000 0.062151
#
#
# Mechanical properties :
#
#
# Convention : Reuss Voigt Hill
#
# Bulk Modulus (GPa) = 46.06635 57.74068 51.90351
# Shear Modulus (GPa) = 21.90653 28.69195 25.29924
#
# Velocity S-wave (km/s) = 3.18948 3.65017 3.42757
# Velocity P-wave (km/s) = 5.91233 6.67669 6.30610
#
# Compressibility (1/GPa) = 0.02170782
#
# Stress axis : x y z
#
# Youngs Moduli (GPa) = 157.07015 52.63545 70.05642
#
# Poissons Ratio (x) = -0.00102 0.24104
# Poissons Ratio (y) = -0.00303 0.38843
# Poissons Ratio (z) = 0.54041 0.29184
#
# Static dielectric constant tensor:
#      x y z
#    x 1.818500 0.000000 0.000000 
#    y 0.000000 1.850880 0.000000 
#    z 0.000000 0.000000 1.784380 
# 
# From -- ./inp_files/13956.got.cif
#   From: 2010.05.17/outbox.cif.g08.bks.cpg/sg42_7_cif.got.tgz:13956.got - 2010.06.03 19:03:34.
