data_PCOD9369764
_publ_section_title
;
Structure prediction by ZEFSAII (Michael W. Deem and Ramdas Pophale) SiO2 
 PCOD9369764
Probable space group: F M M 2
;
_chemical_formula_sum "Si O2"
_cell_formula_units_Z 72
_cell_length_a 15.258782
_cell_length_b 9.327530
_cell_length_c 26.118610
_cell_angle_alpha 90.000000
_cell_angle_beta 90.000000
_cell_angle_gamma 90.000000
_cell_volume 3717.376794
_symmetry_space_group_name_H-M "F M M 2"
_symmetry_group_IT_number 42
_symmetry_cell_setting 'orthorhombic'
loop_
_space_group_symop_operation_xyz
x,y,z
-x,-y,z
-x,y,z
x,-y,z
x,1/2+y,1/2+z
-x,1/2-y,1/2+z
-x,1/2+y,1/2+z
x,1/2-y,1/2+z
1/2+x,y,1/2+z
1/2-x,-y,1/2+z
1/2-x,y,1/2+z
1/2+x,-y,1/2+z
1/2+x,1/2+y,z
1/2-x,1/2-y,z
1/2-x,1/2+y,z
1/2+x,1/2-y,z
loop_
_atom_site_type_symbol
_atom_site_label
_atom_site_fract_x
_atom_site_fract_y
_atom_site_fract_z
Si Si1 0.750000 0.750000 0.446131
Si Si2 0.329092 0.339890 0.046558
Si Si3 0.899690 0.664097 0.868012
Si Si4 0.000000 0.672446 0.074943
Si Si5 0.500000 0.827026 0.194320
Si Si6 0.157725 0.327379 0.267640
O O1 0.700402 0.849516 0.487220
O O2 0.825161 0.817330 0.410851
O O3 0.340422 0.500000 0.067241
O O4 0.250000 0.250000 0.072349
O O5 0.414780 0.243802 0.050534
O O6 0.894221 0.500000 0.848587
O O7 0.878532 0.773396 0.822346
O O8 0.000000 0.686211 0.886512
O O9 0.000000 0.500000 0.069557
O O10 0.000000 0.712725 0.135070
O O11 0.586614 0.782517 0.225066
O O12 0.500000 0.000000 0.195715
O O13 0.167023 0.500000 0.267728
O O14 0.250000 0.250000 0.259038
#
# Coordination Sequence:
#
# PCOD9369764 Si02
#       6
#     8  16  16   8   8  16
#     4  10  24  38  66  90 130 164 212 252 320 362
#     4  10  23  42  64  93 127 163 212 263 316 377
#     4  11  23  39  62  93 127 167 211 253 306 369
#     4  11  23  43  70  93 126 165 210 269 324 375
#     4   9  22  43  64  91 124 165 206 255 322 373
#     4  11  22  40  63  90 127 165 207 255 308 370
#
# _framework density 19.368497000000001
#
# number of rings (size 3 to 8) (size 9 to 14) (size 15 to 20)
#    0.667    0.889    2.222    2.333    1.556    1.778 
#    0.000    6.667    0.000    0.000    0.000    0.000 
#    0.000    0.000    0.000    0.000    0.000    0.000 
#
# Total GULP energy -100363.443191 kJ/mol
# GULP energy per Si atom -5575.746844 kJ/mol
# Density = 1.932441 g / cm^3
# Si number density = 19.368497 Si / 1000 Ang^3
#
#
#
# Elastic Constant Matrix: (Units=GPa)
#
#
# Indices 1 2 3 4 5 6 
#
# 1 187.8425 67.1406 45.7192 0.0000 0.0000 0.0000
# 2 67.1406 130.9213 25.4298 0.0000 0.0000 0.0000
# 3 45.7192 25.4298 75.7688 0.0000 0.0000 0.0000
# 4 0.0000 0.0000 0.0000 -2.5495 0.0000 0.0000
# 5 0.0000 0.0000 0.0000 0.0000 48.3320 0.0000
# 6 0.0000 0.0000 0.0000 0.0000 0.0000 13.4958
#
#
#
# Elastic Compliance Matrix: (Units=1/GPa)
#
#
# Indices 1 2 3 4 5 6 
#
# 1 0.007229 -0.003059 -0.003335 0.000000 0.000000 0.000000
# 2 -0.003059 0.009466 -0.001331 0.000000 0.000000 0.000000
# 3 -0.003335 -0.001331 0.015657 0.000000 0.000000 0.000000
# 4 0.000000 0.000000 0.000000 -0.392226 0.000000 0.000000
# 5 0.000000 0.000000 0.000000 0.000000 0.020690 0.000000
# 6 0.000000 0.000000 0.000000 0.000000 0.000000 0.074097
#
#
# Mechanical properties :
#
#
# Convention : Reuss Voigt Hill
#
# Bulk Modulus (GPa) = 59.16835 74.56795 66.86815
# Shear Modulus (GPa) = -20.49154 28.93853 4.22349
#
# Velocity S-wave (km/s) = -3.25619 3.86956 1.47829
# Velocity P-wave (km/s) = 4.05931 7.65165 6.12478
#
# Compressibility (1/GPa) = 0.01690093
#
# Stress axis : x y z
#
# Youngs Moduli (GPa) = 138.33430 105.64549 63.86863
#
# Poissons Ratio (x) = 0.32321 0.21301
# Poissons Ratio (y) = 0.42322 0.08500
# Poissons Ratio (z) = 0.46136 0.14060
#
# Static dielectric constant tensor:
#      x y z
#    x 1.670520 0.000000 0.000000 
#    y 0.000000 1.661020 0.000000 
#    z 0.000000 0.000000 1.676150 
# 
# From -- ./inp_files/32450.got.cif
#   From: 2010.05.17/outbox.cif.g08.bks.cpg/sg42_17_cif.got.tgz:32450.got - 2010.06.03 19:03:34.
