data_PCOD9369729
_publ_section_title
;
Structure prediction by ZEFSAII (Michael W. Deem and Ramdas Pophale) SiO2 
 PCOD9369729
Probable space group: F M M 2
;
_chemical_formula_sum "Si O2"
_cell_formula_units_Z 68
_cell_length_a 15.020593
_cell_length_b 17.224090
_cell_length_c 11.947188
_cell_angle_alpha 90.000000
_cell_angle_beta 90.000000
_cell_angle_gamma 90.000000
_cell_volume 3090.929236
_symmetry_space_group_name_H-M "F M M 2"
_symmetry_group_IT_number 42
_symmetry_cell_setting 'orthorhombic'
loop_
_space_group_symop_operation_xyz
x,y,z
-x,-y,z
-x,y,z
x,-y,z
x,1/2+y,1/2+z
-x,1/2-y,1/2+z
-x,1/2+y,1/2+z
x,1/2-y,1/2+z
1/2+x,y,1/2+z
1/2-x,-y,1/2+z
1/2-x,y,1/2+z
1/2+x,-y,1/2+z
1/2+x,1/2+y,z
1/2-x,1/2-y,z
1/2-x,1/2+y,z
1/2+x,1/2-y,z
loop_
_atom_site_type_symbol
_atom_site_label
_atom_site_fract_x
_atom_site_fract_y
_atom_site_fract_z
Si Si1 0.226482 0.159554 0.008410
Si Si2 0.598719 0.908958 0.078688
Si Si3 0.598906 0.854143 0.713805
Si Si4 0.102696 0.310954 0.306853
Si Si5 0.000000 0.500000 0.795029
O O1 0.250000 0.250000 0.025981
O O2 0.318382 0.113801 0.003740
O O3 0.168214 0.132584 0.114624
O O4 0.167396 0.153265 0.898044
O O5 0.500000 0.894430 0.028760
O O6 0.606864 0.857623 0.190631
O O7 0.602022 0.000000 0.105645
O O8 0.500000 0.831797 0.664709
O O9 0.627297 0.778783 0.783915
O O10 0.576499 0.931287 0.782011
O O11 0.000000 0.312934 0.345961
#
# Coordination Sequence:
#
# PCOD9369729 Si02
#       5
#    16  16  16  16   4
#     4  12  24  37  71 101 133 177 238 280 338 413
#     4  10  24  46  68  96 143 186 224 284 346 403
#     4   9  20  41  66 103 139 175 222 281 345 407
#     4  10  22  43  70 102 134 179 231 282 341 416
#     4   8  20  40  72 100 144 182 212 284 364 400
#
# _framework density 21.999855
#
# number of rings (size 3 to 8) (size 9 to 14) (size 15 to 20)
#    0.706    1.176    2.353    0.706    4.941    1.882 
#    0.000    0.000    2.588    0.000    0.000    0.000 
#    0.000    0.000    0.000    0.000    0.000    0.000 
#
# Total GULP energy -94798.489513 kJ/mol
# GULP energy per Si atom -5576.381736 kJ/mol
# Density = 2.194978 g / cm^3
# Si number density = 21.999855 Si / 1000 Ang^3
#
#
#
# Elastic Constant Matrix: (Units=GPa)
#
#
# Indices 1 2 3 4 5 6 
#
# 1 142.7435 46.3848 78.6973 0.0000 0.0000 0.0000
# 2 46.3848 127.0927 39.8345 0.0000 0.0000 0.0000
# 3 78.6973 39.8345 85.5915 0.0000 0.0000 0.0000
# 4 0.0000 0.0000 0.0000 -18.7914 0.0000 0.0000
# 5 0.0000 0.0000 0.0000 0.0000 29.2975 0.0000
# 6 0.0000 0.0000 0.0000 0.0000 0.0000 38.4910
#
#
#
# Elastic Compliance Matrix: (Units=1/GPa)
#
#
# Indices 1 2 3 4 5 6 
#
# 1 0.014387 -0.001293 -0.012626 0.000000 0.000000 0.000000
# 2 -0.001293 0.009328 -0.003152 0.000000 0.000000 0.000000
# 3 -0.012626 -0.003152 0.024760 0.000000 0.000000 0.000000
# 4 0.000000 0.000000 0.000000 -0.053216 0.000000 0.000000
# 5 0.000000 0.000000 0.000000 0.000000 0.034133 0.000000
# 6 0.000000 0.000000 0.000000 0.000000 0.000000 0.025980
#
#
# Mechanical properties :
#
#
# Convention : Reuss Voigt Hill
#
# Bulk Modulus (GPa) = 69.77714 76.14009 72.95861
# Shear Modulus (GPa) = 53.02675 22.50018 37.76346
#
# Velocity S-wave (km/s) = 4.91483 3.20150 4.14760
# Velocity P-wave (km/s) = 7.99958 6.95346 7.49480
#
# Compressibility (1/GPa) = 0.01433134
#
# Stress axis : x y z
#
# Youngs Moduli (GPa) = 69.50780 107.20055 40.38841
#
# Poissons Ratio (x) = 0.13865 0.50995
# Poissons Ratio (y) = 0.08990 0.12731
# Poissons Ratio (z) = 0.87761 0.33792
#
# Static dielectric constant tensor:
#      x y z
#    x 1.833320 0.000000 0.000000 
#    y 0.000000 1.769970 0.000000 
#    z 0.000000 0.000000 1.817680 
# 
# From -- ./inp_files/7631.got.cif
#   From: 2010.05.17/outbox.cif.g08.bks.cpg/sg42_4_cif.got.tgz:7631.got - 2010.06.03 19:03:34.
