data_PCOD9369611
_publ_section_title
;
Structure prediction by ZEFSAII (Michael W. Deem and Ramdas Pophale) SiO2 
 PCOD9369611
Probable space group: F M M 2
;
_chemical_formula_sum "Si O2"
_cell_formula_units_Z 92
_cell_length_a 7.548742
_cell_length_b 22.350743
_cell_length_c 28.446045
_cell_angle_alpha 90.000000
_cell_angle_beta 90.000000
_cell_angle_gamma 90.000000
_cell_volume 4799.416497
_symmetry_space_group_name_H-M "F M M 2"
_symmetry_group_IT_number 42
_symmetry_cell_setting 'orthorhombic'
loop_
_space_group_symop_operation_xyz
x,y,z
-x,-y,z
-x,y,z
x,-y,z
x,1/2+y,1/2+z
-x,1/2-y,1/2+z
-x,1/2+y,1/2+z
x,1/2-y,1/2+z
1/2+x,y,1/2+z
1/2-x,-y,1/2+z
1/2-x,y,1/2+z
1/2+x,-y,1/2+z
1/2+x,1/2+y,z
1/2-x,1/2-y,z
1/2-x,1/2+y,z
1/2+x,1/2-y,z
loop_
_atom_site_type_symbol
_atom_site_label
_atom_site_fract_x
_atom_site_fract_y
_atom_site_fract_z
Si Si1 0.787945 0.869319 0.020330
Si Si2 0.210066 0.319859 0.621718
Si Si3 0.000000 0.431013 0.283612
Si Si4 0.785506 0.931636 0.364079
Si Si5 0.201246 0.681789 0.922863
Si Si6 0.500000 0.000000 0.122656
Si Si7 0.713376 0.000000 0.541131
Si Si8 0.000000 0.620513 0.182737
O O1 0.731747 0.850140 0.072496
O O2 0.741199 0.939028 0.014051
O O3 0.000000 0.863955 0.019000
O O4 0.718024 0.828676 0.978590
O O5 0.250000 0.250000 0.617077
O O6 0.326823 0.345267 0.663905
O O7 0.000000 0.330073 0.627864
O O8 0.173421 0.423450 0.316322
O O9 0.000000 0.500000 0.267276
O O10 0.000000 0.389406 0.238216
O O11 0.720392 0.877489 0.397877
O O12 0.000000 0.929385 0.357304
O O13 0.746320 0.000000 0.381156
O O14 0.250000 0.750000 0.911140
O O15 0.000000 0.677936 0.908838
O O16 0.672170 0.000000 0.088747
O O17 0.500000 0.942327 0.155426
O O18 0.500000 0.000000 0.550455
#
# Coordination Sequence:
#
# PCOD9369611 Si02
#       8
#    16  16   8  16  16   4   8   8
#     4  10  22  37  57  88 125 167 208 252 302 365
#     4  11  23  40  62  88 130 171 210 256 306 368
#     4  10  22  42  70  94 119 158 205 258 319 372
#     4   9  21  43  66  93 122 156 204 263 314 370
#     4  11  24  38  61  90 125 164 209 249 310 372
#     4  12  22  38  66  86 128 164 202 260 312 364
#     4  10  22  38  54  87 127 169 211 256 306 354
#     4  12  24  40  66  97 123 161 213 256 315 378
#
# _framework density 19.168996
#
# number of rings (size 3 to 8) (size 9 to 14) (size 15 to 20)
#    0.000    1.565    3.043    1.043    6.087    2.087 
#    0.000    0.870    0.000    0.000    0.000    0.000 
#    0.000    0.000    0.000    0.000    0.000    0.000 
#
# Total GULP energy -128305.100020 kJ/mol
# GULP energy per Si atom -5578.482610 kJ/mol
# Density = 1.912537 g / cm^3
# Si number density = 19.168996 Si / 1000 Ang^3
#
#
#
# Elastic Constant Matrix: (Units=GPa)
#
#
# Indices 1 2 3 4 5 6 
#
# 1 71.8663 31.3158 21.7581 0.0000 0.0000 0.0000
# 2 31.3158 145.3025 56.1344 0.0000 0.0000 0.0000
# 3 21.7581 56.1344 82.9498 0.0000 0.0000 0.0000
# 4 0.0000 0.0000 0.0000 20.4498 0.0000 0.0000
# 5 0.0000 0.0000 0.0000 0.0000 20.2198 0.0000
# 6 0.0000 0.0000 0.0000 0.0000 0.0000 33.7392
#
#
#
# Elastic Compliance Matrix: (Units=1/GPa)
#
#
# Indices 1 2 3 4 5 6 
#
# 1 0.015725 -0.002431 -0.002479 0.000000 0.000000 0.000000
# 2 -0.002431 0.009694 -0.005923 0.000000 0.000000 0.000000
# 3 -0.002479 -0.005923 0.016714 0.000000 0.000000 0.000000
# 4 0.000000 0.000000 0.000000 0.048900 0.000000 0.000000
# 5 0.000000 0.000000 0.000000 0.000000 0.049457 0.000000
# 6 0.000000 0.000000 0.000000 0.000000 0.000000 0.029639
#
#
# Mechanical properties :
#
#
# Convention : Reuss Voigt Hill
#
# Bulk Modulus (GPa) = 48.86060 57.61501 53.23781
# Shear Modulus (GPa) = 25.17404 27.60912 26.39158
#
# Velocity S-wave (km/s) = 3.62784 3.79925 3.71453
# Velocity P-wave (km/s) = 6.56452 7.02619 6.79928
#
# Compressibility (1/GPa) = 0.02046639
#
# Stress axis : x y z
#
# Youngs Moduli (GPa) = 63.59391 103.15392 59.83053
#
# Poissons Ratio (x) = 0.25078 0.14835
# Poissons Ratio (y) = 0.15461 0.35436
# Poissons Ratio (z) = 0.15768 0.61095
#
# Static dielectric constant tensor:
#      x y z
#    x 1.682140 0.000000 0.000000 
#    y 0.000000 1.734810 0.000000 
#    z 0.000000 0.000000 1.632980 
# 
# From -- ./inp_files/30228.got.cif
#   From: 2010.05.17/outbox.cif.g08.bks.cpg/sg42_16_cif.got.tgz:30228.got - 2010.06.03 19:03:34.
