data_PCOD9369251
_publ_section_title
;
Structure prediction by ZEFSAII (Michael W. Deem and Ramdas Pophale) SiO2 
 PCOD9369251
Probable space group: F M M 2
;
_chemical_formula_sum "Si O2"
_cell_formula_units_Z 88
_cell_length_a 21.417519
_cell_length_b 13.721269
_cell_length_c 12.898189
_cell_angle_alpha 90.000000
_cell_angle_beta 90.000000
_cell_angle_gamma 90.000000
_cell_volume 3790.462251
_symmetry_space_group_name_H-M "F M M 2"
_symmetry_group_IT_number 42
_symmetry_cell_setting 'orthorhombic'
loop_
_space_group_symop_operation_xyz
x,y,z
-x,-y,z
-x,y,z
x,-y,z
x,1/2+y,1/2+z
-x,1/2-y,1/2+z
-x,1/2+y,1/2+z
x,1/2-y,1/2+z
1/2+x,y,1/2+z
1/2-x,-y,1/2+z
1/2-x,y,1/2+z
1/2+x,-y,1/2+z
1/2+x,1/2+y,z
1/2-x,1/2-y,z
1/2-x,1/2+y,z
1/2+x,1/2-y,z
loop_
_atom_site_type_symbol
_atom_site_label
_atom_site_fract_x
_atom_site_fract_y
_atom_site_fract_z
Si Si1 0.293997 0.385461 0.904180
Si Si2 0.250000 0.750000 0.229026
Si Si3 0.652938 0.115951 0.971578
Si Si4 0.651186 0.884466 0.613487
Si Si5 0.428471 0.612542 0.667984
Si Si6 0.570598 0.802971 0.786889
O O1 0.296294 0.500000 0.877482
O O2 0.290783 0.319746 0.803153
O O3 0.226681 0.366838 0.960187
O O4 0.346161 0.364245 0.990648
O O5 0.294042 0.679017 0.164703
O O6 0.616995 0.163673 0.876193
O O7 0.643896 0.000000 0.962365
O O8 0.621257 0.143069 0.080408
O O9 0.590670 0.855588 0.679438
O O10 0.663738 0.000000 0.625982
O O11 0.500000 0.617567 0.625692
O O12 0.416894 0.500000 0.697281
O O13 0.426609 0.688303 0.761480
O O14 0.500000 0.829201 0.815178
#
# Coordination Sequence:
#
# PCOD9369251 Si02
#       6
#    16   8  16  16  16  16
#     4  10  23  40  59  89 129 165 207 264 317 375
#     4  12  22  38  66  90 118 168 212 260 314 370
#     4  10  20  38  64  91 122 167 219 263 309 367
#     4  11  25  42  62  94 130 165 210 261 318 379
#     4   9  20  38  60  89 125 164 211 262 310 372
#     4  11  23  39  66  99 129 165 211 264 319 375
#
# _framework density 23.216166000000001
#
# number of rings (size 3 to 8) (size 9 to 14) (size 15 to 20)
#    0.000    1.636    1.818    2.182    5.091    2.182 
#    0.000    0.909    0.000    2.182    0.000    5.091 
#    0.000    0.000    0.000    0.000    0.000    0.000 
#
# Total GULP energy -123241.638431 kJ/mol
# GULP energy per Si atom -5601.892656 kJ/mol
# Density = 2.316333 g / cm^3
# Si number density = 23.216166 Si / 1000 Ang^3
#
#
#
# Elastic Constant Matrix: (Units=GPa)
#
#
# Indices 1 2 3 4 5 6 
#
# 1 71.8135 10.7088 8.1988 0.0000 0.0000 0.0000
# 2 10.7088 104.2662 41.8552 0.0000 0.0000 0.0000
# 3 8.1988 41.8552 82.3581 0.0000 0.0000 0.0000
# 4 0.0000 0.0000 0.0000 30.2082 0.0000 0.0000
# 5 0.0000 0.0000 0.0000 0.0000 35.2352 0.0000
# 6 0.0000 0.0000 0.0000 0.0000 0.0000 30.3915
#
#
#
# Elastic Compliance Matrix: (Units=1/GPa)
#
#
# Indices 1 2 3 4 5 6 
#
# 1 0.014188 -0.001118 -0.000844 0.000000 0.000000 0.000000
# 2 -0.001118 0.012137 -0.006057 0.000000 0.000000 0.000000
# 3 -0.000844 -0.006057 0.015304 0.000000 0.000000 0.000000
# 4 0.000000 0.000000 0.000000 0.033104 0.000000 0.000000
# 5 0.000000 0.000000 0.000000 0.000000 0.028381 0.000000
# 6 0.000000 0.000000 0.000000 0.000000 0.000000 0.032904
#
#
# Mechanical properties :
#
#
# Convention : Reuss Voigt Hill
#
# Bulk Modulus (GPa) = 39.07642 42.21814 40.64728
# Shear Modulus (GPa) = 31.13584 32.34530 31.74057
#
# Velocity S-wave (km/s) = 3.66611 3.73664 3.70154
# Velocity P-wave (km/s) = 5.89819 6.06967 5.98454
#
# Compressibility (1/GPa) = 0.02559088
#
# Stress axis : x y z
#
# Youngs Moduli (GPa) = 70.48158 82.39212 65.34120
#
# Poissons Ratio (x) = 0.09215 0.05515
# Poissons Ratio (y) = 0.07883 0.39576
# Poissons Ratio (z) = 0.05949 0.49904
#
# Static dielectric constant tensor:
#      x y z
#    x 1.876030 0.000000 0.000000 
#    y 0.000000 1.890110 0.000000 
#    z 0.000000 0.000000 1.846600 
# 
# From -- ./inp_files/10613.got.cif
#   From: 2010.05.17/outbox.cif.g08.bks.cpg/sg42_6_cif.got.tgz:10613.got - 2010.06.03 19:03:34.
