data_PCOD9369253
_publ_section_title
;
Structure prediction by ZEFSAII (Michael W. Deem and Ramdas Pophale) SiO2 
 PCOD9369253
Probable space group: F M M 2
;
_chemical_formula_sum "Si O2"
_cell_formula_units_Z 96
_cell_length_a 11.171669
_cell_length_b 17.195021
_cell_length_c 25.660025
_cell_angle_alpha 90.000000
_cell_angle_beta 90.000000
_cell_angle_gamma 90.000000
_cell_volume 4929.215954
_symmetry_space_group_name_H-M "F M M 2"
_symmetry_group_IT_number 42
_symmetry_cell_setting 'orthorhombic'
loop_
_space_group_symop_operation_xyz
x,y,z
-x,-y,z
-x,y,z
x,-y,z
x,1/2+y,1/2+z
-x,1/2-y,1/2+z
-x,1/2+y,1/2+z
x,1/2-y,1/2+z
1/2+x,y,1/2+z
1/2-x,-y,1/2+z
1/2-x,y,1/2+z
1/2+x,-y,1/2+z
1/2+x,1/2+y,z
1/2-x,1/2-y,z
1/2-x,1/2+y,z
1/2+x,1/2-y,z
loop_
_atom_site_type_symbol
_atom_site_label
_atom_site_fract_x
_atom_site_fract_y
_atom_site_fract_z
Si Si1 0.000000 0.406202 0.487010
Si Si2 0.738250 0.594360 0.506789
Si Si3 0.265992 0.158837 0.304777
Si Si4 0.000000 0.594744 0.363625
Si Si5 0.360863 0.089928 0.202128
Si Si6 0.639374 0.588331 0.396779
Si Si7 0.362786 0.808054 0.098069
O O1 0.123181 0.381548 0.513838
O O2 0.000000 0.387133 0.425426
O O3 0.000000 0.500000 0.488450
O O4 0.727594 0.500000 0.509262
O O5 0.704723 0.619290 0.448065
O O6 0.655280 0.634435 0.549126
O O7 0.250000 0.250000 0.296216
O O8 0.384107 0.132507 0.336798
O O9 0.277026 0.117071 0.249233
O O10 0.161325 0.132477 0.343405
O O11 0.000000 0.500000 0.357229
O O12 0.500000 0.096263 0.220086
O O13 0.349482 0.142698 0.151257
O O14 0.338687 0.000000 0.189137
O O15 0.500000 0.586263 0.409272
O O16 0.684282 0.500000 0.388869
O O17 0.500000 0.776433 0.097170
O O18 0.250000 0.750000 0.096104
#
# Coordination Sequence:
#
# PCOD9369253 Si02
#       7
#     8  16  16   8  16  16  16
#     4   9  18  34  62  93 120 161 219 271 310 368
#     4  10  20  38  64  92 122 163 216 266 312 375
#     4  12  24  36  60  94 130 161 200 264 325 371
#     4  11  20  40  66  89 117 169 225 259 303 382
#     4  10  21  41  69  93 115 158 219 265 307 382
#     4  10  21  37  58  85 124 171 213 253 305 379
#     4  11  25  43  64  93 127 166 206 265 328 388
#
# _framework density 19.475714
#
# number of rings (size 3 to 8) (size 9 to 14) (size 15 to 20)
#    0.000    1.500    2.500    3.000    2.333    2.333 
#    0.000    0.833    0.000    1.000    0.000    0.000 
#    0.000    0.000    0.000    0.000    0.000    0.000 
#
# Total GULP energy -133985.468342 kJ/mol
# GULP energy per Si atom -5582.727848 kJ/mol
# Density = 1.943139 g / cm^3
# Si number density = 19.475714 Si / 1000 Ang^3
#
#
#
# Elastic Constant Matrix: (Units=GPa)
#
#
# Indices 1 2 3 4 5 6 
#
# 1 98.5116 30.5540 25.8695 0.0000 0.0000 0.0000
# 2 30.5540 65.0281 22.4130 0.0000 0.0000 0.0000
# 3 25.8695 22.4130 88.8921 0.0000 0.0000 0.0000
# 4 0.0000 0.0000 0.0000 46.9957 0.0000 0.0000
# 5 0.0000 0.0000 0.0000 0.0000 30.5835 0.0000
# 6 0.0000 0.0000 0.0000 0.0000 0.0000 26.4052
#
#
#
# Elastic Compliance Matrix: (Units=1/GPa)
#
#
# Indices 1 2 3 4 5 6 
#
# 1 0.012307 -0.004981 -0.002326 0.000000 0.000000 0.000000
# 2 -0.004981 0.018857 -0.003305 0.000000 0.000000 0.000000
# 3 -0.002326 -0.003305 0.012760 0.000000 0.000000 0.000000
# 4 0.000000 0.000000 0.000000 0.021279 0.000000 0.000000
# 5 0.000000 0.000000 0.000000 0.000000 0.032697 0.000000
# 6 0.000000 0.000000 0.000000 0.000000 0.000000 0.037871
#
#
# Mechanical properties :
#
#
# Convention : Reuss Voigt Hill
#
# Bulk Modulus (GPa) = 44.05165 45.56720 44.80942
# Shear Modulus (GPa) = 30.38385 32.36989 31.37687
#
# Velocity S-wave (km/s) = 3.95408 4.08127 4.01818
# Velocity P-wave (km/s) = 6.59653 6.75697 6.67723
#
# Compressibility (1/GPa) = 0.02270063
#
# Stress axis : x y z
#
# Youngs Moduli (GPa) = 81.25702 53.02959 78.37142
#
# Poissons Ratio (x) = 0.26413 0.18226
# Poissons Ratio (y) = 0.40472 0.25903
# Poissons Ratio (z) = 0.18897 0.17527
#
# Static dielectric constant tensor:
#      x y z
#    x 1.702870 0.000000 0.000000 
#    y 0.000000 1.663830 0.000000 
#    z 0.000000 0.000000 1.651400 
# 
# From -- ./inp_files/28864.got.cif
#   From: 2010.05.17/outbox.cif.g08.bks.cpg/sg42_15_cif.got.tgz:28864.got - 2010.06.03 19:03:34.
