data_PCOD9369478
_publ_section_title
;
Structure prediction by ZEFSAII (Michael W. Deem and Ramdas Pophale) SiO2 
 PCOD9369478
Probable space group: F M M 2
;
_chemical_formula_sum "Si O2"
_cell_formula_units_Z 64
_cell_length_a 13.017192
_cell_length_b 15.254334
_cell_length_c 12.631137
_cell_angle_alpha 90.000000
_cell_angle_beta 90.000000
_cell_angle_gamma 90.000000
_cell_volume 2508.147121
_symmetry_space_group_name_H-M "F M M 2"
_symmetry_group_IT_number 42
_symmetry_cell_setting 'orthorhombic'
loop_
_space_group_symop_operation_xyz
x,y,z
-x,-y,z
-x,y,z
x,-y,z
x,1/2+y,1/2+z
-x,1/2-y,1/2+z
-x,1/2+y,1/2+z
x,1/2-y,1/2+z
1/2+x,y,1/2+z
1/2-x,-y,1/2+z
1/2-x,y,1/2+z
1/2+x,-y,1/2+z
1/2+x,1/2+y,z
1/2-x,1/2-y,z
1/2-x,1/2+y,z
1/2+x,1/2-y,z
loop_
_atom_site_type_symbol
_atom_site_label
_atom_site_fract_x
_atom_site_fract_y
_atom_site_fract_z
Si Si1 0.612908 0.661679 0.122830
Si Si2 0.608027 0.399975 0.431866
Si Si3 0.840683 0.864352 0.666851
Si Si4 0.332576 0.897120 0.399460
O O1 0.500000 0.631221 0.158779
O O2 0.717910 0.615517 0.160238
O O3 0.632540 0.761803 0.155442
O O4 0.614866 0.653298 0.995331
O O5 0.500000 0.356401 0.402539
O O6 0.607091 0.500000 0.392033
O O7 0.614193 0.403426 0.559428
O O8 0.715467 0.360140 0.395441
O O9 0.876999 0.892268 0.782209
O O10 0.329278 0.000000 0.430490
#
# Coordination Sequence:
#
# PCOD9369478 Si02
#       4
#    16  16  16  16
#     4  10  23  40  58  86 123 158 195 244 300 353
#     4   9  18  34  58  89 123 157 196 245 297 348
#     4  10  21  38  61  88 120 158 199 245 295 351
#     4  10  22  41  63  88 120 158 200 244 292 351
#
# _framework density 25.516845
#
# number of rings (size 3 to 8) (size 9 to 14) (size 15 to 20)
#    0.000    2.250    0.000    1.500    0.000   12.500 
#    0.000    0.000    0.000    0.000    0.000    0.000 
#    0.000    0.000    0.000    0.000    0.000    0.000 
#
# Total GULP energy -89419.447507 kJ/mol
# GULP energy per Si atom -5588.715469 kJ/mol
# Density = 2.545877 g / cm^3
# Si number density = 25.516845 Si / 1000 Ang^3
#
#
#
# Elastic Constant Matrix: (Units=GPa)
#
#
# Indices 1 2 3 4 5 6 
#
# 1 189.4930 -4.5483 13.4510 0.0000 0.0000 0.0000
# 2 -4.5483 58.2974 4.5440 0.0000 0.0000 0.0000
# 3 13.4510 4.5440 163.9300 0.0000 0.0000 0.0000
# 4 0.0000 0.0000 0.0000 36.9914 0.0000 0.0000
# 5 0.0000 0.0000 0.0000 0.0000 -25.9045 0.0000
# 6 0.0000 0.0000 0.0000 0.0000 0.0000 11.6321
#
#
#
# Elastic Compliance Matrix: (Units=1/GPa)
#
#
# Indices 1 2 3 4 5 6 
#
# 1 0.005320 0.000450 -0.000449 0.000000 0.000000 0.000000
# 2 0.000450 0.017229 -0.000514 0.000000 0.000000 0.000000
# 3 -0.000449 -0.000514 0.006151 0.000000 0.000000 0.000000
# 4 0.000000 0.000000 0.000000 0.027033 0.000000 0.000000
# 5 0.000000 0.000000 0.000000 0.000000 -0.038603 0.000000
# 6 0.000000 0.000000 0.000000 0.000000 0.000000 0.085969
#
#
# Mechanical properties :
#
#
# Convention : Reuss Voigt Hill
#
# Bulk Modulus (GPa) = 36.13639 48.73488 42.43563
# Shear Modulus (GPa) = 44.11132 31.09539 37.60336
#
# Velocity S-wave (km/s) = 4.16229 3.49466 3.84300
# Velocity P-wave (km/s) = 6.10672 5.95182 6.02977
#
# Compressibility (1/GPa) = 0.02767294
#
# Stress axis : x y z
#
# Youngs Moduli (GPa) = 187.97298 58.04292 162.56809
#
# Poissons Ratio (x) = -0.02612 0.07299
# Poissons Ratio (y) = -0.08460 0.08364
# Poissons Ratio (z) = 0.08440 0.02986
#
# Static dielectric constant tensor:
#      x y z
#    x 2.076590 0.000000 0.000000 
#    y 0.000000 1.950810 0.000000 
#    z 0.000000 0.000000 1.967260 
# 
# From -- ./inp_files/7483.got.cif
#   From: 2010.05.17/outbox.cif.g08.bks.cpg/sg42_4_cif.got.tgz:7483.got - 2010.06.03 19:03:34.
