data_PCOD9369012
_publ_section_title
;
Structure prediction by ZEFSAII (Michael W. Deem and Ramdas Pophale) SiO2 
 PCOD9369012
Probable space group: F M M 2
;
_chemical_formula_sum "Si O2"
_cell_formula_units_Z 104
_cell_length_a 13.968167
_cell_length_b 19.089740
_cell_length_c 22.432602
_cell_angle_alpha 90.000000
_cell_angle_beta 90.000000
_cell_angle_gamma 90.000000
_cell_volume 5981.623629
_symmetry_space_group_name_H-M "F M M 2"
_symmetry_group_IT_number 42
_symmetry_cell_setting 'orthorhombic'
loop_
_space_group_symop_operation_xyz
x,y,z
-x,-y,z
-x,y,z
x,-y,z
x,1/2+y,1/2+z
-x,1/2-y,1/2+z
-x,1/2+y,1/2+z
x,1/2-y,1/2+z
1/2+x,y,1/2+z
1/2-x,-y,1/2+z
1/2-x,y,1/2+z
1/2+x,-y,1/2+z
1/2+x,1/2+y,z
1/2-x,1/2-y,z
1/2-x,1/2+y,z
1/2+x,1/2-y,z
loop_
_atom_site_type_symbol
_atom_site_label
_atom_site_fract_x
_atom_site_fract_y
_atom_site_fract_z
Si Si1 0.610517 0.193368 0.761450
Si Si2 0.203630 0.582655 0.538069
Si Si3 0.750000 0.750000 0.357897
Si Si4 0.390867 0.827962 0.038871
Si Si5 0.703630 0.082655 0.677726
Si Si6 0.389483 0.693368 0.954345
Si Si7 0.609133 0.327962 0.676924
O O1 0.500000 0.191359 0.780512
O O2 0.682013 0.202911 0.816379
O O3 0.636205 0.126729 0.721155
O O4 0.624431 0.261961 0.719753
O O5 0.200515 0.500000 0.526927
O O6 0.310426 0.613753 0.528915
O O7 0.178866 0.594601 0.607897
O O8 0.136205 0.626729 0.494640
O O9 0.682013 0.797089 0.399416
O O10 0.500000 0.853483 0.030452
O O11 0.381987 0.804639 0.107897
O O12 0.375569 0.761961 0.996042
O O13 0.810426 0.113753 0.686880
O O14 0.700515 0.000000 0.688868
O O15 0.500000 0.691359 0.935283
O O16 0.500000 0.353484 0.685343
#
# Coordination Sequence:
#
# PCOD9369012 Si02
#       7
#    16  16   8  16  16  16  16
#     4  11  22  37  59  83 109 143 188 234 274 322
#     4  10  20  35  57  86 119 148 175 220 284 342
#     4  12  22  40  60  82 104 148 192 238 268 310
#     4   9  17  32  57  85 111 144 186 231 278 324
#     4  10  20  35  57  86 119 148 175 220 284 342
#     4  11  22  37  59  83 109 143 188 234 274 322
#     4   9  17  32  57  85 111 144 186 231 278 324
#
# _framework density 17.386583999999999
#
# number of rings (size 3 to 8) (size 9 to 14) (size 15 to 20)
#    0.000    1.846    3.077    1.385    0.000    5.538 
#    0.000    5.385    0.000    0.000    0.000    0.000 
#    0.000    0.000    0.000    0.000    0.000    0.000 
#
# Total GULP energy -145133.349359 kJ/mol
# GULP energy per Si atom -5582.051898 kJ/mol
# Density = 1.734701 g / cm^3
# Si number density = 17.386584 Si / 1000 Ang^3
#
#
#
# Elastic Constant Matrix: (Units=GPa)
#
#
# Indices 1 2 3 4 5 6 
#
# 1 114.4276 46.3832 65.0200 0.0000 0.0000 0.0000
# 2 46.3832 94.3923 53.4009 0.0000 0.0000 0.0000
# 3 65.0200 53.4009 78.1529 0.0000 0.0000 0.0000
# 4 0.0000 0.0000 0.0000 4.8902 0.0000 0.0000
# 5 0.0000 0.0000 0.0000 0.0000 23.9593 0.0000
# 6 0.0000 0.0000 0.0000 0.0000 0.0000 13.3286
#
#
#
# Elastic Compliance Matrix: (Units=1/GPa)
#
#
# Indices 1 2 3 4 5 6 
#
# 1 0.016593 -0.000560 -0.013421 0.000000 0.000000 0.000000
# 2 -0.000560 0.017289 -0.011347 0.000000 0.000000 0.000000
# 3 -0.013421 -0.011347 0.031715 0.000000 0.000000 0.000000
# 4 0.000000 0.000000 0.000000 0.204489 0.000000 0.000000
# 5 0.000000 0.000000 0.000000 0.000000 0.041737 0.000000
# 6 0.000000 0.000000 0.000000 0.000000 0.000000 0.075027
#
#
# Mechanical properties :
#
#
# Convention : Reuss Voigt Hill
#
# Bulk Modulus (GPa) = 66.94110 68.50900 67.72505
# Shear Modulus (GPa) = 11.29977 16.58019 13.93998
#
# Velocity S-wave (km/s) = 2.55211 3.09142 2.83462
# Velocity P-wave (km/s) = 6.87528 7.22713 7.05340
#
# Compressibility (1/GPa) = 0.01493851
#
# Stress axis : x y z
#
# Youngs Moduli (GPa) = 60.26752 57.84069 31.53103
#
# Poissons Ratio (x) = 0.03242 0.42319
# Poissons Ratio (y) = 0.03378 0.35778
# Poissons Ratio (z) = 0.80888 0.65632
#
# Static dielectric constant tensor:
#      x y z
#    x 1.611840 0.000000 0.000000 
#    y 0.000000 1.544240 0.000000 
#    z 0.000000 0.000000 1.587300 
# 
# From -- ./inp_files/25300.got.cif
#   From: 2010.05.17/outbox.cif.g08.bks.cpg/sg42_13_cif.got.tgz:25300.got - 2010.06.03 19:03:34.
