data_PCOD9369000
_publ_section_title
;
Structure prediction by ZEFSAII (Michael W. Deem and Ramdas Pophale) SiO2 
 PCOD9369000
Probable space group: F M M 2
;
_chemical_formula_sum "Si O2"
_cell_formula_units_Z 96
_cell_length_a 12.124796
_cell_length_b 14.298560
_cell_length_c 23.943115
_cell_angle_alpha 90.000000
_cell_angle_beta 90.000000
_cell_angle_gamma 90.000000
_cell_volume 4150.948965
_symmetry_space_group_name_H-M "F M M 2"
_symmetry_group_IT_number 42
_symmetry_cell_setting 'orthorhombic'
loop_
_space_group_symop_operation_xyz
x,y,z
-x,-y,z
-x,y,z
x,-y,z
x,1/2+y,1/2+z
-x,1/2-y,1/2+z
-x,1/2+y,1/2+z
x,1/2-y,1/2+z
1/2+x,y,1/2+z
1/2-x,-y,1/2+z
1/2-x,y,1/2+z
1/2+x,-y,1/2+z
1/2+x,1/2+y,z
1/2-x,1/2-y,z
1/2-x,1/2+y,z
1/2+x,1/2-y,z
loop_
_atom_site_type_symbol
_atom_site_label
_atom_site_fract_x
_atom_site_fract_y
_atom_site_fract_z
Si Si1 0.879169 0.114513 0.364130
Si Si2 0.364284 0.684479 0.553985
Si Si3 0.000000 0.385661 0.515203
Si Si4 0.329885 0.885541 0.739002
Si Si5 0.119993 0.887148 0.679726
Si Si6 0.225946 0.607938 0.459793
Si Si7 0.500000 0.112327 0.646907
O O1 0.868304 0.144507 0.299758
O O2 0.780177 0.147021 0.403659
O O3 0.000000 0.143306 0.385257
O O4 0.876652 0.000000 0.364607
O O5 0.500000 0.698632 0.543644
O O6 0.250000 0.750000 0.554053
O O7 0.360343 0.645963 0.616892
O O8 0.321749 0.614522 0.506130
O O9 0.111098 0.351889 0.484293
O O10 0.000000 0.500000 0.514347
O O11 0.000000 0.363766 0.581835
O O12 0.206930 0.856574 0.725386
O O13 0.397386 0.855591 0.683999
O O14 0.338332 0.000000 0.739736
O O15 0.000000 0.855746 0.697054
O O16 0.124073 0.000000 0.677908
O O17 0.200016 0.500000 0.448877
O O18 0.500000 0.000000 0.647226
#
# Coordination Sequence:
#
# PCOD9369000 Si02
#       7
#    16  16   8  16  16  16   8
#     4   9  16  28  47  75 110 145 188 234 280 336
#     4  11  24  40  59  83 115 153 193 239 296 352
#     4   9  18  30  48  82 117 146 182 234 295 344
#     4   9  15  26  46  77 109 140 176 226 284 333
#     4   9  18  34  56  82 111 145 187 231 283 350
#     4  10  20  35  57  84 115 151 194 240 286 342
#     4   9  14  22  40  66 103 138 171 218 275 332
#
# _framework density 23.127243
#
# number of rings (size 3 to 8) (size 9 to 14) (size 15 to 20)
#    0.000    2.500    0.833    2.000    1.167    4.333 
#    3.000    0.000    0.000    1.000    0.000    2.333 
#    0.000    0.000    0.000    0.000    0.000    0.000 
#
# Total GULP energy -133768.046107 kJ/mol
# GULP energy per Si atom -5573.668588 kJ/mol
# Density = 2.307460 g / cm^3
# Si number density = 23.127243 Si / 1000 Ang^3
#
#
#
# Elastic Constant Matrix: (Units=GPa)
#
#
# Indices 1 2 3 4 5 6 
#
# 1 195.1829 22.3101 101.0855 0.0000 0.0000 0.0000
# 2 22.3101 43.4086 6.1616 0.0000 0.0000 0.0000
# 3 101.0855 6.1616 147.1569 0.0000 0.0000 0.0000
# 4 0.0000 0.0000 0.0000 -5.9952 0.0000 0.0000
# 5 0.0000 0.0000 0.0000 0.0000 38.9038 0.0000
# 6 0.0000 0.0000 0.0000 0.0000 0.0000 7.0036
#
#
#
# Elastic Compliance Matrix: (Units=1/GPa)
#
#
# Indices 1 2 3 4 5 6 
#
# 1 0.008462 -0.003545 -0.005664 0.000000 0.000000 0.000000
# 2 -0.003545 0.024660 0.001403 0.000000 0.000000 0.000000
# 3 -0.005664 0.001403 0.010628 0.000000 0.000000 0.000000
# 4 0.000000 0.000000 0.000000 -0.166800 0.000000 0.000000
# 5 0.000000 0.000000 0.000000 0.000000 0.025704 0.000000
# 6 0.000000 0.000000 0.000000 0.000000 0.000000 0.142784
#
#
# Mechanical properties :
#
#
# Convention : Reuss Voigt Hill
#
# Bulk Modulus (GPa) = 35.54154 71.65140 53.59647
# Shear Modulus (GPa) = 70.99146 25.06185 48.02665
#
# Velocity S-wave (km/s) = 5.54641 3.29546 4.56195
# Velocity P-wave (km/s) = 7.51120 6.74749 7.13956
#
# Compressibility (1/GPa) = 0.02813609
#
# Stress axis : x y z
#
# Youngs Moduli (GPa) = 118.17145 40.55168 94.09273
#
# Poissons Ratio (x) = 0.14376 0.53299
# Poissons Ratio (y) = 0.41894 -0.13199
# Poissons Ratio (z) = 0.66938 -0.05688
#
# Static dielectric constant tensor:
#      x y z
#    x 1.915750 0.000000 0.000000 
#    y 0.000000 1.936750 0.000000 
#    z 0.000000 0.000000 1.809380 
# 
# From -- ./inp_files/28858.got.cif
#   From: 2010.05.17/outbox.cif.g08.bks.cpg/sg42_15_cif.got.tgz:28858.got - 2010.06.03 19:03:34.
