data_PCOD9369114
_publ_section_title
;
Structure prediction by ZEFSAII (Michael W. Deem and Ramdas Pophale) SiO2 
 PCOD9369114
Probable space group: F M M 2
;
_chemical_formula_sum "Si O2"
_cell_formula_units_Z 96
_cell_length_a 19.756010
_cell_length_b 18.862820
_cell_length_c 13.332227
_cell_angle_alpha 90.000000
_cell_angle_beta 90.000000
_cell_angle_gamma 90.000000
_cell_volume 4968.308528
_symmetry_space_group_name_H-M "F M M 2"
_symmetry_group_IT_number 42
_symmetry_cell_setting 'orthorhombic'
loop_
_space_group_symop_operation_xyz
x,y,z
-x,-y,z
-x,y,z
x,-y,z
x,1/2+y,1/2+z
-x,1/2-y,1/2+z
-x,1/2+y,1/2+z
x,1/2-y,1/2+z
1/2+x,y,1/2+z
1/2-x,-y,1/2+z
1/2-x,y,1/2+z
1/2+x,-y,1/2+z
1/2+x,1/2+y,z
1/2-x,1/2-y,z
1/2-x,1/2+y,z
1/2+x,1/2-y,z
loop_
_atom_site_type_symbol
_atom_site_label
_atom_site_fract_x
_atom_site_fract_y
_atom_site_fract_z
Si Si1 0.576410 0.417674 0.120190
Si Si2 0.817224 0.283868 0.125008
Si Si3 0.577589 0.614992 0.890974
Si Si4 0.298428 0.417330 0.747665
Si Si5 0.577858 0.777586 0.951602
Si Si6 0.665725 0.162891 0.780955
O O1 0.500000 0.387698 0.130279
O O2 0.574950 0.500000 0.146886
O O3 0.627139 0.378861 0.193257
O O4 0.594268 0.411385 0.003142
O O5 0.750000 0.250000 0.074687
O O6 0.807422 0.366293 0.151054
O O7 0.822982 0.239653 0.228897
O O8 0.882077 0.272686 0.055963
O O9 0.500000 0.592996 0.867207
O O10 0.633460 0.589232 0.813184
O O11 0.578243 0.700075 0.900615
O O12 0.284720 0.500000 0.726697
O O13 0.234901 0.379230 0.802329
O O14 0.500000 0.799084 0.965217
O O15 0.619477 0.828416 0.877932
#
# Coordination Sequence:
#
# PCOD9369114 Si02
#       6
#    16  16  16  16  16  16
#     4  10  20  36  59  88 122 158 200 251 301 352
#     4  10  23  39  63  87 121 162 202 256 301 356
#     4  10  21  37  62  94 124 159 205 258 307 356
#     4  11  24  41  62  91 124 164 206 251 310 366
#     4  11  23  38  64  96 123 157 205 252 306 367
#     4  11  22  39  62  89 124 159 202 250 301 366
#
# _framework density 19.322471
#
# number of rings (size 3 to 8) (size 9 to 14) (size 15 to 20)
#    0.000    1.500    3.333    1.500    2.333    2.333 
#    0.000    3.333    0.000    2.000    0.000    0.000 
#    0.000    0.000    0.000    0.000    0.000    0.000 
#
# Total GULP energy -133995.888876 kJ/mol
# GULP energy per Si atom -5583.162037 kJ/mol
# Density = 1.927849 g / cm^3
# Si number density = 19.322471 Si / 1000 Ang^3
#
#
#
# Elastic Constant Matrix: (Units=GPa)
#
#
# Indices 1 2 3 4 5 6 
#
# 1 131.8309 41.7447 56.4926 0.0000 0.0000 0.0000
# 2 41.7447 105.7210 23.0901 0.0000 0.0000 0.0000
# 3 56.4926 23.0901 50.8531 0.0000 0.0000 0.0000
# 4 0.0000 0.0000 0.0000 18.4679 0.0000 0.0000
# 5 0.0000 0.0000 0.0000 0.0000 32.3131 0.0000
# 6 0.0000 0.0000 0.0000 0.0000 0.0000 18.1168
#
#
#
# Elastic Compliance Matrix: (Units=1/GPa)
#
#
# Indices 1 2 3 4 5 6 
#
# 1 0.015071 -0.002547 -0.015586 0.000000 0.000000 0.000000
# 2 -0.002547 0.010931 -0.002134 0.000000 0.000000 0.000000
# 3 -0.015586 -0.002134 0.037947 0.000000 0.000000 0.000000
# 4 0.000000 0.000000 0.000000 0.054148 0.000000 0.000000
# 5 0.000000 0.000000 0.000000 0.000000 0.030947 0.000000
# 6 0.000000 0.000000 0.000000 0.000000 0.000000 0.055197
#
#
# Mechanical properties :
#
#
# Convention : Reuss Voigt Hill
#
# Bulk Modulus (GPa) = 42.70567 59.00665 50.85616
# Shear Modulus (GPa) = 19.79578 24.91806 22.35692
#
# Velocity S-wave (km/s) = 3.20425 3.59498 3.40522
# Velocity P-wave (km/s) = 5.98658 6.91636 6.46820
#
# Compressibility (1/GPa) = 0.02341609
#
# Stress axis : x y z
#
# Youngs Moduli (GPa) = 66.35379 91.48692 26.35229
#
# Poissons Ratio (x) = 0.23300 0.41072
# Poissons Ratio (y) = 0.16899 0.05623
# Poissons Ratio (z) = 1.03417 0.19522
#
# Static dielectric constant tensor:
#      x y z
#    x 1.715860 0.000000 0.000000 
#    y 0.000000 1.693800 0.000000 
#    z 0.000000 0.000000 1.648260 
# 
# From -- ./inp_files/9540.got.cif
#   From: 2010.05.17/outbox.cif.g08.bks.cpg/sg42_5_cif.got.tgz:9540.got - 2010.06.03 19:03:34.
