data_PCOD9369008
_publ_section_title
;
Structure prediction by ZEFSAII (Michael W. Deem and Ramdas Pophale) SiO2 
 PCOD9369008
Probable space group: F M M 2
;
_chemical_formula_sum "Si O2"
_cell_formula_units_Z 112
_cell_length_a 14.013849
_cell_length_b 14.954794
_cell_length_c 26.534319
_cell_angle_alpha 90.000000
_cell_angle_beta 90.000000
_cell_angle_gamma 90.000000
_cell_volume 5560.909339
_symmetry_space_group_name_H-M "F M M 2"
_symmetry_group_IT_number 42
_symmetry_cell_setting 'orthorhombic'
loop_
_space_group_symop_operation_xyz
x,y,z
-x,-y,z
-x,y,z
x,-y,z
x,1/2+y,1/2+z
-x,1/2-y,1/2+z
-x,1/2+y,1/2+z
x,1/2-y,1/2+z
1/2+x,y,1/2+z
1/2-x,-y,1/2+z
1/2-x,y,1/2+z
1/2+x,-y,1/2+z
1/2+x,1/2+y,z
1/2-x,1/2-y,z
1/2-x,1/2+y,z
1/2+x,1/2-y,z
loop_
_atom_site_type_symbol
_atom_site_label
_atom_site_fract_x
_atom_site_fract_y
_atom_site_fract_z
Si Si1 0.892366 0.606269 0.242460
Si Si2 0.758078 0.852914 0.153237
Si Si3 0.387841 0.234427 0.000321
Si Si4 0.388345 0.101858 0.740079
Si Si5 0.256787 0.897414 0.540226
Si Si6 0.391369 0.098790 0.909789
Si Si7 0.740136 0.845652 0.824484
O O1 0.900532 0.500000 0.240581
O O2 0.827740 0.629823 0.193435
O O3 0.834927 0.626285 0.294370
O O4 0.000000 0.645229 0.241099
O O5 0.750000 0.750000 0.139599
O O6 0.852345 0.873721 0.185174
O O7 0.767339 0.902045 0.100417
O O8 0.500000 0.249289 0.008711
O O9 0.377021 0.184729 0.945880
O O10 0.329987 0.326425 0.012883
O O11 0.343678 0.154700 0.033967
O O12 0.500000 0.105823 0.744988
O O13 0.335790 0.164849 0.779179
O O14 0.355515 0.000000 0.751363
O O15 0.262661 0.000000 0.520907
O O16 0.500000 0.106496 0.888760
O O17 0.311900 0.096613 0.866534
O O18 0.388611 0.000000 0.935444
O O19 0.750000 0.750000 0.849289
#
# Coordination Sequence:
#
# PCOD9369008 Si02
#       7
#    16  16  16  16  16  16  16
#     4  10  21  37  57  84 121 165 209 251 301 367
#     4  11  21  37  57  86 124 163 205 253 309 372
#     4  10  23  43  66  96 126 160 214 271 324 383
#     4  10  20  35  57  85 117 156 205 257 308 369
#     4  11  23  42  67  94 130 170 213 265 326 386
#     4  10  21  40  67  93 119 156 204 263 325 383
#     4  11  22  34  57  87 123 159 200 249 311 376
#
# _framework density 20.14059
#
# number of rings (size 3 to 8) (size 9 to 14) (size 15 to 20)
#    0.000    1.571    1.429    6.000    2.000    6.286 
#    0.000    0.000    0.000    0.000    0.000    0.000 
#    0.000    0.000    0.000    0.000    0.000    0.000 
#
# Total GULP energy -155940.133072 kJ/mol
# GULP energy per Si atom -5569.290467 kJ/mol
# Density = 2.009475 g / cm^3
# Si number density = 20.140590 Si / 1000 Ang^3
#
#
#
# Elastic Constant Matrix: (Units=GPa)
#
#
# Indices 1 2 3 4 5 6 
#
# 1 91.8289 35.3772 30.5143 0.0000 0.0000 0.0000
# 2 35.3772 142.0114 25.0385 0.0000 0.0000 0.0000
# 3 30.5143 25.0385 68.2182 0.0000 0.0000 0.0000
# 4 0.0000 0.0000 0.0000 25.5711 0.0000 0.0000
# 5 0.0000 0.0000 0.0000 0.0000 -8.3082 0.0000
# 6 0.0000 0.0000 0.0000 0.0000 0.0000 23.2881
#
#
#
# Elastic Compliance Matrix: (Units=1/GPa)
#
#
# Indices 1 2 3 4 5 6 
#
# 1 0.013554 -0.002467 -0.005157 0.000000 0.000000 0.000000
# 2 -0.002467 0.007978 -0.001825 0.000000 0.000000 0.000000
# 3 -0.005157 -0.001825 0.017635 0.000000 0.000000 0.000000
# 4 0.000000 0.000000 0.000000 0.039107 0.000000 0.000000
# 5 0.000000 0.000000 0.000000 0.000000 -0.120363 0.000000
# 6 0.000000 0.000000 0.000000 0.000000 0.000000 0.042940
#
#
# Mechanical properties :
#
#
# Convention : Reuss Voigt Hill
#
# Bulk Modulus (GPa) = 49.33565 53.76872 51.55218
# Shear Modulus (GPa) = 188.63876 22.18544 105.41210
#
# Velocity S-wave (km/s) = 9.68836 3.32253 7.24236
# Velocity P-wave (km/s) = 12.23525 6.44000 9.77688
#
# Compressibility (1/GPa) = 0.02026932
#
# Stress axis : x y z
#
# Youngs Moduli (GPa) = 73.77872 125.34444 56.70414
#
# Poissons Ratio (x) = 0.30925 0.29244
# Poissons Ratio (y) = 0.18203 0.10346
# Poissons Ratio (z) = 0.38049 0.22870
#
# Static dielectric constant tensor:
#      x y z
#    x 1.766440 0.000000 0.000000 
#    y 0.000000 1.583520 0.000000 
#    z 0.000000 0.000000 1.737340 
# 
# From -- ./inp_files/32622.got.cif
#   From: 2010.05.17/outbox.cif.g08.bks.cpg/sg42_17_cif.got.tgz:32622.got - 2010.06.03 19:03:34.
