data_PCOD9369530
_publ_section_title
;
Structure prediction by ZEFSAII (Michael W. Deem and Ramdas Pophale) SiO2 
 PCOD9369530
Probable space group: F M M 2
;
_chemical_formula_sum "Si O2"
_cell_formula_units_Z 56
_cell_length_a 7.407649
_cell_length_b 19.456413
_cell_length_c 15.167922
_cell_angle_alpha 90.000000
_cell_angle_beta 90.000000
_cell_angle_gamma 90.000000
_cell_volume 2186.096147
_symmetry_space_group_name_H-M "F M M 2"
_symmetry_group_IT_number 42
_symmetry_cell_setting 'orthorhombic'
loop_
_space_group_symop_operation_xyz
x,y,z
-x,-y,z
-x,y,z
x,-y,z
x,1/2+y,1/2+z
-x,1/2-y,1/2+z
-x,1/2+y,1/2+z
x,1/2-y,1/2+z
1/2+x,y,1/2+z
1/2-x,-y,1/2+z
1/2-x,y,1/2+z
1/2+x,-y,1/2+z
1/2+x,1/2+y,z
1/2-x,1/2-y,z
1/2-x,1/2+y,z
1/2+x,1/2-y,z
loop_
_atom_site_type_symbol
_atom_site_label
_atom_site_fract_x
_atom_site_fract_y
_atom_site_fract_z
Si Si1 0.750000 0.750000 0.908080
Si Si2 0.718532 0.500000 0.007239
Si Si3 0.710678 0.845959 0.756655
Si Si4 0.216111 0.000000 0.804335
Si Si5 0.721529 0.849174 0.560304
O O1 0.811386 0.806899 0.835316
O O2 0.809848 0.694560 0.982501
O O3 0.500000 0.500000 0.008666
O O4 0.773897 0.428833 0.050858
O O5 0.776239 0.500000 0.905860
O O6 0.500000 0.827508 0.768726
O O7 0.722276 0.928374 0.763067
O O8 0.769983 0.826360 0.658619
O O9 0.000000 0.000000 0.802110
O O10 0.500000 0.843709 0.550198
#
# Coordination Sequence:
#
# PCOD9369530 Si02
#       5
#     8   8  16   8  16
#     4  12  22  38  62  94 132 170 208 256 310 378
#     4   9  17  35  63  84 111 161 210 248 303 376
#     4  11  24  41  66  97 128 165 214 267 313 370
#     4  11  22  41  69  94 123 167 214 264 321 380
#     4  10  21  39  62  88 123 169 210 251 318 384
#
# _framework density 25.616437999999999
#
# number of rings (size 3 to 8) (size 9 to 14) (size 15 to 20)
#    0.000    1.429    2.857    3.000    0.000    3.429 
#    0.000    2.857    0.000    0.000    0.000    0.000 
#    0.000    0.000    0.000    0.000    0.000    0.000 
#
# Total GULP energy -78116.332850 kJ/mol
# GULP energy per Si atom -5579.738061 kJ/mol
# Density = 2.555813 g / cm^3
# Si number density = 25.616438 Si / 1000 Ang^3
#
#
#
# Elastic Constant Matrix: (Units=GPa)
#
#
# Indices 1 2 3 4 5 6 
#
# 1 119.7697 7.2537 33.1891 0.0000 0.0000 0.0000
# 2 7.2537 239.4486 95.8402 0.0000 0.0000 0.0000
# 3 33.1891 95.8402 266.8132 0.0000 0.0000 0.0000
# 4 0.0000 0.0000 0.0000 181.7439 0.0000 0.0000
# 5 0.0000 0.0000 0.0000 0.0000 -21.9803 0.0000
# 6 0.0000 0.0000 0.0000 0.0000 0.0000 -35.0905
#
#
#
# Elastic Compliance Matrix: (Units=1/GPa)
#
#
# Indices 1 2 3 4 5 6 
#
# 1 0.008655 0.000197 -0.001147 0.000000 0.000000 0.000000
# 2 0.000197 0.004882 -0.001778 0.000000 0.000000 0.000000
# 3 -0.001147 -0.001778 0.004529 0.000000 0.000000 0.000000
# 4 0.000000 0.000000 0.000000 0.005502 0.000000 0.000000
# 5 0.000000 0.000000 0.000000 0.000000 -0.045495 0.000000
# 6 0.000000 0.000000 0.000000 0.000000 0.000000 -0.028498
#
#
# Mechanical properties :
#
#
# Convention : Reuss Voigt Hill
#
# Bulk Modulus (GPa) = 79.30376 99.84416 89.57396
# Shear Modulus (GPa) = -122.65787 57.58452 -32.53667
#
# Velocity S-wave (km/s) = -6.92722 4.74640 -3.56778
# Velocity P-wave (km/s) = 5.74078 8.31258 4.25102
#
# Compressibility (1/GPa) = 0.01260974
#
# Stress axis : x y z
#
# Youngs Moduli (GPa) = 115.53500 204.83399 220.78044
#
# Poissons Ratio (x) = -0.04037 0.25333
# Poissons Ratio (y) = -0.02277 0.39258
# Poissons Ratio (z) = 0.13257 0.36422
#
# Static dielectric constant tensor:
#      x y z
#    x 2.104480 0.000000 0.000000 
#    y 0.000000 1.959380 0.000000 
#    z 0.000000 0.000000 1.922850 
# 
# From -- ./inp_files/11756.got.cif
#   From: 2010.05.17/outbox.cif.g08.bks.cpg/sg42_6_cif.got.tgz:11756.got - 2010.06.03 19:03:34.
