data_PCOD9369042
_publ_section_title
;
Structure prediction by ZEFSAII (Michael W. Deem and Ramdas Pophale) SiO2 
 PCOD9369042
Probable space group: F M M 2
;
_chemical_formula_sum "Si O2"
_cell_formula_units_Z 112
_cell_length_a 34.754063
_cell_length_b 14.509371
_cell_length_c 11.551524
_cell_angle_alpha 90.000000
_cell_angle_beta 90.000000
_cell_angle_gamma 90.000000
_cell_volume 5824.966800
_symmetry_space_group_name_H-M "F M M 2"
_symmetry_group_IT_number 42
_symmetry_cell_setting 'orthorhombic'
loop_
_space_group_symop_operation_xyz
x,y,z
-x,-y,z
-x,y,z
x,-y,z
x,1/2+y,1/2+z
-x,1/2-y,1/2+z
-x,1/2+y,1/2+z
x,1/2-y,1/2+z
1/2+x,y,1/2+z
1/2-x,-y,1/2+z
1/2-x,y,1/2+z
1/2+x,-y,1/2+z
1/2+x,1/2+y,z
1/2-x,1/2-y,z
1/2-x,1/2+y,z
1/2+x,1/2-y,z
loop_
_atom_site_type_symbol
_atom_site_label
_atom_site_fract_x
_atom_site_fract_y
_atom_site_fract_z
Si Si1 0.346228 0.608075 0.546340
Si Si2 0.237012 0.644268 0.122255
Si Si3 0.267765 0.900237 0.369609
Si Si4 0.544309 0.894272 0.353187
Si Si5 0.893132 0.892439 0.058302
Si Si6 0.338688 0.721262 0.899332
Si Si7 0.098038 0.782823 0.701081
O O1 0.349540 0.500000 0.524783
O O2 0.308942 0.626377 0.627371
O O3 0.337737 0.673067 0.437470
O O4 0.384909 0.651135 0.601096
O O5 0.250000 0.750000 0.116518
O O6 0.253705 0.606782 0.244895
O O7 0.247776 0.603467 0.995720
O O8 0.296838 0.815105 0.370054
O O9 0.288228 0.000000 0.365783
O O10 0.500000 0.877117 0.384434
O O11 0.572966 0.887932 0.462450
O O12 0.559874 0.824732 0.256681
O O13 0.547468 0.000000 0.310535
O O14 0.905121 0.821960 0.158771
O O15 0.886968 0.000000 0.087697
O O16 0.855324 0.844402 0.001939
O O17 0.368982 0.711980 0.797620
#
# Coordination Sequence:
#
# PCOD9369042 Si02
#       7
#    16  16  16  16  16  16  16
#     4  11  22  39  59  83 113 152 199 249 304 361
#     4  12  25  42  61  85 119 156 199 258 314 372
#     4  12  24  41  62  86 115 154 201 253 313 374
#     4   9  18  34  57  87 121 155 195 240 287 349
#     4   9  19  35  55  85 117 150 191 238 295 354
#     4  10  21  37  57  81 110 150 191 246 297 359
#     4  10  20  35  61  86 115 155 197 241 298 354
#
# _framework density 19.227578000000001
#
# number of rings (size 3 to 8) (size 9 to 14) (size 15 to 20)
#    0.000    1.571    2.857    2.571    0.000    2.286 
#    0.000    0.000    0.000    0.000    0.000    0.000 
#    0.000    0.000    0.000    0.000    0.000    0.000 
#
# Total GULP energy -156092.513598 kJ/mol
# GULP energy per Si atom -5574.732628 kJ/mol
# Density = 1.918382 g / cm^3
# Si number density = 19.227578 Si / 1000 Ang^3
#
#
#
# Elastic Constant Matrix: (Units=GPa)
#
#
# Indices 1 2 3 4 5 6 
#
# 1 40.5678 10.3814 7.3341 0.0000 0.0000 0.0000
# 2 10.3814 113.2320 3.3371 0.0000 0.0000 0.0000
# 3 7.3341 3.3371 69.1456 0.0000 0.0000 0.0000
# 4 0.0000 0.0000 0.0000 11.0678 0.0000 0.0000
# 5 0.0000 0.0000 0.0000 0.0000 13.9401 0.0000
# 6 0.0000 0.0000 0.0000 0.0000 0.0000 22.0239
#
#
#
# Elastic Compliance Matrix: (Units=1/GPa)
#
#
# Indices 1 2 3 4 5 6 
#
# 1 0.025706 -0.002280 -0.002617 0.000000 0.000000 0.000000
# 2 -0.002280 0.009046 -0.000195 0.000000 0.000000 0.000000
# 3 -0.002617 -0.000195 0.014749 0.000000 0.000000 0.000000
# 4 0.000000 0.000000 0.000000 0.090352 0.000000 0.000000
# 5 0.000000 0.000000 0.000000 0.000000 0.071736 0.000000
# 6 0.000000 0.000000 0.000000 0.000000 0.000000 0.045405
#
#
# Mechanical properties :
#
#
# Convention : Reuss Voigt Hill
#
# Bulk Modulus (GPa) = 25.43257 29.45007 27.44132
# Shear Modulus (GPa) = 17.83909 22.86589 20.35249
#
# Velocity S-wave (km/s) = 3.04926 3.45225 3.25700
# Velocity P-wave (km/s) = 5.06490 5.58933 5.33356
#
# Compressibility (1/GPa) = 0.03931965
#
# Stress axis : x y z
#
# Youngs Moduli (GPa) = 38.90067 110.54397 67.80045
#
# Poissons Ratio (x) = 0.25201 0.17741
# Poissons Ratio (y) = 0.08868 0.01321
# Poissons Ratio (z) = 0.10179 0.02153
#
# Static dielectric constant tensor:
#      x y z
#    x 1.664650 0.000000 0.000000 
#    y 0.000000 1.668900 0.000000 
#    z 0.000000 0.000000 1.732950 
# 
# From -- ./inp_files/11103.got.cif
#   From: 2010.05.17/outbox.cif.g08.bks.cpg/sg42_6_cif.got.tgz:11103.got - 2010.06.03 19:03:34.
