data_PCOD9369168
_publ_section_title
;
Structure prediction by ZEFSAII (Michael W. Deem and Ramdas Pophale) SiO2 
 PCOD9369168
Probable space group: F M M 2
;
_chemical_formula_sum "Si O2"
_cell_formula_units_Z 80
_cell_length_a 8.666447
_cell_length_b 15.939301
_cell_length_c 29.724537
_cell_angle_alpha 90.000000
_cell_angle_beta 90.000000
_cell_angle_gamma 90.000000
_cell_volume 4106.061558
_symmetry_space_group_name_H-M "F M M 2"
_symmetry_group_IT_number 42
_symmetry_cell_setting 'orthorhombic'
loop_
_space_group_symop_operation_xyz
x,y,z
-x,-y,z
-x,y,z
x,-y,z
x,1/2+y,1/2+z
-x,1/2-y,1/2+z
-x,1/2+y,1/2+z
x,1/2-y,1/2+z
1/2+x,y,1/2+z
1/2-x,-y,1/2+z
1/2-x,y,1/2+z
1/2+x,-y,1/2+z
1/2+x,1/2+y,z
1/2-x,1/2-y,z
1/2-x,1/2+y,z
1/2+x,1/2-y,z
loop_
_atom_site_type_symbol
_atom_site_label
_atom_site_fract_x
_atom_site_fract_y
_atom_site_fract_z
Si Si1 0.184519 0.162348 0.785030
Si Si2 0.688333 0.000000 0.228587
Si Si3 0.322064 0.097470 0.875704
Si Si4 0.187917 0.500000 0.125300
Si Si5 0.814329 0.844230 0.563397
Si Si6 0.816069 0.656526 0.466969
O O1 0.250000 0.250000 0.767664
O O2 0.242459 0.148404 0.835878
O O3 0.000000 0.164641 0.784923
O O4 0.237120 0.083401 0.755132
O O5 0.739802 0.000000 0.176936
O O6 0.500000 0.000000 0.228670
O O7 0.500000 0.124287 0.880793
O O8 0.237616 0.106714 0.923229
O O9 0.318668 0.000000 0.862402
O O10 0.234318 0.584924 0.099186
O O11 0.000000 0.500000 0.125233
O O12 0.750000 0.750000 0.571722
O O13 0.755235 0.872750 0.514236
O O14 0.000000 0.839178 0.562658
O O15 0.750000 0.750000 0.460456
O O16 0.000000 0.658134 0.470417
#
# Coordination Sequence:
#
# PCOD9369168 Si02
#       6
#    16   8  16   8  16  16
#     4  11  22  39  63  89 120 157 199 242 295 351
#     4   9  20  40  62  87 118 153 196 245 296 359
#     4  11  23  38  58  85 120 157 198 243 291 347
#     4   9  20  38  62  87 116 155 196 241 300 357
#     4  10  20  37  60  87 119 156 198 243 293 350
#     4  11  22  37  57  83 118 156 198 241 288 345
#
# _framework density 19.483391000000001
#
# number of rings (size 3 to 8) (size 9 to 14) (size 15 to 20)
#    0.000    1.600    1.000    5.400    1.400    2.000 
#    0.000    1.500    0.000    8.400    0.000    0.000 
#    0.000    0.000    0.000    0.000    0.000    0.000 
#
# Total GULP energy -111750.902968 kJ/mol
# GULP energy per Si atom -5587.545148 kJ/mol
# Density = 1.943905 g / cm^3
# Si number density = 19.483391 Si / 1000 Ang^3
#
#
#
# Elastic Constant Matrix: (Units=GPa)
#
#
# Indices 1 2 3 4 5 6 
#
# 1 93.1917 39.2682 35.6335 0.0000 0.0000 0.0000
# 2 39.2682 128.9106 85.4138 0.0000 0.0000 0.0000
# 3 35.6335 85.4138 141.7708 0.0000 0.0000 0.0000
# 4 0.0000 0.0000 0.0000 -3.6380 0.0000 0.0000
# 5 0.0000 0.0000 0.0000 0.0000 19.1847 0.0000
# 6 0.0000 0.0000 0.0000 0.0000 0.0000 22.6890
#
#
#
# Elastic Compliance Matrix: (Units=1/GPa)
#
#
# Indices 1 2 3 4 5 6 
#
# 1 0.012477 -0.002868 -0.001409 0.000000 0.000000 0.000000
# 2 -0.002868 0.013570 -0.007455 0.000000 0.000000 0.000000
# 3 -0.001409 -0.007455 0.011899 0.000000 0.000000 0.000000
# 4 0.000000 0.000000 0.000000 -0.274876 0.000000 0.000000
# 5 0.000000 0.000000 0.000000 0.000000 0.052125 0.000000
# 6 0.000000 0.000000 0.000000 0.000000 0.000000 0.044074
#
#
# Mechanical properties :
#
#
# Convention : Reuss Voigt Hill
#
# Bulk Modulus (GPa) = 69.03851 76.05602 72.54726
# Shear Modulus (GPa) = -44.46834 21.21764 -11.62535
#
# Velocity S-wave (km/s) = -4.78260 3.30360 -2.44535
# Velocity P-wave (km/s) = 2.23915 7.32617 5.41694
#
# Compressibility (1/GPa) = 0.01448467
#
# Stress axis : x y z
#
# Youngs Moduli (GPa) = 80.14460 73.68935 84.03898
#
# Poissons Ratio (x) = 0.21131 0.11837
# Poissons Ratio (y) = 0.22982 0.62652
# Poissons Ratio (z) = 0.11288 0.54937
#
# Static dielectric constant tensor:
#      x y z
#    x 1.666390 0.000000 0.000000 
#    y 0.000000 1.691430 0.000000 
#    z 0.000000 0.000000 1.665420 
# 
# From -- ./inp_files/31336.got.cif
#   From: 2010.05.17/outbox.cif.g08.bks.cpg/sg42_16_cif.got.tgz:31336.got - 2010.06.03 19:03:34.
