data_PCOD9369790
_publ_section_title
;
Structure prediction by ZEFSAII (Michael W. Deem and Ramdas Pophale) SiO2 
 PCOD9369790
Probable space group: F M M 2
;
_chemical_formula_sum "Si O2"
_cell_formula_units_Z 104
_cell_length_a 19.733515
_cell_length_b 23.245671
_cell_length_c 10.084545
_cell_angle_alpha 90.000000
_cell_angle_beta 90.000000
_cell_angle_gamma 90.000000
_cell_volume 4625.970354
_symmetry_space_group_name_H-M "F M M 2"
_symmetry_group_IT_number 42
_symmetry_cell_setting 'orthorhombic'
loop_
_space_group_symop_operation_xyz
x,y,z
-x,-y,z
-x,y,z
x,-y,z
x,1/2+y,1/2+z
-x,1/2-y,1/2+z
-x,1/2+y,1/2+z
x,1/2-y,1/2+z
1/2+x,y,1/2+z
1/2-x,-y,1/2+z
1/2-x,y,1/2+z
1/2+x,-y,1/2+z
1/2+x,1/2+y,z
1/2-x,1/2-y,z
1/2-x,1/2+y,z
1/2+x,1/2-y,z
loop_
_atom_site_type_symbol
_atom_site_label
_atom_site_fract_x
_atom_site_fract_y
_atom_site_fract_z
Si Si1 0.922682 0.105835 0.439450
Si Si2 0.333093 0.500000 0.537692
Si Si3 0.379824 0.773078 0.054712
Si Si4 0.000000 0.688915 0.230723
Si Si5 0.355368 0.605261 0.174360
Si Si6 0.236357 0.000000 0.265147
Si Si7 0.620978 0.151628 0.403209
Si Si8 0.760765 0.309472 0.244943
O O1 0.898272 0.169769 0.472750
O O2 0.914385 0.099948 0.282009
O O3 0.000000 0.101416 0.485522
O O4 0.876961 0.056905 0.506396
O O5 0.307171 0.500000 0.688044
O O6 0.273243 0.500000 0.424749
O O7 0.439797 0.770794 0.163308
O O8 0.382732 0.715943 0.967303
O O9 0.309093 0.788597 0.125175
O O10 0.060040 0.649505 0.300241
O O11 0.304159 0.554396 0.207844
O O12 0.381198 0.608404 0.025513
O O13 0.308941 0.661869 0.201079
O O14 0.693488 0.147597 0.330767
O O15 0.750000 0.250000 0.323686
#
# Coordination Sequence:
#
# PCOD9369790 Si02
#       8
#    16   8  16   8  16   8  16  16
#     4  11  24  41  68  92 126 168 218 265 322 383
#     4  10  23  46  70  98 127 168 216 278 330 407
#     4  11  22  40  61  90 129 167 215 266 314 394
#     4  10  24  42  58  91 128 175 222 258 324 390
#     4  11  25  41  66  95 126 170 215 272 329 389
#     4  10  24  44  68  98 128 166 220 268 346 380
#     4  11  25  38  64  89 133 172 212 267 323 391
#     4  11  23  38  60  93 127 165 213 261 330 382
#
# _framework density 22.481769
#
# number of rings (size 3 to 8) (size 9 to 14) (size 15 to 20)
#    0.000    1.231    2.308    2.538   11.846    0.000 
#    0.000    0.000    0.000    0.923    0.000    1.077 
#    0.000    0.000    0.000    0.000    0.000    0.000 
#
# Total GULP energy -144870.938419 kJ/mol
# GULP energy per Si atom -5571.959170 kJ/mol
# Density = 2.243060 g / cm^3
# Si number density = 22.481769 Si / 1000 Ang^3
#
#
#
# Elastic Constant Matrix: (Units=GPa)
#
#
# Indices 1 2 3 4 5 6 
#
# 1 63.1233 -7.6948 1.2409 0.0000 0.0000 0.0000
# 2 -7.6948 51.0981 -15.0147 0.0000 0.0000 0.0000
# 3 1.2409 -15.0147 33.9853 0.0000 0.0000 0.0000
# 4 0.0000 0.0000 0.0000 -16.0846 0.0000 0.0000
# 5 0.0000 0.0000 0.0000 0.0000 14.3038 0.0000
# 6 0.0000 0.0000 0.0000 0.0000 0.0000 4.4495
#
#
#
# Elastic Compliance Matrix: (Units=1/GPa)
#
#
# Indices 1 2 3 4 5 6 
#
# 1 0.016147 0.002595 0.000557 0.000000 0.000000 0.000000
# 2 0.002595 0.022907 0.010026 0.000000 0.000000 0.000000
# 3 0.000557 0.010026 0.033833 0.000000 0.000000 0.000000
# 4 0.000000 0.000000 0.000000 -0.062171 0.000000 0.000000
# 5 0.000000 0.000000 0.000000 0.000000 0.069911 0.000000
# 6 0.000000 0.000000 0.000000 0.000000 0.000000 0.224746
#
#
# Mechanical properties :
#
#
# Convention : Reuss Voigt Hill
#
# Bulk Modulus (GPa) = 10.07622 11.69660 10.88641
# Shear Modulus (GPa) = 16.02053 11.84542 13.93298
#
# Velocity S-wave (km/s) = 2.67235 2.29790 2.49217
# Velocity P-wave (km/s) = 3.74348 3.50064 3.62409
#
# Compressibility (1/GPa) = 0.09924358
#
# Stress axis : x y z
#
# Youngs Moduli (GPa) = 61.92936 43.65488 29.55657
#
# Poissons Ratio (x) = -0.11330 -0.01646
# Poissons Ratio (y) = -0.16073 -0.29632
# Poissons Ratio (z) = -0.03450 -0.43766
#
# Static dielectric constant tensor:
#      x y z
#    x 1.809900 0.000000 0.000000 
#    y 0.000000 2.267060 0.000000 
#    z 0.000000 0.000000 1.914190 
# 
# From -- ./inp_files/4276.got.cif
#   From: 2010.05.17/outbox.cif.g08.bks.cpg/sg42_3_cif.got.tgz:4276.got - 2010.06.03 19:03:34.
