data_PCOD9369173
_publ_section_title
;
Structure prediction by ZEFSAII (Michael W. Deem and Ramdas Pophale) SiO2 
 PCOD9369173
Probable space group: F M M 2
;
_chemical_formula_sum "Si O2"
_cell_formula_units_Z 64
_cell_length_a 10.409888
_cell_length_b 14.448105
_cell_length_c 22.044235
_cell_angle_alpha 90.000000
_cell_angle_beta 90.000000
_cell_angle_gamma 90.000000
_cell_volume 3315.522491
_symmetry_space_group_name_H-M "F M M 2"
_symmetry_group_IT_number 42
_symmetry_cell_setting 'orthorhombic'
loop_
_space_group_symop_operation_xyz
x,y,z
-x,-y,z
-x,y,z
x,-y,z
x,1/2+y,1/2+z
-x,1/2-y,1/2+z
-x,1/2+y,1/2+z
x,1/2-y,1/2+z
1/2+x,y,1/2+z
1/2-x,-y,1/2+z
1/2-x,y,1/2+z
1/2+x,-y,1/2+z
1/2+x,1/2+y,z
1/2-x,1/2-y,z
1/2-x,1/2+y,z
1/2+x,1/2-y,z
loop_
_atom_site_type_symbol
_atom_site_label
_atom_site_fract_x
_atom_site_fract_y
_atom_site_fract_z
Si Si1 0.250000 0.250000 0.029431
Si Si2 0.000000 0.887851 0.333977
Si Si3 0.500000 0.610939 0.838801
Si Si4 0.000000 0.247210 0.945365
Si Si5 0.846815 0.888582 0.627857
Si Si6 0.255238 0.388090 0.760602
O O1 0.225513 0.337123 0.073640
O O2 0.125394 0.245818 0.987087
O O3 0.000000 0.833068 0.397607
O O4 0.124041 0.862275 0.293747
O O5 0.000000 0.000000 0.343754
O O6 0.500000 0.500000 0.842465
O O7 0.500000 0.656719 0.903765
O O8 0.625416 0.640800 0.801882
O O9 0.782463 0.859595 0.691668
O O10 0.000000 0.865835 0.628331
O O11 0.837647 0.000000 0.622236
O O12 0.256335 0.500000 0.758955
#
# Coordination Sequence:
#
# PCOD9369173 Si02
#       6
#     8   8   8   8  16  16
#     4  12  26  42  60  92 124 170 226 256 286 372
#     4  10  22  39  61  93 127 158 199 260 316 368
#     4  10  20  37  61  85 117 158 199 254 314 370
#     4  12  26  40  58  86 128 170 214 254 298 364
#     4  10  21  42  69  92 125 167 204 259 325 375
#     4   9  18  37  65  93 118 151 201 255 319 381
#
# _framework density 19.303142000000001
#
# number of rings (size 3 to 8) (size 9 to 14) (size 15 to 20)
#    0.000    1.750    2.500    1.500    0.000    5.000 
#    0.000    1.250    0.000    0.000    0.000    0.000 
#    0.000    0.000    0.000    0.000    0.000    0.000 
#
# Total GULP energy -89384.564942 kJ/mol
# GULP energy per Si atom -5586.535309 kJ/mol
# Density = 1.925921 g / cm^3
# Si number density = 19.303142 Si / 1000 Ang^3
#
#
#
# Elastic Constant Matrix: (Units=GPa)
#
#
# Indices 1 2 3 4 5 6 
#
# 1 202.0886 45.8164 116.8158 0.0000 0.0000 0.0000
# 2 45.8164 92.6206 54.8703 0.0000 0.0000 0.0000
# 3 116.8158 54.8703 194.6029 0.0000 0.0000 0.0000
# 4 0.0000 0.0000 0.0000 48.9336 0.0000 0.0000
# 5 0.0000 0.0000 0.0000 0.0000 56.0632 0.0000
# 6 0.0000 0.0000 0.0000 0.0000 0.0000 -14.1051
#
#
#
# Elastic Compliance Matrix: (Units=1/GPa)
#
#
# Indices 1 2 3 4 5 6 
#
# 1 0.007703 -0.001286 -0.004261 0.000000 0.000000 0.000000
# 2 -0.001286 0.013177 -0.002943 0.000000 0.000000 0.000000
# 3 -0.004261 -0.002943 0.008527 0.000000 0.000000 0.000000
# 4 0.000000 0.000000 0.000000 0.020436 0.000000 0.000000
# 5 0.000000 0.000000 0.000000 0.000000 0.017837 0.000000
# 6 0.000000 0.000000 0.000000 0.000000 0.000000 -0.070897
#
#
# Mechanical properties :
#
#
# Convention : Reuss Voigt Hill
#
# Bulk Modulus (GPa) = 80.48376 102.70190 91.59283
# Shear Modulus (GPa) = 279.23902 36.29897 157.76900
#
# Velocity S-wave (km/s) = 12.04051 4.34114 9.05040
# Velocity P-wave (km/s) = 15.33244 8.85707 12.52061
#
# Compressibility (1/GPa) = 0.01242487
#
# Stress axis : x y z
#
# Youngs Moduli (GPa) = 129.81672 75.89249 117.27962
#
# Poissons Ratio (x) = 0.09759 0.49978
# Poissons Ratio (y) = 0.16694 0.34519
# Poissons Ratio (z) = 0.55321 0.22338
#
# Static dielectric constant tensor:
#      x y z
#    x 1.648180 0.000000 0.000000 
#    y 0.000000 1.697520 0.000000 
#    z 0.000000 0.000000 1.646730 
# 
# From -- ./inp_files/18689.got.cif
#   From: 2010.05.17/outbox.cif.g08.bks.cpg/sg42_10_cif.got.tgz:18689.got - 2010.06.03 19:03:34.
