data_PCOD9369456
_publ_section_title
;
Structure prediction by ZEFSAII (Michael W. Deem and Ramdas Pophale) SiO2 
 PCOD9369456
Probable space group: F M M 2
;
_chemical_formula_sum "Si O2"
_cell_formula_units_Z 64
_cell_length_a 13.346874
_cell_length_b 8.926979
_cell_length_c 20.675205
_cell_angle_alpha 90.000000
_cell_angle_beta 90.000000
_cell_angle_gamma 90.000000
_cell_volume 2463.394107
_symmetry_space_group_name_H-M "F M M 2"
_symmetry_group_IT_number 42
_symmetry_cell_setting 'orthorhombic'
loop_
_space_group_symop_operation_xyz
x,y,z
-x,-y,z
-x,y,z
x,-y,z
x,1/2+y,1/2+z
-x,1/2-y,1/2+z
-x,1/2+y,1/2+z
x,1/2-y,1/2+z
1/2+x,y,1/2+z
1/2-x,-y,1/2+z
1/2-x,y,1/2+z
1/2+x,-y,1/2+z
1/2+x,1/2+y,z
1/2-x,1/2-y,z
1/2-x,1/2+y,z
1/2+x,1/2-y,z
loop_
_atom_site_type_symbol
_atom_site_label
_atom_site_fract_x
_atom_site_fract_y
_atom_site_fract_z
Si Si1 0.250000 0.250000 0.638541
Si Si2 0.121425 0.668973 0.450492
Si Si3 0.883813 0.500000 0.002950
Si Si4 0.615971 0.500000 0.266478
Si Si5 0.113568 0.000000 0.109186
Si Si6 0.886618 0.000000 0.660171
Si Si7 0.250000 0.250000 0.832298
O O1 0.176234 0.351693 0.596281
O O2 0.176338 0.144254 0.678521
O O3 0.143907 0.500000 0.479173
O O4 0.172418 0.667336 0.380338
O O5 0.000000 0.674846 0.448536
O O6 0.153212 0.836074 0.478240
O O7 0.000000 0.500000 0.983150
O O8 0.882953 0.500000 0.081385
O O9 0.500000 0.500000 0.289402
O O10 0.611557 0.500000 0.188414
O O11 0.678992 0.360566 0.292557
O O12 0.000000 0.000000 0.087125
O O13 0.000000 0.000000 0.681944
#
# Coordination Sequence:
#
# PCOD9369456 Si02
#       7
#     8  16   8   8   8   8   8
#     4  10  21  39  64  92 118 156 200 241 307 382
#     4  10  21  38  58  83 118 162 209 250 300 363
#     4   9  20  39  60  86 124 162 203 259 305 351
#     4  11  24  39  61  90 120 156 202 253 306 365
#     4  10  21  40  62  89 122 155 195 247 307 373
#     4  10  21  40  62  89 124 157 197 255 305 355
#     4  12  21  39  58  84 116 160 200 255 303 350
#
# _framework density 25.980412999999999
#
# number of rings (size 3 to 8) (size 9 to 14) (size 15 to 20)
#    0.000    1.750    1.250    3.000    0.000    2.000 
#    4.500    0.000    0.000    6.000    0.000    0.000 
#    0.000    0.000    0.000    0.000    0.000    0.000 
#
# Total GULP energy -89503.509501 kJ/mol
# GULP energy per Si atom -5593.969344 kJ/mol
# Density = 2.592128 g / cm^3
# Si number density = 25.980413 Si / 1000 Ang^3
#
#
#
# Elastic Constant Matrix: (Units=GPa)
#
#
# Indices 1 2 3 4 5 6 
#
# 1 216.2080 123.6023 37.8012 0.0000 0.0000 0.0000
# 2 123.6023 257.9405 65.4282 0.0000 0.0000 0.0000
# 3 37.8012 65.4282 89.1424 0.0000 0.0000 0.0000
# 4 0.0000 0.0000 0.0000 21.5133 0.0000 0.0000
# 5 0.0000 0.0000 0.0000 0.0000 38.6136 0.0000
# 6 0.0000 0.0000 0.0000 0.0000 0.0000 55.4429
#
#
#
# Elastic Compliance Matrix: (Units=1/GPa)
#
#
# Indices 1 2 3 4 5 6 
#
# 1 0.006394 -0.002920 -0.000568 0.000000 0.000000 0.000000
# 2 -0.002920 0.006097 -0.003237 0.000000 0.000000 0.000000
# 3 -0.000568 -0.003237 0.013835 0.000000 0.000000 0.000000
# 4 0.000000 0.000000 0.000000 0.046483 0.000000 0.000000
# 5 0.000000 0.000000 0.000000 0.000000 0.025898 0.000000
# 6 0.000000 0.000000 0.000000 0.000000 0.000000 0.018037
#
#
# Mechanical properties :
#
#
# Convention : Reuss Voigt Hill
#
# Bulk Modulus (GPa) = 77.66582 112.99491 95.33037
# Shear Modulus (GPa) = 37.17910 45.54457 41.36184
#
# Velocity S-wave (km/s) = 3.78702 4.19147 3.99437
# Velocity P-wave (km/s) = 7.00578 8.18604 7.61880
#
# Compressibility (1/GPa) = 0.01287568
#
# Stress axis : x y z
#
# Youngs Moduli (GPa) = 156.40593 164.01584 72.28126
#
# Poissons Ratio (x) = 0.47886 0.04108
# Poissons Ratio (y) = 0.45664 0.23397
# Poissons Ratio (z) = 0.08889 0.53091
#
# Static dielectric constant tensor:
#      x y z
#    x 1.983530 0.000000 0.000000 
#    y 0.000000 2.074780 0.000000 
#    z 0.000000 0.000000 2.069940 
# 
# From -- ./inp_files/29217.got.cif
#   From: 2010.05.17/outbox.cif.g08.bks.cpg/sg42_15_cif.got.tgz:29217.got - 2010.06.03 19:03:34.
