data_PCOD9369093
_publ_section_title
;
Structure prediction by ZEFSAII (Michael W. Deem and Ramdas Pophale) SiO2 
 PCOD9369093
Probable space group: F M M 2
;
_chemical_formula_sum "Si O2"
_cell_formula_units_Z 80
_cell_length_a 30.628440
_cell_length_b 9.289320
_cell_length_c 14.498580
_cell_angle_alpha 90.000000
_cell_angle_beta 90.000000
_cell_angle_gamma 90.000000
_cell_volume 4125.097999
_symmetry_space_group_name_H-M "F M M 2"
_symmetry_group_IT_number 42
_symmetry_cell_setting 'orthorhombic'
loop_
_space_group_symop_operation_xyz
x,y,z
-x,-y,z
-x,y,z
x,-y,z
x,1/2+y,1/2+z
-x,1/2-y,1/2+z
-x,1/2+y,1/2+z
x,1/2-y,1/2+z
1/2+x,y,1/2+z
1/2-x,-y,1/2+z
1/2-x,y,1/2+z
1/2+x,-y,1/2+z
1/2+x,1/2+y,z
1/2-x,1/2-y,z
1/2-x,1/2+y,z
1/2+x,1/2-y,z
loop_
_atom_site_type_symbol
_atom_site_label
_atom_site_fract_x
_atom_site_fract_y
_atom_site_fract_z
Si Si1 0.047608 0.666121 0.002040
Si Si2 0.866247 0.668557 0.497284
Si Si3 0.451067 0.166195 0.777502
Si Si4 0.296508 0.827123 0.648147
Si Si5 0.864205 0.670075 0.277824
O O1 0.049880 0.500000 0.031103
O O2 0.090819 0.748635 0.030955
O O3 0.000000 0.725987 0.029479
O O4 0.048242 0.667376 0.889741
O O5 0.874448 0.500000 0.511620
O O6 0.823269 0.706565 0.554528
O O7 0.860323 0.691532 0.388184
O O8 0.500000 0.208292 0.747756
O O9 0.411798 0.269619 0.749640
O O10 0.442920 0.000000 0.749515
O O11 0.250000 0.750000 0.648806
O O12 0.327113 0.761590 0.727671
O O13 0.292115 0.000000 0.656958
O O14 0.860375 0.500000 0.257995
#
# Coordination Sequence:
#
# PCOD9369093 Si02
#       5
#    16  16  16  16  16
#     4   8  14  26  48  79 112 145 181 219 261 312
#     4   9  20  37  57  82 112 144 180 222 269 322
#     4   8  14  27  49  78 112 149 185 220 263 316
#     4  11  24  42  60  80 107 140 180 227 279 331
#     4  10  20  36  58  85 114 144 181 225 272 322
#
# _framework density 19.39348
#
# number of rings (size 3 to 8) (size 9 to 14) (size 15 to 20)
#    0.000    2.800    0.000    2.400    0.000    4.000 
#    0.000    7.000    0.000    1.200    0.000    0.000 
#    0.000    0.000    0.000    0.000    0.000    0.000 
#
# Total GULP energy -111612.716867 kJ/mol
# GULP energy per Si atom -5580.635843 kJ/mol
# Density = 1.934934 g / cm^3
# Si number density = 19.393480 Si / 1000 Ang^3
#
#
#
# Elastic Constant Matrix: (Units=GPa)
#
#
# Indices 1 2 3 4 5 6 
#
# 1 201.2027 98.5690 43.7266 0.0000 0.0000 0.0000
# 2 98.5690 82.9214 43.1315 0.0000 0.0000 0.0000
# 3 43.7266 43.1315 53.2308 0.0000 0.0000 0.0000
# 4 0.0000 0.0000 0.0000 16.4767 0.0000 0.0000
# 5 0.0000 0.0000 0.0000 0.0000 32.9755 0.0000
# 6 0.0000 0.0000 0.0000 0.0000 0.0000 48.6889
#
#
#
# Elastic Compliance Matrix: (Units=1/GPa)
#
#
# Indices 1 2 3 4 5 6 
#
# 1 0.012168 -0.016014 0.002981 0.000000 0.000000 0.000000
# 2 -0.016014 0.041921 -0.020813 0.000000 0.000000 0.000000
# 3 0.002981 -0.020813 0.033202 0.000000 0.000000 0.000000
# 4 0.000000 0.000000 0.000000 0.060692 0.000000 0.000000
# 5 0.000000 0.000000 0.000000 0.000000 0.030326 0.000000
# 6 0.000000 0.000000 0.000000 0.000000 0.000000 0.020539
#
#
# Mechanical properties :
#
#
# Convention : Reuss Voigt Hill
#
# Bulk Modulus (GPa) = 51.02543 78.68989 64.85766
# Shear Modulus (GPa) = 18.31017 29.75672 24.03345
#
# Velocity S-wave (km/s) = 3.07602 3.92135 3.52412
# Velocity P-wave (km/s) = 6.24368 7.82088 7.07636
#
# Compressibility (1/GPa) = 0.01959807
#
# Stress axis : x y z
#
# Youngs Moduli (GPa) = 82.18547 23.85419 30.11882
#
# Poissons Ratio (x) = 0.38200 -0.08977
# Poissons Ratio (y) = 1.31612 0.62686
# Poissons Ratio (z) = -0.24496 0.49648
#
# Static dielectric constant tensor:
#      x y z
#    x 1.653400 0.000000 0.000000 
#    y 0.000000 1.652160 0.000000 
#    z 0.000000 0.000000 1.734740 
# 
# From -- ./inp_files/18200.got.cif
#   From: 2010.05.17/outbox.cif.g08.bks.cpg/sg42_10_cif.got.tgz:18200.got - 2010.06.03 19:03:34.
