data_PCOD9369216
_publ_section_title
;
Structure prediction by ZEFSAII (Michael W. Deem and Ramdas Pophale) SiO2 
 PCOD9369216
Probable space group: F M M 2
;
_chemical_formula_sum "Si O2"
_cell_formula_units_Z 108
_cell_length_a 23.136112
_cell_length_b 21.386036
_cell_length_c 11.640380
_cell_angle_alpha 90.000000
_cell_angle_beta 90.000000
_cell_angle_gamma 90.000000
_cell_volume 5759.540409
_symmetry_space_group_name_H-M "F M M 2"
_symmetry_group_IT_number 42
_symmetry_cell_setting 'orthorhombic'
loop_
_space_group_symop_operation_xyz
x,y,z
-x,-y,z
-x,y,z
x,-y,z
x,1/2+y,1/2+z
-x,1/2-y,1/2+z
-x,1/2+y,1/2+z
x,1/2-y,1/2+z
1/2+x,y,1/2+z
1/2-x,-y,1/2+z
1/2-x,y,1/2+z
1/2+x,-y,1/2+z
1/2+x,1/2+y,z
1/2-x,1/2-y,z
1/2-x,1/2+y,z
1/2+x,1/2-y,z
loop_
_atom_site_type_symbol
_atom_site_label
_atom_site_fract_x
_atom_site_fract_y
_atom_site_fract_z
Si Si1 0.500000 0.500000 0.027000
Si Si2 0.680410 0.857890 0.961763
Si Si3 0.750000 0.750000 0.345744
Si Si4 0.332241 0.652319 0.729921
Si Si5 0.198845 0.073011 0.936943
Si Si6 0.565641 0.642308 0.330156
Si Si7 0.588544 0.882677 0.561764
Si Si8 0.062806 0.710008 0.359179
O O1 0.550540 0.443972 0.030490
O O2 0.702696 0.788784 0.919946
O O3 0.736600 0.900722 0.944122
O O4 0.623226 0.881135 0.895027
O O5 0.667421 0.857889 0.096012
O O6 0.718863 0.800924 0.267136
O O7 0.324702 0.591945 0.810916
O O8 0.389871 0.685703 0.772070
O O9 0.155481 0.104253 0.029410
O O10 0.198072 0.000000 0.954755
O O11 0.500000 0.617535 0.354723
O O12 0.564862 0.715418 0.363985
O O13 0.576939 0.633051 0.194478
O O14 0.571672 0.824129 0.481072
O O15 0.000000 0.691173 0.315567
#
# Coordination Sequence:
#
# PCOD9369216 Si02
#       8
#     4  16   8  16  16  16  16  16
#     4  12  20  44  76  88 130 164 226 294 292 378
#     4  11  24  39  59  92 129 171 206 262 330 394
#     4  10  20  38  58  86 120 168 210 258 310 378
#     4  10  22  37  59  88 122 160 208 252 324 386
#     4  10  24  43  65  89 120 165 222 276 311 377
#     4  11  24  40  62  96 136 169 212 266 332 395
#     4  11  23  43  68 100 121 172 225 269 326 365
#     4  10  21  37  62  92 129 161 207 268 316 386
#
# _framework density 18.751495999999999
#
# number of rings (size 3 to 8) (size 9 to 14) (size 15 to 20)
#    0.000    1.481    3.704    0.444    6.222    1.185 
#    1.333    0.000    0.000    0.000    0.000    3.111 
#    0.000    0.000    0.000    0.000    0.000    0.000 
#
# Total GULP energy -150362.959843 kJ/mol
# GULP energy per Si atom -5568.998513 kJ/mol
# Density = 1.870882 g / cm^3
# Si number density = 18.751496 Si / 1000 Ang^3
#
#
#
# Elastic Constant Matrix: (Units=GPa)
#
#
# Indices 1 2 3 4 5 6 
#
# 1 154.9893 10.0161 31.6941 0.0000 0.0000 0.0000
# 2 10.0161 54.7745 1.7131 0.0000 0.0000 0.0000
# 3 31.6941 1.7131 70.4414 0.0000 0.0000 0.0000
# 4 0.0000 0.0000 0.0000 1.9618 0.0000 0.0000
# 5 0.0000 0.0000 0.0000 0.0000 -85.6729 0.0000
# 6 0.0000 0.0000 0.0000 0.0000 0.0000 5.1816
#
#
#
# Elastic Compliance Matrix: (Units=1/GPa)
#
#
# Indices 1 2 3 4 5 6 
#
# 1 0.007186 -0.001214 -0.003204 0.000000 0.000000 0.000000
# 2 -0.001214 0.018476 0.000097 0.000000 0.000000 0.000000
# 3 -0.003204 0.000097 0.015635 0.000000 0.000000 0.000000
# 4 0.000000 0.000000 0.000000 0.509745 0.000000 0.000000
# 5 0.000000 0.000000 0.000000 0.000000 -0.011672 0.000000
# 6 0.000000 0.000000 0.000000 0.000000 0.000000 0.192992
#
#
# Mechanical properties :
#
#
# Convention : Reuss Voigt Hill
#
# Bulk Modulus (GPa) = 30.62277 40.78350 35.70313
# Shear Modulus (GPa) = 6.64994 0.07955 3.36474
#
# Velocity S-wave (km/s) = 1.88522 0.20619 1.34100
# Velocity P-wave (km/s) = 4.59402 4.67476 4.63457
#
# Compressibility (1/GPa) = 0.03265544
#
# Stress axis : x y z
#
# Youngs Moduli (GPa) = 139.16735 54.12542 63.95817
#
# Poissons Ratio (x) = 0.06570 0.20489
# Poissons Ratio (y) = 0.16892 -0.00619
# Poissons Ratio (z) = 0.44583 -0.00524
#
# Static dielectric constant tensor:
#      x y z
#    x 1.741600 0.000000 0.000000 
#    y 0.000000 1.650010 0.000000 
#    z 0.000000 0.000000 1.619210 
# 
# From -- ./inp_files/9709.got.cif
#   From: 2010.05.17/outbox.cif.g08.bks.cpg/sg42_5_cif.got.tgz:9709.got - 2010.06.03 19:03:34.
