data_PCOD9369973
_publ_section_title
;
Structure prediction by ZEFSAII (Michael W. Deem and Ramdas Pophale) SiO2 
 PCOD9369973
Probable space group: F M M 2
;
_chemical_formula_sum "Si O2"
_cell_formula_units_Z 104
_cell_length_a 28.589713
_cell_length_b 21.345189
_cell_length_c 8.987252
_cell_angle_alpha 90.000000
_cell_angle_beta 90.000000
_cell_angle_gamma 90.000000
_cell_volume 5484.495944
_symmetry_space_group_name_H-M "F M M 2"
_symmetry_group_IT_number 42
_symmetry_cell_setting 'orthorhombic'
loop_
_space_group_symop_operation_xyz
x,y,z
-x,-y,z
-x,y,z
x,-y,z
x,1/2+y,1/2+z
-x,1/2-y,1/2+z
-x,1/2+y,1/2+z
x,1/2-y,1/2+z
1/2+x,y,1/2+z
1/2-x,-y,1/2+z
1/2-x,y,1/2+z
1/2+x,-y,1/2+z
1/2+x,1/2+y,z
1/2-x,1/2-y,z
1/2-x,1/2+y,z
1/2+x,1/2-y,z
loop_
_atom_site_type_symbol
_atom_site_label
_atom_site_fract_x
_atom_site_fract_y
_atom_site_fract_z
Si Si1 0.446821 0.389756 0.079960
Si Si2 0.204518 0.571173 0.724489
Si Si3 0.202782 0.104881 0.559159
Si Si4 0.148362 0.173697 0.067915
Si Si5 0.697048 0.275255 0.767460
Si Si6 0.445291 0.000000 0.815791
Si Si7 0.948398 0.000000 0.840866
Si Si8 0.874176 0.000000 0.586385
O O1 0.500000 0.365138 0.092387
O O2 0.407161 0.337335 0.061481
O O3 0.438156 0.436960 0.218413
O O4 0.445552 0.438197 0.942477
O O5 0.190324 0.500000 0.757080
O O6 0.253202 0.572364 0.637469
O O7 0.168725 0.606523 0.617728
O O8 0.210122 0.606571 0.881778
O O9 0.199229 0.171430 0.639911
O O10 0.157992 0.061489 0.584389
O O11 0.165139 0.220852 0.196939
O O12 0.173216 0.196663 0.915957
O O13 0.750000 0.250000 0.794581
O O14 0.500000 0.000000 0.860714
O O15 0.409086 0.000000 0.948208
O O16 0.906000 0.000000 0.730281
O O17 0.000000 0.000000 0.768615
#
# Coordination Sequence:
#
# PCOD9369973 Si02
#       8
#    16  16  16  16  16   8   8   8
#     4   9  20  41  65  93 122 164 213 263 324 389
#     4  12  24  42  60  94 132 168 207 261 323 376
#     4  12  25  40  61  90 130 171 214 262 312 384
#     4  12  25  42  70  89 130 170 224 266 323 374
#     4  12  26  45  63  93 124 181 225 268 305 388
#     4   9  19  37  65  95 129 168 208 257 325 394
#     4   9  19  35  59  91 127 160 204 259 319 388
#     4  12  21  36  60  98 132 160 209 262 332 372
#
# _framework density 18.962546
#
# number of rings (size 3 to 8) (size 9 to 14) (size 15 to 20)
#    0.000    0.923    3.077    5.308    2.154    0.000 
#    1.385    0.769    0.000    1.846    0.000    0.000 
#    0.000    0.000    0.000    0.000    0.000    0.000 
#
# Total GULP energy -145335.603717 kJ/mol
# GULP energy per Si atom -5589.830912 kJ/mol
# Density = 1.891939 g / cm^3
# Si number density = 18.962546 Si / 1000 Ang^3
#
#
#
# Elastic Constant Matrix: (Units=GPa)
#
#
# Indices 1 2 3 4 5 6 
#
# 1 150.1168 55.3886 51.6540 0.0003 0.0001 -0.0001
# 2 55.3886 89.6191 30.8999 0.0004 0.0002 0.0000
# 3 51.6540 30.8999 100.6387 0.0011 0.0004 0.0000
# 4 0.0003 0.0004 0.0011 -35.9975 -0.0007 0.0006
# 5 0.0001 0.0002 0.0004 -0.0007 7.9809 0.0003
# 6 -0.0001 0.0000 0.0000 0.0006 0.0003 3.2264
#
#
#
# Elastic Compliance Matrix: (Units=1/GPa)
#
#
# Indices 1 2 3 4 5 6 
#
# 1 0.009606 -0.004738 -0.003475 0.000000 0.000000 0.000000
# 2 -0.004738 0.014817 -0.002117 0.000000 0.000000 0.000000
# 3 -0.003475 -0.002117 0.012370 0.000000 -0.000001 0.000000
# 4 0.000000 0.000000 0.000000 -0.027780 -0.000002 0.000005
# 5 0.000000 0.000000 -0.000001 -0.000002 0.125299 -0.000010
# 6 0.000000 0.000000 0.000000 0.000005 -0.000010 0.309943
#
#
# Mechanical properties :
#
#
# Convention : Reuss Voigt Hill
#
# Bulk Modulus (GPa) = 61.99319 68.47332 65.23325
# Shear Modulus (GPa) = 10.63163 8.53743 9.58453
#
# Velocity S-wave (km/s) = 2.37041 2.12416 2.25065
# Velocity P-wave (km/s) = 6.34470 6.49648 6.42103
#
# Compressibility (1/GPa) = 0.01613080
#
# Stress axis : x y z
#
# Youngs Moduli (GPa) = 104.10521 67.49028 80.83828
#
# Poissons Ratio (x) = 0.31980 0.28094
# Poissons Ratio (y) = 0.49330 0.17116
# Poissons Ratio (z) = 0.36180 0.14290
#
# Static dielectric constant tensor:
#      x y z
#    x 1.682930 0.000000 0.000000 
#    y 0.000000 1.687710 0.000000 
#    z 0.000000 0.000000 1.657540 
# 
# From -- ./inp_files/4388.got.cif
#   From: 2010.05.17/outbox.cif.g08.bks.cpg/sg42_3_cif.got.tgz:4388.got - 2010.06.03 19:03:34.
