data_PCOD9369036
_publ_section_title
;
Structure prediction by ZEFSAII (Michael W. Deem and Ramdas Pophale) SiO2 
 PCOD9369036
Probable space group: F M M 2
;
_chemical_formula_sum "Si O2"
_cell_formula_units_Z 80
_cell_length_a 20.942636
_cell_length_b 15.606120
_cell_length_c 9.998821
_cell_angle_alpha 90.000000
_cell_angle_beta 90.000000
_cell_angle_gamma 90.000000
_cell_volume 3267.947569
_symmetry_space_group_name_H-M "F M M 2"
_symmetry_group_IT_number 42
_symmetry_cell_setting 'orthorhombic'
loop_
_space_group_symop_operation_xyz
x,y,z
-x,-y,z
-x,y,z
x,-y,z
x,1/2+y,1/2+z
-x,1/2-y,1/2+z
-x,1/2+y,1/2+z
x,1/2-y,1/2+z
1/2+x,y,1/2+z
1/2-x,-y,1/2+z
1/2-x,y,1/2+z
1/2+x,-y,1/2+z
1/2+x,1/2+y,z
1/2-x,1/2-y,z
1/2-x,1/2+y,z
1/2+x,1/2-y,z
loop_
_atom_site_type_symbol
_atom_site_label
_atom_site_fract_x
_atom_site_fract_y
_atom_site_fract_z
Si Si1 0.573475 0.406337 0.441610
Si Si2 0.571760 0.779633 0.476598
Si Si3 0.602791 0.903838 0.250530
Si Si4 0.739735 0.351166 0.839119
Si Si5 0.827669 0.097304 0.105652
O O1 0.500000 0.404463 0.393267
O O2 0.599956 0.500000 0.400032
O O3 0.599761 0.310480 0.422038
O O4 0.575695 0.407001 0.602856
O O5 0.500000 0.766318 0.531241
O O6 0.567768 0.840669 0.349066
O O7 0.618662 0.830547 0.576382
O O8 0.675744 0.872169 0.254746
O O9 0.600705 0.000000 0.304710
O O10 0.750000 0.250000 0.851595
O O11 0.795598 0.389940 0.749258
O O12 0.724548 0.388702 0.986292
O O13 0.852008 0.000000 0.094750
#
# Coordination Sequence:
#
# PCOD9369036 Si02
#       5
#    16  16  16  16  16
#     4   9  18  33  55  83 114 150 194 243 296 357
#     4  10  20  35  59  90 119 150 196 254 308 356
#     4  10  20  36  58  83 114 156 203 244 290 358
#     4  11  22  38  60  88 123 163 207 256 307 362
#     4  11  23  40  62  91 126 164 206 253 308 368
#
# _framework density 24.480198999999999
#
# number of rings (size 3 to 8) (size 9 to 14) (size 15 to 20)
#    0.000    1.800    0.000    6.000    0.000    4.000 
#    0.000    0.000    0.000   16.800    0.000   16.800 
#    0.000   19.200    0.000    0.000    0.000    0.000 
#
# Total GULP energy -111790.526402 kJ/mol
# GULP energy per Si atom -5589.526320 kJ/mol
# Density = 2.442448 g / cm^3
# Si number density = 24.480199 Si / 1000 Ang^3
#
#
#
# Elastic Constant Matrix: (Units=GPa)
#
#
# Indices 1 2 3 4 5 6 
#
# 1 92.3921 63.1852 49.9058 0.0000 0.0000 0.0000
# 2 63.1852 228.6027 12.6300 0.0000 0.0000 0.0000
# 3 49.9058 12.6300 67.3709 0.0000 0.0000 0.0000
# 4 0.0000 0.0000 0.0000 -79.8114 0.0000 0.0000
# 5 0.0000 0.0000 0.0000 0.0000 6.1011 0.0000
# 6 0.0000 0.0000 0.0000 0.0000 0.0000 45.1069
#
#
#
# Elastic Compliance Matrix: (Units=1/GPa)
#
#
# Indices 1 2 3 4 5 6 
#
# 1 0.023465 -0.005583 -0.016336 0.000000 0.000000 0.000000
# 2 -0.005583 0.005749 0.003058 0.000000 0.000000 0.000000
# 3 -0.016336 0.003058 0.026371 0.000000 0.000000 0.000000
# 4 0.000000 0.000000 0.000000 -0.012530 0.000000 0.000000
# 5 0.000000 0.000000 0.000000 0.000000 0.163905 0.000000
# 6 0.000000 0.000000 0.000000 0.000000 0.000000 0.022170
#
#
# Mechanical properties :
#
#
# Convention : Reuss Voigt Hill
#
# Bulk Modulus (GPa) = 55.98050 71.08975 63.53512
# Shear Modulus (GPa) = 18.32807 11.78898 15.05852
#
# Velocity S-wave (km/s) = 2.73919 2.19686 2.48287
# Velocity P-wave (km/s) = 5.73773 5.96135 5.85060
#
# Compressibility (1/GPa) = 0.01786336
#
# Stress axis : x y z
#
# Youngs Moduli (GPa) = 42.61592 173.95412 37.92096
#
# Poissons Ratio (x) = 0.97123 0.61946
# Poissons Ratio (y) = 0.23794 -0.11597
# Poissons Ratio (z) = 0.69616 -0.53198
#
# Static dielectric constant tensor:
#      x y z
#    x 2.020570 0.000000 0.000000 
#    y 0.000000 2.248020 0.000000 
#    z 0.000000 0.000000 1.922580 
# 
# From -- ./inp_files/10012.got.cif
#   From: 2010.05.17/outbox.cif.g08.bks.cpg/sg42_6_cif.got.tgz:10012.got - 2010.06.03 19:03:34.
