data_PCOD9369821
_publ_section_title
;
Structure prediction by ZEFSAII (Michael W. Deem and Ramdas Pophale) SiO2 
 PCOD9369821
Probable space group: F M M 2
;
_chemical_formula_sum "Si O2"
_cell_formula_units_Z 84
_cell_length_a 22.177270
_cell_length_b 17.545153
_cell_length_c 9.653395
_cell_angle_alpha 90.000000
_cell_angle_beta 90.000000
_cell_angle_gamma 90.000000
_cell_volume 3756.170701
_symmetry_space_group_name_H-M "F M M 2"
_symmetry_group_IT_number 42
_symmetry_cell_setting 'orthorhombic'
loop_
_space_group_symop_operation_xyz
x,y,z
-x,-y,z
-x,y,z
x,-y,z
x,1/2+y,1/2+z
-x,1/2-y,1/2+z
-x,1/2+y,1/2+z
x,1/2-y,1/2+z
1/2+x,y,1/2+z
1/2-x,-y,1/2+z
1/2-x,y,1/2+z
1/2+x,-y,1/2+z
1/2+x,1/2+y,z
1/2-x,1/2-y,z
1/2-x,1/2+y,z
1/2+x,1/2-y,z
loop_
_atom_site_type_symbol
_atom_site_label
_atom_site_fract_x
_atom_site_fract_y
_atom_site_fract_z
Si Si1 0.623335 0.586615 0.318930
Si Si2 0.399569 0.370213 0.843406
Si Si3 0.000000 0.768516 0.988747
Si Si4 0.000000 0.152294 0.265408
Si Si5 0.832594 0.818948 0.568370
Si Si6 0.696552 0.138959 0.563630
Si Si7 0.000000 0.000000 0.791673
O O1 0.625341 0.500000 0.370037
O O2 0.559447 0.602534 0.245274
O O3 0.630455 0.647041 0.441105
O O4 0.674446 0.603067 0.206667
O O5 0.368148 0.333242 0.709928
O O6 0.446603 0.434330 0.798192
O O7 0.440866 0.311331 0.930509
O O8 0.344084 0.396462 0.941620
O O9 0.000000 0.779071 0.154013
O O10 0.000000 0.685960 0.920047
O O11 0.768599 0.863070 0.558186
O O12 0.819174 0.729273 0.558806
#
# Coordination Sequence:
#
# PCOD9369821 Si02
#       7
#    16  16   8   8  16  16   4
#     4  12  28  44  68 106 149 184 232 302 368 419
#     4  11  24  44  72  99 141 188 239 288 353 440
#     4  11  24  41  72 103 131 190 249 301 353 420
#     4  12  25  45  69 101 142 188 244 300 362 428
#     4  11  25  46  74 108 142 184 240 298 360 426
#     4  11  23  47  77 104 140 188 241 296 354 436
#     4  10  28  46  64  96 142 192 240 278 356 424
#
# _framework density 22.363202000000001
#
# number of rings (size 3 to 8) (size 9 to 14) (size 15 to 20)
#    0.000    0.762    1.905    4.857    5.333    4.571 
#    3.429    0.000    0.000    0.000    0.000    0.000 
#    0.000    0.000    0.000    0.000    0.000    0.000 
#
# Total GULP energy -117258.505660 kJ/mol
# GULP energy per Si atom -5583.738365 kJ/mol
# Density = 2.231230 g / cm^3
# Si number density = 22.363202 Si / 1000 Ang^3
#
#
#
# Elastic Constant Matrix: (Units=GPa)
#
#
# Indices 1 2 3 4 5 6 
#
# 1 168.6403 7.5879 17.8989 0.0000 0.0000 0.0000
# 2 7.5879 61.7230 -12.7753 0.0000 0.0000 0.0000
# 3 17.8989 -12.7753 85.2465 0.0000 0.0000 0.0000
# 4 0.0000 0.0000 0.0000 -13.6503 0.0000 0.0000
# 5 0.0000 0.0000 0.0000 0.0000 28.3361 0.0000
# 6 0.0000 0.0000 0.0000 0.0000 0.0000 31.5391
#
#
#
# Elastic Compliance Matrix: (Units=1/GPa)
#
#
# Indices 1 2 3 4 5 6 
#
# 1 0.006131 -0.001053 -0.001445 0.000000 0.000000 0.000000
# 2 -0.001053 0.016901 0.002754 0.000000 0.000000 0.000000
# 3 -0.001445 0.002754 0.012447 0.000000 0.000000 0.000000
# 4 0.000000 0.000000 0.000000 -0.073259 0.000000 0.000000
# 5 0.000000 0.000000 0.000000 0.000000 0.035291 0.000000
# 6 0.000000 0.000000 0.000000 0.000000 0.000000 0.031707
#
#
# Mechanical properties :
#
#
# Convention : Reuss Voigt Hill
#
# Bulk Modulus (GPa) = 27.78520 37.89254 32.83887
# Shear Modulus (GPa) = 122.84595 29.43821 76.14208
#
# Velocity S-wave (km/s) = 7.41967 3.63211 5.84139
# Velocity P-wave (km/s) = 9.26571 5.87968 7.75964
#
# Compressibility (1/GPa) = 0.03599038
#
# Stress axis : x y z
#
# Youngs Moduli (GPa) = 163.11849 59.16875 80.34208
#
# Poissons Ratio (x) = 0.06229 0.11609
# Poissons Ratio (y) = 0.17172 -0.22125
# Poissons Ratio (z) = 0.23570 -0.16294
#
# Static dielectric constant tensor:
#      x y z
#    x 1.863040 0.000000 0.000000 
#    y 0.000000 1.801470 0.000000 
#    z 0.000000 0.000000 1.818930 
# 
# From -- ./inp_files/4609.got.cif
#   From: 2010.05.17/outbox.cif.g08.bks.cpg/sg42_3_cif.got.tgz:4609.got - 2010.06.03 19:03:34.
