data_PCOD9369644
_publ_section_title
;
Structure prediction by ZEFSAII (Michael W. Deem and Ramdas Pophale) SiO2 
 PCOD9369644
Probable space group: F M M 2
;
_chemical_formula_sum "Si O2"
_cell_formula_units_Z 72
_cell_length_a 15.043725
_cell_length_b 7.306451
_cell_length_c 28.986876
_cell_angle_alpha 90.000000
_cell_angle_beta 90.000000
_cell_angle_gamma 90.000000
_cell_volume 3186.128407
_symmetry_space_group_name_H-M "F M M 2"
_symmetry_group_IT_number 42
_symmetry_cell_setting 'orthorhombic'
loop_
_space_group_symop_operation_xyz
x,y,z
-x,-y,z
-x,y,z
x,-y,z
x,1/2+y,1/2+z
-x,1/2-y,1/2+z
-x,1/2+y,1/2+z
x,1/2-y,1/2+z
1/2+x,y,1/2+z
1/2-x,-y,1/2+z
1/2-x,y,1/2+z
1/2+x,-y,1/2+z
1/2+x,1/2+y,z
1/2-x,1/2-y,z
1/2-x,1/2+y,z
1/2+x,1/2-y,z
loop_
_atom_site_type_symbol
_atom_site_label
_atom_site_fract_x
_atom_site_fract_y
_atom_site_fract_z
Si Si1 0.250000 0.750000 0.221610
Si Si2 0.895021 0.500000 0.465123
Si Si3 0.394153 0.220328 0.146550
Si Si4 0.597533 0.777584 0.786834
Si Si5 0.852331 0.213440 0.387882
Si Si6 0.107412 0.500000 0.568229
O O1 0.326893 0.697226 0.184401
O O2 0.322838 0.814536 0.259426
O O3 0.872037 0.327007 0.433475
O O4 0.854978 0.500000 0.516462
O O5 0.000000 0.500000 0.470469
O O6 0.500000 0.254174 0.155401
O O7 0.370882 0.321040 0.098646
O O8 0.381019 0.000000 0.145804
O O9 0.500000 0.734028 0.767808
O O10 0.598703 0.730987 0.840938
O O11 0.611001 0.000000 0.783538
O O12 0.750000 0.250000 0.376814
O O13 0.869305 0.000000 0.395777
O O14 0.000000 0.500000 0.565026
#
# Coordination Sequence:
#
# PCOD9369644 Si02
#       6
#     8   8  16  16  16   8
#     4  12  22  38  66  98 128 182 220 272 328 390
#     4  11  24  44  71 102 131 173 228 280 341 404
#     4  10  23  43  65  95 134 173 221 276 330 395
#     4  10  22  39  62  95 136 179 220 267 328 395
#     4  11  22  42  67  97 138 180 220 275 333 398
#     4   9  22  46  71  94 129 173 218 276 341 396
#
# _framework density 22.597957999999998
#
# number of rings (size 3 to 8) (size 9 to 14) (size 15 to 20)
#    0.000    1.556    2.222    2.000    3.111    2.222 
#    4.000    2.222    0.000    0.000    0.000    0.000 
#    0.000    0.000    0.000    0.000    0.000    0.000 
#
# Total GULP energy -100282.732908 kJ/mol
# GULP energy per Si atom -5571.262939 kJ/mol
# Density = 2.254652 g / cm^3
# Si number density = 22.597958 Si / 1000 Ang^3
#
#
#
# Elastic Constant Matrix: (Units=GPa)
#
#
# Indices 1 2 3 4 5 6 
#
# 1 149.8266 30.1049 55.4188 0.0000 0.0000 0.0000
# 2 30.1049 139.2479 68.2992 0.0000 0.0000 0.0000
# 3 55.4188 68.2992 207.7404 0.0000 0.0000 0.0000
# 4 0.0000 0.0000 0.0000 78.2687 0.0000 0.0000
# 5 0.0000 0.0000 0.0000 0.0000 56.0252 0.0000
# 6 0.0000 0.0000 0.0000 0.0000 0.0000 -35.0031
#
#
#
# Elastic Compliance Matrix: (Units=1/GPa)
#
#
# Indices 1 2 3 4 5 6 
#
# 1 0.007472 -0.000760 -0.001743 0.000000 0.000000 0.000000
# 2 -0.000760 0.008640 -0.002638 0.000000 0.000000 0.000000
# 3 -0.001743 -0.002638 0.006146 0.000000 0.000000 0.000000
# 4 0.000000 0.000000 0.000000 0.012776 0.000000 0.000000
# 5 0.000000 0.000000 0.000000 0.000000 0.017849 0.000000
# 6 0.000000 0.000000 0.000000 0.000000 0.000000 -0.028569
#
#
# Mechanical properties :
#
#
# Convention : Reuss Voigt Hill
#
# Bulk Modulus (GPa) = 83.50781 89.38453 86.44617
# Shear Modulus (GPa) = 129.57302 42.72431 86.14866
#
# Velocity S-wave (km/s) = 7.58043 4.35285 6.18103
# Velocity P-wave (km/s) = 10.66072 8.05625 9.44866
#
# Compressibility (1/GPa) = 0.01197493
#
# Stress axis : x y z
#
# Youngs Moduli (GPa) = 133.83311 115.74709 162.70919
#
# Poissons Ratio (x) = 0.08801 0.28365
# Poissons Ratio (y) = 0.10176 0.42916
# Poissons Ratio (z) = 0.23331 0.30529
#
# Static dielectric constant tensor:
#      x y z
#    x 1.800560 0.000000 0.000000 
#    y 0.000000 1.916890 0.000000 
#    z 0.000000 0.000000 1.835900 
# 
# From -- ./inp_files/32456.got.cif
#   From: 2010.05.17/outbox.cif.g08.bks.cpg/sg42_17_cif.got.tgz:32456.got - 2010.06.03 19:03:34.
