data_PCOD9369689
_publ_section_title
;
Structure prediction by ZEFSAII (Michael W. Deem and Ramdas Pophale) SiO2 
 PCOD9369689
Probable space group: F M M 2
;
_chemical_formula_sum "Si O2"
_cell_formula_units_Z 56
_cell_length_a 29.426240
_cell_length_b 10.004066
_cell_length_c 9.244106
_cell_angle_alpha 90.000000
_cell_angle_beta 90.000000
_cell_angle_gamma 90.000000
_cell_volume 2721.298848
_symmetry_space_group_name_H-M "F M M 2"
_symmetry_group_IT_number 42
_symmetry_cell_setting 'orthorhombic'
loop_
_space_group_symop_operation_xyz
x,y,z
-x,-y,z
-x,y,z
x,-y,z
x,1/2+y,1/2+z
-x,1/2-y,1/2+z
-x,1/2+y,1/2+z
x,1/2-y,1/2+z
1/2+x,y,1/2+z
1/2-x,-y,1/2+z
1/2-x,y,1/2+z
1/2+x,-y,1/2+z
1/2+x,1/2+y,z
1/2-x,1/2-y,z
1/2-x,1/2+y,z
1/2+x,1/2-y,z
loop_
_atom_site_type_symbol
_atom_site_label
_atom_site_fract_x
_atom_site_fract_y
_atom_site_fract_z
Si Si1 0.447762 0.849822 0.273360
Si Si2 0.812796 0.852378 0.601213
Si Si3 0.396439 0.345639 0.072762
Si Si4 0.750000 0.250000 0.852927
O O1 0.500000 0.834237 0.321926
O O2 0.433754 0.733915 0.164815
O O3 0.413630 0.843456 0.408155
O O4 0.444121 0.000000 0.209273
O O5 0.850100 0.736556 0.591400
O O6 0.782825 0.831145 0.745188
O O7 0.780355 0.837972 0.461549
O O8 0.833714 0.000000 0.603728
O O9 0.391383 0.500000 0.117754
#
# Coordination Sequence:
#
# PCOD9369689 Si02
#       4
#    16  16  16   8
#     4  10  22  41  63  88 120 158 200 246 296 351
#     4  11  23  41  63  88 120 158 200 246 298 354
#     4  11  24  40  61  91 124 157 197 246 297 353
#     4  10  24  40  62  90 118 154 202 252 296 348
#
# _framework density 20.578408
#
# number of rings (size 3 to 8) (size 9 to 14) (size 15 to 20)
#    0.000    1.429    0.000    4.286    0.000   15.429 
#    0.000    0.000    0.000    0.000    0.000    0.000 
#    0.000    0.000    0.000    0.000    0.000    0.000 
#
# Total GULP energy -78258.968546 kJ/mol
# GULP energy per Si atom -5589.926325 kJ/mol
# Density = 2.053157 g / cm^3
# Si number density = 20.578408 Si / 1000 Ang^3
#
#
#
# Elastic Constant Matrix: (Units=GPa)
#
#
# Indices 1 2 3 4 5 6 
#
# 1 80.5633 32.2215 8.6498 0.0000 0.0000 0.0000
# 2 32.2215 166.9026 31.8566 0.0000 0.0000 0.0000
# 3 8.6498 31.8566 75.8645 0.0000 0.0000 0.0000
# 4 0.0000 0.0000 0.0000 16.5104 0.0000 0.0000
# 5 0.0000 0.0000 0.0000 0.0000 26.6191 0.0000
# 6 0.0000 0.0000 0.0000 0.0000 0.0000 28.7030
#
#
#
# Elastic Compliance Matrix: (Units=1/GPa)
#
#
# Indices 1 2 3 4 5 6 
#
# 1 0.013467 -0.002508 -0.000482 0.000000 0.000000 0.000000
# 2 -0.002508 0.006981 -0.002645 0.000000 0.000000 0.000000
# 3 -0.000482 -0.002645 0.014347 0.000000 0.000000 0.000000
# 4 0.000000 0.000000 0.000000 0.060568 0.000000 0.000000
# 5 0.000000 0.000000 0.000000 0.000000 0.037567 0.000000
# 6 0.000000 0.000000 0.000000 0.000000 0.000000 0.034840
#
#
# Mechanical properties :
#
#
# Convention : Reuss Voigt Hill
#
# Bulk Modulus (GPa) = 42.50975 52.08734 47.29854
# Shear Modulus (GPa) = 26.75480 31.07332 28.91406
#
# Velocity S-wave (km/s) = 3.60966 3.89008 3.75249
# Velocity P-wave (km/s) = 6.17050 6.74860 6.46602
#
# Compressibility (1/GPa) = 0.02352402
#
# Stress axis : x y z
#
# Youngs Moduli (GPa) = 74.25323 143.25433 69.69999
#
# Poissons Ratio (x) = 0.35927 0.03362
# Poissons Ratio (y) = 0.18622 0.18438
# Poissons Ratio (z) = 0.03582 0.37895
#
# Static dielectric constant tensor:
#      x y z
#    x 1.728790 0.000000 0.000000 
#    y 0.000000 1.716660 0.000000 
#    z 0.000000 0.000000 1.706510 
# 
# From -- ./inp_files/2184.got.cif
#   From: 2010.05.17/outbox.cif.g08.bks.cpg/sg42_2_cif.got.tgz:2184.got - 2010.06.03 19:03:34.
