data_PCOD9369399
_publ_section_title
;
Structure prediction by ZEFSAII (Michael W. Deem and Ramdas Pophale) SiO2 
 PCOD9369399
Probable space group: F M M 2
;
_chemical_formula_sum "Si O2"
_cell_formula_units_Z 112
_cell_length_a 14.538189
_cell_length_b 14.659341
_cell_length_c 23.898141
_cell_angle_alpha 90.000000
_cell_angle_beta 90.000000
_cell_angle_gamma 90.000000
_cell_volume 5093.178264
_symmetry_space_group_name_H-M "F M M 2"
_symmetry_group_IT_number 42
_symmetry_cell_setting 'orthorhombic'
loop_
_space_group_symop_operation_xyz
x,y,z
-x,-y,z
-x,y,z
x,-y,z
x,1/2+y,1/2+z
-x,1/2-y,1/2+z
-x,1/2+y,1/2+z
x,1/2-y,1/2+z
1/2+x,y,1/2+z
1/2-x,-y,1/2+z
1/2-x,y,1/2+z
1/2+x,-y,1/2+z
1/2+x,1/2+y,z
1/2-x,1/2-y,z
1/2-x,1/2+y,z
1/2+x,1/2-y,z
loop_
_atom_site_type_symbol
_atom_site_label
_atom_site_fract_x
_atom_site_fract_y
_atom_site_fract_z
Si Si1 0.346841 0.780439 0.105600
Si Si2 0.110740 0.107412 0.289008
Si Si3 0.608017 0.601061 0.165718
Si Si4 0.386935 0.281518 0.396603
Si Si5 0.107375 0.102531 0.500822
Si Si6 0.890100 0.109152 0.712908
Si Si7 0.887609 0.103011 0.840396
O O1 0.250000 0.750000 0.081703
O O2 0.387747 0.682634 0.122019
O O3 0.390492 0.846112 0.060028
O O4 0.340511 0.836781 0.163530
O O5 0.146469 0.129400 0.226765
O O6 0.144980 0.163918 0.341517
O O7 0.000000 0.122073 0.289101
O O8 0.126924 0.000000 0.297464
O O9 0.500000 0.588877 0.175712
O O10 0.645195 0.500000 0.149995
O O11 0.500000 0.281454 0.397429
O O12 0.354042 0.332629 0.452087
O O13 0.359358 0.177182 0.385886
O O14 0.000000 0.091890 0.486544
O O15 0.147495 0.000000 0.503409
O O16 0.862523 0.131270 0.776714
O O17 0.000000 0.130175 0.707125
O O18 0.879503 0.000000 0.706311
O O19 0.000000 0.100191 0.839637
O O20 0.855036 0.000000 0.850463
#
# Coordination Sequence:
#
# PCOD9369399 Si02
#       7
#    16  16  16  16  16  16  16
#     4  12  24  35  50  72 102 142 178 217 264 309
#     4   8  13  23  44  75 103 122 147 196 262 316
#     4   9  18  33  53  76 102 131 164 204 252 313
#     4   9  15  25  46  76 106 131 160 207 261 309
#     4  10  21  37  57  79 101 130 176 229 270 306
#     4   9  17  32  57  85 110 138 173 213 257 306
#     4   8  14  25  46  80 114 137 161 201 256 314
#
# _framework density 21.990197999999999
#
# number of rings (size 3 to 8) (size 9 to 14) (size 15 to 20)
#    0.000    2.714    0.000    4.714    0.000    6.286 
#    0.000    0.714    0.000    6.000    0.000    4.000 
#    0.000    0.000    0.000    0.000    0.000    0.000 
#
# Total GULP energy -156233.748371 kJ/mol
# GULP energy per Si atom -5579.776728 kJ/mol
# Density = 2.194015 g / cm^3
# Si number density = 21.990198 Si / 1000 Ang^3
#
#
#
# Elastic Constant Matrix: (Units=GPa)
#
#
# Indices 1 2 3 4 5 6 
#
# 1 30.5549 0.3697 2.7805 0.0000 0.0000 0.0000
# 2 0.3697 140.5834 113.1313 0.0000 0.0000 0.0000
# 3 2.7805 113.1313 120.2294 0.0000 0.0000 0.0000
# 4 0.0000 0.0000 0.0000 22.1935 0.0000 0.0000
# 5 0.0000 0.0000 0.0000 0.0000 9.3097 0.0000
# 6 0.0000 0.0000 0.0000 0.0000 0.0000 -17.5060
#
#
#
# Elastic Compliance Matrix: (Units=1/GPa)
#
#
# Indices 1 2 3 4 5 6 
#
# 1 0.032957 0.002169 -0.002803 0.000000 0.000000 0.000000
# 2 0.002169 0.029442 -0.027754 0.000000 0.000000 0.000000
# 3 -0.002803 -0.027754 0.034497 0.000000 0.000000 0.000000
# 4 0.000000 0.000000 0.000000 0.045058 0.000000 0.000000
# 5 0.000000 0.000000 0.000000 0.000000 0.107415 0.000000
# 6 0.000000 0.000000 0.000000 0.000000 0.000000 -0.057123
#
#
# Mechanical properties :
#
#
# Convention : Reuss Voigt Hill
#
# Bulk Modulus (GPa) = 24.92497 58.21453 41.56975
# Shear Modulus (GPa) = 19.05527 14.47185 16.76356
#
# Velocity S-wave (km/s) = 2.94689 2.56814 2.76401
# Velocity P-wave (km/s) = 4.78937 5.94342 5.39733
#
# Compressibility (1/GPa) = 0.04012041
#
# Stress axis : x y z
#
# Youngs Moduli (GPa) = 30.34268 33.96558 28.98776
#
# Poissons Ratio (x) = -0.07368 0.08127
# Poissons Ratio (y) = -0.06582 0.80451
# Poissons Ratio (z) = 0.08506 0.94267
#
# Static dielectric constant tensor:
#      x y z
#    x 1.851330 0.000000 0.000000 
#    y 0.000000 1.877970 0.000000 
#    z 0.000000 0.000000 1.764370 
# 
# From -- ./inp_files/29484.got.cif
#   From: 2010.05.17/outbox.cif.g08.bks.cpg/sg42_15_cif.got.tgz:29484.got - 2010.06.03 19:03:34.
