data_PCOD9369145
_publ_section_title
;
Structure prediction by ZEFSAII (Michael W. Deem and Ramdas Pophale) SiO2 
 PCOD9369145
Probable space group: F M M 2
;
_chemical_formula_sum "Si O2"
_cell_formula_units_Z 96
_cell_length_a 17.295617
_cell_length_b 31.400543
_cell_length_c 7.044522
_cell_angle_alpha 90.000000
_cell_angle_beta 90.000000
_cell_angle_gamma 90.000000
_cell_volume 3825.821889
_symmetry_space_group_name_H-M "F M M 2"
_symmetry_group_IT_number 42
_symmetry_cell_setting 'orthorhombic'
loop_
_space_group_symop_operation_xyz
x,y,z
-x,-y,z
-x,y,z
x,-y,z
x,1/2+y,1/2+z
-x,1/2-y,1/2+z
-x,1/2+y,1/2+z
x,1/2-y,1/2+z
1/2+x,y,1/2+z
1/2-x,-y,1/2+z
1/2-x,y,1/2+z
1/2+x,-y,1/2+z
1/2+x,1/2+y,z
1/2-x,1/2-y,z
1/2-x,1/2+y,z
1/2+x,1/2-y,z
loop_
_atom_site_type_symbol
_atom_site_label
_atom_site_fract_x
_atom_site_fract_y
_atom_site_fract_z
Si Si1 0.311075 0.045619 0.863020
Si Si2 0.413486 0.140980 0.498061
Si Si3 0.584525 0.883826 0.950769
Si Si4 0.825960 0.720026 0.604884
Si Si5 0.633964 0.047435 0.429071
Si Si6 0.912193 0.705226 0.964175
O O1 0.347556 0.083627 0.979157
O O2 0.350254 0.046000 0.656607
O O3 0.327980 0.000000 0.953274
O O4 0.219862 0.049304 0.843334
O O5 0.500000 0.157503 0.455325
O O6 0.413736 0.130312 0.727220
O O7 0.347297 0.178010 0.480540
O O8 0.403623 0.094187 0.401763
O O9 0.500000 0.903073 0.983851
O O10 0.593058 0.840262 0.066765
O O11 0.750000 0.750000 0.591808
O O12 0.840183 0.705139 0.819088
O O13 0.896869 0.753025 0.582753
O O14 0.599771 0.000000 0.382205
O O15 0.000000 0.706017 0.888322
#
# Coordination Sequence:
#
# PCOD9369145 Si02
#       6
#    16  16  16  16  16  16
#     4   9  17  30  49  73 102 130 163 208 257 305
#     4   9  18  34  53  74 104 136 168 214 262 305
#     4   8  16  30  50  72  98 133 169 208 256 305
#     4  11  22  35  54  80 105 137 180 221 263 311
#     4   9  18  32  52  77 102 132 167 208 257 309
#     4  10  20  37  55  73 106 142 175 218 267 314
#
# _framework density 25.092648000000001
#
# number of rings (size 3 to 8) (size 9 to 14) (size 15 to 20)
#    0.000    2.667    0.000    3.000    2.333    0.667 
#    3.000    3.333    0.000    1.000    0.000    4.667 
#    0.000    0.000    0.000    0.000    0.000    0.000 
#
# Total GULP energy -133783.735074 kJ/mol
# GULP energy per Si atom -5574.322295 kJ/mol
# Density = 2.503554 g / cm^3
# Si number density = 25.092648 Si / 1000 Ang^3
#
#
#
# Elastic Constant Matrix: (Units=GPa)
#
#
# Indices 1 2 3 4 5 6 
#
# 1 115.9909 91.6871 14.2092 -0.0001 -0.0008 0.0008
# 2 91.6871 180.4673 9.6185 0.0000 0.0003 0.0004
# 3 14.2092 9.6185 48.6909 -0.0003 -0.0026 -0.0003
# 4 -0.0001 0.0000 -0.0003 15.6393 0.0001 -0.0003
# 5 -0.0008 0.0003 -0.0026 0.0001 -4.5285 -0.0048
# 6 0.0008 0.0004 -0.0003 -0.0003 -0.0048 97.8538
#
#
#
# Elastic Compliance Matrix: (Units=1/GPa)
#
#
# Indices 1 2 3 4 5 6 
#
# 1 0.014792 -0.007362 -0.002862 0.000000 -0.000001 0.000000
# 2 -0.007362 0.009265 0.000318 0.000000 0.000002 0.000000
# 3 -0.002862 0.000318 0.021310 0.000000 -0.000012 0.000000
# 4 0.000000 0.000000 0.000000 0.063942 0.000001 0.000000
# 5 -0.000001 0.000002 -0.000012 0.000001 -0.220826 -0.000011
# 6 0.000000 0.000000 0.000000 0.000000 -0.000011 0.010219
#
#
# Mechanical properties :
#
#
# Convention : Reuss Voigt Hill
#
# Bulk Modulus (GPa) = 39.13283 64.01987 51.57635
# Shear Modulus (GPa) = -68.52334 37.10188 -15.71073
#
# Velocity S-wave (km/s) = -5.23139 3.84942 -2.50493
# Velocity P-wave (km/s) = 4.56735 6.73247 3.49753
#
# Compressibility (1/GPa) = 0.02555399
#
# Stress axis : x y z
#
# Youngs Moduli (GPa) = 67.60506 107.93618 46.92616
#
# Poissons Ratio (x) = 0.79468 0.13431
# Poissons Ratio (y) = 0.49774 -0.01494
# Poissons Ratio (z) = 0.19350 -0.03436
#
# Static dielectric constant tensor:
#      x y z
#    x 1.911340 0.000000 0.000000 
#    y 0.000000 2.065820 0.000000 
#    z 0.000000 0.000000 2.116280 
# 
# From -- ./inp_files/8908.got.cif
#   From: 2010.05.17/outbox.cif.g08.bks.cpg/sg42_5_cif.got.tgz:8908.got - 2010.06.03 19:03:34.
