data_PCOD9369436
_publ_section_title
;
Structure prediction by ZEFSAII (Michael W. Deem and Ramdas Pophale) SiO2 
 PCOD9369436
Probable space group: F M M 2
;
_chemical_formula_sum "Si O2"
_cell_formula_units_Z 88
_cell_length_a 21.362911
_cell_length_b 9.629675
_cell_length_c 21.472159
_cell_angle_alpha 90.000000
_cell_angle_beta 90.000000
_cell_angle_gamma 90.000000
_cell_volume 4417.207243
_symmetry_space_group_name_H-M "F M M 2"
_symmetry_group_IT_number 42
_symmetry_cell_setting 'orthorhombic'
loop_
_space_group_symop_operation_xyz
x,y,z
-x,-y,z
-x,y,z
x,-y,z
x,1/2+y,1/2+z
-x,1/2-y,1/2+z
-x,1/2+y,1/2+z
x,1/2-y,1/2+z
1/2+x,y,1/2+z
1/2-x,-y,1/2+z
1/2-x,y,1/2+z
1/2+x,-y,1/2+z
1/2+x,1/2+y,z
1/2-x,1/2-y,z
1/2-x,1/2+y,z
1/2+x,1/2-y,z
loop_
_atom_site_type_symbol
_atom_site_label
_atom_site_fract_x
_atom_site_fract_y
_atom_site_fract_z
Si Si1 0.927508 0.166067 0.358230
Si Si2 0.191744 0.666190 0.943086
Si Si3 0.670912 0.345361 0.063308
Si Si4 0.626997 0.845089 0.247206
Si Si5 0.750000 0.750000 0.675791
Si Si6 0.927964 0.848482 0.612658
O O1 0.875521 0.194286 0.411339
O O2 0.899461 0.238333 0.297017
O O3 0.000000 0.209422 0.370462
O O4 0.928357 0.000000 0.349753
O O5 0.202537 0.500000 0.942888
O O6 0.250000 0.750000 0.912046
O O7 0.188585 0.730902 0.012006
O O8 0.670050 0.500000 0.036706
O O9 0.713792 0.345370 0.125375
O O10 0.604839 0.286357 0.085894
O O11 0.695961 0.813591 0.219124
O O12 0.582655 0.844028 0.186628
O O13 0.627097 0.000000 0.274413
O O14 0.000000 0.849361 0.596375
O O15 0.900412 0.000000 0.592193
#
# Coordination Sequence:
#
# PCOD9369436 Si02
#       6
#    16  16  16  16   8  16
#     4  10  24  45  65  89 125 168 210 257 316 375
#     4  11  24  42  65  91 123 163 210 260 315 375
#     4  11  22  37  61  90 122 159 204 256 308 368
#     4  10  21  37  61  90 122 162 209 257 308 368
#     4  10  22  38  58  90 130 166 200 250 314 380
#     4   9  19  36  57  84 121 163 203 248 310 375
#
# _framework density 19.922089
#
# number of rings (size 3 to 8) (size 9 to 14) (size 15 to 20)
#    0.000    1.818    0.909    2.182    1.273    8.727 
#    0.000    1.818    0.000    0.000    0.000    0.000 
#    0.000    0.000    0.000    0.000    0.000    0.000 
#
# Total GULP energy -122604.313462 kJ/mol
# GULP energy per Si atom -5572.923339 kJ/mol
# Density = 1.987675 g / cm^3
# Si number density = 19.922089 Si / 1000 Ang^3
#
#
#
# Elastic Constant Matrix: (Units=GPa)
#
#
# Indices 1 2 3 4 5 6 
#
# 1 143.9282 50.6429 46.1638 0.0000 0.0000 0.0000
# 2 50.6429 69.4203 20.8533 0.0000 0.0000 0.0000
# 3 46.1638 20.8533 47.9307 0.0000 0.0000 0.0000
# 4 0.0000 0.0000 0.0000 5.2981 0.0000 0.0000
# 5 0.0000 0.0000 0.0000 0.0000 -0.2754 0.0000
# 6 0.0000 0.0000 0.0000 0.0000 0.0000 7.1985
#
#
#
# Elastic Compliance Matrix: (Units=1/GPa)
#
#
# Indices 1 2 3 4 5 6 
#
# 1 0.011906 -0.006029 -0.008844 0.000000 0.000000 0.000000
# 2 -0.006029 0.019623 -0.002731 0.000000 0.000000 0.000000
# 3 -0.008844 -0.002731 0.030570 0.000000 0.000000 0.000000
# 4 0.000000 0.000000 0.000000 0.188748 0.000000 0.000000
# 5 0.000000 0.000000 0.000000 0.000000 -3.630695 0.000000
# 6 0.000000 0.000000 0.000000 0.000000 0.000000 0.138917
#
#
# Mechanical properties :
#
#
# Convention : Reuss Voigt Hill
#
# Bulk Modulus (GPa) = 37.18683 55.17768 46.18225
# Shear Modulus (GPa) = -1.56408 12.01885 5.22738
#
# Velocity S-wave (km/s) = -0.88702 2.45887 1.62161
# Velocity P-wave (km/s) = 4.20209 5.98483 5.17087
#
# Compressibility (1/GPa) = 0.02689124
#
# Stress axis : x y z
#
# Youngs Moduli (GPa) = 83.99230 50.95939 32.71219
#
# Poissons Ratio (x) = 0.30722 0.28931
# Poissons Ratio (y) = 0.50637 0.08934
# Poissons Ratio (z) = 0.74283 0.13917
#
# Static dielectric constant tensor:
#      x y z
#    x 1.762910 0.000000 0.000000 
#    y 0.000000 1.740870 0.000000 
#    z 0.000000 0.000000 1.691430 
# 
# From -- ./inp_files/23520.got.cif
#   From: 2010.05.17/outbox.cif.g08.bks.cpg/sg42_12_cif.got.tgz:23520.got - 2010.06.03 19:03:34.
