data_PCOD9369606
_publ_section_title
;
Structure prediction by ZEFSAII (Michael W. Deem and Ramdas Pophale) SiO2 
 PCOD9369606
Probable space group: F M M 2
;
_chemical_formula_sum "Si O2"
_cell_formula_units_Z 112
_cell_length_a 15.963240
_cell_length_b 29.535935
_cell_length_c 11.530111
_cell_angle_alpha 90.000000
_cell_angle_beta 90.000000
_cell_angle_gamma 90.000000
_cell_volume 5436.323031
_symmetry_space_group_name_H-M "F M M 2"
_symmetry_group_IT_number 42
_symmetry_cell_setting 'orthorhombic'
loop_
_space_group_symop_operation_xyz
x,y,z
-x,-y,z
-x,y,z
x,-y,z
x,1/2+y,1/2+z
-x,1/2-y,1/2+z
-x,1/2+y,1/2+z
x,1/2-y,1/2+z
1/2+x,y,1/2+z
1/2-x,-y,1/2+z
1/2-x,y,1/2+z
1/2+x,-y,1/2+z
1/2+x,1/2+y,z
1/2-x,1/2-y,z
1/2-x,1/2+y,z
1/2+x,1/2-y,z
loop_
_atom_site_type_symbol
_atom_site_label
_atom_site_fract_x
_atom_site_fract_y
_atom_site_fract_z
Si Si1 0.660408 0.275448 0.668260
Si Si2 0.846634 0.264162 0.429986
Si Si3 0.708747 0.050740 0.797948
Si Si4 0.594726 0.448349 0.517527
Si Si5 0.600535 0.951397 0.576062
Si Si6 0.905614 0.362270 0.455256
Si Si7 0.848257 0.880477 0.710879
O O1 0.750000 0.250000 0.665779
O O2 0.620073 0.261814 0.795181
O O3 0.618328 0.262432 0.543712
O O4 0.673457 0.329607 0.671261
O O5 0.750000 0.250000 0.419155
O O6 0.853601 0.316651 0.465676
O O7 0.632748 0.050060 0.706293
O O8 0.770315 0.090331 0.758901
O O9 0.747373 0.000000 0.792415
O O10 0.666203 0.057421 0.921684
O O11 0.500000 0.444408 0.469519
O O12 0.602356 0.500000 0.563584
O O13 0.609195 0.410664 0.613399
O O14 0.500000 0.950435 0.569028
O O15 0.632704 0.906358 0.515154
O O16 0.628883 0.000000 0.525688
O O17 0.908215 0.374001 0.320316
O O18 0.000000 0.354032 0.499293
#
# Coordination Sequence:
#
# PCOD9369606 Si02
#       7
#    16  16  16  16  16  16  16
#     4   9  20  36  58  85 115 153 199 252 319 374
#     4   9  19  37  60  86 114 154 201 254 310 381
#     4  10  22  36  58  90 127 165 209 260 307 367
#     4  10  22  41  62  88 128 174 214 257 317 385
#     4   9  19  36  58  85 121 163 204 248 302 368
#     4  10  22  40  61  88 123 162 202 252 316 382
#     4  11  23  37  61  92 125 159 208 263 318 379
#
# _framework density 20.602160999999999
#
# number of rings (size 3 to 8) (size 9 to 14) (size 15 to 20)
#    0.000    2.286    0.000    1.286    6.000    6.286 
#    0.000    5.000    0.000    0.000    0.000    0.000 
#    0.000    0.000    0.000    0.000    0.000    0.000 
#
# Total GULP energy -156026.505171 kJ/mol
# GULP energy per Si atom -5572.375185 kJ/mol
# Density = 2.055527 g / cm^3
# Si number density = 20.602161 Si / 1000 Ang^3
#
#
#
# Elastic Constant Matrix: (Units=GPa)
#
#
# Indices 1 2 3 4 5 6 
#
# 1 41.6049 37.0002 7.9043 0.0000 0.0000 0.0000
# 2 37.0002 156.8589 52.7805 0.0000 0.0000 0.0000
# 3 7.9043 52.7805 105.5671 0.0000 0.0000 0.0000
# 4 0.0000 0.0000 0.0000 52.9302 0.0000 0.0000
# 5 0.0000 0.0000 0.0000 0.0000 21.1335 0.0000
# 6 0.0000 0.0000 0.0000 0.0000 0.0000 5.4257
#
#
#
# Elastic Compliance Matrix: (Units=1/GPa)
#
#
# Indices 1 2 3 4 5 6 
#
# 1 0.030635 -0.007760 0.001586 0.000000 0.000000 0.000000
# 2 -0.007760 0.009630 -0.004234 0.000000 0.000000 0.000000
# 3 0.001586 -0.004234 0.011471 0.000000 0.000000 0.000000
# 4 0.000000 0.000000 0.000000 0.018893 0.000000 0.000000
# 5 0.000000 0.000000 0.000000 0.000000 0.047318 0.000000
# 6 0.000000 0.000000 0.000000 0.000000 0.000000 0.184308
#
#
# Mechanical properties :
#
#
# Convention : Reuss Voigt Hill
#
# Bulk Modulus (GPa) = 32.34084 55.48899 43.91492
# Shear Modulus (GPa) = 14.99799 29.65427 22.32613
#
# Velocity S-wave (km/s) = 2.70104 3.79803 3.29550
# Velocity P-wave (km/s) = 5.04573 6.79893 5.98685
#
# Compressibility (1/GPa) = 0.03092066
#
# Stress axis : x y z
#
# Youngs Moduli (GPa) = 32.64187 103.83986 87.17882
#
# Poissons Ratio (x) = 0.80580 -0.13826
# Poissons Ratio (y) = 0.25330 0.36910
# Poissons Ratio (z) = -0.05177 0.43964
#
# Static dielectric constant tensor:
#      x y z
#    x 1.729470 0.000000 0.000000 
#    y 0.000000 1.712700 0.000000 
#    z 0.000000 0.000000 1.780780 
# 
# From -- ./inp_files/8126.got.cif
#   From: 2010.05.17/outbox.cif.g08.bks.cpg/sg42_5_cif.got.tgz:8126.got - 2010.06.03 19:03:34.
