data_PCOD9369797
_publ_section_title
;
Structure prediction by ZEFSAII (Michael W. Deem and Ramdas Pophale) SiO2 
 PCOD9369797
Probable space group: F M M 2
;
_chemical_formula_sum "Si O2"
_cell_formula_units_Z 96
_cell_length_a 25.061651
_cell_length_b 16.833699
_cell_length_c 9.493551
_cell_angle_alpha 90.000000
_cell_angle_beta 90.000000
_cell_angle_gamma 90.000000
_cell_volume 4005.142043
_symmetry_space_group_name_H-M "F M M 2"
_symmetry_group_IT_number 42
_symmetry_cell_setting 'orthorhombic'
loop_
_space_group_symop_operation_xyz
x,y,z
-x,-y,z
-x,y,z
x,-y,z
x,1/2+y,1/2+z
-x,1/2-y,1/2+z
-x,1/2+y,1/2+z
x,1/2-y,1/2+z
1/2+x,y,1/2+z
1/2-x,-y,1/2+z
1/2-x,y,1/2+z
1/2+x,-y,1/2+z
1/2+x,1/2+y,z
1/2-x,1/2-y,z
1/2-x,1/2+y,z
1/2+x,1/2-y,z
loop_
_atom_site_type_symbol
_atom_site_label
_atom_site_fract_x
_atom_site_fract_y
_atom_site_fract_z
Si Si1 0.000000 0.596364 0.906821
Si Si2 0.592287 0.589411 0.614106
Si Si3 0.149943 0.723141 0.227055
Si Si4 0.790435 0.587772 0.326233
Si Si5 0.332539 0.883911 0.864060
Si Si6 0.000000 0.595175 0.587711
Si Si7 0.877389 0.373313 0.566775
O O1 0.000000 0.627514 0.749106
O O2 0.000000 0.500000 0.896657
O O3 0.951128 0.619421 0.003695
O O4 0.579255 0.500000 0.665426
O O5 0.603425 0.656233 0.730608
O O6 0.641761 0.586688 0.507143
O O7 0.200107 0.663961 0.226291
O O8 0.161437 0.788775 0.345185
O O9 0.134684 0.781156 0.100389
O O10 0.801126 0.500000 0.265443
O O11 0.728835 0.592115 0.365027
O O12 0.832659 0.597871 0.455440
O O13 0.363620 0.911885 0.721189
O O14 0.940301 0.616725 0.531839
O O15 0.000000 0.500000 0.587756
#
# Coordination Sequence:
#
# PCOD9369797 Si02
#       7
#     8  16  16  16  16   8  16
#     4   9  18  33  61  95 135 171 221 280 340 393
#     4  11  21  39  65  98 130 175 228 284 335 400
#     4  10  24  43  63  92 134 180 221 269 351 408
#     4  12  25  42  66 100 135 177 227 282 338 406
#     4  10  24  41  66  93 136 174 226 271 341 399
#     4  11  20  41  71 105 140 177 231 290 331 403
#     4  10  25  43  70  97 136 179 229 275 346 397
#
# _framework density 23.969187999999999
#
# number of rings (size 3 to 8) (size 9 to 14) (size 15 to 20)
#    1.000    0.500    1.667    3.000    2.333    2.667 
#    0.000    1.667    0.000    1.000    0.000    0.000 
#    0.000    0.000    0.000    0.000    0.000    0.000 
#
# Total GULP energy -133666.248146 kJ/mol
# GULP energy per Si atom -5569.427006 kJ/mol
# Density = 2.391463 g / cm^3
# Si number density = 23.969188 Si / 1000 Ang^3
#
#
#
# Elastic Constant Matrix: (Units=GPa)
#
#
# Indices 1 2 3 4 5 6 
#
# 1 170.1862 23.3698 49.0723 0.0000 0.0000 0.0000
# 2 23.3698 181.1877 26.1309 0.0000 0.0000 0.0000
# 3 49.0723 26.1309 55.0424 0.0000 0.0000 0.0000
# 4 0.0000 0.0000 0.0000 17.9410 0.0000 0.0000
# 5 0.0000 0.0000 0.0000 0.0000 7.7811 0.0000
# 6 0.0000 0.0000 0.0000 0.0000 0.0000 50.7485
#
#
#
# Elastic Compliance Matrix: (Units=1/GPa)
#
#
# Indices 1 2 3 4 5 6 
#
# 1 0.007909 -0.000003 -0.007050 0.000000 0.000000 0.000000
# 2 -0.000003 0.005925 -0.002810 0.000000 0.000000 0.000000
# 3 -0.007050 -0.002810 0.025787 0.000000 0.000000 0.000000
# 4 0.000000 0.000000 0.000000 0.055738 0.000000 0.000000
# 5 0.000000 0.000000 0.000000 0.000000 0.128516 0.000000
# 6 0.000000 0.000000 0.000000 0.000000 0.000000 0.019705
#
#
# Mechanical properties :
#
#
# Convention : Reuss Voigt Hill
#
# Bulk Modulus (GPa) = 50.26361 67.06246 58.66303
# Shear Modulus (GPa) = 18.52285 35.81701 27.16993
#
# Velocity S-wave (km/s) = 2.78290 3.86980 3.37045
# Velocity P-wave (km/s) = 5.59836 6.92867 6.29874
#
# Compressibility (1/GPa) = 0.01989511
#
# Stress axis : x y z
#
# Youngs Moduli (GPa) = 126.43641 168.78230 38.77969
#
# Poissons Ratio (x) = 0.00058 0.27338
# Poissons Ratio (y) = 0.00043 0.10896
# Poissons Ratio (z) = 0.89133 0.47422
#
# Static dielectric constant tensor:
#      x y z
#    x 2.349770 0.000000 0.000000 
#    y 0.000000 1.871110 0.000000 
#    z 0.000000 0.000000 1.965510 
# 
# From -- ./inp_files/10164.got.cif
#   From: 2010.05.17/outbox.cif.g08.bks.cpg/sg42_6_cif.got.tgz:10164.got - 2010.06.03 19:03:34.
