data_PCOD9369219
_publ_section_title
;
Structure prediction by ZEFSAII (Michael W. Deem and Ramdas Pophale) SiO2 
 PCOD9369219
Probable space group: F M M 2
;
_chemical_formula_sum "Si O2"
_cell_formula_units_Z 112
_cell_length_a 14.412794
_cell_length_b 23.298498
_cell_length_c 17.368488
_cell_angle_alpha 90.000000
_cell_angle_beta 90.000000
_cell_angle_gamma 90.000000
_cell_volume 5832.276650
_symmetry_space_group_name_H-M "F M M 2"
_symmetry_group_IT_number 42
_symmetry_cell_setting 'orthorhombic'
loop_
_space_group_symop_operation_xyz
x,y,z
-x,-y,z
-x,y,z
x,-y,z
x,1/2+y,1/2+z
-x,1/2-y,1/2+z
-x,1/2+y,1/2+z
x,1/2-y,1/2+z
1/2+x,y,1/2+z
1/2-x,-y,1/2+z
1/2-x,y,1/2+z
1/2+x,-y,1/2+z
1/2+x,1/2+y,z
1/2-x,1/2-y,z
1/2-x,1/2+y,z
1/2+x,1/2-y,z
loop_
_atom_site_type_symbol
_atom_site_label
_atom_site_fract_x
_atom_site_fract_y
_atom_site_fract_z
Si Si1 0.354260 0.235033 0.180710
Si Si2 0.105908 0.862407 0.798009
Si Si3 0.230511 0.565654 0.185937
Si Si4 0.387797 0.312411 0.512334
Si Si5 0.111738 0.437092 0.029531
Si Si6 0.112763 0.691183 0.456761
Si Si7 0.395335 0.357528 0.122387
O O1 0.250000 0.250000 0.203301
O O2 0.396945 0.194113 0.244229
O O3 0.400039 0.296253 0.165237
O O4 0.354450 0.201266 0.099192
O O5 0.174471 0.905736 0.755558
O O6 0.141768 0.842428 0.881106
O O7 0.000000 0.884818 0.804116
O O8 0.255232 0.500000 0.202563
O O9 0.161679 0.565710 0.112157
O O10 0.321003 0.601985 0.162866
O O11 0.500000 0.310243 0.515634
O O12 0.362110 0.377081 0.488408
O O13 0.357346 0.257857 0.461968
O O14 0.135135 0.500000 0.995008
O O15 0.000000 0.435853 0.039659
O O16 0.137859 0.659246 0.536068
O O17 0.000000 0.692032 0.455100
O O18 0.500000 0.381533 0.118532
#
# Coordination Sequence:
#
# PCOD9369219 Si02
#       7
#    16  16  16  16  16  16  16
#     4  11  18  30  53  83 114 148 186 234 290 345
#     4  11  20  35  57  88 123 147 180 238 304 358
#     4  11  22  35  56  84 113 153 200 237 280 343
#     4   9  15  28  48  75 108 148 188 227 280 343
#     4   9  16  27  47  78 114 150 190 233 277 333
#     4   8  18  33  55  84 114 148 185 236 303 353
#     4  10  20  38  59  81 113 151 196 243 285 338
#
# _framework density 19.203478
#
# number of rings (size 3 to 8) (size 9 to 14) (size 15 to 20)
#    0.000    2.143    2.857    2.571    0.000    1.143 
#    0.000    5.000    0.000    2.571    0.000    1.000 
#    0.000    2.286    0.000    0.000    0.000    0.143 
#
# Total GULP energy -156178.081190 kJ/mol
# GULP energy per Si atom -5577.788614 kJ/mol
# Density = 1.915977 g / cm^3
# Si number density = 19.203478 Si / 1000 Ang^3
#
#
#
# Elastic Constant Matrix: (Units=GPa)
#
#
# Indices 1 2 3 4 5 6 
#
# 1 75.2149 49.9716 18.9516 0.0000 0.0000 0.0000
# 2 49.9716 165.1670 50.4700 0.0000 0.0000 0.0000
# 3 18.9516 50.4700 55.4572 0.0000 0.0000 0.0000
# 4 0.0000 0.0000 0.0000 23.2035 0.0000 0.0000
# 5 0.0000 0.0000 0.0000 0.0000 88.6287 0.0000
# 6 0.0000 0.0000 0.0000 0.0000 0.0000 14.1210
#
#
#
# Elastic Compliance Matrix: (Units=1/GPa)
#
#
# Indices 1 2 3 4 5 6 
#
# 1 0.016734 -0.004593 -0.001539 0.000000 0.000000 0.000000
# 2 -0.004593 0.009647 -0.007210 0.000000 0.000000 0.000000
# 3 -0.001539 -0.007210 0.025120 0.000000 0.000000 0.000000
# 4 0.000000 0.000000 0.000000 0.043097 0.000000 0.000000
# 5 0.000000 0.000000 0.000000 0.000000 0.011283 0.000000
# 6 0.000000 0.000000 0.000000 0.000000 0.000000 0.070816
#
#
# Mechanical properties :
#
#
# Convention : Reuss Voigt Hill
#
# Bulk Modulus (GPa) = 40.29425 59.40281 49.84853
# Shear Modulus (GPa) = 23.62349 36.95372 30.28861
#
# Velocity S-wave (km/s) = 3.51118 4.39147 3.97576
# Velocity P-wave (km/s) = 6.12096 7.53086 6.86222
#
# Compressibility (1/GPa) = 0.02481744
#
# Stress axis : x y z
#
# Youngs Moduli (GPa) = 59.75734 103.65675 39.80957
#
# Poissons Ratio (x) = 0.47607 0.06127
# Poissons Ratio (y) = 0.27445 0.28703
# Poissons Ratio (z) = 0.09196 0.74738
#
# Static dielectric constant tensor:
#      x y z
#    x 1.692270 0.000000 0.000000 
#    y 0.000000 1.691660 0.000000 
#    z 0.000000 0.000000 1.646160 
# 
# From -- ./inp_files/14274.got.cif
#   From: 2010.05.17/outbox.cif.g08.bks.cpg/sg42_8_cif.got.tgz:14274.got - 2010.06.03 19:03:34.
