data_PCOD9369589
_publ_section_title
;
Structure prediction by ZEFSAII (Michael W. Deem and Ramdas Pophale) SiO2 
 PCOD9369589
Probable space group: F M M 2
;
_chemical_formula_sum "Si O2"
_cell_formula_units_Z 104
_cell_length_a 19.373143
_cell_length_b 22.654523
_cell_length_c 9.431493
_cell_angle_alpha 90.000000
_cell_angle_beta 90.000000
_cell_angle_gamma 90.000000
_cell_volume 4139.381490
_symmetry_space_group_name_H-M "F M M 2"
_symmetry_group_IT_number 42
_symmetry_cell_setting 'orthorhombic'
loop_
_space_group_symop_operation_xyz
x,y,z
-x,-y,z
-x,y,z
x,-y,z
x,1/2+y,1/2+z
-x,1/2-y,1/2+z
-x,1/2+y,1/2+z
x,1/2-y,1/2+z
1/2+x,y,1/2+z
1/2-x,-y,1/2+z
1/2-x,y,1/2+z
1/2+x,-y,1/2+z
1/2+x,1/2+y,z
1/2-x,1/2-y,z
1/2-x,1/2+y,z
1/2+x,1/2-y,z
loop_
_atom_site_type_symbol
_atom_site_label
_atom_site_fract_x
_atom_site_fract_y
_atom_site_fract_z
Si Si1 0.000000 0.404308 0.899210
Si Si2 0.609211 0.126432 0.703628
Si Si3 0.876117 0.432990 0.424694
Si Si4 0.101721 0.435564 0.101728
Si Si5 0.082547 0.742773 0.330303
Si Si6 0.679013 0.280232 0.585582
Si Si7 0.280019 0.395913 0.420179
O O1 0.940058 0.418365 0.784973
O O2 0.940626 0.387699 0.016228
O O3 0.600290 0.114689 0.538835
O O4 0.585566 0.190765 0.760014
O O5 0.684450 0.111603 0.765934
O O6 0.887810 0.500000 0.476046
O O7 0.905984 0.428848 0.267698
O O8 0.795116 0.421370 0.405760
O O9 0.071262 0.500000 0.061914
O O10 0.176865 0.434110 0.033746
O O11 0.127415 0.746809 0.475208
O O12 0.000000 0.728873 0.345920
O O13 0.129774 0.705510 0.219776
O O14 0.750000 0.250000 0.640793
O O15 0.711969 0.332310 0.492690
#
# Coordination Sequence:
#
# PCOD9369589 Si02
#       7
#     8  16  16  16  16  16  16
#     4  10  21  42  62  84 122 170 212 258 319 394
#     4  10  22  40  67  90 127 171 216 268 327 397
#     4  11  23  38  61  98 132 167 222 279 329 392
#     4  10  22  39  62  91 128 171 215 268 323 389
#     4  11  23  44  69  96 137 173 225 277 339 412
#     4  11  24  41  68  99 132 174 223 283 341 402
#     4  10  22  40  63  90 131 170 215 262 331 403
#
# _framework density 25.124525999999999
#
# number of rings (size 3 to 8) (size 9 to 14) (size 15 to 20)
#    0.000    1.538    0.769    3.462    0.000   10.462 
#    1.385    0.769    0.000    0.000    0.000    0.000 
#    0.000    0.000    0.000    0.000    0.000    0.000 
#
# Total GULP energy -144786.193608 kJ/mol
# GULP energy per Si atom -5568.699754 kJ/mol
# Density = 2.506734 g / cm^3
# Si number density = 25.124526 Si / 1000 Ang^3
#
#
#
# Elastic Constant Matrix: (Units=GPa)
#
#
# Indices 1 2 3 4 5 6 
#
# 1 109.8613 -5.1005 13.6853 0.0000 0.0000 0.0000
# 2 -5.1005 67.6566 -4.6644 0.0000 0.0000 0.0000
# 3 13.6853 -4.6644 92.5266 0.0001 0.0000 0.0000
# 4 0.0000 0.0000 0.0001 19.7648 -0.0001 0.0000
# 5 0.0000 0.0000 0.0000 -0.0001 67.7768 0.0000
# 6 0.0000 0.0000 0.0000 0.0000 0.0000 19.7949
#
#
#
# Elastic Compliance Matrix: (Units=1/GPa)
#
#
# Indices 1 2 3 4 5 6 
#
# 1 0.009298 0.000608 -0.001345 0.000000 0.000000 0.000000
# 2 0.000608 0.014872 0.000660 0.000000 0.000000 0.000000
# 3 -0.001345 0.000660 0.011040 0.000000 0.000000 0.000000
# 4 0.000000 0.000000 0.000000 0.050595 0.000000 0.000000
# 5 0.000000 0.000000 0.000000 0.000000 0.014754 0.000000
# 6 0.000000 0.000000 0.000000 0.000000 0.000000 0.050518
#
#
# Mechanical properties :
#
#
# Convention : Reuss Voigt Hill
#
# Bulk Modulus (GPa) = 28.52523 30.87613 29.70068
# Shear Modulus (GPa) = 30.69067 39.20889 34.94978
#
# Velocity S-wave (km/s) = 3.49885 3.95471 3.73374
# Velocity P-wave (km/s) = 5.26315 5.75924 5.51678
#
# Compressibility (1/GPa) = 0.03505668
#
# Stress axis : x y z
#
# Youngs Moduli (GPa) = 107.54857 67.24103 90.58108
#
# Poissons Ratio (x) = -0.04090 0.12179
# Poissons Ratio (y) = -0.06542 -0.05976
# Poissons Ratio (z) = 0.14461 -0.04436
#
# Static dielectric constant tensor:
#      x y z
#    x 1.844440 0.000010 0.000000 
#    y 0.000010 5.796490 0.000000 
#    z 0.000000 0.000000 2.008870 
# 
# From -- ./inp_files/4240.got.cif
#   From: 2010.05.17/outbox.cif.g08.bks.cpg/sg42_3_cif.got.tgz:4240.got - 2010.06.03 19:03:34.
