data_PCOD9369595
_publ_section_title
;
Structure prediction by ZEFSAII (Michael W. Deem and Ramdas Pophale) SiO2 
 PCOD9369595
Probable space group: F M M 2
;
_chemical_formula_sum "Si O2"
_cell_formula_units_Z 120
_cell_length_a 30.838677
_cell_length_b 14.496560
_cell_length_c 13.090907
_cell_angle_alpha 90.000000
_cell_angle_beta 90.000000
_cell_angle_gamma 90.000000
_cell_volume 5852.351913
_symmetry_space_group_name_H-M "F M M 2"
_symmetry_group_IT_number 42
_symmetry_cell_setting 'orthorhombic'
loop_
_space_group_symop_operation_xyz
x,y,z
-x,-y,z
-x,y,z
x,-y,z
x,1/2+y,1/2+z
-x,1/2-y,1/2+z
-x,1/2+y,1/2+z
x,1/2-y,1/2+z
1/2+x,y,1/2+z
1/2-x,-y,1/2+z
1/2-x,y,1/2+z
1/2+x,-y,1/2+z
1/2+x,1/2+y,z
1/2-x,1/2-y,z
1/2-x,1/2+y,z
1/2+x,1/2-y,z
loop_
_atom_site_type_symbol
_atom_site_label
_atom_site_fract_x
_atom_site_fract_y
_atom_site_fract_z
Si Si1 0.815627 0.853126 0.988490
Si Si2 0.048112 0.275458 0.390601
Si Si3 0.249842 0.500000 0.953492
Si Si4 0.609647 0.725633 0.699192
Si Si5 0.413920 0.894568 0.004749
Si Si6 0.795884 0.300380 0.711476
Si Si7 0.180470 0.858838 0.423140
Si Si8 0.910972 0.394723 0.557638
O O1 0.815518 0.748480 0.950713
O O2 0.864631 0.887758 0.999832
O O3 0.785458 0.919468 0.924864
O O4 0.796924 0.853032 0.104027
O O5 0.084849 0.288007 0.304871
O O6 0.055280 0.176805 0.445585
O O7 0.054967 0.351434 0.478819
O O8 0.000000 0.281413 0.346061
O O9 0.214195 0.420015 0.983746
O O10 0.596343 0.649410 0.615744
O O11 0.661841 0.732932 0.709335
O O12 0.594601 0.824338 0.651995
O O13 0.368205 0.889473 0.944585
O O14 0.428844 0.000000 0.010412
O O15 0.750000 0.250000 0.725003
O O16 0.805775 0.368664 0.805084
O O17 0.919724 0.500000 0.586302
#
# Coordination Sequence:
#
# PCOD9369595 Si02
#       8
#    16  16   8  16  16  16  16  16
#     4  11  22  41  61  88 132 174 215 270 321 381
#     4  11  24  45  72  98 130 170 215 279 345 404
#     4  12  24  34  60  92 130 170 220 268 316 370
#     4  10  22  42  66  98 135 175 216 277 327 396
#     4  11  23  43  69  97 135 176 218 269 342 402
#     4  11  21  36  63  89 127 175 224 262 312 384
#     4  12  22  40  61  90 128 174 221 267 324 379
#     4  10  21  42  69  97 127 173 215 266 332 391
#
# _framework density 20.504576
#
# number of rings (size 3 to 8) (size 9 to 14) (size 15 to 20)
#    0.000    1.067    6.667    2.000    0.000    4.267 
#    1.200    1.333    1.467    0.000    0.000    0.000 
#    0.000    0.000    0.000    0.000    0.000    0.000 
#
# Total GULP energy -167078.872391 kJ/mol
# GULP energy per Si atom -5569.295746 kJ/mol
# Density = 2.045791 g / cm^3
# Si number density = 20.504576 Si / 1000 Ang^3
#
#
#
# Elastic Constant Matrix: (Units=GPa)
#
#
# Indices 1 2 3 4 5 6 
#
# 1 69.2116 -8.4462 11.6200 0.0000 0.0000 0.0000
# 2 -8.4462 108.9045 11.4299 0.0000 0.0000 0.0000
# 3 11.6200 11.4299 76.4426 0.0000 0.0000 0.0000
# 4 0.0000 0.0000 0.0000 -1.7677 0.0000 0.0000
# 5 0.0000 0.0000 0.0000 0.0000 19.1581 0.0000
# 6 0.0000 0.0000 0.0000 0.0000 0.0000 10.7423
#
#
#
# Elastic Compliance Matrix: (Units=1/GPa)
#
#
# Indices 1 2 3 4 5 6 
#
# 1 0.015043 0.001429 -0.002500 0.000000 0.000000 0.000000
# 2 0.001429 0.009465 -0.001632 0.000000 0.000000 0.000000
# 3 -0.002500 -0.001632 0.013706 0.000000 0.000000 0.000000
# 4 0.000000 0.000000 0.000000 -0.565721 0.000000 0.000000
# 5 0.000000 0.000000 0.000000 0.000000 0.052197 0.000000
# 6 0.000000 0.000000 0.000000 0.000000 0.000000 0.093090
#
#
# Mechanical properties :
#
#
# Convention : Reuss Voigt Hill
#
# Bulk Modulus (GPa) = 30.48247 31.52957 31.00602
# Shear Modulus (GPa) = -13.66576 21.62355 3.97890
#
# Velocity S-wave (km/s) = -2.58442 3.25094 1.39453
# Velocity P-wave (km/s) = 2.44803 5.43155 4.21275
#
# Compressibility (1/GPa) = 0.03280574
#
# Stress axis : x y z
#
# Youngs Moduli (GPa) = 66.47780 105.65785 72.96151
#
# Poissons Ratio (x) = -0.15099 0.18243
# Poissons Ratio (y) = -0.09500 0.11910
# Poissons Ratio (z) = 0.16621 0.17247
#
# Static dielectric constant tensor:
#      x y z
#    x 1.739320 0.000000 0.000000 
#    y 0.000000 1.724780 0.000000 
#    z 0.000000 0.000000 1.770070 
# 
# From -- ./inp_files/17417.got.cif
#   From: 2010.05.17/outbox.cif.g08.bks.cpg/sg42_9_cif.got.tgz:17417.got - 2010.06.03 19:03:34.
