data_PCOD9369904
_publ_section_title
;
Structure prediction by ZEFSAII (Michael W. Deem and Ramdas Pophale) SiO2 
 PCOD9369904
Probable space group: F M M 2
;
_chemical_formula_sum "Si O2"
_cell_formula_units_Z 72
_cell_length_a 14.748589
_cell_length_b 24.925308
_cell_length_c 7.743317
_cell_angle_alpha 90.000000
_cell_angle_beta 90.000000
_cell_angle_gamma 90.000000
_cell_volume 2846.544948
_symmetry_space_group_name_H-M "F M M 2"
_symmetry_group_IT_number 42
_symmetry_cell_setting 'orthorhombic'
loop_
_space_group_symop_operation_xyz
x,y,z
-x,-y,z
-x,y,z
x,-y,z
x,1/2+y,1/2+z
-x,1/2-y,1/2+z
-x,1/2+y,1/2+z
x,1/2-y,1/2+z
1/2+x,y,1/2+z
1/2-x,-y,1/2+z
1/2-x,y,1/2+z
1/2+x,-y,1/2+z
1/2+x,1/2+y,z
1/2-x,1/2-y,z
1/2-x,1/2+y,z
1/2+x,1/2-y,z
loop_
_atom_site_type_symbol
_atom_site_label
_atom_site_fract_x
_atom_site_fract_y
_atom_site_fract_z
Si Si1 0.643739 0.808706 0.665040
Si Si2 0.356261 0.191294 0.259395
Si Si3 0.894576 0.425740 0.770337
Si Si4 0.894576 0.425740 0.154096
Si Si5 0.670913 0.500000 0.962217
O O1 0.631741 0.816295 0.462217
O O2 0.606754 0.750000 0.712218
O O3 0.750000 0.807564 0.712217
O O4 0.607124 0.861502 0.756313
O O5 0.392876 0.138498 0.168121
O O6 0.658639 0.453579 0.808832
O O7 0.841360 0.453579 0.615602
O O8 0.000000 0.441819 0.754444
O O9 0.860864 0.441146 0.962217
O O10 0.000000 0.441819 0.169988
#
# Coordination Sequence:
#
# PCOD9369904 Si02
#       5
#    16  16  16  16   8
#     4  11  22  40  65  92 127 167 208 256 314 377
#     4  11  22  40  65  92 127 167 208 256 314 377
#     4  11  23  40  65  95 127 164 210 260 308 370
#     4  11  23  40  65  95 127 164 210 260 308 370
#     4  12  23  42  66  92 126 170 211 252 317 372
#
# _framework density 25.29382
#
# number of rings (size 3 to 8) (size 9 to 14) (size 15 to 20)
#    0.000    0.889    2.222    8.000    0.000    2.667 
#    0.000    1.111    0.000    0.000    0.000    0.000 
#    0.000    0.000    0.000    0.000    0.000    0.000 
#
# Total GULP energy -100408.145565 kJ/mol
# GULP energy per Si atom -5578.230309 kJ/mol
# Density = 2.523625 g / cm^3
# Si number density = 25.293820 Si / 1000 Ang^3
#
#
#
# Elastic Constant Matrix: (Units=GPa)
#
#
# Indices 1 2 3 4 5 6 
#
# 1 86.9704 10.4917 14.3866 0.0000 0.0000 0.0000
# 2 10.4917 263.3452 60.4757 0.0000 0.0000 0.0000
# 3 14.3866 60.4757 264.5443 0.0000 0.0000 0.0000
# 4 0.0000 0.0000 0.0000 50.9424 0.0000 0.0000
# 5 0.0000 0.0000 0.0000 0.0000 11.3871 0.0000
# 6 0.0000 0.0000 0.0000 0.0000 0.0000-1094.2736
#
#
#
# Elastic Compliance Matrix: (Units=1/GPa)
#
#
# Indices 1 2 3 4 5 6 
#
# 1 0.011631 -0.000336 -0.000556 0.000000 0.000000 0.000000
# 2 -0.000336 0.004017 -0.000900 0.000000 0.000000 0.000000
# 3 -0.000556 -0.000900 0.004016 0.000000 0.000000 0.000000
# 4 0.000000 0.000000 0.000000 0.019630 0.000000 0.000000
# 5 0.000000 0.000000 0.000000 0.000000 0.087819 0.000000
# 6 0.000000 0.000000 0.000000 0.000000 0.000000 -0.000914
#
#
# Mechanical properties :
#
#
# Convention : Reuss Voigt Hill
#
# Bulk Modulus (GPa) = 62.18588 87.28533 74.73561
# Shear Modulus (GPa) = 36.99793 -171.08843 -67.04525
#
# Velocity S-wave (km/s) = 3.82871 -8.23330 -5.15404
# Velocity P-wave (km/s) = 6.64711 7.46991 2.40992
#
# Compressibility (1/GPa) = 0.01608082
#
# Stress axis : x y z
#
# Youngs Moduli (GPa) = 85.98013 248.91833 248.99902
#
# Poissons Ratio (x) = 0.08357 0.13838
# Poissons Ratio (y) = 0.02887 0.22413
# Poissons Ratio (z) = 0.04778 0.22406
#
# Static dielectric constant tensor:
#      x y z
#    x 2.061190 0.000000 0.000000 
#    y 0.000000 1.989890 0.000000 
#    z 0.000000 0.000000 1.907930 
# 
# From -- ./inp_files/2826.got.cif
#   From: 2010.05.17/outbox.cif.g08.bks.cpg/sg42_2_cif.got.tgz:2826.got - 2010.06.03 19:03:34.
