data_PCOD9369426
_publ_section_title
;
Structure prediction by ZEFSAII (Michael W. Deem and Ramdas Pophale) SiO2 
 PCOD9369426
Probable space group: F M M 2
;
_chemical_formula_sum "Si O2"
_cell_formula_units_Z 96
_cell_length_a 8.681662
_cell_length_b 28.646040
_cell_length_c 20.862041
_cell_angle_alpha 90.000000
_cell_angle_beta 90.000000
_cell_angle_gamma 90.000000
_cell_volume 5188.290229
_symmetry_space_group_name_H-M "F M M 2"
_symmetry_group_IT_number 42
_symmetry_cell_setting 'orthorhombic'
loop_
_space_group_symop_operation_xyz
x,y,z
-x,-y,z
-x,y,z
x,-y,z
x,1/2+y,1/2+z
-x,1/2-y,1/2+z
-x,1/2+y,1/2+z
x,1/2-y,1/2+z
1/2+x,y,1/2+z
1/2-x,-y,1/2+z
1/2-x,y,1/2+z
1/2+x,-y,1/2+z
1/2+x,1/2+y,z
1/2-x,1/2-y,z
1/2-x,1/2+y,z
1/2+x,1/2-y,z
loop_
_atom_site_type_symbol
_atom_site_label
_atom_site_fract_x
_atom_site_fract_y
_atom_site_fract_z
Si Si1 0.815945 0.199600 0.200920
Si Si2 0.815608 0.607356 0.899488
Si Si3 0.685017 0.554607 0.022894
Si Si4 0.815734 0.199503 0.844032
Si Si5 0.817792 0.392254 0.145751
Si Si6 0.682420 0.944631 0.766427
O O1 0.750000 0.250000 0.181501
O O2 0.750589 0.190142 0.272531
O O3 0.759840 0.158203 0.155414
O O4 0.000000 0.201130 0.204308
O O5 0.741561 0.658141 0.889496
O O6 0.780945 0.578196 0.834830
O O7 0.000000 0.611557 0.904823
O O8 0.749630 0.580337 0.960328
O O9 0.500000 0.557004 0.023263
O O10 0.730146 0.500000 0.022785
O O11 0.749743 0.580106 0.085591
O O12 0.750000 0.250000 0.863436
O O13 0.000000 0.201030 0.840847
O O14 0.777829 0.421157 0.209866
O O15 0.000000 0.386877 0.138982
O O16 0.500000 0.936185 0.753705
O O17 0.707208 0.000000 0.768456
#
# Coordination Sequence:
#
# PCOD9369426 Si02
#       6
#    16  16  16  16  16  16
#     4  11  21  37  61  91 125 161 201 250 307 364
#     4  11  22  39  63  91 123 162 205 253 308 365
#     4  11  25  44  64  87 122 167 210 254 308 369
#     4  11  21  36  60  92 126 162 203 250 305 363
#     4  12  24  39  61  90 122 161 207 254 306 366
#     4  10  21  37  59  87 120 157 200 253 308 361
#
# _framework density 18.503205999999999
#
# number of rings (size 3 to 8) (size 9 to 14) (size 15 to 20)
#    0.000    1.000    1.667    7.500    0.000    5.000 
#    0.000    0.833    0.000    0.000    0.000    0.000 
#    0.000    0.000    0.000    0.000    0.000    0.000 
#
# Total GULP energy -134262.569653 kJ/mol
# GULP energy per Si atom -5594.273736 kJ/mol
# Density = 1.846109 g / cm^3
# Si number density = 18.503206 Si / 1000 Ang^3
#
#
#
# Elastic Constant Matrix: (Units=GPa)
#
#
# Indices 1 2 3 4 5 6 
#
# 1 146.2814 85.5974 73.0308 0.0000 0.0000 0.0000
# 2 85.5974 172.9926 87.6145 0.0000 0.0000 0.0000
# 3 73.0308 87.6145 123.9596 0.0000 0.0000 0.0000
# 4 0.0000 0.0000 0.0000 34.8255 0.0000 0.0000
# 5 0.0000 0.0000 0.0000 0.0000 32.2346 0.0000
# 6 0.0000 0.0000 0.0000 0.0000 0.0000 20.1755
#
#
#
# Elastic Compliance Matrix: (Units=1/GPa)
#
#
# Indices 1 2 3 4 5 6 
#
# 1 0.010769 -0.003295 -0.004016 0.000000 0.000000 0.000000
# 2 -0.003295 0.010012 -0.005135 0.000000 0.000000 0.000000
# 3 -0.004016 -0.005135 0.014063 0.000000 0.000000 0.000000
# 4 0.000000 0.000000 0.000000 0.028715 0.000000 0.000000
# 5 0.000000 0.000000 0.000000 0.000000 0.031023 0.000000
# 6 0.000000 0.000000 0.000000 0.000000 0.000000 0.049565
#
#
# Mechanical properties :
#
#
# Convention : Reuss Voigt Hill
#
# Bulk Modulus (GPa) = 100.48405 103.96878 102.22642
# Shear Modulus (GPa) = 29.01009 30.57984 29.79497
#
# Velocity S-wave (km/s) = 3.96389 4.06972 4.01716
# Velocity P-wave (km/s) = 8.68183 8.85410 8.76839
#
# Compressibility (1/GPa) = 0.00995183
#
# Stress axis : x y z
#
# Youngs Moduli (GPa) = 92.85985 99.88482 71.11061
#
# Poissons Ratio (x) = 0.32908 0.28557
# Poissons Ratio (y) = 0.30594 0.36516
# Poissons Ratio (z) = 0.37291 0.51292
#
# Static dielectric constant tensor:
#      x y z
#    x 1.621690 0.000000 0.000000 
#    y 0.000000 1.634700 0.000000 
#    z 0.000000 0.000000 1.602030 
# 
# From -- ./inp_files/23719.got.cif
#   From: 2010.05.17/outbox.cif.g08.bks.cpg/sg42_12_cif.got.tgz:23719.got - 2010.06.03 19:03:34.
