data_PCOD9369245
_publ_section_title
;
Structure prediction by ZEFSAII (Michael W. Deem and Ramdas Pophale) SiO2 
 PCOD9369245
Probable space group: F M M 2
;
_chemical_formula_sum "Si O2"
_cell_formula_units_Z 96
_cell_length_a 23.207413
_cell_length_b 13.446942
_cell_length_c 15.297579
_cell_angle_alpha 90.000000
_cell_angle_beta 90.000000
_cell_angle_gamma 90.000000
_cell_volume 4773.896151
_symmetry_space_group_name_H-M "F M M 2"
_symmetry_group_IT_number 42
_symmetry_cell_setting 'orthorhombic'
loop_
_space_group_symop_operation_xyz
x,y,z
-x,-y,z
-x,y,z
x,-y,z
x,1/2+y,1/2+z
-x,1/2-y,1/2+z
-x,1/2+y,1/2+z
x,1/2-y,1/2+z
1/2+x,y,1/2+z
1/2-x,-y,1/2+z
1/2-x,y,1/2+z
1/2+x,-y,1/2+z
1/2+x,1/2+y,z
1/2-x,1/2-y,z
1/2-x,1/2+y,z
1/2+x,1/2-y,z
loop_
_atom_site_type_symbol
_atom_site_label
_atom_site_fract_x
_atom_site_fract_y
_atom_site_fract_z
Si Si1 0.258664 0.619183 0.745750
Si Si2 0.000000 0.616990 0.205944
Si Si3 0.116041 0.121075 0.798464
Si Si4 0.778837 0.384285 0.942593
Si Si5 0.887574 0.749432 0.474322
Si Si6 0.000000 0.381191 0.997332
Si Si7 0.678789 0.382421 0.086462
O O1 0.258804 0.500000 0.736059
O O2 0.325878 0.647353 0.745611
O O3 0.236525 0.641702 0.843010
O O4 0.214799 0.653040 0.670919
O O5 0.059130 0.654944 0.247282
O O6 0.000000 0.500000 0.227933
O O7 0.000000 0.623914 0.102427
O O8 0.115179 0.175389 0.891585
O O9 0.116670 0.000000 0.810264
O O10 0.794351 0.500000 0.945160
O O11 0.832662 0.321506 0.973139
O O12 0.724009 0.372369 0.005757
O O13 0.877073 0.681160 0.560014
O O14 0.943701 0.818856 0.469114
O O15 0.000000 0.500000 0.973085
O O16 0.665147 0.500000 0.095419
#
# Coordination Sequence:
#
# PCOD9369245 Si02
#       7
#    16   8  16  16  16   8  16
#     4   9  19  36  60  90 129 168 198 255 326 377
#     4   9  21  40  60  83 115 165 217 262 316 370
#     4  10  20  38  63  91 126 164 211 269 316 369
#     4  10  21  39  58  86 127 165 204 252 312 379
#     4  12  23  39  62  91 123 166 214 259 314 379
#     4  11  27  46  61  87 123 165 218 268 321 382
#     4  10  21  38  61  93 130 162 201 257 318 375
#
# _framework density 20.109361
#
# number of rings (size 3 to 8) (size 9 to 14) (size 15 to 20)
#    0.000    1.833    1.667    2.000    2.333    1.333 
#    3.000    1.250    0.000    0.000    0.000    3.500 
#    0.000    0.000    0.000    0.000    0.000    0.000 
#
# Total GULP energy -134034.482638 kJ/mol
# GULP energy per Si atom -5584.770110 kJ/mol
# Density = 2.006359 g / cm^3
# Si number density = 20.109361 Si / 1000 Ang^3
#
#
#
# Elastic Constant Matrix: (Units=GPa)
#
#
# Indices 1 2 3 4 5 6 
#
# 1 70.4761 56.8123 -2.2651 0.0000 0.0000 0.0000
# 2 56.8123 132.8154 22.6936 0.0000 0.0000 0.0000
# 3 -2.2651 22.6936 71.1027 0.0000 0.0000 0.0000
# 4 0.0000 0.0000 0.0000 14.5340 0.0000 0.0000
# 5 0.0000 0.0000 0.0000 0.0000 62.0335 0.0000
# 6 0.0000 0.0000 0.0000 0.0000 0.0000 26.4076
#
#
#
# Elastic Compliance Matrix: (Units=1/GPa)
#
#
# Indices 1 2 3 4 5 6 
#
# 1 0.022705 -0.010403 0.004044 0.000000 0.000000 0.000000
# 2 -0.010403 0.012730 -0.004394 0.000000 0.000000 0.000000
# 3 0.004044 -0.004394 0.015596 0.000000 0.000000 0.000000
# 4 0.000000 0.000000 0.000000 0.068804 0.000000 0.000000
# 5 0.000000 0.000000 0.000000 0.000000 0.016120 0.000000
# 6 0.000000 0.000000 0.000000 0.000000 0.000000 0.037868
#
#
# Mechanical properties :
#
#
# Convention : Reuss Voigt Hill
#
# Bulk Modulus (GPa) = 33.87181 47.65289 40.76235
# Shear Modulus (GPa) = 24.36970 33.73857 29.05414
#
# Velocity S-wave (km/s) = 3.48495 4.10048 3.80518
# Velocity P-wave (km/s) = 5.75096 6.79463 6.29446
#
# Compressibility (1/GPa) = 0.02952308
#
# Stress axis : x y z
#
# Youngs Moduli (GPa) = 44.04225 78.55369 64.12092
#
# Poissons Ratio (x) = 0.81722 -0.25928
# Poissons Ratio (y) = 0.45818 0.28178
# Poissons Ratio (z) = -0.17809 0.34520
#
# Static dielectric constant tensor:
#      x y z
#    x 1.705360 0.000000 0.000000 
#    y 0.000000 1.748690 0.000000 
#    z 0.000000 0.000000 1.707820 
# 
# From -- ./inp_files/14044.got.cif
#   From: 2010.05.17/outbox.cif.g08.bks.cpg/sg42_8_cif.got.tgz:14044.got - 2010.06.03 19:03:34.
