data_PCOD9369938
_publ_section_title
;
Structure prediction by ZEFSAII (Michael W. Deem and Ramdas Pophale) SiO2 
 PCOD9369938
Probable space group: F M M 2
;
_chemical_formula_sum "Si O2"
_cell_formula_units_Z 52
_cell_length_a 7.597474
_cell_length_b 21.627128
_cell_length_c 14.116547
_cell_angle_alpha 90.000000
_cell_angle_beta 90.000000
_cell_angle_gamma 90.000000
_cell_volume 2319.511615
_symmetry_space_group_name_H-M "F M M 2"
_symmetry_group_IT_number 42
_symmetry_cell_setting 'orthorhombic'
loop_
_space_group_symop_operation_xyz
x,y,z
-x,-y,z
-x,y,z
x,-y,z
x,1/2+y,1/2+z
-x,1/2-y,1/2+z
-x,1/2+y,1/2+z
x,1/2-y,1/2+z
1/2+x,y,1/2+z
1/2-x,-y,1/2+z
1/2-x,y,1/2+z
1/2+x,-y,1/2+z
1/2+x,1/2+y,z
1/2-x,1/2-y,z
1/2-x,1/2+y,z
1/2+x,1/2-y,z
loop_
_atom_site_type_symbol
_atom_site_label
_atom_site_fract_x
_atom_site_fract_y
_atom_site_fract_z
Si Si1 0.209247 0.680148 0.258830
Si Si2 0.713577 0.569948 0.892857
Si Si3 0.297848 0.907488 0.613324
Si Si4 0.500000 0.000000 0.177999
O O1 0.250000 0.750000 0.286543
O O2 0.279137 0.627070 0.330296
O O3 0.282453 0.661115 0.155885
O O4 0.000000 0.675652 0.257022
O O5 0.500000 0.566869 0.881787
O O6 0.777842 0.500000 0.871649
O O7 0.748467 0.584064 0.003095
O O8 0.500000 0.927962 0.624534
O O9 0.155206 0.947111 0.670060
#
# Coordination Sequence:
#
# PCOD9369938 Si02
#       4
#    16  16  16   4
#     4  11  24  43  65  94 134 178 221 269 324 389
#     4   9  20  39  67  95 128 165 214 275 327 379
#     4  11  23  43  67  98 134 171 215 269 326 387
#     4  12  22  40  68 102 132 166 220 264 332 386
#
# _framework density 22.418512
#
# number of rings (size 3 to 8) (size 9 to 14) (size 15 to 20)
#    0.000    1.538    3.077    1.385    2.154    1.231 
#    5.538    3.077    0.000    0.000    0.000    0.000 
#    0.000    0.000    0.000    0.000    0.000    0.000 
#
# Total GULP energy -72399.328230 kJ/mol
# GULP energy per Si atom -5569.179095 kJ/mol
# Density = 2.236749 g / cm^3
# Si number density = 22.418512 Si / 1000 Ang^3
#
#
#
# Elastic Constant Matrix: (Units=GPa)
#
#
# Indices 1 2 3 4 5 6 
#
# 1 106.3536 22.9306 18.5114 0.0000 0.0000 0.0000
# 2 22.9306 206.5182 85.3708 0.0000 0.0000 0.0000
# 3 18.5114 85.3708 99.0911 0.0000 0.0000 0.0000
# 4 0.0000 0.0000 0.0000 37.4232 0.0000 0.0000
# 5 0.0000 0.0000 0.0000 0.0000 14.4921 0.0000
# 6 0.0000 0.0000 0.0000 0.0000 0.0000 36.7582
#
#
#
# Elastic Compliance Matrix: (Units=1/GPa)
#
#
# Indices 1 2 3 4 5 6 
#
# 1 0.009753 -0.000512 -0.001381 0.000000 0.000000 0.000000
# 2 -0.000512 0.007547 -0.006407 0.000000 0.000000 0.000000
# 3 -0.001381 -0.006407 0.015869 0.000000 0.000000 0.000000
# 4 0.000000 0.000000 0.000000 0.026721 0.000000 0.000000
# 5 0.000000 0.000000 0.000000 0.000000 0.069003 0.000000
# 6 0.000000 0.000000 0.000000 0.000000 0.000000 0.027205
#
#
# Mechanical properties :
#
#
# Convention : Reuss Voigt Hill
#
# Bulk Modulus (GPa) = 60.34735 73.95427 67.15081
# Shear Modulus (GPa) = 28.05477 36.74469 32.39973
#
# Velocity S-wave (km/s) = 3.54137 4.05289 3.80573
# Velocity P-wave (km/s) = 6.61050 7.41356 7.02352
#
# Compressibility (1/GPa) = 0.01657074
#
# Stress axis : x y z
#
# Youngs Moduli (GPa) = 102.52882 132.49421 63.01450
#
# Poissons Ratio (x) = 0.06786 0.08701
# Poissons Ratio (y) = 0.05251 0.40372
# Poissons Ratio (z) = 0.14157 0.84886
#
# Static dielectric constant tensor:
#      x y z
#    x 1.822740 0.000000 0.000000 
#    y 0.000000 1.736150 0.000000 
#    z 0.000000 0.000000 1.910740 
# 
# From -- ./inp_files/11663.got.cif
#   From: 2010.05.17/outbox.cif.g08.bks.cpg/sg42_6_cif.got.tgz:11663.got - 2010.06.03 19:03:34.
