data_PCOD9369372
_publ_section_title
;
Structure prediction by ZEFSAII (Michael W. Deem and Ramdas Pophale) SiO2 
 PCOD9369372
Probable space group: F M M 2
;
_chemical_formula_sum "Si O2"
_cell_formula_units_Z 64
_cell_length_a 11.700523
_cell_length_b 18.326625
_cell_length_c 13.018217
_cell_angle_alpha 90.000000
_cell_angle_beta 90.000000
_cell_angle_gamma 90.000000
_cell_volume 2791.510557
_symmetry_space_group_name_H-M "F M M 2"
_symmetry_group_IT_number 42
_symmetry_cell_setting 'orthorhombic'
loop_
_space_group_symop_operation_xyz
x,y,z
-x,-y,z
-x,y,z
x,-y,z
x,1/2+y,1/2+z
-x,1/2-y,1/2+z
-x,1/2+y,1/2+z
x,1/2-y,1/2+z
1/2+x,y,1/2+z
1/2-x,-y,1/2+z
1/2-x,y,1/2+z
1/2+x,-y,1/2+z
1/2+x,1/2+y,z
1/2-x,1/2-y,z
1/2-x,1/2+y,z
1/2+x,1/2-y,z
loop_
_atom_site_type_symbol
_atom_site_label
_atom_site_fract_x
_atom_site_fract_y
_atom_site_fract_z
Si Si1 0.368356 0.799557 0.368750
Si Si2 0.881857 0.415529 0.725388
Si Si3 0.816535 0.676951 0.136154
Si Si4 0.703776 0.586086 0.454408
O O1 0.500000 0.779593 0.402600
O O2 0.250000 0.750000 0.377807
O O3 0.377801 0.809055 0.244531
O O4 0.324578 0.873233 0.426813
O O5 0.885314 0.500000 0.699305
O O6 0.000000 0.377971 0.697195
O O7 0.864173 0.364954 0.037506
O O8 0.862712 0.410464 0.846676
O O9 0.750000 0.750000 0.104841
O O10 0.720042 0.620240 0.168143
O O11 0.715487 0.500000 0.481139
#
# Coordination Sequence:
#
# PCOD9369372 Si02
#       4
#    16  16  16  16
#     4  10  23  43  66  93 127 168 215 268 322 379
#     4   9  19  37  59  82 112 154 204 254 304 363
#     4  10  21  36  57  88 123 161 202 249 307 372
#     4  10  21  38  60  89 124 162 205 256 316 377
#
# _framework density 22.926653999999999
#
# number of rings (size 3 to 8) (size 9 to 14) (size 15 to 20)
#    0.000    2.250    0.000    1.500    0.000   13.500 
#    0.000    5.000    0.000    0.000    0.000    0.000 
#    0.000    0.000    0.000    0.000    0.000    0.000 
#
# Total GULP energy -89096.166959 kJ/mol
# GULP energy per Si atom -5568.510435 kJ/mol
# Density = 2.287447 g / cm^3
# Si number density = 22.926654 Si / 1000 Ang^3
#
#
#
# Elastic Constant Matrix: (Units=GPa)
#
#
# Indices 1 2 3 4 5 6 
#
# 1 150.1011 25.4548 -2.7945 0.0000 0.0000 0.0000
# 2 25.4548 112.1362 22.4005 0.0000 0.0000 0.0000
# 3 -2.7945 22.4005 80.9265 0.0000 0.0000 0.0000
# 4 0.0000 0.0000 0.0000 33.8057 0.0000 0.0000
# 5 0.0000 0.0000 0.0000 0.0000 -16.0349 0.0000
# 6 0.0000 0.0000 0.0000 0.0000 0.0000 -0.9546
#
#
#
# Elastic Compliance Matrix: (Units=1/GPa)
#
#
# Indices 1 2 3 4 5 6 
#
# 1 0.006968 -0.001725 0.000718 0.000000 0.000000 0.000000
# 2 -0.001725 0.009867 -0.002791 0.000000 0.000000 0.000000
# 3 0.000718 -0.002791 0.013154 0.000000 0.000000 0.000000
# 4 0.000000 0.000000 0.000000 0.029581 0.000000 0.000000
# 5 0.000000 0.000000 0.000000 0.000000 -0.062364 0.000000
# 6 0.000000 0.000000 0.000000 0.000000 0.000000 -1.047581
#
#
# Mechanical properties :
#
#
# Convention : Reuss Voigt Hill
#
# Bulk Modulus (GPa) = 44.65567 48.14279 46.39923
# Shear Modulus (GPa) = -4.82945 23.23678 9.20367
#
# Velocity S-wave (km/s) = -1.45295 3.18705 2.00577
# Velocity P-wave (km/s) = 4.08720 5.88109 5.06421
#
# Compressibility (1/GPa) = 0.02239357
#
# Stress axis : x y z
#
# Youngs Moduli (GPa) = 143.51077 101.34973 76.02156
#
# Poissons Ratio (x) = 0.17485 -0.05460
# Poissons Ratio (y) = 0.24759 0.21215
# Poissons Ratio (z) = -0.10306 0.28284
#
# Static dielectric constant tensor:
#      x y z
#    x 4.433380 0.000000 0.000000 
#    y 0.000000 2.160000 0.000000 
#    z 0.000000 0.000000 1.919310 
# 
# From -- ./inp_files/12582.got.cif
#   From: 2010.05.17/outbox.cif.g08.bks.cpg/sg42_7_cif.got.tgz:12582.got - 2010.06.03 19:03:34.
