data_PCOD9369009
_publ_section_title
;
Structure prediction by ZEFSAII (Michael W. Deem and Ramdas Pophale) SiO2 
 PCOD9369009
Probable space group: F M M 2
;
_chemical_formula_sum "Si O2"
_cell_formula_units_Z 116
_cell_length_a 31.103197
_cell_length_b 8.091667
_cell_length_c 24.883782
_cell_angle_alpha 90.000000
_cell_angle_beta 90.000000
_cell_angle_gamma 90.000000
_cell_volume 6262.668455
_symmetry_space_group_name_H-M "F M M 2"
_symmetry_group_IT_number 42
_symmetry_cell_setting 'orthorhombic'
loop_
_space_group_symop_operation_xyz
x,y,z
-x,-y,z
-x,y,z
x,-y,z
x,1/2+y,1/2+z
-x,1/2-y,1/2+z
-x,1/2+y,1/2+z
x,1/2-y,1/2+z
1/2+x,y,1/2+z
1/2-x,-y,1/2+z
1/2-x,y,1/2+z
1/2+x,-y,1/2+z
1/2+x,1/2+y,z
1/2-x,1/2-y,z
1/2-x,1/2+y,z
1/2+x,1/2-y,z
loop_
_atom_site_type_symbol
_atom_site_label
_atom_site_fract_x
_atom_site_fract_y
_atom_site_fract_z
Si Si1 0.201674 0.697544 0.672560
Si Si2 0.114618 0.191397 0.834860
Si Si3 0.000000 0.000000 0.734593
Si Si4 0.798326 0.697544 0.796625
Si Si5 0.885383 0.808603 0.634325
Si Si6 0.934385 0.684778 0.734593
Si Si7 0.451864 0.801911 0.922496
Si Si8 0.048136 0.198089 0.046689
O O1 0.199064 0.500000 0.672227
O O2 0.250000 0.750000 0.658393
O O3 0.193838 0.755020 0.734593
O O4 0.165071 0.768399 0.633833
O O5 0.165071 0.231600 0.835353
O O6 0.094604 0.300605 0.787501
O O7 0.086363 0.227580 0.887435
O O8 0.109475 0.000000 0.821072
O O9 0.036317 0.151050 0.734593
O O10 0.800936 0.500000 0.796958
O O11 0.750000 0.750000 0.810792
O O12 0.905397 0.699395 0.681684
O O13 0.913637 0.772421 0.581750
O O14 0.890525 0.000000 0.648113
O O15 0.953984 0.500000 0.734593
O O16 0.500000 0.748842 0.903176
O O17 0.450158 0.000000 0.918781
O O18 0.448499 0.750000 0.984592
O O19 0.000000 0.251158 0.066009
O O20 0.049842 0.000000 0.050404
#
# Coordination Sequence:
#
# PCOD9369009 Si02
#       8
#    16  16   4  16  16  16  16  16
#     4  10  20  35  57  85 118 157 196 244 302 360
#     4  12  23  38  59  87 122 159 202 250 298 359
#     4  12  26  44  52  86 120 168 202 240 308 368
#     4  10  20  35  57  85 118 157 196 244 302 360
#     4  12  23  38  59  87 122 159 202 250 298 359
#     4  12  25  41  58  85 122 162 204 248 299 362
#     4  10  22  40  61  86 114 155 203 254 305 354
#     4  10  22  40  61  86 114 155 203 254 305 354
#
# _framework density 18.522455000000001
#
# number of rings (size 3 to 8) (size 9 to 14) (size 15 to 20)
#    0.000    1.103    2.759    4.345    1.931    2.759 
#    0.000    0.000    0.000    0.828    0.000    5.793 
#    0.000    0.000    0.000    0.000    0.000    0.000 
#
# Total GULP energy -161696.939874 kJ/mol
# GULP energy per Si atom -5575.756547 kJ/mol
# Density = 1.848030 g / cm^3
# Si number density = 18.522455 Si / 1000 Ang^3
#
#
#
# Elastic Constant Matrix: (Units=GPa)
#
#
# Indices 1 2 3 4 5 6 
#
# 1 168.8366 43.0976 58.4715 0.0000 0.0000 0.0000
# 2 43.0976 117.8886 13.4399 0.0000 0.0000 -0.0001
# 3 58.4715 13.4399 57.4882 0.0000 0.0000 0.0000
# 4 0.0000 0.0000 0.0000 18.2311 0.0000 0.0000
# 5 0.0000 0.0000 0.0000 0.0000 41.4303 0.0000
# 6 0.0000 -0.0001 0.0000 0.0000 0.0000 19.0459
#
#
#
# Elastic Compliance Matrix: (Units=1/GPa)
#
#
# Indices 1 2 3 4 5 6 
#
# 1 0.009821 -0.002519 -0.009401 0.000000 0.000000 0.000000
# 2 -0.002519 0.009361 0.000373 0.000000 0.000000 0.000000
# 3 -0.009401 0.000373 0.026869 0.000000 0.000000 0.000000
# 4 0.000000 0.000000 0.000000 0.054851 0.000000 0.000000
# 5 0.000000 0.000000 0.000000 0.000000 0.024137 0.000000
# 6 0.000000 0.000000 0.000000 0.000000 0.000000 0.052505
#
#
# Mechanical properties :
#
#
# Convention : Reuss Voigt Hill
#
# Bulk Modulus (GPa) = 43.55517 63.80347 53.67932
# Shear Modulus (GPa) = 24.00507 31.02174 27.51341
#
# Velocity S-wave (km/s) = 3.60390 4.09689 3.85828
# Velocity P-wave (km/s) = 6.39401 7.54326 6.99228
#
# Compressibility (1/GPa) = 0.02295939
#
# Stress axis : x y z
#
# Youngs Moduli (GPa) = 101.81797 106.82809 37.21769
#
# Poissons Ratio (x) = 0.26908 0.34987
# Poissons Ratio (y) = 0.25646 -0.01390
# Poissons Ratio (z) = 0.95715 -0.03990
#
# Static dielectric constant tensor:
#      x y z
#    x 1.665490 0.000000 0.000000 
#    y 0.000000 1.643360 0.000000 
#    z 0.000000 0.000000 1.612430 
# 
# From -- ./inp_files/30911.got.cif
#   From: 2010.05.17/outbox.cif.g08.bks.cpg/sg42_16_cif.got.tgz:30911.got - 2010.06.03 19:03:34.
