data_PCOD9369516
_publ_section_title
;
Structure prediction by ZEFSAII (Michael W. Deem and Ramdas Pophale) SiO2 
 PCOD9369516
Probable space group: F M M 2
;
_chemical_formula_sum "Si O2"
_cell_formula_units_Z 104
_cell_length_a 24.662545
_cell_length_b 22.599663
_cell_length_c 9.779375
_cell_angle_alpha 90.000000
_cell_angle_beta 90.000000
_cell_angle_gamma 90.000000
_cell_volume 5450.683359
_symmetry_space_group_name_H-M "F M M 2"
_symmetry_group_IT_number 42
_symmetry_cell_setting 'orthorhombic'
loop_
_space_group_symop_operation_xyz
x,y,z
-x,-y,z
-x,y,z
x,-y,z
x,1/2+y,1/2+z
-x,1/2-y,1/2+z
-x,1/2+y,1/2+z
x,1/2-y,1/2+z
1/2+x,y,1/2+z
1/2-x,-y,1/2+z
1/2-x,y,1/2+z
1/2+x,-y,1/2+z
1/2+x,1/2+y,z
1/2-x,1/2-y,z
1/2-x,1/2+y,z
1/2+x,1/2-y,z
loop_
_atom_site_type_symbol
_atom_site_label
_atom_site_fract_x
_atom_site_fract_y
_atom_site_fract_z
Si Si1 0.842590 0.160509 0.552730
Si Si2 0.203407 0.432597 0.265120
Si Si3 0.750000 0.750000 0.137929
Si Si4 0.563954 0.820790 0.518465
Si Si5 0.307289 0.138344 0.770413
Si Si6 0.131758 0.432189 0.534716
Si Si7 0.065954 0.278155 0.221737
O O1 0.818189 0.106170 0.639459
O O2 0.796580 0.212488 0.559941
O O3 0.848703 0.144766 0.394654
O O4 0.898291 0.178958 0.626420
O O5 0.215371 0.500000 0.224502
O O6 0.256358 0.399985 0.322254
O O7 0.160398 0.432856 0.387498
O O8 0.716837 0.701314 0.223953
O O9 0.500000 0.816296 0.511357
O O10 0.581145 0.888506 0.521948
O O11 0.580092 0.785366 0.655107
O O12 0.583997 0.789123 0.378444
O O13 0.330436 0.101855 0.642953
O O14 0.121088 0.500000 0.575295
O O15 0.000000 0.286534 0.212545
#
# Coordination Sequence:
#
# PCOD9369516 Si02
#       7
#    16  16   8  16  16  16  16
#     4  11  22  37  59  86 123 154 199 247 304 360
#     4  10  21  39  59  81 114 158 204 242 290 359
#     4  10  22  36  56  90 120 162 202 242 312 358
#     4  10  22  41  64  91 117 153 198 247 305 358
#     4  11  23  35  56  87 120 159 196 249 298 359
#     4  11  23  40  60  86 119 160 204 244 295 358
#     4  10  22  39  64  92 120 154 196 248 307 366
#
# _framework density 19.080176999999999
#
# number of rings (size 3 to 8) (size 9 to 14) (size 15 to 20)
#    0.000    1.538    1.538    3.692    4.308    4.000 
#    0.000    0.000    0.000    0.462    0.000    0.000 
#    0.000    0.000    0.000    0.000    0.000    0.000 
#
# Total GULP energy -145106.523986 kJ/mol
# GULP energy per Si atom -5581.020153 kJ/mol
# Density = 1.903675 g / cm^3
# Si number density = 19.080177 Si / 1000 Ang^3
#
#
#
# Elastic Constant Matrix: (Units=GPa)
#
#
# Indices 1 2 3 4 5 6 
#
# 1 21.9406 14.1405 17.4091 -0.0001 0.0000 0.0001
# 2 14.1405 147.3584 51.9989 -0.0001 0.0000 0.0001
# 3 17.4091 51.9989 88.4400 -0.0003 0.0001 0.0003
# 4 -0.0001 -0.0001 -0.0003 16.5105 0.0000 0.0001
# 5 0.0000 0.0000 0.0001 0.0000 21.7454 0.0000
# 6 0.0001 0.0001 0.0003 0.0001 0.0000 15.0452
#
#
#
# Elastic Compliance Matrix: (Units=1/GPa)
#
#
# Indices 1 2 3 4 5 6 
#
# 1 0.054398 -0.001819 -0.009639 0.000000 0.000000 0.000000
# 2 -0.001819 0.008624 -0.004712 0.000000 0.000000 0.000000
# 3 -0.009639 -0.004712 0.015975 0.000000 0.000000 0.000000
# 4 0.000000 0.000000 0.000000 0.060567 0.000000 -0.000001
# 5 0.000000 0.000000 0.000000 0.000000 0.045987 0.000000
# 6 0.000000 0.000000 0.000000 -0.000001 0.000000 0.066466
#
#
# Mechanical properties :
#
#
# Convention : Reuss Voigt Hill
#
# Bulk Modulus (GPa) = 21.43302 47.20400 34.31851
# Shear Modulus (GPa) = 16.67176 22.27293 19.47235
#
# Velocity S-wave (km/s) = 2.95917 3.42033 3.19808
# Velocity P-wave (km/s) = 4.78885 6.35545 5.62694
#
# Compressibility (1/GPa) = 0.04665698
#
# Stress axis : x y z
#
# Youngs Moduli (GPa) = 18.38310 115.96184 62.59764
#
# Poissons Ratio (x) = 0.21091 0.60336
# Poissons Ratio (y) = 0.03343 0.29498
# Poissons Ratio (z) = 0.17719 0.54644
#
# Static dielectric constant tensor:
#      x y z
#    x 1.686790 0.000000 0.000000 
#    y 0.000000 1.658700 0.000000 
#    z 0.000000 0.000000 1.680360 
# 
# From -- ./inp_files/5218.got.cif
#   From: 2010.05.17/outbox.cif.g08.bks.cpg/sg42_3_cif.got.tgz:5218.got - 2010.06.03 19:03:34.
