data_PCOD9369704
_publ_section_title
;
Structure prediction by ZEFSAII (Michael W. Deem and Ramdas Pophale) SiO2 
 PCOD9369704
Probable space group: F M M 2
;
_chemical_formula_sum "Si O2"
_cell_formula_units_Z 72
_cell_length_a 8.978857
_cell_length_b 14.946490
_cell_length_c 23.020619
_cell_angle_alpha 90.000000
_cell_angle_beta 90.000000
_cell_angle_gamma 90.000000
_cell_volume 3089.422236
_symmetry_space_group_name_H-M "F M M 2"
_symmetry_group_IT_number 42
_symmetry_cell_setting 'orthorhombic'
loop_
_space_group_symop_operation_xyz
x,y,z
-x,-y,z
-x,y,z
x,-y,z
x,1/2+y,1/2+z
-x,1/2-y,1/2+z
-x,1/2+y,1/2+z
x,1/2-y,1/2+z
1/2+x,y,1/2+z
1/2-x,-y,1/2+z
1/2-x,y,1/2+z
1/2+x,-y,1/2+z
1/2+x,1/2+y,z
1/2-x,1/2-y,z
1/2-x,1/2+y,z
1/2+x,1/2-y,z
loop_
_atom_site_type_symbol
_atom_site_label
_atom_site_fract_x
_atom_site_fract_y
_atom_site_fract_z
Si Si1 0.000000 0.107686 0.425490
Si Si2 0.000000 0.796302 0.305103
Si Si3 0.218915 0.401194 0.730333
Si Si4 0.000000 0.096084 0.811668
Si Si5 0.326490 0.897035 0.473730
Si Si6 0.175338 0.154997 0.104486
O O1 0.834934 0.140543 0.449734
O O2 0.000000 0.133754 0.357933
O O3 0.000000 0.000000 0.434199
O O4 0.868665 0.820795 0.260827
O O5 0.000000 0.698258 0.334516
O O6 0.149183 0.500000 0.735354
O O7 0.362481 0.405782 0.769144
O O8 0.245728 0.385759 0.662391
O O9 0.000000 0.000000 0.844484
O O10 0.500000 0.861963 0.462195
O O11 0.311077 0.895179 0.543533
O O12 0.327806 0.000000 0.454230
O O13 0.250000 0.250000 0.094590
O O14 0.000000 0.163076 0.117760
#
# Coordination Sequence:
#
# PCOD9369704 Si02
#       6
#     8   8  16   8  16  16
#     4  10  22  41  70 102 135 185 240 291 351 413
#     4  12  22  42  70  99 139 179 227 280 344 415
#     4  11  23  40  66 100 140 180 225 277 344 417
#     4  10  24  43  64  97 138 180 225 279 341 414
#     4   9  20  41  67  97 134 178 235 292 349 414
#     4  11  23  37  62  96 135 179 227 282 348 409
#
# _framework density 23.305327999999999
#
# number of rings (size 3 to 8) (size 9 to 14) (size 15 to 20)
#    0.000    1.556    1.111    3.667    3.111    0.889 
#    2.000    5.556    0.000    0.000    0.000    1.556 
#    0.000    0.000    0.000    0.000    0.000    0.000 
#
# Total GULP energy -100247.543827 kJ/mol
# GULP energy per Si atom -5569.307990 kJ/mol
# Density = 2.325228 g / cm^3
# Si number density = 23.305328 Si / 1000 Ang^3
#
#
#
# Elastic Constant Matrix: (Units=GPa)
#
#
# Indices 1 2 3 4 5 6 
#
# 1 97.3947 24.8573 23.5662 0.0000 0.0000 0.0000
# 2 24.8573 95.3404 15.4709 0.0000 0.0000 0.0000
# 3 23.5662 15.4709 132.3174 0.0000 0.0000 0.0000
# 4 0.0000 0.0000 0.0000 21.1668 0.0000 0.0000
# 5 0.0000 0.0000 0.0000 0.0000 -22.9626 0.0000
# 6 0.0000 0.0000 0.0000 0.0000 0.0000 11.2795
#
#
#
# Elastic Compliance Matrix: (Units=1/GPa)
#
#
# Indices 1 2 3 4 5 6 
#
# 1 0.011367 -0.002686 -0.001710 0.000000 0.000000 0.000000
# 2 -0.002686 0.011326 -0.000846 0.000000 0.000000 0.000000
# 3 -0.001710 -0.000846 0.007961 0.000000 0.000000 0.000000
# 4 0.000000 0.000000 0.000000 0.047244 0.000000 0.000000
# 5 0.000000 0.000000 0.000000 0.000000 -0.043549 0.000000
# 6 0.000000 0.000000 0.000000 0.000000 0.000000 0.088657
#
#
# Mechanical properties :
#
#
# Convention : Reuss Voigt Hill
#
# Bulk Modulus (GPa) = 49.57964 50.31571 49.94767
# Shear Modulus (GPa) = 35.65986 19.30726 27.48356
#
# Velocity S-wave (km/s) = 3.91591 2.88140 3.43779
# Velocity P-wave (km/s) = 6.46266 5.71897 6.10216
#
# Compressibility (1/GPa) = 0.02016957
#
# Stress axis : x y z
#
# Youngs Moduli (GPa) = 87.97465 88.29004 125.61038
#
# Poissons Ratio (x) = 0.23715 0.21485
# Poissons Ratio (y) = 0.23630 0.10625
# Poissons Ratio (z) = 0.15047 0.07469
#
# Static dielectric constant tensor:
#      x y z
#    x 1.930560 0.000000 0.000000 
#    y 0.000000 1.934630 0.000000 
#    z 0.000000 0.000000 1.811430 
# 
# From -- ./inp_files/31124.got.cif
#   From: 2010.05.17/outbox.cif.g08.bks.cpg/sg42_16_cif.got.tgz:31124.got - 2010.06.03 19:03:34.
