data_PCOD9369167
_publ_section_title
;
Structure prediction by ZEFSAII (Michael W. Deem and Ramdas Pophale) SiO2 
 PCOD9369167
Probable space group: F M M 2
;
_chemical_formula_sum "Si O2"
_cell_formula_units_Z 100
_cell_length_a 7.754723
_cell_length_b 21.186140
_cell_length_c 30.085172
_cell_angle_alpha 90.000000
_cell_angle_beta 90.000000
_cell_angle_gamma 90.000000
_cell_volume 4942.772548
_symmetry_space_group_name_H-M "F M M 2"
_symmetry_group_IT_number 42
_symmetry_cell_setting 'orthorhombic'
loop_
_space_group_symop_operation_xyz
x,y,z
-x,-y,z
-x,y,z
x,-y,z
x,1/2+y,1/2+z
-x,1/2-y,1/2+z
-x,1/2+y,1/2+z
x,1/2-y,1/2+z
1/2+x,y,1/2+z
1/2-x,-y,1/2+z
1/2-x,y,1/2+z
1/2+x,-y,1/2+z
1/2+x,1/2+y,z
1/2-x,1/2-y,z
1/2-x,1/2+y,z
1/2+x,1/2-y,z
loop_
_atom_site_type_symbol
_atom_site_label
_atom_site_fract_x
_atom_site_fract_y
_atom_site_fract_z
Si Si1 0.704176 0.429422 0.392440
Si Si2 0.202819 0.570100 0.291578
Si Si3 0.204966 0.178596 0.961971
Si Si4 0.500000 0.000000 0.166861
Si Si5 0.293370 0.678372 0.062285
Si Si6 0.298108 0.602956 0.147267
Si Si7 0.293415 0.179755 0.227403
O O1 0.500000 0.432196 0.385950
O O2 0.763854 0.500000 0.406471
O O3 0.781751 0.416249 0.343904
O O4 0.739567 0.375334 0.428009
O O5 0.277979 0.500000 0.283281
O O6 0.272291 0.626484 0.261757
O O7 0.000000 0.565631 0.280729
O O8 0.250000 0.250000 0.947780
O O9 0.000000 0.175345 0.964664
O O10 0.275761 0.168929 0.012125
O O11 0.344838 0.945654 0.165021
O O12 0.500000 0.674296 0.060527
O O13 0.250000 0.750000 0.075729
O O14 0.240591 0.626938 0.098504
O O15 0.500000 0.581280 0.145849
O O16 0.288974 0.662733 0.180192
O O17 0.500000 0.175695 0.223838
O O18 0.250000 0.250000 0.242260
#
# Coordination Sequence:
#
# PCOD9369167 Si02
#       7
#    16  16  16   4  16  16  16
#     4  10  21  38  57  85 119 156 202 250 305 370
#     4   9  20  38  62  84 115 160 206 251 307 372
#     4  10  20  37  60  87 118 155 202 252 305 364
#     4  12  26  44  64  94 128 172 208 260 312 378
#     4   9  20  37  61  89 118 157 203 252 307 369
#     4  11  24  43  65  93 129 167 212 258 308 370
#     4  11  23  39  63  94 126 161 210 258 309 372
#
# _framework density 20.231559000000001
#
# number of rings (size 3 to 8) (size 9 to 14) (size 15 to 20)
#    0.000    1.920    0.800    2.160    2.240    4.800 
#    1.440    1.600    0.000    0.000    0.000    0.000 
#    0.000    0.000    0.000    0.000    0.000    0.000 
#
# Total GULP energy -139277.944944 kJ/mol
# GULP energy per Si atom -5571.117798 kJ/mol
# Density = 2.018551 g / cm^3
# Si number density = 20.231559 Si / 1000 Ang^3
#
#
#
# Elastic Constant Matrix: (Units=GPa)
#
#
# Indices 1 2 3 4 5 6 
#
# 1 73.8891 15.4825 2.8919 0.0000 0.0000 0.0000
# 2 15.4825 124.5388 66.7023 0.0000 0.0000 0.0000
# 3 2.8919 66.7023 74.5990 0.0000 0.0000 0.0000
# 4 0.0000 0.0000 0.0000 492.9838 0.0000 0.0000
# 5 0.0000 0.0000 0.0000 0.0000 14.2699 0.0000
# 6 0.0000 0.0000 0.0000 0.0000 0.0000 84.8583
#
#
#
# Elastic Compliance Matrix: (Units=1/GPa)
#
#
# Indices 1 2 3 4 5 6 
#
# 1 0.014042 -0.002791 0.001951 0.000000 0.000000 0.000000
# 2 -0.002791 0.015964 -0.014166 0.000000 0.000000 0.000000
# 3 0.001951 -0.014166 0.025995 0.000000 0.000000 0.000000
# 4 0.000000 0.000000 0.000000 0.002028 0.000000 0.000000
# 5 0.000000 0.000000 0.000000 0.000000 0.070078 0.000000
# 6 0.000000 0.000000 0.000000 0.000000 0.000000 0.011784
#
#
# Mechanical properties :
#
#
# Convention : Reuss Voigt Hill
#
# Bulk Modulus (GPa) = 38.47555 49.24226 43.85891
# Shear Modulus (GPa) = 28.00093 130.95242 79.47667
#
# Velocity S-wave (km/s) = 3.72428 8.05403 6.27446
# Velocity P-wave (km/s) = 6.12802 10.53005 8.61494
#
# Compressibility (1/GPa) = 0.02599053
#
# Stress axis : x y z
#
# Youngs Moduli (GPa) = 71.21410 62.64287 38.46838
#
# Poissons Ratio (x) = 0.17481 -0.07504
# Poissons Ratio (y) = 0.19872 0.54492
# Poissons Ratio (z) = -0.13892 0.88737
#
# Static dielectric constant tensor:
#      x y z
#    x 1.733710 0.000000 0.000000 
#    y 0.000000 1.655130 0.000000 
#    z 0.000000 0.000000 1.740110 
# 
# From -- ./inp_files/31555.got.cif
#   From: 2010.05.17/outbox.cif.g08.bks.cpg/sg42_16_cif.got.tgz:31555.got - 2010.06.03 19:03:34.
