data_PCOD9369990
_publ_section_title
;
Structure prediction by ZEFSAII (Michael W. Deem and Ramdas Pophale) SiO2 
 PCOD9369990
Probable space group: F M M 2
;
_chemical_formula_sum "Si O2"
_cell_formula_units_Z 112
_cell_length_a 7.558116
_cell_length_b 19.888719
_cell_length_c 36.989179
_cell_angle_alpha 90.000000
_cell_angle_beta 90.000000
_cell_angle_gamma 90.000000
_cell_volume 5560.259450
_symmetry_space_group_name_H-M "F M M 2"
_symmetry_group_IT_number 42
_symmetry_cell_setting 'orthorhombic'
loop_
_space_group_symop_operation_xyz
x,y,z
-x,-y,z
-x,y,z
x,-y,z
x,1/2+y,1/2+z
-x,1/2-y,1/2+z
-x,1/2+y,1/2+z
x,1/2-y,1/2+z
1/2+x,y,1/2+z
1/2-x,-y,1/2+z
1/2-x,y,1/2+z
1/2+x,-y,1/2+z
1/2+x,1/2+y,z
1/2-x,1/2-y,z
1/2-x,1/2+y,z
1/2+x,1/2-y,z
loop_
_atom_site_type_symbol
_atom_site_label
_atom_site_fract_x
_atom_site_fract_y
_atom_site_fract_z
Si Si1 0.287769 0.327539 0.779980
Si Si2 0.287651 0.576609 0.924783
Si Si3 0.212231 0.672461 0.150322
Si Si4 0.212380 0.672698 0.361623
Si Si5 0.712349 0.576609 0.505519
Si Si6 0.787620 0.672698 0.068679
Si Si7 0.783042 0.577718 0.215151
O O1 0.500000 0.333941 0.781176
O O2 0.250000 0.250000 0.769894
O O3 0.219785 0.339217 0.820794
O O4 0.223899 0.380536 0.750368
O O5 0.500000 0.573801 0.921370
O O6 0.219721 0.500000 0.922483
O O7 0.219252 0.623052 0.892495
O O8 0.250000 0.602523 0.965151
O O9 0.250000 0.750000 0.160408
O O10 0.280215 0.660783 0.109507
O O11 0.276101 0.619464 0.179933
O O12 0.000000 0.666059 0.149125
O O13 0.250000 0.750000 0.370886
O O14 0.000000 0.664865 0.360194
O O15 0.500000 0.573800 0.508932
O O16 0.780280 0.500000 0.507819
O O17 0.780748 0.623052 0.537807
O O18 0.750000 0.750000 0.059416
O O19 0.000000 0.664865 0.070108
O O20 0.727715 0.500000 0.215151
O O21 0.000000 0.577920 0.215151
#
# Coordination Sequence:
#
# PCOD9369990 Si02
#       7
#    16  16  16  16  16  16  16
#     4   9  17  30  48  68  91 120 151 183 221 265
#     4   9  18  32  48  66  89 118 151 185 223 267
#     4   9  17  30  48  68  91 120 151 183 221 265
#     4   9  18  31  47  68  92 118 149 185 224 265
#     4   9  18  32  48  66  89 118 151 185 223 267
#     4   9  18  31  47  68  92 118 149 185 224 265
#     4   9  17  28  45  71  96 117 148 188 224 259
#
# _framework density 20.142945000000001
#
# number of rings (size 3 to 8) (size 9 to 14) (size 15 to 20)
#    0.000    3.000    0.000    0.429    0.000    2.857 
#    0.000    8.571    0.000    1.714    0.000    8.000 
#    0.000    0.000    0.000    0.000    0.000    0.000 
#
# Total GULP energy -156191.881410 kJ/mol
# GULP energy per Si atom -5578.281479 kJ/mol
# Density = 2.009710 g / cm^3
# Si number density = 20.142945 Si / 1000 Ang^3
#
#
#
# Elastic Constant Matrix: (Units=GPa)
#
#
# Indices 1 2 3 4 5 6 
#
# 1 48.7744 0.6604 5.1170 0.0000 0.0000 0.0000
# 2 0.6604 150.9385 142.9602 0.0000 0.0000 0.0000
# 3 5.1170 142.9602 179.5840 0.0000 0.0000 0.0000
# 4 0.0000 0.0000 0.0000 2358.7455 0.0000 0.0000
# 5 0.0000 0.0000 0.0000 0.0000 4.1529 0.0000
# 6 0.0000 0.0000 0.0000 0.0000 0.0000 20.4779
#
#
#
# Elastic Compliance Matrix: (Units=1/GPa)
#
#
# Indices 1 2 3 4 5 6 
#
# 1 0.020698 0.001902 -0.002104 0.000000 0.000000 0.000000
# 2 0.001902 0.027105 -0.021632 0.000000 0.000000 0.000000
# 3 -0.002104 -0.021632 0.022848 0.000000 0.000000 0.000000
# 4 0.000000 0.000000 0.000000 0.000424 0.000000 0.000000
# 5 0.000000 0.000000 0.000000 0.000000 0.240798 0.000000
# 6 0.000000 0.000000 0.000000 0.000000 0.000000 0.048833
#
#
# Mechanical properties :
#
#
# Convention : Reuss Voigt Hill
#
# Bulk Modulus (GPa) = 37.05842 75.19690 56.12766
# Shear Modulus (GPa) = 12.09576 492.04586 252.07081
#
# Velocity S-wave (km/s) = 2.45316 15.64632 11.19878
# Velocity P-wave (km/s) = 5.14409 19.07413 13.96933
#
# Compressibility (1/GPa) = 0.02698442
#
# Stress axis : x y z
#
# Youngs Moduli (GPa) = 48.31491 36.89348 43.76659
#
# Poissons Ratio (x) = -0.07019 0.09209
# Poissons Ratio (y) = -0.09192 0.94674
# Poissons Ratio (z) = 0.10166 0.79806
#
# Static dielectric constant tensor:
#      x y z
#    x 1.774680 0.000000 0.000000 
#    y 0.000000 1.672140 0.000000 
#    z 0.000000 0.000000 1.717510 
# 
# From -- ./inp_files/34174.got.cif
#   From: 2010.05.17/outbox.cif.g08.bks.cpg/sg42_18_cif.got.tgz:34174.got - 2010.06.03 19:03:34.
