data_PCOD9369015
_publ_section_title
;
Structure prediction by ZEFSAII (Michael W. Deem and Ramdas Pophale) SiO2 
 PCOD9369015
Probable space group: F M M 2
;
_chemical_formula_sum "Si O2"
_cell_formula_units_Z 112
_cell_length_a 13.523631
_cell_length_b 25.285129
_cell_length_c 15.321416
_cell_angle_alpha 90.000000
_cell_angle_beta 90.000000
_cell_angle_gamma 90.000000
_cell_volume 5239.108474
_symmetry_space_group_name_H-M "F M M 2"
_symmetry_group_IT_number 42
_symmetry_cell_setting 'orthorhombic'
loop_
_space_group_symop_operation_xyz
x,y,z
-x,-y,z
-x,y,z
x,-y,z
x,1/2+y,1/2+z
-x,1/2-y,1/2+z
-x,1/2+y,1/2+z
x,1/2-y,1/2+z
1/2+x,y,1/2+z
1/2-x,-y,1/2+z
1/2-x,y,1/2+z
1/2+x,-y,1/2+z
1/2+x,1/2+y,z
1/2-x,1/2-y,z
1/2-x,1/2+y,z
1/2+x,1/2-y,z
loop_
_atom_site_type_symbol
_atom_site_label
_atom_site_fract_x
_atom_site_fract_y
_atom_site_fract_z
Si Si1 0.275933 0.060747 0.086310
Si Si2 0.749262 0.900868 0.273526
Si Si3 0.885234 0.913563 0.414262
Si Si4 0.380510 0.195818 0.309330
Si Si5 0.883589 0.762449 0.621885
Si Si6 0.618314 0.790833 0.938473
Si Si7 0.885015 0.637862 0.627057
O O1 0.302457 0.072367 0.188373
O O2 0.184821 0.100800 0.068722
O O3 0.244556 0.000000 0.080591
O O4 0.358713 0.071238 0.013608
O O5 0.804914 0.935895 0.345937
O O6 0.673898 0.860000 0.318008
O O7 0.840425 0.871757 0.223275
O O8 0.869194 0.850133 0.405404
O O9 0.000000 0.926076 0.395637
O O10 0.500000 0.190126 0.311791
O O11 0.346633 0.216786 0.214110
O O12 0.352970 0.241027 0.379028
O O13 0.839544 0.788927 0.536231
O O14 0.876247 0.699866 0.609822
O O15 0.000000 0.775261 0.625460
O O16 0.500000 0.784018 0.946111
O O17 0.000000 0.623373 0.621968
#
# Coordination Sequence:
#
# PCOD9369015 Si02
#       7
#    16  16  16  16  16  16  16
#     4  10  25  45  64  93 124 163 222 279 333 389
#     4  10  23  39  62  99 127 173 216 271 321 398
#     4  11  23  43  67  97 133 171 219 271 323 388
#     4  10  20  35  57  91 134 175 212 257 315 383
#     4   9  17  32  54  81 122 171 213 254 311 384
#     4   9  19  33  55  87 127 171 210 253 309 382
#     4   9  20  39  61  87 123 165 211 269 329 385
#
# _framework density 21.377682
#
# number of rings (size 3 to 8) (size 9 to 14) (size 15 to 20)
#    0.857    1.429    0.000    2.143    2.000    7.429 
#    0.000    0.000    0.000    0.000    0.000    2.000 
#    0.000    0.000    0.000    0.000    0.000    0.000 
#
# Total GULP energy -156126.806289 kJ/mol
# GULP energy per Si atom -5575.957367 kJ/mol
# Density = 2.132903 g / cm^3
# Si number density = 21.377682 Si / 1000 Ang^3
#
#
#
# Elastic Constant Matrix: (Units=GPa)
#
#
# Indices 1 2 3 4 5 6 
#
# 1 111.3716 10.5507 21.8789 0.0000 0.0000 0.0000
# 2 10.5507 47.2210 12.5825 0.0000 0.0000 0.0000
# 3 21.8789 12.5825 112.8858 0.0000 0.0000 0.0000
# 4 0.0000 0.0000 0.0000 5.3546 0.0000 0.0000
# 5 0.0000 0.0000 0.0000 0.0000 18.8903 0.0000
# 6 0.0000 0.0000 0.0000 0.0000 0.0000 0.4942
#
#
#
# Elastic Compliance Matrix: (Units=1/GPa)
#
#
# Indices 1 2 3 4 5 6 
#
# 1 0.009461 -0.001675 -0.001647 0.000000 0.000000 0.000000
# 2 -0.001675 0.022122 -0.002141 0.000000 0.000000 0.000000
# 3 -0.001647 -0.002141 0.009416 0.000000 0.000000 0.000000
# 4 0.000000 0.000000 0.000000 0.186755 0.000000 0.000000
# 5 0.000000 0.000000 0.000000 0.000000 0.052937 0.000000
# 6 0.000000 0.000000 0.000000 0.000000 0.000000 2.023325
#
#
# Mechanical properties :
#
#
# Convention : Reuss Voigt Hill
#
# Bulk Modulus (GPa) = 33.25241 40.16697 36.70969
# Shear Modulus (GPa) = 2.15057 20.04557 11.09807
#
# Velocity S-wave (km/s) = 1.00408 3.06549 2.28094
# Velocity P-wave (km/s) = 4.11494 5.59997 4.91388
#
# Compressibility (1/GPa) = 0.03007300
#
# Stress axis : x y z
#
# Youngs Moduli (GPa) = 105.69491 45.20429 106.19798
#
# Poissons Ratio (x) = 0.07572 0.17491
# Poissons Ratio (y) = 0.17705 0.22738
# Poissons Ratio (z) = 0.17408 0.09679
#
# Static dielectric constant tensor:
#      x y z
#    x 1.783020 0.000000 0.000000 
#    y 0.000000 1.756890 0.000000 
#    z 0.000000 0.000000 1.860370 
# 
# From -- ./inp_files/14421.got.cif
#   From: 2010.05.17/outbox.cif.g08.bks.cpg/sg42_8_cif.got.tgz:14421.got - 2010.06.03 19:03:34.
