data_PCOD9369073
_publ_section_title
;
Structure prediction by ZEFSAII (Michael W. Deem and Ramdas Pophale) SiO2 
 PCOD9369073
Probable space group: F M M 2
;
_chemical_formula_sum "Si O2"
_cell_formula_units_Z 112
_cell_length_a 15.929952
_cell_length_b 25.303249
_cell_length_c 14.074785
_cell_angle_alpha 90.000000
_cell_angle_beta 90.000000
_cell_angle_gamma 90.000000
_cell_volume 5673.257892
_symmetry_space_group_name_H-M "F M M 2"
_symmetry_group_IT_number 42
_symmetry_cell_setting 'orthorhombic'
loop_
_space_group_symop_operation_xyz
x,y,z
-x,-y,z
-x,y,z
x,-y,z
x,1/2+y,1/2+z
-x,1/2-y,1/2+z
-x,1/2+y,1/2+z
x,1/2-y,1/2+z
1/2+x,y,1/2+z
1/2-x,-y,1/2+z
1/2-x,y,1/2+z
1/2+x,-y,1/2+z
1/2+x,1/2+y,z
1/2-x,1/2-y,z
1/2-x,1/2+y,z
1/2+x,1/2-y,z
loop_
_atom_site_type_symbol
_atom_site_label
_atom_site_fract_x
_atom_site_fract_y
_atom_site_fract_z
Si Si1 0.900285 0.379468 0.265890
Si Si2 0.246951 0.600399 0.414968
Si Si3 0.860116 0.059064 0.253372
Si Si4 0.799683 0.058003 0.615760
Si Si5 0.801772 0.295751 0.499184
Si Si6 0.094405 0.169480 0.174717
Si Si7 0.400882 0.741225 0.818442
O O1 0.839627 0.401933 0.351661
O O2 0.864783 0.402258 0.166567
O O3 0.890416 0.315873 0.267786
O O4 0.000000 0.391098 0.279841
O O5 0.322532 0.576882 0.353865
O O6 0.256974 0.571863 0.515726
O O7 0.253721 0.661900 0.442442
O O8 0.777923 0.055863 0.187736
O O9 0.908033 0.109841 0.213183
O O10 0.898074 0.000000 0.255782
O O11 0.839584 0.000000 0.609725
O O12 0.750000 0.250000 0.549542
O O13 0.854016 0.326798 0.577856
O O14 0.857327 0.266770 0.419691
O O15 0.130121 0.210141 0.253694
O O16 0.000000 0.187714 0.153850
O O17 0.500000 0.749688 0.833930
#
# Coordination Sequence:
#
# PCOD9369073 Si02
#       7
#    16  16  16  16  16  16  16
#     4   9  20  38  62  89 121 161 204 257 316 376
#     4  10  20  37  60  90 120 159 203 252 309 368
#     4  10  21  39  61  83 117 162 205 253 306 368
#     4  10  20  36  57  86 121 156 202 254 305 363
#     4  11  22  34  60  92 120 154 200 247 302 376
#     4  11  23  39  60  88 122 160 202 252 310 366
#     4   9  20  39  58  83 122 157 191 245 309 366
#
# _framework density 19.741743
#
# number of rings (size 3 to 8) (size 9 to 14) (size 15 to 20)
#    0.000    2.000    1.429    1.714    2.000    3.429 
#    0.000    0.714    0.000    1.714    0.000    0.000 
#    0.000    0.000    0.000    0.000    0.000    0.000 
#
# Total GULP energy -155985.729433 kJ/mol
# GULP energy per Si atom -5570.918908 kJ/mol
# Density = 1.969681 g / cm^3
# Si number density = 19.741743 Si / 1000 Ang^3
#
#
#
# Elastic Constant Matrix: (Units=GPa)
#
#
# Indices 1 2 3 4 5 6 
#
# 1 43.0312 37.1454 16.8988 0.0000 0.0000 0.0000
# 2 37.1454 112.3934 52.9413 0.0000 0.0000 0.0000
# 3 16.8988 52.9413 99.4479 0.0000 0.0000 0.0000
# 4 0.0000 0.0000 0.0000 22.0316 0.0000 0.0000
# 5 0.0000 0.0000 0.0000 0.0000 20.5491 0.0000
# 6 0.0000 0.0000 0.0000 0.0000 0.0000 19.7311
#
#
#
# Elastic Compliance Matrix: (Units=1/GPa)
#
#
# Indices 1 2 3 4 5 6 
#
# 1 0.032520 -0.010871 0.000261 0.000000 0.000000 0.000000
# 2 -0.010871 0.015509 -0.006409 0.000000 0.000000 0.000000
# 3 0.000261 -0.006409 0.013423 0.000000 0.000000 0.000000
# 4 0.000000 0.000000 0.000000 0.045389 0.000000 0.000000
# 5 0.000000 0.000000 0.000000 0.000000 0.048664 0.000000
# 6 0.000000 0.000000 0.000000 0.000000 0.000000 0.050681
#
#
# Mechanical properties :
#
#
# Convention : Reuss Voigt Hill
#
# Bulk Modulus (GPa) = 36.47670 52.09374 44.28522
# Shear Modulus (GPa) = 20.05114 22.32149 21.18632
#
# Velocity S-wave (km/s) = 3.19042 3.36620 3.27949
# Velocity P-wave (km/s) = 5.66469 6.44618 6.06803
#
# Compressibility (1/GPa) = 0.02741476
#
# Stress axis : x y z
#
# Youngs Moduli (GPa) = 30.75009 64.47922 74.49903
#
# Poissons Ratio (x) = 0.70093 -0.01944
# Poissons Ratio (y) = 0.33427 0.47746
# Poissons Ratio (z) = -0.00803 0.41325
#
# Static dielectric constant tensor:
#      x y z
#    x 1.712040 0.000000 0.000000 
#    y 0.000000 1.743670 0.000000 
#    z 0.000000 0.000000 1.694680 
# 
# From -- ./inp_files/14234.got.cif
#   From: 2010.05.17/outbox.cif.g08.bks.cpg/sg42_8_cif.got.tgz:14234.got - 2010.06.03 19:03:34.
