data_PCOD9369926
_publ_section_title
;
Structure prediction by ZEFSAII (Michael W. Deem and Ramdas Pophale) SiO2 
 PCOD9369926
Probable space group: F M M 2
;
_chemical_formula_sum "Si O2"
_cell_formula_units_Z 64
_cell_length_a 17.683506
_cell_length_b 7.789470
_cell_length_c 24.926942
_cell_angle_alpha 90.000000
_cell_angle_beta 90.000000
_cell_angle_gamma 90.000000
_cell_volume 3433.565103
_symmetry_space_group_name_H-M "F M M 2"
_symmetry_group_IT_number 42
_symmetry_cell_setting 'orthorhombic'
loop_
_space_group_symop_operation_xyz
x,y,z
-x,-y,z
-x,y,z
x,-y,z
x,1/2+y,1/2+z
-x,1/2-y,1/2+z
-x,1/2+y,1/2+z
x,1/2-y,1/2+z
1/2+x,y,1/2+z
1/2-x,-y,1/2+z
1/2-x,y,1/2+z
1/2+x,-y,1/2+z
1/2+x,1/2+y,z
1/2-x,1/2-y,z
1/2-x,1/2+y,z
1/2+x,1/2-y,z
loop_
_atom_site_type_symbol
_atom_site_label
_atom_site_fract_x
_atom_site_fract_y
_atom_site_fract_z
Si Si1 0.907863 0.310484 0.308790
Si Si2 0.587349 0.793687 0.691356
Si Si3 0.090436 0.000000 0.506912
Si Si4 0.407542 0.000000 0.883551
Si Si5 0.662061 0.704826 0.078041
O O1 0.886247 0.500000 0.326692
O O2 0.883076 0.280164 0.247447
O O3 0.882459 0.165423 0.349793
O O4 0.000000 0.300722 0.306785
O O5 0.500000 0.737710 0.683838
O O6 0.633642 0.752177 0.638178
O O7 0.586817 0.000000 0.697426
O O8 0.116895 0.000000 0.445095
O O9 0.119031 0.829619 0.537178
O O10 0.000000 0.000000 0.507560
O O11 0.500000 0.000000 0.883782
O O12 0.649540 0.500000 0.069189
O O13 0.750000 0.750000 0.073957
#
# Coordination Sequence:
#
# PCOD9369926 Si02
#       5
#    16  16   8   8  16
#     4   9  16  27  49  81 114 148 184 233 295 346
#     4   9  17  31  54  85 120 149 185 241 293 348
#     4  11  24  40  63  90 119 157 203 254 293 346
#     4   9  18  34  51  78 116 147 187 240 290 338
#     4  11  23  40  60  87 119 163 200 243 301 360
#
# _framework density 18.639517999999999
#
# number of rings (size 3 to 8) (size 9 to 14) (size 15 to 20)
#    0.000    2.250    2.500    0.750    1.750    2.500 
#    0.000    2.500    0.000    1.500    0.000    0.000 
#    0.000    0.000    0.000    0.000    0.000    0.000 
#
# Total GULP energy -89275.715766 kJ/mol
# GULP energy per Si atom -5579.732235 kJ/mol
# Density = 1.859709 g / cm^3
# Si number density = 18.639518 Si / 1000 Ang^3
#
#
#
# Elastic Constant Matrix: (Units=GPa)
#
#
# Indices 1 2 3 4 5 6 
#
# 1 44.8971 26.0827 34.8764 0.0000 0.0000 0.0000
# 2 26.0827 149.7769 107.7103 0.0000 0.0000 0.0000
# 3 34.8764 107.7103 169.4137 0.0000 0.0000 0.0000
# 4 0.0000 0.0000 0.0000 13.4247 0.0000 0.0000
# 5 0.0000 0.0000 0.0000 0.0000 -9.3716 0.0000
# 6 0.0000 0.0000 0.0000 0.0000 0.0000 12.3295
#
#
#
# Elastic Compliance Matrix: (Units=1/GPa)
#
#
# Indices 1 2 3 4 5 6 
#
# 1 0.026646 -0.001281 -0.004671 0.000000 0.000000 0.000000
# 2 -0.001281 0.012362 -0.007596 0.000000 0.000000 0.000000
# 3 -0.004671 -0.007596 0.011694 0.000000 0.000000 0.000000
# 4 0.000000 0.000000 0.000000 0.074490 0.000000 0.000000
# 5 0.000000 0.000000 0.000000 0.000000 -0.106706 0.000000
# 6 0.000000 0.000000 0.000000 0.000000 0.000000 0.081106
#
#
# Mechanical properties :
#
#
# Convention : Reuss Voigt Hill
#
# Bulk Modulus (GPa) = 42.36270 77.93629 60.14949
# Shear Modulus (GPa) = 37.15909 16.30441 26.73175
#
# Velocity S-wave (km/s) = 4.46978 2.96078 3.79112
# Velocity P-wave (km/s) = 7.02960 7.32062 7.17658
#
# Compressibility (1/GPa) = 0.02360567
#
# Stress axis : x y z
#
# Youngs Moduli (GPa) = 37.52932 80.89149 85.51641
#
# Poissons Ratio (x) = 0.10364 0.39944
# Poissons Ratio (y) = 0.04808 0.64958
# Poissons Ratio (z) = 0.17530 0.61445
#
# Static dielectric constant tensor:
#      x y z
#    x 1.625410 0.000000 0.000000 
#    y 0.000000 1.657970 0.000000 
#    z 0.000000 0.000000 1.622880 
# 
# From -- ./inp_files/23163.got.cif
#   From: 2010.05.17/outbox.cif.g08.bks.cpg/sg42_12_cif.got.tgz:23163.got - 2010.06.03 19:03:34.
