data_PCOD9369340
_publ_section_title
;
Structure prediction by ZEFSAII (Michael W. Deem and Ramdas Pophale) SiO2 
 PCOD9369340
Probable space group: F M M 2
;
_chemical_formula_sum "Si O2"
_cell_formula_units_Z 80
_cell_length_a 7.595486
_cell_length_b 18.484602
_cell_length_c 29.888826
_cell_angle_alpha 90.000000
_cell_angle_beta 90.000000
_cell_angle_gamma 90.000000
_cell_volume 4196.377293
_symmetry_space_group_name_H-M "F M M 2"
_symmetry_group_IT_number 42
_symmetry_cell_setting 'orthorhombic'
loop_
_space_group_symop_operation_xyz
x,y,z
-x,-y,z
-x,y,z
x,-y,z
x,1/2+y,1/2+z
-x,1/2-y,1/2+z
-x,1/2+y,1/2+z
x,1/2-y,1/2+z
1/2+x,y,1/2+z
1/2-x,-y,1/2+z
1/2-x,y,1/2+z
1/2+x,-y,1/2+z
1/2+x,1/2+y,z
1/2-x,1/2-y,z
1/2-x,1/2+y,z
1/2+x,1/2-y,z
loop_
_atom_site_type_symbol
_atom_site_label
_atom_site_fract_x
_atom_site_fract_y
_atom_site_fract_z
Si Si1 0.210555 0.164790 0.669200
Si Si2 0.208302 0.665919 0.068055
Si Si3 0.000000 0.586285 0.832663
Si Si4 0.289342 0.335221 0.890997
Si Si5 0.207908 0.080936 0.979193
Si Si6 0.000000 0.914342 0.226546
O O1 0.250000 0.250000 0.675311
O O2 0.270731 0.147374 0.618147
O O3 0.328243 0.120426 0.703573
O O4 0.000000 0.152819 0.673469
O O5 0.250000 0.750000 0.059046
O O6 0.000000 0.659342 0.069714
O O7 0.270096 0.616231 0.027706
O O8 0.171790 0.622683 0.854878
O O9 0.000000 0.500000 0.841002
O O10 0.000000 0.599029 0.779572
O O11 0.500000 0.345956 0.884948
O O12 0.250000 0.250000 0.889167
O O13 0.230413 0.367050 0.939308
O O14 0.000000 0.074697 0.971803
O O15 0.284511 0.000000 0.976939
O O16 0.000000 0.000000 0.219028
#
# Coordination Sequence:
#
# PCOD9369340 Si02
#       6
#    16  16   8  16  16   8
#     4  10  21  41  66  95 127 168 215 266 318 377
#     4  10  21  35  58  88 121 162 211 255 306 367
#     4  11  26  46  68  95 127 169 213 262 329 388
#     4  11  23  43  67  96 129 163 214 267 318 376
#     4  10  22  37  57  88 125 169 209 250 312 374
#     4  11  26  44  66  97 129 167 211 262 333 388
#
# _framework density 19.064063000000001
#
# number of rings (size 3 to 8) (size 9 to 14) (size 15 to 20)
#    0.000    1.600    2.000    1.800    4.200    6.000 
#    0.000    4.000    0.000    0.000    0.000    0.000 
#    0.000    0.000    0.000    0.000    0.000    0.000 
#
# Total GULP energy -111691.251071 kJ/mol
# GULP energy per Si atom -5584.562554 kJ/mol
# Density = 1.902067 g / cm^3
# Si number density = 19.064063 Si / 1000 Ang^3
#
#
#
# Elastic Constant Matrix: (Units=GPa)
#
#
# Indices 1 2 3 4 5 6 
#
# 1 114.1011 52.6364 63.1564 0.0000 0.0000 0.0000
# 2 52.6364 138.9014 112.5848 0.0000 0.0000 0.0000
# 3 63.1564 112.5848 155.7978 0.0000 0.0000 0.0000
# 4 0.0000 0.0000 0.0000 37.1989 0.0000 0.0000
# 5 0.0000 0.0000 0.0000 0.0000 36.4852 0.0000
# 6 0.0000 0.0000 0.0000 0.0000 0.0000 4.6330
#
#
#
# Elastic Compliance Matrix: (Units=1/GPa)
#
#
# Indices 1 2 3 4 5 6 
#
# 1 0.011409 -0.001387 -0.003622 0.000000 0.000000 0.000000
# 2 -0.001387 0.017547 -0.012117 0.000000 0.000000 0.000000
# 3 -0.003622 -0.012117 0.016644 0.000000 0.000000 0.000000
# 4 0.000000 0.000000 0.000000 0.026883 0.000000 0.000000
# 5 0.000000 0.000000 0.000000 0.000000 0.027408 0.000000
# 6 0.000000 0.000000 0.000000 0.000000 0.000000 0.215845
#
#
# Mechanical properties :
#
#
# Convention : Reuss Voigt Hill
#
# Bulk Modulus (GPa) = 88.14517 96.17281 92.15899
# Shear Modulus (GPa) = 14.13340 27.69158 20.91249
#
# Velocity S-wave (km/s) = 2.72575 3.81537 3.31563
# Velocity P-wave (km/s) = 7.49953 8.36458 7.94384
#
# Compressibility (1/GPa) = 0.01134492
#
# Stress axis : x y z
#
# Youngs Moduli (GPa) = 87.64824 56.99052 60.08343
#
# Poissons Ratio (x) = 0.07907 0.21765
# Poissons Ratio (y) = 0.12160 0.72806
# Poissons Ratio (z) = 0.31750 0.69058
#
# Static dielectric constant tensor:
#      x y z
#    x 1.687010 0.000000 0.000000 
#    y 0.000000 1.638290 0.000000 
#    z 0.000000 0.000000 1.665590 
# 
# From -- ./inp_files/31290.got.cif
#   From: 2010.05.17/outbox.cif.g08.bks.cpg/sg42_16_cif.got.tgz:31290.got - 2010.06.03 19:03:34.
