data_PCOD9369180
_publ_section_title
;
Structure prediction by ZEFSAII (Michael W. Deem and Ramdas Pophale) SiO2 
 PCOD9369180
Probable space group: F M M 2
;
_chemical_formula_sum "Si O2"
_cell_formula_units_Z 112
_cell_length_a 16.069253
_cell_length_b 25.426309
_cell_length_c 13.970561
_cell_angle_alpha 90.000000
_cell_angle_beta 90.000000
_cell_angle_gamma 90.000000
_cell_volume 5708.116851
_symmetry_space_group_name_H-M "F M M 2"
_symmetry_group_IT_number 42
_symmetry_cell_setting 'orthorhombic'
loop_
_space_group_symop_operation_xyz
x,y,z
-x,-y,z
-x,y,z
x,-y,z
x,1/2+y,1/2+z
-x,1/2-y,1/2+z
-x,1/2+y,1/2+z
x,1/2-y,1/2+z
1/2+x,y,1/2+z
1/2-x,-y,1/2+z
1/2-x,y,1/2+z
1/2+x,-y,1/2+z
1/2+x,1/2+y,z
1/2-x,1/2-y,z
1/2-x,1/2+y,z
1/2+x,1/2-y,z
loop_
_atom_site_type_symbol
_atom_site_label
_atom_site_fract_x
_atom_site_fract_y
_atom_site_fract_z
Si Si1 0.410105 0.333359 0.474450
Si Si2 0.349055 0.259186 0.843043
Si Si3 0.357933 0.058727 0.893555
Si Si4 0.194028 0.295564 0.148441
Si Si5 0.241554 0.101301 0.735811
Si Si6 0.900010 0.376406 0.390026
Si Si7 0.797634 0.942010 0.036168
O O1 0.500000 0.320662 0.514769
O O2 0.390402 0.291251 0.391632
O O3 0.408526 0.392443 0.435032
O O4 0.347695 0.326080 0.562196
O O5 0.250000 0.250000 0.854693
O O6 0.363905 0.268737 0.729364
O O7 0.378819 0.314048 0.890340
O O8 0.318250 0.078538 0.794944
O O9 0.394914 0.000000 0.887753
O O10 0.277126 0.055364 0.960787
O O11 0.250000 0.250000 0.105590
O O12 0.247594 0.337242 0.209424
O O13 0.156646 0.099519 0.801203
O O14 0.251355 0.072765 0.634525
O O15 0.863828 0.402374 0.487508
O O16 0.000000 0.384040 0.378654
O O17 0.836141 0.000000 0.045583
#
# Coordination Sequence:
#
# PCOD9369180 Si02
#       7
#    16  16  16  16  16  16  16
#     4  12  24  37  58  90 126 162 202 256 321 378
#     4  10  21  41  64  87 123 167 209 254 311 390
#     4  10  21  40  62  85 117 163 214 259 307 379
#     4  10  21  36  62  90 119 157 205 252 310 375
#     4  10  20  38  64  92 118 165 213 256 310 385
#     4  10  22  39  63  96 130 163 208 276 337 377
#     4  10  20  37  61  89 121 162 212 256 308 385
#
# _framework density 19.621182000000001
#
# number of rings (size 3 to 8) (size 9 to 14) (size 15 to 20)
#    0.000    1.714    1.429    4.714    2.000    4.000 
#    0.000    0.714    0.000    1.714    0.000    0.000 
#    0.000    0.000    0.000    0.000    0.000    0.000 
#
# Total GULP energy -155952.758948 kJ/mol
# GULP energy per Si atom -5569.741391 kJ/mol
# Density = 1.957652 g / cm^3
# Si number density = 19.621182 Si / 1000 Ang^3
#
#
#
# Elastic Constant Matrix: (Units=GPa)
#
#
# Indices 1 2 3 4 5 6 
#
# 1 72.8311 39.4180 14.5404 0.0000 0.0000 0.0000
# 2 39.4180 141.0419 51.9937 0.0000 0.0000 0.0000
# 3 14.5404 51.9937 88.8714 0.0000 0.0000 0.0000
# 4 0.0000 0.0000 0.0000 20.1768 0.0000 0.0000
# 5 0.0000 0.0000 0.0000 0.0000 -1.3387 0.0000
# 6 0.0000 0.0000 0.0000 0.0000 0.0000 0.2166
#
#
#
# Elastic Compliance Matrix: (Units=1/GPa)
#
#
# Indices 1 2 3 4 5 6 
#
# 1 0.016177 -0.004520 -0.000002 0.000000 0.000000 0.000000
# 2 -0.004520 0.010303 -0.005288 0.000000 0.000000 0.000000
# 3 -0.000002 -0.005288 0.014346 0.000000 0.000000 0.000000
# 4 0.000000 0.000000 0.000000 0.049562 0.000000 0.000000
# 5 0.000000 0.000000 0.000000 0.000000 -0.746984 0.000000
# 6 0.000000 0.000000 0.000000 0.000000 0.000000 4.617860
#
#
# Mechanical properties :
#
#
# Convention : Reuss Voigt Hill
#
# Bulk Modulus (GPa) = 47.15801 57.18319 52.17060
# Shear Modulus (GPa) = 1.25378 16.93042 9.09210
#
# Velocity S-wave (km/s) = 0.80024 2.94064 2.15497
# Velocity P-wave (km/s) = 4.99402 6.38253 5.73049
#
# Compressibility (1/GPa) = 0.02120531
#
# Stress axis : x y z
#
# Youngs Moduli (GPa) = 61.81467 97.06077 69.70446
#
# Poissons Ratio (x) = 0.43876 0.00015
# Poissons Ratio (y) = 0.27943 0.36860
# Poissons Ratio (z) = 0.00013 0.51326
#
# Static dielectric constant tensor:
#      x y z
#    x 1.665510 0.000000 0.000000 
#    y 0.000000 1.733390 0.000000 
#    z 0.000000 0.000000 1.720520 
# 
# From -- ./inp_files/14240.got.cif
#   From: 2010.05.17/outbox.cif.g08.bks.cpg/sg42_8_cif.got.tgz:14240.got - 2010.06.03 19:03:34.
