data_PCOD9369688
_publ_section_title
;
Structure prediction by ZEFSAII (Michael W. Deem and Ramdas Pophale) SiO2 
 PCOD9369688
Probable space group: F M M 2
;
_chemical_formula_sum "Si O2"
_cell_formula_units_Z 96
_cell_length_a 14.170049
_cell_length_b 27.868235
_cell_length_c 13.007444
_cell_angle_alpha 90.000000
_cell_angle_beta 90.000000
_cell_angle_gamma 90.000000
_cell_volume 5136.564914
_symmetry_space_group_name_H-M "F M M 2"
_symmetry_group_IT_number 42
_symmetry_cell_setting 'orthorhombic'
loop_
_space_group_symop_operation_xyz
x,y,z
-x,-y,z
-x,y,z
x,-y,z
x,1/2+y,1/2+z
-x,1/2-y,1/2+z
-x,1/2+y,1/2+z
x,1/2-y,1/2+z
1/2+x,y,1/2+z
1/2-x,-y,1/2+z
1/2-x,y,1/2+z
1/2+x,-y,1/2+z
1/2+x,1/2+y,z
1/2-x,1/2-y,z
1/2-x,1/2+y,z
1/2+x,1/2-y,z
loop_
_atom_site_type_symbol
_atom_site_label
_atom_site_fract_x
_atom_site_fract_y
_atom_site_fract_z
Si Si1 0.611823 0.555818 0.186180
Si Si2 0.791263 0.199469 0.726949
Si Si3 0.215063 0.615547 0.850627
Si Si4 0.386747 0.171949 0.022966
Si Si5 0.887594 0.275022 0.439785
Si Si6 0.387293 0.879238 0.487905
O O1 0.500000 0.561976 0.207248
O O2 0.629113 0.500000 0.163440
O O3 0.670244 0.573533 0.284183
O O4 0.633545 0.588631 0.087005
O O5 0.750000 0.250000 0.688674
O O6 0.717567 0.162115 0.775834
O O7 0.848723 0.172589 0.638624
O O8 0.855353 0.214427 0.824263
O O9 0.155391 0.630802 0.950597
O O10 0.320630 0.605971 0.892887
O O11 0.500000 0.170026 0.021775
O O12 0.353151 0.223411 0.976737
O O13 0.862505 0.322731 0.504834
O O14 0.000000 0.272013 0.443258
O O15 0.500000 0.882346 0.466408
#
# Coordination Sequence:
#
# PCOD9369688 Si02
#       6
#    16  16  16  16  16  16
#     4  10  22  41  63  88 115 148 197 253 300 343
#     4  11  22  33  53  77 116 152 195 236 281 343
#     4  11  22  38  59  86 116 156 192 245 288 354
#     4  11  23  35  52  80 115 157 199 235 285 347
#     4   9  19  35  52  77 112 153 195 235 282 340
#     4   9  20  37  59  85 115 151 192 238 294 350
#
# _framework density 18.689533000000001
#
# number of rings (size 3 to 8) (size 9 to 14) (size 15 to 20)
#    0.000    1.833    1.667    2.000    7.000    1.333 
#    0.000    0.000    0.000    0.000    0.000    0.000 
#    0.000    0.000    0.000    0.000    0.000    0.000 
#
# Total GULP energy -133974.207640 kJ/mol
# GULP energy per Si atom -5582.258652 kJ/mol
# Density = 1.864699 g / cm^3
# Si number density = 18.689533 Si / 1000 Ang^3
#
#
#
# Elastic Constant Matrix: (Units=GPa)
#
#
# Indices 1 2 3 4 5 6 
#
# 1 64.1528 30.0185 33.5064 0.0000 0.0000 0.0000
# 2 30.0185 67.5355 33.4675 0.0000 0.0000 0.0000
# 3 33.5064 33.4675 91.3938 0.0000 0.0000 0.0000
# 4 0.0000 0.0000 0.0000 26.9401 0.0000 0.0000
# 5 0.0000 0.0000 0.0000 0.0000 32.9045 0.0000
# 6 0.0000 0.0000 0.0000 0.0000 0.0000 22.8254
#
#
#
# Elastic Compliance Matrix: (Units=1/GPa)
#
#
# Indices 1 2 3 4 5 6 
#
# 1 0.021659 -0.006954 -0.005394 0.000000 0.000000 0.000000
# 2 -0.006954 0.020322 -0.004892 0.000000 0.000000 0.000000
# 3 -0.005394 -0.004892 0.014711 0.000000 0.000000 0.000000
# 4 0.000000 0.000000 0.000000 0.037119 0.000000 0.000000
# 5 0.000000 0.000000 0.000000 0.000000 0.030391 0.000000
# 6 0.000000 0.000000 0.000000 0.000000 0.000000 0.043811
#
#
# Mechanical properties :
#
#
# Convention : Reuss Voigt Hill
#
# Bulk Modulus (GPa) = 45.02232 46.34077 45.68154
# Shear Modulus (GPa) = 23.82108 24.93998 24.38053
#
# Velocity S-wave (km/s) = 3.57398 3.65696 3.61571
# Velocity P-wave (km/s) = 6.41662 6.53299 6.47507
#
# Compressibility (1/GPa) = 0.02221121
#
# Stress axis : x y z
#
# Youngs Moduli (GPa) = 46.17022 49.20667 67.97752
#
# Poissons Ratio (x) = 0.34219 0.36667
# Poissons Ratio (y) = 0.32107 0.33257
# Poissons Ratio (z) = 0.24904 0.24074
#
# Static dielectric constant tensor:
#      x y z
#    x 1.667880 0.000000 0.000000 
#    y 0.000000 1.645070 0.000000 
#    z 0.000000 0.000000 1.634240 
# 
# From -- ./inp_files/8802.got.cif
#   From: 2010.05.17/outbox.cif.g08.bks.cpg/sg42_5_cif.got.tgz:8802.got - 2010.06.03 19:03:34.
