data_PCOD9369273
_publ_section_title
;
Structure prediction by ZEFSAII (Michael W. Deem and Ramdas Pophale) SiO2 
 PCOD9369273
Probable space group: F M M 2
;
_chemical_formula_sum "Si O2"
_cell_formula_units_Z 80
_cell_length_a 14.943184
_cell_length_b 23.011079
_cell_length_c 9.785748
_cell_angle_alpha 90.000000
_cell_angle_beta 90.000000
_cell_angle_gamma 90.000000
_cell_volume 3364.915442
_symmetry_space_group_name_H-M "F M M 2"
_symmetry_group_IT_number 42
_symmetry_cell_setting 'orthorhombic'
loop_
_space_group_symop_operation_xyz
x,y,z
-x,-y,z
-x,y,z
x,-y,z
x,1/2+y,1/2+z
-x,1/2-y,1/2+z
-x,1/2+y,1/2+z
x,1/2-y,1/2+z
1/2+x,y,1/2+z
1/2-x,-y,1/2+z
1/2-x,y,1/2+z
1/2+x,-y,1/2+z
1/2+x,1/2+y,z
1/2-x,1/2-y,z
1/2-x,1/2+y,z
1/2+x,1/2-y,z
loop_
_atom_site_type_symbol
_atom_site_label
_atom_site_fract_x
_atom_site_fract_y
_atom_site_fract_z
Si Si1 0.000000 0.063824 0.893970
Si Si2 0.822358 0.377248 0.162876
Si Si3 0.000000 0.177090 0.007730
Si Si4 0.151446 0.729056 0.968881
Si Si5 0.000000 0.341636 0.815727
Si Si6 0.800281 0.434513 0.440573
Si Si7 0.000000 0.067076 0.553614
O O1 0.000000 0.134734 0.876886
O O2 0.905284 0.060829 0.970290
O O3 0.000000 0.000000 0.817171
O O4 0.791499 0.389075 0.316173
O O5 0.836983 0.313161 0.101486
O O6 0.752141 0.409221 0.066324
O O7 0.914159 0.413210 0.140804
O O8 0.911642 0.216663 0.003699
O O9 0.000000 0.147286 0.155846
O O10 0.250000 0.750000 0.925227
O O11 0.089741 0.693809 0.860520
O O12 0.000000 0.397233 0.913433
O O13 0.768938 0.500000 0.403191
O O14 0.000000 0.000000 0.521868
#
# Coordination Sequence:
#
# PCOD9369273 Si02
#       7
#     8  16   8  16   8  16   8
#     4  10  24  43  65  91 124 164 208 255 317 389
#     4  11  24  41  64  96 127 165 216 261 311 378
#     4  11  23  42  64  92 125 164 211 267 318 374
#     4  10  23  41  61  88 124 168 210 257 315 379
#     4   9  23  40  60  92 125 158 213 263 308 370
#     4  11  23  42  66  95 129 168 212 263 317 376
#     4  10  20  39  63  89 124 166 204 251 313 379
#
# _framework density 23.774743000000001
#
# number of rings (size 3 to 8) (size 9 to 14) (size 15 to 20)
#    0.000    1.600    0.000    4.200    0.000   13.200 
#    0.000    2.000    0.000    0.000    0.000    0.000 
#    0.000    0.000    0.000    0.000    0.000    0.000 
#
# Total GULP energy -111788.954639 kJ/mol
# GULP energy per Si atom -5589.447732 kJ/mol
# Density = 2.372063 g / cm^3
# Si number density = 23.774743 Si / 1000 Ang^3
#
#
#
# Elastic Constant Matrix: (Units=GPa)
#
#
# Indices 1 2 3 4 5 6 
#
# 1 127.5621 19.7225 39.5756 0.0000 0.0000 0.0000
# 2 19.7225 143.4208 36.8182 0.0000 0.0000 0.0000
# 3 39.5756 36.8182 126.7423 0.0000 0.0000 0.0000
# 4 0.0000 0.0000 0.0000 1.6962 0.0000 0.0000
# 5 0.0000 0.0000 0.0000 0.0000 22.7933 0.0000
# 6 0.0000 0.0000 0.0000 0.0000 0.0000 -44.4854
#
#
#
# Elastic Compliance Matrix: (Units=1/GPa)
#
#
# Indices 1 2 3 4 5 6 
#
# 1 0.008719 -0.000540 -0.002565 0.000000 0.000000 0.000000
# 2 -0.000540 0.007568 -0.002030 0.000000 0.000000 0.000000
# 3 -0.002565 -0.002030 0.009281 0.000000 0.000000 0.000000
# 4 0.000000 0.000000 0.000000 0.589551 0.000000 0.000000
# 5 0.000000 0.000000 0.000000 0.000000 0.043872 0.000000
# 6 0.000000 0.000000 0.000000 0.000000 0.000000 -0.022479
#
#
# Mechanical properties :
#
#
# Convention : Reuss Voigt Hill
#
# Bulk Modulus (GPa) = 65.37550 65.55089 65.46320
# Shear Modulus (GPa) = 7.67011 16.10809 11.88910
#
# Velocity S-wave (km/s) = 1.79810 2.60576 2.23866
# Velocity P-wave (km/s) = 5.64522 6.05680 5.85463
#
# Compressibility (1/GPa) = 0.01529625
#
# Stress axis : x y z
#
# Youngs Moduli (GPa) = 114.69471 132.13786 107.75013
#
# Poissons Ratio (x) = 0.07140 0.27643
# Poissons Ratio (y) = 0.06198 0.21870
# Poissons Ratio (z) = 0.29425 0.26820
#
# Static dielectric constant tensor:
#      x y z
#    x 1.900000 0.000000 0.000000 
#    y 0.000000 1.967170 0.000000 
#    z 0.000000 0.000000 2.007860 
# 
# From -- ./inp_files/7814.got.cif
#   From: 2010.05.17/outbox.cif.g08.bks.cpg/sg42_4_cif.got.tgz:7814.got - 2010.06.03 19:03:34.
