data_PCOD9369836
_publ_section_title
;
Structure prediction by ZEFSAII (Michael W. Deem and Ramdas Pophale) SiO2 
 PCOD9369836
Probable space group: F M M 2
;
_chemical_formula_sum "Si O2"
_cell_formula_units_Z 96
_cell_length_a 16.666778
_cell_length_b 14.278401
_cell_length_c 24.522447
_cell_angle_alpha 90.000000
_cell_angle_beta 90.000000
_cell_angle_gamma 90.000000
_cell_volume 5835.727845
_symmetry_space_group_name_H-M "F M M 2"
_symmetry_group_IT_number 42
_symmetry_cell_setting 'orthorhombic'
loop_
_space_group_symop_operation_xyz
x,y,z
-x,-y,z
-x,y,z
x,-y,z
x,1/2+y,1/2+z
-x,1/2-y,1/2+z
-x,1/2+y,1/2+z
x,1/2-y,1/2+z
1/2+x,y,1/2+z
1/2-x,-y,1/2+z
1/2-x,y,1/2+z
1/2+x,-y,1/2+z
1/2+x,1/2+y,z
1/2-x,1/2-y,z
1/2-x,1/2+y,z
1/2+x,1/2-y,z
loop_
_atom_site_type_symbol
_atom_site_label
_atom_site_fract_x
_atom_site_fract_y
_atom_site_fract_z
Si Si1 0.597823 0.283209 0.991910
Si Si2 0.095860 0.895450 0.098625
Si Si3 0.157364 0.775867 0.661201
Si Si4 0.597305 0.607538 0.558615
Si Si5 0.402337 0.607702 0.886780
Si Si6 0.596799 0.109040 0.262455
O O1 0.500000 0.286136 0.991183
O O2 0.625822 0.322552 0.934019
O O3 0.625044 0.350508 0.041538
O O4 0.620219 0.178255 0.009812
O O5 0.113408 0.820892 0.145708
O O6 0.000000 0.901750 0.093643
O O7 0.128110 0.000000 0.107571
O O8 0.250000 0.750000 0.659560
O O9 0.133978 0.849247 0.613631
O O10 0.133050 0.821795 0.718146
O O11 0.500000 0.611525 0.564252
O O12 0.620330 0.500000 0.550268
O O13 0.500000 0.609131 0.887018
O O14 0.379251 0.500000 0.899068
O O15 0.378237 0.630211 0.824797
O O16 0.500000 0.115213 0.259560
O O17 0.617685 0.000000 0.251089
#
# Coordination Sequence:
#
# PCOD9369836 Si02
#       6
#    16  16  16  16  16  16
#     4   8  13  23  42  69  95 114 137 176 225 269
#     4   9  17  29  45  64  87 115 145 178 219 269
#     4  11  21  30  43  64  90 121 151 186 227 266
#     4   9  17  30  49  71  94 120 149 182 222 268
#     4   8  13  22  41  70  96 115 141 182 227 265
#     4   9  17  30  49  70  90 115 150 191 230 265
#
# _framework density 16.450389999999999
#
# number of rings (size 3 to 8) (size 9 to 14) (size 15 to 20)
#    0.000    3.000    0.000    4.500    0.000    4.667 
#    0.000    0.000    0.000    5.000    0.000    9.333 
#    0.000    0.000    0.000    0.000    0.000    0.000 
#
# Total GULP energy -133652.676908 kJ/mol
# GULP energy per Si atom -5568.861538 kJ/mol
# Density = 1.641295 g / cm^3
# Si number density = 16.450390 Si / 1000 Ang^3
#
#
#
# Elastic Constant Matrix: (Units=GPa)
#
#
# Indices 1 2 3 4 5 6 
#
# 1 13.0968 22.3699 15.4427 0.0000 0.0000 0.0000
# 2 22.3699 164.3240 98.3990 0.0000 0.0000 0.0000
# 3 15.4427 98.3990 129.4060 0.0000 0.0000 0.0000
# 4 0.0000 0.0000 0.0000 8.3986 0.0000 0.0000
# 5 0.0000 0.0000 0.0000 0.0000 0.1953 0.0000
# 6 0.0000 0.0000 0.0000 0.0000 0.0000 5.1236
#
#
#
# Elastic Compliance Matrix: (Units=1/GPa)
#
#
# Indices 1 2 3 4 5 6 
#
# 1 0.100080 -0.011883 -0.002907 0.000000 0.000000 0.000000
# 2 -0.011883 0.012584 -0.008151 0.000000 0.000000 0.000000
# 3 -0.002907 -0.008151 0.014272 0.000000 0.000000 0.000000
# 4 0.000000 0.000000 0.000000 0.119067 0.000000 0.000000
# 5 0.000000 0.000000 0.000000 0.000000 5.121261 0.000000
# 6 0.000000 0.000000 0.000000 0.000000 0.000000 0.195175
#
#
# Mechanical properties :
#
#
# Convention : Reuss Voigt Hill
#
# Bulk Modulus (GPa) = 12.33748 64.36111 38.34930
# Shear Modulus (GPa) = 0.88726 14.11786 7.50256
#
# Velocity S-wave (km/s) = 0.73520 2.93270 2.13790
# Velocity P-wave (km/s) = 2.86998 7.11877 5.42742
#
# Compressibility (1/GPa) = 0.08105382
#
# Stress axis : x y z
#
# Youngs Moduli (GPa) = 9.99204 79.46662 70.06663
#
# Poissons Ratio (x) = 0.94433 0.20368
# Poissons Ratio (y) = 0.11874 0.57108
# Poissons Ratio (z) = 0.02905 0.64770
#
# Static dielectric constant tensor:
#      x y z
#    x 1.487310 0.000000 0.000000 
#    y 0.000000 1.594120 0.000000 
#    z 0.000000 0.000000 1.548850 
# 
# From -- ./inp_files/25113.got.cif
#   From: 2010.05.17/outbox.cif.g08.bks.cpg/sg42_13_cif.got.tgz:25113.got - 2010.06.03 19:03:34.
