data_PCOD9369763
_publ_section_title
;
Structure prediction by ZEFSAII (Michael W. Deem and Ramdas Pophale) SiO2 
 PCOD9369763
Probable space group: F M M 2
;
_chemical_formula_sum "Si O2"
_cell_formula_units_Z 64
_cell_length_a 26.606823
_cell_length_b 12.135624
_cell_length_c 7.182727
_cell_angle_alpha 90.000000
_cell_angle_beta 90.000000
_cell_angle_gamma 90.000000
_cell_volume 2319.233592
_symmetry_space_group_name_H-M "F M M 2"
_symmetry_group_IT_number 42
_symmetry_cell_setting 'orthorhombic'
loop_
_space_group_symop_operation_xyz
x,y,z
-x,-y,z
-x,y,z
x,-y,z
x,1/2+y,1/2+z
-x,1/2-y,1/2+z
-x,1/2+y,1/2+z
x,1/2-y,1/2+z
1/2+x,y,1/2+z
1/2-x,-y,1/2+z
1/2-x,y,1/2+z
1/2+x,-y,1/2+z
1/2+x,1/2+y,z
1/2-x,1/2-y,z
1/2-x,1/2+y,z
1/2+x,1/2-y,z
loop_
_atom_site_type_symbol
_atom_site_label
_atom_site_fract_x
_atom_site_fract_y
_atom_site_fract_z
Si Si1 0.587663 0.123071 0.549300
Si Si2 0.682461 0.849533 0.813233
Si Si3 0.704040 0.112236 0.232880
Si Si4 0.941018 0.122715 0.641602
O O1 0.634988 0.123662 0.688196
O O2 0.591971 0.117607 0.327025
O O3 0.566690 0.251273 0.566163
O O4 0.562560 0.000000 0.590484
O O5 0.681802 0.888696 0.025559
O O6 0.687326 0.719355 0.836998
O O7 0.735278 0.882014 0.719613
O O8 0.691918 0.000000 0.334354
O O9 0.000000 0.121119 0.692643
O O10 0.932867 0.000000 0.545352
#
# Coordination Sequence:
#
# PCOD9369763 Si02
#       4
#    16  16  16  16
#     4  11  23  41  65  93 126 161 204 255 306 365
#     4  11  23  38  60  90 119 161 210 249 298 355
#     4  11  22  38  57  81 121 163 205 253 298 348
#     4  10  23  42  64  92 124 159 200 250 311 375
#
# _framework density 27.595323
#
# number of rings (size 3 to 8) (size 9 to 14) (size 15 to 20)
#    0.000    1.250    0.000    7.500    0.000    3.500 
#    0.000    5.000    0.000    0.000    0.000    0.000 
#    0.000    0.000    0.000    0.000    0.000    0.000 
#
# Total GULP energy -89357.174031 kJ/mol
# GULP energy per Si atom -5584.823377 kJ/mol
# Density = 2.753252 g / cm^3
# Si number density = 27.595323 Si / 1000 Ang^3
#
#
#
# Elastic Constant Matrix: (Units=GPa)
#
#
# Indices 1 2 3 4 5 6 
#
# 1 97.1222 39.4873 -9.2969 0.0000 0.0000 0.0000
# 2 39.4873 369.6906 31.9877 0.0000 0.0000 0.0000
# 3 -9.2969 31.9877 93.7146 0.0000 0.0000 0.0000
# 4 0.0000 0.0000 0.0000 51.4632 0.0000 0.0000
# 5 0.0000 0.0000 0.0000 0.0000 12.2040 0.0000
# 6 0.0000 0.0000 0.0000 0.0000 0.0000 33.3520
#
#
#
# Elastic Compliance Matrix: (Units=1/GPa)
#
#
# Indices 1 2 3 4 5 6 
#
# 1 0.010974 -0.001305 0.001534 0.000000 0.000000 0.000000
# 2 -0.001305 0.002942 -0.001134 0.000000 0.000000 0.000000
# 3 0.001534 -0.001134 0.011210 0.000000 0.000000 0.000000
# 4 0.000000 0.000000 0.000000 0.019431 0.000000 0.000000
# 5 0.000000 0.000000 0.000000 0.000000 0.081940 0.000000
# 6 0.000000 0.000000 0.000000 0.000000 0.000000 0.029983
#
#
# Mechanical properties :
#
#
# Convention : Reuss Voigt Hill
#
# Bulk Modulus (GPa) = 42.88766 76.09819 59.49292
# Shear Modulus (GPa) = 30.10918 52.62712 41.36815
#
# Velocity S-wave (km/s) = 3.30676 4.37178 3.87602
# Velocity P-wave (km/s) = 5.49135 7.28832 6.45269
#
# Compressibility (1/GPa) = 0.02331673
#
# Stress axis : x y z
#
# Youngs Moduli (GPa) = 91.12729 339.85400 89.20703
#
# Poissons Ratio (x) = 0.44346 -0.13685
# Poissons Ratio (y) = 0.11891 0.10114
# Poissons Ratio (z) = -0.13979 0.38532
#
# Static dielectric constant tensor:
#      x y z
#    x 2.230290 0.000000 0.000000 
#    y 0.000000 2.189570 0.000000 
#    z 0.000000 0.000000 2.036510 
# 
# From -- ./inp_files/5435.got.cif
#   From: 2010.05.17/outbox.cif.g08.bks.cpg/sg42_3_cif.got.tgz:5435.got - 2010.06.03 19:03:34.
