data_PCOD9369172
_publ_section_title
;
Structure prediction by ZEFSAII (Michael W. Deem and Ramdas Pophale) SiO2 
 PCOD9369172
Probable space group: F M M 2
;
_chemical_formula_sum "Si O2"
_cell_formula_units_Z 112
_cell_length_a 16.026513
_cell_length_b 18.398108
_cell_length_c 19.804478
_cell_angle_alpha 90.000000
_cell_angle_beta 90.000000
_cell_angle_gamma 90.000000
_cell_volume 5839.499209
_symmetry_space_group_name_H-M "F M M 2"
_symmetry_group_IT_number 42
_symmetry_cell_setting 'orthorhombic'
loop_
_space_group_symop_operation_xyz
x,y,z
-x,-y,z
-x,y,z
x,-y,z
x,1/2+y,1/2+z
-x,1/2-y,1/2+z
-x,1/2+y,1/2+z
x,1/2-y,1/2+z
1/2+x,y,1/2+z
1/2-x,-y,1/2+z
1/2-x,y,1/2+z
1/2+x,-y,1/2+z
1/2+x,1/2+y,z
1/2-x,1/2-y,z
1/2-x,1/2+y,z
1/2+x,1/2-y,z
loop_
_atom_site_type_symbol
_atom_site_label
_atom_site_fract_x
_atom_site_fract_y
_atom_site_fract_z
Si Si1 0.600919 0.420079 0.490340
Si Si2 0.758698 0.583264 0.717217
Si Si3 0.402308 0.178310 0.653773
Si Si4 0.090694 0.670652 0.233367
Si Si5 0.298623 0.631235 0.365748
Si Si6 0.595410 0.264267 0.528003
Si Si7 0.865798 0.289725 0.380463
O O1 0.500000 0.415184 0.483849
O O2 0.620654 0.500000 0.518912
O O3 0.643414 0.412002 0.417081
O O4 0.630624 0.346216 0.527307
O O5 0.748182 0.500000 0.697840
O O6 0.836706 0.619770 0.679710
O O7 0.671498 0.626364 0.709653
O O8 0.781153 0.590397 0.796685
O O9 0.500000 0.153359 0.649702
O O10 0.401830 0.248324 0.703139
O O11 0.369173 0.208740 0.582029
O O12 0.091299 0.674903 0.315277
O O13 0.000000 0.641190 0.211401
O O14 0.210715 0.656588 0.397462
O O15 0.338486 0.710579 0.352184
O O16 0.500000 0.272594 0.550691
O O17 0.595447 0.231871 0.452398
#
# Coordination Sequence:
#
# PCOD9369172 Si02
#       7
#    16  16  16  16  16  16  16
#     4   9  17  30  49  77 115 149 179 224 284 347
#     4  11  22  37  57  84 120 153 186 240 297 350
#     4  10  21  38  60  84 114 153 195 242 290 343
#     4  10  20  37  61  84 111 153 198 242 289 340
#     4   9  17  30  50  81 113 145 184 229 285 339
#     4   9  18  33  55  83 109 142 189 235 281 338
#     4   9  16  31  56  83 109 142 194 243 280 331
#
# _framework density 19.179725999999999
#
# number of rings (size 3 to 8) (size 9 to 14) (size 15 to 20)
#    0.000    2.429    1.429    1.286    0.000    1.714 
#   10.286    0.714    0.000    6.000    0.000    4.000 
#    0.000    0.000    0.000    0.000    0.000    0.000 
#
# Total GULP energy -155909.296812 kJ/mol
# GULP energy per Si atom -5568.189172 kJ/mol
# Density = 1.913607 g / cm^3
# Si number density = 19.179726 Si / 1000 Ang^3
#
#
#
# Elastic Constant Matrix: (Units=GPa)
#
#
# Indices 1 2 3 4 5 6 
#
# 1 88.5399 42.1598 12.6632 0.0000 0.0000 0.0000
# 2 42.1598 85.0712 14.4161 0.0000 0.0000 0.0000
# 3 12.6632 14.4161 49.4613 0.0000 0.0000 0.0000
# 4 0.0000 0.0000 0.0000 7.3038 0.0000 0.0000
# 5 0.0000 0.0000 0.0000 0.0000 13.4984 0.0000
# 6 0.0000 0.0000 0.0000 0.0000 0.0000 13.4175
#
#
#
# Elastic Compliance Matrix: (Units=1/GPa)
#
#
# Indices 1 2 3 4 5 6 
#
# 1 0.014926 -0.007100 -0.001752 0.000000 0.000000 0.000000
# 2 -0.007100 0.015743 -0.002771 0.000000 0.000000 0.000000
# 3 -0.001752 -0.002771 0.021474 0.000000 0.000000 0.000000
# 4 0.000000 0.000000 0.000000 0.136914 0.000000 0.000000
# 5 0.000000 0.000000 0.000000 0.000000 0.074083 0.000000
# 6 0.000000 0.000000 0.000000 0.000000 0.000000 0.074529
#
#
# Mechanical properties :
#
#
# Convention : Reuss Voigt Hill
#
# Bulk Modulus (GPa) = 34.60533 40.17230 37.38881
# Shear Modulus (GPa) = 13.49357 17.09952 15.29654
#
# Velocity S-wave (km/s) = 2.65530 2.98911 2.82713
# Velocity P-wave (km/s) = 5.24239 5.73617 5.49483
#
# Compressibility (1/GPa) = 0.02889729
#
# Stress axis : x y z
#
# Youngs Moduli (GPa) = 66.99850 63.52013 46.56806
#
# Poissons Ratio (x) = 0.45100 0.08158
# Poissons Ratio (y) = 0.47569 0.12903
# Poissons Ratio (z) = 0.11738 0.17600
#
# Static dielectric constant tensor:
#      x y z
#    x 1.708940 0.000000 0.000000 
#    y 0.000000 1.661240 0.000000 
#    z 0.000000 0.000000 1.692420 
# 
# From -- ./inp_files/26071.got.cif
#   From: 2010.05.17/outbox.cif.g08.bks.cpg/sg42_14_cif.got.tgz:26071.got - 2010.06.03 19:03:34.
