data_PCOD9369548
_publ_section_title
;
Structure prediction by ZEFSAII (Michael W. Deem and Ramdas Pophale) SiO2 
 PCOD9369548
Probable space group: F M M 2
;
_chemical_formula_sum "Si O2"
_cell_formula_units_Z 108
_cell_length_a 15.754555
_cell_length_b 15.858647
_cell_length_c 20.940057
_cell_angle_alpha 90.000000
_cell_angle_beta 90.000000
_cell_angle_gamma 90.000000
_cell_volume 5231.787940
_symmetry_space_group_name_H-M "F M M 2"
_symmetry_group_IT_number 42
_symmetry_cell_setting 'orthorhombic'
loop_
_space_group_symop_operation_xyz
x,y,z
-x,-y,z
-x,y,z
x,-y,z
x,1/2+y,1/2+z
-x,1/2-y,1/2+z
-x,1/2+y,1/2+z
x,1/2-y,1/2+z
1/2+x,y,1/2+z
1/2-x,-y,1/2+z
1/2-x,y,1/2+z
1/2+x,-y,1/2+z
1/2+x,1/2+y,z
1/2-x,1/2-y,z
1/2-x,1/2+y,z
1/2+x,1/2-y,z
loop_
_atom_site_type_symbol
_atom_site_label
_atom_site_fract_x
_atom_site_fract_y
_atom_site_fract_z
Si Si1 0.744337 0.596248 0.402140
Si Si2 0.275942 0.904878 0.636824
Si Si3 0.405595 0.336356 0.490280
Si Si4 0.359705 0.142998 0.517169
Si Si5 0.750000 0.250000 0.805409
Si Si6 0.097599 0.303862 0.714523
Si Si7 0.500000 0.500000 0.045259
Si Si8 0.907465 0.862099 0.637869
O O1 0.737365 0.500000 0.379077
O O2 0.661983 0.623673 0.442885
O O3 0.819596 0.604481 0.453391
O O4 0.757929 0.666252 0.348184
O O5 0.290065 0.849033 0.573609
O O6 0.350535 0.882445 0.686063
O O7 0.181849 0.893531 0.665310
O O8 0.281273 0.000000 0.615319
O O9 0.500000 0.350612 0.464982
O O10 0.391790 0.236077 0.499524
O O11 0.401882 0.374183 0.561824
O O12 0.427552 0.075839 0.542566
O O13 0.836534 0.263359 0.764882
O O14 0.091094 0.236133 0.657099
O O15 0.000000 0.320406 0.735571
O O16 0.000000 0.895962 0.659476
#
# Coordination Sequence:
#
# PCOD9369548 Si02
#       8
#    16  16  16  16   8  16   4  16
#     4  12  26  45  68  99 135 174 228 288 342 402
#     4  12  23  37  67 102 142 173 213 282 351 414
#     4  11  22  38  68 101 134 179 215 265 349 419
#     4  12  22  39  62 101 140 176 215 276 346 414
#     4  12  26  48  70  92 128 188 236 284 342 398
#     4  11  25  45  68  96 128 171 232 282 336 409
#     4  12  24  36  64 104 144 172 232 272 340 434
#     4  10  21  39  66  96 133 175 217 265 331 417
#
# _framework density 20.643037
#
# number of rings (size 3 to 8) (size 9 to 14) (size 15 to 20)
#    0.000    0.593    8.148    0.000    1.037    2.074 
#    1.333    1.481    0.000    0.000    0.000    0.000 
#    0.000    0.000    0.000    0.000    0.000    0.000 
#
# Total GULP energy -150441.847978 kJ/mol
# GULP energy per Si atom -5571.920295 kJ/mol
# Density = 2.059605 g / cm^3
# Si number density = 20.643037 Si / 1000 Ang^3
#
#
#
# Elastic Constant Matrix: (Units=GPa)
#
#
# Indices 1 2 3 4 5 6 
#
# 1 162.7613 11.2050 18.9244 0.0000 0.0000 0.0000
# 2 11.2050 76.9445 6.3147 0.0000 0.0000 0.0000
# 3 18.9244 6.3147 51.8023 0.0000 0.0000 0.0000
# 4 0.0000 0.0000 0.0000 10.6681 0.0000 0.0000
# 5 0.0000 0.0000 0.0000 0.0000 7.1263 0.0000
# 6 0.0000 0.0000 0.0000 0.0000 0.0000 27.0944
#
#
#
# Elastic Compliance Matrix: (Units=1/GPa)
#
#
# Indices 1 2 3 4 5 6 
#
# 1 0.006460 -0.000755 -0.002268 0.000000 0.000000 0.000000
# 2 -0.000755 0.013216 -0.001335 0.000000 0.000000 0.000000
# 3 -0.002268 -0.001335 0.020295 0.000000 0.000000 0.000000
# 4 0.000000 0.000000 0.000000 0.093737 0.000000 0.000000
# 5 0.000000 0.000000 0.000000 0.000000 0.140325 0.000000
# 6 0.000000 0.000000 0.000000 0.000000 0.000000 0.036908
#
#
# Mechanical properties :
#
#
# Convention : Reuss Voigt Hill
#
# Bulk Modulus (GPa) = 31.99450 40.48847 36.24148
# Shear Modulus (GPa) = 15.14807 25.98203 20.56505
#
# Velocity S-wave (km/s) = 2.71183 3.55157 3.15972
# Velocity P-wave (km/s) = 5.03368 6.03941 5.55933
#
# Compressibility (1/GPa) = 0.03125538
#
# Stress axis : x y z
#
# Youngs Moduli (GPa) = 154.80844 75.66667 49.27220
#
# Poissons Ratio (x) = 0.05709 0.11174
# Poissons Ratio (y) = 0.11681 0.06580
# Poissons Ratio (z) = 0.35108 0.10104
#
# Static dielectric constant tensor:
#      x y z
#    x 1.821660 0.000000 0.000000 
#    y 0.000000 1.735450 0.000000 
#    z 0.000000 0.000000 1.728640 
# 
# From -- ./inp_files/29550.got.cif
#   From: 2010.05.17/outbox.cif.g08.bks.cpg/sg42_15_cif.got.tgz:29550.got - 2010.06.03 19:03:34.
