data_PCOD9369192
_publ_section_title
;
Structure prediction by ZEFSAII (Michael W. Deem and Ramdas Pophale) SiO2 
 PCOD9369192
Probable space group: F M M 2
;
_chemical_formula_sum "Si O2"
_cell_formula_units_Z 100
_cell_length_a 21.194167
_cell_length_b 15.324901
_cell_length_c 15.144857
_cell_angle_alpha 90.000000
_cell_angle_beta 90.000000
_cell_angle_gamma 90.000000
_cell_volume 4919.027004
_symmetry_space_group_name_H-M "F M M 2"
_symmetry_group_IT_number 42
_symmetry_cell_setting 'orthorhombic'
loop_
_space_group_symop_operation_xyz
x,y,z
-x,-y,z
-x,y,z
x,-y,z
x,1/2+y,1/2+z
-x,1/2-y,1/2+z
-x,1/2+y,1/2+z
x,1/2-y,1/2+z
1/2+x,y,1/2+z
1/2-x,-y,1/2+z
1/2-x,y,1/2+z
1/2+x,-y,1/2+z
1/2+x,1/2+y,z
1/2-x,1/2-y,z
1/2-x,1/2+y,z
1/2+x,1/2-y,z
loop_
_atom_site_type_symbol
_atom_site_label
_atom_site_fract_x
_atom_site_fract_y
_atom_site_fract_z
Si Si1 0.159194 0.397185 0.329010
Si Si2 0.572402 0.844469 0.169778
Si Si3 0.821854 0.146212 0.528168
Si Si4 0.196667 0.395707 0.825912
Si Si5 0.000000 0.000000 0.238102
Si Si6 0.400730 0.146514 0.690205
Si Si7 0.321519 0.856822 0.529554
O O1 0.159801 0.500000 0.313787
O O2 0.105864 0.361837 0.263954
O O3 0.231023 0.365983 0.313314
O O4 0.152863 0.381094 0.433332
O O5 0.500000 0.877355 0.163474
O O6 0.621349 0.879514 0.094399
O O7 0.570245 0.739222 0.163905
O O8 0.827968 0.119321 0.425723
O O9 0.750549 0.113689 0.548985
O O10 0.820298 0.251436 0.533345
O O11 0.193308 0.500000 0.808020
O O12 0.154912 0.340118 0.759981
O O13 0.946349 0.923192 0.232808
O O14 0.368545 0.108680 0.602797
#
# Coordination Sequence:
#
# PCOD9369192 Si02
#       7
#    16  16  16  16   4  16  16
#     4  10  22  38  60  91 120 154 195 244 296 355
#     4  11  23  41  58  86 123 164 202 238 293 370
#     4   9  19  37  60  88 115 152 197 244 294 349
#     4  10  20  37  62  90 117 148 199 252 299 344
#     4  12  24  40  56  88 122 150 202 248 312 360
#     4  11  22  40  61  86 115 158 196 252 301 355
#     4   9  19  37  62  87 114 149 199 248 295 345
#
# _framework density 20.329224
#
# number of rings (size 3 to 8) (size 9 to 14) (size 15 to 20)
#    0.000    1.920    1.600    1.920    1.120    4.160 
#    2.880    1.600    0.000    0.000    0.000    0.000 
#    0.000    0.000    0.000    0.000    0.000    0.000 
#
# Total GULP energy -139195.510269 kJ/mol
# GULP energy per Si atom -5567.820411 kJ/mol
# Density = 2.028295 g / cm^3
# Si number density = 20.329224 Si / 1000 Ang^3
#
#
#
# Elastic Constant Matrix: (Units=GPa)
#
#
# Indices 1 2 3 4 5 6 
#
# 1 131.4934 5.6694 85.2217 0.0000 0.0000 0.0000
# 2 5.6694 37.7624 -7.7122 0.0000 0.0000 0.0000
# 3 85.2217 -7.7122 78.2402 0.0000 0.0000 0.0000
# 4 0.0000 0.0000 0.0000 46.0344 0.0000 0.0000
# 5 0.0000 0.0000 0.0000 0.0000 5.7971 0.0000
# 6 0.0000 0.0000 0.0000 0.0000 0.0000 -91.9963
#
#
#
# Elastic Compliance Matrix: (Units=1/GPa)
#
#
# Indices 1 2 3 4 5 6 
#
# 1 0.030014 -0.011413 -0.033818 0.000000 0.000000 0.000000
# 2 -0.011413 0.031365 0.015523 0.000000 0.000000 0.000000
# 3 -0.033818 0.015523 0.051146 0.000000 0.000000 0.000000
# 4 0.000000 0.000000 0.000000 0.021723 0.000000 0.000000
# 5 0.000000 0.000000 0.000000 0.000000 0.172499 0.000000
# 6 0.000000 0.000000 0.000000 0.000000 0.000000 -0.010870
#
#
# Mechanical properties :
#
#
# Convention : Reuss Voigt Hill
#
# Bulk Modulus (GPa) = 18.82855 45.98377 32.40616
# Shear Modulus (GPa) = 13.40495 2.92150 8.16323
#
# Velocity S-wave (km/s) = 2.57065 1.20009 2.00605
# Velocity P-wave (km/s) = 4.25358 4.95872 4.61962
#
# Compressibility (1/GPa) = 0.05311082
#
# Stress axis : x y z
#
# Youngs Moduli (GPa) = 33.31728 31.88261 19.55168
#
# Poissons Ratio (x) = 0.36387 0.66119
# Poissons Ratio (y) = 0.38024 -0.30350
# Poissons Ratio (z) = 1.12671 -0.49491
#
# Static dielectric constant tensor:
#      x y z
#    x 1.751500 0.000000 0.000000 
#    y 0.000000 1.711880 0.000000 
#    z 0.000000 0.000000 1.725780 
# 
# From -- ./inp_files/15240.got.cif
#   From: 2010.05.17/outbox.cif.g08.bks.cpg/sg42_8_cif.got.tgz:15240.got - 2010.06.03 19:03:34.
