data_PCOD9369260
_publ_section_title
;
Structure prediction by ZEFSAII (Michael W. Deem and Ramdas Pophale) SiO2 
 PCOD9369260
Probable space group: F M M 2
;
_chemical_formula_sum "Si O2"
_cell_formula_units_Z 112
_cell_length_a 28.840233
_cell_length_b 14.794756
_cell_length_c 12.132005
_cell_angle_alpha 90.000000
_cell_angle_beta 90.000000
_cell_angle_gamma 90.000000
_cell_volume 5176.534972
_symmetry_space_group_name_H-M "F M M 2"
_symmetry_group_IT_number 42
_symmetry_cell_setting 'orthorhombic'
loop_
_space_group_symop_operation_xyz
x,y,z
-x,-y,z
-x,y,z
x,-y,z
x,1/2+y,1/2+z
-x,1/2-y,1/2+z
-x,1/2+y,1/2+z
x,1/2-y,1/2+z
1/2+x,y,1/2+z
1/2-x,-y,1/2+z
1/2-x,y,1/2+z
1/2+x,-y,1/2+z
1/2+x,1/2+y,z
1/2-x,1/2-y,z
1/2-x,1/2+y,z
1/2+x,1/2-y,z
loop_
_atom_site_type_symbol
_atom_site_label
_atom_site_fract_x
_atom_site_fract_y
_atom_site_fract_z
Si Si1 0.802007 0.784687 0.117840
Si Si2 0.350468 0.105286 0.436423
Si Si3 0.949940 0.792036 0.273441
Si Si4 0.410247 0.899861 0.236546
Si Si5 0.844896 0.402358 0.058700
Si Si6 0.050023 0.892707 0.041175
Si Si7 0.856944 0.604654 0.805117
O O1 0.750000 0.750000 0.136010
O O2 0.827753 0.690497 0.106604
O O3 0.824700 0.845289 0.215167
O O4 0.812519 0.837025 0.002131
O O5 0.362095 0.113329 0.306745
O O6 0.401566 0.130021 0.483711
O O7 0.341111 0.000000 0.459143
O O8 0.941642 0.685294 0.262238
O O9 0.950928 0.835170 0.151797
O O10 0.904700 0.840218 0.321640
O O11 0.000000 0.811131 0.326423
O O12 0.397116 0.903756 0.107732
O O13 0.427746 0.000000 0.271008
O O14 0.824780 0.500000 0.095675
O O15 0.837071 0.398137 0.928266
O O16 0.000000 0.877320 0.984006
O O17 0.052048 0.000000 0.065551
O O18 0.865223 0.500000 0.770132
#
# Coordination Sequence:
#
# PCOD9369260 Si02
#       7
#    16  16  16  16  16  16  16
#     4  12  25  41  70  98 132 164 222 280 343 402
#     4  10  20  38  65  95 131 173 218 278 340 394
#     4  11  21  35  62  96 132 174 223 276 329 396
#     4  10  21  40  63  89 131 182 225 268 327 397
#     4  10  23  44  66  91 131 177 218 267 330 400
#     4   9  17  31  56  90 124 161 212 272 329 389
#     4  11  23  44  71  98 134 176 221 277 339 399
#
# _framework density 21.636095999999998
#
# number of rings (size 3 to 8) (size 9 to 14) (size 15 to 20)
#    0.000    1.571    2.857    1.714    0.000    3.429 
#    0.000    3.571    0.000    2.571    0.000    0.000 
#    0.000    0.000    0.000    0.000    0.000    0.000 
#
# Total GULP energy -156035.952472 kJ/mol
# GULP energy per Si atom -5572.712588 kJ/mol
# Density = 2.158685 g / cm^3
# Si number density = 21.636096 Si / 1000 Ang^3
#
#
#
# Elastic Constant Matrix: (Units=GPa)
#
#
# Indices 1 2 3 4 5 6 
#
# 1 69.4442 34.6395 3.9797 0.0000 0.0000 0.0000
# 2 34.6395 120.8502 20.8877 0.0000 0.0000 0.0000
# 3 3.9797 20.8877 69.7105 0.0000 0.0000 0.0000
# 4 0.0000 0.0000 0.0000 3.9512 0.0000 0.0000
# 5 0.0000 0.0000 0.0000 0.0000 -2.1722 0.0000
# 6 0.0000 0.0000 0.0000 0.0000 0.0000 24.9747
#
#
#
# Elastic Compliance Matrix: (Units=1/GPa)
#
#
# Indices 1 2 3 4 5 6 
#
# 1 0.016820 -0.004909 0.000511 0.000000 0.000000 0.000000
# 2 -0.004909 0.010160 -0.002764 0.000000 0.000000 0.000000
# 3 0.000511 -0.002764 0.015144 0.000000 0.000000 0.000000
# 4 0.000000 0.000000 0.000000 0.253090 0.000000 0.000000
# 5 0.000000 0.000000 0.000000 0.000000 -0.460367 0.000000
# 6 0.000000 0.000000 0.000000 0.000000 0.000000 0.040041
#
#
# Mechanical properties :
#
#
# Convention : Reuss Voigt Hill
#
# Bulk Modulus (GPa) = 35.97334 42.11320 39.04327
# Shear Modulus (GPa) = -49.25033 18.71728 -15.26653
#
# Velocity S-wave (km/s) = -4.77624 2.94444 -2.65920
# Velocity P-wave (km/s) = 3.70863 5.57371 2.94213
#
# Compressibility (1/GPa) = 0.02779836
#
# Stress axis : x y z
#
# Youngs Moduli (GPa) = 59.45452 98.42930 66.03255
#
# Poissons Ratio (x) = 0.48322 -0.03373
# Poissons Ratio (y) = 0.29188 0.18251
# Poissons Ratio (z) = -0.03037 0.27205
#
# Static dielectric constant tensor:
#      x y z
#    x 2.064530 0.000000 0.000000 
#    y 0.000000 1.809330 0.000000 
#    z 0.000000 0.000000 1.860310 
# 
# From -- ./inp_files/11119.got.cif
#   From: 2010.05.17/outbox.cif.g08.bks.cpg/sg42_6_cif.got.tgz:11119.got - 2010.06.03 19:03:34.
