data_PCOD9369487
_publ_section_title
;
Structure prediction by ZEFSAII (Michael W. Deem and Ramdas Pophale) SiO2 
 PCOD9369487
Probable space group: F M M 2
;
_chemical_formula_sum "Si O2"
_cell_formula_units_Z 48
_cell_length_a 17.013927
_cell_length_b 11.762567
_cell_length_c 9.227542
_cell_angle_alpha 90.000000
_cell_angle_beta 90.000000
_cell_angle_gamma 90.000000
_cell_volume 1846.684508
_symmetry_space_group_name_H-M "F M M 2"
_symmetry_group_IT_number 42
_symmetry_cell_setting 'orthorhombic'
loop_
_space_group_symop_operation_xyz
x,y,z
-x,-y,z
-x,y,z
x,-y,z
x,1/2+y,1/2+z
-x,1/2-y,1/2+z
-x,1/2+y,1/2+z
x,1/2-y,1/2+z
1/2+x,y,1/2+z
1/2-x,-y,1/2+z
1/2-x,y,1/2+z
1/2+x,-y,1/2+z
1/2+x,1/2+y,z
1/2-x,1/2-y,z
1/2-x,1/2+y,z
1/2+x,1/2-y,z
loop_
_atom_site_type_symbol
_atom_site_label
_atom_site_fract_x
_atom_site_fract_y
_atom_site_fract_z
Si Si1 0.770812 0.000000 0.632720
Si Si2 0.351338 0.372465 0.301244
Si Si3 0.857135 0.000000 0.893821
Si Si4 0.087678 0.734132 0.531849
O O1 0.728654 0.108571 0.712213
O O2 0.730762 0.000000 0.473585
O O3 0.852872 0.000000 0.718975
O O4 0.386084 0.500000 0.305631
O O5 0.350633 0.320834 0.460532
O O6 0.400878 0.288680 0.200977
O O7 0.898028 0.888326 0.957183
O O8 0.000000 0.776105 0.503084
#
# Coordination Sequence:
#
# PCOD9369487 Si02
#       4
#     8  16   8  16
#     4   8  20  40  58  86 120 162 198 250 298 344
#     4   9  22  42  60  88 122 161 202 247 298 353
#     4  10  21  38  62  88 121 158 204 244 300 362
#     4  11  21  38  65  90 123 163 194 248 308 356
#
# _framework density 25.992526999999999
#
# number of rings (size 3 to 8) (size 9 to 14) (size 15 to 20)
#    1.000    1.333    1.667    1.500    0.000    6.000 
#    3.000    6.667    0.000    0.000    0.000    0.000 
#    0.000    0.000    0.000    0.000    0.000    0.000 
#
# Total GULP energy -67007.603892 kJ/mol
# GULP energy per Si atom -5583.966991 kJ/mol
# Density = 2.593337 g / cm^3
# Si number density = 25.992527 Si / 1000 Ang^3
#
#
#
# Elastic Constant Matrix: (Units=GPa)
#
#
# Indices 1 2 3 4 5 6 
#
# 1 52.6632 -2.7092 -4.3817 0.0000 0.0000 0.0000
# 2 -2.7092 82.7693 21.6457 0.0000 0.0000 0.0000
# 3 -4.3817 21.6457 159.8444 0.0000 0.0000 0.0000
# 4 0.0000 0.0000 0.0000 27.8057 0.0000 0.0000
# 5 0.0000 0.0000 0.0000 0.0000 29.8073 0.0000
# 6 0.0000 0.0000 0.0000 0.0000 0.0000 17.6110
#
#
#
# Elastic Compliance Matrix: (Units=1/GPa)
#
#
# Indices 1 2 3 4 5 6 
#
# 1 0.019052 0.000505 0.000454 0.000000 0.000000 0.000000
# 2 0.000505 0.012539 -0.001684 0.000000 0.000000 0.000000
# 3 0.000454 -0.001684 0.006497 0.000000 0.000000 0.000000
# 4 0.000000 0.000000 0.000000 0.035964 0.000000 0.000000
# 5 0.000000 0.000000 0.000000 0.000000 0.033549 0.000000
# 6 0.000000 0.000000 0.000000 0.000000 0.000000 0.056783
#
#
# Mechanical properties :
#
#
# Convention : Reuss Voigt Hill
#
# Bulk Modulus (GPa) = 27.29481 36.04294 31.66887
# Shear Modulus (GPa) = 28.08262 33.75960 30.92111
#
# Velocity S-wave (km/s) = 3.29053 3.60782 3.45282
# Velocity P-wave (km/s) = 4.99606 5.59034 5.30153
#
# Compressibility (1/GPa) = 0.03663700
#
# Stress axis : x y z
#
# Youngs Moduli (GPa) = 52.48706 79.75291 153.92700
#
# Poissons Ratio (x) = -0.04027 -0.06987
# Poissons Ratio (y) = -0.02650 0.25923
# Poissons Ratio (z) = -0.02382 0.13431
#
# Static dielectric constant tensor:
#      x y z
#    x 2.119370 0.000000 0.000000 
#    y 0.000000 2.017480 0.000000 
#    z 0.000000 0.000000 2.109400 
# 
# From -- ./inp_files/2053.got.cif
#   From: 2010.05.17/outbox.cif.g08.bks.cpg/sg42_2_cif.got.tgz:2053.got - 2010.06.03 19:03:34.
