data_PCOD9369569
_publ_section_title
;
Structure prediction by ZEFSAII (Michael W. Deem and Ramdas Pophale) SiO2 
 PCOD9369569
Probable space group: F M M 2
;
_chemical_formula_sum "Si O2"
_cell_formula_units_Z 64
_cell_length_a 17.397122
_cell_length_b 16.314752
_cell_length_c 9.415057
_cell_angle_alpha 90.000000
_cell_angle_beta 90.000000
_cell_angle_gamma 90.000000
_cell_volume 2672.273095
_symmetry_space_group_name_H-M "F M M 2"
_symmetry_group_IT_number 42
_symmetry_cell_setting 'orthorhombic'
loop_
_space_group_symop_operation_xyz
x,y,z
-x,-y,z
-x,y,z
x,-y,z
x,1/2+y,1/2+z
-x,1/2-y,1/2+z
-x,1/2+y,1/2+z
x,1/2-y,1/2+z
1/2+x,y,1/2+z
1/2-x,-y,1/2+z
1/2-x,y,1/2+z
1/2+x,-y,1/2+z
1/2+x,1/2+y,z
1/2-x,1/2-y,z
1/2-x,1/2+y,z
1/2+x,1/2-y,z
loop_
_atom_site_type_symbol
_atom_site_label
_atom_site_fract_x
_atom_site_fract_y
_atom_site_fract_z
Si Si1 0.087703 0.339722 0.377540
Si Si2 0.418045 0.904539 0.783590
Si Si3 0.627883 0.324895 0.550872
Si Si4 0.790255 0.905277 0.071268
O O1 0.098387 0.324789 0.210791
O O2 0.105560 0.256795 0.465176
O O3 0.152245 0.400965 0.437242
O O4 0.000000 0.366193 0.404329
O O5 0.500000 0.866215 0.740880
O O6 0.342727 0.873941 0.702576
O O7 0.420432 0.000000 0.745306
O O8 0.408844 0.894444 0.950921
O O9 0.717967 0.346578 0.552973
O O10 0.765850 0.000000 0.093948
#
# Coordination Sequence:
#
# PCOD9369569 Si02
#       4
#    16  16  16  16
#     4  12  26  44  68  98 134 175 221 273 327 388
#     4  10  21  40  67  98 134 175 217 266 328 395
#     4  12  25  44  67  97 133 173 222 273 328 388
#     4  11  25  45  69  99 135 174 217 269 330 393
#
# _framework density 23.949648
#
# number of rings (size 3 to 8) (size 9 to 14) (size 15 to 20)
#    0.000    0.750    0.000    7.500    0.000    7.500 
#    0.000    0.000    0.000    0.000    0.000    0.000 
#    0.000    0.000    0.000    0.000    0.000    0.000 
#
# Total GULP energy -89575.152714 kJ/mol
# GULP energy per Si atom -5598.447045 kJ/mol
# Density = 2.389514 g / cm^3
# Si number density = 23.949648 Si / 1000 Ang^3
#
#
#
# Elastic Constant Matrix: (Units=GPa)
#
#
# Indices 1 2 3 4 5 6 
#
# 1 163.6002 -0.2665 25.3766 0.0000 0.0000 0.0000
# 2 -0.2665 26.6230 -8.2242 0.0000 0.0000 0.0000
# 3 25.3766 -8.2242 163.3549 0.0000 0.0000 0.0000
# 4 0.0000 0.0000 0.0000 33.3563 0.0000 0.0000
# 5 0.0000 0.0000 0.0000 0.0000 36.2474 0.0000
# 6 0.0000 0.0000 0.0000 0.0000 0.0000 14.8637
#
#
#
# Elastic Compliance Matrix: (Units=1/GPa)
#
#
# Indices 1 2 3 4 5 6 
#
# 1 0.006265 -0.000242 -0.000985 0.000000 0.000000 0.000000
# 2 -0.000242 0.038164 0.001959 0.000000 0.000000 0.000000
# 3 -0.000985 0.001959 0.006373 0.000000 0.000000 0.000000
# 4 0.000000 0.000000 0.000000 0.029979 0.000000 0.000000
# 5 0.000000 0.000000 0.000000 0.000000 0.027588 0.000000
# 6 0.000000 0.000000 0.000000 0.000000 0.000000 0.067278
#
#
# Mechanical properties :
#
#
# Convention : Reuss Voigt Hill
#
# Bulk Modulus (GPa) = 19.13285 43.03889 31.08587
# Shear Modulus (GPa) = 26.09521 39.33966 32.71743
#
# Velocity S-wave (km/s) = 3.30447 4.05730 3.70008
# Velocity P-wave (km/s) = 4.75031 6.32127 5.59124
#
# Compressibility (1/GPa) = 0.05226614
#
# Stress axis : x y z
#
# Youngs Moduli (GPa) = 159.61907 26.20259 156.90354
#
# Poissons Ratio (x) = 0.00633 0.15461
# Poissons Ratio (y) = 0.03858 -0.30736
# Poissons Ratio (z) = 0.15729 -0.05133
#
# Static dielectric constant tensor:
#      x y z
#    x 1.995980 0.000000 0.000000 
#    y 0.000000 1.966820 0.000000 
#    z 0.000000 0.000000 1.908930 
# 
# From -- ./inp_files/3216.got.cif
#   From: 2010.05.17/outbox.cif.g08.bks.cpg/sg42_2_cif.got.tgz:3216.got - 2010.06.03 19:03:34.
