data_PCOD9369029
_publ_section_title
;
Structure prediction by ZEFSAII (Michael W. Deem and Ramdas Pophale) SiO2 
 PCOD9369029
Probable space group: F M M 2
;
_chemical_formula_sum "Si O2"
_cell_formula_units_Z 116
_cell_length_a 30.086115
_cell_length_b 8.321766
_cell_length_c 25.596054
_cell_angle_alpha 90.000000
_cell_angle_beta 90.000000
_cell_angle_gamma 90.000000
_cell_volume 6408.474029
_symmetry_space_group_name_H-M "F M M 2"
_symmetry_group_IT_number 42
_symmetry_cell_setting 'orthorhombic'
loop_
_space_group_symop_operation_xyz
x,y,z
-x,-y,z
-x,y,z
x,-y,z
x,1/2+y,1/2+z
-x,1/2-y,1/2+z
-x,1/2+y,1/2+z
x,1/2-y,1/2+z
1/2+x,y,1/2+z
1/2-x,-y,1/2+z
1/2-x,y,1/2+z
1/2+x,-y,1/2+z
1/2+x,1/2+y,z
1/2-x,1/2-y,z
1/2-x,1/2+y,z
1/2+x,1/2-y,z
loop_
_atom_site_type_symbol
_atom_site_label
_atom_site_fract_x
_atom_site_fract_y
_atom_site_fract_z
Si Si1 0.881985 0.184119 0.717250
Si Si2 0.500000 0.000000 0.632699
Si Si3 0.948095 0.188988 0.497470
Si Si4 0.797683 0.807381 0.385698
Si Si5 0.934041 0.308764 0.116960
Si Si6 0.795271 0.812982 0.266863
Si Si7 0.448724 0.691175 0.301734
Si Si8 0.393923 0.813211 0.401036
O O1 0.893056 0.199195 0.656453
O O2 0.839799 0.283100 0.735497
O O3 0.925009 0.232688 0.751427
O O4 0.871783 0.000000 0.729689
O O5 0.537454 0.851051 0.631390
O O6 0.927291 0.206137 0.554895
O O7 0.922931 0.283478 0.452629
O O8 0.000000 0.237898 0.501780
O O9 0.947173 0.000000 0.483330
O O10 0.750000 0.750000 0.407375
O O11 0.799743 0.743394 0.325596
O O12 0.843872 0.748669 0.410063
O O13 0.798157 0.000000 0.386455
O O14 0.950580 0.500000 0.123629
O O15 0.750000 0.750000 0.241858
O O16 0.789255 0.000000 0.274251
O O17 0.500000 0.746165 0.308475
O O18 0.449634 0.500000 0.293958
O O19 0.418659 0.727678 0.352423
O O20 0.392259 0.000000 0.388010
#
# Coordination Sequence:
#
# PCOD9369029 Si02
#       8
#    16   4  16  16  16  16  16  16
#     4  11  23  38  58  84 120 151 191 243 292 347
#     4  12  22  36  68  82 120 156 206 252 296 348
#     4  10  21  40  61  81 115 154 198 249 293 338
#     4  10  20  36  58  83 114 148 187 235 288 344
#     4  10  24  40  59  89 119 156 203 253 299 344
#     4  10  20  35  59  85 114 150 191 234 288 349
#     4  11  24  38  53  77 114 157 195 230 287 350
#     4  12  24  36  56  85 116 151 194 237 289 350
#
# _framework density 18.101033999999999
#
# number of rings (size 3 to 8) (size 9 to 14) (size 15 to 20)
#    0.000    1.379    2.069    3.517    3.862    4.138 
#    0.000    0.000    0.000    0.828    0.000    3.862 
#    0.000    0.000    0.000    0.000    0.000    0.000 
#
# Total GULP energy -161437.790749 kJ/mol
# GULP energy per Si atom -5566.820371 kJ/mol
# Density = 1.805983 g / cm^3
# Si number density = 18.101034 Si / 1000 Ang^3
#
#
#
# Elastic Constant Matrix: (Units=GPa)
#
#
# Indices 1 2 3 4 5 6 
#
# 1 74.0053 1.0005 21.7194 -0.0001 0.0001 0.0001
# 2 1.0005 56.8102 -8.2214 -0.0001 0.0000 0.0002
# 3 21.7194 -8.2214 55.8978 0.0000 0.0000 0.0000
# 4 -0.0001 -0.0001 0.0000 21.1463 0.0000 0.0000
# 5 0.0001 0.0000 0.0000 0.0000 11.1076 -0.0001
# 6 0.0001 0.0002 0.0000 0.0000 -0.0001 30.0347
#
#
#
# Elastic Compliance Matrix: (Units=1/GPa)
#
#
# Indices 1 2 3 4 5 6 
#
# 1 0.015326 -0.001156 -0.006125 0.000000 0.000000 0.000000
# 2 -0.001156 0.018073 0.003107 0.000000 0.000000 0.000000
# 3 -0.006125 0.003107 0.020727 0.000000 0.000000 0.000000
# 4 0.000000 0.000000 0.000000 0.047289 0.000000 0.000000
# 5 0.000000 0.000000 0.000000 0.000000 0.090029 0.000000
# 6 0.000000 0.000000 0.000000 0.000000 0.000000 0.033295
#
#
# Mechanical properties :
#
#
# Convention : Reuss Voigt Hill
#
# Bulk Modulus (GPa) = 21.84494 23.96781 22.90638
# Shear Modulus (GPa) = 20.13331 23.93872 22.03601
#
# Velocity S-wave (km/s) = 3.33870 3.64057 3.49290
# Velocity P-wave (km/s) = 5.19202 5.56251 5.38046
#
# Compressibility (1/GPa) = 0.04577718
#
# Stress axis : x y z
#
# Youngs Moduli (GPa) = 65.24963 55.33267 48.24695
#
# Poissons Ratio (x) = 0.06398 0.29551
# Poissons Ratio (y) = 0.07545 -0.14992
# Poissons Ratio (z) = 0.39965 -0.17194
#
# Static dielectric constant tensor:
#      x y z
#    x 1.628590 0.000000 0.000000 
#    y 0.000000 1.641070 0.000000 
#    z 0.000000 0.000000 1.607450 
# 
# From -- ./inp_files/28337.got.cif
#   From: 2010.05.17/outbox.cif.g08.bks.cpg/sg42_15_cif.got.tgz:28337.got - 2010.06.03 19:03:34.
