data_PCOD9369507
_publ_section_title
;
Structure prediction by ZEFSAII (Michael W. Deem and Ramdas Pophale) SiO2 
 PCOD9369507
Probable space group: F M M 2
;
_chemical_formula_sum "Si O2"
_cell_formula_units_Z 88
_cell_length_a 16.539253
_cell_length_b 19.414509
_cell_length_c 13.263718
_cell_angle_alpha 90.000000
_cell_angle_beta 90.000000
_cell_angle_gamma 90.000000
_cell_volume 4258.999430
_symmetry_space_group_name_H-M "F M M 2"
_symmetry_group_IT_number 42
_symmetry_cell_setting 'orthorhombic'
loop_
_space_group_symop_operation_xyz
x,y,z
-x,-y,z
-x,y,z
x,-y,z
x,1/2+y,1/2+z
-x,1/2-y,1/2+z
-x,1/2+y,1/2+z
x,1/2-y,1/2+z
1/2+x,y,1/2+z
1/2-x,-y,1/2+z
1/2-x,y,1/2+z
1/2+x,-y,1/2+z
1/2+x,1/2+y,z
1/2-x,1/2-y,z
1/2-x,1/2+y,z
1/2+x,1/2-y,z
loop_
_atom_site_type_symbol
_atom_site_label
_atom_site_fract_x
_atom_site_fract_y
_atom_site_fract_z
Si Si1 0.404617 0.868296 0.271150
Si Si2 0.160285 0.639592 0.487229
Si Si3 0.654477 0.889726 0.975254
Si Si4 0.097556 0.000000 0.087830
Si Si5 0.593306 0.766489 0.094148
Si Si6 0.596767 0.000000 0.818231
Si Si7 0.847243 0.000000 0.661708
O O1 0.500000 0.883716 0.252032
O O2 0.390249 0.847459 0.385969
O O3 0.381939 0.806396 0.195813
O O4 0.356882 0.938230 0.246191
O O5 0.253983 0.634042 0.460323
O O6 0.131235 0.567682 0.534338
O O7 0.145513 0.700627 0.565961
O O8 0.624723 0.933063 0.879896
O O9 0.602250 0.823547 0.006102
O O10 0.652100 0.940536 0.071752
O O11 0.127594 0.000000 0.203683
O O12 0.000000 0.000000 0.084983
O O13 0.500000 0.745071 0.103669
O O14 0.500000 0.000000 0.815213
#
# Coordination Sequence:
#
# PCOD9369507 Si02
#       7
#    16  16  16   8  16   8   8
#     4  10  21  38  65  93 118 160 208 251 300 354
#     4  12  24  40  61  90 128 159 199 254 307 362
#     4  10  22  39  63  92 120 156 200 253 308 353
#     4  11  24  39  59  88 126 169 203 242 300 364
#     4  10  22  41  63  87 118 158 206 254 300 358
#     4  10  22  40  62  89 122 163 206 244 294 361
#     4   9  19  37  59  87 119 148 195 248 295 351
#
# _framework density 20.662129
#
# number of rings (size 3 to 8) (size 9 to 14) (size 15 to 20)
#    0.000    1.636    0.000    4.636    0.000   10.909 
#    0.000    5.455    0.000    0.000    0.000    0.000 
#    0.000    0.000    0.000    0.000    0.000    0.000 
#
# Total GULP energy -122488.920457 kJ/mol
# GULP energy per Si atom -5567.678203 kJ/mol
# Density = 2.061510 g / cm^3
# Si number density = 20.662129 Si / 1000 Ang^3
#
#
#
# Elastic Constant Matrix: (Units=GPa)
#
#
# Indices 1 2 3 4 5 6 
#
# 1 38.8317 16.1776 9.5824 0.0000 0.0000 0.0000
# 2 16.1776 118.7273 40.2419 0.0000 0.0000 0.0000
# 3 9.5824 40.2419 117.5016 0.0000 0.0000 0.0000
# 4 0.0000 0.0000 0.0000 25.8284 0.0000 0.0000
# 5 0.0000 0.0000 0.0000 0.0000 -38.2205 0.0000
# 6 0.0000 0.0000 0.0000 0.0000 0.0000 -1.9228
#
#
#
# Elastic Compliance Matrix: (Units=1/GPa)
#
#
# Indices 1 2 3 4 5 6 
#
# 1 0.027423 -0.003370 -0.001082 0.000000 0.000000 0.000000
# 2 -0.003370 0.009943 -0.003130 0.000000 0.000000 0.000000
# 3 -0.001082 -0.003130 0.009671 0.000000 0.000000 0.000000
# 4 0.000000 0.000000 0.000000 0.038717 0.000000 0.000000
# 5 0.000000 0.000000 0.000000 0.000000 -0.026164 0.000000
# 6 0.000000 0.000000 0.000000 0.000000 0.000000 -0.520081
#
#
# Mechanical properties :
#
#
# Convention : Reuss Voigt Hill
#
# Bulk Modulus (GPa) = 31.37566 45.22937 38.30251
# Shear Modulus (GPa) = -11.50214 11.07427 -0.21394
#
# Velocity S-wave (km/s) = -2.36196 2.31761 -0.32213
# Velocity P-wave (km/s) = 2.78919 5.39437 4.29412
#
# Compressibility (1/GPa) = 0.03187184
#
# Stress axis : x y z
#
# Youngs Moduli (GPa) = 36.46562 100.57465 103.40314
#
# Poissons Ratio (x) = 0.33892 0.11191
# Poissons Ratio (y) = 0.12288 0.32369
# Poissons Ratio (z) = 0.03947 0.31484
#
# Static dielectric constant tensor:
#      x y z
#    x 1.778450 0.000000 0.000000 
#    y 0.000000 1.703860 0.000000 
#    z 0.000000 0.000000 1.737810 
# 
# From -- ./inp_files/8713.got.cif
#   From: 2010.05.17/outbox.cif.g08.bks.cpg/sg42_5_cif.got.tgz:8713.got - 2010.06.03 19:03:34.
