data_PCOD9369766
_publ_section_title
;
Structure prediction by ZEFSAII (Michael W. Deem and Ramdas Pophale) SiO2 
 PCOD9369766
Probable space group: F M M 2
;
_chemical_formula_sum "Si O2"
_cell_formula_units_Z 112
_cell_length_a 31.262959
_cell_length_b 12.161120
_cell_length_c 13.634631
_cell_angle_alpha 90.000000
_cell_angle_beta 90.000000
_cell_angle_gamma 90.000000
_cell_volume 5183.785755
_symmetry_space_group_name_H-M "F M M 2"
_symmetry_group_IT_number 42
_symmetry_cell_setting 'orthorhombic'
loop_
_space_group_symop_operation_xyz
x,y,z
-x,-y,z
-x,y,z
x,-y,z
x,1/2+y,1/2+z
-x,1/2-y,1/2+z
-x,1/2+y,1/2+z
x,1/2-y,1/2+z
1/2+x,y,1/2+z
1/2-x,-y,1/2+z
1/2-x,y,1/2+z
1/2+x,-y,1/2+z
1/2+x,1/2+y,z
1/2-x,1/2-y,z
1/2-x,1/2+y,z
1/2+x,1/2-y,z
loop_
_atom_site_type_symbol
_atom_site_label
_atom_site_fract_x
_atom_site_fract_y
_atom_site_fract_z
Si Si1 0.703115 0.700657 0.976450
Si Si2 0.357999 0.877763 0.077869
Si Si3 0.450458 0.381468 0.091348
Si Si4 0.952276 0.658541 0.997151
Si Si5 0.775279 0.127461 0.183261
Si Si6 0.412192 0.623016 0.303328
Si Si7 0.339182 0.274814 0.788113
O O1 0.750000 0.750000 0.957062
O O2 0.685624 0.659595 0.872310
O O3 0.669767 0.793932 0.013080
O O4 0.708375 0.623894 0.071005
O O5 0.408651 0.879701 0.051340
O O6 0.349465 0.842246 0.190120
O O7 0.341047 0.000000 0.061579
O O8 0.500000 0.386470 0.121591
O O9 0.436683 0.500000 0.053541
O O10 0.447930 0.288819 0.010940
O O11 0.425256 0.358095 0.190989
O O12 0.000000 0.628370 0.035666
O O13 0.949147 0.625115 0.884219
O O14 0.750000 0.250000 0.184446
O O15 0.812750 0.164959 0.256365
O O16 0.759685 0.000000 0.205176
O O17 0.393251 0.500000 0.309597
O O18 0.382079 0.723255 0.330829
#
# Coordination Sequence:
#
# PCOD9369766 Si02
#       7
#    16  16  16  16  16  16  16
#     4  10  23  42  65  92 125 169 219 273 326 389
#     4  11  24  42  64  94 132 171 213 268 328 387
#     4   9  19  37  61  88 120 162 211 264 320 381
#     4  11  22  38  64  97 129 165 215 268 320 382
#     4  10  23  43  67  97 130 170 220 275 331 398
#     4  11  21  36  61  91 122 165 216 264 314 380
#     4  11  22  40  62  93 130 169 215 270 328 392
#
# _framework density 21.605830000000001
#
# number of rings (size 3 to 8) (size 9 to 14) (size 15 to 20)
#    0.000    1.571    2.857    1.714    0.000    8.571 
#    0.000    3.571    0.000    0.000    0.000    0.000 
#    0.000    0.000    0.000    0.000    0.000    0.000 
#
# Total GULP energy -155900.997923 kJ/mol
# GULP energy per Si atom -5567.892783 kJ/mol
# Density = 2.155665 g / cm^3
# Si number density = 21.605830 Si / 1000 Ang^3
#
#
#
# Elastic Constant Matrix: (Units=GPa)
#
#
# Indices 1 2 3 4 5 6 
#
# 1 91.9059 19.4024 18.6898 0.0000 0.0000 0.0000
# 2 19.4024 111.9921 8.8229 0.0000 0.0000 0.0000
# 3 18.6898 8.8229 67.1499 0.0000 0.0000 0.0000
# 4 0.0000 0.0000 0.0000 -2.9983 0.0000 0.0000
# 5 0.0000 0.0000 0.0000 0.0000 32.9457 0.0000
# 6 0.0000 0.0000 0.0000 0.0000 0.0000 15.3826
#
#
#
# Elastic Compliance Matrix: (Units=1/GPa)
#
#
# Indices 1 2 3 4 5 6 
#
# 1 0.011889 -0.001818 -0.003070 0.000000 0.000000 0.000000
# 2 -0.001818 0.009301 -0.000716 0.000000 0.000000 0.000000
# 3 -0.003070 -0.000716 0.015841 0.000000 0.000000 0.000000
# 4 0.000000 0.000000 0.000000 -0.333523 0.000000 0.000000
# 5 0.000000 0.000000 0.000000 0.000000 0.030353 0.000000
# 6 0.000000 0.000000 0.000000 0.000000 0.000000 0.065008
#
#
# Mechanical properties :
#
#
# Convention : Reuss Voigt Hill
#
# Bulk Modulus (GPa) = 38.72681 40.54201 39.63441
# Shear Modulus (GPa) = -27.57620 24.00820 -1.78400
#
# Velocity S-wave (km/s) = -3.57645 3.33707 -0.90967
# Velocity P-wave (km/s) = 0.95313 5.80113 4.15702
#
# Compressibility (1/GPa) = 0.02582191
#
# Stress axis : x y z
#
# Youngs Moduli (GPa) = 84.11279 107.52057 63.12876
#
# Poissons Ratio (x) = 0.19545 0.19381
# Poissons Ratio (y) = 0.15290 0.04520
# Poissons Ratio (z) = 0.25824 0.07699
#
# Static dielectric constant tensor:
#      x y z
#    x 1.864490 0.000000 0.000000 
#    y 0.000000 1.837540 0.000000 
#    z 0.000000 0.000000 1.771220 
# 
# From -- ./inp_files/13253.got.cif
#   From: 2010.05.17/outbox.cif.g08.bks.cpg/sg42_7_cif.got.tgz:13253.got - 2010.06.03 19:03:34.
