data_PCOD9369242
_publ_section_title
;
Structure prediction by ZEFSAII (Michael W. Deem and Ramdas Pophale) SiO2 
 PCOD9369242
Probable space group: F M M 2
;
_chemical_formula_sum "Si O2"
_cell_formula_units_Z 80
_cell_length_a 31.189104
_cell_length_b 8.431164
_cell_length_c 14.515526
_cell_angle_alpha 90.000000
_cell_angle_beta 90.000000
_cell_angle_gamma 90.000000
_cell_volume 3817.009261
_symmetry_space_group_name_H-M "F M M 2"
_symmetry_group_IT_number 42
_symmetry_cell_setting 'orthorhombic'
loop_
_space_group_symop_operation_xyz
x,y,z
-x,-y,z
-x,y,z
x,-y,z
x,1/2+y,1/2+z
-x,1/2-y,1/2+z
-x,1/2+y,1/2+z
x,1/2-y,1/2+z
1/2+x,y,1/2+z
1/2-x,-y,1/2+z
1/2-x,y,1/2+z
1/2+x,-y,1/2+z
1/2+x,1/2+y,z
1/2-x,1/2-y,z
1/2-x,1/2+y,z
1/2+x,1/2-y,z
loop_
_atom_site_type_symbol
_atom_site_label
_atom_site_fract_x
_atom_site_fract_y
_atom_site_fract_z
Si Si1 0.046728 0.686134 0.395620
Si Si2 0.636426 0.315449 0.380850
Si Si3 0.545800 0.812723 0.171959
Si Si4 0.860767 0.688629 0.177362
Si Si5 0.701785 0.686940 0.029847
O O1 0.050235 0.500000 0.419586
O O2 0.089624 0.776262 0.423380
O O3 0.045942 0.694783 0.283723
O O4 0.000000 0.746589 0.427025
O O5 0.637797 0.500000 0.357473
O O6 0.641526 0.217262 0.286646
O O7 0.673477 0.271142 0.451596
O O8 0.500000 0.741980 0.141504
O O9 0.592313 0.748321 0.144640
O O10 0.545533 0.000000 0.148299
O O11 0.858903 0.500000 0.159154
O O12 0.822631 0.773653 0.124638
O O13 0.701745 0.500000 0.013282
O O14 0.750000 0.750000 0.031210
#
# Coordination Sequence:
#
# PCOD9369242 Si02
#       5
#    16  16  16  16  16
#     4   8  14  28  52  82 117 158 200 241 287 340
#     4  11  22  38  61  91 124 160 200 242 293 353
#     4   7  11  23  48  81 115 151 189 228 273 328
#     4  10  20  38  63  91 122 158 198 241 292 350
#     4  12  26  45  65  87 115 150 196 251 307 360
#
# _framework density 20.958818999999998
#
# number of rings (size 3 to 8) (size 9 to 14) (size 15 to 20)
#    0.000    2.400    0.000    6.600    0.000    1.200 
#    0.000    5.000    0.000    5.400    0.000    0.000 
#    0.000    0.000    0.000    0.000    0.000    0.000 
#
# Total GULP energy -111650.049176 kJ/mol
# GULP energy per Si atom -5582.502459 kJ/mol
# Density = 2.091112 g / cm^3
# Si number density = 20.958819 Si / 1000 Ang^3
#
#
#
# Elastic Constant Matrix: (Units=GPa)
#
#
# Indices 1 2 3 4 5 6 
#
# 1 197.7220 18.3931 26.2695 0.0000 0.0000 0.0000
# 2 18.3931 42.7515 -19.0774 0.0000 0.0000 0.0000
# 3 26.2695 -19.0774 58.8817 0.0000 0.0000 0.0000
# 4 0.0000 0.0000 0.0000 22.1084 0.0000 0.0000
# 5 0.0000 0.0000 0.0000 0.0000 33.1762 0.0000
# 6 0.0000 0.0000 0.0000 0.0000 0.0000 -47.0616
#
#
#
# Elastic Compliance Matrix: (Units=1/GPa)
#
#
# Indices 1 2 3 4 5 6 
#
# 1 0.006017 -0.004426 -0.004118 0.000000 0.000000 0.000000
# 2 -0.004426 0.030601 0.011889 0.000000 0.000000 0.000000
# 3 -0.004118 0.011889 0.022673 0.000000 0.000000 0.000000
# 4 0.000000 0.000000 0.000000 0.045232 0.000000 0.000000
# 5 0.000000 0.000000 0.000000 0.000000 0.030142 0.000000
# 6 0.000000 0.000000 0.000000 0.000000 0.000000 -0.021249
#
#
# Mechanical properties :
#
#
# Convention : Reuss Voigt Hill
#
# Bulk Modulus (GPa) = 15.15631 38.94728 27.05179
# Shear Modulus (GPa) = 38.84445 19.89592 29.37019
#
# Velocity S-wave (km/s) = 4.30975 3.08439 3.74749
# Velocity P-wave (km/s) = 5.65795 5.59533 5.62673
#
# Compressibility (1/GPa) = 0.06597913
#
# Stress axis : x y z
#
# Youngs Moduli (GPa) = 166.20916 32.67900 44.10613
#
# Poissons Ratio (x) = 0.14464 0.18164
# Poissons Ratio (y) = 0.73568 -0.52439
# Poissons Ratio (z) = 0.68450 -0.38853
#
# Static dielectric constant tensor:
#      x y z
#    x 1.767850 0.000000 0.000000 
#    y 0.000000 1.695000 0.000000 
#    z 0.000000 0.000000 1.775490 
# 
# From -- ./inp_files/18189.got.cif
#   From: 2010.05.17/outbox.cif.g08.bks.cpg/sg42_10_cif.got.tgz:18189.got - 2010.06.03 19:03:34.
