data_PCOD9369549
_publ_section_title
;
Structure prediction by ZEFSAII (Michael W. Deem and Ramdas Pophale) SiO2 
 PCOD9369549
Probable space group: F M M 2
;
_chemical_formula_sum "Si O2"
_cell_formula_units_Z 72
_cell_length_a 8.255303
_cell_length_b 15.241763
_cell_length_c 24.947868
_cell_angle_alpha 90.000000
_cell_angle_beta 90.000000
_cell_angle_gamma 90.000000
_cell_volume 3139.074767
_symmetry_space_group_name_H-M "F M M 2"
_symmetry_group_IT_number 42
_symmetry_cell_setting 'orthorhombic'
loop_
_space_group_symop_operation_xyz
x,y,z
-x,-y,z
-x,y,z
x,-y,z
x,1/2+y,1/2+z
-x,1/2-y,1/2+z
-x,1/2+y,1/2+z
x,1/2-y,1/2+z
1/2+x,y,1/2+z
1/2-x,-y,1/2+z
1/2-x,y,1/2+z
1/2+x,-y,1/2+z
1/2+x,1/2+y,z
1/2-x,1/2-y,z
1/2-x,1/2+y,z
1/2+x,1/2-y,z
loop_
_atom_site_type_symbol
_atom_site_label
_atom_site_fract_x
_atom_site_fract_y
_atom_site_fract_z
Si Si1 0.313426 0.345647 0.570180
Si Si2 0.260963 0.000000 0.495523
Si Si3 0.195736 0.654725 0.412966
Si Si4 0.684493 0.894053 0.680394
Si Si5 0.808455 0.605437 0.295001
O O1 0.500000 0.358750 0.553959
O O2 0.250000 0.250000 0.555982
O O3 0.216885 0.422913 0.541248
O O4 0.297313 0.356622 0.634129
O O5 0.239771 0.923006 0.449774
O O6 0.250000 0.750000 0.431915
O O7 0.250308 0.644111 0.351212
O O8 0.000000 0.646182 0.414352
O O9 0.500000 0.871377 0.666547
O O10 0.723620 0.864162 0.740623
O O11 0.701660 0.000000 0.680289
O O12 0.788909 0.500000 0.298894
O O13 0.000000 0.623213 0.289917
#
# Coordination Sequence:
#
# PCOD9369549 Si02
#       5
#    16   8  16  16  16
#     4  12  27  47  71 103 136 178 229 281 342 408
#     4  12  26  46  72  96 130 178 230 284 336 398
#     4  11  25  44  70 102 136 179 229 280 342 405
#     4  10  21  39  67 103 139 179 223 276 340 404
#     4   9  18  38  67  97 133 180 227 274 335 407
#
# _framework density 22.936693999999999
#
# number of rings (size 3 to 8) (size 9 to 14) (size 15 to 20)
#    0.000    1.333    2.222    2.667    0.000    9.778 
#    0.000    2.222    0.000    0.000    0.000    0.000 
#    0.000    0.000    0.000    0.000    0.000    0.000 
#
# Total GULP energy -100218.566934 kJ/mol
# GULP energy per Si atom -5567.698163 kJ/mol
# Density = 2.288449 g / cm^3
# Si number density = 22.936694 Si / 1000 Ang^3
#
#
#
# Elastic Constant Matrix: (Units=GPa)
#
#
# Indices 1 2 3 4 5 6 
#
# 1 28.9387 19.0756 6.8290 0.0000 0.0000 0.0000
# 2 19.0756 153.8600 48.0324 0.0000 0.0000 0.0000
# 3 6.8290 48.0324 156.9082 0.0000 0.0000 0.0000
# 4 0.0000 0.0000 0.0000 -63.0784 0.0000 0.0000
# 5 0.0000 0.0000 0.0000 0.0000 -42.5401 0.0000
# 6 0.0000 0.0000 0.0000 0.0000 0.0000 4.9604
#
#
#
# Elastic Compliance Matrix: (Units=1/GPa)
#
#
# Indices 1 2 3 4 5 6 
#
# 1 0.037639 -0.004594 -0.000232 0.000000 0.000000 0.000000
# 2 -0.004594 0.007747 -0.002172 0.000000 0.000000 0.000000
# 3 -0.000232 -0.002172 0.007048 0.000000 0.000000 0.000000
# 4 0.000000 0.000000 0.000000 -0.015853 0.000000 0.000000
# 5 0.000000 0.000000 0.000000 0.000000 -0.023507 0.000000
# 6 0.000000 0.000000 0.000000 0.000000 0.000000 0.201596
#
#
# Mechanical properties :
#
#
# Convention : Reuss Voigt Hill
#
# Bulk Modulus (GPa) = 26.01533 54.17564 40.09548
# Shear Modulus (GPa) = 20.70588 -2.41363 9.14612
#
# Velocity S-wave (km/s) = 3.00782 -1.02693 1.99905
# Velocity P-wave (km/s) = 4.84041 4.71856 4.77987
#
# Compressibility (1/GPa) = 0.03843887
#
# Stress axis : x y z
#
# Youngs Moduli (GPa) = 26.56832 129.08386 141.88462
#
# Poissons Ratio (x) = 0.59302 0.03289
# Poissons Ratio (y) = 0.12206 0.30810
# Poissons Ratio (z) = 0.00616 0.28031
#
# Static dielectric constant tensor:
#      x y z
#    x 1.876230 0.000000 0.000000 
#    y 0.000000 1.823290 0.000000 
#    z 0.000000 0.000000 1.843130 
# 
# From -- ./inp_files/29758.got.cif
#   From: 2010.05.17/outbox.cif.g08.bks.cpg/sg42_15_cif.got.tgz:29758.got - 2010.06.03 19:03:34.
