data_PCOD9369115
_publ_section_title
;
Structure prediction by ZEFSAII (Michael W. Deem and Ramdas Pophale) SiO2 
 PCOD9369115
Probable space group: F M M 2
;
_chemical_formula_sum "Si O2"
_cell_formula_units_Z 112
_cell_length_a 14.957259
_cell_length_b 15.410994
_cell_length_c 22.343189
_cell_angle_alpha 90.000000
_cell_angle_beta 90.000000
_cell_angle_gamma 90.000000
_cell_volume 5150.244234
_symmetry_space_group_name_H-M "F M M 2"
_symmetry_group_IT_number 42
_symmetry_cell_setting 'orthorhombic'
loop_
_space_group_symop_operation_xyz
x,y,z
-x,-y,z
-x,y,z
x,-y,z
x,1/2+y,1/2+z
-x,1/2-y,1/2+z
-x,1/2+y,1/2+z
x,1/2-y,1/2+z
1/2+x,y,1/2+z
1/2-x,-y,1/2+z
1/2-x,y,1/2+z
1/2+x,-y,1/2+z
1/2+x,1/2+y,z
1/2-x,1/2-y,z
1/2-x,1/2+y,z
1/2+x,1/2-y,z
loop_
_atom_site_type_symbol
_atom_site_label
_atom_site_fract_x
_atom_site_fract_y
_atom_site_fract_z
Si Si1 0.260470 0.597814 0.171380
Si Si2 0.101890 0.831560 0.602336
Si Si3 0.901502 0.102460 0.271961
Si Si4 0.153783 0.227275 0.374525
Si Si5 0.103968 0.131305 0.066449
Si Si6 0.892771 0.901638 0.474298
Si Si7 0.106130 0.593529 0.432129
O O1 0.227353 0.500000 0.182330
O O2 0.176301 0.655649 0.152708
O O3 0.321287 0.624798 0.227286
O O4 0.329822 0.595824 0.116201
O O5 0.104248 0.734679 0.576225
O O6 0.123917 0.891207 0.544960
O O7 0.000000 0.849658 0.622297
O O8 0.897449 0.166353 0.328187
O O9 0.000000 0.111650 0.242837
O O10 0.892905 0.000000 0.288697
O O11 0.250000 0.250000 0.348874
O O12 0.158415 0.169124 0.434860
O O13 0.118441 0.321594 0.392357
O O14 0.000000 0.102935 0.073064
O O15 0.138120 0.109161 0.000083
O O16 0.000000 0.885489 0.466121
O O17 0.873382 0.000000 0.455324
O O18 0.141294 0.500000 0.409749
O O19 0.000000 0.586405 0.438159
#
# Coordination Sequence:
#
# PCOD9369115 Si02
#       7
#    16  16  16  16  16  16  16
#     4  11  23  38  63  96 133 167 213 273 327 392
#     4  10  21  37  60  93 136 177 215 263 323 393
#     4  10  23  46  72  95 124 171 230 285 333 385
#     4  12  25  38  62  94 130 171 212 275 329 392
#     4  10  20  36  59  88 129 175 218 265 320 383
#     4  10  20  37  62  91 126 171 220 268 321 383
#     4  10  21  38  60  89 129 171 211 261 326 396
#
# _framework density 21.746542000000002
#
# number of rings (size 3 to 8) (size 9 to 14) (size 15 to 20)
#    0.000    1.571    1.429    3.429    2.000    5.714 
#    0.000    0.000    0.000    1.714    0.000    0.000 
#    0.000    0.000    0.000    0.000    0.000    0.000 
#
# Total GULP energy -156458.318076 kJ/mol
# GULP energy per Si atom -5587.797074 kJ/mol
# Density = 2.169705 g / cm^3
# Si number density = 21.746542 Si / 1000 Ang^3
#
#
#
# Elastic Constant Matrix: (Units=GPa)
#
#
# Indices 1 2 3 4 5 6 
#
# 1 87.9707 37.0566 36.2247 0.0000 0.0000 0.0000
# 2 37.0566 130.6928 44.7211 0.0000 0.0000 0.0000
# 3 36.2247 44.7211 79.4941 0.0000 0.0000 0.0000
# 4 0.0000 0.0000 0.0000 30.3186 0.0000 0.0000
# 5 0.0000 0.0000 0.0000 0.0000 21.4254 0.0000
# 6 0.0000 0.0000 0.0000 0.0000 0.0000 -3.4576
#
#
#
# Elastic Compliance Matrix: (Units=1/GPa)
#
#
# Indices 1 2 3 4 5 6 
#
# 1 0.014529 -0.002296 -0.005329 0.000000 0.000000 0.000000
# 2 -0.002296 0.009838 -0.004489 0.000000 0.000000 0.000000
# 3 -0.005329 -0.004489 0.017533 0.000000 0.000000 0.000000
# 4 0.000000 0.000000 0.000000 0.032983 0.000000 0.000000
# 5 0.000000 0.000000 0.000000 0.000000 0.046674 0.000000
# 6 0.000000 0.000000 0.000000 0.000000 0.000000 -0.289216
#
#
# Mechanical properties :
#
#
# Convention : Reuss Voigt Hill
#
# Bulk Modulus (GPa) = 56.58259 59.35136 57.96697
# Shear Modulus (GPa) = -36.35283 21.66762 -7.34261
#
# Velocity S-wave (km/s) = -4.09303 3.15996 -1.83950
# Velocity P-wave (km/s) = 1.93350 6.37694 4.71189
#
# Compressibility (1/GPa) = 0.01767328
#
# Stress axis : x y z
#
# Youngs Moduli (GPa) = 68.82790 101.64187 57.03502
#
# Poissons Ratio (x) = 0.23337 0.30394
# Poissons Ratio (y) = 0.15803 0.25601
# Poissons Ratio (z) = 0.36679 0.45623
#
# Static dielectric constant tensor:
#      x y z
#    x 1.813030 0.000000 0.000000 
#    y 0.000000 1.928380 0.000000 
#    z 0.000000 0.000000 1.765160 
# 
# From -- ./inp_files/29465.got.cif
#   From: 2010.05.17/outbox.cif.g08.bks.cpg/sg42_15_cif.got.tgz:29465.got - 2010.06.03 19:03:34.
