data_PCOD9369460
_publ_section_title
;
Structure prediction by ZEFSAII (Michael W. Deem and Ramdas Pophale) SiO2 
 PCOD9369460
Probable space group: F M M 2
;
_chemical_formula_sum "Si O2"
_cell_formula_units_Z 116
_cell_length_a 30.869390
_cell_length_b 8.064362
_cell_length_c 25.504236
_cell_angle_alpha 90.000000
_cell_angle_beta 90.000000
_cell_angle_gamma 90.000000
_cell_volume 6349.073878
_symmetry_space_group_name_H-M "F M M 2"
_symmetry_group_IT_number 42
_symmetry_cell_setting 'orthorhombic'
loop_
_space_group_symop_operation_xyz
x,y,z
-x,-y,z
-x,y,z
x,-y,z
x,1/2+y,1/2+z
-x,1/2-y,1/2+z
-x,1/2+y,1/2+z
x,1/2-y,1/2+z
1/2+x,y,1/2+z
1/2-x,-y,1/2+z
1/2-x,y,1/2+z
1/2+x,-y,1/2+z
1/2+x,1/2+y,z
1/2-x,1/2-y,z
1/2-x,1/2+y,z
1/2+x,1/2-y,z
loop_
_atom_site_type_symbol
_atom_site_label
_atom_site_fract_x
_atom_site_fract_y
_atom_site_fract_z
Si Si1 0.000000 0.000000 0.488695
Si Si2 0.701014 0.198645 0.595654
Si Si3 0.297808 0.198211 0.395646
Si Si4 0.048435 0.805034 0.346512
Si Si5 0.636632 0.303311 0.806167
Si Si6 0.799005 0.698501 0.715799
Si Si7 0.153673 0.691585 0.994102
Si Si8 0.061732 0.812840 0.963169
O O1 0.963026 0.151797 0.486216
O O2 0.750000 0.250000 0.582179
O O3 0.693465 0.254395 0.655695
O O4 0.669089 0.272700 0.552804
O O5 0.697772 0.000000 0.594028
O O6 0.250000 0.250000 0.378129
O O7 0.334669 0.259581 0.355404
O O8 0.308314 0.265533 0.453189
O O9 0.299727 0.000000 0.396735
O O10 0.088714 0.772545 0.308550
O O11 0.056035 0.706295 0.400369
O O12 0.000000 0.765412 0.326311
O O13 0.048275 0.000000 0.360748
O O14 0.631687 0.500000 0.811731
O O15 0.665001 0.266707 0.754985
O O16 0.800855 0.500000 0.717065
O O17 0.750000 0.750000 0.730802
O O18 0.142781 0.500000 0.987797
O O19 0.111973 0.796419 0.977911
O O20 0.047681 0.000000 0.978249
#
# Coordination Sequence:
#
# PCOD9369460 Si02
#       8
#     4  16  16  16  16  16  16  16
#     4  12  22  40  56  90 116 160 202 244 300 358
#     4  10  21  38  59  84 113 152 198 247 300 349
#     4  11  23  36  51  77 114 159 195 233 288 351
#     4  11  21  37  57  85 117 153 197 243 296 354
#     4  11  23  36  56  84 116 153 195 239 295 354
#     4  10  21  38  60  84 114 151 196 248 297 353
#     4  12  23  37  56  84 118 155 197 243 294 357
#     4  12  22  37  59  85 121 157 197 248 298 358
#
# _framework density 18.270382000000001
#
# number of rings (size 3 to 8) (size 9 to 14) (size 15 to 20)
#    0.000    0.966    3.448    4.345    0.000    5.241 
#    0.000    0.000    0.000    0.000    1.793    0.000 
#    0.000    0.000    0.000    0.000    0.000    0.000 
#
# Total GULP energy -161732.852387 kJ/mol
# GULP energy per Si atom -5576.994910 kJ/mol
# Density = 1.822880 g / cm^3
# Si number density = 18.270382 Si / 1000 Ang^3
#
#
#
# Elastic Constant Matrix: (Units=GPa)
#
#
# Indices 1 2 3 4 5 6 
#
# 1 139.1747 26.9263 49.1377 0.0000 -0.0001 0.0002
# 2 26.9263 96.6173 12.5449 0.0000 0.0000 0.0002
# 3 49.1377 12.5449 63.1399 0.0000 0.0000 0.0000
# 4 0.0000 0.0000 0.0000 22.2958 0.0000 0.0000
# 5 -0.0001 0.0000 0.0000 0.0000 41.5366 0.0001
# 6 0.0002 0.0002 0.0000 0.0000 0.0001 24.7911
#
#
#
# Elastic Compliance Matrix: (Units=1/GPa)
#
#
# Indices 1 2 3 4 5 6 
#
# 1 0.010225 -0.001864 -0.007587 0.000000 0.000000 0.000000
# 2 -0.001864 0.010964 -0.000727 0.000000 0.000000 0.000000
# 3 -0.007587 -0.000727 0.021887 0.000000 0.000000 0.000000
# 4 0.000000 0.000000 0.000000 0.044852 0.000000 0.000000
# 5 0.000000 0.000000 0.000000 0.000000 0.024075 0.000000
# 6 0.000000 0.000000 0.000000 0.000000 0.000000 0.040337
#
#
# Mechanical properties :
#
#
# Convention : Reuss Voigt Hill
#
# Bulk Modulus (GPa) = 44.01752 52.90552 48.46152
# Shear Modulus (GPa) = 27.73637 31.74624 29.74131
#
# Velocity S-wave (km/s) = 3.90051 4.17295 4.03903
# Velocity P-wave (km/s) = 6.66558 7.22758 6.95226
#
# Compressibility (1/GPa) = 0.02271823
#
# Stress axis : x y z
#
# Youngs Moduli (GPa) = 97.80424 91.20630 45.69007
#
# Poissons Ratio (x) = 0.17005 0.34663
# Poissons Ratio (y) = 0.18235 0.03324
# Poissons Ratio (z) = 0.74201 0.06635
#
# Static dielectric constant tensor:
#      x y z
#    x 1.638960 0.000000 0.000000 
#    y 0.000000 1.647010 0.000000 
#    z 0.000000 0.000000 1.614060 
# 
# From -- ./inp_files/30896.got.cif
#   From: 2010.05.17/outbox.cif.g08.bks.cpg/sg42_16_cif.got.tgz:30896.got - 2010.06.03 19:03:34.
