data_PCOD9369343
_publ_section_title
;
Structure prediction by ZEFSAII (Michael W. Deem and Ramdas Pophale) SiO2 
 PCOD9369343
Probable space group: F M M 2
;
_chemical_formula_sum "Si O2"
_cell_formula_units_Z 104
_cell_length_a 25.188301
_cell_length_b 9.534391
_cell_length_c 19.927469
_cell_angle_alpha 90.000000
_cell_angle_beta 90.000000
_cell_angle_gamma 90.000000
_cell_volume 4785.683517
_symmetry_space_group_name_H-M "F M M 2"
_symmetry_group_IT_number 42
_symmetry_cell_setting 'orthorhombic'
loop_
_space_group_symop_operation_xyz
x,y,z
-x,-y,z
-x,y,z
x,-y,z
x,1/2+y,1/2+z
-x,1/2-y,1/2+z
-x,1/2+y,1/2+z
x,1/2-y,1/2+z
1/2+x,y,1/2+z
1/2-x,-y,1/2+z
1/2-x,y,1/2+z
1/2+x,-y,1/2+z
1/2+x,1/2+y,z
1/2-x,1/2-y,z
1/2-x,1/2+y,z
1/2+x,1/2-y,z
loop_
_atom_site_type_symbol
_atom_site_label
_atom_site_fract_x
_atom_site_fract_y
_atom_site_fract_z
Si Si1 0.917851 0.834994 0.883020
Si Si2 0.941230 0.667882 0.749890
Si Si3 0.742423 0.500000 0.749071
Si Si4 0.327393 0.164645 0.061115
Si Si5 0.323757 0.253385 0.211105
Si Si6 0.298849 0.665891 0.927442
Si Si7 0.942900 0.340707 0.011914
O O1 0.939057 0.746760 0.821112
O O2 0.854338 0.815639 0.889943
O O3 0.939465 0.770053 0.952081
O O4 0.929504 0.000000 0.877333
O O5 0.937826 0.500000 0.758625
O O6 0.886757 0.716731 0.714595
O O7 0.000000 0.697550 0.719381
O O8 0.695783 0.379600 0.752528
O O9 0.788374 0.380536 0.736319
O O10 0.310080 0.216131 0.133646
O O11 0.312461 0.000000 0.051502
O O12 0.307209 0.262441 0.000650
O O13 0.391337 0.173895 0.057411
O O14 0.287059 0.500000 0.931553
O O15 0.250000 0.750000 0.895641
O O16 0.939680 0.500000 0.983392
O O17 0.000000 0.327310 0.046287
#
# Coordination Sequence:
#
# PCOD9369343 Si02
#       7
#    16  16   8  16  16  16  16
#     4  10  22  40  59  88 118 155 204 252 309 365
#     4  11  25  45  67  90 123 163 208 259 315 379
#     4  10  24  42  66  86 126 164 208 260 302 368
#     4  10  21  35  59  88 123 157 202 247 300 369
#     4  11  23  43  63  96 122 166 209 254 313 369
#     4  10  22  37  57  86 122 159 199 248 303 363
#     4   9  18  35  58  85 119 159 199 245 301 363
#
# _framework density 21.731483000000001
#
# number of rings (size 3 to 8) (size 9 to 14) (size 15 to 20)
#    0.000    1.846    1.538    1.385    4.308    4.923 
#    2.769    0.000    0.000    0.000    0.000    0.000 
#    0.000    0.000    0.000    0.000    0.000    0.000 
#
# Total GULP energy -144753.111275 kJ/mol
# GULP energy per Si atom -5567.427357 kJ/mol
# Density = 2.168202 g / cm^3
# Si number density = 21.731483 Si / 1000 Ang^3
#
#
#
# Elastic Constant Matrix: (Units=GPa)
#
#
# Indices 1 2 3 4 5 6 
#
# 1 185.5386 67.0160 16.4351 0.0000 0.0000 0.0000
# 2 67.0160 154.5406 13.1450 0.0000 0.0000 0.0000
# 3 16.4351 13.1450 48.5151 0.0000 0.0000 0.0000
# 4 0.0000 0.0000 0.0000 -89.2251 0.0000 0.0000
# 5 0.0000 0.0000 0.0000 0.0000 -15.6257 0.0000
# 6 0.0000 0.0000 0.0000 0.0000 0.0000 37.2499
#
#
#
# Elastic Compliance Matrix: (Units=1/GPa)
#
#
# Indices 1 2 3 4 5 6 
#
# 1 0.006492 -0.002690 -0.001470 0.000000 0.000000 0.000000
# 2 -0.002690 0.007738 -0.001185 0.000000 0.000000 0.000000
# 3 -0.001470 -0.001185 0.021431 0.000000 0.000000 0.000000
# 4 0.000000 0.000000 0.000000 -0.011208 0.000000 0.000000
# 5 0.000000 0.000000 0.000000 0.000000 -0.063997 0.000000
# 6 0.000000 0.000000 0.000000 0.000000 0.000000 0.026846
#
#
# Mechanical properties :
#
#
# Convention : Reuss Voigt Hill
#
# Bulk Modulus (GPa) = 40.04828 64.64296 52.34562
# Shear Modulus (GPa) = 791.55419 5.94635 398.75027
#
# Velocity S-wave (km/s) = 19.10586 1.65597 13.56053
# Velocity P-wave (km/s) = 22.47622 5.78508 16.41109
#
# Compressibility (1/GPa) = 0.02496986
#
# Stress axis : x y z
#
# Youngs Moduli (GPa) = 154.04599 129.23037 46.66058
#
# Poissons Ratio (x) = 0.34763 0.06860
# Poissons Ratio (y) = 0.41438 0.05531
# Poissons Ratio (z) = 0.22649 0.15318
#
# Static dielectric constant tensor:
#      x y z
#    x 1.845000 0.000000 0.000000 
#    y 0.000000 1.739140 0.000000 
#    z 0.000000 0.000000 1.821510 
# 
# From -- ./inp_files/27096.got.cif
#   From: 2010.05.17/outbox.cif.g08.bks.cpg/sg42_14_cif.got.tgz:27096.got - 2010.06.03 19:03:34.
