data_PCOD9369684
_publ_section_title
;
Structure prediction by ZEFSAII (Michael W. Deem and Ramdas Pophale) SiO2 
 PCOD9369684
Probable space group: F M M 2
;
_chemical_formula_sum "Si O2"
_cell_formula_units_Z 64
_cell_length_a 8.596970
_cell_length_b 14.986233
_cell_length_c 25.486173
_cell_angle_alpha 90.000000
_cell_angle_beta 90.000000
_cell_angle_gamma 90.000000
_cell_volume 3283.541568
_symmetry_space_group_name_H-M "F M M 2"
_symmetry_group_IT_number 42
_symmetry_cell_setting 'orthorhombic'
loop_
_space_group_symop_operation_xyz
x,y,z
-x,-y,z
-x,y,z
x,-y,z
x,1/2+y,1/2+z
-x,1/2-y,1/2+z
-x,1/2+y,1/2+z
x,1/2-y,1/2+z
1/2+x,y,1/2+z
1/2-x,-y,1/2+z
1/2-x,y,1/2+z
1/2+x,-y,1/2+z
1/2+x,1/2+y,z
1/2-x,1/2-y,z
1/2-x,1/2+y,z
1/2+x,1/2-y,z
loop_
_atom_site_type_symbol
_atom_site_label
_atom_site_fract_x
_atom_site_fract_y
_atom_site_fract_z
Si Si1 0.185440 0.850943 0.051110
Si Si2 0.314667 0.000000 0.975124
Si Si3 0.686952 0.351429 0.660827
Si Si4 0.311144 0.000000 0.357683
Si Si5 0.687381 0.149896 0.276383
O O1 0.250000 0.750000 0.046211
O O2 0.241231 0.889018 0.107564
O O3 0.000000 0.848131 0.050130
O O4 0.249070 0.913752 0.005452
O O5 0.259356 0.000000 0.915197
O O6 0.500000 0.000000 0.978113
O O7 0.500000 0.352609 0.655888
O O8 0.750000 0.250000 0.662319
O O9 0.730095 0.387487 0.718407
O O10 0.263029 0.085750 0.323283
O O11 0.500000 0.000000 0.361457
O O12 0.500000 0.153838 0.276811
O O13 0.750000 0.250000 0.281961
#
# Coordination Sequence:
#
# PCOD9369684 Si02
#       5
#    16   8  16   8  16
#     4  11  22  39  62  89 119 154 191 237 291 346
#     4  12  26  43  60  83 113 152 200 248 291 342
#     4   9  16  30  54  86 118 150 186 229 280 341
#     4  10  22  41  58  79 111 150 194 240 285 338
#     4   9  19  35  58  84 115 151 187 229 283 338
#
# _framework density 19.491150000000001
#
# number of rings (size 3 to 8) (size 9 to 14) (size 15 to 20)
#    0.000    2.000    0.000    5.625    0.000    4.000 
#    0.000    5.000    0.000    0.000    0.000    0.000 
#    0.000    0.000    0.000    0.000    0.000    0.000 
#
# Total GULP energy -89333.849091 kJ/mol
# GULP energy per Si atom -5583.365568 kJ/mol
# Density = 1.944679 g / cm^3
# Si number density = 19.491150 Si / 1000 Ang^3
#
#
#
# Elastic Constant Matrix: (Units=GPa)
#
#
# Indices 1 2 3 4 5 6 
#
# 1 112.9009 40.9284 75.3762 0.0000 0.0000 0.0000
# 2 40.9284 113.1136 91.4939 0.0000 0.0000 0.0000
# 3 75.3762 91.4939 226.5168 0.0000 0.0000 0.0000
# 4 0.0000 0.0000 0.0000 35.9251 0.0000 0.0000
# 5 0.0000 0.0000 0.0000 0.0000 35.8976 0.0000
# 6 0.0000 0.0000 0.0000 0.0000 0.0000 13.8016
#
#
#
# Elastic Compliance Matrix: (Units=1/GPa)
#
#
# Indices 1 2 3 4 5 6 
#
# 1 0.011577 -0.001594 -0.003209 0.000000 0.000000 0.000000
# 2 -0.001594 0.013350 -0.004862 0.000000 0.000000 0.000000
# 3 -0.003209 -0.004862 0.007446 0.000000 0.000000 0.000000
# 4 0.000000 0.000000 0.000000 0.027836 0.000000 0.000000
# 5 0.000000 0.000000 0.000000 0.000000 0.027857 0.000000
# 6 0.000000 0.000000 0.000000 0.000000 0.000000 0.072456
#
#
# Mechanical properties :
#
#
# Convention : Reuss Voigt Hill
#
# Bulk Modulus (GPa) = 76.65868 96.45870 86.55869
# Shear Modulus (GPa) = 27.14457 33.44038 30.29248
#
# Velocity S-wave (km/s) = 3.73589 4.14656 3.94657
# Velocity P-wave (km/s) = 7.61738 8.51594 8.07916
#
# Compressibility (1/GPa) = 0.01304484
#
# Stress axis : x y z
#
# Youngs Moduli (GPa) = 86.37572 74.90636 134.29465
#
# Poissons Ratio (x) = 0.11937 0.43093
# Poissons Ratio (y) = 0.13764 0.65294
# Poissons Ratio (z) = 0.27717 0.36420
#
# Static dielectric constant tensor:
#      x y z
#    x 1.655220 0.000000 0.000000 
#    y 0.000000 1.681420 0.000000 
#    z 0.000000 0.000000 1.692830 
# 
# From -- ./inp_files/23166.got.cif
#   From: 2010.05.17/outbox.cif.g08.bks.cpg/sg42_12_cif.got.tgz:23166.got - 2010.06.03 19:03:34.
