data_PCOD9369163
_publ_section_title
;
Structure prediction by ZEFSAII (Michael W. Deem and Ramdas Pophale) SiO2 
 PCOD9369163
Probable space group: F M M 2
;
_chemical_formula_sum "Si O2"
_cell_formula_units_Z 112
_cell_length_a 18.351487
_cell_length_b 22.902475
_cell_length_c 13.642108
_cell_angle_alpha 90.000000
_cell_angle_beta 90.000000
_cell_angle_gamma 90.000000
_cell_volume 5733.702582
_symmetry_space_group_name_H-M "F M M 2"
_symmetry_group_IT_number 42
_symmetry_cell_setting 'orthorhombic'
loop_
_space_group_symop_operation_xyz
x,y,z
-x,-y,z
-x,y,z
x,-y,z
x,1/2+y,1/2+z
-x,1/2-y,1/2+z
-x,1/2+y,1/2+z
x,1/2-y,1/2+z
1/2+x,y,1/2+z
1/2-x,-y,1/2+z
1/2-x,y,1/2+z
1/2+x,-y,1/2+z
1/2+x,1/2+y,z
1/2-x,1/2-y,z
1/2-x,1/2+y,z
1/2+x,1/2-y,z
loop_
_atom_site_type_symbol
_atom_site_label
_atom_site_fract_x
_atom_site_fract_y
_atom_site_fract_z
Si Si1 0.332256 0.567698 0.230650
Si Si2 0.840320 0.798710 0.945646
Si Si3 0.415313 0.402289 0.030555
Si Si4 0.418356 0.065784 0.315582
Si Si5 0.586618 0.432105 0.434690
Si Si6 0.806450 0.151344 0.739606
Si Si7 0.182572 0.327571 0.020057
O O1 0.304646 0.500000 0.231368
O O2 0.369790 0.580061 0.125799
O O3 0.389341 0.572243 0.320355
O O4 0.269828 0.616425 0.248058
O O5 0.828232 0.807508 0.829988
O O6 0.903786 0.835052 0.998297
O O7 0.846886 0.731027 0.969816
O O8 0.766783 0.828975 0.987349
O O9 0.500000 0.416175 0.047980
O O10 0.391421 0.432838 0.928517
O O11 0.500000 0.090704 0.317712
O O12 0.367038 0.101470 0.246230
O O13 0.421436 0.000000 0.282185
O O14 0.500000 0.420836 0.445947
O O15 0.600419 0.500000 0.464453
O O16 0.636443 0.384692 0.491106
O O17 0.813692 0.181923 0.636051
#
# Coordination Sequence:
#
# PCOD9369163 Si02
#       7
#    16  16  16  16  16  16  16
#     4  11  21  35  60  91 125 165 207 253 305 366
#     4  10  23  41  62  90 121 161 202 258 306 363
#     4  10  20  37  59  89 125 161 205 253 305 360
#     4   9  19  36  58  86 124 164 202 251 304 357
#     4  10  23  42  62  90 129 166 204 253 310 372
#     4  11  22  39  61  92 119 157 206 254 304 368
#     4  11  23  41  65  91 119 162 202 253 310 367
#
# _framework density 19.533625000000001
#
# number of rings (size 3 to 8) (size 9 to 14) (size 15 to 20)
#    0.000    1.714    2.857    1.286    0.000    7.143 
#    0.000    1.429    0.000    0.000    0.000    0.000 
#    0.000    0.000    0.000    0.000    0.000    0.000 
#
# Total GULP energy -156156.638083 kJ/mol
# GULP energy per Si atom -5577.022789 kJ/mol
# Density = 1.948917 g / cm^3
# Si number density = 19.533625 Si / 1000 Ang^3
#
#
#
# Elastic Constant Matrix: (Units=GPa)
#
#
# Indices 1 2 3 4 5 6 
#
# 1 34.0187 27.0454 1.6175 0.0000 0.0000 0.0000
# 2 27.0454 99.5622 22.1357 0.0000 0.0000 0.0000
# 3 1.6175 22.1357 86.9441 0.0000 0.0000 0.0000
# 4 0.0000 0.0000 0.0000 -0.4852 0.0000 0.0000
# 5 0.0000 0.0000 0.0000 0.0000 19.8475 0.0000
# 6 0.0000 0.0000 0.0000 0.0000 0.0000 22.7214
#
#
#
# Elastic Compliance Matrix: (Units=1/GPa)
#
#
# Indices 1 2 3 4 5 6 
#
# 1 0.037827 -0.010726 0.002027 0.000000 0.000000 0.000000
# 2 -0.010726 0.013688 -0.003285 0.000000 0.000000 0.000000
# 3 0.002027 -0.003285 0.012300 0.000000 0.000000 0.000000
# 4 0.000000 0.000000 0.000000 -2.060818 0.000000 0.000000
# 5 0.000000 0.000000 0.000000 0.000000 0.050384 0.000000
# 6 0.000000 0.000000 0.000000 0.000000 0.000000 0.044011
#
#
# Mechanical properties :
#
#
# Convention : Reuss Voigt Hill
#
# Bulk Modulus (GPa) = 25.09636 35.79134 30.44385
# Shear Modulus (GPa) = -2.68045 19.73182 8.52568
#
# Velocity S-wave (km/s) = -1.17269 3.18173 2.09143
# Velocity P-wave (km/s) = 3.32296 5.64452 4.63156
#
# Compressibility (1/GPa) = 0.03984642
#
# Stress axis : x y z
#
# Youngs Moduli (GPa) = 26.43640 73.05631 81.29826
#
# Poissons Ratio (x) = 0.78360 -0.16480
# Poissons Ratio (y) = 0.28356 0.26710
# Poissons Ratio (z) = -0.05359 0.24002
#
# Static dielectric constant tensor:
#      x y z
#    x 1.695190 0.000000 0.000000 
#    y 0.000000 1.721040 0.000000 
#    z 0.000000 0.000000 1.680620 
# 
# From -- ./inp_files/9687.got.cif
#   From: 2010.05.17/outbox.cif.g08.bks.cpg/sg42_5_cif.got.tgz:9687.got - 2010.06.03 19:03:34.
