data_PCOD9369498
_publ_section_title
;
Structure prediction by ZEFSAII (Michael W. Deem and Ramdas Pophale) SiO2 
 PCOD9369498
Probable space group: F M M 2
;
_chemical_formula_sum "Si O2"
_cell_formula_units_Z 112
_cell_length_a 20.818934
_cell_length_b 15.449000
_cell_length_c 16.044748
_cell_angle_alpha 90.000000
_cell_angle_beta 90.000000
_cell_angle_gamma 90.000000
_cell_volume 5160.499758
_symmetry_space_group_name_H-M "F M M 2"
_symmetry_group_IT_number 42
_symmetry_cell_setting 'orthorhombic'
loop_
_space_group_symop_operation_xyz
x,y,z
-x,-y,z
-x,y,z
x,-y,z
x,1/2+y,1/2+z
-x,1/2-y,1/2+z
-x,1/2+y,1/2+z
x,1/2-y,1/2+z
1/2+x,y,1/2+z
1/2-x,-y,1/2+z
1/2-x,y,1/2+z
1/2+x,-y,1/2+z
1/2+x,1/2+y,z
1/2-x,1/2-y,z
1/2-x,1/2+y,z
1/2+x,1/2-y,z
loop_
_atom_site_type_symbol
_atom_site_label
_atom_site_fract_x
_atom_site_fract_y
_atom_site_fract_z
Si Si1 0.108970 0.594411 0.916560
Si Si2 0.334235 0.402134 0.981261
Si Si3 0.577117 0.243684 0.712490
Si Si4 0.070518 0.282499 0.394771
Si Si5 0.816071 0.398334 0.669384
Si Si6 0.575897 0.092883 0.097372
Si Si7 0.757912 0.646923 0.833474
O O1 0.082847 0.500000 0.892097
O O2 0.067261 0.679619 0.906031
O O3 0.173221 0.613947 0.866280
O O4 0.119323 0.591508 0.015532
O O5 0.360918 0.500000 0.985667
O O6 0.386923 0.328893 0.963497
O O7 0.290271 0.396063 0.899121
O O8 0.301296 0.385351 0.070996
O O9 0.500000 0.222634 0.716056
O O10 0.596403 0.287114 0.800711
O O11 0.622859 0.162838 0.691875
O O12 0.586687 0.320232 0.647116
O O13 0.000000 0.321549 0.397035
O O14 0.831292 0.500000 0.680588
O O15 0.759670 0.375417 0.735198
O O16 0.500000 0.093838 0.071956
O O17 0.585309 0.000000 0.142337
O O18 0.750000 0.750000 0.842830
#
# Coordination Sequence:
#
# PCOD9369498 Si02
#       7
#    16  16  16  16  16  16  16
#     4  11  21  38  65  93 126 165 209 266 326 384
#     4  11  25  45  68  96 131 175 223 275 335 395
#     4  10  21  38  62  94 134 175 217 269 325 386
#     4  11  23  41  65  98 134 173 219 267 327 394
#     4  11  24  43  67  95 131 173 219 273 333 400
#     4   9  19  36  60  93 130 168 214 266 321 382
#     4  12  24  45  67  93 131 171 216 280 331 391
#
# _framework density 21.703325
#
# number of rings (size 3 to 8) (size 9 to 14) (size 15 to 20)
#    0.000    1.286    2.857    2.571    0.000    4.286 
#    2.571    4.286    0.000    0.000    0.000    0.000 
#    0.000    0.000    0.000    0.000    0.000    0.000 
#
# Total GULP energy -156211.591525 kJ/mol
# GULP energy per Si atom -5578.985412 kJ/mol
# Density = 2.165393 g / cm^3
# Si number density = 21.703325 Si / 1000 Ang^3
#
#
#
# Elastic Constant Matrix: (Units=GPa)
#
#
# Indices 1 2 3 4 5 6 
#
# 1 32.7204 15.8686 22.5542 0.0000 0.0000 0.0000
# 2 15.8686 114.4296 52.6173 0.0000 0.0000 0.0000
# 3 22.5542 52.6173 130.6821 0.0000 0.0000 0.0000
# 4 0.0000 0.0000 0.0000 32.1294 0.0000 0.0000
# 5 0.0000 0.0000 0.0000 0.0000 92.8706 0.0000
# 6 0.0000 0.0000 0.0000 0.0000 0.0000 -18.4476
#
#
#
# Elastic Compliance Matrix: (Units=1/GPa)
#
#
# Indices 1 2 3 4 5 6 
#
# 1 0.035294 -0.002569 -0.005057 0.000000 0.000000 0.000000
# 2 -0.002569 0.010912 -0.003950 0.000000 0.000000 0.000000
# 3 -0.005057 -0.003950 0.010115 0.000000 0.000000 0.000000
# 4 0.000000 0.000000 0.000000 0.031124 0.000000 0.000000
# 5 0.000000 0.000000 0.000000 0.000000 0.010768 0.000000
# 6 0.000000 0.000000 0.000000 0.000000 0.000000 -0.054208
#
#
# Mechanical properties :
#
#
# Convention : Reuss Voigt Hill
#
# Bulk Modulus (GPa) = 30.14897 51.10134 40.62515
# Shear Modulus (GPa) = 63.92804 33.76327 48.84566
#
# Velocity S-wave (km/s) = 5.43317 3.94848 4.74920
# Velocity P-wave (km/s) = 7.29936 6.66212 6.98801
#
# Compressibility (1/GPa) = 0.03316863
#
# Stress axis : x y z
#
# Youngs Moduli (GPa) = 28.33371 91.64587 98.86001
#
# Poissons Ratio (x) = 0.23545 0.49992
# Poissons Ratio (y) = 0.07279 0.39050
# Poissons Ratio (z) = 0.14328 0.36200
#
# Static dielectric constant tensor:
#      x y z
#    x 1.730100 0.000000 0.000000 
#    y 0.000000 1.808090 0.000000 
#    z 0.000000 0.000000 1.845910 
# 
# From -- ./inp_files/16547.got.cif
#   From: 2010.05.17/outbox.cif.g08.bks.cpg/sg42_9_cif.got.tgz:16547.got - 2010.06.03 19:03:34.
