data_PCOD9369480
_publ_section_title
;
Structure prediction by ZEFSAII (Michael W. Deem and Ramdas Pophale) SiO2 
 PCOD9369480
Probable space group: F M M 2
;
_chemical_formula_sum "Si O2"
_cell_formula_units_Z 96
_cell_length_a 25.901352
_cell_length_b 8.861235
_cell_length_c 23.738374
_cell_angle_alpha 90.000000
_cell_angle_beta 90.000000
_cell_angle_gamma 90.000000
_cell_volume 5448.383338
_symmetry_space_group_name_H-M "F M M 2"
_symmetry_group_IT_number 42
_symmetry_cell_setting 'orthorhombic'
loop_
_space_group_symop_operation_xyz
x,y,z
-x,-y,z
-x,y,z
x,-y,z
x,1/2+y,1/2+z
-x,1/2-y,1/2+z
-x,1/2+y,1/2+z
x,1/2-y,1/2+z
1/2+x,y,1/2+z
1/2-x,-y,1/2+z
1/2-x,y,1/2+z
1/2+x,-y,1/2+z
1/2+x,1/2+y,z
1/2-x,1/2-y,z
1/2-x,1/2+y,z
1/2+x,1/2-y,z
loop_
_atom_site_type_symbol
_atom_site_label
_atom_site_fract_x
_atom_site_fract_y
_atom_site_fract_z
Si Si1 0.403292 0.819259 0.365170
Si Si2 0.306170 0.680233 0.304022
Si Si3 0.193706 0.819425 0.172153
Si Si4 0.500000 0.321139 0.166479
Si Si5 0.438904 0.318999 0.991429
Si Si6 0.098930 0.180048 0.605293
Si Si7 0.000000 0.678516 0.800726
O O1 0.349966 0.750569 0.343173
O O2 0.415935 0.782831 0.430172
O O3 0.449608 0.753170 0.327770
O O4 0.402382 0.000000 0.359694
O O5 0.304466 0.500000 0.310662
O O6 0.250000 0.750000 0.315591
O O7 0.318635 0.712496 0.238101
O O8 0.250000 0.750000 0.160831
O O9 0.150574 0.747370 0.132614
O O10 0.194886 0.000000 0.165188
O O11 0.500000 0.500000 0.153453
O O12 0.550478 0.246166 0.139880
O O13 0.500000 0.302120 0.233580
O O14 0.500000 0.281024 0.992577
O O15 0.434895 0.500000 0.999914
O O16 0.409818 0.234662 0.041448
O O17 0.099411 0.000000 0.608483
O O18 0.000000 0.500000 0.812793
#
# Coordination Sequence:
#
# PCOD9369480 Si02
#       7
#    16  16  16   8  16  16   8
#     4  11  22  38  60  86 116 152 194 240 290 344
#     4  10  21  38  61  89 119 155 194 236 289 345
#     4  10  21  39  62  87 119 156 193 236 289 347
#     4  11  23  38  55  80 117 156 190 233 290 347
#     4  10  21  40  61  81 113 158 198 237 291 347
#     4  12  24  37  58  88 116 149 195 243 291 344
#     4  11  23  36  55  84 117 152 190 235 288 347
#
# _framework density 17.619907000000001
#
# number of rings (size 3 to 8) (size 9 to 14) (size 15 to 20)
#    0.000    1.333    1.667    4.500    0.000    8.667 
#    0.000    0.833    0.000    4.000    0.000    0.000 
#    0.000    0.000    0.000    0.000    0.000    0.000 
#
# Total GULP energy -134189.260998 kJ/mol
# GULP energy per Si atom -5591.219208 kJ/mol
# Density = 1.757980 g / cm^3
# Si number density = 17.619907 Si / 1000 Ang^3
#
#
#
# Elastic Constant Matrix: (Units=GPa)
#
#
# Indices 1 2 3 4 5 6 
#
# 1 142.0227 73.2192 90.7863 0.0000 0.0000 0.0000
# 2 73.2192 103.2706 83.2853 0.0000 0.0000 0.0000
# 3 90.7863 83.2853 115.4083 0.0000 0.0000 0.0000
# 4 0.0000 0.0000 0.0000 29.1430 0.0000 0.0000
# 5 0.0000 0.0000 0.0000 0.0000 -50.8345 0.0000
# 6 0.0000 0.0000 0.0000 0.0000 0.0000 35.7654
#
#
#
# Elastic Compliance Matrix: (Units=1/GPa)
#
#
# Indices 1 2 3 4 5 6 
#
# 1 0.014444 -0.002577 -0.009503 0.000000 0.000000 0.000000
# 2 -0.002577 0.023626 -0.015022 0.000000 0.000000 0.000000
# 3 -0.009503 -0.015022 0.026981 0.000000 0.000000 0.000000
# 4 0.000000 0.000000 0.000000 0.034314 0.000000 0.000000
# 5 0.000000 0.000000 0.000000 0.000000 -0.019672 0.000000
# 6 0.000000 0.000000 0.000000 0.000000 0.000000 0.027960
#
#
# Mechanical properties :
#
#
# Convention : Reuss Voigt Hill
#
# Bulk Modulus (GPa) = 92.19455 95.03145 93.61300
# Shear Modulus (GPa) = 30.21639 10.37549 20.29594
#
# Velocity S-wave (km/s) = 4.14563 2.42926 3.39761
# Velocity P-wave (km/s) = 8.68059 7.86890 8.28469
#
# Compressibility (1/GPa) = 0.01084663
#
# Stress axis : x y z
#
# Youngs Moduli (GPa) = 69.23095 42.32691 37.06299
#
# Poissons Ratio (x) = 0.10909 0.35220
# Poissons Ratio (y) = 0.17843 0.55676
# Poissons Ratio (z) = 0.65788 0.63584
#
# Static dielectric constant tensor:
#      x y z
#    x 1.565150 0.000000 0.000000 
#    y 0.000000 1.584430 0.000000 
#    z 0.000000 0.000000 1.584250 
# 
# From -- ./inp_files/30437.got.cif
#   From: 2010.05.17/outbox.cif.g08.bks.cpg/sg42_16_cif.got.tgz:30437.got - 2010.06.03 19:03:34.
