data_PCOD9369366
_publ_section_title
;
Structure prediction by ZEFSAII (Michael W. Deem and Ramdas Pophale) SiO2 
 PCOD9369366
Probable space group: F M M 2
;
_chemical_formula_sum "Si O2"
_cell_formula_units_Z 68
_cell_length_a 15.343636
_cell_length_b 8.056905
_cell_length_c 27.896814
_cell_angle_alpha 90.000000
_cell_angle_beta 90.000000
_cell_angle_gamma 90.000000
_cell_volume 3448.666011
_symmetry_space_group_name_H-M "F M M 2"
_symmetry_group_IT_number 42
_symmetry_cell_setting 'orthorhombic'
loop_
_space_group_symop_operation_xyz
x,y,z
-x,-y,z
-x,y,z
x,-y,z
x,1/2+y,1/2+z
-x,1/2-y,1/2+z
-x,1/2+y,1/2+z
x,1/2-y,1/2+z
1/2+x,y,1/2+z
1/2-x,-y,1/2+z
1/2-x,y,1/2+z
1/2+x,-y,1/2+z
1/2+x,1/2+y,z
1/2-x,1/2-y,z
1/2-x,1/2+y,z
1/2+x,1/2-y,z
loop_
_atom_site_type_symbol
_atom_site_label
_atom_site_fract_x
_atom_site_fract_y
_atom_site_fract_z
Si Si1 0.106872 0.819564 0.400170
Si Si2 0.500000 0.000000 0.253661
Si Si3 0.000000 0.298104 0.679356
Si Si4 0.655655 0.801803 0.607643
Si Si5 0.105109 0.305279 0.503659
Si Si6 0.600751 0.500000 0.846419
O O1 0.131623 0.787671 0.455411
O O2 0.139057 0.668177 0.367654
O O3 0.000000 0.822080 0.398727
O O4 0.137169 0.000000 0.384021
O O5 0.500000 0.830348 0.223288
O O6 0.416833 0.000000 0.289788
O O7 0.082477 0.257161 0.645779
O O8 0.000000 0.500000 0.690098
O O9 0.750000 0.750000 0.624903
O O10 0.640723 0.735361 0.553728
O O11 0.649844 0.000000 0.602695
O O12 0.128681 0.500000 0.498193
O O13 0.000000 0.298725 0.507228
O O14 0.500000 0.500000 0.866031
#
# Coordination Sequence:
#
# PCOD9369366 Si02
#       6
#    16   4   8  16  16   8
#     4   9  15  24  43  73 112 141 177 221 276 334
#     4  10  22  34  60  78 110 150 194 246 308 352
#     4  10  22  42  57  81 121 151 192 256 298 343
#     4  10  21  36  56  83 119 161 198 238 290 347
#     4   9  15  28  49  73 112 155 182 221 276 331
#     4   8  16  30  44  75 107 134 178 238 285 331
#
# _framework density 19.717769000000001
#
# number of rings (size 3 to 8) (size 9 to 14) (size 15 to 20)
#    0.353    2.353    2.353    0.000    1.647    1.882 
#    0.000    0.000    0.000    0.000    0.000    1.647 
#    0.000    0.000    0.000    0.000    0.000    0.000 
#
# Total GULP energy -94758.381663 kJ/mol
# GULP energy per Si atom -5574.022451 kJ/mol
# Density = 1.967289 g / cm^3
# Si number density = 19.717769 Si / 1000 Ang^3
#
#
#
# Elastic Constant Matrix: (Units=GPa)
#
#
# Indices 1 2 3 4 5 6 
#
# 1 54.7409 22.5684 34.9449 0.0000 0.0000 0.0000
# 2 22.5684 120.5204 79.1420 0.0000 0.0000 0.0000
# 3 34.9449 79.1420 133.0026 0.0000 0.0000 0.0000
# 4 0.0000 0.0000 0.0000 13.9160 0.0000 0.0000
# 5 0.0000 0.0000 0.0000 0.0000 -11.5287 0.0000
# 6 0.0000 0.0000 0.0000 0.0000 0.0000 11.3694
#
#
#
# Elastic Compliance Matrix: (Units=1/GPa)
#
#
# Indices 1 2 3 4 5 6 
#
# 1 0.021970 -0.000531 -0.005456 0.000000 0.000000 0.000000
# 2 -0.000531 0.013632 -0.007972 0.000000 0.000000 0.000000
# 3 -0.005456 -0.007972 0.013696 0.000000 0.000000 0.000000
# 4 0.000000 0.000000 0.000000 0.071860 0.000000 0.000000
# 5 0.000000 0.000000 0.000000 0.000000 -0.086740 0.000000
# 6 0.000000 0.000000 0.000000 0.000000 0.000000 0.087955
#
#
# Mechanical properties :
#
#
# Convention : Reuss Voigt Hill
#
# Bulk Modulus (GPa) = 46.77497 64.61938 55.69717
# Shear Modulus (GPa) = 31.76268 14.19191 22.97729
#
# Velocity S-wave (km/s) = 4.01791 2.68573 3.41737
# Velocity P-wave (km/s) = 6.73042 6.51620 6.62418
#
# Compressibility (1/GPa) = 0.02137895
#
# Stress axis : x y z
#
# Youngs Moduli (GPa) = 45.51660 73.35850 73.01479
#
# Poissons Ratio (x) = 0.03895 0.39840
# Poissons Ratio (y) = 0.02417 0.58207
# Poissons Ratio (z) = 0.24836 0.58481
#
# Static dielectric constant tensor:
#      x y z
#    x 1.697460 0.000000 0.000000 
#    y 0.000000 1.717420 0.000000 
#    z 0.000000 0.000000 1.676310 
# 
# From -- ./inp_files/29798.got.cif
#   From: 2010.05.17/outbox.cif.g08.bks.cpg/sg42_15_cif.got.tgz:29798.got - 2010.06.03 19:03:34.
