data_PCOD9369617
_publ_section_title
;
Structure prediction by ZEFSAII (Michael W. Deem and Ramdas Pophale) SiO2 
 PCOD9369617
Probable space group: F M M 2
;
_chemical_formula_sum "Si O2"
_cell_formula_units_Z 112
_cell_length_a 14.504988
_cell_length_b 27.862161
_cell_length_c 15.064282
_cell_angle_alpha 90.000000
_cell_angle_beta 90.000000
_cell_angle_gamma 90.000000
_cell_volume 6088.083612
_symmetry_space_group_name_H-M "F M M 2"
_symmetry_group_IT_number 42
_symmetry_cell_setting 'orthorhombic'
loop_
_space_group_symop_operation_xyz
x,y,z
-x,-y,z
-x,y,z
x,-y,z
x,1/2+y,1/2+z
-x,1/2-y,1/2+z
-x,1/2+y,1/2+z
x,1/2-y,1/2+z
1/2+x,y,1/2+z
1/2-x,-y,1/2+z
1/2-x,y,1/2+z
1/2+x,-y,1/2+z
1/2+x,1/2+y,z
1/2-x,1/2-y,z
1/2-x,1/2+y,z
1/2+x,1/2-y,z
loop_
_atom_site_type_symbol
_atom_site_label
_atom_site_fract_x
_atom_site_fract_y
_atom_site_fract_z
Si Si1 0.894311 0.799619 0.057560
Si Si2 0.297433 0.903680 0.706026
Si Si3 0.500000 0.942109 0.433404
Si Si4 0.323958 0.206727 0.751252
Si Si5 0.238286 0.876599 0.523117
Si Si6 0.000000 0.058539 0.145435
Si Si7 0.800561 0.444079 0.372659
Si Si8 0.608451 0.704748 0.452616
O O1 0.884794 0.787645 0.162146
O O2 0.829776 0.843823 0.032683
O O3 0.000000 0.810455 0.036994
O O4 0.863370 0.753975 0.000609
O O5 0.290044 0.848391 0.739892
O O6 0.239603 0.904968 0.615181
O O7 0.404647 0.919263 0.686592
O O8 0.247509 0.935931 0.778723
O O9 0.500000 0.930779 0.539089
O O10 0.406495 0.926573 0.384079
O O11 0.500000 0.000000 0.430033
O O12 0.250000 0.250000 0.748163
O O13 0.369627 0.208060 0.848083
O O14 0.244621 0.913465 0.443586
O O15 0.158794 0.838996 0.501070
O O16 0.000000 0.000000 0.156274
O O17 0.799020 0.500000 0.395627
O O18 0.500000 0.699415 0.464087
#
# Coordination Sequence:
#
# PCOD9369617 Si02
#       8
#    16  16   8  16  16   8  16  16
#     4  10  22  37  61  91 123 158 202 254 311 375
#     4  11  24  38  66  94 127 169 207 268 327 383
#     4   9  20  40  66  90 121 161 211 268 314 374
#     4  11  22  37  61  87 123 161 207 252 308 378
#     4  11  22  39  64  89 124 165 207 265 316 377
#     4  11  22  40  68 100 127 165 227 282 323 382
#     4  11  23  40  62  94 126 162 208 263 322 376
#     4  11  23  41  61  87 125 167 208 255 314 380
#
# _framework density 18.396594
#
# number of rings (size 3 to 8) (size 9 to 14) (size 15 to 20)
#    0.000    1.286    2.857    3.857    6.000    0.571 
#    1.286    0.000    1.571    0.000    0.000    0.000 
#    0.000    0.000    0.000    0.000    0.000    0.000 
#
# Total GULP energy -156239.853444 kJ/mol
# GULP energy per Si atom -5579.994766 kJ/mol
# Density = 1.835472 g / cm^3
# Si number density = 18.396594 Si / 1000 Ang^3
#
#
#
# Elastic Constant Matrix: (Units=GPa)
#
#
# Indices 1 2 3 4 5 6 
#
# 1 73.3327 21.5007 20.2298 0.0000 0.0000 0.0000
# 2 21.5007 73.2584 17.7826 0.0000 0.0000 0.0000
# 3 20.2298 17.7826 107.7503 0.0000 0.0000 0.0000
# 4 0.0000 0.0000 0.0000 13.3337 0.0000 0.0000
# 5 0.0000 0.0000 0.0000 0.0000 30.2115 0.0000
# 6 0.0000 0.0000 0.0000 0.0000 0.0000 19.1438
#
#
#
# Elastic Compliance Matrix: (Units=1/GPa)
#
#
# Indices 1 2 3 4 5 6 
#
# 1 0.015422 -0.003983 -0.002238 0.000000 0.000000 0.000000
# 2 -0.003983 0.015249 -0.001769 0.000000 0.000000 0.000000
# 3 -0.002238 -0.001769 0.009993 0.000000 0.000000 0.000000
# 4 0.000000 0.000000 0.000000 0.074998 0.000000 0.000000
# 5 0.000000 0.000000 0.000000 0.000000 0.033100 0.000000
# 6 0.000000 0.000000 0.000000 0.000000 0.000000 0.052236
#
#
# Mechanical properties :
#
#
# Convention : Reuss Voigt Hill
#
# Bulk Modulus (GPa) = 40.51266 41.48531 40.99899
# Shear Modulus (GPa) = 22.20202 25.52635 23.86419
#
# Velocity S-wave (km/s) = 3.47775 3.72904 3.60558
# Velocity P-wave (km/s) = 6.18029 6.41408 6.29827
#
# Compressibility (1/GPa) = 0.02468364
#
# Stress axis : x y z
#
# Youngs Moduli (GPa) = 64.84405 65.57982 100.07194
#
# Poissons Ratio (x) = 0.26120 0.22397
# Poissons Ratio (y) = 0.25826 0.17701
# Poissons Ratio (z) = 0.14512 0.11600
#
# Static dielectric constant tensor:
#      x y z
#    x 1.634480 0.000000 0.000000 
#    y 0.000000 1.636110 0.000000 
#    z 0.000000 0.000000 1.658930 
# 
# From -- ./inp_files/14436.got.cif
#   From: 2010.05.17/outbox.cif.g08.bks.cpg/sg42_8_cif.got.tgz:14436.got - 2010.06.03 19:03:34.
