data_PCOD9369457
_publ_section_title
;
Structure prediction by ZEFSAII (Michael W. Deem and Ramdas Pophale) SiO2 
 PCOD9369457
Probable space group: F M M 2
;
_chemical_formula_sum "Si O2"
_cell_formula_units_Z 112
_cell_length_a 22.243219
_cell_length_b 15.709609
_cell_length_c 14.823279
_cell_angle_alpha 90.000000
_cell_angle_beta 90.000000
_cell_angle_gamma 90.000000
_cell_volume 5179.732080
_symmetry_space_group_name_H-M "F M M 2"
_symmetry_group_IT_number 42
_symmetry_cell_setting 'orthorhombic'
loop_
_space_group_symop_operation_xyz
x,y,z
-x,-y,z
-x,y,z
x,-y,z
x,1/2+y,1/2+z
-x,1/2-y,1/2+z
-x,1/2+y,1/2+z
x,1/2-y,1/2+z
1/2+x,y,1/2+z
1/2-x,-y,1/2+z
1/2-x,y,1/2+z
1/2+x,-y,1/2+z
1/2+x,1/2+y,z
1/2-x,1/2-y,z
1/2-x,1/2+y,z
1/2+x,1/2-y,z
loop_
_atom_site_type_symbol
_atom_site_label
_atom_site_fract_x
_atom_site_fract_y
_atom_site_fract_z
Si Si1 0.686904 0.903683 0.728480
Si Si2 0.934012 0.188699 0.265176
Si Si3 0.814395 0.598908 0.223468
Si Si4 0.343221 0.599188 0.927152
Si Si5 0.205789 0.094511 0.446113
Si Si6 0.105142 0.727317 0.967777
Si Si7 0.436382 0.353294 0.645133
O O1 0.623989 0.855351 0.719873
O O2 0.749902 0.864237 0.692319
O O3 0.698923 0.906399 0.836895
O O4 0.678508 0.000000 0.693944
O O5 0.921935 0.199081 0.371700
O O6 0.937131 0.281290 0.221490
O O7 0.000000 0.147403 0.251418
O O8 0.799730 0.500000 0.237716
O O9 0.833888 0.629405 0.322963
O O10 0.872317 0.602824 0.160544
O O11 0.363762 0.500000 0.928438
O O12 0.276151 0.601047 0.967828
O O13 0.384204 0.671528 0.970636
O O14 0.167941 0.175512 0.476454
O O15 0.184571 0.000000 0.477175
O O16 0.066236 0.693796 0.049828
O O17 0.500000 0.401458 0.651854
#
# Coordination Sequence:
#
# PCOD9369457 Si02
#       7
#    16  16  16  16  16  16  16
#     4   8  16  33  59  86 113 152 196 242 300 365
#     4  10  21  38  58  83 120 160 200 249 303 363
#     4   9  18  37  62  88 119 154 196 256 318 365
#     4   9  17  34  60  88 118 157 204 254 307 365
#     4   8  16  31  54  86 123 155 193 248 306 365
#     4  11  20  36  61  85 117 167 208 250 308 371
#     4  11  24  39  56  84 120 158 205 256 305 365
#
# _framework density 21.622738999999999
#
# number of rings (size 3 to 8) (size 9 to 14) (size 15 to 20)
#    0.000    2.571    1.429    2.571    0.000    1.714 
#    5.143    0.714    0.000    5.143    0.000    0.000 
#    0.000    0.000    0.000    0.000    0.000    0.000 
#
# Total GULP energy -156053.786213 kJ/mol
# GULP energy per Si atom -5573.349508 kJ/mol
# Density = 2.157352 g / cm^3
# Si number density = 21.622739 Si / 1000 Ang^3
#
#
#
# Elastic Constant Matrix: (Units=GPa)
#
#
# Indices 1 2 3 4 5 6 
#
# 1 167.0631 46.4920 14.5557 0.0000 0.0000 0.0000
# 2 46.4920 68.3043 2.0420 0.0000 0.0000 0.0000
# 3 14.5557 2.0420 60.9239 0.0000 0.0000 0.0000
# 4 0.0000 0.0000 0.0000 10.9837 0.0000 0.0000
# 5 0.0000 0.0000 0.0000 0.0000 41.8376 0.0000
# 6 0.0000 0.0000 0.0000 0.0000 0.0000 -352.6206
#
#
#
# Elastic Compliance Matrix: (Units=1/GPa)
#
#
# Indices 1 2 3 4 5 6 
#
# 1 0.007543 -0.005086 -0.001632 0.000000 0.000000 0.000000
# 2 -0.005086 0.018084 0.000609 0.000000 0.000000 0.000000
# 3 -0.001632 0.000609 0.016783 0.000000 0.000000 0.000000
# 4 0.000000 0.000000 0.000000 0.091044 0.000000 0.000000
# 5 0.000000 0.000000 0.000000 0.000000 0.023902 0.000000
# 6 0.000000 0.000000 0.000000 0.000000 0.000000 -0.002836
#
#
# Mechanical properties :
#
#
# Convention : Reuss Voigt Hill
#
# Bulk Modulus (GPa) = 33.11976 46.94121 40.03049
# Shear Modulus (GPa) = 28.28026 -44.41308 -8.06641
#
# Velocity S-wave (km/s) = 3.62041 -4.53702 -1.93355
# Velocity P-wave (km/s) = 5.72947 2.38533 3.68354
#
# Compressibility (1/GPa) = 0.03019346
#
# Stress axis : x y z
#
# Youngs Moduli (GPa) = 132.56987 55.29841 59.58283
#
# Poissons Ratio (x) = 0.28122 0.09722
# Poissons Ratio (y) = 0.67419 -0.03628
# Poissons Ratio (z) = 0.21632 -0.03367
#
# Static dielectric constant tensor:
#      x y z
#    x 1.840700 0.000000 0.000000 
#    y 0.000000 1.765190 0.000000 
#    z 0.000000 0.000000 1.819870 
# 
# From -- ./inp_files/14251.got.cif
#   From: 2010.05.17/outbox.cif.g08.bks.cpg/sg42_8_cif.got.tgz:14251.got - 2010.06.03 19:03:34.
