data_PCOD9369087
_publ_section_title
;
Structure prediction by ZEFSAII (Michael W. Deem and Ramdas Pophale) SiO2 
 PCOD9369087
Probable space group: F M M 2
;
_chemical_formula_sum "Si O2"
_cell_formula_units_Z 80
_cell_length_a 8.705446
_cell_length_b 18.689170
_cell_length_c 26.243319
_cell_angle_alpha 90.000000
_cell_angle_beta 90.000000
_cell_angle_gamma 90.000000
_cell_volume 4269.723973
_symmetry_space_group_name_H-M "F M M 2"
_symmetry_group_IT_number 42
_symmetry_cell_setting 'orthorhombic'
loop_
_space_group_symop_operation_xyz
x,y,z
-x,-y,z
-x,y,z
x,-y,z
x,1/2+y,1/2+z
-x,1/2-y,1/2+z
-x,1/2+y,1/2+z
x,1/2-y,1/2+z
1/2+x,y,1/2+z
1/2-x,-y,1/2+z
1/2-x,y,1/2+z
1/2+x,-y,1/2+z
1/2+x,1/2+y,z
1/2-x,1/2-y,z
1/2-x,1/2+y,z
1/2+x,1/2-y,z
loop_
_atom_site_type_symbol
_atom_site_label
_atom_site_fract_x
_atom_site_fract_y
_atom_site_fract_z
Si Si1 0.184569 0.329259 0.155840
Si Si2 0.816783 0.170513 0.265378
Si Si3 0.315887 0.170209 0.460577
Si Si4 0.314631 0.917244 0.055602
Si Si5 0.314810 0.083414 0.359159
O O1 0.250000 0.250000 0.145281
O O2 0.252212 0.352383 0.210252
O O3 0.226291 0.381544 0.109654
O O4 0.000000 0.325293 0.159672
O O5 0.750000 0.250000 0.275226
O O6 0.761631 0.118393 0.309845
O O7 0.000000 0.174598 0.263502
O O8 0.500000 0.173477 0.462082
O O9 0.250000 0.250000 0.459676
O O10 0.256338 0.127921 0.509772
O O11 0.269786 0.127343 0.409587
O O12 0.500000 0.914503 0.051391
O O13 0.266575 0.000000 0.053149
O O14 0.500000 0.088402 0.354000
O O15 0.274508 0.000000 0.364522
#
# Coordination Sequence:
#
# PCOD9369087 Si02
#       5
#    16  16  16  16  16
#     4  10  20  36  58  83 113 151 193 236 283 335
#     4  11  22  37  59  86 115 150 193 237 282 333
#     4  11  23  39  61  87 114 149 191 234 282 336
#     4  10  22  39  59  85 117 152 189 232 284 338
#     4  10  22  40  60  84 116 151 187 231 285 341
#
# _framework density 18.736574000000001
#
# number of rings (size 3 to 8) (size 9 to 14) (size 15 to 20)
#    0.000    1.600    0.000    6.000    0.000    8.800 
#    0.000    2.000    0.000    0.000    0.000    0.000 
#    0.000    0.000    0.000    0.000    0.000    0.000 
#
# Total GULP energy -111818.757621 kJ/mol
# GULP energy per Si atom -5590.937881 kJ/mol
# Density = 1.869393 g / cm^3
# Si number density = 18.736574 Si / 1000 Ang^3
#
#
#
# Elastic Constant Matrix: (Units=GPa)
#
#
# Indices 1 2 3 4 5 6 
#
# 1 63.0568 63.3623 68.9134 0.0000 0.0000 0.0000
# 2 63.3623 172.1822 139.9996 0.0000 0.0000 0.0000
# 3 68.9134 139.9996 187.2063 0.0000 0.0000 0.0000
# 4 0.0000 0.0000 0.0000 -156.7598 0.0000 0.0000
# 5 0.0000 0.0000 0.0000 0.0000 33.9008 0.0000
# 6 0.0000 0.0000 0.0000 0.0000 0.0000 23.8023
#
#
#
# Elastic Compliance Matrix: (Units=1/GPa)
#
#
# Indices 1 2 3 4 5 6 
#
# 1 0.028077 -0.004920 -0.006656 0.000000 0.000000 0.000000
# 2 -0.004920 0.015680 -0.009915 0.000000 0.000000 0.000000
# 3 -0.006656 -0.009915 0.015207 0.000000 0.000000 0.000000
# 4 0.000000 0.000000 0.000000 -0.006379 0.000000 0.000000
# 5 0.000000 0.000000 0.000000 0.000000 0.029498 0.000000
# 6 0.000000 0.000000 0.000000 0.000000 0.000000 0.042013
#
#
# Mechanical properties :
#
#
# Convention : Reuss Voigt Hill
#
# Bulk Modulus (GPa) = 62.57300 107.44399 85.00849
# Shear Modulus (GPa) = 29.00147 -9.80001 9.60073
#
# Velocity S-wave (km/s) = 3.93854 -2.28949 2.26609
# Velocity P-wave (km/s) = 7.35877 7.10493 7.23296
#
# Compressibility (1/GPa) = 0.01598133
#
# Stress axis : x y z
#
# Youngs Moduli (GPa) = 35.61627 63.77443 65.76057
#
# Poissons Ratio (x) = 0.31379 0.43770
# Poissons Ratio (y) = 0.17524 0.65202
# Poissons Ratio (z) = 0.23706 0.63232
#
# Static dielectric constant tensor:
#      x y z
#    x 1.632750 0.000000 0.000000 
#    y 0.000000 1.623450 0.000000 
#    z 0.000000 0.000000 1.622530 
# 
# From -- ./inp_files/31255.got.cif
#   From: 2010.05.17/outbox.cif.g08.bks.cpg/sg42_16_cif.got.tgz:31255.got - 2010.06.03 19:03:34.
