data_PCOD9369544
_publ_section_title
;
Structure prediction by ZEFSAII (Michael W. Deem and Ramdas Pophale) SiO2 
 PCOD9369544
Probable space group: F M M 2
;
_chemical_formula_sum "Si O2"
_cell_formula_units_Z 80
_cell_length_a 18.683182
_cell_length_b 27.940981
_cell_length_c 7.787981
_cell_angle_alpha 90.000000
_cell_angle_beta 90.000000
_cell_angle_gamma 90.000000
_cell_volume 4065.531944
_symmetry_space_group_name_H-M "F M M 2"
_symmetry_group_IT_number 42
_symmetry_cell_setting 'orthorhombic'
loop_
_space_group_symop_operation_xyz
x,y,z
-x,-y,z
-x,y,z
x,-y,z
x,1/2+y,1/2+z
-x,1/2-y,1/2+z
-x,1/2+y,1/2+z
x,1/2-y,1/2+z
1/2+x,y,1/2+z
1/2-x,-y,1/2+z
1/2-x,y,1/2+z
1/2+x,-y,1/2+z
1/2+x,1/2+y,z
1/2-x,1/2-y,z
1/2-x,1/2+y,z
1/2+x,1/2-y,z
loop_
_atom_site_type_symbol
_atom_site_label
_atom_site_fract_x
_atom_site_fract_y
_atom_site_fract_z
Si Si1 0.915640 0.608652 0.998480
Si Si2 0.162640 0.057192 0.192395
Si Si3 0.695416 0.788350 0.494353
Si Si4 0.826701 0.942390 0.795483
Si Si5 0.661349 0.306094 0.345509
O O1 0.890956 0.581516 0.825151
O O2 0.887782 0.662350 0.965509
O O3 0.000000 0.606460 0.021668
O O4 0.875155 0.585004 0.158767
O O5 0.243559 0.067796 0.254439
O O6 0.153551 0.000000 0.203339
O O7 0.156083 0.070458 0.992332
O O8 0.750000 0.750000 0.588226
O O9 0.650896 0.750630 0.382486
O O10 0.653395 0.814741 0.642825
O O11 0.754743 0.817646 0.389864
O O12 0.836177 0.000000 0.775349
#
# Coordination Sequence:
#
# PCOD9369544 Si02
#       5
#    16  16  16  16  16
#     4  12  26  39  57  94 134 162 195 253 317 362
#     4  10  21  39  65  93 118 159 214 255 294 357
#     4   8  14  33  57  83 104 141 198 246 285 347
#     4  10  21  40  65  91 119 161 211 254 299 355
#     4   9  18  33  57  87 113 144 198 246 298 363
#
# _framework density 19.677623000000001
#
# number of rings (size 3 to 8) (size 9 to 14) (size 15 to 20)
#    1.200    0.800    4.000    0.600    2.800    2.400 
#    3.600    3.000    0.000    0.000    0.000    0.000 
#    0.000    0.000    0.000    0.000    0.000    0.000 
#
# Total GULP energy -111442.318555 kJ/mol
# GULP energy per Si atom -5572.115928 kJ/mol
# Density = 1.963284 g / cm^3
# Si number density = 19.677623 Si / 1000 Ang^3
#
#
#
# Elastic Constant Matrix: (Units=GPa)
#
#
# Indices 1 2 3 4 5 6 
#
# 1 41.6464 19.3267 -8.5561 0.0000 0.0000 0.0001
# 2 19.3267 48.3319 20.4426 0.0000 0.0001 0.0000
# 3 -8.5561 20.4426 76.0592 0.0001 -0.0001 0.0000
# 4 0.0000 0.0000 0.0001 27.8952 -0.0001 -0.0001
# 5 0.0000 0.0001 -0.0001 -0.0001 20.5123 0.0001
# 6 0.0001 0.0000 0.0000 -0.0001 0.0001 58.1528
#
#
#
# Elastic Compliance Matrix: (Units=1/GPa)
#
#
# Indices 1 2 3 4 5 6 
#
# 1 0.033595 -0.016960 0.008338 0.000000 0.000000 0.000000
# 2 -0.016960 0.031906 -0.010483 0.000000 0.000000 0.000000
# 3 0.008338 -0.010483 0.016903 0.000000 0.000000 0.000000
# 4 0.000000 0.000000 0.000000 0.035848 0.000000 0.000000
# 5 0.000000 0.000000 0.000000 0.000000 0.048751 0.000000
# 6 0.000000 0.000000 0.000000 0.000000 0.000000 0.017196
#
#
# Mechanical properties :
#
#
# Convention : Reuss Voigt Hill
#
# Bulk Modulus (GPa) = 22.62820 25.38487 24.00654
# Shear Modulus (GPa) = 21.08424 30.30037 25.69230
#
# Velocity S-wave (km/s) = 3.27690 3.92834 3.61731
# Velocity P-wave (km/s) = 5.08349 5.78828 5.44729
#
# Compressibility (1/GPa) = 0.04419264
#
# Stress axis : x y z
#
# Youngs Moduli (GPa) = 29.76600 31.34167 59.16023
#
# Poissons Ratio (x) = 0.53157 -0.49326
# Poissons Ratio (y) = 0.50484 0.62020
# Poissons Ratio (z) = -0.24818 0.32857
#
# Static dielectric constant tensor:
#      x y z
#    x 1.649020 0.000000 0.000000 
#    y 0.000000 1.787890 0.000000 
#    z 0.000000 0.000000 1.703160 
# 
# From -- ./inp_files/3509.got.cif
#   From: 2010.05.17/outbox.cif.g08.bks.cpg/sg42_2_cif.got.tgz:3509.got - 2010.06.03 19:03:34.
