data_PCOD9369823
_publ_section_title
;
Structure prediction by ZEFSAII (Michael W. Deem and Ramdas Pophale) SiO2 
 PCOD9369823
Probable space group: F M M 2
;
_chemical_formula_sum "Si O2"
_cell_formula_units_Z 112
_cell_length_a 13.187814
_cell_length_b 27.994754
_cell_length_c 18.162675
_cell_angle_alpha 90.000000
_cell_angle_beta 90.000000
_cell_angle_gamma 90.000000
_cell_volume 6705.470877
_symmetry_space_group_name_H-M "F M M 2"
_symmetry_group_IT_number 42
_symmetry_cell_setting 'orthorhombic'
loop_
_space_group_symop_operation_xyz
x,y,z
-x,-y,z
-x,y,z
x,-y,z
x,1/2+y,1/2+z
-x,1/2-y,1/2+z
-x,1/2+y,1/2+z
x,1/2-y,1/2+z
1/2+x,y,1/2+z
1/2-x,-y,1/2+z
1/2-x,y,1/2+z
1/2+x,-y,1/2+z
1/2+x,1/2+y,z
1/2-x,1/2-y,z
1/2-x,1/2+y,z
1/2+x,1/2-y,z
loop_
_atom_site_type_symbol
_atom_site_label
_atom_site_fract_x
_atom_site_fract_y
_atom_site_fract_z
Si Si1 0.378796 0.556860 0.384920
Si Si2 0.618465 0.825395 0.327801
Si Si3 0.622652 0.946173 0.717217
Si Si4 0.753056 0.862328 0.951649
Si Si5 0.121468 0.365006 0.601449
Si Si6 0.382935 0.284456 0.378457
Si Si7 0.287744 0.803592 0.725853
O O1 0.500000 0.564538 0.391904
O O2 0.360508 0.500000 0.395517
O O3 0.348433 0.568967 0.300130
O O4 0.317797 0.591775 0.438306
O O5 0.500000 0.829742 0.313750
O O6 0.661333 0.861304 0.388178
O O7 0.636558 0.772096 0.363848
O O8 0.686088 0.829805 0.254548
O O9 0.500000 0.947528 0.719075
O O10 0.648911 0.911095 0.651251
O O11 0.659556 0.000000 0.704858
O O12 0.684915 0.814865 0.935128
O O13 0.811463 0.862383 0.028462
O O14 0.153883 0.322475 0.655724
O O15 0.000000 0.364643 0.586848
O O16 0.500000 0.289754 0.398355
O O17 0.360272 0.306014 0.297507
O O18 0.250000 0.750000 0.713449
#
# Coordination Sequence:
#
# PCOD9369823 Si02
#       7
#    16  16  16  16  16  16  16
#     4   9  18  34  57  80  97 120 163 215 255 289
#     4   9  18  33  51  72  99 132 170 211 250 290
#     4   8  15  30  52  74  93 117 155 201 244 287
#     4  11  20  30  47  73 104 136 165 197 246 307
#     4  11  22  33  47  72 106 138 165 200 250 301
#     4   9  17  32  54  74  94 127 173 219 253 284
#     4   9  18  32  52  74  95 126 172 214 249 291
#
# _framework density 16.702779
#
# number of rings (size 3 to 8) (size 9 to 14) (size 15 to 20)
#    0.000    2.571    0.000    5.143    0.000    3.429 
#    0.000    1.429    0.000    1.286    0.000    0.000 
#    0.000    0.000    0.000    0.000    0.000    0.000 
#
# Total GULP energy -155938.536381 kJ/mol
# GULP energy per Si atom -5569.233442 kJ/mol
# Density = 1.666476 g / cm^3
# Si number density = 16.702779 Si / 1000 Ang^3
#
#
#
# Elastic Constant Matrix: (Units=GPa)
#
#
# Indices 1 2 3 4 5 6 
#
# 1 90.5833 30.0717 43.5497 0.0000 0.0000 0.0000
# 2 30.0717 51.2803 34.4397 0.0000 0.0000 0.0000
# 3 43.5497 34.4397 97.5784 0.0000 0.0000 0.0000
# 4 0.0000 0.0000 0.0000 -19.1242 0.0000 0.0000
# 5 0.0000 0.0000 0.0000 0.0000 23.9022 0.0000
# 6 0.0000 0.0000 0.0000 0.0000 0.0000 22.5303
#
#
#
# Elastic Compliance Matrix: (Units=1/GPa)
#
#
# Indices 1 2 3 4 5 6 
#
# 1 0.015239 -0.005726 -0.004780 0.000000 0.000000 0.000000
# 2 -0.005726 0.027711 -0.007225 0.000000 0.000000 0.000000
# 3 -0.004780 -0.007225 0.014932 0.000000 0.000000 0.000000
# 4 0.000000 0.000000 0.000000 -0.052290 0.000000 0.000000
# 5 0.000000 0.000000 0.000000 0.000000 0.041837 0.000000
# 6 0.000000 0.000000 0.000000 0.000000 0.000000 0.044385
#
#
# Mechanical properties :
#
#
# Convention : Reuss Voigt Hill
#
# Bulk Modulus (GPa) = 44.60486 50.61823 47.61155
# Shear Modulus (GPa) = 37.10657 14.22041 25.66349
#
# Velocity S-wave (km/s) = 4.71848 2.92101 3.92405
# Velocity P-wave (km/s) = 7.51322 6.46123 7.00699
#
# Compressibility (1/GPa) = 0.02241908
#
# Stress axis : x y z
#
# Youngs Moduli (GPa) = 65.62296 36.08734 66.97245
#
# Poissons Ratio (x) = 0.20663 0.32014
# Poissons Ratio (y) = 0.37575 0.48386
# Poissons Ratio (z) = 0.31369 0.26072
#
# Static dielectric constant tensor:
#      x y z
#    x 1.567700 0.000000 0.000000 
#    y 0.000000 1.625080 0.000000 
#    z 0.000000 0.000000 1.544270 
# 
# From -- ./inp_files/14382.got.cif
#   From: 2010.05.17/outbox.cif.g08.bks.cpg/sg42_8_cif.got.tgz:14382.got - 2010.06.03 19:03:34.
