data_PCOD9369211
_publ_section_title
;
Structure prediction by ZEFSAII (Michael W. Deem and Ramdas Pophale) SiO2 
 PCOD9369211
Probable space group: F M M 2
;
_chemical_formula_sum "Si O2"
_cell_formula_units_Z 88
_cell_length_a 17.943224
_cell_length_b 18.568469
_cell_length_c 12.058822
_cell_angle_alpha 90.000000
_cell_angle_beta 90.000000
_cell_angle_gamma 90.000000
_cell_volume 4017.736591
_symmetry_space_group_name_H-M "F M M 2"
_symmetry_group_IT_number 42
_symmetry_cell_setting 'orthorhombic'
loop_
_space_group_symop_operation_xyz
x,y,z
-x,-y,z
-x,y,z
x,-y,z
x,1/2+y,1/2+z
-x,1/2-y,1/2+z
-x,1/2+y,1/2+z
x,1/2-y,1/2+z
1/2+x,y,1/2+z
1/2-x,-y,1/2+z
1/2-x,y,1/2+z
1/2+x,-y,1/2+z
1/2+x,1/2+y,z
1/2-x,1/2-y,z
1/2-x,1/2+y,z
1/2+x,1/2-y,z
loop_
_atom_site_type_symbol
_atom_site_label
_atom_site_fract_x
_atom_site_fract_y
_atom_site_fract_z
Si Si1 0.368707 0.084188 0.763490
Si Si2 0.000000 0.182433 0.654408
Si Si3 0.366071 0.866167 0.520711
Si Si4 0.333578 0.723066 0.599927
Si Si5 0.789560 0.081583 0.469602
Si Si6 0.000000 0.584101 0.938259
Si Si7 0.500000 0.915195 0.368648
O O1 0.381643 0.126990 0.651970
O O2 0.296359 0.099396 0.838274
O O3 0.430705 0.096024 0.856894
O O4 0.369925 0.000000 0.732582
O O5 0.083290 0.220467 0.658434
O O6 0.000000 0.126839 0.754490
O O7 0.000000 0.139261 0.538426
O O8 0.345095 0.782786 0.503800
O O9 0.296262 0.916446 0.499404
O O10 0.430780 0.891363 0.442853
O O11 0.250000 0.750000 0.647559
O O12 0.323068 0.643414 0.548569
O O13 0.819545 0.000000 0.486185
O O14 0.000000 0.500000 0.974023
O O15 0.500000 0.000000 0.350643
#
# Coordination Sequence:
#
# PCOD9369211 Si02
#       7
#    16   8  16  16  16   8   8
#     4  10  20  37  67  97 128 175 228 288 347 418
#     4  12  24  44  69  99 141 190 237 298 366 433
#     4  11  24  44  64  98 143 186 236 295 370 445
#     4  10  24  45  70 103 142 190 241 297 369 437
#     4  10  21  40  68  99 134 181 242 301 355 423
#     4  10  20  38  67 101 127 167 231 293 346 415
#     4  12  27  44  68 104 144 189 236 303 374 438
#
# _framework density 21.902878999999999
#
# number of rings (size 3 to 8) (size 9 to 14) (size 15 to 20)
#    0.000    1.455    1.818    3.000    0.000    5.818 
#    3.273    5.455    0.000    0.000    0.000    0.000 
#    0.000    0.000    0.000    0.000    0.000    0.000 
#
# Total GULP energy -122586.053388 kJ/mol
# GULP energy per Si atom -5572.093336 kJ/mol
# Density = 2.185303 g / cm^3
# Si number density = 21.902879 Si / 1000 Ang^3
#
#
#
# Elastic Constant Matrix: (Units=GPa)
#
#
# Indices 1 2 3 4 5 6 
#
# 1 137.1257 45.8417 33.8738 0.0000 0.0000 0.0000
# 2 45.8417 121.1272 37.5478 0.0000 0.0000 0.0000
# 3 33.8738 37.5478 77.0198 0.0000 0.0000 0.0000
# 4 0.0000 0.0000 0.0000 14.4845 0.0000 0.0000
# 5 0.0000 0.0000 0.0000 0.0000 19.1747 0.0000
# 6 0.0000 0.0000 0.0000 0.0000 0.0000 27.2949
#
#
#
# Elastic Compliance Matrix: (Units=1/GPa)
#
#
# Indices 1 2 3 4 5 6 
#
# 1 0.008783 -0.002505 -0.002641 0.000000 0.000000 0.000000
# 2 -0.002505 0.010440 -0.003988 0.000000 0.000000 0.000000
# 3 -0.002641 -0.003988 0.016090 0.000000 0.000000 0.000000
# 4 0.000000 0.000000 0.000000 0.069039 0.000000 0.000000
# 5 0.000000 0.000000 0.000000 0.000000 0.052152 0.000000
# 6 0.000000 0.000000 0.000000 0.000000 0.000000 0.036637
#
#
# Mechanical properties :
#
#
# Convention : Reuss Voigt Hill
#
# Bulk Modulus (GPa) = 58.67351 63.31103 60.99227
# Shear Modulus (GPa) = 23.03190 26.72477 24.87834
#
# Velocity S-wave (km/s) = 3.24627 3.49685 3.37389
# Velocity P-wave (km/s) = 6.39510 6.72845 6.56389
#
# Compressibility (1/GPa) = 0.01704347
#
# Stress axis : x y z
#
# Youngs Moduli (GPa) = 113.86257 95.78521 62.15231
#
# Poissons Ratio (x) = 0.23995 0.16417
# Poissons Ratio (y) = 0.28523 0.24786
# Poissons Ratio (z) = 0.30075 0.38198
#
# Static dielectric constant tensor:
#      x y z
#    x 2.018960 0.000000 0.000000 
#    y 0.000000 1.819210 0.000000 
#    z 0.000000 0.000000 1.750770 
# 
# From -- ./inp_files/8704.got.cif
#   From: 2010.05.17/outbox.cif.g08.bks.cpg/sg42_5_cif.got.tgz:8704.got - 2010.06.03 19:03:34.
