data_PCOD9369351
_publ_section_title
;
Structure prediction by ZEFSAII (Michael W. Deem and Ramdas Pophale) SiO2 
 PCOD9369351
Probable space group: F M M 2
;
_chemical_formula_sum "Si O2"
_cell_formula_units_Z 100
_cell_length_a 34.552532
_cell_length_b 8.280920
_cell_length_c 14.170034
_cell_angle_alpha 90.000000
_cell_angle_beta 90.000000
_cell_angle_gamma 90.000000
_cell_volume 4054.425822
_symmetry_space_group_name_H-M "F M M 2"
_symmetry_group_IT_number 42
_symmetry_cell_setting 'orthorhombic'
loop_
_space_group_symop_operation_xyz
x,y,z
-x,-y,z
-x,y,z
x,-y,z
x,1/2+y,1/2+z
-x,1/2-y,1/2+z
-x,1/2+y,1/2+z
x,1/2-y,1/2+z
1/2+x,y,1/2+z
1/2-x,-y,1/2+z
1/2-x,y,1/2+z
1/2+x,-y,1/2+z
1/2+x,1/2+y,z
1/2-x,1/2-y,z
1/2-x,1/2+y,z
1/2+x,1/2-y,z
loop_
_atom_site_type_symbol
_atom_site_label
_atom_site_fract_x
_atom_site_fract_y
_atom_site_fract_z
Si Si1 0.623581 0.177851 0.784980
Si Si2 0.791160 0.324040 0.251234
Si Si3 0.457875 0.189230 0.323176
Si Si4 0.631147 0.818922 0.478766
Si Si5 0.789953 0.179360 0.526133
Si Si6 0.553382 0.190383 0.552708
Si Si7 0.500000 0.000000 0.101425
O O1 0.665871 0.251085 0.763214
O O2 0.580260 0.247625 0.770734
O O3 0.624120 0.187801 0.898873
O O4 0.624027 0.000000 0.745785
O O5 0.793377 0.500000 0.295824
O O6 0.750000 0.250000 0.282816
O O7 0.786800 0.335147 0.138572
O O8 0.500000 0.263463 0.298140
O O9 0.454179 0.200989 0.437818
O O10 0.460452 0.000000 0.300961
O O11 0.674843 0.798223 0.508448
O O12 0.599904 0.795044 0.560453
O O13 0.624060 0.000000 0.439560
O O14 0.750000 0.250000 0.490344
O O15 0.797465 0.000000 0.486930
O O16 0.532816 0.349793 0.593925
O O17 0.543431 0.000000 0.578077
#
# Coordination Sequence:
#
# PCOD9369351 Si02
#       7
#    16  16  16  16  16  16   4
#     4  11  22  33  53  83 113 144 183 224 271 327
#     4  10  21  39  59  81 109 141 179 224 271 327
#     4   9  17  30  47  71 106 143 178 225 270 317
#     4  10  21  36  53  78 115 145 177 228 276 323
#     4  10  21  37  60  83 106 139 182 222 267 332
#     4   9  19  30  44  74 108 142 182 226 276 323
#     4  12  18  24  52  70 104 152 178 228 268 336
#
# _framework density 24.664404999999999
#
# number of rings (size 3 to 8) (size 9 to 14) (size 15 to 20)
#    0.000    2.080    0.800    4.080    5.600    2.880 
#    0.000    3.200    0.000    0.000    2.080    0.000 
#    0.000    0.000    0.000    0.000    0.000    0.000 
#
# Total GULP energy -139203.480798 kJ/mol
# GULP energy per Si atom -5568.139232 kJ/mol
# Density = 2.460827 g / cm^3
# Si number density = 24.664405 Si / 1000 Ang^3
#
#
#
# Elastic Constant Matrix: (Units=GPa)
#
#
# Indices 1 2 3 4 5 6 
#
# 1 279.3945 95.1167 8.6138 0.0000 0.0000 0.0000
# 2 95.1167 156.8787 7.9733 0.0000 0.0000 0.0000
# 3 8.6138 7.9733 61.4899 0.0000 0.0000 0.0000
# 4 0.0000 0.0000 0.0000 16.7463 0.0000 0.0000
# 5 0.0000 0.0000 0.0000 0.0000 22.3258 0.0000
# 6 0.0000 0.0000 0.0000 0.0000 0.0000 55.8180
#
#
#
# Elastic Compliance Matrix: (Units=1/GPa)
#
#
# Indices 1 2 3 4 5 6 
#
# 1 0.004515 -0.002723 -0.000279 0.000000 0.000000 0.000000
# 2 -0.002723 0.008059 -0.000664 0.000000 0.000000 0.000000
# 3 -0.000279 -0.000664 0.016388 0.000000 0.000000 0.000000
# 4 0.000000 0.000000 0.000000 0.059715 0.000000 0.000000
# 5 0.000000 0.000000 0.000000 0.000000 0.044791 0.000000
# 6 0.000000 0.000000 0.000000 0.000000 0.000000 0.017915
#
#
# Mechanical properties :
#
#
# Convention : Reuss Voigt Hill
#
# Bulk Modulus (GPa) = 46.23240 80.13008 63.18124
# Shear Modulus (GPa) = 30.13405 44.71531 37.42468
#
# Velocity S-wave (km/s) = 3.49916 4.26249 3.89955
# Velocity P-wave (km/s) = 5.92544 7.53550 6.77844
#
# Compressibility (1/GPa) = 0.02162985
#
# Stress axis : x y z
#
# Youngs Moduli (GPa) = 221.49070 124.08223 61.02024
#
# Poissons Ratio (x) = 0.33790 0.01705
# Poissons Ratio (y) = 0.60316 0.04049
# Poissons Ratio (z) = 0.06187 0.08233
#
# Static dielectric constant tensor:
#      x y z
#    x 2.083120 0.000000 0.000000 
#    y 0.000000 1.933280 0.000000 
#    z 0.000000 0.000000 2.033170 
# 
# From -- ./inp_files/27328.got.cif
#   From: 2010.05.17/outbox.cif.g08.bks.cpg/sg42_14_cif.got.tgz:27328.got - 2010.06.03 19:03:34.
