data_PCOD9369022
_publ_section_title
;
Structure prediction by ZEFSAII (Michael W. Deem and Ramdas Pophale) SiO2 
 PCOD9369022
Probable space group: F M M 2
;
_chemical_formula_sum "Si O2"
_cell_formula_units_Z 112
_cell_length_a 14.240972
_cell_length_b 17.061373
_cell_length_c 23.587046
_cell_angle_alpha 90.000000
_cell_angle_beta 90.000000
_cell_angle_gamma 90.000000
_cell_volume 5730.957190
_symmetry_space_group_name_H-M "F M M 2"
_symmetry_group_IT_number 42
_symmetry_cell_setting 'orthorhombic'
loop_
_space_group_symop_operation_xyz
x,y,z
-x,-y,z
-x,y,z
x,-y,z
x,1/2+y,1/2+z
-x,1/2-y,1/2+z
-x,1/2+y,1/2+z
x,1/2-y,1/2+z
1/2+x,y,1/2+z
1/2-x,-y,1/2+z
1/2-x,y,1/2+z
1/2+x,-y,1/2+z
1/2+x,1/2+y,z
1/2-x,1/2-y,z
1/2-x,1/2+y,z
1/2+x,1/2-y,z
loop_
_atom_site_type_symbol
_atom_site_label
_atom_site_fract_x
_atom_site_fract_y
_atom_site_fract_z
Si Si1 0.611989 0.413721 0.819490
Si Si2 0.270007 0.157567 0.622796
Si Si3 0.609729 0.093902 0.518165
Si Si4 0.109986 0.318122 0.730964
Si Si5 0.225413 0.839335 0.912677
Si Si6 0.389436 0.591993 0.346188
Si Si7 0.609612 0.135206 0.198456
O O1 0.500000 0.401541 0.821911
O O2 0.633241 0.500000 0.843996
O O3 0.663821 0.348761 0.855720
O O4 0.638643 0.413196 0.753648
O O5 0.250000 0.250000 0.612436
O O6 0.328543 0.122857 0.571292
O O7 0.330797 0.146689 0.679847
O O8 0.170283 0.122447 0.642331
O O9 0.500000 0.120138 0.520966
O O10 0.662518 0.125040 0.462476
O O11 0.609041 0.000000 0.517164
O O12 0.135588 0.353350 0.792084
O O13 0.121741 0.224765 0.721623
O O14 0.000000 0.335679 0.723303
O O15 0.250000 0.750000 0.925017
O O16 0.321363 0.885108 0.897701
O O17 0.500000 0.604324 0.358792
O O18 0.376836 0.500000 0.331791
O O19 0.500000 0.122457 0.187242
#
# Coordination Sequence:
#
# PCOD9369022 Si02
#       7
#    16  16  16  16  16  16  16
#     4  10  20  35  58  88 121 155 192 236 283 330
#     4  10  20  36  57  84 115 152 193 235 283 336
#     4  11  25  44  64  85 110 143 189 244 295 343
#     4   9  17  31  53  82 118 156 193 233 277 331
#     4  12  24  39  60  84 111 149 192 238 288 341
#     4  10  21  36  56  86 122 155 188 230 283 342
#     4   9  18  32  53  85 122 157 192 230 276 334
#
# _framework density 19.542984000000001
#
# number of rings (size 3 to 8) (size 9 to 14) (size 15 to 20)
#    0.000    1.857    0.000    4.286    0.000    6.286 
#    0.000    2.143    0.000    0.857    0.000    0.000 
#    0.000    0.000    0.000    0.000    0.000    0.000 
#
# Total GULP energy -156315.255661 kJ/mol
# GULP energy per Si atom -5582.687702 kJ/mol
# Density = 1.949850 g / cm^3
# Si number density = 19.542984 Si / 1000 Ang^3
#
#
#
# Elastic Constant Matrix: (Units=GPa)
#
#
# Indices 1 2 3 4 5 6 
#
# 1 124.5405 43.9463 82.1880 0.0000 0.0000 0.0000
# 2 43.9463 52.7913 30.7761 0.0000 0.0000 0.0000
# 3 82.1880 30.7761 106.4877 0.0000 0.0000 0.0000
# 4 0.0000 0.0000 0.0000 15.4439 0.0000 0.0000
# 5 0.0000 0.0000 0.0000 0.0000 31.9357 0.0000
# 6 0.0000 0.0000 0.0000 0.0000 0.0000 24.1111
#
#
#
# Elastic Compliance Matrix: (Units=1/GPa)
#
#
# Indices 1 2 3 4 5 6 
#
# 1 0.019298 -0.008877 -0.012329 0.000000 0.000000 0.000000
# 2 -0.008877 0.026865 -0.000912 0.000000 0.000000 0.000000
# 3 -0.012329 -0.000912 0.019170 0.000000 0.000000 0.000000
# 4 0.000000 0.000000 0.000000 0.064750 0.000000 0.000000
# 5 0.000000 0.000000 0.000000 0.000000 0.031313 0.000000
# 6 0.000000 0.000000 0.000000 0.000000 0.000000 0.041475
#
#
# Mechanical properties :
#
#
# Convention : Reuss Voigt Hill
#
# Bulk Modulus (GPa) = 47.40413 66.40448 56.90431
# Shear Modulus (GPa) = 19.67419 22.75875 21.21647
#
# Velocity S-wave (km/s) = 3.17632 3.41625 3.29847
# Velocity P-wave (km/s) = 6.14500 7.04368 6.60963
#
# Compressibility (1/GPa) = 0.02109521
#
# Stress axis : x y z
#
# Youngs Moduli (GPa) = 51.81804 37.22382 52.16491
#
# Poissons Ratio (x) = 0.33045 0.64313
# Poissons Ratio (y) = 0.46001 0.04760
# Poissons Ratio (z) = 0.63886 0.03396
#
# Static dielectric constant tensor:
#      x y z
#    x 1.719060 0.000000 0.000000 
#    y 0.000000 1.735210 0.000000 
#    z 0.000000 0.000000 1.662360 
# 
# From -- ./inp_files/29482.got.cif
#   From: 2010.05.17/outbox.cif.g08.bks.cpg/sg42_15_cif.got.tgz:29482.got - 2010.06.03 19:03:34.
