data_PCOD9369217
_publ_section_title
;
Structure prediction by ZEFSAII (Michael W. Deem and Ramdas Pophale) SiO2 
 PCOD9369217
Probable space group: F M M 2
;
_chemical_formula_sum "Si O2"
_cell_formula_units_Z 80
_cell_length_a 8.168010
_cell_length_b 20.981687
_cell_length_c 26.236107
_cell_angle_alpha 90.000000
_cell_angle_beta 90.000000
_cell_angle_gamma 90.000000
_cell_volume 4496.308054
_symmetry_space_group_name_H-M "F M M 2"
_symmetry_group_IT_number 42
_symmetry_cell_setting 'orthorhombic'
loop_
_space_group_symop_operation_xyz
x,y,z
-x,-y,z
-x,y,z
x,-y,z
x,1/2+y,1/2+z
-x,1/2-y,1/2+z
-x,1/2+y,1/2+z
x,1/2-y,1/2+z
1/2+x,y,1/2+z
1/2-x,-y,1/2+z
1/2-x,y,1/2+z
1/2+x,-y,1/2+z
1/2+x,1/2+y,z
1/2-x,1/2-y,z
1/2-x,1/2+y,z
1/2+x,1/2-y,z
loop_
_atom_site_type_symbol
_atom_site_label
_atom_site_fract_x
_atom_site_fract_y
_atom_site_fract_z
Si Si1 0.000000 0.924958 0.510600
Si Si2 0.000000 0.425452 0.811097
Si Si3 0.193054 0.816411 0.653935
Si Si4 0.750000 0.250000 0.462941
Si Si5 0.500000 0.157443 0.911562
Si Si6 0.176523 0.145612 0.046466
Si Si7 0.689908 0.926020 0.236613
O O1 0.000000 0.899061 0.453036
O O2 0.164353 0.896984 0.535850
O O3 0.000000 0.000000 0.513408
O O4 0.834311 0.416846 0.777752
O O5 0.000000 0.500000 0.828402
O O6 0.000000 0.375100 0.856917
O O7 0.250000 0.750000 0.678666
O O8 0.294082 0.824504 0.601984
O O9 0.217496 0.876333 0.691022
O O10 0.000000 0.812990 0.641801
O O11 0.648312 0.295907 0.426144
O O12 0.827807 0.299838 0.503121
O O13 0.000000 0.112071 0.045450
O O14 0.500000 0.916791 0.254907
O O15 0.701188 0.000000 0.219500
#
# Coordination Sequence:
#
# PCOD9369217 Si02
#       7
#     8   8  16   8   8  16  16
#     4  10  23  40  57  87 120 154 202 253 297 353
#     4  10  21  42  66  85 109 155 204 248 305 358
#     4  11  22  35  57  91 123 161 201 245 294 358
#     4  10  20  38  58  88 122 152 196 244 300 364
#     4  10  21  40  63  86 116 155 194 253 302 357
#     4  11  21  36  60  84 121 164 197 238 298 362
#     4   9  21  42  62  84 119 159 200 247 301 360
#
# _framework density 17.792376000000001
#
# number of rings (size 3 to 8) (size 9 to 14) (size 15 to 20)
#    0.000    1.800    3.000    0.900    2.800    1.200 
#    3.600    0.000    0.000    2.400    0.000    0.000 
#    0.000    0.000    0.000    0.000    0.000    0.000 
#
# Total GULP energy -111427.874533 kJ/mol
# GULP energy per Si atom -5571.393727 kJ/mol
# Density = 1.775188 g / cm^3
# Si number density = 17.792376 Si / 1000 Ang^3
#
#
#
# Elastic Constant Matrix: (Units=GPa)
#
#
# Indices 1 2 3 4 5 6 
#
# 1 141.8713 70.4272 58.7462 0.0000 0.0000 0.0000
# 2 70.4272 127.3970 65.5687 0.0000 0.0000 0.0000
# 3 58.7462 65.5687 94.5554 0.0000 0.0000 0.0000
# 4 0.0000 0.0000 0.0000 14.8886 0.0000 0.0000
# 5 0.0000 0.0000 0.0000 0.0000 -84.3009 0.0000
# 6 0.0000 0.0000 0.0000 0.0000 0.0000 30.4850
#
#
#
# Elastic Compliance Matrix: (Units=1/GPa)
#
#
# Indices 1 2 3 4 5 6 
#
# 1 0.010569 -0.003830 -0.003911 0.000000 0.000000 0.000000
# 2 -0.003830 0.013594 -0.007047 0.000000 0.000000 0.000000
# 3 -0.003911 -0.007047 0.017892 0.000000 0.000000 0.000000
# 4 0.000000 0.000000 0.000000 0.067165 0.000000 0.000000
# 5 0.000000 0.000000 0.000000 0.000000 -0.011862 0.000000
# 6 0.000000 0.000000 0.000000 0.000000 0.000000 0.032803
#
#
# Mechanical properties :
#
#
# Convention : Reuss Voigt Hill
#
# Bulk Modulus (GPa) = 80.12918 83.70085 81.91502
# Shear Modulus (GPa) = 30.50712 3.48665 16.99688
#
# Velocity S-wave (km/s) = 4.14529 1.40139 3.09413
# Velocity P-wave (km/s) = 8.24892 7.05434 7.67491
#
# Compressibility (1/GPa) = 0.01247985
#
# Stress axis : x y z
#
# Youngs Moduli (GPa) = 94.61359 73.56340 55.89110
#
# Poissons Ratio (x) = 0.28176 0.21857
# Poissons Ratio (y) = 0.36239 0.39385
# Poissons Ratio (z) = 0.36999 0.51839
#
# Static dielectric constant tensor:
#      x y z
#    x 1.704720 0.000000 0.000000 
#    y 0.000000 1.591180 0.000000 
#    z 0.000000 0.000000 1.572150 
# 
# From -- ./inp_files/30155.got.cif
#   From: 2010.05.17/outbox.cif.g08.bks.cpg/sg42_16_cif.got.tgz:30155.got - 2010.06.03 19:03:34.
