data_PCOD9369347
_publ_section_title
;
Structure prediction by ZEFSAII (Michael W. Deem and Ramdas Pophale) SiO2 
 PCOD9369347
Probable space group: F M M 2
;
_chemical_formula_sum "Si O2"
_cell_formula_units_Z 96
_cell_length_a 18.588949
_cell_length_b 7.637830
_cell_length_c 32.724754
_cell_angle_alpha 90.000000
_cell_angle_beta 90.000000
_cell_angle_gamma 90.000000
_cell_volume 4646.235451
_symmetry_space_group_name_H-M "F M M 2"
_symmetry_group_IT_number 42
_symmetry_cell_setting 'orthorhombic'
loop_
_space_group_symop_operation_xyz
x,y,z
-x,-y,z
-x,y,z
x,-y,z
x,1/2+y,1/2+z
-x,1/2-y,1/2+z
-x,1/2+y,1/2+z
x,1/2-y,1/2+z
1/2+x,y,1/2+z
1/2-x,-y,1/2+z
1/2-x,y,1/2+z
1/2+x,-y,1/2+z
1/2+x,1/2+y,z
1/2-x,1/2-y,z
1/2-x,1/2+y,z
1/2+x,1/2-y,z
loop_
_atom_site_type_symbol
_atom_site_label
_atom_site_fract_x
_atom_site_fract_y
_atom_site_fract_z
Si Si1 0.665181 0.711047 0.209290
Si Si2 0.080983 0.708711 0.630312
Si Si3 0.334856 0.789338 0.887077
Si Si4 0.164756 0.789967 0.298199
Si Si5 0.916847 0.285364 0.967801
Si Si6 0.834099 0.207646 0.548205
O O1 0.658903 0.500000 0.209932
O O2 0.750000 0.750000 0.204792
O O3 0.621290 0.779270 0.170499
O O4 0.638929 0.775923 0.253962
O O5 0.075658 0.500000 0.636023
O O6 0.127189 0.734857 0.589626
O O7 0.000000 0.778641 0.625689
O O8 0.250000 0.750000 0.891601
O O9 0.360933 0.723635 0.842441
O O10 0.378828 0.725113 0.926096
O O11 0.341672 0.000000 0.886381
O O12 0.250000 0.750000 0.298163
O O13 0.154910 0.000000 0.298249
O O14 0.915097 0.500000 0.967613
O O15 0.000000 0.233297 0.969779
O O16 0.873503 0.223059 0.007620
O O17 0.750000 0.250000 0.548369
O O18 0.841154 0.000000 0.546791
#
# Coordination Sequence:
#
# PCOD9369347 Si02
#       6
#    16  16  16  16  16  16
#     4   9  17  30  48  70  96 126 161 200 241 284
#     4  10  21  36  52  72 101 133 163 200 246 293
#     4   9  16  28  48  71  95 124 159 198 237 280
#     4   8  14  25  43  68  94 121 156 196 237 279
#     4   9  18  32  49  71  99 128 157 193 239 288
#     4  11  22  36  55  76  98 126 163 205 246 291
#
# _framework density 20.661888000000001
#
# number of rings (size 3 to 8) (size 9 to 14) (size 15 to 20)
#    0.000    2.667    0.000    2.000    0.000    3.000 
#    0.000    1.667    0.000    7.500    0.000    0.000 
#    0.000   13.333    0.000    0.000    0.000    0.000 
#
# Total GULP energy -133861.082148 kJ/mol
# GULP energy per Si atom -5577.545089 kJ/mol
# Density = 2.061486 g / cm^3
# Si number density = 20.661888 Si / 1000 Ang^3
#
#
#
# Elastic Constant Matrix: (Units=GPa)
#
#
# Indices 1 2 3 4 5 6 
#
# 1 134.8902 -1.0195 121.6454 0.0000 0.0000 0.0000
# 2 -1.0195 42.8326 7.6462 0.0000 0.0000 0.0000
# 3 121.6454 7.6462 268.4760 0.0000 0.0000 0.0000
# 4 0.0000 0.0000 0.0000 1.5203 0.0000 0.0000
# 5 0.0000 0.0000 0.0000 0.0000 -10.0929 0.0000
# 6 0.0000 0.0000 0.0000 0.0000 0.0000 8.2240
#
#
#
# Elastic Compliance Matrix: (Units=1/GPa)
#
#
# Indices 1 2 3 4 5 6 
#
# 1 0.012610 0.001327 -0.005751 0.000000 0.000000 0.000000
# 2 0.001327 0.023606 -0.001273 0.000000 0.000000 0.000000
# 3 -0.005751 -0.001273 0.006367 0.000000 0.000000 0.000000
# 4 0.000000 0.000000 0.000000 0.657786 0.000000 0.000000
# 5 0.000000 0.000000 0.000000 0.000000 -0.099080 0.000000
# 6 0.000000 0.000000 0.000000 0.000000 0.000000 0.121595
#
#
# Mechanical properties :
#
#
# Convention : Reuss Voigt Hill
#
# Bulk Modulus (GPa) = 32.06501 78.08255 55.07378
# Shear Modulus (GPa) = 6.71434 21.12540 13.91987
#
# Velocity S-wave (km/s) = 1.80463 3.20102 2.59838
# Velocity P-wave (km/s) = 4.46036 7.17877 5.97618
#
# Compressibility (1/GPa) = 0.03118664
#
# Stress axis : x y z
#
# Youngs Moduli (GPa) = 79.30133 42.36282 157.06163
#
# Poissons Ratio (x) = -0.05621 0.90332
# Poissons Ratio (y) = -0.10522 0.20001
# Poissons Ratio (z) = 0.45609 0.05395
#
# Static dielectric constant tensor:
#      x y z
#    x 1.676730 0.000000 0.000000 
#    y 0.000000 1.955450 0.000000 
#    z 0.000000 0.000000 1.778990 
# 
# From -- ./inp_files/32812.got.cif
#   From: 2010.05.17/outbox.cif.g08.bks.cpg/sg42_17_cif.got.tgz:32812.got - 2010.06.03 19:03:34.
