data_PCOD9369967
_publ_section_title
;
Structure prediction by ZEFSAII (Michael W. Deem and Ramdas Pophale) SiO2 
 PCOD9369967
Probable space group: F M M 2
;
_chemical_formula_sum "Si O2"
_cell_formula_units_Z 72
_cell_length_a 13.905307
_cell_length_b 14.497560
_cell_length_c 16.779275
_cell_angle_alpha 90.000000
_cell_angle_beta 90.000000
_cell_angle_gamma 90.000000
_cell_volume 3382.584763
_symmetry_space_group_name_H-M "F M M 2"
_symmetry_group_IT_number 42
_symmetry_cell_setting 'orthorhombic'
loop_
_space_group_symop_operation_xyz
x,y,z
-x,-y,z
-x,y,z
x,-y,z
x,1/2+y,1/2+z
-x,1/2-y,1/2+z
-x,1/2+y,1/2+z
x,1/2-y,1/2+z
1/2+x,y,1/2+z
1/2-x,-y,1/2+z
1/2-x,y,1/2+z
1/2+x,-y,1/2+z
1/2+x,1/2+y,z
1/2-x,1/2-y,z
1/2-x,1/2+y,z
1/2+x,1/2-y,z
loop_
_atom_site_type_symbol
_atom_site_label
_atom_site_fract_x
_atom_site_fract_y
_atom_site_fract_z
Si Si1 0.287046 0.855646 0.277820
Si Si2 0.000000 0.393058 0.978555
Si Si3 0.000000 0.392465 0.240339
Si Si4 0.000000 0.735749 0.608120
Si Si5 0.785745 0.856549 0.444689
Si Si6 0.816571 0.101373 0.111667
O O1 0.250000 0.750000 0.277037
O O2 0.400484 0.872145 0.283578
O O3 0.252496 0.896298 0.361616
O O4 0.247549 0.891023 0.192188
O O5 0.000000 0.302580 0.033403
O O6 0.000000 0.500000 0.009988
O O7 0.101560 0.378015 0.936468
O O8 0.000000 0.312657 0.175384
O O9 0.000000 0.500000 0.213951
O O10 0.097328 0.675578 0.611603
O O11 0.750000 0.750000 0.445571
O O12 0.747607 0.890491 0.531192
O O13 0.861462 0.000000 0.111340
#
# Coordination Sequence:
#
# PCOD9369967 Si02
#       6
#    16   8   8   8  16  16
#     4  11  25  47  76 103 146 191 235 293 360 422
#     4  12  25  43  74 106 139 189 242 293 349 420
#     4  12  25  43  74 106 139 189 242 293 349 420
#     4  12  24  46  70 104 148 186 242 294 348 436
#     4  11  25  47  76 103 146 191 235 293 360 422
#     4  12  25  45  72 105 145 191 235 295 360 420
#
# _framework density 21.285498
#
# number of rings (size 3 to 8) (size 9 to 14) (size 15 to 20)
#    0.000    0.444    4.444    4.000    0.000    8.889 
#    0.000    0.000    0.000    0.000    0.000    0.000 
#    0.000    0.000    0.000    0.000    0.000    0.000 
#
# Total GULP energy -100338.575969 kJ/mol
# GULP energy per Si atom -5574.365332 kJ/mol
# Density = 2.123705 g / cm^3
# Si number density = 21.285498 Si / 1000 Ang^3
#
#
#
# Elastic Constant Matrix: (Units=GPa)
#
#
# Indices 1 2 3 4 5 6 
#
# 1 175.2481 34.2409 22.0585 0.0000 0.0000 0.0000
# 2 34.2409 156.5658 -0.6915 0.0000 0.0000 0.0000
# 3 22.0585 -0.6915 81.7228 0.0000 0.0000 0.0000
# 4 0.0000 0.0000 0.0000 -100.4329 0.0000 0.0000
# 5 0.0000 0.0000 0.0000 0.0000 29.3448 0.0000
# 6 0.0000 0.0000 0.0000 0.0000 0.0000 -92.9829
#
#
#
# Elastic Compliance Matrix: (Units=1/GPa)
#
#
# Indices 1 2 3 4 5 6 
#
# 1 0.006183 -0.001360 -0.001681 0.000000 0.000000 0.000000
# 2 -0.001360 0.006686 0.000424 0.000000 0.000000 0.000000
# 3 -0.001681 0.000424 0.012694 0.000000 0.000000 0.000000
# 4 0.000000 0.000000 0.000000 -0.009957 0.000000 0.000000
# 5 0.000000 0.000000 0.000000 0.000000 0.034078 0.000000
# 6 0.000000 0.000000 0.000000 0.000000 0.000000 -0.010755
#
#
# Mechanical properties :
#
#
# Convention : Reuss Voigt Hill
#
# Bulk Modulus (GPa) = 49.18819 58.30586 53.74702
# Shear Modulus (GPa) = 98.15581 -8.95228 44.60177
#
# Velocity S-wave (km/s) = 6.79809 -2.05303 4.58253
# Velocity P-wave (km/s) = 9.20748 4.67246 7.30101
#
# Compressibility (1/GPa) = 0.02033009
#
# Stress axis : x y z
#
# Youngs Moduli (GPa) = 161.72347 149.55882 78.77940
#
# Poissons Ratio (x) = 0.20336 0.13239
# Poissons Ratio (y) = 0.21990 -0.03337
# Poissons Ratio (z) = 0.27178 -0.06335
#
# Static dielectric constant tensor:
#      x y z
#    x 1.782790 0.000000 0.000000 
#    y 0.000000 1.789020 0.000000 
#    z 0.000000 0.000000 2.730170 
# 
# From -- ./inp_files/19744.got.cif
#   From: 2010.05.17/outbox.cif.g08.bks.cpg/sg42_10_cif.got.tgz:19744.got - 2010.06.03 19:03:34.
