data_PCOD9369091
_publ_section_title
;
Structure prediction by ZEFSAII (Michael W. Deem and Ramdas Pophale) SiO2 
 PCOD9369091
Probable space group: F M M 2
;
_chemical_formula_sum "Si O2"
_cell_formula_units_Z 112
_cell_length_a 28.045103
_cell_length_b 14.925897
_cell_length_c 12.667449
_cell_angle_alpha 90.000000
_cell_angle_beta 90.000000
_cell_angle_gamma 90.000000
_cell_volume 5302.572854
_symmetry_space_group_name_H-M "F M M 2"
_symmetry_group_IT_number 42
_symmetry_cell_setting 'orthorhombic'
loop_
_space_group_symop_operation_xyz
x,y,z
-x,-y,z
-x,y,z
x,-y,z
x,1/2+y,1/2+z
-x,1/2-y,1/2+z
-x,1/2+y,1/2+z
x,1/2-y,1/2+z
1/2+x,y,1/2+z
1/2-x,-y,1/2+z
1/2-x,y,1/2+z
1/2+x,-y,1/2+z
1/2+x,1/2+y,z
1/2-x,1/2-y,z
1/2-x,1/2+y,z
1/2+x,1/2-y,z
loop_
_atom_site_type_symbol
_atom_site_label
_atom_site_fract_x
_atom_site_fract_y
_atom_site_fract_z
Si Si1 0.943682 0.098874 0.078760
Si Si2 0.555679 0.803709 0.031618
Si Si3 0.372050 0.690192 0.704112
Si Si4 0.690415 0.100526 0.887666
Si Si5 0.589674 0.148485 0.808684
Si Si6 0.696061 0.261522 0.046658
Si Si7 0.703292 0.104132 0.355110
O O1 0.935069 0.109506 0.204833
O O2 0.000000 0.094143 0.058959
O O3 0.923344 0.000000 0.045942
O O4 0.929850 0.196578 0.029644
O O5 0.500000 0.806827 0.062017
O O6 0.563046 0.853289 0.920324
O O7 0.590741 0.847136 0.118812
O O8 0.402588 0.745929 0.787259
O O9 0.340108 0.763580 0.641957
O O10 0.333655 0.629923 0.763745
O O11 0.642161 0.106604 0.821825
O O12 0.740567 0.122659 0.829579
O O13 0.695512 0.000000 0.929540
O O14 0.684880 0.171682 0.980713
O O15 0.750000 0.250000 0.084745
O O16 0.693104 0.339985 0.961160
O O17 0.698714 0.000000 0.376797
#
# Coordination Sequence:
#
# PCOD9369091 Si02
#       7
#    16  16  16  16  16  16  16
#     4   9  19  36  59  86 115 151 201 256 305 359
#     4  10  21  38  60  89 121 160 207 253 311 373
#     4  11  21  37  61  89 116 162 200 251 305 364
#     4  10  20  36  58  84 119 159 202 246 299 366
#     4  11  20  35  57  84 122 156 201 246 312 357
#     4  10  21  37  60  84 121 159 204 249 301 365
#     4  10  22  40  60  87 124 165 202 247 306 370
#
# _framework density 21.121822000000002
#
# number of rings (size 3 to 8) (size 9 to 14) (size 15 to 20)
#    0.000    1.857    2.857    0.857    2.000    1.143 
#    0.000    7.143    0.000    2.143    0.000    0.000 
#    0.000    0.000    0.000    0.000    0.000    0.000 
#
# Total GULP energy -156129.043869 kJ/mol
# GULP energy per Si atom -5576.037281 kJ/mol
# Density = 2.107375 g / cm^3
# Si number density = 21.121822 Si / 1000 Ang^3
#
#
#
# Elastic Constant Matrix: (Units=GPa)
#
#
# Indices 1 2 3 4 5 6 
#
# 1 70.0456 5.3641 28.0516 0.0000 0.0000 0.0000
# 2 5.3641 73.2819 15.5820 0.0000 0.0000 0.0000
# 3 28.0516 15.5820 65.3483 0.0000 0.0000 0.0000
# 4 0.0000 0.0000 0.0000 -60.8507 0.0000 0.0000
# 5 0.0000 0.0000 0.0000 0.0000 23.8573 0.0000
# 6 0.0000 0.0000 0.0000 0.0000 0.0000 15.2612
#
#
#
# Elastic Compliance Matrix: (Units=1/GPa)
#
#
# Indices 1 2 3 4 5 6 
#
# 1 0.017248 0.000328 -0.007482 0.000000 0.000000 0.000000
# 2 0.000328 0.014381 -0.003570 0.000000 0.000000 0.000000
# 3 -0.007482 -0.003570 0.019366 0.000000 0.000000 0.000000
# 4 0.000000 0.000000 0.000000 -0.016434 0.000000 0.000000
# 5 0.000000 0.000000 0.000000 0.000000 0.041916 0.000000
# 6 0.000000 0.000000 0.000000 0.000000 0.000000 0.065526
#
#
# Mechanical properties :
#
#
# Convention : Reuss Voigt Hill
#
# Bulk Modulus (GPa) = 33.84452 34.07456 33.95954
# Shear Modulus (GPa) = 28.85196 6.29878 17.57537
#
# Velocity S-wave (km/s) = 3.69992 1.72875 2.88774
# Velocity P-wave (km/s) = 5.85755 4.48912 5.21838
#
# Compressibility (1/GPa) = 0.02954688
#
# Stress axis : x y z
#
# Youngs Moduli (GPa) = 57.97889 69.53617 51.63782
#
# Poissons Ratio (x) = -0.02284 0.38636
# Poissons Ratio (y) = -0.01904 0.18435
# Poissons Ratio (z) = 0.43380 0.24825
#
# Static dielectric constant tensor:
#      x y z
#    x 1.789630 0.000000 0.000000 
#    y 0.000000 1.793530 0.000000 
#    z 0.000000 0.000000 1.749870 
# 
# From -- ./inp_files/8139.got.cif
#   From: 2010.05.17/outbox.cif.g08.bks.cpg/sg42_5_cif.got.tgz:8139.got - 2010.06.03 19:03:34.
