data_PCOD9369724
_publ_section_title
;
Structure prediction by ZEFSAII (Michael W. Deem and Ramdas Pophale) SiO2 
 PCOD9369724
Probable space group: F M M 2
;
_chemical_formula_sum "Si O2"
_cell_formula_units_Z 72
_cell_length_a 24.055135
_cell_length_b 10.682363
_cell_length_c 13.650782
_cell_angle_alpha 90.000000
_cell_angle_beta 90.000000
_cell_angle_gamma 90.000000
_cell_volume 3507.782535
_symmetry_space_group_name_H-M "F M M 2"
_symmetry_group_IT_number 42
_symmetry_cell_setting 'orthorhombic'
loop_
_space_group_symop_operation_xyz
x,y,z
-x,-y,z
-x,y,z
x,-y,z
x,1/2+y,1/2+z
-x,1/2-y,1/2+z
-x,1/2+y,1/2+z
x,1/2-y,1/2+z
1/2+x,y,1/2+z
1/2-x,-y,1/2+z
1/2-x,y,1/2+z
1/2+x,-y,1/2+z
1/2+x,1/2+y,z
1/2-x,1/2-y,z
1/2-x,1/2+y,z
1/2+x,1/2-y,z
loop_
_atom_site_type_symbol
_atom_site_label
_atom_site_fract_x
_atom_site_fract_y
_atom_site_fract_z
Si Si1 0.500000 0.000000 0.511611
Si Si2 0.090769 0.500000 0.338888
Si Si3 0.202867 0.854978 0.090705
Si Si4 0.500000 0.272114 0.522526
Si Si5 0.500000 0.000000 0.171694
Si Si6 0.119010 0.259519 0.433117
Si Si7 0.209177 0.136142 0.321364
O O1 0.551726 0.000000 0.436409
O O2 0.500000 0.130979 0.567049
O O3 0.122344 0.369972 0.351661
O O4 0.053088 0.500000 0.243169
O O5 0.250000 0.750000 0.071068
O O6 0.192778 0.852209 0.207298
O O7 0.218343 0.000000 0.066338
O O8 0.148973 0.815121 0.029206
O O9 0.500000 0.378507 0.603410
O O10 0.444009 0.278247 0.457549
O O11 0.155956 0.148860 0.390344
O O12 0.250000 0.250000 0.345029
O O13 0.236199 0.000000 0.334022
#
# Coordination Sequence:
#
# PCOD9369724 Si02
#       7
#     4   8  16   8   4  16  16
#     4   7  16  42  60  81 118 170 207 244 312 391
#     4   9  20  38  64  86 124 173 211 254 317 389
#     4  10  22  43  66  95 125 167 216 266 321 390
#     4  10  24  40  64  97 131 169 218 266 319 380
#     4  11  24  42  64  95 130 168 233 270 308 365
#     4  11  22  41  67  92 133 173 214 259 328 391
#     4  10  24  42  65  95 131 167 216 269 327 385
#
# _framework density 20.525789
#
# number of rings (size 3 to 8) (size 9 to 14) (size 15 to 20)
#    0.000    2.000    1.111    1.333    6.222    2.667 
#    0.000    0.000    0.000    4.000    0.000    0.000 
#    0.000    0.000    0.000    0.000    0.000    0.000 
#
# Total GULP energy -100477.127243 kJ/mol
# GULP energy per Si atom -5582.062625 kJ/mol
# Density = 2.047907 g / cm^3
# Si number density = 20.525789 Si / 1000 Ang^3
#
#
#
# Elastic Constant Matrix: (Units=GPa)
#
#
# Indices 1 2 3 4 5 6 
#
# 1 118.8556 49.9271 37.3271 0.0000 0.0000 0.0000
# 2 49.9271 160.5626 52.7321 0.0000 0.0000 0.0000
# 3 37.3271 52.7321 91.3162 0.0000 0.0000 0.0000
# 4 0.0000 0.0000 0.0000 23.1461 0.0000 0.0000
# 5 0.0000 0.0000 0.0000 0.0000 28.6652 0.0000
# 6 0.0000 0.0000 0.0000 0.0000 0.0000 27.8317
#
#
#
# Elastic Compliance Matrix: (Units=1/GPa)
#
#
# Indices 1 2 3 4 5 6 
#
# 1 0.010266 -0.002239 -0.002904 0.000000 0.000000 0.000000
# 2 -0.002239 0.008174 -0.003805 0.000000 0.000000 0.000000
# 3 -0.002904 -0.003805 0.014335 0.000000 0.000000 0.000000
# 4 0.000000 0.000000 0.000000 0.043204 0.000000 0.000000
# 5 0.000000 0.000000 0.000000 0.000000 0.034886 0.000000
# 6 0.000000 0.000000 0.000000 0.000000 0.000000 0.035930
#
#
# Mechanical properties :
#
#
# Convention : Reuss Voigt Hill
#
# Bulk Modulus (GPa) = 67.20296 72.30077 69.75186
# Shear Modulus (GPa) = 29.47260 31.31180 30.39220
#
# Velocity S-wave (km/s) = 3.79341 3.90998 3.85214
# Velocity P-wave (km/s) = 7.21100 7.46222 7.33769
#
# Compressibility (1/GPa) = 0.01488030
#
# Stress axis : x y z
#
# Youngs Moduli (GPa) = 97.41076 122.34147 69.75850
#
# Poissons Ratio (x) = 0.27387 0.20255
# Poissons Ratio (y) = 0.21806 0.26544
# Poissons Ratio (z) = 0.28285 0.46552
#
# Static dielectric constant tensor:
#      x y z
#    x 1.750530 0.000000 0.000000 
#    y 0.000000 1.793230 0.000000 
#    z 0.000000 0.000000 1.701800 
# 
# From -- ./inp_files/10562.got.cif
#   From: 2010.05.17/outbox.cif.g08.bks.cpg/sg42_6_cif.got.tgz:10562.got - 2010.06.03 19:03:34.
