data_PCOD9369264
_publ_section_title
;
Structure prediction by ZEFSAII (Michael W. Deem and Ramdas Pophale) SiO2 
 PCOD9369264
Probable space group: F M M 2
;
_chemical_formula_sum "Si O2"
_cell_formula_units_Z 112
_cell_length_a 29.203633
_cell_length_b 16.286236
_cell_length_c 10.481239
_cell_angle_alpha 90.000000
_cell_angle_beta 90.000000
_cell_angle_gamma 90.000000
_cell_volume 4985.058165
_symmetry_space_group_name_H-M "F M M 2"
_symmetry_group_IT_number 42
_symmetry_cell_setting 'orthorhombic'
loop_
_space_group_symop_operation_xyz
x,y,z
-x,-y,z
-x,y,z
x,-y,z
x,1/2+y,1/2+z
-x,1/2-y,1/2+z
-x,1/2+y,1/2+z
x,1/2-y,1/2+z
1/2+x,y,1/2+z
1/2-x,-y,1/2+z
1/2-x,y,1/2+z
1/2+x,-y,1/2+z
1/2+x,1/2+y,z
1/2-x,1/2-y,z
1/2-x,1/2+y,z
1/2+x,1/2-y,z
loop_
_atom_site_type_symbol
_atom_site_label
_atom_site_fract_x
_atom_site_fract_y
_atom_site_fract_z
Si Si1 0.145771 0.373460 0.640360
Si Si2 0.447342 0.753532 0.328693
Si Si3 0.612974 0.403024 0.407039
Si Si4 0.260552 0.587181 0.025616
Si Si5 0.867482 0.809398 0.655323
Si Si6 0.723853 0.168613 0.270449
Si Si7 0.948969 0.409082 0.517636
O O1 0.149217 0.386501 0.792709
O O2 0.186173 0.415259 0.564889
O O3 0.149175 0.278069 0.601893
O O4 0.094786 0.404262 0.608504
O O5 0.500000 0.740644 0.293757
O O6 0.425385 0.668104 0.379128
O O7 0.416854 0.787405 0.212540
O O8 0.445605 0.828916 0.429060
O O9 0.599959 0.500000 0.403761
O O10 0.631313 0.377583 0.546369
O O11 0.244811 0.500000 0.974388
O O12 0.235214 0.606501 0.156621
O O13 0.256897 0.648828 0.908926
O O14 0.831241 0.826839 0.767780
O O15 0.750000 0.250000 0.226649
O O16 0.946416 0.500000 0.452972
O O17 0.000000 0.406147 0.577624
#
# Coordination Sequence:
#
# PCOD9369264 Si02
#       7
#    16  16  16  16  16  16  16
#     4  11  23  42  68  98 137 178 226 291 357 427
#     4  10  23  43  68 100 141 183 231 291 356 426
#     4  11  25  43  69 102 140 186 233 291 357 432
#     4  12  27  45  70 105 140 180 235 299 363 435
#     4  11  25  44  69  99 137 184 235 289 360 423
#     4  12  27  46  73 100 139 189 240 294 363 433
#     4  10  20  38  67  98 130 175 229 281 342 419
#
# _framework density 22.467140000000001
#
# number of rings (size 3 to 8) (size 9 to 14) (size 15 to 20)
#    0.000    1.000    2.857    3.000    4.000    4.857 
#    0.000    0.000    0.000    0.000    0.000    0.000 
#    0.000    0.000    0.000    0.000    0.000    0.000 
#
# Total GULP energy -156365.578592 kJ/mol
# GULP energy per Si atom -5584.484950 kJ/mol
# Density = 2.241600 g / cm^3
# Si number density = 22.467140 Si / 1000 Ang^3
#
#
#
# Elastic Constant Matrix: (Units=GPa)
#
#
# Indices 1 2 3 4 5 6 
#
# 1 78.7267 12.6076 21.1682 0.0000 0.0000 0.0000
# 2 12.6076 146.1924 27.6460 0.0000 0.0000 0.0000
# 3 21.1682 27.6460 72.2777 0.0000 0.0000 0.0000
# 4 0.0000 0.0000 0.0000 -174.9385 0.0000 0.0000
# 5 0.0000 0.0000 0.0000 0.0000 26.6827 0.0000
# 6 0.0000 0.0000 0.0000 0.0000 0.0000 -4.4701
#
#
#
# Elastic Compliance Matrix: (Units=1/GPa)
#
#
# Indices 1 2 3 4 5 6 
#
# 1 0.013817 -0.000460 -0.003871 0.000000 0.000000 0.000000
# 2 -0.000460 0.007389 -0.002692 0.000000 0.000000 0.000000
# 3 -0.003871 -0.002692 0.015999 0.000000 0.000000 0.000000
# 4 0.000000 0.000000 0.000000 -0.005716 0.000000 0.000000
# 5 0.000000 0.000000 0.000000 0.000000 0.037477 0.000000
# 6 0.000000 0.000000 0.000000 0.000000 0.000000 -0.223707
#
#
# Mechanical properties :
#
#
# Convention : Reuss Voigt Hill
#
# Bulk Modulus (GPa) = 43.17728 46.67115 44.92422
# Shear Modulus (GPa) = -37.60017 -14.82684 -26.21350
#
# Velocity S-wave (km/s) = -4.09536 -2.57171 -3.41948
# Velocity P-wave (km/s) = 1.76151 3.46409 2.10915
#
# Compressibility (1/GPa) = 0.02316033
#
# Stress axis : x y z
#
# Youngs Moduli (GPa) = 72.37709 135.33736 62.50505
#
# Poissons Ratio (x) = 0.06219 0.24194
# Poissons Ratio (y) = 0.03326 0.16824
# Poissons Ratio (z) = 0.28015 0.36428
#
# Static dielectric constant tensor:
#      x y z
#    x 1.860060 0.000000 0.000000 
#    y 0.000000 2.025250 0.000000 
#    z 0.000000 0.000000 1.823130 
# 
# From -- ./inp_files/11120.got.cif
#   From: 2010.05.17/outbox.cif.g08.bks.cpg/sg42_6_cif.got.tgz:11120.got - 2010.06.03 19:03:34.
