data_PCOD9369228
_publ_section_title
;
Structure prediction by ZEFSAII (Michael W. Deem and Ramdas Pophale) SiO2 
 PCOD9369228
Probable space group: F M M 2
;
_chemical_formula_sum "Si O2"
_cell_formula_units_Z 120
_cell_length_a 14.762287
_cell_length_b 15.319400
_cell_length_c 27.760572
_cell_angle_alpha 90.000000
_cell_angle_beta 90.000000
_cell_angle_gamma 90.000000
_cell_volume 6278.036131
_symmetry_space_group_name_H-M "F M M 2"
_symmetry_group_IT_number 42
_symmetry_cell_setting 'orthorhombic'
loop_
_space_group_symop_operation_xyz
x,y,z
-x,-y,z
-x,y,z
x,-y,z
x,1/2+y,1/2+z
-x,1/2-y,1/2+z
-x,1/2+y,1/2+z
x,1/2-y,1/2+z
1/2+x,y,1/2+z
1/2-x,-y,1/2+z
1/2-x,y,1/2+z
1/2+x,-y,1/2+z
1/2+x,1/2+y,z
1/2-x,1/2-y,z
1/2-x,1/2+y,z
1/2+x,1/2-y,z
loop_
_atom_site_type_symbol
_atom_site_label
_atom_site_fract_x
_atom_site_fract_y
_atom_site_fract_z
Si Si1 0.702131 0.593256 0.560300
Si Si2 0.895407 0.711471 0.134082
Si Si3 0.209988 0.898441 0.829146
Si Si4 0.396334 0.192858 0.980867
Si Si5 0.099168 0.852056 0.058397
Si Si6 0.396924 0.404324 0.280957
Si Si7 0.750000 0.250000 0.903556
Si Si8 0.106817 0.708621 0.245592
O O1 0.674039 0.500000 0.579130
O O2 0.674327 0.662191 0.600305
O O3 0.647575 0.615945 0.512158
O O4 0.808948 0.596391 0.550873
O O5 0.896382 0.808829 0.111810
O O6 0.871197 0.697042 0.189425
O O7 0.000000 0.680497 0.126809
O O8 0.317503 0.904413 0.819597
O O9 0.204981 0.827573 0.871844
O O10 0.163064 0.851502 0.782686
O O11 0.178232 0.000000 0.836065
O O12 0.500000 0.176203 0.966700
O O13 0.329708 0.213252 0.937234
O O14 0.397215 0.274299 0.018633
O O15 0.000000 0.894029 0.053385
O O16 0.500000 0.400448 0.299727
O O17 0.389078 0.500000 0.255305
O O18 0.382048 0.312935 0.253741
O O19 0.000000 0.689289 0.252729
#
# Coordination Sequence:
#
# PCOD9369228 Si02
#       8
#    16  16  16  16  16  16   8  16
#     4  11  21  35  58  91 126 153 191 249 305 363
#     4   9  19  35  59  85 114 158 204 242 292 360
#     4  11  24  39  59  88 119 156 203 254 301 359
#     4  10  21  39  64  86 110 150 197 245 302 367
#     4   9  18  37  59  84 116 152 194 236 287 359
#     4   9  18  35  59  85 113 150 199 251 302 355
#     4  12  22  42  62  88 118 158 202 250 312 366
#     4  10  20  38  61  86 121 166 206 249 307 362
#
# _framework density 19.114258
#
# number of rings (size 3 to 8) (size 9 to 14) (size 15 to 20)
#    0.000    2.000    2.667    2.400    0.000    5.867 
#    0.000    3.333    0.000    2.400    0.000    0.000 
#    0.000    0.000    0.000    0.000    0.000    0.000 
#
# Total GULP energy -167020.074654 kJ/mol
# GULP energy per Si atom -5567.335822 kJ/mol
# Density = 1.907075 g / cm^3
# Si number density = 19.114258 Si / 1000 Ang^3
#
#
#
# Elastic Constant Matrix: (Units=GPa)
#
#
# Indices 1 2 3 4 5 6 
#
# 1 93.7394 13.4346 21.2336 0.0000 0.0000 0.0000
# 2 13.4346 75.3534 5.9698 0.0000 0.0000 0.0000
# 3 21.2336 5.9698 64.4219 0.0000 0.0000 0.0000
# 4 0.0000 0.0000 0.0000 -3.4240 0.0000 0.0000
# 5 0.0000 0.0000 0.0000 0.0000 18.4317 0.0000
# 6 0.0000 0.0000 0.0000 0.0000 0.0000 -1.3720
#
#
#
# Elastic Compliance Matrix: (Units=1/GPa)
#
#
# Indices 1 2 3 4 5 6 
#
# 1 0.011767 -0.001804 -0.003711 0.000000 0.000000 0.000000
# 2 -0.001804 0.013645 -0.000670 0.000000 0.000000 0.000000
# 3 -0.003711 -0.000670 0.016808 0.000000 0.000000 0.000000
# 4 0.000000 0.000000 0.000000 -0.292054 0.000000 0.000000
# 5 0.000000 0.000000 0.000000 0.000000 0.054255 0.000000
# 6 0.000000 0.000000 0.000000 0.000000 0.000000 -0.728855
#
#
# Mechanical properties :
#
#
# Convention : Reuss Voigt Hill
#
# Bulk Modulus (GPa) = 33.50045 34.97675 34.23860
# Shear Modulus (GPa) = -5.54254 15.58557 5.02152
#
# Velocity S-wave (km/s) = -1.70469 2.85860 1.62259
# Velocity P-wave (km/s) = 3.69998 5.40684 4.63270
#
# Compressibility (1/GPa) = 0.02985035
#
# Stress axis : x y z
#
# Youngs Moduli (GPa) = 84.98288 73.28433 59.49543
#
# Poissons Ratio (x) = 0.13220 0.22081
# Poissons Ratio (y) = 0.15330 0.03986
# Poissons Ratio (z) = 0.31540 0.04909
#
# Static dielectric constant tensor:
#      x y z
#    x 1.689390 0.000000 0.000000 
#    y 0.000000 1.749140 0.000000 
#    z 0.000000 0.000000 1.649220 
# 
# From -- ./inp_files/34380.got.cif
#   From: 2010.05.17/outbox.cif.g08.bks.cpg/sg42_18_cif.got.tgz:34380.got - 2010.06.03 19:03:34.
