data_PCOD9369637
_publ_section_title
;
Structure prediction by ZEFSAII (Michael W. Deem and Ramdas Pophale) SiO2 
 PCOD9369637
Probable space group: F M M 2
;
_chemical_formula_sum "Si O2"
_cell_formula_units_Z 80
_cell_length_a 23.652351
_cell_length_b 18.785838
_cell_length_c 8.866392
_cell_angle_alpha 90.000000
_cell_angle_beta 90.000000
_cell_angle_gamma 90.000000
_cell_volume 3939.597168
_symmetry_space_group_name_H-M "F M M 2"
_symmetry_group_IT_number 42
_symmetry_cell_setting 'orthorhombic'
loop_
_space_group_symop_operation_xyz
x,y,z
-x,-y,z
-x,y,z
x,-y,z
x,1/2+y,1/2+z
-x,1/2-y,1/2+z
-x,1/2+y,1/2+z
x,1/2-y,1/2+z
1/2+x,y,1/2+z
1/2-x,-y,1/2+z
1/2-x,y,1/2+z
1/2+x,-y,1/2+z
1/2+x,1/2+y,z
1/2-x,1/2-y,z
1/2-x,1/2+y,z
1/2+x,1/2-y,z
loop_
_atom_site_type_symbol
_atom_site_label
_atom_site_fract_x
_atom_site_fract_y
_atom_site_fract_z
Si Si1 0.936173 0.801961 0.514170
Si Si2 0.778264 0.677262 0.965458
Si Si3 0.128748 0.689897 0.714230
Si Si4 0.669585 0.581998 0.975889
Si Si5 0.369256 0.417518 0.644737
O O1 0.891195 0.749187 0.594719
O O2 0.920142 0.809726 0.339385
O O3 0.925329 0.879096 0.586289
O O4 0.000000 0.776959 0.534796
O O5 0.750000 0.750000 0.026339
O O6 0.815048 0.698595 0.817880
O O7 0.725966 0.625344 0.934881
O O8 0.818889 0.630284 0.072918
O O9 0.139804 0.619487 0.617028
O O10 0.682838 0.500000 0.008503
O O11 0.632553 0.586160 0.824996
O O12 0.363372 0.500000 0.599531
#
# Coordination Sequence:
#
# PCOD9369637 Si02
#       5
#    16  16  16  16  16
#     4  11  23  42  67  90 119 161 210 267 323 370
#     4  11  22  37  61  92 125 164 204 246 304 378
#     4  11  24  39  62  95 124 158 210 265 308 369
#     4  11  23  39  60  89 128 168 203 248 308 373
#     4  10  22  39  60  89 122 159 205 253 307 374
#
# _framework density 20.306646000000001
#
# number of rings (size 3 to 8) (size 9 to 14) (size 15 to 20)
#    0.000    1.200    0.000    7.200    0.000    9.200 
#    0.000    1.000    0.000    4.200    0.000    0.000 
#    0.000    0.000    0.000    0.000    0.000    0.000 
#
# Total GULP energy -111669.365511 kJ/mol
# GULP energy per Si atom -5583.468276 kJ/mol
# Density = 2.026043 g / cm^3
# Si number density = 20.306646 Si / 1000 Ang^3
#
#
#
# Elastic Constant Matrix: (Units=GPa)
#
#
# Indices 1 2 3 4 5 6 
#
# 1 57.9836 47.6577 35.5443 0.0000 0.0000 0.0000
# 2 47.6577 142.0530 53.1619 0.0000 0.0000 0.0000
# 3 35.5443 53.1619 99.4649 0.0000 0.0000 0.0000
# 4 0.0000 0.0000 0.0000 33.9747 0.0000 0.0000
# 5 0.0000 0.0000 0.0000 0.0000 15.3071 0.0000
# 6 0.0000 0.0000 0.0000 0.0000 0.0000 20.4291
#
#
#
# Elastic Compliance Matrix: (Units=1/GPa)
#
#
# Indices 1 2 3 4 5 6 
#
# 1 0.026279 -0.006628 -0.005849 0.000000 0.000000 0.000000
# 2 -0.006628 0.010471 -0.003228 0.000000 0.000000 0.000000
# 3 -0.005849 -0.003228 0.013869 0.000000 0.000000 0.000000
# 4 0.000000 0.000000 0.000000 0.029434 0.000000 0.000000
# 5 0.000000 0.000000 0.000000 0.000000 0.065329 0.000000
# 6 0.000000 0.000000 0.000000 0.000000 0.000000 0.048950
#
#
# Mechanical properties :
#
#
# Convention : Reuss Voigt Hill
#
# Bulk Modulus (GPa) = 52.05488 63.58102 57.81795
# Shear Modulus (GPa) = 21.53832 24.81801 23.17816
#
# Velocity S-wave (km/s) = 3.26030 3.49974 3.38214
# Velocity P-wave (km/s) = 6.31370 6.90719 6.61710
#
# Compressibility (1/GPa) = 0.01921049
#
# Stress axis : x y z
#
# Youngs Moduli (GPa) = 38.05352 95.49935 72.10186
#
# Poissons Ratio (x) = 0.63293 0.42169
# Poissons Ratio (y) = 0.25220 0.23277
# Poissons Ratio (z) = 0.22256 0.30830
#
# Static dielectric constant tensor:
#      x y z
#    x 1.725710 0.000000 0.000000 
#    y 0.000000 1.724410 0.000000 
#    z 0.000000 0.000000 1.734700 
# 
# From -- ./inp_files/3486.got.cif
#   From: 2010.05.17/outbox.cif.g08.bks.cpg/sg42_2_cif.got.tgz:3486.got - 2010.06.03 19:03:34.
