data_PCOD9369230
_publ_section_title
;
Structure prediction by ZEFSAII (Michael W. Deem and Ramdas Pophale) SiO2 
 PCOD9369230
Probable space group: F M M 2
;
_chemical_formula_sum "Si O2"
_cell_formula_units_Z 84
_cell_length_a 27.300813
_cell_length_b 7.690450
_cell_length_c 19.092697
_cell_angle_alpha 90.000000
_cell_angle_beta 90.000000
_cell_angle_gamma 90.000000
_cell_volume 4008.617458
_symmetry_space_group_name_H-M "F M M 2"
_symmetry_group_IT_number 42
_symmetry_cell_setting 'orthorhombic'
loop_
_space_group_symop_operation_xyz
x,y,z
-x,-y,z
-x,y,z
x,-y,z
x,1/2+y,1/2+z
-x,1/2-y,1/2+z
-x,1/2+y,1/2+z
x,1/2-y,1/2+z
1/2+x,y,1/2+z
1/2-x,-y,1/2+z
1/2-x,y,1/2+z
1/2+x,-y,1/2+z
1/2+x,1/2+y,z
1/2-x,1/2-y,z
1/2-x,1/2+y,z
1/2+x,1/2-y,z
loop_
_atom_site_type_symbol
_atom_site_label
_atom_site_fract_x
_atom_site_fract_y
_atom_site_fract_z
Si Si1 0.553951 0.289259 0.069560
Si Si2 0.500000 0.500000 0.385566
Si Si3 0.601705 0.202775 0.710913
Si Si4 0.919123 0.308937 0.365008
Si Si5 0.146861 0.697113 0.981452
Si Si6 0.694731 0.292410 0.619279
O O1 0.500000 0.236903 0.046744
O O2 0.558702 0.500000 0.064138
O O3 0.563548 0.243609 0.150443
O O4 0.595768 0.201986 0.024462
O O5 0.456863 0.654126 0.381512
O O6 0.594230 0.299743 0.783144
O O7 0.654463 0.222464 0.673532
O O8 0.593172 0.000000 0.725938
O O9 0.939418 0.500000 0.382546
O O10 0.869092 0.286980 0.409947
O O11 0.161874 0.500000 0.965882
O O12 0.183386 0.774514 0.040038
O O13 0.687955 0.500000 0.616830
O O14 0.750000 0.250000 0.639184
#
# Coordination Sequence:
#
# PCOD9369230 Si02
#       6
#    16   4  16  16  16  16
#     4   9  19  32  53  80 113 155 201 247 302 362
#     4  12  26  44  60  90 128 176 214 258 312 358
#     4  10  20  38  61  86 125 162 202 261 312 369
#     4  12  25  41  64  90 127 172 216 256 310 371
#     4  10  21  39  57  84 124 161 202 261 312 367
#     4  10  21  39  66  94 122 160 207 260 324 384
#
# _framework density 20.954854000000001
#
# number of rings (size 3 to 8) (size 9 to 14) (size 15 to 20)
#    0.000    1.714    1.905    2.000    2.667    3.429 
#    0.000    0.952    0.000    2.286    0.000    0.000 
#    0.000    0.000    0.000    0.000    0.000    0.000 
#
# Total GULP energy -117008.103011 kJ/mol
# GULP energy per Si atom -5571.814429 kJ/mol
# Density = 2.090716 g / cm^3
# Si number density = 20.954854 Si / 1000 Ang^3
#
#
#
# Elastic Constant Matrix: (Units=GPa)
#
#
# Indices 1 2 3 4 5 6 
#
# 1 63.0031 -9.3390 -11.1320 0.0000 0.0000 0.0000
# 2 -9.3390 96.6016 5.9602 0.0000 0.0000 0.0000
# 3 -11.1320 5.9602 87.3100 0.0000 0.0000 0.0000
# 4 0.0000 0.0000 0.0000 15.3451 0.0000 0.0000
# 5 0.0000 0.0000 0.0000 0.0000 7.1716 0.0000
# 6 0.0000 0.0000 0.0000 0.0000 0.0000 7.2038
#
#
#
# Elastic Compliance Matrix: (Units=1/GPa)
#
#
# Indices 1 2 3 4 5 6 
#
# 1 0.016442 0.001466 0.001996 0.000000 0.000000 0.000000
# 2 0.001466 0.010526 -0.000532 0.000000 0.000000 0.000000
# 3 0.001996 -0.000532 0.011744 0.000000 0.000000 0.000000
# 4 0.000000 0.000000 0.000000 0.065167 0.000000 0.000000
# 5 0.000000 0.000000 0.000000 0.000000 0.139439 0.000000
# 6 0.000000 0.000000 0.000000 0.000000 0.000000 0.138815
#
#
# Mechanical properties :
#
#
# Convention : Reuss Voigt Hill
#
# Bulk Modulus (GPa) = 22.43405 24.21034 23.32220
# Shear Modulus (GPa) = 12.78347 23.37248 18.07798
#
# Velocity S-wave (km/s) = 2.47259 3.34334 2.94038
# Velocity P-wave (km/s) = 4.34520 5.14612 4.76253
#
# Compressibility (1/GPa) = 0.04457509
#
# Stress axis : x y z
#
# Youngs Moduli (GPa) = 60.81866 94.99962 85.14799
#
# Poissons Ratio (x) = -0.13931 -0.16998
# Poissons Ratio (y) = -0.08918 0.04527
# Poissons Ratio (z) = -0.12141 0.05050
#
# Static dielectric constant tensor:
#      x y z
#    x 1.731770 0.000000 0.000000 
#    y 0.000000 1.787880 0.000000 
#    z 0.000000 0.000000 1.791470 
# 
# From -- ./inp_files/27005.got.cif
#   From: 2010.05.17/outbox.cif.g08.bks.cpg/sg42_14_cif.got.tgz:27005.got - 2010.06.03 19:03:34.
