data_PCOD9369678
_publ_section_title
;
Structure prediction by ZEFSAII (Michael W. Deem and Ramdas Pophale) SiO2 
 PCOD9369678
Probable space group: F M M 2
;
_chemical_formula_sum "Si O2"
_cell_formula_units_Z 120
_cell_length_a 13.792099
_cell_length_b 19.257592
_cell_length_c 18.971376
_cell_angle_alpha 90.000000
_cell_angle_beta 90.000000
_cell_angle_gamma 90.000000
_cell_volume 5038.847083
_symmetry_space_group_name_H-M "F M M 2"
_symmetry_group_IT_number 42
_symmetry_cell_setting 'orthorhombic'
loop_
_space_group_symop_operation_xyz
x,y,z
-x,-y,z
-x,y,z
x,-y,z
x,1/2+y,1/2+z
-x,1/2-y,1/2+z
-x,1/2+y,1/2+z
x,1/2-y,1/2+z
1/2+x,y,1/2+z
1/2-x,-y,1/2+z
1/2-x,y,1/2+z
1/2+x,-y,1/2+z
1/2+x,1/2+y,z
1/2-x,1/2-y,z
1/2-x,1/2+y,z
1/2+x,1/2-y,z
loop_
_atom_site_type_symbol
_atom_site_label
_atom_site_fract_x
_atom_site_fract_y
_atom_site_fract_z
Si Si1 0.111710 0.081341 0.498940
Si Si2 0.892775 0.198612 0.868839
Si Si3 0.889204 0.889994 0.663065
Si Si4 0.152378 0.000000 0.097980
Si Si5 0.816056 0.647819 0.862527
Si Si6 0.307935 0.902025 0.725470
Si Si7 0.112686 0.724918 0.658298
Si Si8 0.612391 0.863039 0.525909
O O1 0.132556 0.090112 0.581936
O O2 0.175768 0.121323 0.442324
O O3 0.000000 0.106446 0.489994
O O4 0.114619 0.000000 0.483677
O O5 0.876913 0.280988 0.862136
O O6 0.794805 0.164494 0.839958
O O7 0.000000 0.180427 0.839798
O O8 0.888508 0.172251 0.949549
O O9 0.804211 0.920727 0.710673
O O10 0.881696 0.806865 0.665762
O O11 0.000000 0.910995 0.678780
O O12 0.139352 0.059342 0.161273
O O13 0.163381 0.063175 0.039439
O O14 0.845982 0.590411 0.804668
O O15 0.325034 0.820303 0.711351
O O16 0.142133 0.696874 0.581130
O O17 0.000000 0.707048 0.669826
O O18 0.500000 0.882032 0.540453
#
# Coordination Sequence:
#
# PCOD9369678 Si02
#       8
#    16  16  16   8  16  16  16  16
#     4  10  23  43  68  98 131 175 230 285 340 405
#     4  10  23  42  66  96 134 176 226 282 338 401
#     4  10  22  40  66  93 126 173 228 283 331 388
#     4  10  23  40  65  94 134 176 220 284 334 398
#     4  11  25  41  67  98 135 182 223 275 344 418
#     4  11  25  40  61  97 135 175 221 269 336 409
#     4   9  19  35  61  91 123 161 207 273 336 388
#     4   9  18  38  63  95 128 162 216 274 332 396
#
# _framework density 23.814972000000001
#
# number of rings (size 3 to 8) (size 9 to 14) (size 15 to 20)
#    0.000    2.000    0.000    1.800    9.333    4.267 
#    0.000    0.000    0.000    0.000    0.000    0.000 
#    0.000    0.000    0.000    0.000    0.000    0.000 
#
# Total GULP energy -167101.188203 kJ/mol
# GULP energy per Si atom -5570.039607 kJ/mol
# Density = 2.376077 g / cm^3
# Si number density = 23.814972 Si / 1000 Ang^3
#
#
#
# Elastic Constant Matrix: (Units=GPa)
#
#
# Indices 1 2 3 4 5 6 
#
# 1 104.7967 22.7703 11.6199 0.0000 0.0000 0.0000
# 2 22.7703 88.0015 27.6404 0.0000 0.0000 0.0000
# 3 11.6199 27.6404 103.4342 0.0000 0.0000 0.0000
# 4 0.0000 0.0000 0.0000 15.1358 0.0000 0.0000
# 5 0.0000 0.0000 0.0000 0.0000 12.0143 0.0000
# 6 0.0000 0.0000 0.0000 0.0000 0.0000 -6.9682
#
#
#
# Elastic Compliance Matrix: (Units=1/GPa)
#
#
# Indices 1 2 3 4 5 6 
#
# 1 0.010132 -0.002472 -0.000478 0.000000 0.000000 0.000000
# 2 -0.002472 0.013008 -0.003198 0.000000 0.000000 0.000000
# 3 -0.000478 -0.003198 0.010576 0.000000 0.000000 0.000000
# 4 0.000000 0.000000 0.000000 0.066069 0.000000 0.000000
# 5 0.000000 0.000000 0.000000 0.000000 0.083234 0.000000
# 6 0.000000 0.000000 0.000000 0.000000 0.000000 -0.143508
#
#
# Mechanical properties :
#
#
# Convention : Reuss Voigt Hill
#
# Bulk Modulus (GPa) = 46.68383 46.69931 46.69157
# Shear Modulus (GPa) = 84.82328 19.64982 52.23655
#
# Velocity S-wave (km/s) = 5.97453 2.87558 4.68849
# Velocity P-wave (km/s) = 8.19991 5.53869 6.99699
#
# Compressibility (1/GPa) = 0.02142069
#
# Stress axis : x y z
#
# Youngs Moduli (GPa) = 98.69421 76.87848 94.55079
#
# Poissons Ratio (x) = 0.19002 0.04517
# Poissons Ratio (y) = 0.24394 0.30240
# Poissons Ratio (z) = 0.04715 0.24588
#
# Static dielectric constant tensor:
#      x y z
#    x 2.009840 0.000000 0.000000 
#    y 0.000000 1.902560 0.000000 
#    z 0.000000 0.000000 1.934900 
# 
# From -- ./inp_files/25445.got.cif
#   From: 2010.05.17/outbox.cif.g08.bks.cpg/sg42_13_cif.got.tgz:25445.got - 2010.06.03 19:03:34.
