data_PCOD9369739
_publ_section_title
;
Structure prediction by ZEFSAII (Michael W. Deem and Ramdas Pophale) SiO2 
 PCOD9369739
Probable space group: F M M 2
;
_chemical_formula_sum "Si O2"
_cell_formula_units_Z 84
_cell_length_a 15.646530
_cell_length_b 12.185722
_cell_length_c 24.302244
_cell_angle_alpha 90.000000
_cell_angle_beta 90.000000
_cell_angle_gamma 90.000000
_cell_volume 4633.569486
_symmetry_space_group_name_H-M "F M M 2"
_symmetry_group_IT_number 42
_symmetry_cell_setting 'orthorhombic'
loop_
_space_group_symop_operation_xyz
x,y,z
-x,-y,z
-x,y,z
x,-y,z
x,1/2+y,1/2+z
-x,1/2-y,1/2+z
-x,1/2+y,1/2+z
x,1/2-y,1/2+z
1/2+x,y,1/2+z
1/2-x,-y,1/2+z
1/2-x,y,1/2+z
1/2+x,-y,1/2+z
1/2+x,1/2+y,z
1/2-x,1/2-y,z
1/2-x,1/2+y,z
1/2+x,1/2-y,z
loop_
_atom_site_type_symbol
_atom_site_label
_atom_site_fract_x
_atom_site_fract_y
_atom_site_fract_z
Si Si1 0.500000 0.000000 0.073120
Si Si2 0.897291 0.000000 0.748014
Si Si3 0.500000 0.720014 0.505385
Si Si4 0.846349 0.237411 0.706125
Si Si5 0.896709 0.500000 0.376543
Si Si6 0.000000 0.765141 0.626200
Si Si7 0.153666 0.233574 0.922995
Si Si8 0.396873 0.870145 0.815075
O O1 0.500000 0.898714 0.118736
O O2 0.500000 0.904862 0.025269
O O3 0.862335 0.110893 0.721765
O O4 0.874172 0.000000 0.812348
O O5 0.000000 0.000000 0.745646
O O6 0.500000 0.782064 0.564263
O O7 0.416849 0.742545 0.469059
O O8 0.750000 0.250000 0.685896
O O9 0.860215 0.309881 0.761127
O O10 0.916823 0.267638 0.660781
O O11 0.860500 0.390557 0.403364
O O12 0.000000 0.500000 0.381533
O O13 0.250000 0.250000 0.943014
O O14 0.137731 0.311635 0.870002
O O15 0.500000 0.856263 0.814443
O O16 0.377648 0.000000 0.814770
#
# Coordination Sequence:
#
# PCOD9369739 Si02
#       8
#     4   8   8  16   8   8  16  16
#     4   8  22  44  74  90 118 164 236 278 318 382
#     4  11  21  38  67  95 131 175 219 261 312 393
#     4  10  24  44  65  92 123 166 222 279 324 374
#     4  12  24  39  67  99 133 167 214 273 327 385
#     4  11  22  40  65  96 134 178 217 255 330 394
#     4  10  22  45  67  87 121 170 221 271 315 382
#     4  12  25  40  67  97 133 172 217 270 327 394
#     4  11  23  39  62  95 137 175 207 259 336 398
#
# _framework density 18.128571999999998
#
# number of rings (size 3 to 8) (size 9 to 14) (size 15 to 20)
#    0.571    0.381    5.714    1.143    4.000    0.762 
#    0.000    0.000    4.190    0.000    0.000    0.000 
#    0.000    0.000    0.000    0.000    0.000    0.000 
#
# Total GULP energy -117037.638921 kJ/mol
# GULP energy per Si atom -5573.220901 kJ/mol
# Density = 1.808731 g / cm^3
# Si number density = 18.128572 Si / 1000 Ang^3
#
#
#
# Elastic Constant Matrix: (Units=GPa)
#
#
# Indices 1 2 3 4 5 6 
#
# 1 153.7444 31.1026 72.4889 0.0000 0.0000 0.0000
# 2 31.1026 93.9554 31.2639 0.0000 0.0000 0.0000
# 3 72.4889 31.2639 142.7578 0.0000 0.0000 0.0000
# 4 0.0000 0.0000 0.0000 40.3769 0.0000 0.0000
# 5 0.0000 0.0000 0.0000 0.0000 -2.1175 0.0000
# 6 0.0000 0.0000 0.0000 0.0000 0.0000 14.0660
#
#
#
# Elastic Compliance Matrix: (Units=1/GPa)
#
#
# Indices 1 2 3 4 5 6 
#
# 1 0.008751 -0.001530 -0.004108 0.000000 0.000000 0.000000
# 2 -0.001530 0.011747 -0.001796 0.000000 0.000000 0.000000
# 3 -0.004108 -0.001796 0.009484 0.000000 0.000000 0.000000
# 4 0.000000 0.000000 0.000000 0.024767 0.000000 0.000000
# 5 0.000000 0.000000 0.000000 0.000000 -0.472253 0.000000
# 6 0.000000 0.000000 0.000000 0.000000 0.000000 0.071093
#
#
# Mechanical properties :
#
#
# Convention : Reuss Voigt Hill
#
# Bulk Modulus (GPa) = 66.16235 73.35208 69.75721
# Shear Modulus (GPa) = -15.31373 27.50523 6.09575
#
# Velocity S-wave (km/s) = -2.90958 3.89939 1.83570
# Velocity P-wave (km/s) = 5.02871 7.79895 6.56169
#
# Compressibility (1/GPa) = 0.01511434
#
# Stress axis : x y z
#
# Youngs Moduli (GPa) = 114.27435 85.12569 105.43691
#
# Poissons Ratio (x) = 0.13022 0.43318
# Poissons Ratio (y) = 0.17481 0.18935
# Poissons Ratio (z) = 0.46949 0.15288
#
# Static dielectric constant tensor:
#      x y z
#    x 1.625080 0.000000 0.000000 
#    y 0.000000 1.574030 0.000000 
#    z 0.000000 0.000000 1.623240 
# 
# From -- ./inp_files/28762.got.cif
#   From: 2010.05.17/outbox.cif.g08.bks.cpg/sg42_15_cif.got.tgz:28762.got - 2010.06.03 19:03:34.
