data_PCOD9369156
_publ_section_title
;
Structure prediction by ZEFSAII (Michael W. Deem and Ramdas Pophale) SiO2 
 PCOD9369156
Probable space group: F M M 2
;
_chemical_formula_sum "Si O2"
_cell_formula_units_Z 112
_cell_length_a 14.326727
_cell_length_b 32.658540
_cell_length_c 12.713013
_cell_angle_alpha 90.000000
_cell_angle_beta 90.000000
_cell_angle_gamma 90.000000
_cell_volume 5948.291485
_symmetry_space_group_name_H-M "F M M 2"
_symmetry_group_IT_number 42
_symmetry_cell_setting 'orthorhombic'
loop_
_space_group_symop_operation_xyz
x,y,z
-x,-y,z
-x,y,z
x,-y,z
x,1/2+y,1/2+z
-x,1/2-y,1/2+z
-x,1/2+y,1/2+z
x,1/2-y,1/2+z
1/2+x,y,1/2+z
1/2-x,-y,1/2+z
1/2-x,y,1/2+z
1/2+x,-y,1/2+z
1/2+x,1/2+y,z
1/2-x,1/2-y,z
1/2-x,1/2+y,z
1/2+x,1/2-y,z
loop_
_atom_site_type_symbol
_atom_site_label
_atom_site_fract_x
_atom_site_fract_y
_atom_site_fract_z
Si Si1 0.733410 0.111154 0.004330
Si Si2 0.390794 0.740073 0.978373
Si Si3 0.788988 0.686258 0.649104
Si Si4 0.390603 0.048003 0.132733
Si Si5 0.393542 0.094456 0.345030
Si Si6 0.887649 0.174444 0.372999
Si Si7 0.895331 0.187677 0.765455
O O1 0.775714 0.143511 0.087518
O O2 0.674932 0.076440 0.062868
O O3 0.817327 0.093129 0.935443
O O4 0.664655 0.136770 0.927875
O O5 0.500000 0.741616 0.006811
O O6 0.361834 0.785125 0.940536
O O7 0.383109 0.711767 0.874251
O O8 0.335773 0.718149 0.070636
O O9 0.849814 0.680541 0.754821
O O10 0.686272 0.699455 0.687131
O O11 0.500000 0.056080 0.108246
O O12 0.377578 0.061442 0.253891
O O13 0.372503 0.000000 0.118573
O O14 0.500000 0.090694 0.384452
O O15 0.386733 0.139435 0.290913
O O16 0.000000 0.170383 0.373456
O O17 0.000000 0.195603 0.724885
#
# Coordination Sequence:
#
# PCOD9369156 Si02
#       7
#    16  16  16  16  16  16  16
#     4  12  22  38  62  96 120 158 200 257 313 367
#     4  10  23  41  58  82 120 165 208 254 306 360
#     4  12  22  39  61  85 115 158 206 251 307 367
#     4  10  22  41  65  91 122 161 203 250 308 376
#     4  10  20  39  62  89 123 157 200 248 305 371
#     4  11  25  40  56  86 123 161 208 260 308 363
#     4  10  20  37  59  85 117 154 202 254 302 359
#
# _framework density 18.828935999999999
#
# number of rings (size 3 to 8) (size 9 to 14) (size 15 to 20)
#    0.000    1.286    4.286    0.857    0.000    6.286 
#    0.000    2.857    0.000    1.714    0.000    0.000 
#    0.000    0.000    0.000    0.000    0.000    0.000 
#
# Total GULP energy -156723.016699 kJ/mol
# GULP energy per Si atom -5597.250596 kJ/mol
# Density = 1.878608 g / cm^3
# Si number density = 18.828936 Si / 1000 Ang^3
#
#
#
# Elastic Constant Matrix: (Units=GPa)
#
#
# Indices 1 2 3 4 5 6 
#
# 1 145.4750 69.4033 101.0936 0.0000 0.0000 0.0000
# 2 69.4033 104.1205 65.9196 0.0000 0.0000 0.0000
# 3 101.0936 65.9196 129.0903 0.0000 0.0000 0.0000
# 4 0.0000 0.0000 0.0000 21.3930 0.0000 0.0000
# 5 0.0000 0.0000 0.0000 0.0000 41.4183 0.0000
# 6 0.0000 0.0000 0.0000 0.0000 0.0000 19.0407
#
#
#
# Elastic Compliance Matrix: (Units=1/GPa)
#
#
# Indices 1 2 3 4 5 6 
#
# 1 0.016176 -0.004082 -0.010583 0.000000 0.000000 0.000000
# 2 -0.004082 0.015223 -0.004577 0.000000 0.000000 0.000000
# 3 -0.010583 -0.004577 0.018372 0.000000 0.000000 0.000000
# 4 0.000000 0.000000 0.000000 0.046744 0.000000 0.000000
# 5 0.000000 0.000000 0.000000 0.000000 0.024144 0.000000
# 6 0.000000 0.000000 0.000000 0.000000 0.000000 0.052519
#
#
# Mechanical properties :
#
#
# Convention : Reuss Voigt Hill
#
# Bulk Modulus (GPa) = 88.60326 94.61320 91.60823
# Shear Modulus (GPa) = 23.21002 25.85503 24.53252
#
# Velocity S-wave (km/s) = 3.51476 3.70963 3.61351
# Velocity P-wave (km/s) = 7.97687 8.28893 8.13440
#
# Compressibility (1/GPa) = 0.01128627
#
# Stress axis : x y z
#
# Youngs Moduli (GPa) = 61.81949 65.69101 54.43144
#
# Poissons Ratio (x) = 0.26815 0.57607
# Poissons Ratio (y) = 0.25235 0.24912
# Poissons Ratio (z) = 0.65426 0.30065
#
# Static dielectric constant tensor:
#      x y z
#    x 1.667290 0.000000 0.000000 
#    y 0.000000 1.632660 0.000000 
#    z 0.000000 0.000000 1.641620 
# 
# From -- ./inp_files/8094.got.cif
#   From: 2010.05.17/outbox.cif.g08.bks.cpg/sg42_5_cif.got.tgz:8094.got - 2010.06.03 19:03:34.
