data_PCOD9369887
_publ_section_title
;
Structure prediction by ZEFSAII (Michael W. Deem and Ramdas Pophale) SiO2 
 PCOD9369887
Probable space group: F M M 2
;
_chemical_formula_sum "Si O2"
_cell_formula_units_Z 96
_cell_length_a 13.706985
_cell_length_b 15.731673
_cell_length_c 25.266591
_cell_angle_alpha 90.000000
_cell_angle_beta 90.000000
_cell_angle_gamma 90.000000
_cell_volume 5448.331178
_symmetry_space_group_name_H-M "F M M 2"
_symmetry_group_IT_number 42
_symmetry_cell_setting 'orthorhombic'
loop_
_space_group_symop_operation_xyz
x,y,z
-x,-y,z
-x,y,z
x,-y,z
x,1/2+y,1/2+z
-x,1/2-y,1/2+z
-x,1/2+y,1/2+z
x,1/2-y,1/2+z
1/2+x,y,1/2+z
1/2-x,-y,1/2+z
1/2-x,y,1/2+z
1/2+x,-y,1/2+z
1/2+x,1/2+y,z
1/2-x,1/2-y,z
1/2-x,1/2+y,z
1/2+x,1/2-y,z
loop_
_atom_site_type_symbol
_atom_site_label
_atom_site_fract_x
_atom_site_fract_y
_atom_site_fract_z
Si Si1 0.384491 0.897029 0.654630
Si Si2 0.391916 0.899568 0.329262
Si Si3 0.111213 0.000000 0.425237
Si Si4 0.734619 0.850144 0.432028
Si Si5 0.609325 0.500000 0.299399
Si Si6 0.738378 0.151340 0.753047
Si Si7 0.111290 0.102465 0.033816
O O1 0.500000 0.875883 0.664501
O O2 0.306769 0.855287 0.694350
O O3 0.360919 0.873861 0.593840
O O4 0.376859 0.000000 0.660205
O O5 0.500000 0.860885 0.333087
O O6 0.323754 0.872014 0.378053
O O7 0.342993 0.883251 0.272197
O O8 0.399420 0.000000 0.335299
O O9 0.173424 0.085376 0.437466
O O10 0.103855 0.000000 0.362011
O O11 0.000000 0.000000 0.446808
O O12 0.750000 0.750000 0.428728
O O13 0.673599 0.865537 0.485247
O O14 0.500000 0.500000 0.276567
O O15 0.665060 0.586021 0.282833
O O16 0.750000 0.250000 0.768451
O O17 0.000000 0.130233 0.026005
O O18 0.113195 0.000000 0.032347
#
# Coordination Sequence:
#
# PCOD9369887 Si02
#       7
#    16  16   8  16   8  16  16
#     4   9  18  35  61  89 114 149 197 245 289 341
#     4  11  22  38  58  81 116 155 192 237 292 349
#     4  11  24  40  57  84 124 160 196 240 293 354
#     4  12  22  38  60  86 117 156 196 242 294 355
#     4  11  22  40  61  82 116 160 200 242 285 344
#     4  12  22  36  58  88 121 151 194 240 296 348
#     4   9  18  35  62  89 112 145 195 247 291 337
#
# _framework density 17.620075
#
# number of rings (size 3 to 8) (size 9 to 14) (size 15 to 20)
#    0.000    1.333    5.000    2.500    0.000    4.667 
#    0.000    0.000    0.000    1.000    0.000    0.000 
#    0.000    0.000    0.000    0.000    0.000    0.000 
#
# Total GULP energy -133636.892564 kJ/mol
# GULP energy per Si atom -5568.203857 kJ/mol
# Density = 1.757997 g / cm^3
# Si number density = 17.620075 Si / 1000 Ang^3
#
#
#
# Elastic Constant Matrix: (Units=GPa)
#
#
# Indices 1 2 3 4 5 6 
#
# 1 121.5636 47.9774 57.0846 0.0000 0.0000 0.0000
# 2 47.9774 99.1008 25.4844 0.0000 0.0000 0.0000
# 3 57.0846 25.4844 102.6557 0.0000 0.0000 0.0000
# 4 0.0000 0.0000 0.0000 3.6352 0.0000 0.0000
# 5 0.0000 0.0000 0.0000 0.0000 68.1906 0.0000
# 6 0.0000 0.0000 0.0000 0.0000 0.0000 0.9576
#
#
#
# Elastic Compliance Matrix: (Units=1/GPa)
#
#
# Indices 1 2 3 4 5 6 
#
# 1 0.012903 -0.004702 -0.006008 0.000000 0.000000 0.000000
# 2 -0.004702 0.012492 -0.000487 0.000000 0.000000 0.000000
# 3 -0.006008 -0.000487 0.013203 0.000000 0.000000 0.000000
# 4 0.000000 0.000000 0.000000 0.275085 0.000000 0.000000
# 5 0.000000 0.000000 0.000000 0.000000 0.014665 0.000000
# 6 0.000000 0.000000 0.000000 0.000000 0.000000 1.044296
#
#
# Mechanical properties :
#
#
# Convention : Reuss Voigt Hill
#
# Bulk Modulus (GPa) = 61.70717 64.93476 63.32097
# Shear Modulus (GPa) = 3.57031 27.40825 15.48928
#
# Velocity S-wave (km/s) = 1.42502 3.94828 2.96813
# Velocity P-wave (km/s) = 6.14854 7.59723 6.91095
#
# Compressibility (1/GPa) = 0.01620557
#
# Stress axis : x y z
#
# Youngs Moduli (GPa) = 77.50145 80.05047 75.74060
#
# Poissons Ratio (x) = 0.37638 0.45504
# Poissons Ratio (y) = 0.36439 0.03686
# Poissons Ratio (z) = 0.46562 0.03896
#
# Static dielectric constant tensor:
#      x y z
#    x 1.644640 0.000000 0.000000 
#    y 0.000000 1.584340 0.000000 
#    z 0.000000 0.000000 1.616870 
# 
# From -- ./inp_files/29417.got.cif
#   From: 2010.05.17/outbox.cif.g08.bks.cpg/sg42_15_cif.got.tgz:29417.got - 2010.06.03 19:03:34.
