data_PCOD9369620
_publ_section_title
;
Structure prediction by ZEFSAII (Michael W. Deem and Ramdas Pophale) SiO2 
 PCOD9369620
Probable space group: F M M 2
;
_chemical_formula_sum "Si O2"
_cell_formula_units_Z 96
_cell_length_a 29.230508
_cell_length_b 8.199407
_cell_length_c 21.266109
_cell_angle_alpha 90.000000
_cell_angle_beta 90.000000
_cell_angle_gamma 90.000000
_cell_volume 5096.908568
_symmetry_space_group_name_H-M "F M M 2"
_symmetry_group_IT_number 42
_symmetry_cell_setting 'orthorhombic'
loop_
_space_group_symop_operation_xyz
x,y,z
-x,-y,z
-x,y,z
x,-y,z
x,1/2+y,1/2+z
-x,1/2-y,1/2+z
-x,1/2+y,1/2+z
x,1/2-y,1/2+z
1/2+x,y,1/2+z
1/2-x,-y,1/2+z
1/2-x,y,1/2+z
1/2+x,-y,1/2+z
1/2+x,1/2+y,z
1/2-x,1/2-y,z
1/2-x,1/2+y,z
1/2+x,1/2-y,z
loop_
_atom_site_type_symbol
_atom_site_label
_atom_site_fract_x
_atom_site_fract_y
_atom_site_fract_z
Si Si1 0.302147 0.805375 0.235950
Si Si2 0.051360 0.196569 0.810270
Si Si3 0.854200 0.300439 0.110511
Si Si4 0.355007 0.194052 0.860244
Si Si5 0.051254 0.301171 0.164494
Si Si6 0.697261 0.302432 0.484520
O O1 0.250000 0.750000 0.239399
O O2 0.325903 0.745832 0.171808
O O3 0.329564 0.750743 0.297276
O O4 0.303595 0.000000 0.234268
O O5 0.092199 0.255669 0.853890
O O6 0.059640 0.247122 0.737385
O O7 0.000000 0.250497 0.827675
O O8 0.051842 0.000000 0.810389
O O9 0.854091 0.500000 0.110024
O O10 0.906691 0.248015 0.121225
O O11 0.829651 0.246273 0.046838
O O12 0.328770 0.257181 0.921934
O O13 0.352881 0.000000 0.862446
O O14 0.051041 0.500000 0.164160
O O15 0.000000 0.247566 0.146691
O O16 0.696401 0.500000 0.484403
O O17 0.750000 0.250000 0.485235
#
# Coordination Sequence:
#
# PCOD9369620 Si02
#       6
#    16  16  16  16  16  16
#     4  11  21  34  54  78 104 134 176 229 274 317
#     4   9  17  32  56  83 108 139 179 218 262 316
#     4   9  17  32  53  77 104 134 174 223 266 311
#     4  11  22  35  52  78 111 143 176 217 268 322
#     4   8  13  25  50  81 105 128 165 212 259 307
#     4  10  22  38  54  74 104 143 182 219 266 320
#
# _framework density 18.834945999999999
#
# number of rings (size 3 to 8) (size 9 to 14) (size 15 to 20)
#    0.000    2.333    1.667    3.000    0.000    3.000 
#    0.000    1.667    0.000    3.000    0.000    0.000 
#    0.000    0.000    0.000    0.000    0.000    0.000 
#
# Total GULP energy -133919.993135 kJ/mol
# GULP energy per Si atom -5579.999714 kJ/mol
# Density = 1.879208 g / cm^3
# Si number density = 18.834946 Si / 1000 Ang^3
#
#
#
# Elastic Constant Matrix: (Units=GPa)
#
#
# Indices 1 2 3 4 5 6 
#
# 1 194.1762 15.9462 102.9501 0.0000 0.0000 0.0000
# 2 15.9462 13.6608 17.0031 0.0000 0.0000 0.0000
# 3 102.9501 17.0031 154.2933 0.0000 0.0000 0.0000
# 4 0.0000 0.0000 0.0000 13.4281 0.0000 0.0000
# 5 0.0000 0.0000 0.0000 0.0000 36.2202 0.0000
# 6 0.0000 0.0000 0.0000 0.0000 0.0000 21.0378
#
#
#
# Elastic Compliance Matrix: (Units=1/GPa)
#
#
# Indices 1 2 3 4 5 6 
#
# 1 0.008085 -0.003156 -0.005047 0.000000 0.000000 0.000000
# 2 -0.003156 0.086071 -0.007379 0.000000 0.000000 0.000000
# 3 -0.005047 -0.007379 0.010662 0.000000 0.000000 0.000000
# 4 0.000000 0.000000 0.000000 0.074471 0.000000 0.000000
# 5 0.000000 0.000000 0.000000 0.000000 0.027609 0.000000
# 6 0.000000 0.000000 0.000000 0.000000 0.000000 0.047533
#
#
# Mechanical properties :
#
#
# Convention : Reuss Voigt Hill
#
# Bulk Modulus (GPa) = 13.57707 70.43657 42.00682
# Shear Modulus (GPa) = 16.12148 29.21929 22.67038
#
# Velocity S-wave (km/s) = 2.92881 3.94297 3.47311
# Velocity P-wave (km/s) = 4.31988 7.62937 6.19954
#
# Compressibility (1/GPa) = 0.07365362
#
# Stress axis : x y z
#
# Youngs Moduli (GPa) = 123.68810 11.61834 93.79371
#
# Poissons Ratio (x) = 0.03667 0.47335
# Poissons Ratio (y) = 0.39036 0.69212
# Poissons Ratio (z) = 0.62422 0.08573
#
# Static dielectric constant tensor:
#      x y z
#    x 1.652170 0.000000 0.000000 
#    y 0.000000 1.665070 0.000000 
#    z 0.000000 0.000000 1.640750 
# 
# From -- ./inp_files/23709.got.cif
#   From: 2010.05.17/outbox.cif.g08.bks.cpg/sg42_12_cif.got.tgz:23709.got - 2010.06.03 19:03:34.
