data_PCOD9369103
_publ_section_title
;
Structure prediction by ZEFSAII (Michael W. Deem and Ramdas Pophale) SiO2 
 PCOD9369103
Probable space group: F M M 2
;
_chemical_formula_sum "Si O2"
_cell_formula_units_Z 88
_cell_length_a 16.188908
_cell_length_b 24.324780
_cell_length_c 10.995042
_cell_angle_alpha 90.000000
_cell_angle_beta 90.000000
_cell_angle_gamma 90.000000
_cell_volume 4329.755462
_symmetry_space_group_name_H-M "F M M 2"
_symmetry_group_IT_number 42
_symmetry_cell_setting 'orthorhombic'
loop_
_space_group_symop_operation_xyz
x,y,z
-x,-y,z
-x,y,z
x,-y,z
x,1/2+y,1/2+z
-x,1/2-y,1/2+z
-x,1/2+y,1/2+z
x,1/2-y,1/2+z
1/2+x,y,1/2+z
1/2-x,-y,1/2+z
1/2-x,y,1/2+z
1/2+x,-y,1/2+z
1/2+x,1/2+y,z
1/2-x,1/2-y,z
1/2-x,1/2+y,z
1/2+x,1/2-y,z
loop_
_atom_site_type_symbol
_atom_site_label
_atom_site_fract_x
_atom_site_fract_y
_atom_site_fract_z
Si Si1 0.401045 0.500000 0.783231
Si Si2 0.598435 0.229064 0.124356
Si Si3 0.905983 0.110030 0.665042
Si Si4 0.168398 0.285581 0.854179
Si Si5 0.904512 0.500000 0.725189
Si Si6 0.789064 0.000000 0.999722
Si Si7 0.342428 0.588729 0.409425
O O1 0.500000 0.500000 0.765940
O O2 0.366971 0.556247 0.725287
O O3 0.371744 0.500000 0.919557
O O4 0.500000 0.224549 0.115577
O O5 0.632376 0.170372 0.175994
O O6 0.619305 0.273170 0.228727
O O7 0.629433 0.233939 0.984740
O O8 0.903856 0.097857 0.522204
O O9 0.000000 0.113695 0.711419
O O10 0.250000 0.250000 0.842144
O O11 0.182935 0.350829 0.865646
O O12 0.827399 0.500000 0.632644
O O13 0.888740 0.553354 0.808408
O O14 0.000000 0.500000 0.680224
O O15 0.733260 0.947554 0.962595
#
# Coordination Sequence:
#
# PCOD9369103 Si02
#       7
#     8  16  16  16   8   8  16
#     4  10  20  36  59  85 117 157 198 247 309 374
#     4  10  22  41  65  93 125 165 220 272 319 377
#     4   9  19  37  63  88 116 158 210 256 306 379
#     4  11  24  42  64  94 130 174 216 268 324 389
#     4  11  24  43  66  96 129 164 210 267 325 382
#     4  11  25  37  60  91 130 159 200 256 321 378
#     4  10  24  40  63  90 126 166 209 257 318 382
#
# _framework density 20.324473999999999
#
# number of rings (size 3 to 8) (size 9 to 14) (size 15 to 20)
#    0.000    1.818    0.000    3.000    7.636    5.818 
#    0.000    0.000    0.000    0.000    0.000    0.000 
#    0.000    0.000    0.000    0.000    0.000    0.000 
#
# Total GULP energy -122623.063205 kJ/mol
# GULP energy per Si atom -5573.775600 kJ/mol
# Density = 2.027821 g / cm^3
# Si number density = 20.324474 Si / 1000 Ang^3
#
#
#
# Elastic Constant Matrix: (Units=GPa)
#
#
# Indices 1 2 3 4 5 6 
#
# 1 70.5708 19.9921 16.2156 0.0000 0.0000 0.0000
# 2 19.9921 111.6757 35.8974 0.0000 0.0000 0.0000
# 3 16.2156 35.8974 72.7934 0.0000 0.0000 0.0000
# 4 0.0000 0.0000 0.0000 22.0676 0.0000 0.0000
# 5 0.0000 0.0000 0.0000 0.0000 38.0276 0.0000
# 6 0.0000 0.0000 0.0000 0.0000 0.0000 2.2147
#
#
#
# Elastic Compliance Matrix: (Units=1/GPa)
#
#
# Indices 1 2 3 4 5 6 
#
# 1 0.015284 -0.001951 -0.002443 0.000000 0.000000 0.000000
# 2 -0.001951 0.010890 -0.004936 0.000000 0.000000 0.000000
# 3 -0.002443 -0.004936 0.016716 0.000000 0.000000 0.000000
# 4 0.000000 0.000000 0.000000 0.045315 0.000000 0.000000
# 5 0.000000 0.000000 0.000000 0.000000 0.026297 0.000000
# 6 0.000000 0.000000 0.000000 0.000000 0.000000 0.451537
#
#
# Mechanical properties :
#
#
# Convention : Reuss Voigt Hill
#
# Bulk Modulus (GPa) = 41.26902 44.36111 42.81507
# Shear Modulus (GPa) = 8.43490 24.65763 16.54626
#
# Velocity S-wave (km/s) = 2.03939 3.48688 2.85635
# Velocity P-wave (km/s) = 5.08868 6.17130 5.65595
#
# Compressibility (1/GPa) = 0.02423125
#
# Stress axis : x y z
#
# Youngs Moduli (GPa) = 65.42741 91.82427 59.82395
#
# Poissons Ratio (x) = 0.17915 0.14613
# Poissons Ratio (y) = 0.12765 0.29528
# Poissons Ratio (z) = 0.15981 0.45323
#
# Static dielectric constant tensor:
#      x y z
#    x 1.745490 0.000000 0.000000 
#    y 0.000000 1.752590 0.000000 
#    z 0.000000 0.000000 1.725790 
# 
# From -- ./inp_files/7864.got.cif
#   From: 2010.05.17/outbox.cif.g08.bks.cpg/sg42_4_cif.got.tgz:7864.got - 2010.06.03 19:03:34.
