data_PCOD9369061
_publ_section_title
;
Structure prediction by ZEFSAII (Michael W. Deem and Ramdas Pophale) SiO2 
 PCOD9369061
Probable space group: F M M 2
;
_chemical_formula_sum "Si O2"
_cell_formula_units_Z 96
_cell_length_a 18.913570
_cell_length_b 8.708400
_cell_length_c 31.731744
_cell_angle_alpha 90.000000
_cell_angle_beta 90.000000
_cell_angle_gamma 90.000000
_cell_volume 5226.438233
_symmetry_space_group_name_H-M "F M M 2"
_symmetry_group_IT_number 42
_symmetry_cell_setting 'orthorhombic'
loop_
_space_group_symop_operation_xyz
x,y,z
-x,-y,z
-x,y,z
x,-y,z
x,1/2+y,1/2+z
-x,1/2-y,1/2+z
-x,1/2+y,1/2+z
x,1/2-y,1/2+z
1/2+x,y,1/2+z
1/2-x,-y,1/2+z
1/2-x,y,1/2+z
1/2+x,-y,1/2+z
1/2+x,1/2+y,z
1/2-x,1/2-y,z
1/2-x,1/2+y,z
1/2+x,1/2-y,z
loop_
_atom_site_type_symbol
_atom_site_label
_atom_site_fract_x
_atom_site_fract_y
_atom_site_fract_z
Si Si1 0.081316 0.812987 0.552870
Si Si2 0.171287 0.684491 0.972379
Si Si3 0.671230 0.315833 0.812513
Si Si4 0.171827 0.818085 0.223186
Si Si5 0.582208 0.314569 0.894760
Si Si6 0.584791 0.181007 0.147469
O O1 0.132822 0.763929 0.515576
O O2 0.103569 0.765997 0.600017
O O3 0.000000 0.763662 0.545269
O O4 0.080295 0.000000 0.553290
O O5 0.174095 0.500000 0.972147
O O6 0.250000 0.750000 0.969492
O O7 0.124658 0.741200 0.933249
O O8 0.675528 0.500000 0.810359
O O9 0.750000 0.250000 0.819781
O O10 0.645900 0.252592 0.767466
O O11 0.620198 0.272474 0.850907
O O12 0.250000 0.750000 0.216125
O O13 0.123094 0.771720 0.184228
O O14 0.176710 0.000000 0.227492
O O15 0.500000 0.269136 0.895218
O O16 0.585660 0.500000 0.898480
O O17 0.500000 0.193947 0.150877
O O18 0.602730 0.000000 0.151374
#
# Coordination Sequence:
#
# PCOD9369061 Si02
#       6
#    16  16  16  16  16  16
#     4   8  16  33  56  80 106 140 182 224 267 319
#     4  11  22  36  56  82 112 145 182 223 268 319
#     4  10  20  36  57  79 106 142 182 223 270 322
#     4  11  22  36  55  80 111 144 182 226 270 319
#     4  10  22  39  58  82 111 142 178 221 269 322
#     4   9  18  35  58  81 109 145 181 220 270 324
#
# _framework density 18.368151000000001
#
# number of rings (size 3 to 8) (size 9 to 14) (size 15 to 20)
#    0.000    2.167    0.000    5.500    0.000    5.333 
#    0.000    5.000    0.000    2.000    0.000    0.000 
#    0.000    0.000    0.000    0.000    0.000    0.000 
#
# Total GULP energy -134010.942886 kJ/mol
# GULP energy per Si atom -5583.789287 kJ/mol
# Density = 1.832634 g / cm^3
# Si number density = 18.368151 Si / 1000 Ang^3
#
#
#
# Elastic Constant Matrix: (Units=GPa)
#
#
# Indices 1 2 3 4 5 6 
#
# 1 108.3215 38.9740 104.3265 0.0000 0.0000 0.0000
# 2 38.9740 56.4434 56.4003 0.0000 0.0000 0.0000
# 3 104.3265 56.4003 188.4077 0.0000 0.0000 0.0000
# 4 0.0000 0.0000 0.0000 24.8794 0.0000 0.0000
# 5 0.0000 0.0000 0.0000 0.0000 39.8147 0.0000
# 6 0.0000 0.0000 0.0000 0.0000 0.0000 20.3832
#
#
#
# Elastic Compliance Matrix: (Units=1/GPa)
#
#
# Indices 1 2 3 4 5 6 
#
# 1 0.020393 -0.003992 -0.010097 0.000000 0.000000 0.000000
# 2 -0.003992 0.026060 -0.005591 0.000000 0.000000 0.000000
# 3 -0.010097 -0.005591 0.012572 0.000000 0.000000 0.000000
# 4 0.000000 0.000000 0.000000 0.040194 0.000000 0.000000
# 5 0.000000 0.000000 0.000000 0.000000 0.025116 0.000000
# 6 0.000000 0.000000 0.000000 0.000000 0.000000 0.049060
#
#
# Mechanical properties :
#
#
# Convention : Reuss Voigt Hill
#
# Bulk Modulus (GPa) = 50.85038 83.61935 67.23487
# Shear Modulus (GPa) = 22.79893 27.24692 25.02293
#
# Velocity S-wave (km/s) = 3.52692 3.85564 3.69494
# Velocity P-wave (km/s) = 6.65805 8.08976 7.40857
#
# Compressibility (1/GPa) = 0.01966554
#
# Stress axis : x y z
#
# Youngs Moduli (GPa) = 49.03728 38.37369 79.54058
#
# Poissons Ratio (x) = 0.15318 0.80312
# Poissons Ratio (y) = 0.19575 0.44468
# Poissons Ratio (z) = 0.49513 0.21453
#
# Static dielectric constant tensor:
#      x y z
#    x 1.602760 0.000000 0.000000 
#    y 0.000000 1.621720 0.000000 
#    z 0.000000 0.000000 1.625700 
# 
# From -- ./inp_files/31444.got.cif
#   From: 2010.05.17/outbox.cif.g08.bks.cpg/sg42_16_cif.got.tgz:31444.got - 2010.06.03 19:03:34.
