data_PCOD9369714
_publ_section_title
;
Structure prediction by ZEFSAII (Michael W. Deem and Ramdas Pophale) SiO2 
 PCOD9369714
Probable space group: F M M 2
;
_chemical_formula_sum "Si O2"
_cell_formula_units_Z 80
_cell_length_a 16.329111
_cell_length_b 26.405121
_cell_length_c 8.443699
_cell_angle_alpha 90.000000
_cell_angle_beta 90.000000
_cell_angle_gamma 90.000000
_cell_volume 3640.687867
_symmetry_space_group_name_H-M "F M M 2"
_symmetry_group_IT_number 42
_symmetry_cell_setting 'orthorhombic'
loop_
_space_group_symop_operation_xyz
x,y,z
-x,-y,z
-x,y,z
x,-y,z
x,1/2+y,1/2+z
-x,1/2-y,1/2+z
-x,1/2+y,1/2+z
x,1/2-y,1/2+z
1/2+x,y,1/2+z
1/2-x,-y,1/2+z
1/2-x,y,1/2+z
1/2+x,-y,1/2+z
1/2+x,1/2+y,z
1/2-x,1/2-y,z
1/2-x,1/2+y,z
1/2+x,1/2-y,z
loop_
_atom_site_type_symbol
_atom_site_label
_atom_site_fract_x
_atom_site_fract_y
_atom_site_fract_z
Si Si1 0.412334 0.837803 0.109660
Si Si2 0.347609 0.056357 0.196848
Si Si3 0.738972 0.195974 0.316352
Si Si4 0.909095 0.332010 0.729362
Si Si5 0.688565 0.097744 0.522860
O O1 0.500000 0.818464 0.168426
O O2 0.404437 0.897526 0.143863
O O3 0.340202 0.810135 0.204068
O O4 0.410961 0.833692 0.920200
O O5 0.341356 0.060887 0.385637
O O6 0.258868 0.071581 0.125797
O O7 0.129234 0.000000 0.646627
O O8 0.750000 0.250000 0.400427
O O9 0.821717 0.195424 0.210478
O O10 0.729089 0.146046 0.427425
O O11 0.885654 0.382852 0.633134
O O12 0.000000 0.314396 0.677503
#
# Coordination Sequence:
#
# PCOD9369714 Si02
#       5
#    16  16  16  16  16
#     4  10  22  42  65  94 131 167 214 268 319 382
#     4  11  21  38  67  95 128 170 218 264 325 384
#     4  11  23  42  67  97 128 173 213 264 322 388
#     4  11  22  40  64  92 129 169 210 261 318 378
#     4  11  21  40  62  99 129 170 210 272 318 383
#
# _framework density 21.973870000000002
#
# number of rings (size 3 to 8) (size 9 to 14) (size 15 to 20)
#    0.000    1.200    6.000    0.600    0.000    7.600 
#    0.000    3.000    0.000    4.200    0.000    0.000 
#    0.000    0.000    0.000    0.000    0.000    0.000 
#
# Total GULP energy -111450.700226 kJ/mol
# GULP energy per Si atom -5572.535011 kJ/mol
# Density = 2.192386 g / cm^3
# Si number density = 21.973870 Si / 1000 Ang^3
#
#
#
# Elastic Constant Matrix: (Units=GPa)
#
#
# Indices 1 2 3 4 5 6 
#
# 1 175.5565 21.5391 17.2404 0.0000 0.0000 0.0000
# 2 21.5391 118.1710 14.4978 0.0000 0.0000 0.0000
# 3 17.2404 14.4978 56.1742 0.0000 0.0000 0.0000
# 4 0.0000 0.0000 0.0000 21.1696 0.0000 0.0000
# 5 0.0000 0.0000 0.0000 0.0000 25.4724 0.0000
# 6 0.0000 0.0000 0.0000 0.0000 0.0000 14.5295
#
#
#
# Elastic Compliance Matrix: (Units=1/GPa)
#
#
# Indices 1 2 3 4 5 6 
#
# 1 0.005963 -0.000890 -0.001600 0.000000 0.000000 0.000000
# 2 -0.000890 0.008872 -0.002016 0.000000 0.000000 0.000000
# 3 -0.001600 -0.002016 0.018813 0.000000 0.000000 0.000000
# 4 0.000000 0.000000 0.000000 0.047238 0.000000 0.000000
# 5 0.000000 0.000000 0.000000 0.000000 0.039258 0.000000
# 6 0.000000 0.000000 0.000000 0.000000 0.000000 0.068825
#
#
# Mechanical properties :
#
#
# Convention : Reuss Voigt Hill
#
# Bulk Modulus (GPa) = 40.59479 50.71736 45.65607
# Shear Modulus (GPa) = 24.24896 32.00926 28.12911
#
# Velocity S-wave (km/s) = 3.32556 3.82081 3.58175
# Velocity P-wave (km/s) = 5.76715 6.52653 6.15856
#
# Compressibility (1/GPa) = 0.02463371
#
# Stress axis : x y z
#
# Youngs Moduli (GPa) = 167.71300 112.71402 53.15395
#
# Poissons Ratio (x) = 0.10037 0.08505
# Poissons Ratio (y) = 0.14935 0.10718
# Poissons Ratio (z) = 0.26836 0.22728
#
# Static dielectric constant tensor:
#      x y z
#    x 1.879650 0.000000 0.000000 
#    y 0.000000 1.863650 0.000000 
#    z 0.000000 0.000000 1.845930 
# 
# From -- ./inp_files/3482.got.cif
#   From: 2010.05.17/outbox.cif.g08.bks.cpg/sg42_2_cif.got.tgz:3482.got - 2010.06.03 19:03:34.
