data_PCOD9369137
_publ_section_title
;
Structure prediction by ZEFSAII (Michael W. Deem and Ramdas Pophale) SiO2 
 PCOD9369137
Probable space group: F M M 2
;
_chemical_formula_sum "Si O2"
_cell_formula_units_Z 120
_cell_length_a 21.619848
_cell_length_b 14.845818
_cell_length_c 18.820202
_cell_angle_alpha 90.000000
_cell_angle_beta 90.000000
_cell_angle_gamma 90.000000
_cell_volume 6040.613499
_symmetry_space_group_name_H-M "F M M 2"
_symmetry_group_IT_number 42
_symmetry_cell_setting 'orthorhombic'
loop_
_space_group_symop_operation_xyz
x,y,z
-x,-y,z
-x,y,z
x,-y,z
x,1/2+y,1/2+z
-x,1/2-y,1/2+z
-x,1/2+y,1/2+z
x,1/2-y,1/2+z
1/2+x,y,1/2+z
1/2-x,-y,1/2+z
1/2-x,y,1/2+z
1/2+x,-y,1/2+z
1/2+x,1/2+y,z
1/2-x,1/2-y,z
1/2-x,1/2+y,z
1/2+x,1/2-y,z
loop_
_atom_site_type_symbol
_atom_site_label
_atom_site_fract_x
_atom_site_fract_y
_atom_site_fract_z
Si Si1 0.895642 0.286991 0.208910
Si Si2 0.782902 0.898072 0.655488
Si Si3 0.288336 0.400026 0.017830
Si Si4 0.573842 0.602642 0.851649
Si Si5 0.500000 0.713425 0.585807
Si Si6 0.612596 0.768361 0.481064
Si Si7 0.843130 0.599892 0.744171
Si Si8 0.789330 0.162335 0.390410
O O1 0.830223 0.324538 0.181872
O O2 0.908682 0.342975 0.280719
O O3 0.888991 0.181531 0.227457
O O4 0.946209 0.300850 0.147957
O O5 0.767262 0.887640 0.572922
O O6 0.717088 0.892260 0.694421
O O7 0.807523 0.000000 0.667807
O O8 0.314233 0.500000 0.028746
O O9 0.339628 0.324513 0.029787
O O10 0.259040 0.390148 0.939871
O O11 0.500000 0.596716 0.852923
O O12 0.599053 0.500000 0.851816
O O13 0.593509 0.659333 0.920535
O O14 0.554983 0.732171 0.525416
O O15 0.653824 0.694766 0.439735
O O16 0.870080 0.500000 0.734489
O O17 0.816747 0.611372 0.823576
O O18 0.750000 0.250000 0.365564
#
# Coordination Sequence:
#
# PCOD9369137 Si02
#       8
#    16  16  16  16   8  16  16  16
#     4  12  23  43  65  95 126 174 215 268 317 385
#     4  10  22  39  63  95 132 168 206 257 321 383
#     4  10  21  38  60  93 131 165 205 256 316 384
#     4  11  23  42  67  95 129 170 220 274 322 376
#     4  12  26  40  66  90 124 166 220 262 316 378
#     4  11  22  40  62  95 123 172 208 263 315 381
#     4  11  23  39  63  95 129 166 210 260 315 384
#     4  10  20  36  63  91 127 164 207 253 318 379
#
# _framework density 19.865532000000002
#
# number of rings (size 3 to 8) (size 9 to 14) (size 15 to 20)
#    0.000    1.200    2.667    4.000    1.867    2.133 
#    0.000    2.333    0.000    2.400    0.000    0.000 
#    0.000    0.000    0.000    0.000    0.000    0.000 
#
# Total GULP energy -167128.831045 kJ/mol
# GULP energy per Si atom -5570.961035 kJ/mol
# Density = 1.982032 g / cm^3
# Si number density = 19.865532 Si / 1000 Ang^3
#
#
#
# Elastic Constant Matrix: (Units=GPa)
#
#
# Indices 1 2 3 4 5 6 
#
# 1 29.7886 8.2223 -0.6128 0.0000 0.0000 0.0000
# 2 8.2223 76.9784 23.4439 0.0000 0.0000 0.0000
# 3 -0.6128 23.4439 81.3996 0.0000 0.0000 0.0000
# 4 0.0000 0.0000 0.0000 29.7706 0.0000 0.0000
# 5 0.0000 0.0000 0.0000 0.0000 27.7818 0.0000
# 6 0.0000 0.0000 0.0000 0.0000 0.0000 18.2333
#
#
#
# Elastic Compliance Matrix: (Units=1/GPa)
#
#
# Indices 1 2 3 4 5 6 
#
# 1 0.034747 -0.004156 0.001458 0.000000 0.000000 0.000000
# 2 -0.004156 0.014737 -0.004276 0.000000 0.000000 0.000000
# 3 0.001458 -0.004276 0.013527 0.000000 0.000000 0.000000
# 4 0.000000 0.000000 0.000000 0.033590 0.000000 0.000000
# 5 0.000000 0.000000 0.000000 0.000000 0.035995 0.000000
# 6 0.000000 0.000000 0.000000 0.000000 0.000000 0.054845
#
#
# Mechanical properties :
#
#
# Convention : Reuss Voigt Hill
#
# Bulk Modulus (GPa) = 20.38090 27.80816 24.09453
# Shear Modulus (GPa) = 22.96301 25.63136 24.29719
#
# Velocity S-wave (km/s) = 3.40357 3.59589 3.50105
# Velocity P-wave (km/s) = 5.07222 5.59188 5.33838
#
# Compressibility (1/GPa) = 0.04906555
#
# Stress axis : x y z
#
# Youngs Moduli (GPa) = 28.77953 67.85797 73.92373
#
# Poissons Ratio (x) = 0.28199 -0.10781
# Poissons Ratio (y) = 0.11960 0.31607
# Poissons Ratio (z) = -0.04197 0.29013
#
# Static dielectric constant tensor:
#      x y z
#    x 1.670800 0.000000 0.000000 
#    y 0.000000 1.722600 0.000000 
#    z 0.000000 0.000000 1.720880 
# 
# From -- ./inp_files/26539.got.cif
#   From: 2010.05.17/outbox.cif.g08.bks.cpg/sg42_14_cif.got.tgz:26539.got - 2010.06.03 19:03:34.
