data_PCOD9369174
_publ_section_title
;
Structure prediction by ZEFSAII (Michael W. Deem and Ramdas Pophale) SiO2 
 PCOD9369174
Probable space group: F M M 2
;
_chemical_formula_sum "Si O2"
_cell_formula_units_Z 80
_cell_length_a 18.870496
_cell_length_b 15.618501
_cell_length_c 13.240601
_cell_angle_alpha 90.000000
_cell_angle_beta 90.000000
_cell_angle_gamma 90.000000
_cell_volume 3902.387247
_symmetry_space_group_name_H-M "F M M 2"
_symmetry_group_IT_number 42
_symmetry_cell_setting 'orthorhombic'
loop_
_space_group_symop_operation_xyz
x,y,z
-x,-y,z
-x,y,z
x,-y,z
x,1/2+y,1/2+z
-x,1/2-y,1/2+z
-x,1/2+y,1/2+z
x,1/2-y,1/2+z
1/2+x,y,1/2+z
1/2-x,-y,1/2+z
1/2-x,y,1/2+z
1/2+x,-y,1/2+z
1/2+x,1/2+y,z
1/2-x,1/2-y,z
1/2-x,1/2+y,z
1/2+x,1/2-y,z
loop_
_atom_site_type_symbol
_atom_site_label
_atom_site_fract_x
_atom_site_fract_y
_atom_site_fract_z
Si Si1 0.195971 0.637210 0.568180
Si Si2 0.500000 0.401633 0.806126
Si Si3 0.500000 0.597678 0.565720
Si Si4 0.848056 0.670914 0.004626
Si Si5 0.147507 0.095445 0.857009
Si Si6 0.199809 0.397453 0.797377
O O1 0.171800 0.733554 0.539753
O O2 0.280669 0.621174 0.554210
O O3 0.160064 0.588097 0.476035
O O4 0.176158 0.616726 0.682687
O O5 0.500000 0.500000 0.848705
O O6 0.500000 0.406175 0.686468
O O7 0.426761 0.358858 0.838959
O O8 0.500000 0.500000 0.525675
O O9 0.426415 0.642905 0.535709
O O10 0.840838 0.653174 0.884928
O O11 0.218412 0.133719 0.809170
O O12 0.141548 0.000000 0.810888
O O13 0.197860 0.500000 0.819479
#
# Coordination Sequence:
#
# PCOD9369174 Si02
#       6
#    16   8   8  16  16  16
#     4  10  21  37  59  86 118 154 196 247 306 360
#     4   9  18  31  51  79 109 144 187 239 294 343
#     4  11  22  39  61  85 118 162 209 253 299 359
#     4  10  23  38  57  86 119 154 198 251 302 356
#     4   9  18  33  55  84 116 152 199 249 296 357
#     4  10  20  37  61  86 115 156 203 248 297 357
#
# _framework density 20.500271999999999
#
# number of rings (size 3 to 8) (size 9 to 14) (size 15 to 20)
#    0.000    2.200    0.000    2.400    0.000   12.800 
#    0.000    2.000    0.000    1.200    0.000    0.000 
#    0.000    0.000    0.000    0.000    0.000    0.000 
#
# Total GULP energy -111475.029173 kJ/mol
# GULP energy per Si atom -5573.751459 kJ/mol
# Density = 2.045361 g / cm^3
# Si number density = 20.500272 Si / 1000 Ang^3
#
#
#
# Elastic Constant Matrix: (Units=GPa)
#
#
# Indices 1 2 3 4 5 6 
#
# 1 162.3921 37.1785 35.7888 0.0000 0.0000 0.0000
# 2 37.1785 63.2960 14.5785 0.0000 0.0000 0.0000
# 3 35.7888 14.5785 123.9588 0.0000 0.0000 0.0000
# 4 0.0000 0.0000 0.0000 25.6442 0.0000 0.0000
# 5 0.0000 0.0000 0.0000 0.0000 14.3996 0.0000
# 6 0.0000 0.0000 0.0000 0.0000 0.0000 22.0636
#
#
#
# Elastic Compliance Matrix: (Units=1/GPa)
#
#
# Indices 1 2 3 4 5 6 
#
# 1 0.007440 -0.003983 -0.001680 0.000000 0.000000 0.000000
# 2 -0.003983 0.018371 -0.001011 0.000000 0.000000 0.000000
# 3 -0.001680 -0.001011 0.008671 0.000000 0.000000 0.000000
# 4 0.000000 0.000000 0.000000 0.038995 0.000000 0.000000
# 5 0.000000 0.000000 0.000000 0.000000 0.069447 0.000000
# 6 0.000000 0.000000 0.000000 0.000000 0.000000 0.045324
#
#
# Mechanical properties :
#
#
# Convention : Reuss Voigt Hill
#
# Bulk Modulus (GPa) = 47.31400 58.30430 52.80915
# Shear Modulus (GPa) = 23.96480 29.89489 26.92985
#
# Velocity S-wave (km/s) = 3.42277 3.82287 3.62834
# Velocity P-wave (km/s) = 6.22497 6.92736 6.58554
#
# Compressibility (1/GPa) = 0.02113539
#
# Stress axis : x y z
#
# Youngs Moduli (GPa) = 134.40817 54.43302 115.32734
#
# Poissons Ratio (x) = 0.21682 0.19370
# Poissons Ratio (y) = 0.53538 0.11655
# Poissons Ratio (z) = 0.22575 0.05501
#
# Static dielectric constant tensor:
#      x y z
#    x 1.768110 0.000000 0.000000 
#    y 0.000000 1.812200 0.000000 
#    z 0.000000 0.000000 1.707180 
# 
# From -- ./inp_files/8630.got.cif
#   From: 2010.05.17/outbox.cif.g08.bks.cpg/sg42_5_cif.got.tgz:8630.got - 2010.06.03 19:03:34.
