data_PCOD9369888
_publ_section_title
;
Structure prediction by ZEFSAII (Michael W. Deem and Ramdas Pophale) SiO2 
 PCOD9369888
Probable space group: F M M 2
;
_chemical_formula_sum "Si O2"
_cell_formula_units_Z 68
_cell_length_a 15.521267
_cell_length_b 20.530388
_cell_length_c 9.659388
_cell_angle_alpha 90.000000
_cell_angle_beta 90.000000
_cell_angle_gamma 90.000000
_cell_volume 3078.037724
_symmetry_space_group_name_H-M "F M M 2"
_symmetry_group_IT_number 42
_symmetry_cell_setting 'orthorhombic'
loop_
_space_group_symop_operation_xyz
x,y,z
-x,-y,z
-x,y,z
x,-y,z
x,1/2+y,1/2+z
-x,1/2-y,1/2+z
-x,1/2+y,1/2+z
x,1/2-y,1/2+z
1/2+x,y,1/2+z
1/2-x,-y,1/2+z
1/2-x,y,1/2+z
1/2+x,-y,1/2+z
1/2+x,1/2+y,z
1/2-x,1/2-y,z
1/2-x,1/2+y,z
1/2+x,1/2-y,z
loop_
_atom_site_type_symbol
_atom_site_label
_atom_site_fract_x
_atom_site_fract_y
_atom_site_fract_z
Si Si1 0.000000 0.000000 0.009790
Si Si2 0.145278 0.386740 0.505737
Si Si3 0.768230 0.423251 0.781552
Si Si4 0.899628 0.754272 0.152873
Si Si5 0.104779 0.668156 0.914926
O O1 0.074316 0.942725 0.009889
O O2 0.215306 0.406549 0.622272
O O3 0.190210 0.386438 0.356732
O O4 0.108002 0.317624 0.553873
O O5 0.755372 0.500000 0.798140
O O6 0.853645 0.398558 0.862857
O O7 0.865056 0.779086 0.299255
O O8 0.000000 0.739493 0.176810
O O9 0.864629 0.694549 0.063210
O O10 0.000000 0.664535 0.912175
#
# Coordination Sequence:
#
# PCOD9369888 Si02
#       5
#     4  16  16  16  16
#     4  12  20  40  68  90 106 172 198 234 292 372
#     4  11  23  38  66  87 123 154 201 243 298 352
#     4  11  22  38  59  91 122 152 196 253 293 350
#     4   9  18  36  57  87 113 157 202 242 285 351
#     4   9  20  35  59  84 118 156 199 242 294 348
#
# _framework density 22.091998
#
# number of rings (size 3 to 8) (size 9 to 14) (size 15 to 20)
#    0.000    1.882    3.529    0.000    1.647    3.294 
#    0.000    4.706    2.588    1.412    0.000    0.000 
#    0.000    0.000    0.000    0.000    0.000    0.000 
#
# Total GULP energy -94675.747780 kJ/mol
# GULP energy per Si atom -5569.161634 kJ/mol
# Density = 2.204172 g / cm^3
# Si number density = 22.091998 Si / 1000 Ang^3
#
#
#
# Elastic Constant Matrix: (Units=GPa)
#
#
# Indices 1 2 3 4 5 6 
#
# 1 56.7982 4.8559 32.4337 0.0000 0.0000 0.0000
# 2 4.8559 29.9530 -8.2934 0.0000 0.0000 0.0000
# 3 32.4337 -8.2934 79.3156 0.0000 0.0000 0.0000
# 4 0.0000 0.0000 0.0000 19.9662 0.0000 0.0000
# 5 0.0000 0.0000 0.0000 0.0000 15.0151 0.0000
# 6 0.0000 0.0000 0.0000 0.0000 0.0000 31.7235
#
#
#
# Elastic Compliance Matrix: (Units=1/GPa)
#
#
# Indices 1 2 3 4 5 6 
#
# 1 0.024274 -0.006883 -0.010646 0.000000 0.000000 0.000000
# 2 -0.006883 0.036333 0.006613 0.000000 0.000000 0.000000
# 3 -0.010646 0.006613 0.017653 0.000000 0.000000 0.000000
# 4 0.000000 0.000000 0.000000 0.050085 0.000000 0.000000
# 5 0.000000 0.000000 0.000000 0.000000 0.066600 0.000000
# 6 0.000000 0.000000 0.000000 0.000000 0.000000 0.031522
#
#
# Mechanical properties :
#
#
# Convention : Reuss Voigt Hill
#
# Bulk Modulus (GPa) = 17.72138 24.89547 21.30843
# Shear Modulus (GPa) = 18.71925 22.47901 20.59913
#
# Velocity S-wave (km/s) = 2.91405 3.19332 3.05688
# Velocity P-wave (km/s) = 4.40015 4.98897 4.70378
#
# Compressibility (1/GPa) = 0.05642901
#
# Stress axis : x y z
#
# Youngs Moduli (GPa) = 41.19697 27.52354 56.64892
#
# Poissons Ratio (x) = 0.18944 0.60306
# Poissons Ratio (y) = 0.28355 -0.37465
# Poissons Ratio (z) = 0.43857 -0.18203
#
# Static dielectric constant tensor:
#      x y z
#    x 1.796720 0.000000 0.000000 
#    y 0.000000 1.790770 0.000000 
#    z 0.000000 0.000000 1.830720 
# 
# From -- ./inp_files/3277.got.cif
#   From: 2010.05.17/outbox.cif.g08.bks.cpg/sg42_2_cif.got.tgz:3277.got - 2010.06.03 19:03:34.
