data_PCOD9369041
_publ_section_title
;
Structure prediction by ZEFSAII (Michael W. Deem and Ramdas Pophale) SiO2 
 PCOD9369041
Probable space group: F M M 2
;
_chemical_formula_sum "Si O2"
_cell_formula_units_Z 96
_cell_length_a 24.240959
_cell_length_b 14.547045
_cell_length_c 14.299029
_cell_angle_alpha 90.000000
_cell_angle_beta 90.000000
_cell_angle_gamma 90.000000
_cell_volume 5042.328388
_symmetry_space_group_name_H-M "F M M 2"
_symmetry_group_IT_number 42
_symmetry_cell_setting 'orthorhombic'
loop_
_space_group_symop_operation_xyz
x,y,z
-x,-y,z
-x,y,z
x,-y,z
x,1/2+y,1/2+z
-x,1/2-y,1/2+z
-x,1/2+y,1/2+z
x,1/2-y,1/2+z
1/2+x,y,1/2+z
1/2-x,-y,1/2+z
1/2-x,y,1/2+z
1/2+x,-y,1/2+z
1/2+x,1/2+y,z
1/2-x,1/2-y,z
1/2-x,1/2+y,z
1/2+x,1/2-y,z
loop_
_atom_site_type_symbol
_atom_site_label
_atom_site_fract_x
_atom_site_fract_y
_atom_site_fract_z
Si Si1 0.000000 0.609245 0.837270
Si Si2 0.814133 0.248642 0.446475
Si Si3 0.670175 0.889474 0.287568
Si Si4 0.202398 0.396493 0.785568
Si Si5 0.605925 0.294258 0.616528
Si Si6 0.590783 0.395436 0.185229
Si Si7 0.000000 0.391000 0.044126
O O1 0.945101 0.627057 0.777570
O O2 0.000000 0.500000 0.849415
O O3 0.000000 0.651368 0.939435
O O4 0.750000 0.250000 0.476288
O O5 0.831765 0.342456 0.391280
O O6 0.815599 0.173847 0.364198
O O7 0.850606 0.214914 0.532412
O O8 0.734630 0.878082 0.257268
O O9 0.634226 0.832389 0.212020
O O10 0.658187 0.000000 0.288565
O O11 0.201086 0.500000 0.824339
O O12 0.156230 0.392857 0.705841
O O13 0.580463 0.191673 0.621697
O O14 0.555589 0.360252 0.593678
O O15 0.576317 0.500000 0.156289
O O16 0.000000 0.500000 0.039312
#
# Coordination Sequence:
#
# PCOD9369041 Si02
#       7
#     8  16  16  16  16  16   8
#     4   9  19  38  62  82 113 151 196 259 311 360
#     4  10  22  37  60  91 127 162 207 255 316 380
#     4  10  22  40  60  87 129 169 204 254 321 386
#     4   9  18  36  59  85 120 161 202 252 313 374
#     4  12  24  38  65  92 121 170 212 264 311 378
#     4  10  20  35  60  89 118 158 204 255 311 370
#     4  11  25  42  61  94 125 155 215 271 316 376
#
# _framework density 19.038824000000002
#
# number of rings (size 3 to 8) (size 9 to 14) (size 15 to 20)
#    0.000    1.833    1.667    2.000    2.333    3.333 
#    0.000    0.000    0.000    0.000    0.000    0.000 
#    0.000    0.000    0.000    0.000    0.000    0.000 
#
# Total GULP energy -133729.679818 kJ/mol
# GULP energy per Si atom -5572.069992 kJ/mol
# Density = 1.899549 g / cm^3
# Si number density = 19.038824 Si / 1000 Ang^3
#
#
#
# Elastic Constant Matrix: (Units=GPa)
#
#
# Indices 1 2 3 4 5 6 
#
# 1 83.3993 22.9205 36.2713 0.0000 0.0000 0.0000
# 2 22.9205 105.5337 25.4014 0.0000 0.0000 0.0000
# 3 36.2713 25.4014 49.8792 0.0000 0.0000 0.0000
# 4 0.0000 0.0000 0.0000 18.6552 0.0000 0.0000
# 5 0.0000 0.0000 0.0000 0.0000 4.4525 0.0000
# 6 0.0000 0.0000 0.0000 0.0000 0.0000 33.6507
#
#
#
# Elastic Compliance Matrix: (Units=1/GPa)
#
#
# Indices 1 2 3 4 5 6 
#
# 1 0.017603 -0.000846 -0.012370 0.000000 0.000000 0.000000
# 2 -0.000846 0.010840 -0.004905 0.000000 0.000000 0.000000
# 3 -0.012370 -0.004905 0.031541 0.000000 0.000000 0.000000
# 4 0.000000 0.000000 0.000000 0.053604 0.000000 0.000000
# 5 0.000000 0.000000 0.000000 0.000000 0.224595 0.000000
# 6 0.000000 0.000000 0.000000 0.000000 0.000000 0.029717
#
#
# Mechanical properties :
#
#
# Convention : Reuss Voigt Hill
#
# Bulk Modulus (GPa) = 42.11822 45.33318 43.72570
# Shear Modulus (GPa) = 12.13428 21.63295 16.88361
#
# Velocity S-wave (km/s) = 2.52731 3.37449 2.98115
# Velocity P-wave (km/s) = 5.53956 6.24864 5.90475
#
# Compressibility (1/GPa) = 0.02374270
#
# Stress axis : x y z
#
# Youngs Moduli (GPa) = 56.80972 92.25075 31.70434
#
# Poissons Ratio (x) = 0.07802 0.39217
# Poissons Ratio (y) = 0.04805 0.15552
# Poissons Ratio (z) = 0.70271 0.45252
#
# Static dielectric constant tensor:
#      x y z
#    x 1.646780 0.000000 0.000000 
#    y 0.000000 1.713750 0.000000 
#    z 0.000000 0.000000 1.652600 
# 
# From -- ./inp_files/15863.got.cif
#   From: 2010.05.17/outbox.cif.g08.bks.cpg/sg42_8_cif.got.tgz:15863.got - 2010.06.03 19:03:34.
