data_PCOD9369097
_publ_section_title
;
Structure prediction by ZEFSAII (Michael W. Deem and Ramdas Pophale) SiO2 
 PCOD9369097
Probable space group: F M M 2
;
_chemical_formula_sum "Si O2"
_cell_formula_units_Z 104
_cell_length_a 15.763785
_cell_length_b 22.830393
_cell_length_c 12.562571
_cell_angle_alpha 90.000000
_cell_angle_beta 90.000000
_cell_angle_gamma 90.000000
_cell_volume 4521.186474
_symmetry_space_group_name_H-M "F M M 2"
_symmetry_group_IT_number 42
_symmetry_cell_setting 'orthorhombic'
loop_
_space_group_symop_operation_xyz
x,y,z
-x,-y,z
-x,y,z
x,-y,z
x,1/2+y,1/2+z
-x,1/2-y,1/2+z
-x,1/2+y,1/2+z
x,1/2-y,1/2+z
1/2+x,y,1/2+z
1/2-x,-y,1/2+z
1/2-x,y,1/2+z
1/2+x,-y,1/2+z
1/2+x,1/2+y,z
1/2-x,1/2-y,z
1/2-x,1/2+y,z
1/2+x,1/2-y,z
loop_
_atom_site_type_symbol
_atom_site_label
_atom_site_fract_x
_atom_site_fract_y
_atom_site_fract_z
Si Si1 0.812079 0.067425 0.904260
Si Si2 0.601244 0.934733 0.631288
Si Si3 0.158726 0.185424 0.149554
Si Si4 0.813976 0.345925 0.010840
Si Si5 0.500000 0.812851 0.487444
Si Si6 0.899074 0.067390 0.677187
Si Si7 0.405131 0.261719 0.348495
O O1 0.855834 0.077341 0.791395
O O2 0.781664 0.000000 0.906334
O O3 0.878060 0.071708 0.004664
O O4 0.737833 0.112019 0.931587
O O5 0.500000 0.930256 0.644161
O O6 0.649676 0.882466 0.689348
O O7 0.628568 0.000000 0.663509
O O8 0.243123 0.186296 0.081067
O O9 0.074859 0.190756 0.077612
O O10 0.151675 0.230226 0.246101
O O11 0.867524 0.386738 0.089927
O O12 0.868785 0.300166 0.944651
O O13 0.573782 0.802216 0.393630
O O14 0.000000 0.071588 0.689698
O O15 0.878479 0.000000 0.644737
O O16 0.500000 0.285633 0.323574
#
# Coordination Sequence:
#
# PCOD9369097 Si02
#       7
#    16  16  16  16   8  16  16
#     4   9  18  32  52  85 127 172 215 255 306 374
#     4   9  16  29  57  94 128 163 203 252 306 380
#     4  11  21  43  69  93 131 168 211 270 335 385
#     4  11  22  37  63  96 126 160 214 277 328 384
#     4  10  22  44  67  86 115 168 208 268 334 396
#     4  10  20  36  58  88 135 186 222 258 313 382
#     4  10  23  43  66  89 122 167 208 269 327 397
#
# _framework density 23.002813
#
# number of rings (size 3 to 8) (size 9 to 14) (size 15 to 20)
#    0.462    1.538    1.538    2.308    0.000    3.077 
#    0.000   12.308    0.000    3.692    0.000    0.000 
#    0.000    0.000    0.000    0.000    0.000    0.000 
#
# Total GULP energy -144851.417764 kJ/mol
# GULP energy per Si atom -5571.208376 kJ/mol
# Density = 2.295046 g / cm^3
# Si number density = 23.002813 Si / 1000 Ang^3
#
#
#
# Elastic Constant Matrix: (Units=GPa)
#
#
# Indices 1 2 3 4 5 6 
#
# 1 74.5434 25.9769 28.5020 0.0000 0.0000 0.0000
# 2 25.9769 71.1535 20.4634 0.0000 0.0000 0.0000
# 3 28.5020 20.4634 76.6098 0.0000 0.0000 0.0000
# 4 0.0000 0.0000 0.0000-1333.5378 0.0000 0.0000
# 5 0.0000 0.0000 0.0000 0.0000 36.1759 0.0000
# 6 0.0000 0.0000 0.0000 0.0000 0.0000 17.7139
#
#
#
# Elastic Compliance Matrix: (Units=1/GPa)
#
#
# Indices 1 2 3 4 5 6 
#
# 1 0.017005 -0.004754 -0.005057 0.000000 0.000000 0.000000
# 2 -0.004754 0.016553 -0.002653 0.000000 0.000000 0.000000
# 3 -0.005057 -0.002653 0.015643 0.000000 0.000000 0.000000
# 4 0.000000 0.000000 0.000000 -0.000750 0.000000 0.000000
# 5 0.000000 0.000000 0.000000 0.000000 0.027643 0.000000
# 6 0.000000 0.000000 0.000000 0.000000 0.000000 0.056453
#
#
# Mechanical properties :
#
#
# Convention : Reuss Voigt Hill
#
# Bulk Modulus (GPa) = 41.19654 41.35458 41.27556
# Shear Modulus (GPa) = 30.19965 -246.10529 -107.95282
#
# Velocity S-wave (km/s) = 3.62728 -10.35478 -6.85800
# Velocity P-wave (km/s) = 5.95744 11.17788 6.68782
#
# Compressibility (1/GPa) = 0.02427389
#
# Stress axis : x y z
#
# Youngs Moduli (GPa) = 58.80570 60.41342 63.92613
#
# Poissons Ratio (x) = 0.28720 0.32326
# Poissons Ratio (y) = 0.27956 0.16958
# Poissons Ratio (z) = 0.29737 0.16026
#
# Static dielectric constant tensor:
#      x y z
#    x 1.902940 0.000000 0.000000 
#    y 0.000000 2.983430 0.000000 
#    z 0.000000 0.000000 1.815230 
# 
# From -- ./inp_files/8988.got.cif
#   From: 2010.05.17/outbox.cif.g08.bks.cpg/sg42_5_cif.got.tgz:8988.got - 2010.06.03 19:03:34.
