data_PCOD9369608
_publ_section_title
;
Structure prediction by ZEFSAII (Michael W. Deem and Ramdas Pophale) SiO2 
 PCOD9369608
Probable space group: F M M 2
;
_chemical_formula_sum "Si O2"
_cell_formula_units_Z 52
_cell_length_a 19.469262
_cell_length_b 20.494138
_cell_length_c 5.274234
_cell_angle_alpha 90.000000
_cell_angle_beta 90.000000
_cell_angle_gamma 90.000000
_cell_volume 2104.449652
_symmetry_space_group_name_H-M "F M M 2"
_symmetry_group_IT_number 42
_symmetry_cell_setting 'orthorhombic'
loop_
_space_group_symop_operation_xyz
x,y,z
-x,-y,z
-x,y,z
x,-y,z
x,1/2+y,1/2+z
-x,1/2-y,1/2+z
-x,1/2+y,1/2+z
x,1/2-y,1/2+z
1/2+x,y,1/2+z
1/2-x,-y,1/2+z
1/2-x,y,1/2+z
1/2+x,-y,1/2+z
1/2+x,1/2+y,z
1/2-x,1/2-y,z
1/2-x,1/2+y,z
1/2+x,1/2-y,z
loop_
_atom_site_type_symbol
_atom_site_label
_atom_site_fract_x
_atom_site_fract_y
_atom_site_fract_z
Si Si1 0.173221 0.221426 0.761120
Si Si2 0.704885 0.500000 0.273597
Si Si3 0.500000 0.000000 0.335329
Si Si4 0.612704 0.103666 0.510630
Si Si5 0.000000 0.705996 0.633165
O O1 0.142234 0.236580 0.490152
O O2 0.250000 0.250000 0.734059
O O3 0.164432 0.146617 0.838712
O O4 0.763775 0.500000 0.054374
O O5 0.656776 0.561811 0.208796
O O6 0.438813 0.943465 0.356738
O O7 0.563439 0.155571 0.644722
O O8 0.000000 0.759560 0.855370
#
# Coordination Sequence:
#
# PCOD9369608 Si02
#       5
#    16   8   4  16   8
#     4  10  22  36  62  96 130 167 203 266 333 388
#     4  11  28  43  68  97 134 189 222 282 332 397
#     4   8  20  44  68  94 124 194 212 290 308 394
#     4  10  22  44  68  96 139 169 238 266 338 400
#     4  11  24  43  72 103 132 179 220 286 340 401
#
# _framework density 24.709548999999999
#
# number of rings (size 3 to 8) (size 9 to 14) (size 15 to 20)
#    0.000    1.846    0.000    1.846    8.615    2.462 
#    0.000    0.000    0.000   20.308    0.000    0.000 
#    0.000    0.000    0.000    0.000    0.000    0.000 
#
# Total GULP energy -72416.104706 kJ/mol
# GULP energy per Si atom -5570.469593 kJ/mol
# Density = 2.465331 g / cm^3
# Si number density = 24.709549 Si / 1000 Ang^3
#
#
#
# Elastic Constant Matrix: (Units=GPa)
#
#
# Indices 1 2 3 4 5 6 
#
# 1 122.5927 59.0643 1.4042 0.0191 -0.0153 -0.0022
# 2 59.0643 175.5041 31.8249 -0.0176 0.0198 0.0098
# 3 1.4042 31.8249 117.5205 -0.0446 0.0512 0.0190
# 4 0.0191 -0.0176 -0.0446 9.9463 0.0632 0.0210
# 5 -0.0153 0.0198 0.0512 0.0632 26.6445 -0.0278
# 6 -0.0022 0.0098 0.0190 0.0210 -0.0278 99.4378
#
#
#
# Elastic Compliance Matrix: (Units=1/GPa)
#
#
# Indices 1 2 3 4 5 6 
#
# 1 0.009810 -0.003449 0.000817 -0.000021 0.000007 0.000000
# 2 -0.003449 0.007205 -0.001910 0.000011 -0.000004 0.000000
# 3 0.000817 -0.001910 0.009017 0.000036 -0.000016 -0.000002
# 4 -0.000021 0.000011 0.000036 0.100542 -0.000239 -0.000021
# 5 0.000007 -0.000004 -0.000016 -0.000239 0.037532 0.000011
# 6 0.000000 0.000000 -0.000002 -0.000021 0.000011 0.010057
#
#
# Mechanical properties :
#
#
# Convention : Reuss Voigt Hill
#
# Bulk Modulus (GPa) = 59.00968 66.68933 62.84950
# Shear Modulus (GPa) = 26.46968 48.76063 37.61516
#
# Velocity S-wave (km/s) = 3.27652 4.44706 3.90589
# Velocity P-wave (km/s) = 6.18444 7.30865 6.76992
#
# Compressibility (1/GPa) = 0.01694637
#
# Stress axis : x y z
#
# Youngs Moduli (GPa) = 101.94009 138.79045 110.90614
#
# Poissons Ratio (x) = 0.47876 -0.09060
# Poissons Ratio (y) = 0.35164 0.21182
# Poissons Ratio (z) = -0.08328 0.26508
#
# Static dielectric constant tensor:
#      x y z
#    x 1.814570 -0.000020 -0.000010 
#    y -0.000020 1.924020 0.000000 
#    z -0.000010 0.000000 1.977540 
# 
# From -- ./inp_files/863.got.cif
#   From: 2010.05.17/outbox.cif.g08.bks.cpg/sg42_1_cif.got.tgz:863.got - 2010.06.03 19:03:34.
