data_PCOD9369742
_publ_section_title
;
Structure prediction by ZEFSAII (Michael W. Deem and Ramdas Pophale) SiO2 
 PCOD9369742
Probable space group: F M M 2
;
_chemical_formula_sum "Si O2"
_cell_formula_units_Z 72
_cell_length_a 34.584361
_cell_length_b 17.945994
_cell_length_c 5.355325
_cell_angle_alpha 90.000000
_cell_angle_beta 90.000000
_cell_angle_gamma 90.000000
_cell_volume 3323.786397
_symmetry_space_group_name_H-M "F M M 2"
_symmetry_group_IT_number 42
_symmetry_cell_setting 'orthorhombic'
loop_
_space_group_symop_operation_xyz
x,y,z
-x,-y,z
-x,y,z
x,-y,z
x,1/2+y,1/2+z
-x,1/2-y,1/2+z
-x,1/2+y,1/2+z
x,1/2-y,1/2+z
1/2+x,y,1/2+z
1/2-x,-y,1/2+z
1/2-x,y,1/2+z
1/2+x,-y,1/2+z
1/2+x,1/2+y,z
1/2-x,1/2-y,z
1/2-x,1/2+y,z
1/2+x,1/2-y,z
loop_
_atom_site_type_symbol
_atom_site_label
_atom_site_fract_x
_atom_site_fract_y
_atom_site_fract_z
Si Si1 0.911182 0.408939 0.332470
Si Si2 0.044658 0.909033 0.334309
Si Si3 0.705979 0.279892 0.170964
Si Si4 0.274935 0.000000 0.066626
Si Si5 0.323633 0.084483 0.397048
O O1 0.910828 0.500000 0.325514
O O2 0.935444 0.386114 0.575436
O O3 0.866642 0.385787 0.361392
O O4 0.931149 0.384257 0.075910
O O5 0.000000 0.885626 0.348662
O O6 0.044823 0.000000 0.336006
O O7 0.687914 0.266277 0.440770
O O8 0.750000 0.250000 0.199561
O O9 0.702146 0.363204 0.069555
O O10 0.302226 0.929730 0.132937
O O11 0.245836 0.000000 0.304846
O O12 0.327125 0.000000 0.502736
#
# Coordination Sequence:
#
# PCOD9369742 Si02
#       5
#    16  16  16   8  16
#     4   9  17  30  45  72 104 142 181 220 265 323
#     4   9  16  26  45  72 109 144 171 208 270 335
#     4  10  23  38  56  78 110 143 185 235 289 338
#     4  10  24  34  56  78 105 138 195 238 278 328
#     4   9  22  39  58  83 110 152 193 241 280 332
#
# _framework density 21.662040999999999
#
# number of rings (size 3 to 8) (size 9 to 14) (size 15 to 20)
#    0.667    2.000    0.000    0.667    6.222    6.222 
#    0.000    0.000    0.000    0.000    0.000    0.000 
#    0.000   17.778    0.000    0.000    0.000    0.000 
#
# Total GULP energy -100406.868757 kJ/mol
# GULP energy per Si atom -5578.159375 kJ/mol
# Density = 2.161274 g / cm^3
# Si number density = 21.662041 Si / 1000 Ang^3
#
#
#
# Elastic Constant Matrix: (Units=GPa)
#
#
# Indices 1 2 3 4 5 6 
#
# 1 144.3714 9.8967 46.8547 0.0013 0.0006 -0.0005
# 2 9.8967 55.5998 9.4250 0.0007 0.0006 -0.0002
# 3 46.8547 9.4250 134.0980 0.0017 0.0025 -0.0004
# 4 0.0013 0.0007 0.0017 16.5681 0.0009 -0.0003
# 5 0.0006 0.0006 0.0025 0.0009 13.0689 -0.0004
# 6 -0.0005 -0.0002 -0.0004 -0.0003 -0.0004 10.9564
#
#
#
# Elastic Compliance Matrix: (Units=1/GPa)
#
#
# Indices 1 2 3 4 5 6 
#
# 1 0.007861 -0.000945 -0.002680 0.000000 0.000000 0.000000
# 2 -0.000945 0.018316 -0.000957 -0.000001 -0.000001 0.000000
# 3 -0.002680 -0.000957 0.008461 -0.000001 -0.000001 0.000000
# 4 0.000000 -0.000001 -0.000001 0.060357 -0.000004 0.000001
# 5 0.000000 -0.000001 -0.000001 -0.000004 0.076518 0.000003
# 6 0.000000 0.000000 0.000000 0.000001 0.000003 0.091271
#
#
# Mechanical properties :
#
#
# Convention : Reuss Voigt Hill
#
# Bulk Modulus (GPa) = 39.25650 51.82465 45.54057
# Shear Modulus (GPa) = 17.82915 25.97821 21.90368
#
# Velocity S-wave (km/s) = 2.87201 3.46678 3.18332
# Velocity P-wave (km/s) = 5.39996 6.32462 5.88049
#
# Compressibility (1/GPa) = 0.02547349
#
# Stress axis : x y z
#
# Youngs Moduli (GPa) = 127.20628 54.59673 118.18874
#
# Poissons Ratio (x) = 0.05159 0.31679
# Poissons Ratio (y) = 0.12020 0.11313
# Poissons Ratio (z) = 0.34096 0.05226
#
# Static dielectric constant tensor:
#      x y z
#    x 1.825080 0.000000 0.000000 
#    y 0.000000 1.883860 0.000000 
#    z 0.000000 0.000000 1.814960 
# 
# From -- ./inp_files/1390.got.cif
#   From: 2010.05.17/outbox.cif.g08.bks.cpg/sg42_1_cif.got.tgz:1390.got - 2010.06.03 19:03:34.
