data_PCOD9369128
_publ_section_title
;
Structure prediction by ZEFSAII (Michael W. Deem and Ramdas Pophale) SiO2 
 PCOD9369128
Probable space group: F M M 2
;
_chemical_formula_sum "Si O2"
_cell_formula_units_Z 80
_cell_length_a 17.883934
_cell_length_b 15.053776
_cell_length_c 15.307820
_cell_angle_alpha 90.000000
_cell_angle_beta 90.000000
_cell_angle_gamma 90.000000
_cell_volume 4121.182574
_symmetry_space_group_name_H-M "F M M 2"
_symmetry_group_IT_number 42
_symmetry_cell_setting 'orthorhombic'
loop_
_space_group_symop_operation_xyz
x,y,z
-x,-y,z
-x,y,z
x,-y,z
x,1/2+y,1/2+z
-x,1/2-y,1/2+z
-x,1/2+y,1/2+z
x,1/2-y,1/2+z
1/2+x,y,1/2+z
1/2-x,-y,1/2+z
1/2-x,y,1/2+z
1/2+x,-y,1/2+z
1/2+x,1/2+y,z
1/2-x,1/2-y,z
1/2-x,1/2+y,z
1/2+x,1/2-y,z
loop_
_atom_site_type_symbol
_atom_site_label
_atom_site_fract_x
_atom_site_fract_y
_atom_site_fract_z
Si Si1 0.828783 0.098331 0.069130
Si Si2 0.241412 0.144355 0.741766
Si Si3 0.413701 0.235770 0.466478
Si Si4 0.306058 0.099230 0.930940
Si Si5 0.915619 0.602630 0.301663
O O1 0.789336 0.106827 0.162350
O O2 0.863061 0.000000 0.060265
O O3 0.885076 0.177789 0.048110
O O4 0.763011 0.106951 0.997587
O O5 0.250000 0.250000 0.740948
O O6 0.273046 0.109865 0.833815
O O7 0.153717 0.119672 0.737504
O O8 0.500000 0.260109 0.475982
O O9 0.363087 0.321679 0.450573
O O10 0.406759 0.169849 0.382757
O O11 0.338354 0.000000 0.940451
O O12 0.910129 0.500000 0.331707
O O13 0.000000 0.614925 0.265853
#
# Coordination Sequence:
#
# PCOD9369128 Si02
#       5
#    16  16  16  16  16
#     4  11  23  39  63  95 125 162 214 262 313 376
#     4  12  21  38  64  93 131 169 211 256 315 379
#     4  11  22  40  62  88 124 164 207 260 319 375
#     4  11  22  40  62  89 125 165 214 264 313 376
#     4  10  20  36  61  91 121 156 202 257 313 366
#
# _framework density 19.411904
#
# number of rings (size 3 to 8) (size 9 to 14) (size 15 to 20)
#    0.000    1.000    4.000    4.200    0.000    1.600 
#    0.000    5.000    0.000    3.600    0.000    0.000 
#    0.000    0.000    0.000    0.000    0.000    0.000 
#
# Total GULP energy -111799.177114 kJ/mol
# GULP energy per Si atom -5589.958856 kJ/mol
# Density = 1.936772 g / cm^3
# Si number density = 19.411904 Si / 1000 Ang^3
#
#
#
# Elastic Constant Matrix: (Units=GPa)
#
#
# Indices 1 2 3 4 5 6 
#
# 1 81.5493 34.0309 -2.8417 0.0000 0.0000 0.0000
# 2 34.0309 132.0416 -9.5787 0.0000 0.0000 0.0000
# 3 -2.8417 -9.5787 65.8756 0.0000 0.0000 0.0000
# 4 0.0000 0.0000 0.0000 11.7829 0.0000 0.0000
# 5 0.0000 0.0000 0.0000 0.0000 24.7667 0.0000
# 6 0.0000 0.0000 0.0000 0.0000 0.0000 26.0212
#
#
#
# Elastic Compliance Matrix: (Units=1/GPa)
#
#
# Indices 1 2 3 4 5 6 
#
# 1 0.013741 -0.003536 0.000079 0.000000 0.000000 0.000000
# 2 -0.003536 0.008564 0.001093 0.000000 0.000000 0.000000
# 3 0.000079 0.001093 0.015342 0.000000 0.000000 0.000000
# 4 0.000000 0.000000 0.000000 0.084869 0.000000 0.000000
# 5 0.000000 0.000000 0.000000 0.000000 0.040377 0.000000
# 6 0.000000 0.000000 0.000000 0.000000 0.000000 0.038430
#
#
# Mechanical properties :
#
#
# Convention : Reuss Voigt Hill
#
# Bulk Modulus (GPa) = 30.37818 35.85416 33.11617
# Shear Modulus (GPa) = 23.03888 29.70456 26.37172
#
# Velocity S-wave (km/s) = 3.44880 3.91605 3.68983
# Velocity P-wave (km/s) = 5.61624 6.24160 5.93716
#
# Compressibility (1/GPa) = 0.03291837
#
# Stress axis : x y z
#
# Youngs Moduli (GPa) = 72.77643 116.76949 65.17885
#
# Poissons Ratio (x) = 0.41286 -0.00513
# Poissons Ratio (y) = 0.25731 -0.07122
# Poissons Ratio (z) = -0.00572 -0.12760
#
# Static dielectric constant tensor:
#      x y z
#    x 1.664300 0.000000 0.000000 
#    y 0.000000 1.697040 0.000000 
#    z 0.000000 0.000000 1.670960 
# 
# From -- ./inp_files/13799.got.cif
#   From: 2010.05.17/outbox.cif.g08.bks.cpg/sg42_7_cif.got.tgz:13799.got - 2010.06.03 19:03:34.
