data_PCOD9369047
_publ_section_title
;
Structure prediction by ZEFSAII (Michael W. Deem and Ramdas Pophale) SiO2 
 PCOD9369047
Probable space group: F M M 2
;
_chemical_formula_sum "Si O2"
_cell_formula_units_Z 104
_cell_length_a 15.097505
_cell_length_b 14.677878
_cell_length_c 21.483427
_cell_angle_alpha 90.000000
_cell_angle_beta 90.000000
_cell_angle_gamma 90.000000
_cell_volume 4760.713169
_symmetry_space_group_name_H-M "F M M 2"
_symmetry_group_IT_number 42
_symmetry_cell_setting 'orthorhombic'
loop_
_space_group_symop_operation_xyz
x,y,z
-x,-y,z
-x,y,z
x,-y,z
x,1/2+y,1/2+z
-x,1/2-y,1/2+z
-x,1/2+y,1/2+z
x,1/2-y,1/2+z
1/2+x,y,1/2+z
1/2-x,-y,1/2+z
1/2-x,y,1/2+z
1/2+x,-y,1/2+z
1/2+x,1/2+y,z
1/2-x,1/2-y,z
1/2-x,1/2+y,z
1/2+x,1/2-y,z
loop_
_atom_site_type_symbol
_atom_site_label
_atom_site_fract_x
_atom_site_fract_y
_atom_site_fract_z
Si Si1 0.274480 0.353784 0.903600
Si Si2 0.100731 0.889761 0.788526
Si Si3 0.209909 0.888861 0.667080
Si Si4 0.100647 0.151777 0.545598
Si Si5 0.096848 0.895295 0.156675
Si Si6 0.598296 0.637786 0.011172
Si Si7 0.345779 0.000000 0.942854
O O1 0.250000 0.250000 0.915340
O O2 0.340671 0.357077 0.845914
O O3 0.191669 0.419743 0.895674
O O4 0.325702 0.393017 0.964518
O O5 0.146254 0.863954 0.723655
O O6 0.000000 0.856985 0.792542
O O7 0.099801 0.000000 0.790953
O O8 0.169474 0.855577 0.602071
O O9 0.310214 0.854632 0.678637
O O10 0.213581 0.000000 0.663057
O O11 0.103538 0.253149 0.517781
O O12 0.122347 0.079294 0.492593
O O13 0.000000 0.136019 0.568985
O O14 0.105710 0.897385 0.081464
O O15 0.000000 0.852671 0.170194
O O16 0.093503 0.000000 0.178732
O O17 0.500000 0.613325 0.987486
#
# Coordination Sequence:
#
# PCOD9369047 Si02
#       7
#    16  16  16  16  16  16   8
#     4  12  24  41  62  88 123 167 216 262 310 371
#     4  10  22  42  65  92 122 161 213 264 312 372
#     4  10  20  35  63  92 122 162 204 256 315 373
#     4  11  22  38  60  92 129 164 203 256 316 379
#     4   9  19  35  58  90 128 164 204 253 314 380
#     4  10  22  37  57  89 125 159 202 256 313 373
#     4  12  23  38  61  90 124 164 205 252 317 378
#
# _framework density 21.845465999999998
#
# number of rings (size 3 to 8) (size 9 to 14) (size 15 to 20)
#    0.000    1.538    3.077    2.077    3.231    0.615 
#    2.769    0.000    0.000    2.769    0.000    0.000 
#    0.000    0.000    0.000    0.000    0.000    0.000 
#
# Total GULP energy -144839.397837 kJ/mol
# GULP energy per Si atom -5570.746071 kJ/mol
# Density = 2.179575 g / cm^3
# Si number density = 21.845466 Si / 1000 Ang^3
#
#
#
# Elastic Constant Matrix: (Units=GPa)
#
#
# Indices 1 2 3 4 5 6 
#
# 1 126.4056 11.7090 37.8081 0.0000 0.0000 0.0000
# 2 11.7090 96.8896 -5.3104 0.0000 0.0000 0.0000
# 3 37.8081 -5.3104 39.8775 0.0000 0.0000 0.0000
# 4 0.0000 0.0000 0.0000 10.7099 0.0000 0.0000
# 5 0.0000 0.0000 0.0000 0.0000 33.8565 0.0000
# 6 0.0000 0.0000 0.0000 0.0000 0.0000 -11.5885
#
#
#
# Elastic Compliance Matrix: (Units=1/GPa)
#
#
# Indices 1 2 3 4 5 6 
#
# 1 0.011410 -0.001986 -0.011082 0.000000 0.000000 0.000000
# 2 -0.001986 0.010743 0.003314 0.000000 0.000000 0.000000
# 3 -0.011082 0.003314 0.036025 0.000000 0.000000 0.000000
# 4 0.000000 0.000000 0.000000 0.093372 0.000000 0.000000
# 5 0.000000 0.000000 0.000000 0.000000 0.029536 0.000000
# 6 0.000000 0.000000 0.000000 0.000000 0.000000 -0.086292
#
#
# Mechanical properties :
#
#
# Convention : Reuss Voigt Hill
#
# Bulk Modulus (GPa) = 25.86097 39.06510 32.46303
# Shear Modulus (GPa) = 39.31059 21.19330 30.25195
#
# Velocity S-wave (km/s) = 4.24664 3.11810 3.72535
# Velocity P-wave (km/s) = 5.99242 5.55740 5.77900
#
# Compressibility (1/GPa) = 0.03866831
#
# Stress axis : x y z
#
# Youngs Moduli (GPa) = 87.64468 93.08656 27.75842
#
# Poissons Ratio (x) = 0.18489 0.30762
# Poissons Ratio (y) = 0.17408 -0.09198
# Poissons Ratio (z) = 0.97129 -0.30847
#
# Static dielectric constant tensor:
#      x y z
#    x 1.883560 0.000000 0.000000 
#    y 0.000000 1.819600 0.000000 
#    z 0.000000 0.000000 1.742740 
# 
# From -- ./inp_files/25291.got.cif
#   From: 2010.05.17/outbox.cif.g08.bks.cpg/sg42_13_cif.got.tgz:25291.got - 2010.06.03 19:03:34.
