data_PCOD9369066
_publ_section_title
;
Structure prediction by ZEFSAII (Michael W. Deem and Ramdas Pophale) SiO2 
 PCOD9369066
Probable space group: F M M 2
;
_chemical_formula_sum "Si O2"
_cell_formula_units_Z 80
_cell_length_a 10.485007
_cell_length_b 14.540791
_cell_length_c 27.458424
_cell_angle_alpha 90.000000
_cell_angle_beta 90.000000
_cell_angle_gamma 90.000000
_cell_volume 4186.319435
_symmetry_space_group_name_H-M "F M M 2"
_symmetry_group_IT_number 42
_symmetry_cell_setting 'orthorhombic'
loop_
_space_group_symop_operation_xyz
x,y,z
-x,-y,z
-x,y,z
x,-y,z
x,1/2+y,1/2+z
-x,1/2-y,1/2+z
-x,1/2+y,1/2+z
x,1/2-y,1/2+z
1/2+x,y,1/2+z
1/2-x,-y,1/2+z
1/2-x,y,1/2+z
1/2+x,-y,1/2+z
1/2+x,1/2+y,z
1/2-x,1/2-y,z
1/2-x,1/2+y,z
1/2+x,1/2-y,z
loop_
_atom_site_type_symbol
_atom_site_label
_atom_site_fract_x
_atom_site_fract_y
_atom_site_fract_z
Si Si1 0.000000 0.752796 0.093580
Si Si2 0.352574 0.612194 0.846028
Si Si3 0.000000 0.611444 0.007672
Si Si4 0.652072 0.390540 0.736017
Si Si5 0.746131 0.611220 0.446039
Si Si6 0.250000 0.250000 0.160079
Si Si7 0.500000 0.610142 0.005499
O O1 0.125481 0.756253 0.126595
O O2 0.000000 0.837282 0.056107
O O3 0.000000 0.662016 0.059433
O O4 0.500000 0.640259 0.854973
O O5 0.354119 0.500000 0.846192
O O6 0.314934 0.638861 0.791337
O O7 0.262862 0.642214 0.890303
O O8 0.123333 0.640425 0.976365
O O9 0.000000 0.500000 0.013384
O O10 0.500000 0.373026 0.729571
O O11 0.670748 0.500000 0.732079
O O12 0.730633 0.336535 0.695785
O O13 0.739495 0.500000 0.444427
O O14 0.874289 0.634860 0.475028
O O15 0.500000 0.500000 0.012198
#
# Coordination Sequence:
#
# PCOD9369066 Si02
#       7
#     8  16   8  16  16   8   8
#     4  12  26  40  58  80 114 154 202 254 304 340
#     4   8  13  27  57  90 114 146 189 228 279 352
#     4  10  22  38  55  81 119 159 194 232 289 356
#     4   9  19  38  64  90 118 157 199 237 294 368
#     4   9  16  31  57  86 115 148 186 230 283 348
#     4  12  24  42  60  86 116 152 204 264 300 338
#     4  10  20  36  57  81 107 143 192 240 289 346
#
# _framework density 19.109866
#
# number of rings (size 3 to 8) (size 9 to 14) (size 15 to 20)
#    0.000    2.400    2.000    2.400    0.000    1.600 
#    0.000    3.000    0.000    2.400    0.000    0.000 
#    0.000    0.000    0.000    0.000    0.000    0.000 
#
# Total GULP energy -111643.594819 kJ/mol
# GULP energy per Si atom -5582.179741 kJ/mol
# Density = 1.906637 g / cm^3
# Si number density = 19.109866 Si / 1000 Ang^3
#
#
#
# Elastic Constant Matrix: (Units=GPa)
#
#
# Indices 1 2 3 4 5 6 
#
# 1 141.3847 33.3791 96.3014 0.0000 0.0000 0.0000
# 2 33.3791 76.0418 50.6579 0.0000 0.0000 0.0000
# 3 96.3014 50.6579 185.5890 0.0000 0.0000 0.0000
# 4 0.0000 0.0000 0.0000 62.3578 0.0000 0.0000
# 5 0.0000 0.0000 0.0000 0.0000 36.1017 0.0000
# 6 0.0000 0.0000 0.0000 0.0000 0.0000 5.8046
#
#
#
# Elastic Compliance Matrix: (Units=1/GPa)
#
#
# Indices 1 2 3 4 5 6 
#
# 1 0.011037 -0.001258 -0.005384 0.000000 0.000000 0.000000
# 2 -0.001258 0.016217 -0.003774 0.000000 0.000000 0.000000
# 3 -0.005384 -0.003774 0.009212 0.000000 0.000000 0.000000
# 4 0.000000 0.000000 0.000000 0.016036 0.000000 0.000000
# 5 0.000000 0.000000 0.000000 0.000000 0.027700 0.000000
# 6 0.000000 0.000000 0.000000 0.000000 0.000000 0.172277
#
#
# Mechanical properties :
#
#
# Convention : Reuss Voigt Hill
#
# Bulk Modulus (GPa) = 63.96025 84.85472 74.40748
# Shear Modulus (GPa) = 17.95198 35.69796 26.82497
#
# Velocity S-wave (km/s) = 3.06830 4.32677 3.75069
# Velocity P-wave (km/s) = 6.78933 8.33434 7.60119
#
# Compressibility (1/GPa) = 0.01563471
#
# Stress axis : x y z
#
# Youngs Moduli (GPa) = 90.60560 61.66395 108.55674
#
# Poissons Ratio (x) = 0.07759 0.58442
# Poissons Ratio (y) = 0.11401 0.40965
# Poissons Ratio (z) = 0.48778 0.23270
#
# Static dielectric constant tensor:
#      x y z
#    x 1.641280 0.000000 0.000000 
#    y 0.000000 1.691460 0.000000 
#    z 0.000000 0.000000 1.654310 
# 
# From -- ./inp_files/29846.got.cif
#   From: 2010.05.17/outbox.cif.g08.bks.cpg/sg42_15_cif.got.tgz:29846.got - 2010.06.03 19:03:34.
