data_PCOD9369418
_publ_section_title
;
Structure prediction by ZEFSAII (Michael W. Deem and Ramdas Pophale) SiO2 
 PCOD9369418
Probable space group: F M M 2
;
_chemical_formula_sum "Si O2"
_cell_formula_units_Z 84
_cell_length_a 17.460693
_cell_length_b 14.334489
_cell_length_c 19.620388
_cell_angle_alpha 90.000000
_cell_angle_beta 90.000000
_cell_angle_gamma 90.000000
_cell_volume 4910.789105
_symmetry_space_group_name_H-M "F M M 2"
_symmetry_group_IT_number 42
_symmetry_cell_setting 'orthorhombic'
loop_
_space_group_symop_operation_xyz
x,y,z
-x,-y,z
-x,y,z
x,-y,z
x,1/2+y,1/2+z
-x,1/2-y,1/2+z
-x,1/2+y,1/2+z
x,1/2-y,1/2+z
1/2+x,y,1/2+z
1/2-x,-y,1/2+z
1/2-x,y,1/2+z
1/2+x,-y,1/2+z
1/2+x,1/2+y,z
1/2-x,1/2-y,z
1/2-x,1/2+y,z
1/2+x,1/2-y,z
loop_
_atom_site_type_symbol
_atom_site_label
_atom_site_fract_x
_atom_site_fract_y
_atom_site_fract_z
Si Si1 0.500000 0.500000 0.260031
Si Si2 0.408320 0.390721 0.518114
Si Si3 0.408320 0.890721 0.501947
Si Si4 0.084859 0.694178 0.760031
Si Si5 0.841141 0.240529 0.116417
Si Si6 0.841141 0.759471 0.403644
O O1 0.565495 0.583739 0.260031
O O2 0.500000 0.379386 0.511664
O O3 0.390976 0.500000 0.522889
O O4 0.378667 0.332365 0.582653
O O5 0.369094 0.343698 0.452429
O O6 0.500000 0.879386 0.508398
O O7 0.369094 0.843698 0.567633
O O8 0.378667 0.832365 0.437409
O O9 0.390976 0.000000 0.497172
O O10 0.129224 0.722540 0.692135
O O11 0.129224 0.722540 0.827926
O O12 0.000000 0.739759 0.760031
O O13 0.750000 0.250000 0.113765
O O14 0.750000 0.750000 0.406297
#
# Coordination Sequence:
#
# PCOD9369418 Si02
#       6
#     4  16  16  16  16  16
#     4   8  24  36  64  88 102 152 202 226 292 320
#     4  10  21  37  59  83 112 152 196 230 274 337
#     4  10  21  37  59  83 112 152 196 230 274 337
#     4  10  21  39  59  84 111 142 194 232 276 339
#     4  11  22  36  57  85 117 148 181 238 293 332
#     4  11  22  36  57  85 117 148 181 238 293 332
#
# _framework density 17.105194000000001
#
# number of rings (size 3 to 8) (size 9 to 14) (size 15 to 20)
#    0.571    1.143    0.000    7.429    2.667    3.048 
#    0.000    0.952    0.000    3.429    0.000    0.000 
#    0.000    0.000    0.000    0.000    0.000    0.000 
#
# Total GULP energy -116923.902035 kJ/mol
# GULP energy per Si atom -5567.804859 kJ/mol
# Density = 1.706626 g / cm^3
# Si number density = 17.105194 Si / 1000 Ang^3
#
#
#
# Elastic Constant Matrix: (Units=GPa)
#
#
# Indices 1 2 3 4 5 6 
#
# 1 141.7134 83.6943 75.1053 0.0000 0.0000 0.0000
# 2 83.6943 157.7102 91.8053 0.0000 0.0000 0.0000
# 3 75.1053 91.8053 174.8400 0.0000 0.0000 0.0000
# 4 0.0000 0.0000 0.0000 2.6089 0.0000 0.0000
# 5 0.0000 0.0000 0.0000 0.0000 39.6963 0.0000
# 6 0.0000 0.0000 0.0000 0.0000 0.0000 -24.5823
#
#
#
# Elastic Compliance Matrix: (Units=1/GPa)
#
#
# Indices 1 2 3 4 5 6 
#
# 1 0.010921 -0.004414 -0.002374 0.000000 0.000000 0.000000
# 2 -0.004414 0.010916 -0.003836 0.000000 0.000000 0.000000
# 3 -0.002374 -0.003836 0.008753 0.000000 0.000000 0.000000
# 4 0.000000 0.000000 0.000000 0.383308 0.000000 0.000000
# 5 0.000000 0.000000 0.000000 0.000000 0.025191 0.000000
# 6 0.000000 0.000000 0.000000 0.000000 0.000000 -0.040680
#
#
# Mechanical properties :
#
#
# Convention : Reuss Voigt Hill
#
# Bulk Modulus (GPa) = 107.02338 108.38594 107.70466
# Shear Modulus (GPa) = 11.82671 18.45515 15.14093
#
# Velocity S-wave (km/s) = 2.63232 3.28826 2.97840
# Velocity P-wave (km/s) = 8.48189 8.82716 8.65625
#
# Compressibility (1/GPa) = 0.00934375
#
# Stress axis : x y z
#
# Youngs Moduli (GPa) = 91.56333 91.60870 114.24348
#
# Poissons Ratio (x) = 0.40436 0.27118
# Poissons Ratio (y) = 0.40416 0.43820
# Poissons Ratio (z) = 0.21735 0.35138
#
# Static dielectric constant tensor:
#      x y z
#    x 1.576230 0.000000 0.000000 
#    y 0.000000 1.562090 0.000000 
#    z 0.000000 0.000000 1.562860 
# 
# From -- ./inp_files/24994.got.cif
#   From: 2010.05.17/outbox.cif.g08.bks.cpg/sg42_13_cif.got.tgz:24994.got - 2010.06.03 19:03:34.
