data_PCOD9369768
_publ_section_title
;
Structure prediction by ZEFSAII (Michael W. Deem and Ramdas Pophale) SiO2 
 PCOD9369768
Probable space group: F M M 2
;
_chemical_formula_sum "Si O2"
_cell_formula_units_Z 88
_cell_length_a 14.851632
_cell_length_b 15.095771
_cell_length_c 17.662663
_cell_angle_alpha 90.000000
_cell_angle_beta 90.000000
_cell_angle_gamma 90.000000
_cell_volume 3959.913154
_symmetry_space_group_name_H-M "F M M 2"
_symmetry_group_IT_number 42
_symmetry_cell_setting 'orthorhombic'
loop_
_space_group_symop_operation_xyz
x,y,z
-x,-y,z
-x,y,z
x,-y,z
x,1/2+y,1/2+z
-x,1/2-y,1/2+z
-x,1/2+y,1/2+z
x,1/2-y,1/2+z
1/2+x,y,1/2+z
1/2-x,-y,1/2+z
1/2-x,y,1/2+z
1/2+x,-y,1/2+z
1/2+x,1/2+y,z
1/2-x,1/2-y,z
1/2-x,1/2+y,z
1/2+x,1/2-y,z
loop_
_atom_site_type_symbol
_atom_site_label
_atom_site_fract_x
_atom_site_fract_y
_atom_site_fract_z
Si Si1 0.144843 0.600407 0.892630
Si Si2 0.348407 0.895751 0.446773
Si Si3 0.891651 0.210485 0.095905
Si Si4 0.145333 0.727480 0.758310
Si Si5 0.500000 0.663093 0.825095
Si Si6 0.396822 0.402814 0.566202
O O1 0.130384 0.500000 0.866001
O O2 0.250460 0.614374 0.909250
O O3 0.113622 0.669576 0.830408
O O4 0.101059 0.608678 0.975100
O O5 0.352907 0.843205 0.525455
O O6 0.421975 0.860986 0.388314
O O7 0.363321 0.000000 0.460694
O O8 0.870133 0.176501 0.179636
O O9 0.855089 0.311924 0.095539
O O10 0.000000 0.212735 0.085265
O O11 0.250000 0.750000 0.765736
O O12 0.079435 0.811223 0.763055
O O13 0.500000 0.406886 0.592943
O O14 0.354444 0.500000 0.581276
#
# Coordination Sequence:
#
# PCOD9369768 Si02
#       6
#    16  16  16  16   8  16
#     4  10  23  42  65  97 130 172 226 277 332 390
#     4  11  24  44  70 101 133 175 230 278 327 401
#     4  11  24  40  65  99 132 175 217 274 345 396
#     4  12  26  43  64  97 137 177 223 270 337 402
#     4  12  23  44  69  94 128 176 225 270 326 392
#     4   9  20  39  64  95 130 174 226 272 322 394
#
# _framework density 22.222708999999998
#
# number of rings (size 3 to 8) (size 9 to 14) (size 15 to 20)
#    0.000    1.273    3.636    1.364    6.364    0.727 
#    0.000    2.727    0.000    0.000    0.000    0.000 
#    0.000    0.000    0.000    0.000    0.000    0.000 
#
# Total GULP energy -122474.392489 kJ/mol
# GULP energy per Si atom -5567.017840 kJ/mol
# Density = 2.217213 g / cm^3
# Si number density = 22.222709 Si / 1000 Ang^3
#
#
#
# Elastic Constant Matrix: (Units=GPa)
#
#
# Indices 1 2 3 4 5 6 
#
# 1 93.8741 4.6686 -5.5525 0.0000 0.0000 0.0000
# 2 4.6686 75.4016 44.6056 0.0000 0.0000 0.0000
# 3 -5.5525 44.6056 78.9097 0.0000 0.0000 0.0000
# 4 0.0000 0.0000 0.0000 -3.0477 0.0000 0.0000
# 5 0.0000 0.0000 0.0000 0.0000 205.3857 0.0000
# 6 0.0000 0.0000 0.0000 0.0000 0.0000 -0.8324
#
#
#
# Elastic Compliance Matrix: (Units=1/GPa)
#
#
# Indices 1 2 3 4 5 6 
#
# 1 0.010838 -0.001686 0.001716 0.000000 0.000000 0.000000
# 2 -0.001686 0.020188 -0.011530 0.000000 0.000000 0.000000
# 3 0.001716 -0.011530 0.019311 0.000000 0.000000 0.000000
# 4 0.000000 0.000000 0.000000 -0.328115 0.000000 0.000000
# 5 0.000000 0.000000 0.000000 0.000000 0.004869 0.000000
# 6 0.000000 0.000000 0.000000 0.000000 0.000000 -1.201397
#
#
# Mechanical properties :
#
#
# Convention : Reuss Voigt Hill
#
# Bulk Modulus (GPa) = 36.58224 37.29208 36.93716
# Shear Modulus (GPa) = -3.46694 53.93203 25.23255
#
# Velocity S-wave (km/s) = -1.25039 4.93169 3.37328
# Velocity P-wave (km/s) = 3.79641 7.01757 5.64176
#
# Compressibility (1/GPa) = 0.02733567
#
# Stress axis : x y z
#
# Youngs Moduli (GPa) = 92.26881 49.53520 51.78359
#
# Poissons Ratio (x) = 0.08352 -0.08884
# Poissons Ratio (y) = 0.15556 0.59707
# Poissons Ratio (z) = -0.15830 0.57115
#
# Static dielectric constant tensor:
#      x y z
#    x 1.717590 0.000000 0.000000 
#    y 0.000000 1.885140 0.000000 
#    z 0.000000 0.000000 1.810200 
# 
# From -- ./inp_files/20695.got.cif
#   From: 2010.05.17/outbox.cif.g08.bks.cpg/sg42_11_cif.got.tgz:20695.got - 2010.06.03 19:03:34.
