data_PCOD9369146
_publ_section_title
;
Structure prediction by ZEFSAII (Michael W. Deem and Ramdas Pophale) SiO2 
 PCOD9369146
Probable space group: F M M 2
;
_chemical_formula_sum "Si O2"
_cell_formula_units_Z 104
_cell_length_a 25.101888
_cell_length_b 9.631112
_cell_length_c 19.404113
_cell_angle_alpha 90.000000
_cell_angle_beta 90.000000
_cell_angle_gamma 90.000000
_cell_volume 4691.120793
_symmetry_space_group_name_H-M "F M M 2"
_symmetry_group_IT_number 42
_symmetry_cell_setting 'orthorhombic'
loop_
_space_group_symop_operation_xyz
x,y,z
-x,-y,z
-x,y,z
x,-y,z
x,1/2+y,1/2+z
-x,1/2-y,1/2+z
-x,1/2+y,1/2+z
x,1/2-y,1/2+z
1/2+x,y,1/2+z
1/2-x,-y,1/2+z
1/2-x,y,1/2+z
1/2+x,-y,1/2+z
1/2+x,1/2+y,z
1/2-x,1/2-y,z
1/2-x,1/2+y,z
1/2+x,1/2-y,z
loop_
_atom_site_type_symbol
_atom_site_label
_atom_site_fract_x
_atom_site_fract_y
_atom_site_fract_z
Si Si1 0.904687 0.839992 0.888490
Si Si2 0.940460 0.838525 0.735081
Si Si3 0.746008 0.500000 0.752442
Si Si4 0.328361 0.158592 0.070820
Si Si5 0.324444 0.258604 0.213310
Si Si6 0.301552 0.835562 0.909915
Si Si7 0.941681 0.342166 0.011761
O O1 0.937605 0.839681 0.818420
O O2 0.853413 0.740299 0.880707
O O3 0.935635 0.771086 0.952118
O O4 0.888931 0.000000 0.903515
O O5 0.888558 0.749510 0.715566
O O6 0.000000 0.792809 0.714149
O O7 0.933346 0.000000 0.712102
O O8 0.699486 0.380094 0.746209
O O9 0.793162 0.381650 0.748108
O O10 0.310091 0.257965 0.131402
O O11 0.315326 0.000000 0.091586
O O12 0.307002 0.178230 0.993500
O O13 0.392127 0.172029 0.062423
O O14 0.250000 0.750000 0.888854
O O15 0.296486 0.000000 0.894496
O O16 0.936250 0.500000 0.982201
O O17 0.000000 0.332597 0.043817
#
# Coordination Sequence:
#
# PCOD9369146 Si02
#       7
#    16  16   8  16  16  16  16
#     4  10  20  37  56  83 112 150 197 238 293 348
#     4  10  21  39  64  89 117 152 200 249 294 356
#     4  10  24  38  64  82 120 156 198 240 286 362
#     4   9  18  32  56  83 115 147 191 234 283 352
#     4  11  21  42  59  92 116 156 197 241 300 348
#     4  10  21  36  55  84 117 152 193 238 290 350
#     4   9  18  34  55  82 113 149 192 238 289 347
#
# _framework density 22.169543000000001
#
# number of rings (size 3 to 8) (size 9 to 14) (size 15 to 20)
#    0.000    2.154    1.538    2.308    2.154    1.538 
#   11.077    1.923    0.000    0.000    0.000    0.000 
#    0.000    0.000    0.000    0.000    0.000    0.000 
#
# Total GULP energy -144802.918965 kJ/mol
# GULP energy per Si atom -5569.343037 kJ/mol
# Density = 2.211908 g / cm^3
# Si number density = 22.169543 Si / 1000 Ang^3
#
#
#
# Elastic Constant Matrix: (Units=GPa)
#
#
# Indices 1 2 3 4 5 6 
#
# 1 169.8229 45.4057 1.3362 0.0000 0.0000 0.0000
# 2 45.4057 138.2623 23.7433 0.0000 0.0000 0.0000
# 3 1.3362 23.7433 79.0337 0.0000 0.0000 0.0000
# 4 0.0000 0.0000 0.0000 13.5129 0.0000 0.0000
# 5 0.0000 0.0000 0.0000 0.0000 -16.8020 0.0000
# 6 0.0000 0.0000 0.0000 0.0000 0.0000 27.3806
#
#
#
# Elastic Compliance Matrix: (Units=1/GPa)
#
#
# Indices 1 2 3 4 5 6 
#
# 1 0.006479 -0.002223 0.000558 0.000000 0.000000 0.000000
# 2 -0.002223 0.008389 -0.002483 0.000000 0.000000 0.000000
# 3 0.000558 -0.002483 0.013389 0.000000 0.000000 0.000000
# 4 0.000000 0.000000 0.000000 0.074003 0.000000 0.000000
# 5 0.000000 0.000000 0.000000 0.000000 -0.059517 0.000000
# 6 0.000000 0.000000 0.000000 0.000000 0.000000 0.036522
#
#
# Mechanical properties :
#
#
# Convention : Reuss Voigt Hill
#
# Bulk Modulus (GPa) = 50.09630 58.67660 54.38645
# Shear Modulus (GPa) = 53.07001 25.92720 39.49860
#
# Velocity S-wave (km/s) = 4.89798 3.42350 4.22555
# Velocity P-wave (km/s) = 7.39141 6.49244 6.95646
#
# Compressibility (1/GPa) = 0.01996156
#
# Stress axis : x y z
#
# Youngs Moduli (GPa) = 154.35458 119.20127 74.68685
#
# Poissons Ratio (x) = 0.26504 -0.04171
# Poissons Ratio (y) = 0.34321 0.18542
# Poissons Ratio (z) = -0.08620 0.29594
#
# Static dielectric constant tensor:
#      x y z
#    x 1.836460 0.000000 0.000000 
#    y 0.000000 1.750760 0.000000 
#    z 0.000000 0.000000 1.890110 
# 
# From -- ./inp_files/27095.got.cif
#   From: 2010.05.17/outbox.cif.g08.bks.cpg/sg42_14_cif.got.tgz:27095.got - 2010.06.03 19:03:34.
