data_PCOD9369563
_publ_section_title
;
Structure prediction by ZEFSAII (Michael W. Deem and Ramdas Pophale) SiO2 
 PCOD9369563
Probable space group: F M M 2
;
_chemical_formula_sum "Si O2"
_cell_formula_units_Z 112
_cell_length_a 24.861823
_cell_length_b 14.878644
_cell_length_c 14.543916
_cell_angle_alpha 90.000000
_cell_angle_beta 90.000000
_cell_angle_gamma 90.000000
_cell_volume 5379.943074
_symmetry_space_group_name_H-M "F M M 2"
_symmetry_group_IT_number 42
_symmetry_cell_setting 'orthorhombic'
loop_
_space_group_symop_operation_xyz
x,y,z
-x,-y,z
-x,y,z
x,-y,z
x,1/2+y,1/2+z
-x,1/2-y,1/2+z
-x,1/2+y,1/2+z
x,1/2-y,1/2+z
1/2+x,y,1/2+z
1/2-x,-y,1/2+z
1/2-x,y,1/2+z
1/2+x,-y,1/2+z
1/2+x,1/2+y,z
1/2-x,1/2-y,z
1/2-x,1/2+y,z
1/2+x,1/2-y,z
loop_
_atom_site_type_symbol
_atom_site_label
_atom_site_fract_x
_atom_site_fract_y
_atom_site_fract_z
Si Si1 0.122539 0.754638 0.383900
Si Si2 0.254493 0.108979 0.094942
Si Si3 0.301710 0.896734 0.780314
Si Si4 0.124442 0.322871 0.088234
Si Si5 0.698619 0.101441 0.407460
Si Si6 0.934767 0.000000 0.296439
Si Si7 0.938802 0.805038 0.226316
Si Si8 0.565029 0.500000 0.516869
O O1 0.162348 0.826856 0.335888
O O2 0.120560 0.773218 0.490828
O O3 0.149171 0.658500 0.372580
O O4 0.067308 0.767228 0.329987
O O5 0.212905 0.129503 0.176596
O O6 0.313433 0.151218 0.107595
O O7 0.261546 0.000000 0.092354
O O8 0.227484 0.138159 0.999265
O O9 0.244342 0.898475 0.830764
O O10 0.322333 0.000000 0.784551
O O11 0.098778 0.257630 0.164192
O O12 0.090401 0.413678 0.068049
O O13 0.682018 0.000000 0.427991
O O14 0.921891 0.909444 0.238996
O O15 0.919123 0.000000 0.406415
O O16 0.000000 0.000000 0.302170
O O17 0.000000 0.801004 0.193622
O O18 0.500000 0.500000 0.521506
#
# Coordination Sequence:
#
# PCOD9369563 Si02
#       8
#    16  16  16  16  16   8  16   8
#     4  12  25  41  68  98 128 183 227 283 338 417
#     4  10  21  40  65  97 135 177 218 272 338 418
#     4  10  22  38  63  93 133 172 214 271 335 406
#     4  12  24  40  72 105 136 173 230 288 349 408
#     4  10  22  42  62  90 136 177 218 268 332 411
#     4   9  20  44  72  94 130 180 232 291 348 401
#     4  11  26  46  69 100 137 177 231 295 350 408
#     4  11  22  42  74 102 134 182 238 291 343 403
#
# _framework density 20.818065000000001
#
# number of rings (size 3 to 8) (size 9 to 14) (size 15 to 20)
#    0.000    1.286    3.571    1.714    4.000    0.571 
#    2.571    0.000    0.000    0.000    0.000    0.000 
#    0.000    0.000    0.000    0.000    0.000    0.000 
#
# Total GULP energy -156527.557524 kJ/mol
# GULP energy per Si atom -5590.269912 kJ/mol
# Density = 2.077068 g / cm^3
# Si number density = 20.818065 Si / 1000 Ang^3
#
#
#
# Elastic Constant Matrix: (Units=GPa)
#
#
# Indices 1 2 3 4 5 6 
#
# 1 50.6338 38.4257 -1.9957 0.0000 0.0000 0.0000
# 2 38.4257 110.9204 23.1755 0.0000 0.0000 0.0000
# 3 -1.9957 23.1755 60.0761 0.0000 0.0000 0.0000
# 4 0.0000 0.0000 0.0000 32.0482 0.0000 0.0000
# 5 0.0000 0.0000 0.0000 0.0000 28.6523 0.0000
# 6 0.0000 0.0000 0.0000 0.0000 0.0000 27.3211
#
#
#
# Elastic Compliance Matrix: (Units=1/GPa)
#
#
# Indices 1 2 3 4 5 6 
#
# 1 0.028167 -0.010826 0.005112 0.000000 0.000000 0.000000
# 2 -0.010826 0.013967 -0.005748 0.000000 0.000000 0.000000
# 3 0.005112 -0.005748 0.019033 0.000000 0.000000 0.000000
# 4 0.000000 0.000000 0.000000 0.031203 0.000000 0.000000
# 5 0.000000 0.000000 0.000000 0.000000 0.034901 0.000000
# 6 0.000000 0.000000 0.000000 0.000000 0.000000 0.036602
#
#
# Mechanical properties :
#
#
# Convention : Reuss Voigt Hill
#
# Bulk Modulus (GPa) = 26.14839 37.87123 32.00981
# Shear Modulus (GPa) = 25.05734 28.40599 26.73167
#
# Velocity S-wave (km/s) = 3.47311 3.69790 3.58727
# Velocity P-wave (km/s) = 5.35453 6.03852 5.70678
#
# Compressibility (1/GPa) = 0.03824328
#
# Stress axis : x y z
#
# Youngs Moduli (GPa) = 35.50289 71.59905 52.54147
#
# Poissons Ratio (x) = 0.77511 -0.26859
# Poissons Ratio (y) = 0.38435 0.30198
# Poissons Ratio (z) = -0.18149 0.41152
#
# Static dielectric constant tensor:
#      x y z
#    x 1.769680 0.000000 0.000000 
#    y 0.000000 1.777860 0.000000 
#    z 0.000000 0.000000 1.731750 
# 
# From -- ./inp_files/17095.got.cif
#   From: 2010.05.17/outbox.cif.g08.bks.cpg/sg42_9_cif.got.tgz:17095.got - 2010.06.03 19:03:34.
