data_PCOD9369281
_publ_section_title
;
Structure prediction by ZEFSAII (Michael W. Deem and Ramdas Pophale) SiO2 
 PCOD9369281
Probable space group: F M M 2
;
_chemical_formula_sum "Si O2"
_cell_formula_units_Z 116
_cell_length_a 22.463030
_cell_length_b 14.873801
_cell_length_c 17.388132
_cell_angle_alpha 90.000000
_cell_angle_beta 90.000000
_cell_angle_gamma 90.000000
_cell_volume 5809.559877
_symmetry_space_group_name_H-M "F M M 2"
_symmetry_group_IT_number 42
_symmetry_cell_setting 'orthorhombic'
loop_
_space_group_symop_operation_xyz
x,y,z
-x,-y,z
-x,y,z
x,-y,z
x,1/2+y,1/2+z
-x,1/2-y,1/2+z
-x,1/2+y,1/2+z
x,1/2-y,1/2+z
1/2+x,y,1/2+z
1/2-x,-y,1/2+z
1/2-x,y,1/2+z
1/2+x,-y,1/2+z
1/2+x,1/2+y,z
1/2-x,1/2-y,z
1/2-x,1/2+y,z
1/2+x,1/2-y,z
loop_
_atom_site_type_symbol
_atom_site_label
_atom_site_fract_x
_atom_site_fract_y
_atom_site_fract_z
Si Si1 0.358283 0.770044 0.159070
Si Si2 0.671727 0.394832 0.964072
Si Si3 0.709419 0.896421 0.043148
Si Si4 0.184817 0.106465 0.256033
Si Si5 0.500000 0.500000 0.402793
Si Si6 0.068746 0.707631 0.522445
Si Si7 0.112116 0.863682 0.412825
Si Si8 0.325635 0.393651 0.789351
O O1 0.313196 0.828663 0.107553
O O2 0.334123 0.674338 0.188634
O O3 0.414370 0.754019 0.103505
O O4 0.365349 0.832930 0.233605
O O5 0.683396 0.500000 0.956598
O O6 0.667112 0.362273 0.876912
O O7 0.729443 0.359575 0.007782
O O8 0.612808 0.375688 0.011658
O O9 0.716751 0.000000 0.072143
O O10 0.660309 0.898821 0.975416
O O11 0.147440 0.135060 0.332011
O O12 0.255423 0.117332 0.270507
O O13 0.173708 0.000000 0.241249
O O14 0.553248 0.423411 0.404329
O O15 0.088823 0.772845 0.453026
O O16 0.000000 0.685956 0.518252
O O17 0.339782 0.500000 0.782061
#
# Coordination Sequence:
#
# PCOD9369281 Si02
#       8
#    16  16  16  16   4  16  16  16
#     4  11  25  38  61  92 130 171 210 256 328 388
#     4  10  22  41  69  94 125 167 216 269 331 382
#     4  10  20  39  66  99 130 160 212 276 323 387
#     4  11  22  39  61  93 133 168 209 264 318 390
#     4  12  20  36  72 100 122 176 222 270 324 388
#     4  11  26  44  60  90 129 173 221 271 318 391
#     4  11  21  40  69  97 125 168 220 268 325 379
#     4  10  21  40  64  96 129 160 201 268 336 387
#
# _framework density 19.967089000000001
#
# number of rings (size 3 to 8) (size 9 to 14) (size 15 to 20)
#    0.000    1.379    3.448    1.655    3.862    2.483 
#    1.241    0.690    0.000    0.828    0.000    0.000 
#    0.000    0.000    0.000    0.000    0.000    0.000 
#
# Total GULP energy -161701.296784 kJ/mol
# GULP energy per Si atom -5575.906786 kJ/mol
# Density = 1.992164 g / cm^3
# Si number density = 19.967089 Si / 1000 Ang^3
#
#
#
# Elastic Constant Matrix: (Units=GPa)
#
#
# Indices 1 2 3 4 5 6 
#
# 1 93.2610 9.9463 33.5810 0.0000 0.0000 0.0000
# 2 9.9463 55.0236 37.2128 0.0000 0.0000 0.0000
# 3 33.5810 37.2128 99.7720 0.0000 0.0000 0.0000
# 4 0.0000 0.0000 0.0000 -5.4722 0.0000 0.0000
# 5 0.0000 0.0000 0.0000 0.0000 14.8046 0.0000
# 6 0.0000 0.0000 0.0000 0.0000 0.0000 28.0777
#
#
#
# Elastic Compliance Matrix: (Units=1/GPa)
#
#
# Indices 1 2 3 4 5 6 
#
# 1 0.012225 0.000766 -0.004401 0.000000 0.000000 0.000000
# 2 0.000766 0.024353 -0.009341 0.000000 0.000000 0.000000
# 3 -0.004401 -0.009341 0.014988 0.000000 0.000000 0.000000
# 4 0.000000 0.000000 0.000000 -0.182741 0.000000 0.000000
# 5 0.000000 0.000000 0.000000 0.000000 0.067547 0.000000
# 6 0.000000 0.000000 0.000000 0.000000 0.000000 0.035615
#
#
# Mechanical properties :
#
#
# Convention : Reuss Voigt Hill
#
# Bulk Modulus (GPa) = 39.03876 45.50409 42.27142
# Shear Modulus (GPa) = 771.95734 18.63643 395.29689
#
# Velocity S-wave (km/s) = 19.68386 3.05840 14.08560
# Velocity P-wave (km/s) = 23.15598 5.94229 16.90429
#
# Compressibility (1/GPa) = 0.02561557
#
# Stress axis : x y z
#
# Youngs Moduli (GPa) = 81.79678 41.06291 66.72020
#
# Poissons Ratio (x) = -0.03146 0.29361
# Poissons Ratio (y) = -0.06267 0.62323
# Poissons Ratio (z) = 0.35995 0.38357
#
# Static dielectric constant tensor:
#      x y z
#    x 1.649210 0.000000 0.000000 
#    y 0.000000 1.753040 0.000000 
#    z 0.000000 0.000000 1.742220 
# 
# From -- ./inp_files/22266.got.cif
#   From: 2010.05.17/outbox.cif.g08.bks.cpg/sg42_12_cif.got.tgz:22266.got - 2010.06.03 19:03:34.
