data_PCOD9369248
_publ_section_title
;
Structure prediction by ZEFSAII (Michael W. Deem and Ramdas Pophale) SiO2 
 PCOD9369248
Probable space group: F M M 2
;
_chemical_formula_sum "Si O2"
_cell_formula_units_Z 64
_cell_length_a 13.170042
_cell_length_b 17.451817
_cell_length_c 13.424876
_cell_angle_alpha 90.000000
_cell_angle_beta 90.000000
_cell_angle_gamma 90.000000
_cell_volume 3085.589111
_symmetry_space_group_name_H-M "F M M 2"
_symmetry_group_IT_number 42
_symmetry_cell_setting 'orthorhombic'
loop_
_space_group_symop_operation_xyz
x,y,z
-x,-y,z
-x,y,z
x,-y,z
x,1/2+y,1/2+z
-x,1/2-y,1/2+z
-x,1/2+y,1/2+z
x,1/2-y,1/2+z
1/2+x,y,1/2+z
1/2-x,-y,1/2+z
1/2-x,y,1/2+z
1/2+x,-y,1/2+z
1/2+x,1/2+y,z
1/2-x,1/2-y,z
1/2-x,1/2+y,z
1/2+x,1/2-y,z
loop_
_atom_site_type_symbol
_atom_site_label
_atom_site_fract_x
_atom_site_fract_y
_atom_site_fract_z
Si Si1 0.383935 0.000000 0.949390
Si Si2 0.383218 0.500000 0.688460
Si Si3 0.883111 0.725284 0.560064
Si Si4 0.233909 0.152840 0.685237
Si Si5 0.877866 0.166859 0.370983
O O1 0.346692 0.916961 0.913867
O O2 0.500000 0.000000 0.913516
O O3 0.384610 0.000000 0.068316
O O4 0.500000 0.500000 0.723578
O O5 0.321123 0.424596 0.715670
O O6 0.852141 0.790268 0.641529
O O7 0.811850 0.654389 0.590850
O O8 0.865670 0.766766 0.454134
O O9 0.000000 0.705072 0.567757
O O10 0.305297 0.177090 0.776883
O O11 0.000000 0.166142 0.347135
#
# Coordination Sequence:
#
# PCOD9369248 Si02
#       5
#     8   8  16  16  16
#     4   9  17  34  62  86 118 166 206 249 305 369
#     4  11  21  40  67  94 126 162 207 263 320 375
#     4  10  22  40  60  90 130 167 206 251 306 371
#     4  11  22  36  65  98 118 164 213 261 304 370
#     4  10  20  38  63  94 129 168 211 257 311 371
#
# _framework density 20.741584
#
# number of rings (size 3 to 8) (size 9 to 14) (size 15 to 20)
#    0.000    1.750    2.500    2.250    0.000    4.000 
#    0.000    1.875    0.000   10.500    0.000    0.000 
#    0.000    0.000    0.000    0.000    0.000    0.000 
#
# Total GULP energy -89142.531702 kJ/mol
# GULP energy per Si atom -5571.408231 kJ/mol
# Density = 2.069437 g / cm^3
# Si number density = 20.741584 Si / 1000 Ang^3
#
#
#
# Elastic Constant Matrix: (Units=GPa)
#
#
# Indices 1 2 3 4 5 6 
#
# 1 143.6160 53.0916 38.3614 0.0000 0.0000 0.0000
# 2 53.0916 49.9946 27.8674 0.0000 0.0000 0.0000
# 3 38.3614 27.8674 84.6072 0.0000 0.0000 0.0000
# 4 0.0000 0.0000 0.0000 27.9462 0.0000 0.0000
# 5 0.0000 0.0000 0.0000 0.0000 40.6593 0.0000
# 6 0.0000 0.0000 0.0000 0.0000 0.0000 38.1208
#
#
#
# Elastic Compliance Matrix: (Units=1/GPa)
#
#
# Indices 1 2 3 4 5 6 
#
# 1 0.011611 -0.011509 -0.001474 0.000000 0.000000 0.000000
# 2 -0.011509 0.035908 -0.006609 0.000000 0.000000 0.000000
# 3 -0.001474 -0.006609 0.014664 0.000000 0.000000 0.000000
# 4 0.000000 0.000000 0.000000 0.035783 0.000000 0.000000
# 5 0.000000 0.000000 0.000000 0.000000 0.024595 0.000000
# 6 0.000000 0.000000 0.000000 0.000000 0.000000 0.026232
#
#
# Mechanical properties :
#
#
# Convention : Reuss Voigt Hill
#
# Bulk Modulus (GPa) = 43.47803 57.42874 50.45338
# Shear Modulus (GPa) = 25.55659 31.93842 28.74751
#
# Velocity S-wave (km/s) = 3.51400 3.92832 3.72692
# Velocity P-wave (km/s) = 6.12140 6.95150 6.54962
#
# Compressibility (1/GPa) = 0.02300012
#
# Stress axis : x y z
#
# Youngs Moduli (GPa) = 86.12259 27.84889 68.19254
#
# Poissons Ratio (x) = 0.32052 0.10051
# Poissons Ratio (y) = 0.99119 0.45068
# Poissons Ratio (z) = 0.12693 0.18405
#
# Static dielectric constant tensor:
#      x y z
#    x 1.762870 0.000000 0.000000 
#    y 0.000000 1.838410 0.000000 
#    z 0.000000 0.000000 1.756960 
# 
# From -- ./inp_files/7533.got.cif
#   From: 2010.05.17/outbox.cif.g08.bks.cpg/sg42_4_cif.got.tgz:7533.got - 2010.06.03 19:03:34.
