data_PCOD9369308
_publ_section_title
;
Structure prediction by ZEFSAII (Michael W. Deem and Ramdas Pophale) SiO2 
 PCOD9369308
Probable space group: F M M 2
;
_chemical_formula_sum "Si O2"
_cell_formula_units_Z 64
_cell_length_a 14.731899
_cell_length_b 15.009810
_cell_length_c 12.396706
_cell_angle_alpha 90.000000
_cell_angle_beta 90.000000
_cell_angle_gamma 90.000000
_cell_volume 2741.196882
_symmetry_space_group_name_H-M "F M M 2"
_symmetry_group_IT_number 42
_symmetry_cell_setting 'orthorhombic'
loop_
_space_group_symop_operation_xyz
x,y,z
-x,-y,z
-x,y,z
x,-y,z
x,1/2+y,1/2+z
-x,1/2-y,1/2+z
-x,1/2+y,1/2+z
x,1/2-y,1/2+z
1/2+x,y,1/2+z
1/2-x,-y,1/2+z
1/2-x,y,1/2+z
1/2+x,-y,1/2+z
1/2+x,1/2+y,z
1/2-x,1/2-y,z
1/2-x,1/2+y,z
1/2+x,1/2-y,z
loop_
_atom_site_type_symbol
_atom_site_label
_atom_site_fract_x
_atom_site_fract_y
_atom_site_fract_z
Si Si1 0.393835 0.104912 0.629110
Si Si2 0.316993 0.833115 0.414331
Si Si3 0.000000 0.391643 0.042941
Si Si4 0.000000 0.110095 0.793638
Si Si5 0.637822 0.900457 0.865958
O O1 0.500000 0.107111 0.601395
O O2 0.339890 0.158941 0.540025
O O3 0.381981 0.141471 0.749916
O O4 0.365145 0.000000 0.625638
O O5 0.250000 0.750000 0.391424
O O6 0.409686 0.850004 0.349680
O O7 0.244095 0.907586 0.384007
O O8 0.000000 0.363336 0.166950
O O9 0.000000 0.500000 0.051065
O O10 0.085864 0.361618 0.969965
O O11 0.000000 0.000000 0.804314
O O12 0.599572 0.000000 0.855040
#
# Coordination Sequence:
#
# PCOD9369308 Si02
#       5
#    16  16   8   8  16
#     4  10  20  42  73 100 135 185 241 294 348 424
#     4  12  27  43  65 103 144 185 235 299 360 422
#     4   9  20  40  69 105 139 173 233 308 356 404
#     4  11  24  48  75 103 142 195 249 292 347 432
#     4  10  21  41  69 103 138 182 239 297 354 421
#
# _framework density 23.347466000000001
#
# number of rings (size 3 to 8) (size 9 to 14) (size 15 to 20)
#    0.000    1.500    2.500    2.250    3.500    2.000 
#    0.000    0.000    0.000    0.000    0.000    0.000 
#    0.000    0.000    0.000    0.000    0.000    0.000 
#
# Total GULP energy -89335.528753 kJ/mol
# GULP energy per Si atom -5583.470547 kJ/mol
# Density = 2.329433 g / cm^3
# Si number density = 23.347466 Si / 1000 Ang^3
#
#
#
# Elastic Constant Matrix: (Units=GPa)
#
#
# Indices 1 2 3 4 5 6 
#
# 1 198.5475 38.7473 94.5373 0.0000 0.0000 0.0000
# 2 38.7473 99.3743 40.5080 0.0000 0.0000 0.0000
# 3 94.5373 40.5080 199.2734 0.0000 0.0000 0.0000
# 4 0.0000 0.0000 0.0000 28.6356 0.0000 0.0000
# 5 0.0000 0.0000 0.0000 0.0000 40.7395 0.0000
# 6 0.0000 0.0000 0.0000 0.0000 0.0000 32.9803
#
#
#
# Elastic Compliance Matrix: (Units=1/GPa)
#
#
# Indices 1 2 3 4 5 6 
#
# 1 0.006688 -0.001433 -0.002882 0.000000 0.000000 0.000000
# 2 -0.001433 0.011279 -0.001613 0.000000 0.000000 0.000000
# 3 -0.002882 -0.001613 0.006713 0.000000 0.000000 0.000000
# 4 0.000000 0.000000 0.000000 0.034922 0.000000 0.000000
# 5 0.000000 0.000000 0.000000 0.000000 0.024546 0.000000
# 6 0.000000 0.000000 0.000000 0.000000 0.000000 0.030321
#
#
# Mechanical properties :
#
#
# Convention : Reuss Voigt Hill
#
# Bulk Modulus (GPa) = 77.97132 93.86449 85.91790
# Shear Modulus (GPa) = 38.28469 42.03123 40.15796
#
# Velocity S-wave (km/s) = 4.05381 4.24754 4.15180
# Velocity P-wave (km/s) = 7.44176 8.02159 7.73711
#
# Compressibility (1/GPa) = 0.01282523
#
# Stress axis : x y z
#
# Youngs Moduli (GPa) = 149.51308 88.65826 148.96017
#
# Poissons Ratio (x) = 0.12707 0.42926
# Poissons Ratio (y) = 0.21428 0.24026
# Poissons Ratio (z) = 0.43085 0.14300
#
# Static dielectric constant tensor:
#      x y z
#    x 1.871570 0.000000 0.000000 
#    y 0.000000 2.204700 0.000000 
#    z 0.000000 0.000000 1.861920 
# 
# From -- ./inp_files/7515.got.cif
#   From: 2010.05.17/outbox.cif.g08.bks.cpg/sg42_4_cif.got.tgz:7515.got - 2010.06.03 19:03:34.
