data_PCOD9369409
_publ_section_title
;
Structure prediction by ZEFSAII (Michael W. Deem and Ramdas Pophale) SiO2 
 PCOD9369409
Probable space group: F M M 2
;
_chemical_formula_sum "Si O2"
_cell_formula_units_Z 64
_cell_length_a 24.667604
_cell_length_b 23.926267
_cell_length_c 4.976934
_cell_angle_alpha 90.000000
_cell_angle_beta 90.000000
_cell_angle_gamma 90.000000
_cell_volume 2937.404760
_symmetry_space_group_name_H-M "F M M 2"
_symmetry_group_IT_number 42
_symmetry_cell_setting 'orthorhombic'
loop_
_space_group_symop_operation_xyz
x,y,z
-x,-y,z
-x,y,z
x,-y,z
x,1/2+y,1/2+z
-x,1/2-y,1/2+z
-x,1/2+y,1/2+z
x,1/2-y,1/2+z
1/2+x,y,1/2+z
1/2-x,-y,1/2+z
1/2-x,y,1/2+z
1/2+x,-y,1/2+z
1/2+x,1/2+y,z
1/2-x,1/2-y,z
1/2-x,1/2+y,z
1/2+x,1/2-y,z
loop_
_atom_site_type_symbol
_atom_site_label
_atom_site_fract_x
_atom_site_fract_y
_atom_site_fract_z
Si Si1 0.620341 0.788667 0.622970
Si Si2 0.000000 0.715224 0.512170
Si Si3 0.563425 0.434737 0.438691
Si Si4 0.131366 0.902652 0.924427
Si Si5 0.715092 0.000000 0.431387
O O1 0.627962 0.738022 0.413275
O O2 0.557569 0.809638 0.592715
O O3 0.652543 0.843246 0.533991
O O4 0.000000 0.728341 0.196236
O O5 0.500000 0.420176 0.422787
O O6 0.566972 0.500000 0.524748
O O7 0.593207 0.428865 0.154992
O O8 0.595514 0.397977 0.655648
O O9 0.179557 0.945569 0.870727
O O10 0.767364 0.000000 0.241153
#
# Coordination Sequence:
#
# PCOD9369409 Si02
#       5
#    16   8  16  16   8
#     4  10  21  37  57  88 127 173 212 247 296 366
#     4   8  16  30  48  75 116 161 206 230 264 334
#     4  11  22  37  59  94 136 170 207 250 309 387
#     4  12  23  42  66  91 130 170 213 261 321 374
#     4  12  26  46  71  94 119 154 216 282 342 384
#
# _framework density 21.787942000000001
#
# number of rings (size 3 to 8) (size 9 to 14) (size 15 to 20)
#    0.000    1.250    2.500    3.750    3.500    2.000 
#    4.500    0.000    0.000    4.500    0.000    0.000 
#    0.000    0.000    0.000    0.000    0.000    0.000 
#
# Total GULP energy -89465.998138 kJ/mol
# GULP energy per Si atom -5591.624884 kJ/mol
# Density = 2.173835 g / cm^3
# Si number density = 21.787942 Si / 1000 Ang^3
#
#
#
# Elastic Constant Matrix: (Units=GPa)
#
#
# Indices 1 2 3 4 5 6 
#
# 1 38.3477 11.5478 0.6771 -0.0359 0.0440 0.0168
# 2 11.5478 76.9015 -21.6520 0.1189 -0.1143 -0.0717
# 3 0.6771 -21.6520 82.0041 -0.0084 0.0543 0.0714
# 4 -0.0359 0.1189 -0.0084 30.1639 0.0804 0.0609
# 5 0.0440 -0.1143 0.0543 0.0804 29.4561 -0.0627
# 6 0.0168 -0.0717 0.0714 0.0609 -0.0627 4.2813
#
#
#
# Elastic Compliance Matrix: (Units=1/GPa)
#
#
# Indices 1 2 3 4 5 6 
#
# 1 0.027465 -0.004525 -0.001421 0.000051 -0.000056 -0.000161
# 2 -0.004525 0.014794 0.003943 -0.000063 0.000057 0.000202
# 3 -0.001421 0.003943 0.013248 -0.000013 -0.000007 -0.000149
# 4 0.000051 -0.000063 -0.000013 0.033154 -0.000092 -0.000474
# 5 -0.000056 0.000057 -0.000007 -0.000092 0.033950 0.000500
# 6 -0.000161 0.000202 -0.000149 -0.000474 0.000500 0.233597
#
#
# Mechanical properties :
#
#
# Convention : Reuss Voigt Hill
#
# Bulk Modulus (GPa) = 19.41721 19.82210 19.61966
# Shear Modulus (GPa) = 13.24925 26.55896 19.90410
#
# Velocity S-wave (km/s) = 2.46864 3.49517 3.02576
# Velocity P-wave (km/s) = 4.13000 5.04041 4.60775
#
# Compressibility (1/GPa) = 0.05150069
#
# Stress axis : x y z
#
# Youngs Moduli (GPa) = 36.40994 67.59639 75.48574
#
# Poissons Ratio (x) = 0.30585 0.10729
# Poissons Ratio (y) = 0.16474 -0.29766
# Poissons Ratio (z) = 0.05175 -0.26655
#
# Static dielectric constant tensor:
#      x y z
#    x 1.765600 0.000020 -0.000010 
#    y 0.000020 1.825820 -0.000050 
#    z -0.000010 -0.000050 1.764860 
# 
# From -- ./inp_files/732.got.cif
#   From: 2010.05.17/outbox.cif.g08.bks.cpg/sg42_1_cif.got.tgz:732.got - 2010.06.03 19:03:34.
