data_PCOD9369907
_publ_section_title
;
Structure prediction by ZEFSAII (Michael W. Deem and Ramdas Pophale) SiO2 
 PCOD9369907
Probable space group: F M M 2
;
_chemical_formula_sum "Si O2"
_cell_formula_units_Z 100
_cell_length_a 21.741962
_cell_length_b 16.409888
_cell_length_c 13.774731
_cell_angle_alpha 90.000000
_cell_angle_beta 90.000000
_cell_angle_gamma 90.000000
_cell_volume 4914.592073
_symmetry_space_group_name_H-M "F M M 2"
_symmetry_group_IT_number 42
_symmetry_cell_setting 'orthorhombic'
loop_
_space_group_symop_operation_xyz
x,y,z
-x,-y,z
-x,y,z
x,-y,z
x,1/2+y,1/2+z
-x,1/2-y,1/2+z
-x,1/2+y,1/2+z
x,1/2-y,1/2+z
1/2+x,y,1/2+z
1/2-x,-y,1/2+z
1/2-x,y,1/2+z
1/2+x,-y,1/2+z
1/2+x,1/2+y,z
1/2-x,1/2-y,z
1/2-x,1/2+y,z
1/2+x,1/2-y,z
loop_
_atom_site_type_symbol
_atom_site_label
_atom_site_fract_x
_atom_site_fract_y
_atom_site_fract_z
Si Si1 0.732969 0.844674 0.595170
Si Si2 0.624368 0.597483 0.816026
Si Si3 0.500000 0.000000 0.577169
Si Si4 0.099666 0.862547 0.030276
Si Si5 0.152949 0.907450 0.486471
Si Si6 0.737781 0.844090 0.820487
Si Si7 0.572291 0.688312 0.625295
O O1 0.750000 0.750000 0.571989
O O2 0.672492 0.876747 0.542833
O O3 0.792018 0.896116 0.564490
O O4 0.720035 0.848841 0.708612
O O5 0.609917 0.500000 0.806754
O O6 0.697894 0.608004 0.829440
O O7 0.605046 0.650119 0.721014
O O8 0.591820 0.634522 0.912636
O O9 0.554037 0.929485 0.571617
O O10 0.088643 0.779897 0.091589
O O11 0.183412 0.873393 0.389173
O O12 0.095553 0.861914 0.532204
O O13 0.137104 0.000000 0.472050
O O14 0.750000 0.750000 0.844725
O O15 0.500000 0.681564 0.640930
#
# Coordination Sequence:
#
# PCOD9369907 Si02
#       7
#    16  16   4  16  16  16  16
#     4  11  22  42  72 102 138 183 238 303 372 436
#     4  12  25  43  75 112 139 183 249 312 362 424
#     4  12  28  48  72 108 146 190 254 300 372 444
#     4  12  25  48  73 107 142 190 242 310 367 434
#     4  12  24  40  64 104 143 183 235 296 368 439
#     4  11  22  41  69 103 142 186 237 305 378 438
#     4  12  27  46  71 100 149 195 237 293 372 450
#
# _framework density 20.347569
#
# number of rings (size 3 to 8) (size 9 to 14) (size 15 to 20)
#    0.000    0.320    6.400    3.360    2.240    1.920 
#    0.000    0.000    1.760    0.000    0.000    0.000 
#    0.000    0.000    0.000    0.000    0.000    0.000 
#
# Total GULP energy -139414.679848 kJ/mol
# GULP energy per Si atom -5576.587194 kJ/mol
# Density = 2.030126 g / cm^3
# Si number density = 20.347569 Si / 1000 Ang^3
#
#
#
# Elastic Constant Matrix: (Units=GPa)
#
#
# Indices 1 2 3 4 5 6 
#
# 1 49.9314 -9.7720 1.7470 0.0000 0.0000 0.0000
# 2 -9.7720 106.3828 35.9675 0.0000 0.0000 0.0000
# 3 1.7470 35.9675 120.1391 0.0000 0.0000 0.0000
# 4 0.0000 0.0000 0.0000 -15.4057 0.0000 0.0000
# 5 0.0000 0.0000 0.0000 0.0000 13.0767 0.0000
# 6 0.0000 0.0000 0.0000 0.0000 0.0000 -54.6444
#
#
#
# Elastic Compliance Matrix: (Units=1/GPa)
#
#
# Indices 1 2 3 4 5 6 
#
# 1 0.020493 0.002207 -0.000959 0.000000 0.000000 0.000000
# 2 0.002207 0.010696 -0.003234 0.000000 0.000000 0.000000
# 3 -0.000959 -0.003234 0.009306 0.000000 0.000000 0.000000
# 4 0.000000 0.000000 0.000000 -0.064911 0.000000 0.000000
# 5 0.000000 0.000000 0.000000 0.000000 0.076472 0.000000
# 6 0.000000 0.000000 0.000000 0.000000 0.000000 -0.018300
#
#
# Mechanical properties :
#
#
# Convention : Reuss Voigt Hill
#
# Bulk Modulus (GPa) = 27.38065 36.92647 32.15356
# Shear Modulus (GPa) = 100.19480 5.17270 52.68375
#
# Velocity S-wave (km/s) = 7.02485 1.59615 5.09393
# Velocity P-wave (km/s) = 8.90414 4.64588 7.10169
#
# Compressibility (1/GPa) = 0.03652215
#
# Stress axis : x y z
#
# Youngs Moduli (GPa) = 48.79751 93.49101 107.45837
#
# Poissons Ratio (x) = -0.20629 0.10301
# Poissons Ratio (y) = -0.10767 0.34756
# Poissons Ratio (z) = 0.04678 0.30238
#
# Static dielectric constant tensor:
#      x y z
#    x 1.691280 0.000000 0.000000 
#    y 0.000000 1.728540 0.000000 
#    z 0.000000 0.000000 1.755730 
# 
# From -- ./inp_files/16521.got.cif
#   From: 2010.05.17/outbox.cif.g08.bks.cpg/sg42_9_cif.got.tgz:16521.got - 2010.06.03 19:03:34.
