data_PCOD9369847
_publ_section_title
;
Structure prediction by ZEFSAII (Michael W. Deem and Ramdas Pophale) SiO2 
 PCOD9369847
Probable space group: F M M 2
;
_chemical_formula_sum "Si O2"
_cell_formula_units_Z 112
_cell_length_a 14.776800
_cell_length_b 23.378641
_cell_length_c 13.521181
_cell_angle_alpha 90.000000
_cell_angle_beta 90.000000
_cell_angle_gamma 90.000000
_cell_volume 4671.047502
_symmetry_space_group_name_H-M "F M M 2"
_symmetry_group_IT_number 42
_symmetry_cell_setting 'orthorhombic'
loop_
_space_group_symop_operation_xyz
x,y,z
-x,-y,z
-x,y,z
x,-y,z
x,1/2+y,1/2+z
-x,1/2-y,1/2+z
-x,1/2+y,1/2+z
x,1/2-y,1/2+z
1/2+x,y,1/2+z
1/2-x,-y,1/2+z
1/2-x,y,1/2+z
1/2+x,-y,1/2+z
1/2+x,1/2+y,z
1/2-x,1/2-y,z
1/2-x,1/2+y,z
1/2+x,1/2-y,z
loop_
_atom_site_type_symbol
_atom_site_label
_atom_site_fract_x
_atom_site_fract_y
_atom_site_fract_z
Si Si1 0.105279 0.612920 0.550100
Si Si2 0.266901 0.066336 0.721040
Si Si3 0.647146 0.268364 0.142816
Si Si4 0.356452 0.756695 0.861008
Si Si5 0.891935 0.934793 0.414081
Si Si6 0.095825 0.837920 0.538949
Si Si7 0.602740 0.625165 0.824562
O O1 0.175850 0.584735 0.625251
O O2 0.116097 0.681312 0.571329
O O3 0.122292 0.599927 0.434690
O O4 0.000000 0.598057 0.571535
O O5 0.335411 0.072129 0.813875
O O6 0.179104 0.104596 0.747706
O O7 0.239738 0.000000 0.713565
O O8 0.750000 0.250000 0.124650
O O9 0.634824 0.287865 0.255244
O O10 0.604451 0.206478 0.126982
O O11 0.250000 0.750000 0.883477
O O12 0.400408 0.794044 0.946109
O O13 0.392984 0.693206 0.844609
O O14 0.850103 0.891295 0.495493
O O15 0.000000 0.924435 0.392503
O O16 0.883985 0.000000 0.448283
O O17 0.000000 0.866024 0.557482
O O18 0.500000 0.609363 0.797043
#
# Coordination Sequence:
#
# PCOD9369847 Si02
#       7
#    16  16  16  16  16  16  16
#     4  11  24  44  72 106 141 184 246 310 365 430
#     4  11  24  44  72 101 134 183 238 299 370 437
#     4  11  23  37  63  97 135 182 228 288 353 427
#     4  11  22  39  63  95 135 182 225 286 358 424
#     4   9  19  36  60  94 136 179 228 290 353 416
#     4  11  21  34  58  92 130 175 225 275 338 417
#     4  11  25  45  70 102 147 192 238 299 372 443
#
# _framework density 23.977492000000002
#
# number of rings (size 3 to 8) (size 9 to 14) (size 15 to 20)
#    0.000    1.286    1.429    5.143    2.000    5.143 
#    0.000    1.429    0.000    0.857    0.000    2.000 
#    0.000    0.000    0.000    0.000    0.000    0.000 
#
# Total GULP energy -156504.584980 kJ/mol
# GULP energy per Si atom -5589.449464 kJ/mol
# Density = 2.392292 g / cm^3
# Si number density = 23.977492 Si / 1000 Ang^3
#
#
#
# Elastic Constant Matrix: (Units=GPa)
#
#
# Indices 1 2 3 4 5 6 
#
# 1 118.2739 9.9659 21.3365 0.0000 0.0000 0.0000
# 2 9.9659 96.4899 4.2162 0.0000 0.0000 0.0000
# 3 21.3365 4.2162 103.7850 0.0000 0.0000 0.0000
# 4 0.0000 0.0000 0.0000 35.1574 0.0000 0.0000
# 5 0.0000 0.0000 0.0000 0.0000 56.0345 0.0000
# 6 0.0000 0.0000 0.0000 0.0000 0.0000 30.8074
#
#
#
# Elastic Compliance Matrix: (Units=1/GPa)
#
#
# Indices 1 2 3 4 5 6 
#
# 1 0.008847 -0.000836 -0.001785 0.000000 0.000000 0.000000
# 2 -0.000836 0.010461 -0.000253 0.000000 0.000000 0.000000
# 3 -0.001785 -0.000253 0.010013 0.000000 0.000000 0.000000
# 4 0.000000 0.000000 0.000000 0.028444 0.000000 0.000000
# 5 0.000000 0.000000 0.000000 0.000000 0.017846 0.000000
# 6 0.000000 0.000000 0.000000 0.000000 0.000000 0.032460
#
#
# Mechanical properties :
#
#
# Convention : Reuss Voigt Hill
#
# Bulk Modulus (GPa) = 42.42083 43.28734 42.85409
# Shear Modulus (GPa) = 41.09275 43.26855 42.18065
#
# Velocity S-wave (km/s) = 4.14430 4.25261 4.19880
# Velocity P-wave (km/s) = 6.37422 6.49657 6.43569
#
# Compressibility (1/GPa) = 0.02357332
#
# Stress axis : x y z
#
# Youngs Moduli (GPa) = 113.02786 95.59168 99.87479
#
# Poissons Ratio (x) = 0.07990 0.17827
# Poissons Ratio (y) = 0.09447 0.02528
# Poissons Ratio (z) = 0.20175 0.02420
#
# Static dielectric constant tensor:
#      x y z
#    x 1.897380 0.000000 0.000000 
#    y 0.000000 1.927020 0.000000 
#    z 0.000000 0.000000 1.938390 
# 
# From -- ./inp_files/14213.got.cif
#   From: 2010.05.17/outbox.cif.g08.bks.cpg/sg42_8_cif.got.tgz:14213.got - 2010.06.03 19:03:34.
