data_PCOD9369005
_publ_section_title
;
Structure prediction by ZEFSAII (Michael W. Deem and Ramdas Pophale) SiO2 
 PCOD9369005
Probable space group: F M M 2
;
_chemical_formula_sum "Si O2"
_cell_formula_units_Z 80
_cell_length_a 15.918687
_cell_length_b 8.595371
_cell_length_c 29.690101
_cell_angle_alpha 90.000000
_cell_angle_beta 90.000000
_cell_angle_gamma 90.000000
_cell_volume 4062.408061
_symmetry_space_group_name_H-M "F M M 2"
_symmetry_group_IT_number 42
_symmetry_cell_setting 'orthorhombic'
loop_
_space_group_symop_operation_xyz
x,y,z
-x,-y,z
-x,y,z
x,-y,z
x,1/2+y,1/2+z
-x,1/2-y,1/2+z
-x,1/2+y,1/2+z
x,1/2-y,1/2+z
1/2+x,y,1/2+z
1/2-x,-y,1/2+z
1/2-x,y,1/2+z
1/2+x,-y,1/2+z
1/2+x,1/2+y,z
1/2-x,1/2-y,z
1/2-x,1/2+y,z
1/2+x,1/2-y,z
loop_
_atom_site_type_symbol
_atom_site_label
_atom_site_fract_x
_atom_site_fract_y
_atom_site_fract_z
Si Si1 0.657024 0.316216 0.785050
Si Si2 0.597035 0.679524 0.375367
Si Si3 0.345252 0.185429 0.688485
Si Si4 0.000000 0.310488 0.026548
Si Si5 0.838351 0.688153 0.969976
Si Si6 0.000000 0.812716 0.630853
O O1 0.659875 0.500000 0.777638
O O2 0.750000 0.250000 0.793481
O O3 0.606297 0.274689 0.829721
O O4 0.627680 0.235739 0.739003
O O5 0.500000 0.677393 0.389847
O O6 0.622072 0.500000 0.365884
O O7 0.648308 0.740190 0.418172
O O8 0.250000 0.250000 0.681388
O O9 0.415692 0.251071 0.654974
O O10 0.341934 0.000000 0.685536
O O11 0.000000 0.500000 0.025516
O O12 0.000000 0.263919 0.078569
O O13 0.916579 0.259503 0.000210
O O14 0.838420 0.500000 0.969285
O O15 0.750000 0.750000 0.987228
O O16 0.000000 0.000000 0.633340
#
# Coordination Sequence:
#
# PCOD9369005 Si02
#       6
#    16  16  16   8  16   8
#     4  11  22  37  57  84 120 158 201 248 295 354
#     4  10  20  35  57  84 120 162 203 243 292 355
#     4  11  23  42  65  91 124 162 205 253 305 365
#     4   9  20  41  64  87 118 155 198 245 302 363
#     4  10  20  38  62  88 118 159 200 244 296 355
#     4  11  23  41  66  93 122 159 202 255 312 369
#
# _framework density 19.692753
#
# number of rings (size 3 to 8) (size 9 to 14) (size 15 to 20)
#    0.000    1.600    1.000    5.700    1.400    3.600 
#    0.000    4.500    0.000    0.000    0.000    0.000 
#    0.000    0.000    0.000    0.000    0.000    0.000 
#
# Total GULP energy -111742.337052 kJ/mol
# GULP energy per Si atom -5587.116853 kJ/mol
# Density = 1.964793 g / cm^3
# Si number density = 19.692753 Si / 1000 Ang^3
#
#
#
# Elastic Constant Matrix: (Units=GPa)
#
#
# Indices 1 2 3 4 5 6 
#
# 1 128.9134 31.2766 84.0555 0.0000 0.0000 0.0000
# 2 31.2766 93.5030 39.0805 0.0000 0.0000 0.0000
# 3 84.0555 39.0805 136.1769 0.0000 0.0000 0.0000
# 4 0.0000 0.0000 0.0000 19.5082 0.0000 0.0000
# 5 0.0000 0.0000 0.0000 0.0000 7.4961 0.0000
# 6 0.0000 0.0000 0.0000 0.0000 0.0000 29.0048
#
#
#
# Elastic Compliance Matrix: (Units=1/GPa)
#
#
# Indices 1 2 3 4 5 6 
#
# 1 0.013088 -0.001138 -0.007752 0.000000 0.000000 0.000000
# 2 -0.001138 0.012251 -0.002814 0.000000 0.000000 0.000000
# 3 -0.007752 -0.002814 0.012936 0.000000 0.000000 0.000000
# 4 0.000000 0.000000 0.000000 0.051261 0.000000 0.000000
# 5 0.000000 0.000000 0.000000 0.000000 0.133404 0.000000
# 6 0.000000 0.000000 0.000000 0.000000 0.000000 0.034477
#
#
# Mechanical properties :
#
#
# Convention : Reuss Voigt Hill
#
# Bulk Modulus (GPa) = 67.25777 74.15761 70.70769
# Shear Modulus (GPa) = 17.49605 24.81384 21.15495
#
# Velocity S-wave (km/s) = 2.98392 3.55357 3.28113
# Velocity P-wave (km/s) = 6.78966 7.38757 7.09491
#
# Compressibility (1/GPa) = 0.01486817
#
# Stress axis : x y z
#
# Youngs Moduli (GPa) = 76.40796 81.62308 77.30542
#
# Poissons Ratio (x) = 0.09287 0.59926
# Poissons Ratio (y) = 0.08694 0.21751
# Poissons Ratio (z) = 0.59230 0.22966
#
# Static dielectric constant tensor:
#      x y z
#    x 1.680930 0.000000 0.000000 
#    y 0.000000 1.677610 0.000000 
#    z 0.000000 0.000000 1.683910 
# 
# From -- ./inp_files/32771.got.cif
#   From: 2010.05.17/outbox.cif.g08.bks.cpg/sg42_17_cif.got.tgz:32771.got - 2010.06.03 19:03:34.
