data_PCOD9369672
_publ_section_title
;
Structure prediction by ZEFSAII (Michael W. Deem and Ramdas Pophale) SiO2 
 PCOD9369672
Probable space group: F M M 2
;
_chemical_formula_sum "Si O2"
_cell_formula_units_Z 112
_cell_length_a 13.446388
_cell_length_b 14.227757
_cell_length_c 24.440095
_cell_angle_alpha 90.000000
_cell_angle_beta 90.000000
_cell_angle_gamma 90.000000
_cell_volume 4675.682012
_symmetry_space_group_name_H-M "F M M 2"
_symmetry_group_IT_number 42
_symmetry_cell_setting 'orthorhombic'
loop_
_space_group_symop_operation_xyz
x,y,z
-x,-y,z
-x,y,z
x,-y,z
x,1/2+y,1/2+z
-x,1/2-y,1/2+z
-x,1/2+y,1/2+z
x,1/2-y,1/2+z
1/2+x,y,1/2+z
1/2-x,-y,1/2+z
1/2-x,y,1/2+z
1/2+x,-y,1/2+z
1/2+x,1/2+y,z
1/2-x,1/2-y,z
1/2-x,1/2+y,z
1/2+x,1/2-y,z
loop_
_atom_site_type_symbol
_atom_site_label
_atom_site_fract_x
_atom_site_fract_y
_atom_site_fract_z
Si Si1 0.607203 0.607924 0.879230
Si Si2 0.818122 0.105503 0.198139
Si Si3 0.115946 0.687286 0.163369
Si Si4 0.119302 0.891651 0.426114
Si Si5 0.879498 0.202373 0.539830
Si Si6 0.789222 0.848975 0.312996
Si Si7 0.621211 0.106121 0.498639
O O1 0.500000 0.648333 0.863694
O O2 0.593904 0.500000 0.895181
O O3 0.686388 0.606063 0.832038
O O4 0.642483 0.646848 0.937530
O O5 0.867367 0.199612 0.172300
O O6 0.699546 0.128305 0.195358
O O7 0.845242 0.105089 0.262792
O O8 0.839067 0.000000 0.175821
O O9 0.138423 0.663125 0.099898
O O10 0.000000 0.666714 0.175811
O O11 0.152647 0.852692 0.485156
O O12 0.152335 0.840306 0.370298
O O13 0.000000 0.891199 0.426799
O O14 0.153904 0.000000 0.420109
O O15 0.844926 0.311090 0.538380
O O16 0.000000 0.205257 0.535469
O O17 0.750000 0.750000 0.292357
O O18 0.500000 0.101542 0.501092
O O19 0.657909 0.000000 0.508689
#
# Coordination Sequence:
#
# PCOD9369672 Si02
#       7
#    16  16  16  16  16  16  16
#     4   9  18  33  54  84 122 160 203 253 307 379
#     4  11  25  47  68  96 137 177 229 292 340 396
#     4  10  23  46  71  97 131 178 232 284 340 398
#     4  10  22  40  64  98 135 171 215 266 327 404
#     4   9  18  36  63  91 125 166 214 272 330 392
#     4  12  23  40  63  90 130 176 213 270 334 397
#     4   8  14  27  49  82 122 156 192 247 312 380
#
# _framework density 23.953724999999999
#
# number of rings (size 3 to 8) (size 9 to 14) (size 15 to 20)
#    0.000    2.143    1.429    3.000    0.000    4.571 
#    7.714    2.857    0.000    0.000    0.000    0.000 
#    0.000    0.000    0.000    0.000    0.000    0.000 
#
# Total GULP energy -156270.076006 kJ/mol
# GULP energy per Si atom -5581.074143 kJ/mol
# Density = 2.389921 g / cm^3
# Si number density = 23.953725 Si / 1000 Ang^3
#
#
#
# Elastic Constant Matrix: (Units=GPa)
#
#
# Indices 1 2 3 4 5 6 
#
# 1 75.7532 -18.9854 8.7064 0.0000 0.0000 0.0000
# 2 -18.9854 66.5617 1.6778 0.0000 0.0000 0.0000
# 3 8.7064 1.6778 101.3259 0.0000 0.0000 0.0000
# 4 0.0000 0.0000 0.0000 40.7597 0.0000 0.0000
# 5 0.0000 0.0000 0.0000 0.0000 20.1027 0.0000
# 6 0.0000 0.0000 0.0000 0.0000 0.0000 19.8337
#
#
#
# Elastic Compliance Matrix: (Units=1/GPa)
#
#
# Indices 1 2 3 4 5 6 
#
# 1 0.014387 0.004137 -0.001305 0.000000 0.000000 0.000000
# 2 0.004137 0.016219 -0.000624 0.000000 0.000000 0.000000
# 3 -0.001305 -0.000624 0.009992 0.000000 0.000000 0.000000
# 4 0.000000 0.000000 0.000000 0.024534 0.000000 0.000000
# 5 0.000000 0.000000 0.000000 0.000000 0.049745 0.000000
# 6 0.000000 0.000000 0.000000 0.000000 0.000000 0.050419
#
#
# Mechanical properties :
#
#
# Convention : Reuss Voigt Hill
#
# Bulk Modulus (GPa) = 22.21528 25.15982 23.68755
# Shear Modulus (GPa) = 28.42764 32.95534 30.69149
#
# Velocity S-wave (km/s) = 3.44869 3.71319 3.58338
# Velocity P-wave (km/s) = 5.01521 5.37680 5.19915
#
# Compressibility (1/GPa) = 0.04501407
#
# Stress axis : x y z
#
# Youngs Moduli (GPa) = 69.50505 61.65506 100.08424
#
# Poissons Ratio (x) = -0.25504 0.13058
# Poissons Ratio (y) = -0.28752 0.06245
# Poissons Ratio (z) = 0.09069 0.03847
#
# Static dielectric constant tensor:
#      x y z
#    x 1.955320 0.000000 0.000000 
#    y 0.000000 1.909400 0.000000 
#    z 0.000000 0.000000 1.899730 
# 
# From -- ./inp_files/29505.got.cif
#   From: 2010.05.17/outbox.cif.g08.bks.cpg/sg42_15_cif.got.tgz:29505.got - 2010.06.03 19:03:34.
