data_PCOD9369451
_publ_section_title
;
Structure prediction by ZEFSAII (Michael W. Deem and Ramdas Pophale) SiO2 
 PCOD9369451
Probable space group: F M M 2
;
_chemical_formula_sum "Si O2"
_cell_formula_units_Z 80
_cell_length_a 11.264928
_cell_length_b 13.685592
_cell_length_c 23.702353
_cell_angle_alpha 90.000000
_cell_angle_beta 90.000000
_cell_angle_gamma 90.000000
_cell_volume 3654.125597
_symmetry_space_group_name_H-M "F M M 2"
_symmetry_group_IT_number 42
_symmetry_cell_setting 'orthorhombic'
loop_
_space_group_symop_operation_xyz
x,y,z
-x,-y,z
-x,y,z
x,-y,z
x,1/2+y,1/2+z
-x,1/2-y,1/2+z
-x,1/2+y,1/2+z
x,1/2-y,1/2+z
1/2+x,y,1/2+z
1/2-x,-y,1/2+z
1/2-x,y,1/2+z
1/2+x,-y,1/2+z
1/2+x,1/2+y,z
1/2-x,1/2-y,z
1/2-x,1/2+y,z
1/2+x,1/2-y,z
loop_
_atom_site_type_symbol
_atom_site_label
_atom_site_fract_x
_atom_site_fract_y
_atom_site_fract_z
Si Si1 0.125514 0.715163 0.990830
Si Si2 0.860886 0.500000 0.784128
Si Si3 0.681326 0.500000 0.878050
Si Si4 0.705254 0.000000 0.995677
Si Si5 0.865900 0.000000 0.104237
Si Si6 0.142608 0.829771 0.196304
Si Si7 0.875766 0.716907 0.359953
O O1 0.250000 0.750000 0.017053
O O2 0.132066 0.598774 0.989944
O O3 0.125685 0.751333 0.925859
O O4 0.000000 0.748361 0.016739
O O5 0.806597 0.500000 0.846024
O O6 0.829516 0.596613 0.748347
O O7 0.000000 0.500000 0.788523
O O8 0.700003 0.500000 0.944728
O O9 0.623119 0.399755 0.859411
O O10 0.772432 0.000000 0.054517
O O11 0.852059 0.903657 0.142935
O O12 0.000000 0.000000 0.081354
O O13 0.250000 0.750000 0.193020
O O14 0.000000 0.797805 0.199732
O O15 0.750000 0.750000 0.335704
O O16 0.000000 0.755003 0.335123
#
# Coordination Sequence:
#
# PCOD9369451 Si02
#       7
#    16   8   8   8   8  16  16
#     4  10  21  38  55  78 114 165 217 259 302 361
#     4   9  22  41  68  97 129 172 220 265 330 399
#     4  12  22  38  58  91 130 176 211 261 310 381
#     4  12  22  38  58  91 130 176 211 261 310 381
#     4   9  22  41  68  97 129 172 220 265 330 399
#     4   9  19  45  74 100 128 163 215 279 336 392
#     4  10  21  38  55  78 114 165 217 259 302 361
#
# _framework density 21.893062
#
# number of rings (size 3 to 8) (size 9 to 14) (size 15 to 20)
#    0.000    2.000    4.000    1.800    0.000    4.800 
#    0.000   10.000    0.000    0.000    0.000    0.000 
#    0.000    0.000    0.000    0.000    0.000    0.000 
#
# Total GULP energy -111600.760682 kJ/mol
# GULP energy per Si atom -5580.038034 kJ/mol
# Density = 2.184323 g / cm^3
# Si number density = 21.893062 Si / 1000 Ang^3
#
#
#
# Elastic Constant Matrix: (Units=GPa)
#
#
# Indices 1 2 3 4 5 6 
#
# 1 194.3082 77.6972 9.1956 0.0000 0.0000 0.0000
# 2 77.6972 139.6080 14.6688 0.0000 0.0000 0.0000
# 3 9.1956 14.6688 50.5495 0.0000 0.0000 0.0000
# 4 0.0000 0.0000 0.0000 13.2005 0.0000 0.0000
# 5 0.0000 0.0000 0.0000 0.0000 -314.5323 0.0000
# 6 0.0000 0.0000 0.0000 0.0000 0.0000 75.6836
#
#
#
# Elastic Compliance Matrix: (Units=1/GPa)
#
#
# Indices 1 2 3 4 5 6 
#
# 1 0.006621 -0.003670 -0.000139 0.000000 0.000000 0.000000
# 2 -0.003670 0.009423 -0.002067 0.000000 0.000000 0.000000
# 3 -0.000139 -0.002067 0.020408 0.000000 0.000000 0.000000
# 4 0.000000 0.000000 0.000000 0.075755 0.000000 0.000000
# 5 0.000000 0.000000 0.000000 0.000000 -0.003179 0.000000
# 6 0.000000 0.000000 0.000000 0.000000 0.000000 0.013213
#
#
# Mechanical properties :
#
#
# Convention : Reuss Voigt Hill
#
# Bulk Modulus (GPa) = 40.48798 65.28767 52.88782
# Shear Modulus (GPa) = 35.15578 -26.26938 4.44320
#
# Velocity S-wave (km/s) = 4.01158 -3.46771 1.42615
# Velocity P-wave (km/s) = 6.32382 3.72190 5.18861
#
# Compressibility (1/GPa) = 0.02469869
#
# Stress axis : x y z
#
# Youngs Moduli (GPa) = 151.04510 106.12873 49.00121
#
# Poissons Ratio (x) = 0.38949 0.00683
# Poissons Ratio (y) = 0.55433 0.10127
# Poissons Ratio (z) = 0.02106 0.21933
#
# Static dielectric constant tensor:
#      x y z
#    x 1.960130 0.000000 0.000000 
#    y 0.000000 1.815450 0.000000 
#    z 0.000000 0.000000 1.750280 
# 
# From -- ./inp_files/32074.got.cif
#   From: 2010.05.17/outbox.cif.g08.bks.cpg/sg42_17_cif.got.tgz:32074.got - 2010.06.03 19:03:34.
