data_PCOD9369422
_publ_section_title
;
Structure prediction by ZEFSAII (Michael W. Deem and Ramdas Pophale) SiO2 
 PCOD9369422
Probable space group: F M M 2
;
_chemical_formula_sum "Si O2"
_cell_formula_units_Z 116
_cell_length_a 9.163439
_cell_length_b 26.879093
_cell_length_c 25.945894
_cell_angle_alpha 90.000000
_cell_angle_beta 90.000000
_cell_angle_gamma 90.000000
_cell_volume 6390.601582
_symmetry_space_group_name_H-M "F M M 2"
_symmetry_group_IT_number 42
_symmetry_cell_setting 'orthorhombic'
loop_
_space_group_symop_operation_xyz
x,y,z
-x,-y,z
-x,y,z
x,-y,z
x,1/2+y,1/2+z
-x,1/2-y,1/2+z
-x,1/2+y,1/2+z
x,1/2-y,1/2+z
1/2+x,y,1/2+z
1/2-x,-y,1/2+z
1/2-x,y,1/2+z
1/2+x,-y,1/2+z
1/2+x,1/2+y,z
1/2-x,1/2-y,z
1/2-x,1/2+y,z
1/2+x,1/2-y,z
loop_
_atom_site_type_symbol
_atom_site_label
_atom_site_fract_x
_atom_site_fract_y
_atom_site_fract_z
Si Si1 0.171640 0.607342 0.145580
Si Si2 0.674740 0.699245 0.190833
Si Si3 0.328903 0.700000 0.801633
Si Si4 0.657869 0.941023 0.733603
Si Si5 0.834567 0.559221 0.949347
Si Si6 0.735476 0.092033 0.340469
Si Si7 0.000000 0.500000 0.338121
Si Si8 0.332946 0.060004 0.550577
O O1 0.267766 0.656246 0.153979
O O2 0.212682 0.575100 0.196121
O O3 0.227227 0.579912 0.094716
O O4 0.000000 0.617483 0.144261
O O5 0.500000 0.702015 0.193419
O O6 0.750000 0.750000 0.173212
O O7 0.744292 0.690235 0.247673
O O8 0.500000 0.710926 0.791478
O O9 0.250000 0.750000 0.823375
O O10 0.322005 0.648615 0.833742
O O11 0.500000 0.927469 0.709716
O O12 0.668595 0.916955 0.789559
O O13 0.662613 0.000000 0.739474
O O14 0.812695 0.500000 0.940251
O O15 0.812564 0.586592 0.895424
O O16 0.000000 0.565818 0.968145
O O17 0.723272 0.574962 0.993940
O O18 0.624123 0.045180 0.338482
O O19 0.500000 0.075713 0.559231
O O20 0.329031 0.000000 0.552198
#
# Coordination Sequence:
#
# PCOD9369422 Si02
#       8
#    16  16  16  16  16  16   4  16
#     4  12  24  37  57  83 116 154 196 242 300 364
#     4  11  22  38  60  84 114 152 199 252 303 360
#     4  11  23  38  58  86 121 165 211 255 304 367
#     4  11  23  36  53  81 119 157 196 242 302 368
#     4  10  21  37  59  86 118 155 200 248 303 368
#     4  12  23  36  61  87 127 161 206 250 317 371
#     4  12  24  36  58  96 128 164 206 266 316 382
#     4  10  22  39  60  84 116 156 201 249 302 366
#
# _framework density 18.151657
#
# number of rings (size 3 to 8) (size 9 to 14) (size 15 to 20)
#    0.000    0.966    3.448    4.966    1.931    5.517 
#    0.000    0.000    0.000    0.828    0.000    1.931 
#    0.000    0.000    0.000    0.000    0.000    0.000 
#
# Total GULP energy -161572.579947 kJ/mol
# GULP energy per Si atom -5571.468274 kJ/mol
# Density = 1.811034 g / cm^3
# Si number density = 18.151657 Si / 1000 Ang^3
#
#
#
# Elastic Constant Matrix: (Units=GPa)
#
#
# Indices 1 2 3 4 5 6 
#
# 1 145.6147 39.2783 29.6298 0.0000 0.0000 0.0000
# 2 39.2783 99.6112 21.2189 0.0000 0.0000 0.0000
# 3 29.6298 21.2189 77.4491 0.0000 0.0000 0.0000
# 4 0.0000 0.0000 0.0000 5.4162 0.0000 0.0000
# 5 0.0000 0.0000 0.0000 0.0000 -23.9729 0.0000
# 6 0.0000 0.0000 0.0000 0.0000 0.0000 25.6839
#
#
#
# Elastic Compliance Matrix: (Units=1/GPa)
#
#
# Indices 1 2 3 4 5 6 
#
# 1 0.008069 -0.002681 -0.002353 0.000000 0.000000 0.000000
# 2 -0.002681 0.011552 -0.002139 0.000000 0.000000 0.000000
# 3 -0.002353 -0.002139 0.014398 0.000000 0.000000 0.000000
# 4 0.000000 0.000000 0.000000 0.184633 0.000000 0.000000
# 5 0.000000 0.000000 0.000000 0.000000 -0.041714 0.000000
# 6 0.000000 0.000000 0.000000 0.000000 0.000000 0.038935
#
#
# Mechanical properties :
#
#
# Convention : Reuss Voigt Hill
#
# Bulk Modulus (GPa) = 50.82940 55.88098 53.35519
# Shear Modulus (GPa) = 21.11702 16.92864 19.02283
#
# Velocity S-wave (km/s) = 3.41452 3.05720 3.24079
# Velocity P-wave (km/s) = 6.60368 6.58137 6.59253
#
# Compressibility (1/GPa) = 0.01967365
#
# Stress axis : x y z
#
# Youngs Moduli (GPa) = 123.92738 86.56673 69.45471
#
# Poissons Ratio (x) = 0.23206 0.16340
# Poissons Ratio (y) = 0.33221 0.14859
# Poissons Ratio (z) = 0.29155 0.18519
#
# Static dielectric constant tensor:
#      x y z
#    x 1.642850 0.000000 0.000000 
#    y 0.000000 1.657240 0.000000 
#    z 0.000000 0.000000 1.614160 
# 
# From -- ./inp_files/28342.got.cif
#   From: 2010.05.17/outbox.cif.g08.bks.cpg/sg42_15_cif.got.tgz:28342.got - 2010.06.03 19:03:34.
