data_PCOD9369375
_publ_section_title
;
Structure prediction by ZEFSAII (Michael W. Deem and Ramdas Pophale) SiO2 
 PCOD9369375
Probable space group: F M M 2
;
_chemical_formula_sum "Si O2"
_cell_formula_units_Z 128
_cell_length_a 19.648701
_cell_length_b 19.257440
_cell_length_c 19.641985
_cell_angle_alpha 90.000000
_cell_angle_beta 90.000000
_cell_angle_gamma 90.000000
_cell_volume 7432.206578
_symmetry_space_group_name_H-M "F M M 2"
_symmetry_group_IT_number 42
_symmetry_cell_setting 'orthorhombic'
loop_
_space_group_symop_operation_xyz
x,y,z
-x,-y,z
-x,y,z
x,-y,z
x,1/2+y,1/2+z
-x,1/2-y,1/2+z
-x,1/2+y,1/2+z
x,1/2-y,1/2+z
1/2+x,y,1/2+z
1/2-x,-y,1/2+z
1/2-x,y,1/2+z
1/2+x,-y,1/2+z
1/2+x,1/2+y,z
1/2-x,1/2-y,z
1/2-x,1/2+y,z
1/2+x,1/2-y,z
loop_
_atom_site_type_symbol
_atom_site_label
_atom_site_fract_x
_atom_site_fract_y
_atom_site_fract_z
Si Si1 0.791409 0.820471 0.411820
Si Si2 0.808802 0.581963 0.781692
Si Si3 0.802300 0.419795 0.164732
Si Si4 0.076350 0.271636 0.989133
Si Si5 0.272424 0.077570 0.521689
Si Si6 0.579765 0.688793 0.647639
Si Si7 0.424677 0.386072 0.035913
Si Si8 0.922492 0.157024 0.194004
O O1 0.750000 0.750000 0.396603
O O2 0.797014 0.871388 0.347818
O O3 0.865413 0.799035 0.440104
O O4 0.754266 0.863541 0.471466
O O5 0.818303 0.500000 0.796765
O O6 0.745014 0.588414 0.730518
O O7 0.872585 0.613575 0.740848
O O8 0.824373 0.500000 0.160450
O O9 0.866708 0.369613 0.167331
O O10 0.755951 0.406483 0.097494
O O11 0.085942 0.299798 0.066145
O O12 0.079085 0.188541 0.998633
O O13 0.000000 0.290630 0.966567
O O14 0.354326 0.076570 0.519801
O O15 0.247503 0.000000 0.503206
O O16 0.500000 0.673123 0.661368
O O17 0.596470 0.761823 0.684607
O O18 0.500000 0.415959 0.020398
O O19 0.422653 0.372527 0.117090
O O20 0.000000 0.153888 0.219399
#
# Coordination Sequence:
#
# PCOD9369375 Si02
#       8
#    16  16  16  16  16  16  16  16
#     4  12  24  38  59  86 110 156 199 235 284 344
#     4  11  25  41  55  82 123 155 186 236 293 345
#     4  10  21  36  58  84 113 152 193 236 289 342
#     4   9  18  35  57  84 116 145 184 237 286 335
#     4  11  21  36  58  87 116 147 190 239 286 340
#     4   9  18  34  59  89 115 141 186 245 288 335
#     4   9  17  33  57  87 116 143 182 235 288 336
#     4   9  19  35  59  86 112 147 189 232 284 342
#
# _framework density 17.222341
#
# number of rings (size 3 to 8) (size 9 to 14) (size 15 to 20)
#    0.000    2.000    3.750    1.875    1.750    1.250 
#    0.000    1.250    0.000    1.875    0.000    1.750 
#    0.000    0.000    0.000    0.000    0.000    0.000 
#
# Total GULP energy -178459.854025 kJ/mol
# GULP energy per Si atom -5576.870438 kJ/mol
# Density = 1.718314 g / cm^3
# Si number density = 17.222341 Si / 1000 Ang^3
#
#
#
# Elastic Constant Matrix: (Units=GPa)
#
#
# Indices 1 2 3 4 5 6 
#
# 1 119.2223 82.0887 44.6443 0.0000 0.0000 0.0000
# 2 82.0887 123.7060 66.8365 0.0000 0.0000 0.0000
# 3 44.6443 66.8365 78.5347 0.0000 0.0000 0.0000
# 4 0.0000 0.0000 0.0000 23.4876 0.0000 0.0000
# 5 0.0000 0.0000 0.0000 0.0000 8.9130 0.0000
# 6 0.0000 0.0000 0.0000 0.0000 0.0000 27.0560
#
#
#
# Elastic Compliance Matrix: (Units=1/GPa)
#
#
# Indices 1 2 3 4 5 6 
#
# 1 0.015444 -0.010191 -0.000107 0.000000 0.000000 0.000000
# 2 -0.010191 0.021689 -0.012665 0.000000 0.000000 0.000000
# 3 -0.000107 -0.012665 0.023572 0.000000 0.000000 0.000000
# 4 0.000000 0.000000 0.000000 0.042576 0.000000 0.000000
# 5 0.000000 0.000000 0.000000 0.000000 0.112196 0.000000
# 6 0.000000 0.000000 0.000000 0.000000 0.000000 0.036960
#
#
# Mechanical properties :
#
#
# Convention : Reuss Voigt Hill
#
# Bulk Modulus (GPa) = 67.65713 78.73355 73.19534
# Shear Modulus (GPa) = 16.48589 20.41755 18.45172
#
# Velocity S-wave (km/s) = 3.09728 3.44688 3.27675
# Velocity P-wave (km/s) = 7.22224 7.85217 7.54378
#
# Compressibility (1/GPa) = 0.01478041
#
# Stress axis : x y z
#
# Youngs Moduli (GPa) = 64.74801 46.10654 42.42265
#
# Poissons Ratio (x) = 0.46987 0.00453
# Poissons Ratio (y) = 0.65985 0.53728
# Poissons Ratio (z) = 0.00691 0.58394
#
# Static dielectric constant tensor:
#      x y z
#    x 1.583070 0.000000 0.000000 
#    y 0.000000 1.587290 0.000000 
#    z 0.000000 0.000000 1.561730 
# 
# From -- ./inp_files/26614.got.cif
#   From: 2010.05.17/outbox.cif.g08.bks.cpg/sg42_14_cif.got.tgz:26614.got - 2010.06.03 19:03:34.
