data_PCOD9369421
_publ_section_title
;
Structure prediction by ZEFSAII (Michael W. Deem and Ramdas Pophale) SiO2 
 PCOD9369421
Probable space group: F M M 2
;
_chemical_formula_sum "Si O2"
_cell_formula_units_Z 80
_cell_length_a 16.400738
_cell_length_b 27.504536
_cell_length_c 9.187404
_cell_angle_alpha 90.000000
_cell_angle_beta 90.000000
_cell_angle_gamma 90.000000
_cell_volume 4144.389148
_symmetry_space_group_name_H-M "F M M 2"
_symmetry_group_IT_number 42
_symmetry_cell_setting 'orthorhombic'
loop_
_space_group_symop_operation_xyz
x,y,z
-x,-y,z
-x,y,z
x,-y,z
x,1/2+y,1/2+z
-x,1/2-y,1/2+z
-x,1/2+y,1/2+z
x,1/2-y,1/2+z
1/2+x,y,1/2+z
1/2-x,-y,1/2+z
1/2-x,y,1/2+z
1/2+x,-y,1/2+z
1/2+x,1/2+y,z
1/2-x,1/2-y,z
1/2-x,1/2+y,z
1/2+x,1/2-y,z
loop_
_atom_site_type_symbol
_atom_site_label
_atom_site_fract_x
_atom_site_fract_y
_atom_site_fract_z
Si Si1 0.641424 0.156541 0.493870
Si Si2 0.093417 0.767163 0.220423
Si Si3 0.323828 0.191736 0.011037
Si Si4 0.401115 0.054782 0.449498
Si Si5 0.407196 0.116794 0.195315
O O1 0.592846 0.187147 0.610705
O O2 0.729063 0.182230 0.482186
O O3 0.642286 0.099044 0.534269
O O4 0.600638 0.153141 0.335093
O O5 0.131066 0.786263 0.370972
O O6 0.000000 0.749798 0.237382
O O7 0.152249 0.728499 0.140916
O O8 0.356553 0.139500 0.065405
O O9 0.500000 0.060068 0.465256
O O10 0.382920 0.067248 0.278836
O O11 0.378709 0.000000 0.487677
O O12 0.500000 0.113504 0.148348
#
# Coordination Sequence:
#
# PCOD9369421 Si02
#       5
#    16  16  16  16  16
#     4  10  21  37  59  86 116 151 195 247 293 341
#     4  12  24  38  56  81 115 163 202 237 287 353
#     4  12  24  38  56  84 122 154 194 247 295 341
#     4   8  16  35  66  93 114 151 201 242 285 355
#     4   9  18  36  60  85 113 152 198 239 282 349
#
# _framework density 19.303207
#
# number of rings (size 3 to 8) (size 9 to 14) (size 15 to 20)
#    1.200    0.600    0.000    6.000    0.000    1.600 
#    0.000    1.000    0.000    1.200    0.000    2.800 
#    0.000    0.000    0.000    0.000    0.000    0.000 
#
# Total GULP energy -111356.866488 kJ/mol
# GULP energy per Si atom -5567.843324 kJ/mol
# Density = 1.925927 g / cm^3
# Si number density = 19.303207 Si / 1000 Ang^3
#
#
#
# Elastic Constant Matrix: (Units=GPa)
#
#
# Indices 1 2 3 4 5 6 
#
# 1 76.6034 23.7349 -2.1338 0.0000 0.0000 0.0000
# 2 23.7349 110.9385 9.9624 0.0000 0.0000 0.0000
# 3 -2.1338 9.9624 43.0390 0.0000 0.0000 0.0000
# 4 0.0000 0.0000 0.0000 24.9254 0.0000 0.0000
# 5 0.0000 0.0000 0.0000 0.0000 24.1621 0.0000
# 6 0.0000 0.0000 0.0000 0.0000 0.0000 22.8026
#
#
#
# Elastic Compliance Matrix: (Units=1/GPa)
#
#
# Indices 1 2 3 4 5 6 
#
# 1 0.014066 -0.003137 0.001424 0.000000 0.000000 0.000000
# 2 -0.003137 0.009905 -0.002448 0.000000 0.000000 0.000000
# 3 0.001424 -0.002448 0.023872 0.000000 0.000000 0.000000
# 4 0.000000 0.000000 0.000000 0.040120 0.000000 0.000000
# 5 0.000000 0.000000 0.000000 0.000000 0.041387 0.000000
# 6 0.000000 0.000000 0.000000 0.000000 0.000000 0.043855
#
#
# Mechanical properties :
#
#
# Convention : Reuss Voigt Hill
#
# Bulk Modulus (GPa) = 25.30419 32.63421 28.96920
# Shear Modulus (GPa) = 25.68034 27.64584 26.66309
#
# Velocity S-wave (km/s) = 3.65138 3.78853 3.72059
# Velocity P-wave (km/s) = 5.56003 6.00667 5.78766
#
# Compressibility (1/GPa) = 0.03951915
#
# Stress axis : x y z
#
# Youngs Moduli (GPa) = 71.09376 100.95858 41.88998
#
# Poissons Ratio (x) = 0.31673 -0.05963
# Poissons Ratio (y) = 0.22303 0.10256
# Poissons Ratio (z) = -0.10121 0.24718
#
# Static dielectric constant tensor:
#      x y z
#    x 1.425510 0.000000 0.000000 
#    y 0.000000 1.750250 0.000000 
#    z 0.000000 0.000000 1.672630 
# 
# From -- ./inp_files/3584.got.cif
#   From: 2010.05.17/outbox.cif.g08.bks.cpg/sg42_2_cif.got.tgz:3584.got - 2010.06.03 19:03:34.
