data_PCOD9369358
_publ_section_title
;
Structure prediction by ZEFSAII (Michael W. Deem and Ramdas Pophale) SiO2 
 PCOD9369358
Probable space group: F M M 2
;
_chemical_formula_sum "Si O2"
_cell_formula_units_Z 96
_cell_length_a 18.973670
_cell_length_b 8.783414
_cell_length_c 31.592438
_cell_angle_alpha 90.000000
_cell_angle_beta 90.000000
_cell_angle_gamma 90.000000
_cell_volume 5264.993485
_symmetry_space_group_name_H-M "F M M 2"
_symmetry_group_IT_number 42
_symmetry_cell_setting 'orthorhombic'
loop_
_space_group_symop_operation_xyz
x,y,z
-x,-y,z
-x,y,z
x,-y,z
x,1/2+y,1/2+z
-x,1/2-y,1/2+z
-x,1/2+y,1/2+z
x,1/2-y,1/2+z
1/2+x,y,1/2+z
1/2-x,-y,1/2+z
1/2-x,y,1/2+z
1/2+x,-y,1/2+z
1/2+x,1/2+y,z
1/2-x,1/2-y,z
1/2-x,1/2+y,z
1/2+x,1/2-y,z
loop_
_atom_site_type_symbol
_atom_site_label
_atom_site_fract_x
_atom_site_fract_y
_atom_site_fract_z
Si Si1 0.828095 0.683262 0.466800
Si Si2 0.584520 0.678263 0.295769
Si Si3 0.582865 0.817385 0.042595
Si Si4 0.171609 0.683510 0.620331
Si Si5 0.081170 0.185403 0.201486
Si Si6 0.173291 0.180910 0.870042
O O1 0.826031 0.500000 0.470697
O O2 0.750000 0.750000 0.475208
O O3 0.882617 0.752714 0.499871
O O4 0.846912 0.724444 0.418221
O O5 0.500000 0.688635 0.298264
O O6 0.603849 0.500000 0.298653
O O7 0.603902 0.735120 0.248566
O O8 0.620322 0.763821 0.334255
O O9 0.500000 0.779849 0.045153
O O10 0.625207 0.744753 0.081555
O O11 0.590388 0.000000 0.043619
O O12 0.174304 0.500000 0.618689
O O13 0.250000 0.750000 0.618094
O O14 0.132823 0.730979 0.663899
O O15 0.000000 0.234034 0.193753
O O16 0.079940 0.000000 0.202553
O O17 0.250000 0.250000 0.861594
O O18 0.178502 0.000000 0.869092
#
# Coordination Sequence:
#
# PCOD9369358 Si02
#       6
#    16  16  16  16  16  16
#     4  10  21  38  59  81 108 143 182 224 270 321
#     4   9  18  34  56  81 111 146 182 222 270 322
#     4  11  24  40  58  82 111 141 177 222 270 322
#     4  11  22  37  58  82 111 145 181 222 268 320
#     4   8  16  33  56  80 106 141 184 225 267 318
#     4  10  21  36  55  80 110 144 183 226 270 319
#
# _framework density 18.233642
#
# number of rings (size 3 to 8) (size 9 to 14) (size 15 to 20)
#    0.000    2.167    0.000    4.000    0.000    5.667 
#    0.000    6.667    0.000    2.000    0.000    0.000 
#    0.000    0.000    0.000    0.000    0.000    0.000 
#
# Total GULP energy -133995.668639 kJ/mol
# GULP energy per Si atom -5583.152860 kJ/mol
# Density = 1.819214 g / cm^3
# Si number density = 18.233642 Si / 1000 Ang^3
#
#
#
# Elastic Constant Matrix: (Units=GPa)
#
#
# Indices 1 2 3 4 5 6 
#
# 1 115.7791 49.8457 98.1616 0.0000 0.0000 0.0000
# 2 49.8457 54.0861 52.7484 0.0000 0.0000 0.0000
# 3 98.1616 52.7484 150.5677 0.0000 0.0000 0.0000
# 4 0.0000 0.0000 0.0000 27.3550 0.0000 0.0000
# 5 0.0000 0.0000 0.0000 0.0000 38.1141 0.0000
# 6 0.0000 0.0000 0.0000 0.0000 0.0000 26.0345
#
#
#
# Elastic Compliance Matrix: (Units=1/GPa)
#
#
# Indices 1 2 3 4 5 6 
#
# 1 0.022186 -0.009631 -0.011090 0.000000 0.000000 0.000000
# 2 -0.009631 0.032265 -0.005025 0.000000 0.000000 0.000000
# 3 -0.011090 -0.005025 0.015632 0.000000 0.000000 0.000000
# 4 0.000000 0.000000 0.000000 0.036556 0.000000 0.000000
# 5 0.000000 0.000000 0.000000 0.000000 0.026237 0.000000
# 6 0.000000 0.000000 0.000000 0.000000 0.000000 0.038411
#
#
# Mechanical properties :
#
#
# Convention : Reuss Voigt Hill
#
# Bulk Modulus (GPa) = 53.78667 80.21602 67.00134
# Shear Modulus (GPa) = 21.83640 26.27919 24.05780
#
# Velocity S-wave (km/s) = 3.46437 3.80050 3.63632
# Velocity P-wave (km/s) = 6.75020 7.95910 7.37944
#
# Compressibility (1/GPa) = 0.01859197
#
# Stress axis : x y z
#
# Youngs Moduli (GPa) = 45.07368 30.99311 63.97179
#
# Poissons Ratio (x) = 0.29849 0.70945
# Poissons Ratio (y) = 0.43409 0.32144
# Poissons Ratio (z) = 0.49987 0.15573
#
# Static dielectric constant tensor:
#      x y z
#    x 1.590240 0.000000 0.000000 
#    y 0.000000 1.617590 0.000000 
#    z 0.000000 0.000000 1.628820 
# 
# From -- ./inp_files/32995.got.cif
#   From: 2010.05.17/outbox.cif.g08.bks.cpg/sg42_17_cif.got.tgz:32995.got - 2010.06.03 19:03:34.
