data_PCOD9369612
_publ_section_title
;
Structure prediction by ZEFSAII (Michael W. Deem and Ramdas Pophale) SiO2 
 PCOD9369612
Probable space group: F M M 2
;
_chemical_formula_sum "Si O2"
_cell_formula_units_Z 84
_cell_length_a 20.795727
_cell_length_b 7.443556
_cell_length_c 25.725683
_cell_angle_alpha 90.000000
_cell_angle_beta 90.000000
_cell_angle_gamma 90.000000
_cell_volume 3982.185451
_symmetry_space_group_name_H-M "F M M 2"
_symmetry_group_IT_number 42
_symmetry_cell_setting 'orthorhombic'
loop_
_space_group_symop_operation_xyz
x,y,z
-x,-y,z
-x,y,z
x,-y,z
x,1/2+y,1/2+z
-x,1/2-y,1/2+z
-x,1/2+y,1/2+z
x,1/2-y,1/2+z
1/2+x,y,1/2+z
1/2-x,-y,1/2+z
1/2-x,y,1/2+z
1/2+x,-y,1/2+z
1/2+x,1/2+y,z
1/2-x,1/2-y,z
1/2-x,1/2+y,z
1/2+x,1/2-y,z
loop_
_atom_site_type_symbol
_atom_site_label
_atom_site_fract_x
_atom_site_fract_y
_atom_site_fract_z
Si Si1 0.427210 0.219102 0.125000
Si Si2 0.324972 0.714101 0.540870
Si Si3 0.927488 0.781043 0.744343
Si Si4 0.677101 0.213587 0.327099
Si Si5 0.500000 0.500000 0.919499
Si Si6 0.386551 0.206714 0.932352
O O1 0.500000 0.272818 0.109734
O O2 0.372899 0.283967 0.085501
O O3 0.416064 0.274594 0.184716
O O4 0.426643 0.000000 0.124946
O O5 0.331712 0.500000 0.541640
O O6 0.250000 0.750000 0.549458
O O7 0.349665 0.771328 0.484222
O O8 0.874003 0.719171 0.784585
O O9 0.000000 0.727265 0.759496
O O10 0.926719 0.000000 0.744558
O O11 0.750000 0.250000 0.311241
O O12 0.661174 0.292206 0.383317
O O13 0.668578 0.000000 0.331231
O O14 0.443971 0.342280 0.920302
O O15 0.408525 0.000000 0.940698
#
# Coordination Sequence:
#
# PCOD9369612 Si02
#       6
#    16  16  16  16   4  16
#     4   8  15  32  55  83 116 156 206 264 317 371
#     4  10  22  37  59  87 122 164 210 255 311 378
#     4   8  16  31  56  84 116 158 210 264 319 373
#     4  11  22  37  60  89 125 169 215 260 315 380
#     4  12  26  44  68  98 128 164 208 260 316 376
#     4  11  25  43  65  97 129 164 207 257 314 375
#
# _framework density 21.093945000000001
#
# number of rings (size 3 to 8) (size 9 to 14) (size 15 to 20)
#    0.000    2.286    0.952    2.571    4.000    2.286 
#    0.000    0.000    0.000    1.143    0.000    5.333 
#    0.000    0.000    0.000    0.000    0.000    0.000 
#
# Total GULP energy -117045.982799 kJ/mol
# GULP energy per Si atom -5573.618229 kJ/mol
# Density = 2.104593 g / cm^3
# Si number density = 21.093945 Si / 1000 Ang^3
#
#
#
# Elastic Constant Matrix: (Units=GPa)
#
#
# Indices 1 2 3 4 5 6 
#
# 1 173.0232 10.3318 101.4721 0.0000 0.0000 -0.0001
# 2 10.3318 93.0675 1.8964 0.0000 0.0000 -0.0001
# 3 101.4721 1.8964 130.0123 0.0000 0.0000 0.0000
# 4 0.0000 0.0000 0.0000 5.5481 0.0000 0.0000
# 5 0.0000 0.0000 0.0000 0.0000 10.3944 0.0000
# 6 -0.0001 -0.0001 0.0000 0.0000 0.0000 27.8721
#
#
#
# Elastic Compliance Matrix: (Units=1/GPa)
#
#
# Indices 1 2 3 4 5 6 
#
# 1 0.010755 -0.001023 -0.008379 0.000000 0.000000 0.000000
# 2 -0.001023 0.010845 0.000640 0.000000 0.000000 0.000000
# 3 -0.008379 0.000640 0.014222 0.000000 0.000000 0.000000
# 4 0.000000 0.000000 0.000000 0.180243 0.000000 0.000000
# 5 0.000000 0.000000 0.000000 0.000000 0.096206 0.000000
# 6 0.000000 0.000000 0.000000 0.000000 0.000000 0.035878
#
#
# Mechanical properties :
#
#
# Convention : Reuss Voigt Hill
#
# Bulk Modulus (GPa) = 54.64926 69.27816 61.96371
# Shear Modulus (GPa) = 13.44911 27.58976 20.51943
#
# Velocity S-wave (km/s) = 2.52778 3.62048 3.12230
# Velocity P-wave (km/s) = 5.87225 7.09867 6.51439
#
# Compressibility (1/GPa) = 0.01829851
#
# Stress axis : x y z
#
# Youngs Moduli (GPa) = 92.98413 92.20480 70.31508
#
# Poissons Ratio (x) = 0.09434 0.58915
# Poissons Ratio (y) = 0.09514 -0.04503
# Poissons Ratio (z) = 0.77909 -0.05904
#
# Static dielectric constant tensor:
#      x y z
#    x 1.724840 0.000000 0.000000 
#    y 0.000000 1.827930 0.000000 
#    z 0.000000 0.000000 1.747980 
# 
# From -- ./inp_files/30134.got.cif
#   From: 2010.05.17/outbox.cif.g08.bks.cpg/sg42_16_cif.got.tgz:30134.got - 2010.06.03 19:03:34.
