data_PCOD9369652
_publ_section_title
;
Structure prediction by ZEFSAII (Michael W. Deem and Ramdas Pophale) SiO2 
 PCOD9369652
Probable space group: F M M 2
;
_chemical_formula_sum "Si O2"
_cell_formula_units_Z 52
_cell_length_a 8.022216
_cell_length_b 15.119332
_cell_length_c 22.302496
_cell_angle_alpha 90.000000
_cell_angle_beta 90.000000
_cell_angle_gamma 90.000000
_cell_volume 2705.081941
_symmetry_space_group_name_H-M "F M M 2"
_symmetry_group_IT_number 42
_symmetry_cell_setting 'orthorhombic'
loop_
_space_group_symop_operation_xyz
x,y,z
-x,-y,z
-x,y,z
x,-y,z
x,1/2+y,1/2+z
-x,1/2-y,1/2+z
-x,1/2+y,1/2+z
x,1/2-y,1/2+z
1/2+x,y,1/2+z
1/2-x,-y,1/2+z
1/2-x,y,1/2+z
1/2+x,-y,1/2+z
1/2+x,1/2+y,z
1/2-x,1/2-y,z
1/2-x,1/2+y,z
1/2+x,1/2-y,z
loop_
_atom_site_type_symbol
_atom_site_label
_atom_site_fract_x
_atom_site_fract_y
_atom_site_fract_z
Si Si1 0.301224 0.650036 0.311240
Si Si2 0.814754 0.500000 0.399108
Si Si3 0.000000 0.897442 0.602121
Si Si4 0.187776 0.606851 0.673475
Si Si5 0.500000 0.500000 0.486507
O O1 0.500000 0.637233 0.318525
O O2 0.250000 0.750000 0.323728
O O3 0.209647 0.583958 0.355804
O O4 0.262977 0.629012 0.241727
O O5 0.665948 0.500000 0.447020
O O6 0.000000 0.500000 0.425949
O O7 0.169911 0.858835 0.628736
O O8 0.000000 0.914991 0.531121
O O9 0.000000 0.000000 0.625514
O O10 0.177692 0.500000 0.668517
O O11 0.000000 0.641072 0.662462
#
# Coordination Sequence:
#
# PCOD9369652 Si02
#       5
#    16   8   8  16   4
#     4  11  22  37  59  95 131 157 196 250 310 373
#     4  12  24  39  61  87 123 164 208 251 302 362
#     4   8  18  32  57  81 110 151 195 243 285 356
#     4   9  17  31  55  87 115 147 185 241 297 353
#     4  10  22  40  54  90 112 160 216 254 288 358
#
# _framework density 19.223078999999998
#
# number of rings (size 3 to 8) (size 9 to 14) (size 15 to 20)
#    0.462    1.538    3.077    0.923    4.308    1.231 
#    0.000    0.000    0.000    1.846    0.000    0.000 
#    0.000    0.000    0.000    0.000    0.000    0.000 
#
# Total GULP energy -72516.361498 kJ/mol
# GULP energy per Si atom -5578.181654 kJ/mol
# Density = 1.917933 g / cm^3
# Si number density = 19.223079 Si / 1000 Ang^3
#
#
#
# Elastic Constant Matrix: (Units=GPa)
#
#
# Indices 1 2 3 4 5 6 
#
# 1 141.0795 28.9807 93.6046 0.0000 0.0000 0.0000
# 2 28.9807 61.0912 22.8442 0.0000 0.0000 0.0000
# 3 93.6046 22.8442 110.1531 0.0000 0.0000 0.0000
# 4 0.0000 0.0000 0.0000 -10.9271 0.0000 0.0000
# 5 0.0000 0.0000 0.0000 0.0000 20.9095 0.0000
# 6 0.0000 0.0000 0.0000 0.0000 0.0000 18.5468
#
#
#
# Elastic Compliance Matrix: (Units=1/GPa)
#
#
# Indices 1 2 3 4 5 6 
#
# 1 0.016691 -0.002834 -0.013596 0.000000 0.000000 0.000000
# 2 -0.002834 0.018226 -0.001372 0.000000 0.000000 0.000000
# 3 -0.013596 -0.001372 0.020916 0.000000 0.000000 0.000000
# 4 0.000000 0.000000 0.000000 -0.091515 0.000000 0.000000
# 5 0.000000 0.000000 0.000000 0.000000 0.047825 0.000000
# 6 0.000000 0.000000 0.000000 0.000000 0.000000 0.053918
#
#
# Mechanical properties :
#
#
# Convention : Reuss Voigt Hill
#
# Bulk Modulus (GPa) = 49.43035 67.02032 58.22534
# Shear Modulus (GPa) = 46.12252 16.83211 31.47732
#
# Velocity S-wave (km/s) = 4.90361 2.96230 4.05096
# Velocity P-wave (km/s) = 7.60463 6.82938 7.22741
#
# Compressibility (1/GPa) = 0.02023048
#
# Stress axis : x y z
#
# Youngs Moduli (GPa) = 59.91262 54.86580 47.81043
#
# Poissons Ratio (x) = 0.15549 0.65002
# Poissons Ratio (y) = 0.16979 0.06558
# Poissons Ratio (z) = 0.81456 0.07526
#
# Static dielectric constant tensor:
#      x y z
#    x 1.715350 0.000000 0.000000 
#    y 0.000000 1.663470 0.000000 
#    z 0.000000 0.000000 1.636220 
# 
# From -- ./inp_files/20421.got.cif
#   From: 2010.05.17/outbox.cif.g08.bks.cpg/sg42_11_cif.got.tgz:20421.got - 2010.06.03 19:03:34.
