data_PCOD9369481
_publ_section_title
;
Structure prediction by ZEFSAII (Michael W. Deem and Ramdas Pophale) SiO2 
 PCOD9369481
Probable space group: F M M 2
;
_chemical_formula_sum "Si O2"
_cell_formula_units_Z 80
_cell_length_a 8.788011
_cell_length_b 26.127051
_cell_length_c 18.396282
_cell_angle_alpha 90.000000
_cell_angle_beta 90.000000
_cell_angle_gamma 90.000000
_cell_volume 4223.874862
_symmetry_space_group_name_H-M "F M M 2"
_symmetry_group_IT_number 42
_symmetry_cell_setting 'orthorhombic'
loop_
_space_group_symop_operation_xyz
x,y,z
-x,-y,z
-x,y,z
x,-y,z
x,1/2+y,1/2+z
-x,1/2-y,1/2+z
-x,1/2+y,1/2+z
x,1/2-y,1/2+z
1/2+x,y,1/2+z
1/2-x,-y,1/2+z
1/2-x,y,1/2+z
1/2+x,-y,1/2+z
1/2+x,1/2+y,z
1/2-x,1/2-y,z
1/2-x,1/2+y,z
1/2+x,1/2-y,z
loop_
_atom_site_type_symbol
_atom_site_label
_atom_site_fract_x
_atom_site_fract_y
_atom_site_fract_z
Si Si1 0.681870 0.900488 0.213380
Si Si2 0.318612 0.194516 0.799918
Si Si3 0.318592 0.305473 0.472176
Si Si4 0.818857 0.000000 0.469839
Si Si5 0.681631 0.597245 0.053125
Si Si6 0.181464 0.000000 0.810729
O O1 0.500000 0.897800 0.203346
O O2 0.741348 0.849929 0.253619
O O3 0.761140 0.906103 0.135709
O O4 0.715546 0.949671 0.263490
O O5 0.500000 0.194614 0.788374
O O6 0.250000 0.250000 0.781566
O O7 0.290356 0.185716 0.886032
O O8 0.500000 0.305429 0.483738
O O9 0.250000 0.250000 0.490599
O O10 0.241704 0.350224 0.517930
O O11 0.750502 0.050075 0.508125
O O12 0.771988 0.000000 0.385625
O O13 0.000000 0.000000 0.477689
O O14 0.500000 0.595496 0.050074
O O15 0.000000 0.000000 0.826771
#
# Coordination Sequence:
#
# PCOD9369481 Si02
#       6
#    16  16  16   8  16   8
#     4  11  23  40  62  89 123 159 198 245 298 356
#     4  10  21  38  61  89 120 157 201 248 298 353
#     4  10  21  39  63  91 123 159 202 249 298 354
#     4  12  25  42  65  91 121 157 199 246 297 356
#     4  12  25  41  62  89 123 160 201 248 300 357
#     4  10  23  42  65  91 119 155 197 242 295 356
#
# _framework density 18.939954
#
# number of rings (size 3 to 8) (size 9 to 14) (size 15 to 20)
#    0.000    1.200    0.000    6.300    0.000    8.800 
#    0.000    4.000    0.000    0.000    0.000    0.000 
#    0.000    0.000    0.000    0.000    0.000    0.000 
#
# Total GULP energy -111924.061383 kJ/mol
# GULP energy per Si atom -5596.203069 kJ/mol
# Density = 1.889685 g / cm^3
# Si number density = 18.939954 Si / 1000 Ang^3
#
#
#
# Elastic Constant Matrix: (Units=GPa)
#
#
# Indices 1 2 3 4 5 6 
#
# 1 148.7797 100.9143 104.8423 0.0000 0.0000 0.0000
# 2 100.9143 173.4107 108.1433 0.0000 0.0000 0.0000
# 3 104.8423 108.1433 130.3796 0.0000 0.0000 0.0000
# 4 0.0000 0.0000 0.0000 141.0015 0.0000 0.0000
# 5 0.0000 0.0000 0.0000 0.0000 34.8437 0.0000
# 6 0.0000 0.0000 0.0000 0.0000 0.0000 31.2219
#
#
#
# Elastic Compliance Matrix: (Units=1/GPa)
#
#
# Indices 1 2 3 4 5 6 
#
# 1 0.016091 -0.002682 -0.010715 0.000000 0.000000 0.000000
# 2 -0.002682 0.012393 -0.008123 0.000000 0.000000 0.000000
# 3 -0.010715 -0.008123 0.023023 0.000000 0.000000 0.000000
# 4 0.000000 0.000000 0.000000 0.007092 0.000000 0.000000
# 5 0.000000 0.000000 0.000000 0.000000 0.028700 0.000000
# 6 0.000000 0.000000 0.000000 0.000000 0.000000 0.032029
#
#
# Mechanical properties :
#
#
# Convention : Reuss Voigt Hill
#
# Bulk Modulus (GPa) = 118.08439 120.04109 119.06274
# Shear Modulus (GPa) = 30.26848 50.65811 40.46329
#
# Velocity S-wave (km/s) = 4.00200 5.17733 4.62713
# Velocity P-wave (km/s) = 9.15624 9.96278 9.56801
#
# Compressibility (1/GPa) = 0.00846852
#
# Stress axis : x y z
#
# Youngs Moduli (GPa) = 62.14712 80.69169 43.43470
#
# Poissons Ratio (x) = 0.21642 0.46538
# Poissons Ratio (y) = 0.16668 0.35280
# Poissons Ratio (z) = 0.66588 0.65542
#
# Static dielectric constant tensor:
#      x y z
#    x 1.628570 0.000000 0.000000 
#    y 0.000000 1.618330 0.000000 
#    z 0.000000 0.000000 1.626500 
# 
# From -- ./inp_files/18225.got.cif
#   From: 2010.05.17/outbox.cif.g08.bks.cpg/sg42_10_cif.got.tgz:18225.got - 2010.06.03 19:03:34.
