data_PCOD9369741
_publ_section_title
;
Structure prediction by ZEFSAII (Michael W. Deem and Ramdas Pophale) SiO2 
 PCOD9369741
Probable space group: F M M 2
;
_chemical_formula_sum "Si O2"
_cell_formula_units_Z 60
_cell_length_a 16.002758
_cell_length_b 10.537997
_cell_length_c 15.565920
_cell_angle_alpha 90.000000
_cell_angle_beta 90.000000
_cell_angle_gamma 90.000000
_cell_volume 2624.990297
_symmetry_space_group_name_H-M "F M M 2"
_symmetry_group_IT_number 42
_symmetry_cell_setting 'orthorhombic'
loop_
_space_group_symop_operation_xyz
x,y,z
-x,-y,z
-x,y,z
x,-y,z
x,1/2+y,1/2+z
-x,1/2-y,1/2+z
-x,1/2+y,1/2+z
x,1/2-y,1/2+z
1/2+x,y,1/2+z
1/2-x,-y,1/2+z
1/2-x,y,1/2+z
1/2+x,-y,1/2+z
1/2+x,1/2+y,z
1/2-x,1/2-y,z
1/2-x,1/2+y,z
1/2+x,1/2-y,z
loop_
_atom_site_type_symbol
_atom_site_label
_atom_site_fract_x
_atom_site_fract_y
_atom_site_fract_z
Si Si1 0.094437 0.000000 0.075390
Si Si2 0.500000 0.500000 0.905352
Si Si3 0.000000 0.645332 0.897453
Si Si4 0.661940 0.264761 0.646258
Si Si5 0.318417 0.146293 0.959354
Si Si6 0.500000 0.200039 0.253143
O O1 0.136945 0.127145 0.108598
O O2 0.000000 0.000000 0.109479
O O3 0.078237 0.000000 0.972019
O O4 0.500000 0.616114 0.839222
O O5 0.910906 0.691873 0.932022
O O6 0.000000 0.660515 0.795077
O O7 0.000000 0.500000 0.925236
O O8 0.750000 0.250000 0.695367
O O9 0.679830 0.350044 0.562891
O O10 0.583792 0.317333 0.699050
O O11 0.250000 0.250000 0.931110
O O12 0.303895 0.000000 0.930604
#
# Coordination Sequence:
#
# PCOD9369741 Si02
#       6
#     8   4   8  16  16   8
#     4  10  22  49  73 101 130 196 246 286 335 433
#     4  10  24  40  74  94 146 180 242 280 366 412
#     4  10  23  43  71  96 137 179 225 280 353 414
#     4  11  25  40  74 100 137 179 240 289 351 413
#     4  10  23  44  69 101 132 177 233 289 336 418
#     4  12  24  43  64 104 141 187 221 295 358 427
#
# _framework density 22.857225
#
# number of rings (size 3 to 8) (size 9 to 14) (size 15 to 20)
#    0.400    1.067    1.333    2.400   11.200    1.067 
#    2.400    1.333    0.000    0.000    0.000    0.000 
#    0.000    0.000    0.000    0.000    0.000    0.000 
#
# Total GULP energy -83763.587402 kJ/mol
# GULP energy per Si atom -5584.239160 kJ/mol
# Density = 2.280520 g / cm^3
# Si number density = 22.857225 Si / 1000 Ang^3
#
#
#
# Elastic Constant Matrix: (Units=GPa)
#
#
# Indices 1 2 3 4 5 6 
#
# 1 229.7105 53.5086 45.1450 0.0000 0.0000 0.0000
# 2 53.5086 135.6124 18.1961 0.0000 0.0000 0.0000
# 3 45.1450 18.1961 64.3343 0.0000 0.0000 0.0000
# 4 0.0000 0.0000 0.0000 14.2335 0.0000 0.0000
# 5 0.0000 0.0000 0.0000 0.0000 -342.3939 0.0000
# 6 0.0000 0.0000 0.0000 0.0000 0.0000 26.7016
#
#
#
# Elastic Compliance Matrix: (Units=1/GPa)
#
#
# Indices 1 2 3 4 5 6 
#
# 1 0.005396 -0.001685 -0.003310 0.000000 0.000000 0.000000
# 2 -0.001685 0.008191 -0.001134 0.000000 0.000000 0.000000
# 3 -0.003310 -0.001134 0.018187 0.000000 0.000000 0.000000
# 4 0.000000 0.000000 0.000000 0.070257 0.000000 0.000000
# 5 0.000000 0.000000 0.000000 0.000000 -0.002921 0.000000
# 6 0.000000 0.000000 0.000000 0.000000 0.000000 0.037451
#
#
# Mechanical properties :
#
#
# Convention : Reuss Voigt Hill
#
# Bulk Modulus (GPa) = 51.24048 73.70630 62.47339
# Shear Modulus (GPa) = 32.19036 -39.43792 -3.62378
#
# Velocity S-wave (km/s) = 3.75683 -4.15830 -1.26049
# Velocity P-wave (km/s) = 6.42532 3.04320 5.02722
#
# Compressibility (1/GPa) = 0.01951582
#
# Stress axis : x y z
#
# Youngs Moduli (GPa) = 185.30940 122.08467 54.98304
#
# Poissons Ratio (x) = 0.20573 0.18200
# Poissons Ratio (y) = 0.31227 0.06236
# Poissons Ratio (z) = 0.61340 0.13847
#
# Static dielectric constant tensor:
#      x y z
#    x 1.913410 0.000000 0.000000 
#    y 0.000000 2.371390 0.000000 
#    z 0.000000 0.000000 1.836540 
# 
# From -- ./inp_files/19590.got.cif
#   From: 2010.05.17/outbox.cif.g08.bks.cpg/sg42_10_cif.got.tgz:19590.got - 2010.06.03 19:03:34.
