data_PCOD9369088
_publ_section_title
;
Structure prediction by ZEFSAII (Michael W. Deem and Ramdas Pophale) SiO2 
 PCOD9369088
Probable space group: F M M 2
;
_chemical_formula_sum "Si O2"
_cell_formula_units_Z 100
_cell_length_a 30.185698
_cell_length_b 7.429580
_cell_length_c 20.215844
_cell_angle_alpha 90.000000
_cell_angle_beta 90.000000
_cell_angle_gamma 90.000000
_cell_volume 4533.747862
_symmetry_space_group_name_H-M "F M M 2"
_symmetry_group_IT_number 42
_symmetry_cell_setting 'orthorhombic'
loop_
_space_group_symop_operation_xyz
x,y,z
-x,-y,z
-x,y,z
x,-y,z
x,1/2+y,1/2+z
-x,1/2-y,1/2+z
-x,1/2+y,1/2+z
x,1/2-y,1/2+z
1/2+x,y,1/2+z
1/2-x,-y,1/2+z
1/2-x,y,1/2+z
1/2+x,-y,1/2+z
1/2+x,1/2+y,z
1/2-x,1/2-y,z
1/2-x,1/2+y,z
1/2+x,1/2-y,z
loop_
_atom_site_type_symbol
_atom_site_label
_atom_site_fract_x
_atom_site_fract_y
_atom_site_fract_z
Si Si1 0.200505 0.715653 0.620840
Si Si2 0.050397 0.719137 0.806495
Si Si3 0.799890 0.713640 0.335441
Si Si4 0.500000 0.500000 0.005441
Si Si5 0.930401 0.210369 0.458923
Si Si6 0.131188 0.204785 0.224888
Si Si7 0.327723 0.782801 0.478956
O O1 0.195675 0.500000 0.620348
O O2 0.250000 0.750000 0.646143
O O3 0.160940 0.787766 0.666856
O O4 0.195328 0.782744 0.545865
O O5 0.051496 0.500000 0.804547
O O6 0.063826 0.767108 0.881563
O O7 0.085811 0.786117 0.752918
O O8 0.000000 0.776691 0.794744
O O9 0.807884 0.500000 0.333806
O O10 0.750000 0.750000 0.313351
O O11 0.835884 0.799359 0.287581
O O12 0.805959 0.780027 0.410562
O O13 0.461400 0.341982 0.000234
O O14 0.879175 0.230338 0.477971
O O15 0.943119 0.000000 0.463835
O O16 0.120407 0.000000 0.204483
O O17 0.325161 0.000000 0.478858
#
# Coordination Sequence:
#
# PCOD9369088 Si02
#       7
#    16  16  16   4  16  16  16
#     4  10  22  39  60  82 117 162 207 250 309 373
#     4   9  17  32  56  85 117 152 201 247 299 371
#     4  11  22  34  54  82 115 153 195 252 313 369
#     4  12  22  36  60  90 136 156 210 252 310 370
#     4  11  21  35  60  92 123 165 204 254 312 370
#     4  10  20  36  58  83 118 155 198 253 304 366
#     4  10  21  38  57  83 121 158 202 254 312 368
#
# _framework density 22.056806000000002
#
# number of rings (size 3 to 8) (size 9 to 14) (size 15 to 20)
#    0.000    1.760    3.200    1.680    0.000    3.200 
#    0.000    0.000    1.760    0.000    0.000    0.000 
#    0.000    0.000    0.000    0.000    0.000    0.000 
#
# Total GULP energy -139461.765120 kJ/mol
# GULP energy per Si atom -5578.470605 kJ/mol
# Density = 2.200660 g / cm^3
# Si number density = 22.056806 Si / 1000 Ang^3
#
#
#
# Elastic Constant Matrix: (Units=GPa)
#
#
# Indices 1 2 3 4 5 6 
#
# 1 129.2579 -12.7124 16.3648 0.0012 0.0000 -0.0001
# 2 -12.7124 92.9088 -4.1492 0.0040 0.0000 -0.0001
# 3 16.3648 -4.1492 74.8916 0.0005 0.0000 0.0000
# 4 0.0012 0.0040 0.0005 -278.4498 -0.0009 -0.0016
# 5 0.0000 0.0000 0.0000 -0.0009 18.1517 0.0000
# 6 -0.0001 -0.0001 0.0000 -0.0016 0.0000 12.4716
#
#
#
# Elastic Compliance Matrix: (Units=1/GPa)
#
#
# Indices 1 2 3 4 5 6 
#
# 1 0.008053 0.001026 -0.001703 0.000000 0.000000 0.000000
# 2 0.001026 0.010921 0.000381 0.000000 0.000000 0.000000
# 3 -0.001703 0.000381 0.013746 0.000000 0.000000 0.000000
# 4 0.000000 0.000000 0.000000 -0.003591 0.000000 0.000000
# 5 0.000000 0.000000 0.000000 0.000000 0.055091 0.000000
# 6 0.000000 0.000000 0.000000 0.000000 0.000000 0.080182
#
#
# Mechanical properties :
#
#
# Convention : Reuss Voigt Hill
#
# Bulk Modulus (GPa) = 31.12638 32.89607 32.01122
# Shear Modulus (GPa) = 28.45719 -29.72828 -0.63555
#
# Velocity S-wave (km/s) = 3.59580 -3.67523 -0.53737
# Velocity P-wave (km/s) = 5.60199 1.75018 3.76292
#
# Compressibility (1/GPa) = 0.03212709
#
# Stress axis : x y z
#
# Youngs Moduli (GPa) = 124.17811 91.56992 72.74938
#
# Poissons Ratio (x) = -0.09393 0.12388
# Poissons Ratio (y) = -0.12738 -0.02771
# Poissons Ratio (z) = 0.21146 -0.03488
#
# Static dielectric constant tensor:
#      x y z
#    x 1.780380 0.000000 0.000000 
#    y 0.000000 2.740400 0.000000 
#    z 0.000000 0.000000 1.818310 
# 
# From -- ./inp_files/23818.got.cif
#   From: 2010.05.17/outbox.cif.g08.bks.cpg/sg42_12_cif.got.tgz:23818.got - 2010.06.03 19:03:34.
