data_PCOD9369482
_publ_section_title
;
Structure prediction by ZEFSAII (Michael W. Deem and Ramdas Pophale) SiO2 
 PCOD9369482
Probable space group: F M M 2
;
_chemical_formula_sum "Si O2"
_cell_formula_units_Z 96
_cell_length_a 15.440197
_cell_length_b 16.548289
_cell_length_c 16.730306
_cell_angle_alpha 90.000000
_cell_angle_beta 90.000000
_cell_angle_gamma 90.000000
_cell_volume 4274.741115
_symmetry_space_group_name_H-M "F M M 2"
_symmetry_group_IT_number 42
_symmetry_cell_setting 'orthorhombic'
loop_
_space_group_symop_operation_xyz
x,y,z
-x,-y,z
-x,y,z
x,-y,z
x,1/2+y,1/2+z
-x,1/2-y,1/2+z
-x,1/2+y,1/2+z
x,1/2-y,1/2+z
1/2+x,y,1/2+z
1/2-x,-y,1/2+z
1/2-x,y,1/2+z
1/2+x,-y,1/2+z
1/2+x,1/2+y,z
1/2-x,1/2-y,z
1/2-x,1/2+y,z
1/2+x,1/2-y,z
loop_
_atom_site_type_symbol
_atom_site_label
_atom_site_fract_x
_atom_site_fract_y
_atom_site_fract_z
Si Si1 0.400563 0.413703 0.917990
Si Si2 0.850789 0.236116 0.358607
Si Si3 0.405337 0.775125 0.194656
Si Si4 0.290214 0.087656 0.146318
Si Si5 0.097351 0.380261 0.605578
Si Si6 0.897628 0.906781 0.481655
O O1 0.500000 0.421007 0.893940
O O2 0.356432 0.500000 0.895453
O O3 0.376701 0.325398 0.887908
O O4 0.396639 0.406650 0.014024
O O5 0.750000 0.250000 0.347029
O O6 0.896383 0.221077 0.273685
O O7 0.872455 0.163606 0.419446
O O8 0.500000 0.814364 0.193857
O O9 0.330269 0.840281 0.196449
O O10 0.398412 0.716481 0.118556
O O11 0.186428 0.090019 0.144451
O O12 0.318878 0.000000 0.175764
O O13 0.333778 0.098926 0.058348
O O14 0.000000 0.403630 0.634342
O O15 0.000000 0.896666 0.503378
O O16 0.888502 0.000000 0.451512
#
# Coordination Sequence:
#
# PCOD9369482 Si02
#       6
#    16  16  16  16  16  16
#     4  10  21  38  61  89 121 159 203 248 298 361
#     4  12  24  39  62  90 125 164 202 252 311 370
#     4  11  24  42  62  85 119 163 208 252 303 363
#     4  11  22  38  63  93 123 155 199 254 307 363
#     4  10  21  39  62  87 120 161 204 250 299 357
#     4  10  22  42  67  93 122 160 208 258 306 359
#
# _framework density 22.457501000000001
#
# number of rings (size 3 to 8) (size 9 to 14) (size 15 to 20)
#    0.000    1.333    0.000    6.000    0.000    6.000 
#    0.000    3.333    0.000    4.000    0.000    0.000 
#    0.000    0.000    0.000    0.000    0.000    0.000 
#
# Total GULP energy -133950.660136 kJ/mol
# GULP energy per Si atom -5581.277506 kJ/mol
# Density = 2.240639 g / cm^3
# Si number density = 22.457501 Si / 1000 Ang^3
#
#
#
# Elastic Constant Matrix: (Units=GPa)
#
#
# Indices 1 2 3 4 5 6 
#
# 1 134.0882 41.8205 14.5418 0.0000 0.0000 0.0000
# 2 41.8205 152.1812 43.4001 0.0000 0.0000 0.0000
# 3 14.5418 43.4001 51.3787 0.0000 0.0000 0.0000
# 4 0.0000 0.0000 0.0000 -13.4985 0.0000 0.0000
# 5 0.0000 0.0000 0.0000 0.0000 29.4100 0.0000
# 6 0.0000 0.0000 0.0000 0.0000 0.0000 9.7998
#
#
#
# Elastic Compliance Matrix: (Units=1/GPa)
#
#
# Indices 1 2 3 4 5 6 
#
# 1 0.008169 -0.002089 -0.000548 0.000000 0.000000 0.000000
# 2 -0.002089 0.009190 -0.007172 0.000000 0.000000 0.000000
# 3 -0.000548 -0.007172 0.025677 0.000000 0.000000 0.000000
# 4 0.000000 0.000000 0.000000 -0.074082 0.000000 0.000000
# 5 0.000000 0.000000 0.000000 0.000000 0.034002 0.000000
# 6 0.000000 0.000000 0.000000 0.000000 0.000000 0.102043
#
#
# Mechanical properties :
#
#
# Convention : Reuss Voigt Hill
#
# Bulk Modulus (GPa) = 42.70055 59.68587 51.19321
# Shear Modulus (GPa) = 37.75818 21.00130 29.37974
#
# Velocity S-wave (km/s) = 4.10483 3.06135 3.62088
# Velocity P-wave (km/s) = 6.44371 6.25546 6.35028
#
# Compressibility (1/GPa) = 0.02341890
#
# Stress axis : x y z
#
# Youngs Moduli (GPa) = 122.42021 108.80817 38.94571
#
# Poissons Ratio (x) = 0.22726 0.02133
# Poissons Ratio (y) = 0.25569 0.27933
# Poissons Ratio (z) = 0.06705 0.78039
#
# Static dielectric constant tensor:
#      x y z
#    x 1.818120 0.000000 0.000000 
#    y 0.000000 1.879840 0.000000 
#    z 0.000000 0.000000 1.821890 
# 
# From -- ./inp_files/25091.got.cif
#   From: 2010.05.17/outbox.cif.g08.bks.cpg/sg42_13_cif.got.tgz:25091.got - 2010.06.03 19:03:34.
