data_PCOD9369943
_publ_section_title
;
Structure prediction by ZEFSAII (Michael W. Deem and Ramdas Pophale) SiO2 
 PCOD9369943
Probable space group: F M M 2
;
_chemical_formula_sum "Si O2"
_cell_formula_units_Z 56
_cell_length_a 14.613291
_cell_length_b 13.773549
_cell_length_c 11.307836
_cell_angle_alpha 90.000000
_cell_angle_beta 90.000000
_cell_angle_gamma 90.000000
_cell_volume 2276.005946
_symmetry_space_group_name_H-M "F M M 2"
_symmetry_group_IT_number 42
_symmetry_cell_setting 'orthorhombic'
loop_
_space_group_symop_operation_xyz
x,y,z
-x,-y,z
-x,y,z
x,-y,z
x,1/2+y,1/2+z
-x,1/2-y,1/2+z
-x,1/2+y,1/2+z
x,1/2-y,1/2+z
1/2+x,y,1/2+z
1/2-x,-y,1/2+z
1/2-x,y,1/2+z
1/2+x,-y,1/2+z
1/2+x,1/2+y,z
1/2-x,1/2-y,z
1/2-x,1/2+y,z
1/2+x,1/2-y,z
loop_
_atom_site_type_symbol
_atom_site_label
_atom_site_fract_x
_atom_site_fract_y
_atom_site_fract_z
Si Si1 0.000000 0.107085 0.942441
Si Si2 0.282257 0.500000 0.207702
Si Si3 0.000000 0.794696 0.726070
Si Si4 0.000000 0.603362 0.880539
Si Si5 0.663624 0.500000 0.471387
Si Si6 0.155385 0.801326 0.091744
O O1 0.000000 0.109645 0.802082
O O2 0.091948 0.159053 0.986740
O O3 0.000000 0.000000 0.992780
O O4 0.271510 0.500000 0.352414
O O5 0.329983 0.603909 0.176489
O O6 0.207804 0.500000 0.100140
O O7 0.000000 0.702242 0.813924
O O8 0.092343 0.777057 0.656302
O O9 0.092699 0.589104 0.954254
O O10 0.000000 0.500000 0.807014
O O11 0.250000 0.750000 0.058693
#
# Coordination Sequence:
#
# PCOD9369943 Si02
#       6
#     8   8   8   8   8  16
#     4  11  26  50  77 110 150 209 256 337 392 483
#     4  12  22  44  70 116 152 206 256 334 388 477
#     4  11  23  45  75 105 151 197 267 323 398 476
#     4   8  17  39  66 101 137 210 245 316 392 487
#     4   9  22  36  72 101 154 194 266 308 406 463
#     4  11  26  45  76 111 152 204 263 327 403 476
#
# _framework density 24.604505
#
# number of rings (size 3 to 8) (size 9 to 14) (size 15 to 20)
#    0.857    0.571    4.286    0.000    4.000    3.429 
#    2.571    0.000    0.000    8.571    0.000    0.000 
#    0.000    0.000    0.000    0.000    0.000    0.000 
#
# Total GULP energy -78137.178420 kJ/mol
# GULP energy per Si atom -5581.227030 kJ/mol
# Density = 2.454850 g / cm^3
# Si number density = 24.604505 Si / 1000 Ang^3
#
#
#
# Elastic Constant Matrix: (Units=GPa)
#
#
# Indices 1 2 3 4 5 6 
#
# 1 178.0965 46.1640 73.4489 0.0000 0.0000 0.0000
# 2 46.1640 114.9868 42.4854 0.0000 0.0000 0.0000
# 3 73.4489 42.4854 109.2453 0.0000 0.0000 0.0000
# 4 0.0000 0.0000 0.0000 31.6483 0.0000 0.0000
# 5 0.0000 0.0000 0.0000 0.0000 16.6046 0.0000
# 6 0.0000 0.0000 0.0000 0.0000 0.0000 9.6718
#
#
#
# Elastic Compliance Matrix: (Units=1/GPa)
#
#
# Indices 1 2 3 4 5 6 
#
# 1 0.007964 -0.001423 -0.004801 0.000000 0.000000 0.000000
# 2 -0.001423 0.010410 -0.003092 0.000000 0.000000 0.000000
# 3 -0.004801 -0.003092 0.013584 0.000000 0.000000 0.000000
# 4 0.000000 0.000000 0.000000 0.031597 0.000000 0.000000
# 5 0.000000 0.000000 0.000000 0.000000 0.060224 0.000000
# 6 0.000000 0.000000 0.000000 0.000000 0.000000 0.103393
#
#
# Mechanical properties :
#
#
# Convention : Reuss Voigt Hill
#
# Bulk Modulus (GPa) = 75.03902 80.72502 77.88202
# Shear Modulus (GPa) = 19.98035 27.60030 23.79032
#
# Velocity S-wave (km/s) = 2.85276 3.35290 3.11289
# Velocity P-wave (km/s) = 6.43547 6.91878 6.68150
#
# Compressibility (1/GPa) = 0.01332640
#
# Stress axis : x y z
#
# Youngs Moduli (GPa) = 125.56883 96.05771 73.61781
#
# Poissons Ratio (x) = 0.13673 0.35342
# Poissons Ratio (y) = 0.17874 0.22759
# Poissons Ratio (z) = 0.60282 0.29697
#
# Static dielectric constant tensor:
#      x y z
#    x 1.973540 0.000000 0.000000 
#    y 0.000000 1.950790 0.000000 
#    z 0.000000 0.000000 2.007680 
# 
# From -- ./inp_files/7361.got.cif
#   From: 2010.05.17/outbox.cif.g08.bks.cpg/sg42_4_cif.got.tgz:7361.got - 2010.06.03 19:03:34.
