data_PCOD9369386
_publ_section_title
;
Structure prediction by ZEFSAII (Michael W. Deem and Ramdas Pophale) SiO2 
 PCOD9369386
Probable space group: F M M 2
;
_chemical_formula_sum "Si O2"
_cell_formula_units_Z 112
_cell_length_a 14.834159
_cell_length_b 24.117571
_cell_length_c 15.181747
_cell_angle_alpha 90.000000
_cell_angle_beta 90.000000
_cell_angle_gamma 90.000000
_cell_volume 5431.480756
_symmetry_space_group_name_H-M "F M M 2"
_symmetry_group_IT_number 42
_symmetry_cell_setting 'orthorhombic'
loop_
_space_group_symop_operation_xyz
x,y,z
-x,-y,z
-x,y,z
x,-y,z
x,1/2+y,1/2+z
-x,1/2-y,1/2+z
-x,1/2+y,1/2+z
x,1/2-y,1/2+z
1/2+x,y,1/2+z
1/2-x,-y,1/2+z
1/2-x,y,1/2+z
1/2+x,-y,1/2+z
1/2+x,1/2+y,z
1/2-x,1/2-y,z
1/2-x,1/2+y,z
1/2+x,1/2-y,z
loop_
_atom_site_type_symbol
_atom_site_label
_atom_site_fract_x
_atom_site_fract_y
_atom_site_fract_z
Si Si1 0.644414 0.753373 0.286500
Si Si2 0.894987 0.843540 0.147670
Si Si3 0.220157 0.563166 0.735581
Si Si4 0.899305 0.120198 0.742789
Si Si5 0.608490 0.737091 0.995127
Si Si6 0.392005 0.060123 0.910745
Si Si7 0.892582 0.853548 0.546472
O O1 0.750000 0.750000 0.269022
O O2 0.605938 0.703180 0.226545
O O3 0.607774 0.813908 0.259960
O O4 0.631753 0.752743 0.392702
O O5 0.824854 0.892200 0.170258
O O6 0.000000 0.862232 0.141181
O O7 0.865458 0.815111 0.055289
O O8 0.232365 0.500000 0.702310
O O9 0.313586 0.586581 0.776658
O O10 0.149043 0.561446 0.814840
O O11 0.887131 0.114976 0.637854
O O12 0.000000 0.101909 0.769087
O O13 0.500000 0.734546 0.997708
O O14 0.643351 0.791473 0.046346
O O15 0.500000 0.065017 0.905074
O O16 0.372048 0.000000 0.951768
O O17 0.354231 0.109899 0.968407
O O18 0.000000 0.847541 0.530145
#
# Coordination Sequence:
#
# PCOD9369386 Si02
#       7
#    16  16  16  16  16  16  16
#     4  12  23  38  63  96 130 168 206 260 314 374
#     4  11  22  41  66  94 131 167 204 260 323 380
#     4  11  24  41  61  92 125 163 214 258 312 379
#     4  11  23  41  62  86 126 168 209 258 314 376
#     4  10  21  36  60  93 128 167 207 249 311 384
#     4   9  18  35  61  92 123 155 201 264 323 371
#     4   9  18  34  59  89 120 157 201 254 309 366
#
# _framework density 20.620528
#
# number of rings (size 3 to 8) (size 9 to 14) (size 15 to 20)
#    0.000    1.571    2.857    2.571    0.000    4.571 
#    0.000    1.429    0.000    0.000    0.000    2.000 
#    0.000    0.000    0.000    0.000    0.000    0.000 
#
# Total GULP energy -156153.976574 kJ/mol
# GULP energy per Si atom -5576.927735 kJ/mol
# Density = 2.057360 g / cm^3
# Si number density = 20.620528 Si / 1000 Ang^3
#
#
#
# Elastic Constant Matrix: (Units=GPa)
#
#
# Indices 1 2 3 4 5 6 
#
# 1 79.7267 29.2921 -16.0931 0.0000 0.0000 0.0000
# 2 29.2921 88.1542 3.9240 0.0000 0.0000 0.0000
# 3 -16.0931 3.9240 44.6298 0.0000 0.0000 0.0000
# 4 0.0000 0.0000 0.0000 29.1560 0.0000 0.0000
# 5 0.0000 0.0000 0.0000 0.0000 8.1394 0.0000
# 6 0.0000 0.0000 0.0000 0.0000 0.0000 11.2849
#
#
#
# Elastic Compliance Matrix: (Units=1/GPa)
#
#
# Indices 1 2 3 4 5 6 
#
# 1 0.015826 -0.005535 0.006193 0.000000 0.000000 0.000000
# 2 -0.005535 0.013324 -0.003167 0.000000 0.000000 0.000000
# 3 0.006193 -0.003167 0.024918 0.000000 0.000000 0.000000
# 4 0.000000 0.000000 0.000000 0.034298 0.000000 0.000000
# 5 0.000000 0.000000 0.000000 0.000000 0.122859 0.000000
# 6 0.000000 0.000000 0.000000 0.000000 0.000000 0.088614
#
#
# Mechanical properties :
#
#
# Convention : Reuss Voigt Hill
#
# Bulk Modulus (GPa) = 20.38650 27.41742 23.90196
# Shear Modulus (GPa) = 15.56629 22.74192 19.15410
#
# Velocity S-wave (km/s) = 2.75051 3.32456 3.05107
# Velocity P-wave (km/s) = 4.47158 5.29736 4.90189
#
# Compressibility (1/GPa) = 0.04905208
#
# Stress axis : x y z
#
# Youngs Moduli (GPa) = 63.18533 75.05383 40.13113
#
# Poissons Ratio (x) = 0.41539 -0.24855
# Poissons Ratio (y) = 0.34970 0.12710
# Poissons Ratio (z) = -0.39134 0.23771
#
# Static dielectric constant tensor:
#      x y z
#    x 1.760200 0.000000 0.000000 
#    y 0.000000 1.794160 0.000000 
#    z 0.000000 0.000000 1.759880 
# 
# From -- ./inp_files/14226.got.cif
#   From: 2010.05.17/outbox.cif.g08.bks.cpg/sg42_8_cif.got.tgz:14226.got - 2010.06.03 19:03:34.
