data_PCOD9369537
_publ_section_title
;
Structure prediction by ZEFSAII (Michael W. Deem and Ramdas Pophale) SiO2 
 PCOD9369537
Probable space group: F M M 2
;
_chemical_formula_sum "Si O2"
_cell_formula_units_Z 112
_cell_length_a 14.580783
_cell_length_b 27.461444
_cell_length_c 13.762535
_cell_angle_alpha 90.000000
_cell_angle_beta 90.000000
_cell_angle_gamma 90.000000
_cell_volume 5510.647774
_symmetry_space_group_name_H-M "F M M 2"
_symmetry_group_IT_number 42
_symmetry_cell_setting 'orthorhombic'
loop_
_space_group_symop_operation_xyz
x,y,z
-x,-y,z
-x,y,z
x,-y,z
x,1/2+y,1/2+z
-x,1/2-y,1/2+z
-x,1/2+y,1/2+z
x,1/2-y,1/2+z
1/2+x,y,1/2+z
1/2-x,-y,1/2+z
1/2-x,y,1/2+z
1/2+x,-y,1/2+z
1/2+x,1/2+y,z
1/2-x,1/2-y,z
1/2-x,1/2+y,z
1/2+x,1/2-y,z
loop_
_atom_site_type_symbol
_atom_site_label
_atom_site_fract_x
_atom_site_fract_y
_atom_site_fract_z
Si Si1 0.102651 0.558348 0.665060
Si Si2 0.100235 0.810614 0.975089
Si Si3 0.608819 0.149589 0.933494
Si Si4 0.610887 0.272035 0.596001
Si Si5 0.707169 0.444032 0.357415
Si Si6 0.391255 0.915620 0.440199
Si Si7 0.645032 0.759264 0.812664
O O1 0.099074 0.500000 0.660334
O O2 0.176599 0.569861 0.747717
O O3 0.121316 0.574709 0.555199
O O4 0.000000 0.575960 0.693649
O O5 0.137210 0.859243 0.928800
O O6 0.090634 0.771353 0.891377
O O7 0.000000 0.825941 0.014223
O O8 0.150789 0.779427 0.056125
O O9 0.500000 0.140778 0.942068
O O10 0.660409 0.098155 0.922607
O O11 0.623938 0.184462 0.838308
O O12 0.638976 0.182466 0.027666
O O13 0.500000 0.270286 0.583659
O O14 0.628441 0.266344 0.709593
O O15 0.674581 0.500000 0.375426
O O16 0.816063 0.443664 0.377559
O O17 0.500000 0.923860 0.417137
O O18 0.750000 0.750000 0.836905
#
# Coordination Sequence:
#
# PCOD9369537 Si02
#       7
#    16  16  16  16  16  16  16
#     4   9  19  37  62  90 117 152 205 262 313 365
#     4   9  19  36  55  80 114 153 200 246 295 367
#     4  10  22  40  60  87 124 164 207 254 310 372
#     4   9  19  36  57  82 115 159 199 241 299 367
#     4  11  23  39  62  93 126 160 208 268 317 368
#     4  10  21  39  64  91 123 164 208 259 320 380
#     4  11  21  33  56  87 122 158 197 250 303 365
#
# _framework density 20.324290000000001
#
# number of rings (size 3 to 8) (size 9 to 14) (size 15 to 20)
#    0.000    2.143    0.000    3.857    2.000    5.143 
#    2.571    0.000    0.000    0.857    0.000    4.000 
#    0.000    0.000    0.000    0.000    0.000    0.000 
#
# Total GULP energy -155885.034801 kJ/mol
# GULP energy per Si atom -5567.322671 kJ/mol
# Density = 2.027803 g / cm^3
# Si number density = 20.324290 Si / 1000 Ang^3
#
#
#
# Elastic Constant Matrix: (Units=GPa)
#
#
# Indices 1 2 3 4 5 6 
#
# 1 115.9800 25.4512 34.6244 0.0000 0.0000 0.0000
# 2 25.4512 95.2647 6.2670 0.0000 0.0000 0.0000
# 3 34.6244 6.2670 77.7572 0.0000 0.0000 0.0000
# 4 0.0000 0.0000 0.0000 12.0229 0.0000 0.0000
# 5 0.0000 0.0000 0.0000 0.0000 43.3117 0.0000
# 6 0.0000 0.0000 0.0000 0.0000 0.0000 26.1602
#
#
#
# Elastic Compliance Matrix: (Units=1/GPa)
#
#
# Indices 1 2 3 4 5 6 
#
# 1 0.010510 -0.002513 -0.004478 0.000000 0.000000 0.000000
# 2 -0.002513 0.011154 0.000220 0.000000 0.000000 0.000000
# 3 -0.004478 0.000220 0.014837 0.000000 0.000000 0.000000
# 4 0.000000 0.000000 0.000000 0.083174 0.000000 0.000000
# 5 0.000000 0.000000 0.000000 0.000000 0.023088 0.000000
# 6 0.000000 0.000000 0.000000 0.000000 0.000000 0.038226
#
#
# Mechanical properties :
#
#
# Convention : Reuss Voigt Hill
#
# Bulk Modulus (GPa) = 43.55497 46.85413 45.20455
# Shear Modulus (GPa) = 24.72985 31.14293 27.93639
#
# Velocity S-wave (km/s) = 3.49200 3.91871 3.71149
# Velocity P-wave (km/s) = 6.14290 6.60139 6.37627
#
# Compressibility (1/GPa) = 0.02295949
#
# Stress axis : x y z
#
# Youngs Moduli (GPa) = 95.14315 89.65324 67.40074
#
# Poissons Ratio (x) = 0.22534 0.30179
# Poissons Ratio (y) = 0.23914 -0.01484
# Poissons Ratio (z) = 0.42601 -0.01974
#
# Static dielectric constant tensor:
#      x y z
#    x 1.769390 0.000000 0.000000 
#    y 0.000000 1.760490 0.000000 
#    z 0.000000 0.000000 1.742200 
# 
# From -- ./inp_files/14403.got.cif
#   From: 2010.05.17/outbox.cif.g08.bks.cpg/sg42_8_cif.got.tgz:14403.got - 2010.06.03 19:03:34.
