data_PCOD9369018
_publ_section_title
;
Structure prediction by ZEFSAII (Michael W. Deem and Ramdas Pophale) SiO2 
 PCOD9369018
Probable space group: F M M 2
;
_chemical_formula_sum "Si O2"
_cell_formula_units_Z 80
_cell_length_a 23.623518
_cell_length_b 8.683435
_cell_length_c 20.846505
_cell_angle_alpha 90.000000
_cell_angle_beta 90.000000
_cell_angle_gamma 90.000000
_cell_volume 4276.312010
_symmetry_space_group_name_H-M "F M M 2"
_symmetry_group_IT_number 42
_symmetry_cell_setting 'orthorhombic'
loop_
_space_group_symop_operation_xyz
x,y,z
-x,-y,z
-x,y,z
x,-y,z
x,1/2+y,1/2+z
-x,1/2-y,1/2+z
-x,1/2+y,1/2+z
x,1/2-y,1/2+z
1/2+x,y,1/2+z
1/2-x,-y,1/2+z
1/2-x,y,1/2+z
1/2+x,-y,1/2+z
1/2+x,1/2+y,z
1/2-x,1/2-y,z
1/2-x,1/2+y,z
1/2+x,1/2-y,z
loop_
_atom_site_type_symbol
_atom_site_label
_atom_site_fract_x
_atom_site_fract_y
_atom_site_fract_z
Si Si1 0.000000 0.186310 0.210351
Si Si2 0.687776 0.685049 0.277104
Si Si3 0.383097 0.186161 0.901390
Si Si4 0.500000 0.683236 0.856291
Si Si5 0.120071 0.813865 0.150556
Si Si6 0.313918 0.184711 0.028720
O O1 0.943790 0.230299 0.170725
O O2 0.000000 0.251137 0.283016
O O3 0.000000 0.000000 0.217047
O O4 0.689781 0.500000 0.277661
O O5 0.750000 0.750000 0.282211
O O6 0.650616 0.733683 0.337610
O O7 0.658649 0.732434 0.210975
O O8 0.444821 0.258100 0.894089
O O9 0.388579 0.000000 0.901649
O O10 0.346367 0.230840 0.963329
O O11 0.500000 0.500000 0.852510
O O12 0.147449 0.741777 0.087525
O O13 0.121279 0.000000 0.144396
O O14 0.250000 0.250000 0.031887
O O15 0.309999 0.000000 0.030172
#
# Coordination Sequence:
#
# PCOD9369018 Si02
#       6
#     8  16  16   8  16  16
#     4  10  20  41  66  87 121 165 203 247 302 362
#     4  10  20  35  58  85 114 154 202 248 297 355
#     4  10  22  42  63  84 119 166 204 242 302 365
#     4  12  24  37  62  97 125 153 197 259 306 354
#     4  10  21  38  63  89 119 162 203 248 303 359
#     4  11  24  41  63  89 124 164 202 252 303 359
#
# _framework density 18.707709000000001
#
# number of rings (size 3 to 8) (size 9 to 14) (size 15 to 20)
#    0.000    1.600    2.000    2.700    0.000    6.400 
#    0.000    2.000    0.000    0.000    0.000    0.000 
#    0.000    0.000    0.000    0.000    0.000    0.000 
#
# Total GULP energy -111732.882288 kJ/mol
# GULP energy per Si atom -5586.644114 kJ/mol
# Density = 1.866513 g / cm^3
# Si number density = 18.707709 Si / 1000 Ang^3
#
#
#
# Elastic Constant Matrix: (Units=GPa)
#
#
# Indices 1 2 3 4 5 6 
#
# 1 145.3423 35.5259 39.7445 0.0000 0.0000 0.0000
# 2 35.5259 25.9324 33.7760 0.0000 0.0000 0.0000
# 3 39.7445 33.7760 117.4671 0.0000 0.0000 0.0000
# 4 0.0000 0.0000 0.0000 22.2511 0.0000 0.0000
# 5 0.0000 0.0000 0.0000 0.0000 -2.9007 0.0000
# 6 0.0000 0.0000 0.0000 0.0000 0.0000 26.2152
#
#
#
# Elastic Compliance Matrix: (Units=1/GPa)
#
#
# Indices 1 2 3 4 5 6 
#
# 1 0.010406 -0.015460 0.000924 0.000000 0.000000 0.000000
# 2 -0.015460 0.084619 -0.019100 0.000000 0.000000 0.000000
# 3 0.000924 -0.019100 0.013692 0.000000 0.000000 0.000000
# 4 0.000000 0.000000 0.000000 0.044942 0.000000 0.000000
# 5 0.000000 0.000000 0.000000 0.000000 -0.344746 0.000000
# 6 0.000000 0.000000 0.000000 0.000000 0.000000 0.038146
#
#
# Mechanical properties :
#
#
# Convention : Reuss Voigt Hill
#
# Bulk Modulus (GPa) = 24.12804 56.31497 40.22150
# Shear Modulus (GPa) = -69.58565 21.09281 -24.24642
#
# Velocity S-wave (km/s) = -6.10549 3.36146 -3.60400
# Velocity P-wave (km/s) = 6.06443 6.72561 2.05627
#
# Compressibility (1/GPa) = 0.04144556
#
# Stress axis : x y z
#
# Youngs Moduli (GPa) = 96.09388 11.81772 73.03440
#
# Poissons Ratio (x) = 0.18271 -0.06751
# Poissons Ratio (y) = 1.48564 1.39496
# Poissons Ratio (z) = -0.08883 0.22572
#
# Static dielectric constant tensor:
#      x y z
#    x 1.657910 0.000000 0.000000 
#    y 0.000000 1.637770 0.000000 
#    z 0.000000 0.000000 1.624810 
# 
# From -- ./inp_files/23465.got.cif
#   From: 2010.05.17/outbox.cif.g08.bks.cpg/sg42_12_cif.got.tgz:23465.got - 2010.06.03 19:03:34.
