data_PCOD9369543
_publ_section_title
;
Structure prediction by ZEFSAII (Michael W. Deem and Ramdas Pophale) SiO2 
 PCOD9369543
Probable space group: F M M 2
;
_chemical_formula_sum "Si O2"
_cell_formula_units_Z 112
_cell_length_a 14.182852
_cell_length_b 14.301160
_cell_length_c 27.505624
_cell_angle_alpha 90.000000
_cell_angle_beta 90.000000
_cell_angle_gamma 90.000000
_cell_volume 5578.999705
_symmetry_space_group_name_H-M "F M M 2"
_symmetry_group_IT_number 42
_symmetry_cell_setting 'orthorhombic'
loop_
_space_group_symop_operation_xyz
x,y,z
-x,-y,z
-x,y,z
x,-y,z
x,1/2+y,1/2+z
-x,1/2-y,1/2+z
-x,1/2+y,1/2+z
x,1/2-y,1/2+z
1/2+x,y,1/2+z
1/2-x,-y,1/2+z
1/2-x,y,1/2+z
1/2+x,-y,1/2+z
1/2+x,1/2+y,z
1/2-x,1/2-y,z
1/2-x,1/2+y,z
1/2+x,1/2-y,z
loop_
_atom_site_type_symbol
_atom_site_label
_atom_site_fract_x
_atom_site_fract_y
_atom_site_fract_z
Si Si1 0.272640 0.651566 0.386750
Si Si2 0.111138 0.238363 0.210653
Si Si3 0.893859 0.388562 0.461538
Si Si4 0.109627 0.398129 0.797593
Si Si5 0.607507 0.110586 0.974315
Si Si6 0.267906 0.888618 0.549687
Si Si7 0.750829 0.112322 0.161742
O O1 0.250000 0.750000 0.363888
O O2 0.180368 0.620293 0.416948
O O3 0.320975 0.597268 0.343275
O O4 0.350312 0.664840 0.428919
O O5 0.127197 0.192826 0.264107
O O6 0.148014 0.151328 0.178615
O O7 0.174137 0.327392 0.193248
O O8 0.000000 0.257387 0.205158
O O9 0.901210 0.500000 0.468407
O O10 0.847281 0.350678 0.511963
O O11 0.000000 0.352708 0.452752
O O12 0.118892 0.500000 0.771598
O O13 0.000000 0.391863 0.813781
O O14 0.500000 0.130519 0.983649
O O15 0.617782 0.000000 0.961425
O O16 0.671620 0.126451 0.020642
O O17 0.250211 0.859858 0.604866
O O18 0.285473 0.000000 0.552920
O O19 0.738664 0.000000 0.166870
#
# Coordination Sequence:
#
# PCOD9369543 Si02
#       7
#    16  16  16  16  16  16  16
#     4  11  22  33  53  83 121 154 188 239 299 366
#     4  10  23  41  62  92 124 155 206 266 316 371
#     4   9  18  35  57  81 115 159 202 239 282 349
#     4  10  21  40  66  89 111 148 199 257 317 371
#     4   9  17  33  57  82 110 148 197 244 285 343
#     4   8  16  32  55  85 115 152 198 243 291 354
#     4  10  21  39  65  91 125 166 208 256 315 372
#
# _framework density 20.075282999999999
#
# number of rings (size 3 to 8) (size 9 to 14) (size 15 to 20)
#    0.000    2.429    0.000    3.000    2.000    4.571 
#   10.286    2.857    0.000    0.000    0.000    0.000 
#    0.000    0.000    0.000    0.000    0.000    0.000 
#
# Total GULP energy -155890.733930 kJ/mol
# GULP energy per Si atom -5567.526212 kJ/mol
# Density = 2.002959 g / cm^3
# Si number density = 20.075283 Si / 1000 Ang^3
#
#
#
# Elastic Constant Matrix: (Units=GPa)
#
#
# Indices 1 2 3 4 5 6 
#
# 1 122.7114 16.4809 59.2222 0.0000 0.0000 0.0000
# 2 16.4809 101.6556 33.5643 0.0000 0.0000 0.0000
# 3 59.2222 33.5643 105.2872 0.0000 0.0000 0.0000
# 4 0.0000 0.0000 0.0000 -14.5620 0.0000 0.0000
# 5 0.0000 0.0000 0.0000 0.0000 4.7607 0.0000
# 6 0.0000 0.0000 0.0000 0.0000 0.0000 22.3100
#
#
#
# Elastic Compliance Matrix: (Units=1/GPa)
#
#
# Indices 1 2 3 4 5 6 
#
# 1 0.011194 0.000295 -0.006390 0.000000 0.000000 0.000000
# 2 0.000295 0.011002 -0.003673 0.000000 0.000000 0.000000
# 3 -0.006390 -0.003673 0.014263 0.000000 0.000000 0.000000
# 4 0.000000 0.000000 0.000000 -0.068672 0.000000 0.000000
# 5 0.000000 0.000000 0.000000 0.000000 0.210055 0.000000
# 6 0.000000 0.000000 0.000000 0.000000 0.000000 0.044823
#
#
# Mechanical properties :
#
#
# Convention : Reuss Voigt Hill
#
# Bulk Modulus (GPa) = 59.09462 60.90989 60.00225
# Shear Modulus (GPa) = 20.17413 17.19420 18.68416
#
# Velocity S-wave (km/s) = 3.17349 2.92975 3.05406
# Velocity P-wave (km/s) = 6.55198 6.46925 6.51075
#
# Compressibility (1/GPa) = 0.01692202
#
# Stress axis : x y z
#
# Youngs Moduli (GPa) = 89.33673 90.89143 70.11005
#
# Poissons Ratio (x) = -0.02683 0.44802
# Poissons Ratio (y) = -0.02637 0.25754
# Poissons Ratio (z) = 0.57089 0.33388
#
# Static dielectric constant tensor:
#      x y z
#    x 1.706720 0.000000 0.000000 
#    y 0.000000 1.857000 0.000000 
#    z 0.000000 0.000000 1.714280 
# 
# From -- ./inp_files/32617.got.cif
#   From: 2010.05.17/outbox.cif.g08.bks.cpg/sg42_17_cif.got.tgz:32617.got - 2010.06.03 19:03:34.
