data_PCOD9369339
_publ_section_title
;
Structure prediction by ZEFSAII (Michael W. Deem and Ramdas Pophale) SiO2 
 PCOD9369339
Probable space group: F M M 2
;
_chemical_formula_sum "Si O2"
_cell_formula_units_Z 116
_cell_length_a 14.835673
_cell_length_b 17.821658
_cell_length_c 24.513897
_cell_angle_alpha 90.000000
_cell_angle_beta 90.000000
_cell_angle_gamma 90.000000
_cell_volume 6481.383430
_symmetry_space_group_name_H-M "F M M 2"
_symmetry_group_IT_number 42
_symmetry_cell_setting 'orthorhombic'
loop_
_space_group_symop_operation_xyz
x,y,z
-x,-y,z
-x,y,z
x,-y,z
x,1/2+y,1/2+z
-x,1/2-y,1/2+z
-x,1/2+y,1/2+z
x,1/2-y,1/2+z
1/2+x,y,1/2+z
1/2-x,-y,1/2+z
1/2-x,y,1/2+z
1/2+x,-y,1/2+z
1/2+x,1/2+y,z
1/2-x,1/2-y,z
1/2-x,1/2+y,z
1/2+x,1/2-y,z
loop_
_atom_site_type_symbol
_atom_site_label
_atom_site_fract_x
_atom_site_fract_y
_atom_site_fract_z
Si Si1 0.000000 0.500000 0.250000
Si Si2 0.893020 0.151771 0.545864
Si Si3 0.892450 0.411673 0.447827
Si Si4 0.187341 0.082740 0.751677
Si Si5 0.751712 0.088647 0.629995
Si Si6 0.239345 0.661538 0.360473
Si Si7 0.893595 0.171398 0.061727
Si Si8 0.394481 0.589366 0.426618
O O1 0.919214 0.435754 0.250205
O O2 0.834685 0.107564 0.589936
O O3 0.876196 0.240470 0.552720
O O4 0.868965 0.125782 0.484825
O O5 0.000000 0.137770 0.553179
O O6 0.869362 0.500000 0.449191
O O7 0.837470 0.371007 0.400551
O O8 0.872820 0.373120 0.505809
O O9 0.000000 0.405513 0.438197
O O10 0.220218 0.105987 0.691891
O O11 0.213894 0.138601 0.799315
O O12 0.229111 0.000000 0.764284
O O13 0.668166 0.137098 0.608633
O O14 0.731652 0.000000 0.626383
O O15 0.250000 0.750000 0.366798
O O16 0.331268 0.622504 0.380243
O O17 0.000000 0.161887 0.072917
O O18 0.500000 0.605682 0.417119
O O19 0.383238 0.500000 0.430668
#
# Coordination Sequence:
#
# PCOD9369339 Si02
#       8
#     4  16  16  16  16  16  16  16
#     4   8  20  44  68  88 106 144 194 264 288 322
#     4  10  21  35  58  85 115 153 192 237 291 343
#     4  10  21  36  61  87 113 150 198 246 289 333
#     4   9  22  40  63  86 111 142 192 241 290 333
#     4  11  22  36  60  84 113 149 189 241 289 342
#     4  12  24  37  57  86 119 150 186 235 298 354
#     4  10  21  38  55  84 122 156 191 234 286 345
#     4  10  21  39  58  81 115 157 198 237 278 341
#
# _framework density 17.897413
#
# number of rings (size 3 to 8) (size 9 to 14) (size 15 to 20)
#    0.414    1.379    0.000    4.138    1.931    4.414 
#    0.000    0.690    0.000    0.828    0.000    0.000 
#    0.000    0.000    0.000    0.000    0.000    0.000 
#
# Total GULP energy -161686.061821 kJ/mol
# GULP energy per Si atom -5575.381442 kJ/mol
# Density = 1.785668 g / cm^3
# Si number density = 17.897413 Si / 1000 Ang^3
#
#
#
# Elastic Constant Matrix: (Units=GPa)
#
#
# Indices 1 2 3 4 5 6 
#
# 1 74.6597 37.6322 53.3131 0.0000 0.0000 0.0000
# 2 37.6322 70.0307 38.5842 0.0000 0.0000 0.0000
# 3 53.3131 38.5842 90.6264 0.0000 0.0000 0.0000
# 4 0.0000 0.0000 0.0000 100.2393 0.0000 0.0000
# 5 0.0000 0.0000 0.0000 0.0000 -31.9228 0.0000
# 6 0.0000 0.0000 0.0000 0.0000 0.0000 29.7801
#
#
#
# Elastic Compliance Matrix: (Units=1/GPa)
#
#
# Indices 1 2 3 4 5 6 
#
# 1 0.025552 -0.007119 -0.012001 0.000000 0.000000 0.000000
# 2 -0.007119 0.020639 -0.004599 0.000000 0.000000 0.000000
# 3 -0.012001 -0.004599 0.020052 0.000000 0.000000 0.000000
# 4 0.000000 0.000000 0.000000 0.009976 0.000000 0.000000
# 5 0.000000 0.000000 0.000000 0.000000 -0.031326 0.000000
# 6 0.000000 0.000000 0.000000 0.000000 0.000000 0.033580
#
#
# Mechanical properties :
#
#
# Convention : Reuss Voigt Hill
#
# Bulk Modulus (GPa) = 53.17599 54.93064 54.05331
# Shear Modulus (GPa) = 37.82773 26.67182 32.24977
#
# Velocity S-wave (km/s) = 4.60236 3.86458 4.24951
# Velocity P-wave (km/s) = 7.61698 7.11842 7.37191
#
# Compressibility (1/GPa) = 0.01880548
#
# Stress axis : x y z
#
# Youngs Moduli (GPa) = 39.13630 48.45242 49.87028
#
# Poissons Ratio (x) = 0.34492 0.59847
# Poissons Ratio (y) = 0.27860 0.22936
# Poissons Ratio (z) = 0.46966 0.22284
#
# Static dielectric constant tensor:
#      x y z
#    x 1.616100 0.000000 0.000000 
#    y 0.000000 1.598780 0.000000 
#    z 0.000000 0.000000 1.587880 
# 
# From -- ./inp_files/29630.got.cif
#   From: 2010.05.17/outbox.cif.g08.bks.cpg/sg42_15_cif.got.tgz:29630.got - 2010.06.03 19:03:34.
