data_PCOD9369917
_publ_section_title
;
Structure prediction by ZEFSAII (Michael W. Deem and Ramdas Pophale) SiO2 
 PCOD9369917
Probable space group: F M M 2
;
_chemical_formula_sum "Si O2"
_cell_formula_units_Z 112
_cell_length_a 31.296016
_cell_length_b 14.169232
_cell_length_c 13.565816
_cell_angle_alpha 90.000000
_cell_angle_beta 90.000000
_cell_angle_gamma 90.000000
_cell_volume 6015.632384
_symmetry_space_group_name_H-M "F M M 2"
_symmetry_group_IT_number 42
_symmetry_cell_setting 'orthorhombic'
loop_
_space_group_symop_operation_xyz
x,y,z
-x,-y,z
-x,y,z
x,-y,z
x,1/2+y,1/2+z
-x,1/2-y,1/2+z
-x,1/2+y,1/2+z
x,1/2-y,1/2+z
1/2+x,y,1/2+z
1/2-x,-y,1/2+z
1/2-x,y,1/2+z
1/2+x,-y,1/2+z
1/2+x,1/2+y,z
1/2-x,1/2-y,z
1/2-x,1/2+y,z
1/2+x,1/2-y,z
loop_
_atom_site_type_symbol
_atom_site_label
_atom_site_fract_x
_atom_site_fract_y
_atom_site_fract_z
Si Si1 0.371454 0.388861 0.097900
Si Si2 0.046560 0.113456 0.448386
Si Si3 0.278456 0.389371 0.077718
Si Si4 0.188173 0.113785 0.676479
Si Si5 0.296499 0.281167 0.872862
Si Si6 0.454086 0.114108 0.717894
Si Si7 0.135590 0.204489 0.498118
O O1 0.376304 0.500000 0.074088
O O2 0.322921 0.376738 0.137435
O O3 0.410165 0.357253 0.167131
O O4 0.373299 0.316565 0.007689
O O5 0.046683 0.138410 0.332584
O O6 0.090259 0.154868 0.488407
O O7 0.000000 0.144043 0.489317
O O8 0.048088 0.000000 0.456288
O O9 0.275127 0.500000 0.054161
O O10 0.235994 0.364208 0.136266
O O11 0.284445 0.335491 0.974794
O O12 0.183633 0.155465 0.786161
O O13 0.157471 0.163150 0.596601
O O14 0.182684 0.000000 0.676419
O O15 0.250000 0.250000 0.835609
O O16 0.329753 0.200178 0.909229
O O17 0.500000 0.147089 0.675718
O O18 0.454413 0.000000 0.712285
#
# Coordination Sequence:
#
# PCOD9369917 Si02
#       7
#    16  16  16  16  16  16  16
#     4   9  19  33  53  80 114 147 186 238 293 345
#     4   9  19  37  59  85 117 148 189 249 304 350
#     4   9  19  38  55  77 111 156 202 242 289 352
#     4  11  24  40  58  83 118 159 202 246 295 354
#     4  11  23  36  57  82 120 155 195 248 297 345
#     4   8  15  30  53  80 108 139 179 234 293 343
#     4  11  23  37  61  87 116 154 205 244 289 363
#
# _framework density 18.61816
#
# number of rings (size 3 to 8) (size 9 to 14) (size 15 to 20)
#    0.000    2.286    1.429    1.714    6.000    1.143 
#    0.000    0.000    0.000    0.000    0.000    0.000 
#    0.000    0.000    0.000    0.000    0.000    0.000 
#
# Total GULP energy -155896.431611 kJ/mol
# GULP energy per Si atom -5567.729700 kJ/mol
# Density = 1.857578 g / cm^3
# Si number density = 18.618160 Si / 1000 Ang^3
#
#
#
# Elastic Constant Matrix: (Units=GPa)
#
#
# Indices 1 2 3 4 5 6 
#
# 1 156.4918 35.9269 41.7567 0.0000 0.0000 0.0000
# 2 35.9269 56.8375 25.7060 0.0000 0.0000 0.0000
# 3 41.7567 25.7060 72.4289 0.0000 0.0000 0.0000
# 4 0.0000 0.0000 0.0000 22.2604 0.0000 0.0000
# 5 0.0000 0.0000 0.0000 0.0000 16.1048 0.0000
# 6 0.0000 0.0000 0.0000 0.0000 0.0000 23.6815
#
#
#
# Elastic Compliance Matrix: (Units=1/GPa)
#
#
# Indices 1 2 3 4 5 6 
#
# 1 0.008125 -0.003594 -0.003408 0.000000 0.000000 0.000000
# 2 -0.003594 0.022548 -0.005931 0.000000 0.000000 0.000000
# 3 -0.003408 -0.005931 0.017877 0.000000 0.000000 0.000000
# 4 0.000000 0.000000 0.000000 0.044923 0.000000 0.000000
# 5 0.000000 0.000000 0.000000 0.000000 0.062093 0.000000
# 6 0.000000 0.000000 0.000000 0.000000 0.000000 0.042227
#
#
# Mechanical properties :
#
#
# Convention : Reuss Voigt Hill
#
# Bulk Modulus (GPa) = 44.08568 54.72637 49.40603
# Shear Modulus (GPa) = 21.62448 24.56726 23.09587
#
# Velocity S-wave (km/s) = 3.41174 3.63648 3.52590
# Velocity P-wave (km/s) = 6.26500 6.86220 6.57039
#
# Compressibility (1/GPa) = 0.02268310
#
# Stress axis : x y z
#
# Youngs Moduli (GPa) = 123.08126 44.34979 55.93927
#
# Poissons Ratio (x) = 0.15940 0.19067
# Poissons Ratio (y) = 0.44236 0.33175
# Poissons Ratio (z) = 0.41952 0.26302
#
# Static dielectric constant tensor:
#      x y z
#    x 1.719130 0.000000 0.000000 
#    y 0.000000 1.661270 0.000000 
#    z 0.000000 0.000000 1.639080 
# 
# From -- ./inp_files/8120.got.cif
#   From: 2010.05.17/outbox.cif.g08.bks.cpg/sg42_5_cif.got.tgz:8120.got - 2010.06.03 19:03:34.
