data_PCOD9369699
_publ_section_title
;
Structure prediction by ZEFSAII (Michael W. Deem and Ramdas Pophale) SiO2 
 PCOD9369699
Probable space group: F M M 2
;
_chemical_formula_sum "Si O2"
_cell_formula_units_Z 96
_cell_length_a 18.017787
_cell_length_b 9.866696
_cell_length_c 27.970625
_cell_angle_alpha 90.000000
_cell_angle_beta 90.000000
_cell_angle_gamma 90.000000
_cell_volume 4972.506583
_symmetry_space_group_name_H-M "F M M 2"
_symmetry_group_IT_number 42
_symmetry_cell_setting 'orthorhombic'
loop_
_space_group_symop_operation_xyz
x,y,z
-x,-y,z
-x,y,z
x,-y,z
x,1/2+y,1/2+z
-x,1/2-y,1/2+z
-x,1/2+y,1/2+z
x,1/2-y,1/2+z
1/2+x,y,1/2+z
1/2-x,-y,1/2+z
1/2-x,y,1/2+z
1/2+x,-y,1/2+z
1/2+x,1/2+y,z
1/2-x,1/2-y,z
1/2-x,1/2+y,z
1/2+x,1/2-y,z
loop_
_atom_site_type_symbol
_atom_site_label
_atom_site_fract_x
_atom_site_fract_y
_atom_site_fract_z
Si Si1 0.912133 0.000000 0.154680
Si Si2 0.688919 0.000000 0.741636
Si Si3 0.412125 0.656375 0.902915
Si Si4 0.587248 0.500000 0.772390
Si Si5 0.167674 0.259645 0.817471
Si Si6 0.325018 0.163777 0.501518
Si Si7 0.338989 0.752695 0.103058
Si Si8 0.341385 0.000000 0.175251
O O1 0.875767 0.127616 0.129299
O O2 0.882874 0.000000 0.208405
O O3 0.000000 0.000000 0.151236
O O4 0.681348 0.127586 0.776964
O O5 0.762368 0.000000 0.706261
O O6 0.500000 0.663221 0.907447
O O7 0.393317 0.500000 0.886927
O O8 0.384835 0.765435 0.863872
O O9 0.373864 0.673702 0.954024
O O10 0.500000 0.500000 0.786718
O O11 0.632295 0.630848 0.790523
O O12 0.595729 0.500000 0.715386
O O13 0.250000 0.250000 0.838987
O O14 0.250000 0.250000 0.493206
O O15 0.362703 0.235700 0.547703
O O16 0.312444 0.000000 0.511297
O O17 0.250000 0.750000 0.099542
O O18 0.350820 0.875838 0.139120
#
# Coordination Sequence:
#
# PCOD9369699 Si02
#       8
#     8   8  16   8  16  16  16   8
#     4  12  26  42  65 102 138 175 227 289 343 405
#     4  12  26  42  63 102 136 182 223 277 347 403
#     4  10  22  43  69  96 134 179 222 277 347 415
#     4  12  26  44  67  98 134 177 233 283 333 403
#     4  12  23  42  69 100 131 177 231 280 331 407
#     4  10  22  41  67 101 128 171 226 283 339 407
#     4  11  22  41  69  98 134 179 230 281 336 415
#     4  12  24  42  69  96 138 184 229 271 349 411
#
# _framework density 19.306159000000001
#
# number of rings (size 3 to 8) (size 9 to 14) (size 15 to 20)
#    0.000    0.833    5.000    2.000    3.500    4.000 
#    1.500    0.000    0.000    0.000    0.000    0.000 
#    0.000    0.000    0.000    0.000    0.000    0.000 
#
# Total GULP energy -133731.763248 kJ/mol
# GULP energy per Si atom -5572.156802 kJ/mol
# Density = 1.926222 g / cm^3
# Si number density = 19.306159 Si / 1000 Ang^3
#
#
#
# Elastic Constant Matrix: (Units=GPa)
#
#
# Indices 1 2 3 4 5 6 
#
# 1 98.5134 50.1866 41.2431 0.0000 0.0000 0.0000
# 2 50.1866 116.7205 61.4461 0.0000 0.0000 0.0000
# 3 41.2431 61.4461 147.3731 0.0000 0.0000 0.0000
# 4 0.0000 0.0000 0.0000 18.6784 0.0000 0.0000
# 5 0.0000 0.0000 0.0000 0.0000 32.2833 0.0000
# 6 0.0000 0.0000 0.0000 0.0000 0.0000 25.0145
#
#
#
# Elastic Compliance Matrix: (Units=1/GPa)
#
#
# Indices 1 2 3 4 5 6 
#
# 1 0.013329 -0.004827 -0.001718 0.000000 0.000000 0.000000
# 2 -0.004827 0.012725 -0.003955 0.000000 0.000000 0.000000
# 3 -0.001718 -0.003955 0.008915 0.000000 0.000000 0.000000
# 4 0.000000 0.000000 0.000000 0.053538 0.000000 0.000000
# 5 0.000000 0.000000 0.000000 0.000000 0.030976 0.000000
# 6 0.000000 0.000000 0.000000 0.000000 0.000000 0.039977
#
#
# Mechanical properties :
#
#
# Convention : Reuss Voigt Hill
#
# Bulk Modulus (GPa) = 71.57968 74.26207 72.92088
# Shear Modulus (GPa) = 27.01031 29.17732 28.09382
#
# Velocity S-wave (km/s) = 3.74445 3.89176 3.81881
# Velocity P-wave (km/s) = 7.47336 7.66442 7.56949
#
# Compressibility (1/GPa) = 0.01397044
#
# Stress axis : x y z
#
# Youngs Moduli (GPa) = 75.02431 78.58675 112.16965
#
# Poissons Ratio (x) = 0.37933 0.19267
# Poissons Ratio (y) = 0.36213 0.44360
# Poissons Ratio (z) = 0.12887 0.31079
#
# Static dielectric constant tensor:
#      x y z
#    x 1.643170 0.000000 0.000000 
#    y 0.000000 1.730220 0.000000 
#    z 0.000000 0.000000 1.719620 
# 
# From -- ./inp_files/29884.got.cif
#   From: 2010.05.17/outbox.cif.g08.bks.cpg/sg42_15_cif.got.tgz:29884.got - 2010.06.03 19:03:34.
