data_PCOD9369285
_publ_section_title
;
Structure prediction by ZEFSAII (Michael W. Deem and Ramdas Pophale) SiO2 
 PCOD9369285
Probable space group: F M M 2
;
_chemical_formula_sum "Si O2"
_cell_formula_units_Z 80
_cell_length_a 21.279031
_cell_length_b 22.523637
_cell_length_c 7.573483
_cell_angle_alpha 90.000000
_cell_angle_beta 90.000000
_cell_angle_gamma 90.000000
_cell_volume 3629.827793
_symmetry_space_group_name_H-M "F M M 2"
_symmetry_group_IT_number 42
_symmetry_cell_setting 'orthorhombic'
loop_
_space_group_symop_operation_xyz
x,y,z
-x,-y,z
-x,y,z
x,-y,z
x,1/2+y,1/2+z
-x,1/2-y,1/2+z
-x,1/2+y,1/2+z
x,1/2-y,1/2+z
1/2+x,y,1/2+z
1/2-x,-y,1/2+z
1/2-x,y,1/2+z
1/2+x,-y,1/2+z
1/2+x,1/2+y,z
1/2-x,1/2-y,z
1/2-x,1/2+y,z
1/2+x,1/2-y,z
loop_
_atom_site_type_symbol
_atom_site_label
_atom_site_fract_x
_atom_site_fract_y
_atom_site_fract_z
Si Si1 0.129039 0.368929 0.940310
Si Si2 0.368448 0.877847 0.353507
Si Si3 0.749427 0.815569 0.784392
Si Si4 0.697583 0.435535 0.156205
Si Si5 0.000000 0.189876 0.465966
Si Si6 0.500000 0.172217 0.386322
O O1 0.186398 0.322462 0.903726
O O2 0.148294 0.423263 0.813884
O O3 0.063573 0.338221 0.888732
O O4 0.124057 0.387541 0.144508
O O5 0.317889 0.824163 0.371374
O O6 0.337172 0.929059 0.469778
O O7 0.435406 0.860248 0.434333
O O8 0.750000 0.750000 0.702729
O O9 0.742287 0.877947 0.675820
O O10 0.727515 0.500000 0.173108
O O11 0.000000 0.175776 0.673661
O O12 0.000000 0.260474 0.450751
#
# Coordination Sequence:
#
# PCOD9369285 Si02
#       6
#    16  16  16  16   8   8
#     4   9  23  39  63  93 133 171 223 275 337 393
#     4  11  22  42  62  99 130 172 223 276 330 403
#     4  10  22  42  68  96 133 174 223 282 336 396
#     4  10  25  43  66  98 130 178 223 268 342 400
#     4  10  20  40  58  97 133 174 220 276 342 402
#     4  10  24  34  66  93 133 176 218 276 350 388
#
# _framework density 22.039612000000002
#
# number of rings (size 3 to 8) (size 9 to 14) (size 15 to 20)
#    1.200    0.800    0.000    2.400    2.800    6.400 
#    0.000    2.000    0.000    3.600    0.000    0.000 
#    0.000    0.000    0.000    0.000    0.000    0.000 
#
# Total GULP energy -111440.728970 kJ/mol
# GULP energy per Si atom -5572.036448 kJ/mol
# Density = 2.198945 g / cm^3
# Si number density = 22.039612 Si / 1000 Ang^3
#
#
#
# Elastic Constant Matrix: (Units=GPa)
#
#
# Indices 1 2 3 4 5 6 
#
# 1 142.1028 35.6373 13.3192 0.0006 0.0008 0.0006
# 2 35.6373 150.6001 29.4989 -0.0001 0.0007 0.0005
# 3 13.3192 29.4989 80.5338 -0.0006 0.0012 0.0007
# 4 0.0006 -0.0001 -0.0006 19.8375 -0.0009 -0.0008
# 5 0.0008 0.0007 0.0012 -0.0009 21.3651 0.0003
# 6 0.0006 0.0005 0.0007 -0.0008 0.0003 16.5358
#
#
#
# Elastic Compliance Matrix: (Units=1/GPa)
#
#
# Indices 1 2 3 4 5 6 
#
# 1 0.007511 -0.001653 -0.000637 0.000000 0.000000 0.000000
# 2 -0.001653 0.007517 -0.002480 0.000000 0.000000 0.000000
# 3 -0.000637 -0.002480 0.013431 0.000000 -0.000001 -0.000001
# 4 0.000000 0.000000 0.000000 0.050409 0.000002 0.000002
# 5 0.000000 0.000000 -0.000001 0.000002 0.046805 -0.000001
# 6 0.000000 0.000000 -0.000001 0.000002 -0.000001 0.060475
#
#
# Mechanical properties :
#
#
# Convention : Reuss Voigt Hill
#
# Bulk Modulus (GPa) = 52.85446 58.90526 55.87986
# Shear Modulus (GPa) = 24.75313 31.19978 27.97645
#
# Velocity S-wave (km/s) = 3.35493 3.76656 3.56669
# Velocity P-wave (km/s) = 6.24829 6.76025 6.50930
#
# Compressibility (1/GPa) = 0.01891988
#
# Stress axis : x y z
#
# Youngs Moduli (GPa) = 133.13226 133.03222 74.45508
#
# Poissons Ratio (x) = 0.21986 0.04742
# Poissons Ratio (y) = 0.22003 0.18465
# Poissons Ratio (z) = 0.08479 0.32993
#
# Static dielectric constant tensor:
#      x y z
#    x 1.844590 0.000000 0.000000 
#    y 0.000000 1.764340 0.000000 
#    z 0.000000 0.000000 1.943650 
# 
# From -- ./inp_files/3979.got.cif
#   From: 2010.05.17/outbox.cif.g08.bks.cpg/sg42_2_cif.got.tgz:3979.got - 2010.06.03 19:03:34.
