data_PCOD9369131
_publ_section_title
;
Structure prediction by ZEFSAII (Michael W. Deem and Ramdas Pophale) SiO2 
 PCOD9369131
Probable space group: F M M 2
;
_chemical_formula_sum "Si O2"
_cell_formula_units_Z 88
_cell_length_a 16.383708
_cell_length_b 7.767566
_cell_length_c 30.210374
_cell_angle_alpha 90.000000
_cell_angle_beta 90.000000
_cell_angle_gamma 90.000000
_cell_volume 3844.618514
_symmetry_space_group_name_H-M "F M M 2"
_symmetry_group_IT_number 42
_symmetry_cell_setting 'orthorhombic'
loop_
_space_group_symop_operation_xyz
x,y,z
-x,-y,z
-x,y,z
x,-y,z
x,1/2+y,1/2+z
-x,1/2-y,1/2+z
-x,1/2+y,1/2+z
x,1/2-y,1/2+z
1/2+x,y,1/2+z
1/2-x,-y,1/2+z
1/2-x,y,1/2+z
1/2+x,-y,1/2+z
1/2+x,1/2+y,z
1/2-x,1/2-y,z
1/2-x,1/2+y,z
1/2+x,1/2-y,z
loop_
_atom_site_type_symbol
_atom_site_label
_atom_site_fract_x
_atom_site_fract_y
_atom_site_fract_z
Si Si1 0.903297 0.690619 0.612630
Si Si2 0.345689 0.199702 0.204986
Si Si3 0.406189 0.207405 0.896680
Si Si4 0.875813 0.500000 0.049992
Si Si5 0.345644 0.705028 0.301895
Si Si6 0.657186 0.301793 0.988608
O O1 0.876466 0.500000 0.598453
O O2 0.889070 0.703248 0.665128
O O3 0.860920 0.846899 0.587301
O O4 0.000000 0.711413 0.603687
O O5 0.250000 0.250000 0.205156
O O6 0.377677 0.230018 0.254690
O O7 0.352995 0.000000 0.195006
O O8 0.500000 0.247049 0.906618
O O9 0.385311 0.269519 0.847282
O O10 0.352886 0.284417 0.935915
O O11 0.395317 0.000000 0.897113
O O12 0.893699 0.345913 0.013085
O O13 0.354658 0.500000 0.300861
O O14 0.250000 0.750000 0.304136
O O15 0.640658 0.500000 0.000453
O O16 0.750000 0.250000 0.000636
#
# Coordination Sequence:
#
# PCOD9369131 Si02
#       6
#    16  16  16   8  16  16
#     4  11  25  46  70  98 135 180 223 272 341 406
#     4  11  22  40  64  97 134 176 222 281 335 392
#     4  10  22  41  65  96 136 180 221 275 336 394
#     4  12  25  46  70 100 135 170 224 286 329 406
#     4  10  20  36  62  93 131 176 226 275 332 397
#     4  12  25  46  72 102 134 176 225 276 339 400
#
# _framework density 22.889137000000002
#
# number of rings (size 3 to 8) (size 9 to 14) (size 15 to 20)
#    0.000    1.091    2.727    4.636    0.000    6.182 
#    3.273    1.818    0.000    0.000    0.000    0.000 
#    0.000    0.000    0.000    0.000    0.000    0.000 
#
# Total GULP energy -122517.689524 kJ/mol
# GULP energy per Si atom -5568.985887 kJ/mol
# Density = 2.283704 g / cm^3
# Si number density = 22.889137 Si / 1000 Ang^3
#
#
#
# Elastic Constant Matrix: (Units=GPa)
#
#
# Indices 1 2 3 4 5 6 
#
# 1 29.9344 19.2168 12.9167 0.0000 0.0000 0.0000
# 2 19.2168 188.3583 49.2285 0.0000 0.0000 0.0000
# 3 12.9167 49.2285 165.1174 0.0000 0.0000 0.0000
# 4 0.0000 0.0000 0.0000 40.0397 0.0000 0.0000
# 5 0.0000 0.0000 0.0000 0.0000 36.1444 0.0000
# 6 0.0000 0.0000 0.0000 0.0000 0.0000 14.3368
#
#
#
# Elastic Compliance Matrix: (Units=1/GPa)
#
#
# Indices 1 2 3 4 5 6 
#
# 1 0.036278 -0.003210 -0.001881 0.000000 0.000000 0.000000
# 2 -0.003210 0.006042 -0.001550 0.000000 0.000000 0.000000
# 3 -0.001881 -0.001550 0.006666 0.000000 0.000000 0.000000
# 4 0.000000 0.000000 0.000000 0.024975 0.000000 0.000000
# 5 0.000000 0.000000 0.000000 0.000000 0.027667 0.000000
# 6 0.000000 0.000000 0.000000 0.000000 0.000000 0.069751
#
#
# Mechanical properties :
#
#
# Convention : Reuss Voigt Hill
#
# Bulk Modulus (GPa) = 28.00803 60.68157 44.34480
# Shear Modulus (GPa) = 25.43735 38.24072 31.83903
#
# Velocity S-wave (km/s) = 3.33728 4.09185 3.73367
# Velocity P-wave (km/s) = 5.20700 6.99235 6.16465
#
# Compressibility (1/GPa) = 0.03570405
#
# Stress axis : x y z
#
# Youngs Moduli (GPa) = 27.56456 165.51816 150.02349
#
# Poissons Ratio (x) = 0.53125 0.28220
# Poissons Ratio (y) = 0.08847 0.23256
# Poissons Ratio (z) = 0.05185 0.25658
#
# Static dielectric constant tensor:
#      x y z
#    x 1.873550 0.000000 0.000000 
#    y 0.000000 1.825040 0.000000 
#    z 0.000000 0.000000 1.872910 
# 
# From -- ./inp_files/34472.got.cif
#   From: 2010.05.17/outbox.cif.g08.bks.cpg/sg42_18_cif.got.tgz:34472.got - 2010.06.03 19:03:34.
