data_PCOD9369017
_publ_section_title
;
Structure prediction by ZEFSAII (Michael W. Deem and Ramdas Pophale) SiO2 
 PCOD9369017
Probable space group: F M M 2
;
_chemical_formula_sum "Si O2"
_cell_formula_units_Z 112
_cell_length_a 15.056367
_cell_length_b 13.951772
_cell_length_c 25.462800
_cell_angle_alpha 90.000000
_cell_angle_beta 90.000000
_cell_angle_gamma 90.000000
_cell_volume 5348.792144
_symmetry_space_group_name_H-M "F M M 2"
_symmetry_group_IT_number 42
_symmetry_cell_setting 'orthorhombic'
loop_
_space_group_symop_operation_xyz
x,y,z
-x,-y,z
-x,y,z
x,-y,z
x,1/2+y,1/2+z
-x,1/2-y,1/2+z
-x,1/2+y,1/2+z
x,1/2-y,1/2+z
1/2+x,y,1/2+z
1/2-x,-y,1/2+z
1/2-x,y,1/2+z
1/2+x,-y,1/2+z
1/2+x,1/2+y,z
1/2-x,1/2-y,z
1/2-x,1/2+y,z
1/2+x,1/2-y,z
loop_
_atom_site_type_symbol
_atom_site_label
_atom_site_fract_x
_atom_site_fract_y
_atom_site_fract_z
Si Si1 0.095209 0.114146 0.635990
Si Si2 0.404791 0.114145 0.348333
Si Si3 0.205427 0.115170 0.344610
Si Si4 0.897934 0.771492 0.432800
Si Si5 0.102066 0.771491 0.051522
Si Si6 0.399393 0.883226 0.742161
Si Si7 0.705427 0.615170 0.139712
O O1 0.096116 0.170211 0.581268
O O2 0.193299 0.136954 0.656996
O O3 0.000000 0.139777 0.662465
O O4 0.094366 0.000000 0.629433
O O5 0.500000 0.139776 0.321858
O O6 0.306701 0.136953 0.327326
O O7 0.403884 0.170212 0.403054
O O8 0.405633 0.000000 0.354891
O O9 0.168626 0.164592 0.397599
O O10 0.145205 0.147444 0.296155
O O11 0.198371 0.000000 0.351111
O O12 0.870106 0.750001 0.492161
O O13 0.000000 0.811622 0.432939
O O14 0.168626 0.835408 0.086723
O O15 0.000000 0.811621 0.051384
O O16 0.500000 0.852612 0.742161
O O17 0.354795 0.852556 0.688168
O O18 0.395196 0.000000 0.742161
O O19 0.698372 0.500000 0.133211
#
# Coordination Sequence:
#
# PCOD9369017 Si02
#       7
#    16  16  16  16  16  16  16
#     4   9  19  36  54  74 107 149 188 226 270 325
#     4   9  19  36  54  74 107 149 188 226 270 325
#     4  10  20  35  58  85 112 145 185 230 281 333
#     4  10  21  36  55  81 113 147 184 230 282 335
#     4  10  21  36  55  81 113 147 184 230 282 335
#     4   9  18  34  56  83 114 144 179 228 282 333
#     4  10  20  35  58  85 112 145 185 230 281 333
#
# _framework density 20.939306999999999
#
# number of rings (size 3 to 8) (size 9 to 14) (size 15 to 20)
#    0.000    2.429    0.000    1.714    0.000    5.143 
#    0.000    9.286    0.000    7.714    0.000    0.000 
#    0.000    0.000    0.000    0.000    0.000    0.000 
#
# Total GULP energy -156026.029197 kJ/mol
# GULP energy per Si atom -5572.358186 kJ/mol
# Density = 2.089165 g / cm^3
# Si number density = 20.939307 Si / 1000 Ang^3
#
#
#
# Elastic Constant Matrix: (Units=GPa)
#
#
# Indices 1 2 3 4 5 6 
#
# 1 213.8561 41.3030 73.6065 0.0000 0.0000 0.0000
# 2 41.3030 52.9193 23.7501 0.0000 0.0000 0.0000
# 3 73.6065 23.7501 90.3140 0.0000 0.0000 0.0000
# 4 0.0000 0.0000 0.0000 20.4577 0.0000 0.0000
# 5 0.0000 0.0000 0.0000 0.0000 -31.5633 0.0000
# 6 0.0000 0.0000 0.0000 0.0000 0.0000 29.2742
#
#
#
# Elastic Compliance Matrix: (Units=1/GPa)
#
#
# Indices 1 2 3 4 5 6 
#
# 1 0.006966 -0.003276 -0.004816 0.000000 0.000000 0.000000
# 2 -0.003276 0.022966 -0.003370 0.000000 0.000000 0.000000
# 3 -0.004816 -0.003370 0.015884 0.000000 0.000000 0.000000
# 4 0.000000 0.000000 0.000000 0.048881 0.000000 0.000000
# 5 0.000000 0.000000 0.000000 0.000000 -0.031682 0.000000
# 6 0.000000 0.000000 0.000000 0.000000 0.000000 0.034160
#
#
# Mechanical properties :
#
#
# Convention : Reuss Voigt Hill
#
# Bulk Modulus (GPa) = 43.68190 70.48984 57.08587
# Shear Modulus (GPa) = 39.14551 18.19571 28.67061
#
# Velocity S-wave (km/s) = 4.32843 2.95103 3.70432
# Velocity P-wave (km/s) = 6.77399 6.73412 6.75409
#
# Compressibility (1/GPa) = 0.02289278
#
# Stress axis : x y z
#
# Youngs Moduli (GPa) = 143.54687 43.54338 62.95698
#
# Poissons Ratio (x) = 0.14263 0.30321
# Poissons Ratio (y) = 0.47021 0.21214
# Poissons Ratio (z) = 0.69135 0.14673
#
# Static dielectric constant tensor:
#      x y z
#    x 1.848600 0.000000 0.000000 
#    y 0.000000 1.753600 0.000000 
#    z 0.000000 0.000000 1.703800 
# 
# From -- ./inp_files/29513.got.cif
#   From: 2010.05.17/outbox.cif.g08.bks.cpg/sg42_15_cif.got.tgz:29513.got - 2010.06.03 19:03:34.
