data_PCOD9369121
_publ_section_title
;
Structure prediction by ZEFSAII (Michael W. Deem and Ramdas Pophale) SiO2 
 PCOD9369121
Probable space group: F M M 2
;
_chemical_formula_sum "Si O2"
_cell_formula_units_Z 80
_cell_length_a 8.670773
_cell_length_b 15.876219
_cell_length_c 29.685396
_cell_angle_alpha 90.000000
_cell_angle_beta 90.000000
_cell_angle_gamma 90.000000
_cell_volume 4086.464631
_symmetry_space_group_name_H-M "F M M 2"
_symmetry_group_IT_number 42
_symmetry_cell_setting 'orthorhombic'
loop_
_space_group_symop_operation_xyz
x,y,z
-x,-y,z
-x,y,z
x,-y,z
x,1/2+y,1/2+z
-x,1/2-y,1/2+z
-x,1/2+y,1/2+z
x,1/2-y,1/2+z
1/2+x,y,1/2+z
1/2-x,-y,1/2+z
1/2-x,y,1/2+z
1/2+x,-y,1/2+z
1/2+x,1/2+y,z
1/2-x,1/2-y,z
1/2-x,1/2+y,z
1/2+x,1/2-y,z
loop_
_atom_site_type_symbol
_atom_site_label
_atom_site_fract_x
_atom_site_fract_y
_atom_site_fract_z
Si Si1 0.187672 0.901739 0.379150
Si Si2 0.814136 0.662100 0.783467
Si Si3 0.317135 0.101996 0.978838
Si Si4 0.313299 0.000000 0.724732
Si Si5 0.817584 0.340038 0.571575
Si Si6 0.183490 0.500000 0.124431
O O1 0.240710 0.852915 0.334948
O O2 0.236490 0.871945 0.428732
O O3 0.000000 0.900096 0.379657
O O4 0.231223 0.000000 0.374156
O O5 0.750000 0.750000 0.766144
O O6 0.768941 0.582712 0.753075
O O7 0.000000 0.664661 0.784174
O O8 0.500000 0.120392 0.983750
O O9 0.301573 0.000000 0.981377
O O10 0.226528 0.143801 0.019444
O O11 0.239570 0.000000 0.675766
O O12 0.500000 0.000000 0.720521
O O13 0.750000 0.250000 0.585664
O O14 0.746577 0.417152 0.599458
O O15 0.000000 0.340099 0.577072
O O16 0.000000 0.500000 0.121611
#
# Coordination Sequence:
#
# PCOD9369121 Si02
#       6
#    16  16  16   8  16   8
#     4   8  14  29  55  85 117 161 207 242 285 349
#     4  10  20  36  60  88 120 157 202 247 295 354
#     4   9  17  32  58  89 124 164 207 249 296 355
#     4  10  22  42  65  86 115 157 200 245 303 370
#     4  12  25  42  65  93 126 162 205 252 304 366
#     4  12  26  46  69  92 121 155 198 255 317 374
#
# _framework density 19.576823999999998
#
# number of rings (size 3 to 8) (size 9 to 14) (size 15 to 20)
#    0.000    2.000    2.000    3.900    0.000    2.400 
#    0.000    5.000    0.000    1.200    0.000    0.000 
#    0.000    0.000    0.000    0.000    0.000    0.000 
#
# Total GULP energy -111725.209340 kJ/mol
# GULP energy per Si atom -5586.260467 kJ/mol
# Density = 1.953227 g / cm^3
# Si number density = 19.576824 Si / 1000 Ang^3
#
#
#
# Elastic Constant Matrix: (Units=GPa)
#
#
# Indices 1 2 3 4 5 6 
#
# 1 72.3043 53.6503 51.8632 0.0000 0.0000 0.0000
# 2 53.6503 158.6481 86.3472 0.0000 0.0000 0.0000
# 3 51.8632 86.3472 139.5205 0.0000 0.0000 0.0000
# 4 0.0000 0.0000 0.0000 -5.0399 0.0000 0.0000
# 5 0.0000 0.0000 0.0000 0.0000 29.4714 0.0000
# 6 0.0000 0.0000 0.0000 0.0000 0.0000 26.4800
#
#
#
# Elastic Compliance Matrix: (Units=1/GPa)
#
#
# Indices 1 2 3 4 5 6 
#
# 1 0.020572 -0.004214 -0.005039 0.000000 0.000000 0.000000
# 2 -0.004214 0.010368 -0.004850 0.000000 0.000000 0.000000
# 3 -0.005039 -0.004850 0.012042 0.000000 0.000000 0.000000
# 4 0.000000 0.000000 0.000000 -0.198418 0.000000 0.000000
# 5 0.000000 0.000000 0.000000 0.000000 0.033931 0.000000
# 6 0.000000 0.000000 0.000000 0.000000 0.000000 0.037764
#
#
# Mechanical properties :
#
#
# Convention : Reuss Voigt Hill
#
# Bulk Modulus (GPa) = 67.67963 83.79938 75.73951
# Shear Modulus (GPa) = -98.79814 22.08978 -38.35418
#
# Velocity S-wave (km/s) = -7.11171 3.36276 -4.43104
# Velocity P-wave (km/s) = 5.72616 7.61419 3.54873
#
# Compressibility (1/GPa) = 0.01477549
#
# Stress axis : x y z
#
# Youngs Moduli (GPa) = 48.61024 96.44868 83.04140
#
# Poissons Ratio (x) = 0.40646 0.41844
# Poissons Ratio (y) = 0.20486 0.40277
# Poissons Ratio (z) = 0.24494 0.46779
#
# Static dielectric constant tensor:
#      x y z
#    x 1.659370 0.000000 0.000000 
#    y 0.000000 1.674220 0.000000 
#    z 0.000000 0.000000 1.685840 
# 
# From -- ./inp_files/31294.got.cif
#   From: 2010.05.17/outbox.cif.g08.bks.cpg/sg42_16_cif.got.tgz:31294.got - 2010.06.03 19:03:34.
