data_PCOD9369413
_publ_section_title
;
Structure prediction by ZEFSAII (Michael W. Deem and Ramdas Pophale) SiO2 
 PCOD9369413
Probable space group: F M M 2
;
_chemical_formula_sum "Si O2"
_cell_formula_units_Z 96
_cell_length_a 19.325682
_cell_length_b 8.622672
_cell_length_c 31.425181
_cell_angle_alpha 90.000000
_cell_angle_beta 90.000000
_cell_angle_gamma 90.000000
_cell_volume 5236.661273
_symmetry_space_group_name_H-M "F M M 2"
_symmetry_group_IT_number 42
_symmetry_cell_setting 'orthorhombic'
loop_
_space_group_symop_operation_xyz
x,y,z
-x,-y,z
-x,y,z
x,-y,z
x,1/2+y,1/2+z
-x,1/2-y,1/2+z
-x,1/2+y,1/2+z
x,1/2-y,1/2+z
1/2+x,y,1/2+z
1/2-x,-y,1/2+z
1/2-x,y,1/2+z
1/2+x,-y,1/2+z
1/2+x,1/2+y,z
1/2-x,1/2-y,z
1/2-x,1/2+y,z
1/2+x,1/2-y,z
loop_
_atom_site_type_symbol
_atom_site_label
_atom_site_fract_x
_atom_site_fract_y
_atom_site_fract_z
Si Si1 0.919681 0.187114 0.840140
Si Si2 0.919676 0.814435 0.088821
Si Si3 0.919929 0.812958 0.495767
Si Si4 0.579004 0.811231 0.243141
Si Si5 0.827354 0.314255 0.915926
Si Si6 0.672683 0.186065 0.164816
O O1 0.903669 0.235388 0.791484
O O2 0.868978 0.258881 0.874515
O O3 0.000000 0.229103 0.848734
O O4 0.915023 0.000000 0.842085
O O5 0.870450 0.740957 0.123975
O O6 0.000000 0.768135 0.096395
O O7 0.915419 0.000000 0.090969
O O8 0.901416 0.758853 0.041307
O O9 0.869923 0.762408 0.457771
O O10 0.000000 0.770984 0.486252
O O11 0.916719 0.000000 0.499150
O O12 0.500000 0.761940 0.233681
O O13 0.631943 0.758910 0.207124
O O14 0.578774 0.000000 0.242850
O O15 0.825211 0.500000 0.916232
O O16 0.750000 0.250000 0.916174
O O17 0.750000 0.250000 0.163794
O O18 0.674664 0.000000 0.165349
#
# Coordination Sequence:
#
# PCOD9369413 Si02
#       6
#    16  16  16  16  16  16
#     4   9  18  35  59  84 110 141 179 223 270 321
#     4  10  21  37  58  84 111 139 177 224 270 320
#     4   9  19  37  59  80 104 139 182 225 270 321
#     4   8  16  33  57  82 106 138 181 224 267 319
#     4  11  23  37  54  79 112 147 183 223 268 320
#     4  11  22  36  55  79 111 148 183 221 268 321
#
# _framework density 18.332291000000001
#
# number of rings (size 3 to 8) (size 9 to 14) (size 15 to 20)
#    0.000    2.333    0.000    3.500    0.000    5.333 
#    0.000    6.667    0.000    2.000    0.000    0.000 
#    0.000    0.000    0.000    0.000    0.000    0.000 
#
# Total GULP energy -133997.201722 kJ/mol
# GULP energy per Si atom -5583.216738 kJ/mol
# Density = 1.829057 g / cm^3
# Si number density = 18.332291 Si / 1000 Ang^3
#
#
#
# Elastic Constant Matrix: (Units=GPa)
#
#
# Indices 1 2 3 4 5 6 
#
# 1 157.2466 45.2954 142.6008 0.0000 0.0000 0.0000
# 2 45.2954 31.1539 44.4903 0.0000 0.0000 0.0000
# 3 142.6008 44.4903 180.3660 0.0000 0.0000 0.0000
# 4 0.0000 0.0000 0.0000 17.9528 0.0000 0.0000
# 5 0.0000 0.0000 0.0000 0.0000 -9.8202 0.0000
# 6 0.0000 0.0000 0.0000 0.0000 0.0000 17.9804
#
#
#
# Elastic Compliance Matrix: (Units=1/GPa)
#
#
# Indices 1 2 3 4 5 6 
#
# 1 0.025363 -0.012720 -0.016915 0.000000 0.000000 0.000000
# 2 -0.012720 0.055934 -0.003740 0.000000 0.000000 0.000000
# 3 -0.016915 -0.003740 0.019840 0.000000 0.000000 0.000000
# 4 0.000000 0.000000 0.000000 0.055702 0.000000 0.000000
# 5 0.000000 0.000000 0.000000 0.000000 -0.101831 0.000000
# 6 0.000000 0.000000 0.000000 0.000000 0.000000 0.055616
#
#
# Mechanical properties :
#
#
# Convention : Reuss Voigt Hill
#
# Bulk Modulus (GPa) = 29.08097 92.61549 60.84823
# Shear Modulus (GPa) = 26.47799 14.31460 20.39629
#
# Velocity S-wave (km/s) = 3.80456 2.79738 3.33917
# Velocity P-wave (km/s) = 5.93273 7.81434 6.93762
#
# Compressibility (1/GPa) = 0.03438674
#
# Stress axis : x y z
#
# Youngs Moduli (GPa) = 39.42809 17.87816 50.40338
#
# Poissons Ratio (x) = 0.22741 0.85255
# Poissons Ratio (y) = 0.50152 0.18853
# Poissons Ratio (z) = 0.66691 0.06687
#
# Static dielectric constant tensor:
#      x y z
#    x 1.604290 0.000000 0.000000 
#    y 0.000000 1.616110 0.000000 
#    z 0.000000 0.000000 1.612940 
# 
# From -- ./inp_files/31431.got.cif
#   From: 2010.05.17/outbox.cif.g08.bks.cpg/sg42_16_cif.got.tgz:31431.got - 2010.06.03 19:03:34.
