data_PCOD9369601
_publ_section_title
;
Structure prediction by ZEFSAII (Michael W. Deem and Ramdas Pophale) SiO2 
 PCOD9369601
Probable space group: F M M 2
;
_chemical_formula_sum "Si O2"
_cell_formula_units_Z 56
_cell_length_a 8.465185
_cell_length_b 19.118002
_cell_length_c 14.537261
_cell_angle_alpha 90.000000
_cell_angle_beta 90.000000
_cell_angle_gamma 90.000000
_cell_volume 2352.672869
_symmetry_space_group_name_H-M "F M M 2"
_symmetry_group_IT_number 42
_symmetry_cell_setting 'orthorhombic'
loop_
_space_group_symop_operation_xyz
x,y,z
-x,-y,z
-x,y,z
x,-y,z
x,1/2+y,1/2+z
-x,1/2-y,1/2+z
-x,1/2+y,1/2+z
x,1/2-y,1/2+z
1/2+x,y,1/2+z
1/2-x,-y,1/2+z
1/2-x,y,1/2+z
1/2+x,-y,1/2+z
1/2+x,1/2+y,z
1/2-x,1/2-y,z
1/2-x,1/2+y,z
1/2+x,1/2-y,z
loop_
_atom_site_type_symbol
_atom_site_label
_atom_site_fract_x
_atom_site_fract_y
_atom_site_fract_z
Si Si1 0.324377 0.648282 0.326040
Si Si2 0.317227 0.500000 0.579297
Si Si3 0.182300 0.500000 0.384773
Si Si4 0.250000 0.250000 0.490013
Si Si5 0.817763 0.154544 0.640462
O O1 0.500000 0.644402 0.286866
O O2 0.266233 0.571134 0.353379
O O3 0.327880 0.697551 0.415706
O O4 0.211030 0.675179 0.245369
O O5 0.500000 0.500000 0.543608
O O6 0.198878 0.500000 0.494701
O O7 0.297842 0.571134 0.635146
O O8 0.000000 0.500000 0.354588
O O9 0.297504 0.191881 0.567225
O O10 0.000000 0.170727 0.613170
#
# Coordination Sequence:
#
# PCOD9369601 Si02
#       5
#    16   8   8   8  16
#     4  12  27  48  74 106 145 190 239 295 357 426
#     4  10  21  46  75 102 138 184 235 297 362 421
#     4  12  25  44  75 108 140 184 239 299 358 423
#     4  12  26  44  72 104 142 196 236 288 350 426
#     4  11  25  46  74 106 143 187 237 297 357 424
#
# _framework density 23.802714000000002
#
# number of rings (size 3 to 8) (size 9 to 14) (size 15 to 20)
#    0.000    0.571    2.857    4.714    0.000   11.429 
#    0.000    0.000    0.000    0.000    0.000    0.000 
#    0.000    0.000    0.000    0.000    0.000    0.000 
#
# Total GULP energy -78117.102230 kJ/mol
# GULP energy per Si atom -5579.793016 kJ/mol
# Density = 2.374854 g / cm^3
# Si number density = 23.802714 Si / 1000 Ang^3
#
#
#
# Elastic Constant Matrix: (Units=GPa)
#
#
# Indices 1 2 3 4 5 6 
#
# 1 60.8650 35.8266 12.7996 0.0000 0.0000 0.0000
# 2 35.8266 177.4832 34.6653 0.0000 0.0000 0.0000
# 3 12.7996 34.6653 150.8817 0.0000 0.0000 0.0000
# 4 0.0000 0.0000 0.0000 3.0194 0.0000 0.0000
# 5 0.0000 0.0000 0.0000 0.0000 14.4518 0.0000
# 6 0.0000 0.0000 0.0000 0.0000 0.0000 -25.2956
#
#
#
# Elastic Compliance Matrix: (Units=1/GPa)
#
#
# Indices 1 2 3 4 5 6 
#
# 1 0.018727 -0.003633 -0.000754 0.000000 0.000000 0.000000
# 2 -0.003633 0.006604 -0.001209 0.000000 0.000000 0.000000
# 3 -0.000754 -0.001209 0.006969 0.000000 0.000000 0.000000
# 4 0.000000 0.000000 0.000000 0.331196 0.000000 0.000000
# 5 0.000000 0.000000 0.000000 0.000000 0.069196 0.000000
# 6 0.000000 0.000000 0.000000 0.000000 0.000000 -0.039533
#
#
# Mechanical properties :
#
#
# Convention : Reuss Voigt Hill
#
# Bulk Modulus (GPa) = 47.37494 61.75698 54.56596
# Shear Modulus (GPa) = 12.15399 18.83100 15.49250
#
# Velocity S-wave (km/s) = 2.26213 2.81575 2.55399
# Velocity P-wave (km/s) = 5.17391 6.04756 5.62771
#
# Compressibility (1/GPa) = 0.02110820
#
# Stress axis : x y z
#
# Youngs Moduli (GPa) = 53.39946 151.42754 143.48332
#
# Poissons Ratio (x) = 0.55012 0.10818
# Poissons Ratio (y) = 0.19400 0.17348
# Poissons Ratio (z) = 0.04026 0.18308
#
# Static dielectric constant tensor:
#      x y z
#    x 1.870910 0.000000 0.000000 
#    y 0.000000 1.906540 0.000000 
#    z 0.000000 0.000000 1.850140 
# 
# From -- ./inp_files/11753.got.cif
#   From: 2010.05.17/outbox.cif.g08.bks.cpg/sg42_6_cif.got.tgz:11753.got - 2010.06.03 19:03:34.
