data_PCOD9369127
_publ_section_title
;
Structure prediction by ZEFSAII (Michael W. Deem and Ramdas Pophale) SiO2 
 PCOD9369127
Probable space group: F M M 2
;
_chemical_formula_sum "Si O2"
_cell_formula_units_Z 116
_cell_length_a 17.661425
_cell_length_b 20.101741
_cell_length_c 17.155879
_cell_angle_alpha 90.000000
_cell_angle_beta 90.000000
_cell_angle_gamma 90.000000
_cell_volume 6090.772651
_symmetry_space_group_name_H-M "F M M 2"
_symmetry_group_IT_number 42
_symmetry_cell_setting 'orthorhombic'
loop_
_space_group_symop_operation_xyz
x,y,z
-x,-y,z
-x,y,z
x,-y,z
x,1/2+y,1/2+z
-x,1/2-y,1/2+z
-x,1/2+y,1/2+z
x,1/2-y,1/2+z
1/2+x,y,1/2+z
1/2-x,-y,1/2+z
1/2-x,y,1/2+z
1/2+x,-y,1/2+z
1/2+x,1/2+y,z
1/2-x,1/2-y,z
1/2-x,1/2+y,z
1/2+x,1/2-y,z
loop_
_atom_site_type_symbol
_atom_site_label
_atom_site_fract_x
_atom_site_fract_y
_atom_site_fract_z
Si Si1 0.091493 0.924482 0.998830
Si Si2 0.187855 0.696805 0.935577
Si Si3 0.775647 0.327885 0.763679
Si Si4 0.382492 0.618443 0.730962
Si Si5 0.913647 0.813883 0.882230
Si Si6 0.500000 0.000000 0.263072
Si Si7 0.413789 0.180020 0.068471
Si Si8 0.910562 0.673217 0.642422
O O1 0.120177 0.877154 0.928848
O O2 0.000000 0.929821 0.989988
O O3 0.120986 0.000000 0.997354
O O4 0.104698 0.884529 0.078739
O O5 0.250000 0.750000 0.964339
O O6 0.215157 0.661339 0.856837
O O7 0.122298 0.745663 0.906479
O O8 0.149853 0.658713 0.006588
O O9 0.750000 0.250000 0.755137
O O10 0.708868 0.376951 0.734548
O O11 0.852179 0.334431 0.713584
O O12 0.405132 0.676914 0.790635
O O13 0.432656 0.557406 0.761054
O O14 0.407770 0.634277 0.644078
O O15 0.000000 0.812157 0.905347
O O16 0.500000 0.177399 0.038076
O O17 0.399146 0.255719 0.098620
O O18 0.000000 0.670492 0.664518
#
# Coordination Sequence:
#
# PCOD9369127 Si02
#       8
#    16  16  16  16  16   4  16  16
#     4   9  19  33  54  85 121 163 213 268 324 398
#     4  11  22  35  57  92 129 165 206 269 340 399
#     4  11  22  40  60  94 132 167 215 281 340 394
#     4  12  24  41  65  92 129 171 226 274 334 404
#     4  11  19  34  58  89 124 163 214 268 326 400
#     4  12  28  48  68  96 130 188 224 276 340 420
#     4  11  21  36  59  94 127 170 217 271 334 399
#     4  10  20  36  61  90 125 170 219 277 344 402
#
# _framework density 19.045203000000001
#
# number of rings (size 3 to 8) (size 9 to 14) (size 15 to 20)
#    0.000    1.241    6.897    0.414    2.897    2.207 
#    1.241    0.000    0.000    0.828    0.000    0.000 
#    0.000    0.000    0.000    0.000    0.000    0.000 
#
# Total GULP energy -161467.973376 kJ/mol
# GULP energy per Si atom -5567.861151 kJ/mol
# Density = 1.900186 g / cm^3
# Si number density = 19.045203 Si / 1000 Ang^3
#
#
#
# Elastic Constant Matrix: (Units=GPa)
#
#
# Indices 1 2 3 4 5 6 
#
# 1 108.4375 10.1527 38.3230 0.0000 0.0000 0.0000
# 2 10.1527 24.2678 -3.6665 0.0000 0.0000 0.0000
# 3 38.3230 -3.6665 70.7862 0.0000 0.0000 0.0000
# 4 0.0000 0.0000 0.0000 -10.6455 0.0000 0.0000
# 5 0.0000 0.0000 0.0000 0.0000 36.5468 0.0000
# 6 0.0000 0.0000 0.0000 0.0000 0.0000 12.0782
#
#
#
# Elastic Compliance Matrix: (Units=1/GPa)
#
#
# Indices 1 2 3 4 5 6 
#
# 1 0.012259 -0.006180 -0.006957 0.000000 0.000000 0.000000
# 2 -0.006180 0.044647 0.005658 0.000000 0.000000 0.000000
# 3 -0.006957 0.005658 0.018187 0.000000 0.000000 0.000000
# 4 0.000000 0.000000 0.000000 -0.093937 0.000000 0.000000
# 5 0.000000 0.000000 0.000000 0.000000 0.027362 0.000000
# 6 0.000000 0.000000 0.000000 0.000000 0.000000 0.082794
#
#
# Mechanical properties :
#
#
# Convention : Reuss Voigt Hill
#
# Bulk Modulus (GPa) = 16.62905 32.56777 24.59841
# Shear Modulus (GPa) = 39.58362 18.17473 28.87918
#
# Velocity S-wave (km/s) = 4.56390 3.09252 3.89826
# Velocity P-wave (km/s) = 6.04339 5.46708 5.76244
#
# Compressibility (1/GPa) = 0.06013572
#
# Stress axis : x y z
#
# Youngs Moduli (GPa) = 81.57111 22.39781 54.98534
#
# Poissons Ratio (x) = 0.13842 0.38254
# Poissons Ratio (y) = 0.50410 -0.31113
# Poissons Ratio (z) = 0.56750 -0.12674
#
# Static dielectric constant tensor:
#      x y z
#    x 1.726360 0.000000 0.000000 
#    y 0.000000 1.661770 0.000000 
#    z 0.000000 0.000000 1.708180 
# 
# From -- ./inp_files/15411.got.cif
#   From: 2010.05.17/outbox.cif.g08.bks.cpg/sg42_8_cif.got.tgz:15411.got - 2010.06.03 19:03:34.
