data_PCOD9369055
_publ_section_title
;
Structure prediction by ZEFSAII (Michael W. Deem and Ramdas Pophale) SiO2 
 PCOD9369055
Probable space group: F M M 2
;
_chemical_formula_sum "Si O2"
_cell_formula_units_Z 96
_cell_length_a 26.283546
_cell_length_b 8.113917
_cell_length_c 24.409033
_cell_angle_alpha 90.000000
_cell_angle_beta 90.000000
_cell_angle_gamma 90.000000
_cell_volume 5205.531662
_symmetry_space_group_name_H-M "F M M 2"
_symmetry_group_IT_number 42
_symmetry_cell_setting 'orthorhombic'
loop_
_space_group_symop_operation_xyz
x,y,z
-x,-y,z
-x,y,z
x,-y,z
x,1/2+y,1/2+z
-x,1/2-y,1/2+z
-x,1/2+y,1/2+z
x,1/2-y,1/2+z
1/2+x,y,1/2+z
1/2-x,-y,1/2+z
1/2-x,y,1/2+z
1/2+x,-y,1/2+z
1/2+x,1/2+y,z
1/2-x,1/2-y,z
1/2-x,1/2+y,z
1/2+x,1/2-y,z
loop_
_atom_site_type_symbol
_atom_site_label
_atom_site_fract_x
_atom_site_fract_y
_atom_site_fract_z
Si Si1 0.192835 0.199013 0.106170
Si Si2 0.401670 0.298456 0.177557
Si Si3 0.440546 0.798427 0.794931
Si Si4 0.903109 0.303765 0.912402
Si Si5 0.000000 0.303077 0.482997
Si Si6 0.692990 0.803604 0.481334
Si Si7 0.500000 0.201379 0.607876
O O1 0.250000 0.250000 0.120893
O O2 0.150134 0.257568 0.148562
O O3 0.190626 0.000000 0.105203
O O4 0.182770 0.258144 0.043673
O O5 0.401016 0.500000 0.178022
O O6 0.412069 0.244786 0.239715
O O7 0.449640 0.248085 0.140442
O O8 0.500000 0.749139 0.793783
O O9 0.414255 0.740660 0.850975
O O10 0.440446 0.000000 0.794932
O O11 0.903486 0.500000 0.909320
O O12 0.850302 0.251321 0.939585
O O13 0.949844 0.251088 0.950798
O O14 0.000000 0.240489 0.545369
O O15 0.000000 0.500000 0.485346
O O16 0.750000 0.750000 0.466093
O O17 0.691930 0.000000 0.483633
O O18 0.500000 0.000000 0.607245
#
# Coordination Sequence:
#
# PCOD9369055 Si02
#       7
#    16  16  16  16   8  16   8
#     4   9  18  32  52  77 103 132 168 209 256 310
#     4   9  15  27  49  75 100 127 165 213 259 305
#     4   9  16  29  49  74 102 135 174 214 255 303
#     4  11  21  34  52  77 107 140 178 218 261 311
#     4  11  21  32  49  77 109 139 172 217 266 316
#     4  10  20  36  56  80 107 138 175 215 263 316
#     4   9  16  26  45  73 101 125 158 211 268 312
#
# _framework density 18.441921000000001
#
# number of rings (size 3 to 8) (size 9 to 14) (size 15 to 20)
#    0.000    2.333    1.667    2.250    0.000    3.333 
#    0.000    0.833    0.000    4.000    0.000    2.333 
#    0.000    0.000    0.000    0.000    0.000    0.000 
#
# Total GULP energy -133931.003378 kJ/mol
# GULP energy per Si atom -5580.458474 kJ/mol
# Density = 1.839995 g / cm^3
# Si number density = 18.441921 Si / 1000 Ang^3
#
#
#
# Elastic Constant Matrix: (Units=GPa)
#
#
# Indices 1 2 3 4 5 6 
#
# 1 173.6540 13.6706 130.8208 0.0000 0.0000 0.0000
# 2 13.6706 17.2064 15.2564 0.0000 0.0000 0.0000
# 3 130.8208 15.2564 198.7285 0.0000 0.0000 0.0000
# 4 0.0000 0.0000 0.0000 12.4068 0.0000 0.0000
# 5 0.0000 0.0000 0.0000 0.0000 20.0827 0.0000
# 6 0.0000 0.0000 0.0000 0.0000 0.0000 27.5496
#
#
#
# Elastic Compliance Matrix: (Units=1/GPa)
#
#
# Indices 1 2 3 4 5 6 
#
# 1 0.011532 -0.002609 -0.007391 0.000000 0.000000 0.000000
# 2 -0.002609 0.062953 -0.003116 0.000000 0.000000 0.000000
# 3 -0.007391 -0.003116 0.010137 0.000000 0.000000 0.000000
# 4 0.000000 0.000000 0.000000 0.080601 0.000000 0.000000
# 5 0.000000 0.000000 0.000000 0.000000 0.049794 0.000000
# 6 0.000000 0.000000 0.000000 0.000000 0.000000 0.036298
#
#
# Mechanical properties :
#
#
# Convention : Reuss Voigt Hill
#
# Bulk Modulus (GPa) = 17.12594 78.78715 47.95655
# Shear Modulus (GPa) = 16.83446 27.33056 22.08251
#
# Velocity S-wave (km/s) = 3.02460 3.85383 3.46411
# Velocity P-wave (km/s) = 4.63726 7.91310 6.48542
#
# Compressibility (1/GPa) = 0.05839095
#
# Stress axis : x y z
#
# Youngs Moduli (GPa) = 86.71541 15.88481 98.65184
#
# Poissons Ratio (x) = 0.04144 0.72915
# Poissons Ratio (y) = 0.22622 0.30736
# Poissons Ratio (z) = 0.64092 0.04949
#
# Static dielectric constant tensor:
#      x y z
#    x 1.594370 0.000000 0.000000 
#    y 0.000000 1.659040 0.000000 
#    z 0.000000 0.000000 1.643630 
# 
# From -- ./inp_files/28082.got.cif
#   From: 2010.05.17/outbox.cif.g08.bks.cpg/sg42_15_cif.got.tgz:28082.got - 2010.06.03 19:03:34.
