data_PCOD9369302
_publ_section_title
;
Structure prediction by ZEFSAII (Michael W. Deem and Ramdas Pophale) SiO2 
 PCOD9369302
Probable space group: F M M 2
;
_chemical_formula_sum "Si O2"
_cell_formula_units_Z 72
_cell_length_a 8.689631
_cell_length_b 23.273256
_cell_length_c 16.182743
_cell_angle_alpha 90.000000
_cell_angle_beta 90.000000
_cell_angle_gamma 90.000000
_cell_volume 3272.733324
_symmetry_space_group_name_H-M "F M M 2"
_symmetry_group_IT_number 42
_symmetry_cell_setting 'orthorhombic'
loop_
_space_group_symop_operation_xyz
x,y,z
-x,-y,z
-x,y,z
x,-y,z
x,1/2+y,1/2+z
-x,1/2-y,1/2+z
-x,1/2+y,1/2+z
x,1/2-y,1/2+z
1/2+x,y,1/2+z
1/2-x,-y,1/2+z
1/2-x,y,1/2+z
1/2+x,-y,1/2+z
1/2+x,1/2+y,z
1/2-x,1/2-y,z
1/2-x,1/2+y,z
1/2+x,1/2-y,z
loop_
_atom_site_type_symbol
_atom_site_label
_atom_site_fract_x
_atom_site_fract_y
_atom_site_fract_z
Si Si1 0.185085 0.000000 0.432621
Si Si2 0.500000 0.284991 0.707272
Si Si3 0.682581 0.000000 0.117980
Si Si4 0.175624 0.375303 0.863442
Si Si5 0.767970 0.125094 0.175031
Si Si6 0.500000 0.193608 0.389926
Si Si7 0.500000 0.686069 0.072997
O O1 0.250034 0.000000 0.525392
O O2 0.221415 0.940434 0.387829
O O3 0.000000 0.000000 0.437423
O O4 0.360302 0.326563 0.685739
O O5 0.500000 0.269602 0.804990
O O6 0.500000 0.231388 0.647340
O O7 0.723885 0.940972 0.162709
O O8 0.500000 0.000000 0.110503
O O9 0.156580 0.372265 0.764965
O O10 0.332074 0.339036 0.884580
O O11 0.000000 0.362596 0.898649
O O12 0.857667 0.144726 0.093161
O O13 0.500000 0.215560 0.484071
#
# Coordination Sequence:
#
# PCOD9369302 Si02
#       7
#     8   8   8  16  16   8   8
#     4   9  19  33  57  92 139 177 224 284 347 416
#     4  10  24  47  69  97 136 188 233 286 352 417
#     4  11  21  37  63 102 134 178 231 284 348 427
#     4  10  20  41  65  97 137 183 230 286 346 423
#     4  11  22  41  70  96 139 183 228 290 351 411
#     4  10  24  43  72  98 132 185 238 284 360 412
#     4  12  24  45  69 107 140 172 243 296 340 423
#
# _framework density 21.999960999999999
#
# number of rings (size 3 to 8) (size 9 to 14) (size 15 to 20)
#    0.000    1.556    2.222    2.667    0.000    0.889 
#    2.000   13.333    0.000    0.000    0.000    0.000 
#    0.000    0.000    0.000    0.000    0.000    0.000 
#
# Total GULP energy -100257.360501 kJ/mol
# GULP energy per Si atom -5569.853361 kJ/mol
# Density = 2.194989 g / cm^3
# Si number density = 21.999961 Si / 1000 Ang^3
#
#
#
# Elastic Constant Matrix: (Units=GPa)
#
#
# Indices 1 2 3 4 5 6 
#
# 1 86.4173 17.0065 23.4346 0.0000 0.0000 0.0000
# 2 17.0065 101.5653 35.9297 0.0000 0.0000 0.0000
# 3 23.4346 35.9297 132.0822 0.0000 0.0000 0.0000
# 4 0.0000 0.0000 0.0000 46.7750 0.0000 0.0000
# 5 0.0000 0.0000 0.0000 0.0000 13.8228 0.0000
# 6 0.0000 0.0000 0.0000 0.0000 0.0000 11.6580
#
#
#
# Elastic Compliance Matrix: (Units=1/GPa)
#
#
# Indices 1 2 3 4 5 6 
#
# 1 0.012341 -0.001429 -0.001801 0.000000 0.000000 0.000000
# 2 -0.001429 0.011060 -0.002755 0.000000 0.000000 0.000000
# 3 -0.001801 -0.002755 0.008640 0.000000 0.000000 0.000000
# 4 0.000000 0.000000 0.000000 0.021379 0.000000 0.000000
# 5 0.000000 0.000000 0.000000 0.000000 0.072344 0.000000
# 6 0.000000 0.000000 0.000000 0.000000 0.000000 0.085778
#
#
# Mechanical properties :
#
#
# Convention : Reuss Voigt Hill
#
# Bulk Modulus (GPa) = 49.82363 52.53405 51.17884
# Shear Modulus (GPa) = 21.71991 30.69742 26.20867
#
# Velocity S-wave (km/s) = 3.14549 3.73948 3.45527
# Velocity P-wave (km/s) = 5.99070 6.52502 6.26356
#
# Compressibility (1/GPa) = 0.02007080
#
# Stress axis : x y z
#
# Youngs Moduli (GPa) = 81.02805 90.41745 115.74126
#
# Poissons Ratio (x) = 0.12925 0.20843
# Poissons Ratio (y) = 0.11582 0.31886
# Poissons Ratio (z) = 0.14592 0.24909
#
# Static dielectric constant tensor:
#      x y z
#    x 1.888720 0.000000 0.000000 
#    y 0.000000 1.782420 0.000000 
#    z 0.000000 0.000000 1.801800 
# 
# From -- ./inp_files/12098.got.cif
#   From: 2010.05.17/outbox.cif.g08.bks.cpg/sg42_7_cif.got.tgz:12098.got - 2010.06.03 19:03:34.
