data_PCOD9369238
_publ_section_title
;
Structure prediction by ZEFSAII (Michael W. Deem and Ramdas Pophale) SiO2 
 PCOD9369238
Probable space group: F M M 2
;
_chemical_formula_sum "Si O2"
_cell_formula_units_Z 68
_cell_length_a 19.524169
_cell_length_b 9.605658
_cell_length_c 17.205108
_cell_angle_alpha 90.000000
_cell_angle_beta 90.000000
_cell_angle_gamma 90.000000
_cell_volume 3226.688798
_symmetry_space_group_name_H-M "F M M 2"
_symmetry_group_IT_number 42
_symmetry_cell_setting 'orthorhombic'
loop_
_space_group_symop_operation_xyz
x,y,z
-x,-y,z
-x,y,z
x,-y,z
x,1/2+y,1/2+z
-x,1/2-y,1/2+z
-x,1/2+y,1/2+z
x,1/2-y,1/2+z
1/2+x,y,1/2+z
1/2-x,-y,1/2+z
1/2-x,y,1/2+z
1/2+x,-y,1/2+z
1/2+x,1/2+y,z
1/2-x,1/2-y,z
1/2-x,1/2+y,z
1/2+x,1/2-y,z
loop_
_atom_site_type_symbol
_atom_site_label
_atom_site_fract_x
_atom_site_fract_y
_atom_site_fract_z
Si Si1 0.855829 0.000000 0.072240
Si Si2 0.697565 0.500000 0.611274
Si Si3 0.577087 0.500000 0.910272
Si Si4 0.918698 0.500000 0.977533
Si Si5 0.078559 0.794807 0.337213
Si Si6 0.879360 0.739360 0.176884
Si Si7 0.500000 0.000000 0.172648
O O1 0.885128 0.139896 0.112516
O O2 0.774225 0.000000 0.080961
O O3 0.872914 0.000000 0.981871
O O4 0.638697 0.500000 0.543526
O O5 0.684912 0.359646 0.659711
O O6 0.500000 0.500000 0.943472
O O7 0.583600 0.633243 0.856622
O O8 0.908222 0.627853 0.918387
O O9 0.000000 0.500000 0.007570
O O10 0.122251 0.816321 0.260225
O O11 0.000000 0.831397 0.317375
O O12 0.940741 0.625549 0.175411
#
# Coordination Sequence:
#
# PCOD9369238 Si02
#       7
#     8   8   8   8  16  16   4
#     4  12  26  43  62  98 136 178 222 281 322 396
#     4  11  25  44  63  92 140 183 223 264 333 404
#     4  10  22  37  63  90 125 165 212 262 333 394
#     4  10  22  38  64  97 132 170 219 274 333 392
#     4  10  20  38  62  96 127 160 212 279 332 389
#     4  11  23  40  70  92 135 169 225 270 339 389
#     4  10  22  38  64 102 122 170 206 276 338 398
#
# _framework density 21.074235999999999
#
# number of rings (size 3 to 8) (size 9 to 14) (size 15 to 20)
#    0.000    1.412    1.176    4.235    6.588    0.000 
#    0.000    7.059    0.000    0.000    0.000    0.000 
#    0.000    0.000    0.000    0.000    0.000    0.000 
#
# Total GULP energy -94685.445476 kJ/mol
# GULP energy per Si atom -5569.732087 kJ/mol
# Density = 2.102627 g / cm^3
# Si number density = 21.074236 Si / 1000 Ang^3
#
#
#
# Elastic Constant Matrix: (Units=GPa)
#
#
# Indices 1 2 3 4 5 6 
#
# 1 83.1180 8.8866 48.0151 0.0000 0.0000 0.0000
# 2 8.8866 113.2779 7.0674 0.0000 0.0000 0.0000
# 3 48.0151 7.0674 83.5623 0.0000 0.0000 0.0000
# 4 0.0000 0.0000 0.0000 -23.2394 0.0000 0.0000
# 5 0.0000 0.0000 0.0000 0.0000 8.8436 0.0000
# 6 0.0000 0.0000 0.0000 0.0000 0.0000 28.0841
#
#
#
# Elastic Compliance Matrix: (Units=1/GPa)
#
#
# Indices 1 2 3 4 5 6 
#
# 1 0.018076 -0.000774 -0.010321 0.000000 0.000000 0.000000
# 2 -0.000774 0.008908 -0.000309 0.000000 0.000000 0.000000
# 3 -0.010321 -0.000309 0.017924 0.000000 0.000000 0.000000
# 4 0.000000 0.000000 0.000000 -0.043030 0.000000 0.000000
# 5 0.000000 0.000000 0.000000 0.000000 0.113077 0.000000
# 6 0.000000 0.000000 0.000000 0.000000 0.000000 0.035607
#
#
# Mechanical properties :
#
#
# Convention : Reuss Voigt Hill
#
# Bulk Modulus (GPa) = 45.24873 45.32181 45.28527
# Shear Modulus (GPa) = 27.66476 17.13695 22.40085
#
# Velocity S-wave (km/s) = 3.62709 2.85471 3.26383
# Velocity P-wave (km/s) = 6.24970 5.69371 5.97817
#
# Compressibility (1/GPa) = 0.02210007
#
# Stress axis : x y z
#
# Youngs Moduli (GPa) = 55.32185 112.26081 55.79204
#
# Poissons Ratio (x) = 0.08690 0.57583
# Poissons Ratio (y) = 0.04283 0.01722
# Poissons Ratio (z) = 0.57098 0.03464
#
# Static dielectric constant tensor:
#      x y z
#    x 1.740330 0.000000 0.000000 
#    y 0.000000 1.768930 0.000000 
#    z 0.000000 0.000000 1.794190 
# 
# From -- ./inp_files/21401.got.cif
#   From: 2010.05.17/outbox.cif.g08.bks.cpg/sg42_11_cif.got.tgz:21401.got - 2010.06.03 19:03:34.
