data_PCOD9369668
_publ_section_title
;
Structure prediction by ZEFSAII (Michael W. Deem and Ramdas Pophale) SiO2 
 PCOD9369668
Probable space group: F M M 2
;
_chemical_formula_sum "Si O2"
_cell_formula_units_Z 72
_cell_length_a 15.010829
_cell_length_b 7.941882
_cell_length_c 25.059014
_cell_angle_alpha 90.000000
_cell_angle_beta 90.000000
_cell_angle_gamma 90.000000
_cell_volume 2987.391125
_symmetry_space_group_name_H-M "F M M 2"
_symmetry_group_IT_number 42
_symmetry_cell_setting 'orthorhombic'
loop_
_space_group_symop_operation_xyz
x,y,z
-x,-y,z
-x,y,z
x,-y,z
x,1/2+y,1/2+z
-x,1/2-y,1/2+z
-x,1/2+y,1/2+z
x,1/2-y,1/2+z
1/2+x,y,1/2+z
1/2-x,-y,1/2+z
1/2-x,y,1/2+z
1/2+x,-y,1/2+z
1/2+x,1/2+y,z
1/2-x,1/2-y,z
1/2-x,1/2+y,z
1/2+x,1/2-y,z
loop_
_atom_site_type_symbol
_atom_site_label
_atom_site_fract_x
_atom_site_fract_y
_atom_site_fract_z
Si Si1 0.750000 0.250000 0.936530
Si Si2 0.598648 0.794931 0.511369
Si Si3 0.106792 0.814334 0.745404
Si Si4 0.605622 0.194705 0.858820
Si Si5 0.150004 0.198956 0.126619
O O1 0.674013 0.306243 0.893353
O O2 0.675345 0.195932 0.980321
O O3 0.500000 0.765837 0.488984
O O4 0.597742 0.747386 0.573785
O O5 0.617173 0.000000 0.507684
O O6 0.131445 0.703741 0.796334
O O7 0.130312 0.766836 0.685313
O O8 0.000000 0.818296 0.746041
O O9 0.143189 0.000000 0.755968
O O10 0.500000 0.239878 0.863171
O O11 0.616633 0.000000 0.876446
O O12 0.250000 0.250000 0.114107
O O13 0.138502 0.000000 0.130629
#
# Coordination Sequence:
#
# PCOD9369668 Si02
#       5
#     8  16  16  16  16
#     4  12  22  40  64  92 126 168 220 274 316 372
#     4  10  22  40  63  92 127 169 213 261 323 387
#     4  10  22  41  65  94 127 165 212 265 322 385
#     4  10  23  42  64  93 129 171 216 265 325 386
#     4  11  22  39  64  95 131 168 211 262 323 388
#
# _framework density 24.101299000000001
#
# number of rings (size 3 to 8) (size 9 to 14) (size 15 to 20)
#    0.000    1.556    1.111    3.333    1.556    4.000 
#    0.000    2.222    0.000    5.333    0.000    0.000 
#    0.000    0.000    0.000    0.000    0.000    0.000 
#
# Total GULP energy -100245.648200 kJ/mol
# GULP energy per Si atom -5569.202678 kJ/mol
# Density = 2.404644 g / cm^3
# Si number density = 24.101299 Si / 1000 Ang^3
#
#
#
# Elastic Constant Matrix: (Units=GPa)
#
#
# Indices 1 2 3 4 5 6 
#
# 1 149.1755 26.0636 64.2711 0.0000 0.0000 0.0000
# 2 26.0636 57.2629 22.2552 0.0000 0.0000 0.0000
# 3 64.2711 22.2552 171.2044 0.0000 0.0000 0.0000
# 4 0.0000 0.0000 0.0000 -13.9065 0.0000 0.0000
# 5 0.0000 0.0000 0.0000 0.0000 57.6444 0.0000
# 6 0.0000 0.0000 0.0000 0.0000 0.0000 1.7560
#
#
#
# Elastic Compliance Matrix: (Units=1/GPa)
#
#
# Indices 1 2 3 4 5 6 
#
# 1 0.008384 -0.002731 -0.002792 0.000000 0.000000 0.000000
# 2 -0.002731 0.019282 -0.001481 0.000000 0.000000 0.000000
# 3 -0.002792 -0.001481 0.007082 0.000000 0.000000 0.000000
# 4 0.000000 0.000000 0.000000 -0.071909 0.000000 0.000000
# 5 0.000000 0.000000 0.000000 0.000000 0.017348 0.000000
# 6 0.000000 0.000000 0.000000 0.000000 0.000000 0.569465
#
#
# Mechanical properties :
#
#
# Convention : Reuss Voigt Hill
#
# Bulk Modulus (GPa) = 48.21912 66.98029 57.59971
# Shear Modulus (GPa) = 8.76312 26.76899 17.76605
#
# Velocity S-wave (km/s) = 1.90889 3.33631 2.71798
# Velocity P-wave (km/s) = 4.99087 6.53397 5.81384
#
# Compressibility (1/GPa) = 0.02073866
#
# Stress axis : x y z
#
# Youngs Moduli (GPa) = 119.27988 51.86208 141.20731
#
# Poissons Ratio (x) = 0.14162 0.39429
# Poissons Ratio (y) = 0.32571 0.20918
# Poissons Ratio (z) = 0.33307 0.07683
#
# Static dielectric constant tensor:
#      x y z
#    x 1.879830 0.000000 0.000000 
#    y 0.000000 2.009150 0.000000 
#    z 0.000000 0.000000 1.943670 
# 
# From -- ./inp_files/31052.got.cif
#   From: 2010.05.17/outbox.cif.g08.bks.cpg/sg42_16_cif.got.tgz:31052.got - 2010.06.03 19:03:34.
