data_PCOD9369046
_publ_section_title
;
Structure prediction by ZEFSAII (Michael W. Deem and Ramdas Pophale) SiO2 
 PCOD9369046
Probable space group: F M M 2
;
_chemical_formula_sum "Si O2"
_cell_formula_units_Z 116
_cell_length_a 15.567599
_cell_length_b 27.145040
_cell_length_c 11.915983
_cell_angle_alpha 90.000000
_cell_angle_beta 90.000000
_cell_angle_gamma 90.000000
_cell_volume 5035.493007
_symmetry_space_group_name_H-M "F M M 2"
_symmetry_group_IT_number 42
_symmetry_cell_setting 'orthorhombic'
loop_
_space_group_symop_operation_xyz
x,y,z
-x,-y,z
-x,y,z
x,-y,z
x,1/2+y,1/2+z
-x,1/2-y,1/2+z
-x,1/2+y,1/2+z
x,1/2-y,1/2+z
1/2+x,y,1/2+z
1/2-x,-y,1/2+z
1/2-x,y,1/2+z
1/2+x,-y,1/2+z
1/2+x,1/2+y,z
1/2-x,1/2-y,z
1/2-x,1/2+y,z
1/2+x,1/2-y,z
loop_
_atom_site_type_symbol
_atom_site_label
_atom_site_fract_x
_atom_site_fract_y
_atom_site_fract_z
Si Si1 0.645256 0.631217 0.084940
Si Si2 0.195989 0.943806 0.278204
Si Si3 0.351327 0.305196 0.745521
Si Si4 0.378712 0.591920 0.854259
Si Si5 0.643320 0.303328 0.280927
Si Si6 0.000000 0.500000 0.299657
Si Si7 0.399094 0.053723 0.004095
Si Si8 0.669685 0.656764 0.518178
O O1 0.676436 0.589677 0.172142
O O2 0.604862 0.670915 0.170270
O O3 0.598783 0.603395 0.983861
O O4 0.726768 0.657750 0.024277
O O5 0.278288 0.921996 0.342462
O O6 0.120452 0.943725 0.371085
O O7 0.210813 0.000000 0.245094
O O8 0.390437 0.355412 0.793661
O O9 0.382386 0.253415 0.793222
O O10 0.247510 0.306201 0.763512
O O11 0.364020 0.306198 0.611849
O O12 0.427249 0.544548 0.806646
O O13 0.630607 0.331671 0.397412
O O14 0.500000 0.055339 0.026922
O O15 0.355166 0.101446 0.054824
O O16 0.366799 0.000000 0.042674
#
# Coordination Sequence:
#
# PCOD9369046 Si02
#       8
#    16  16  16  16  16   4  16  16
#     4  11  20  37  66  97 133 173 224 273 333 402
#     4  11  21  38  65  93 129 180 219 278 341 392
#     4  10  22  35  64  96 136 169 221 279 331 391
#     4  12  23  46  63  96 137 179 232 275 332 418
#     4  10  20  35  63 105 124 174 219 281 332 387
#     4  12  32  48  68  96 140 192 228 272 346 418
#     4  10  21  39  61  95 129 167 219 276 334 397
#     4  11  19  38  61  94 135 168 220 267 333 396
#
# _framework density 23.036473999999998
#
# number of rings (size 3 to 8) (size 9 to 14) (size 15 to 20)
#    0.000    1.241    7.586    0.000    2.897    1.655 
#    3.724    0.000    1.517    0.000    0.000    0.000 
#    0.000    0.000    0.000    0.000    0.000    0.000 
#
# Total GULP energy -161771.791412 kJ/mol
# GULP energy per Si atom -5578.337635 kJ/mol
# Density = 2.298404 g / cm^3
# Si number density = 23.036474 Si / 1000 Ang^3
#
#
#
# Elastic Constant Matrix: (Units=GPa)
#
#
# Indices 1 2 3 4 5 6 
#
# 1 40.2327 13.4463 3.8768 0.0000 0.0000 0.0000
# 2 13.4463 184.8098 29.7713 0.0000 0.0000 0.0000
# 3 3.8768 29.7713 87.9637 0.0000 0.0000 0.0000
# 4 0.0000 0.0000 0.0000 25.9197 0.0000 0.0000
# 5 0.0000 0.0000 0.0000 0.0000 -10.2734 0.0000
# 6 0.0000 0.0000 0.0000 0.0000 0.0000 -16.0952
#
#
#
# Elastic Compliance Matrix: (Units=1/GPa)
#
#
# Indices 1 2 3 4 5 6 
#
# 1 0.025498 -0.001771 -0.000524 0.000000 0.000000 0.000000
# 2 -0.001771 0.005846 -0.001901 0.000000 0.000000 0.000000
# 3 -0.000524 -0.001901 0.012035 0.000000 0.000000 0.000000
# 4 0.000000 0.000000 0.000000 0.038581 0.000000 0.000000
# 5 0.000000 0.000000 0.000000 0.000000 -0.097339 0.000000
# 6 0.000000 0.000000 0.000000 0.000000 0.000000 -0.062130
#
#
# Mechanical properties :
#
#
# Convention : Reuss Voigt Hill
#
# Bulk Modulus (GPa) = 28.58204 45.24389 36.91296
# Shear Modulus (GPa) = -87.02276 17.63767 -34.69254
#
# Velocity S-wave (km/s) = -6.15289 2.77002 -3.88491
# Velocity P-wave (km/s) = 6.16792 5.46932 2.01615
#
# Compressibility (1/GPa) = 0.03498701
#
# Stress axis : x y z
#
# Youngs Moduli (GPa) = 39.21923 171.05846 83.09328
#
# Poissons Ratio (x) = 0.30289 0.04358
# Poissons Ratio (y) = 0.06944 0.15792
# Poissons Ratio (z) = 0.02057 0.32510
#
# Static dielectric constant tensor:
#      x y z
#    x 1.865770 0.000000 0.000000 
#    y 0.000000 1.853620 0.000000 
#    z 0.000000 0.000000 1.872890 
# 
# From -- ./inp_files/9075.got.cif
#   From: 2010.05.17/outbox.cif.g08.bks.cpg/sg42_5_cif.got.tgz:9075.got - 2010.06.03 19:03:34.
