data_PCOD9369488
_publ_section_title
;
Structure prediction by ZEFSAII (Michael W. Deem and Ramdas Pophale) SiO2 
 PCOD9369488
Probable space group: F M M 2
;
_chemical_formula_sum "Si O2"
_cell_formula_units_Z 116
_cell_length_a 15.937288
_cell_length_b 27.762920
_cell_length_c 13.820619
_cell_angle_alpha 90.000000
_cell_angle_beta 90.000000
_cell_angle_gamma 90.000000
_cell_volume 6115.149194
_symmetry_space_group_name_H-M "F M M 2"
_symmetry_group_IT_number 42
_symmetry_cell_setting 'orthorhombic'
loop_
_space_group_symop_operation_xyz
x,y,z
-x,-y,z
-x,y,z
x,-y,z
x,1/2+y,1/2+z
-x,1/2-y,1/2+z
-x,1/2+y,1/2+z
x,1/2-y,1/2+z
1/2+x,y,1/2+z
1/2-x,-y,1/2+z
1/2-x,y,1/2+z
1/2+x,-y,1/2+z
1/2+x,1/2+y,z
1/2-x,1/2-y,z
1/2-x,1/2+y,z
1/2+x,1/2-y,z
loop_
_atom_site_type_symbol
_atom_site_label
_atom_site_fract_x
_atom_site_fract_y
_atom_site_fract_z
Si Si1 0.600811 0.715384 0.342780
Si Si2 0.211031 0.553837 0.883497
Si Si3 0.852761 0.579313 0.236567
Si Si4 0.100392 0.384021 0.746019
Si Si5 0.000000 0.500000 0.229124
Si Si6 0.199282 0.798812 0.540664
Si Si7 0.772962 0.898237 0.073385
Si Si8 0.600342 0.686660 0.739267
O O1 0.500000 0.715886 0.356578
O O2 0.618762 0.672689 0.265659
O O3 0.646071 0.702631 0.442440
O O4 0.627608 0.768174 0.305401
O O5 0.177629 0.500000 0.897050
O O6 0.280715 0.556143 0.800839
O O7 0.138272 0.588354 0.840133
O O8 0.262621 0.569944 0.978194
O O9 0.928074 0.542597 0.230400
O O10 0.810533 0.588598 0.133229
O O11 0.874539 0.633201 0.274783
O O12 0.149700 0.401397 0.649210
O O13 0.000000 0.390649 0.738262
O O14 0.250000 0.750000 0.550446
O O15 0.263476 0.843262 0.539988
O O16 0.140310 0.805419 0.633960
O O17 0.500000 0.688283 0.732250
#
# Coordination Sequence:
#
# PCOD9369488 Si02
#       8
#    16  16  16  16   4  16  16  16
#     4  10  21  38  62  88 126 166 208 260 317 377
#     4  11  23  42  63  90 129 164 210 270 328 378
#     4  10  23  40  65  89 127 162 209 266 319 378
#     4  10  22  44  67  94 128 172 218 266 324 392
#     4  12  20  44  64  96 118 170 212 268 314 376
#     4  11  22  35  60  91 121 166 207 252 313 394
#     4  10  23  41  62  94 126 167 211 265 321 379
#     4  10  21  39  59  88 124 160 206 261 314 374
#
# _framework density 18.969283000000001
#
# number of rings (size 3 to 8) (size 9 to 14) (size 15 to 20)
#    0.000    1.655    2.759    1.241    2.897    2.483 
#    2.483    0.690    0.000    0.000    0.000    0.000 
#    0.000    0.000    0.000    0.000    0.000    0.000 
#
# Total GULP energy -161500.017721 kJ/mol
# GULP energy per Si atom -5568.966128 kJ/mol
# Density = 1.892611 g / cm^3
# Si number density = 18.969283 Si / 1000 Ang^3
#
#
#
# Elastic Constant Matrix: (Units=GPa)
#
#
# Indices 1 2 3 4 5 6 
#
# 1 60.0668 27.2165 5.0952 0.0000 0.0000 0.0000
# 2 27.2165 134.3333 25.5965 0.0000 0.0000 0.0000
# 3 5.0952 25.5965 65.5011 0.0000 0.0000 0.0000
# 4 0.0000 0.0000 0.0000 872.8678 0.0000 0.0000
# 5 0.0000 0.0000 0.0000 0.0000 12.2180 0.0000
# 6 0.0000 0.0000 0.0000 0.0000 0.0000 34.5436
#
#
#
# Elastic Compliance Matrix: (Units=1/GPa)
#
#
# Indices 1 2 3 4 5 6 
#
# 1 0.018331 -0.003719 0.000027 0.000000 0.000000 0.000000
# 2 -0.003719 0.008798 -0.003149 0.000000 0.000000 0.000000
# 3 0.000027 -0.003149 0.016495 0.000000 0.000000 0.000000
# 4 0.000000 0.000000 0.000000 0.001146 0.000000 0.000000
# 5 0.000000 0.000000 0.000000 0.000000 0.081846 0.000000
# 6 0.000000 0.000000 0.000000 0.000000 0.000000 0.028949
#
#
# Mechanical properties :
#
#
# Convention : Reuss Voigt Hill
#
# Bulk Modulus (GPa) = 33.39666 41.74640 37.57153
# Shear Modulus (GPa) = 27.89766 197.39207 112.64487
#
# Velocity S-wave (km/s) = 3.83910 10.21199 7.71438
# Velocity P-wave (km/s) = 6.10700 12.69257 9.95984
#
# Compressibility (1/GPa) = 0.02994312
#
# Stress axis : x y z
#
# Youngs Moduli (GPa) = 54.55254 113.66674 60.62368
#
# Poissons Ratio (x) = 0.42274 -0.00166
# Poissons Ratio (y) = 0.20289 0.19088
# Poissons Ratio (z) = -0.00150 0.35790
#
# Static dielectric constant tensor:
#      x y z
#    x 1.634660 0.000000 0.000000 
#    y 0.000000 1.662240 0.000000 
#    z 0.000000 0.000000 1.650620 
# 
# From -- ./inp_files/15421.got.cif
#   From: 2010.05.17/outbox.cif.g08.bks.cpg/sg42_8_cif.got.tgz:15421.got - 2010.06.03 19:03:34.
