data_PCOD9369585
_publ_section_title
;
Structure prediction by ZEFSAII (Michael W. Deem and Ramdas Pophale) SiO2 
 PCOD9369585
Probable space group: F M M 2
;
_chemical_formula_sum "Si O2"
_cell_formula_units_Z 80
_cell_length_a 13.286866
_cell_length_b 20.369493
_cell_length_c 12.276444
_cell_angle_alpha 90.000000
_cell_angle_beta 90.000000
_cell_angle_gamma 90.000000
_cell_volume 3322.579351
_symmetry_space_group_name_H-M "F M M 2"
_symmetry_group_IT_number 42
_symmetry_cell_setting 'orthorhombic'
loop_
_space_group_symop_operation_xyz
x,y,z
-x,-y,z
-x,y,z
x,-y,z
x,1/2+y,1/2+z
-x,1/2-y,1/2+z
-x,1/2+y,1/2+z
x,1/2-y,1/2+z
1/2+x,y,1/2+z
1/2-x,-y,1/2+z
1/2-x,y,1/2+z
1/2+x,-y,1/2+z
1/2+x,1/2+y,z
1/2-x,1/2-y,z
1/2-x,1/2+y,z
1/2+x,1/2-y,z
loop_
_atom_site_type_symbol
_atom_site_label
_atom_site_fract_x
_atom_site_fract_y
_atom_site_fract_z
Si Si1 0.328462 0.572383 0.693740
Si Si2 0.613142 0.253682 0.064957
Si Si3 0.385849 0.368748 0.232178
Si Si4 0.178082 0.377643 0.977224
Si Si5 0.391515 0.873722 0.404722
O O1 0.348716 0.500000 0.738005
O O2 0.208077 0.586681 0.694631
O O3 0.367324 0.577792 0.571052
O O4 0.377498 0.624860 0.775126
O O5 0.500000 0.225758 0.074499
O O6 0.629139 0.298787 0.171638
O O7 0.684019 0.192816 0.037997
O O8 0.610400 0.302703 0.961205
O O9 0.500000 0.389994 0.203241
O O10 0.376755 0.366572 0.363004
O O11 0.288703 0.405039 0.948257
O O12 0.500000 0.903479 0.432168
#
# Coordination Sequence:
#
# PCOD9369585 Si02
#       5
#    16  16  16  16  16
#     4  11  26  45  67  98 138 184 231 279 336 400
#     4  10  21  41  69 104 135 169 222 280 345 409
#     4  10  23  44  68 100 136 177 228 282 343 407
#     4  11  23  41  71 101 138 178 224 282 345 400
#     4  10  23  43  66  95 132 179 228 275 333 402
#
# _framework density 24.077679
#
# number of rings (size 3 to 8) (size 9 to 14) (size 15 to 20)
#    0.000    1.600    2.000    1.200    2.800    5.600 
#    0.000    0.000    0.000    0.000    0.000    0.000 
#    0.000    0.000    0.000    0.000    0.000    0.000 
#
# Total GULP energy -111651.662220 kJ/mol
# GULP energy per Si atom -5582.583111 kJ/mol
# Density = 2.402288 g / cm^3
# Si number density = 24.077679 Si / 1000 Ang^3
#
#
#
# Elastic Constant Matrix: (Units=GPa)
#
#
# Indices 1 2 3 4 5 6 
#
# 1 125.9346 5.2536 39.0888 0.0000 0.0000 0.0000
# 2 5.2536 56.4322 31.0491 0.0000 0.0000 0.0000
# 3 39.0888 31.0491 175.0907 0.0000 0.0000 0.0000
# 4 0.0000 0.0000 0.0000 11.8570 0.0000 0.0000
# 5 0.0000 0.0000 0.0000 0.0000 9.3001 0.0000
# 6 0.0000 0.0000 0.0000 0.0000 0.0000 2.1308
#
#
#
# Elastic Compliance Matrix: (Units=1/GPa)
#
#
# Indices 1 2 3 4 5 6 
#
# 1 0.008536 0.000281 -0.001956 0.000000 0.000000 0.000000
# 2 0.000281 0.019646 -0.003547 0.000000 0.000000 0.000000
# 3 -0.001956 -0.003547 0.006777 0.000000 0.000000 0.000000
# 4 0.000000 0.000000 0.000000 0.084339 0.000000 0.000000
# 5 0.000000 0.000000 0.000000 0.000000 0.107526 0.000000
# 6 0.000000 0.000000 0.000000 0.000000 0.000000 0.469299
#
#
# Mechanical properties :
#
#
# Convention : Reuss Voigt Hill
#
# Bulk Modulus (GPa) = 40.78869 56.47117 48.62993
# Shear Modulus (GPa) = 6.99559 23.46198 15.22878
#
# Velocity S-wave (km/s) = 1.70638 3.12497 2.51765
# Velocity P-wave (km/s) = 4.56723 6.04361 5.35653
#
# Compressibility (1/GPa) = 0.02451660
#
# Stress axis : x y z
#
# Youngs Moduli (GPa) = 117.15275 50.90223 147.56218
#
# Poissons Ratio (x) = -0.01432 0.28856
# Poissons Ratio (y) = -0.03295 0.52334
# Poissons Ratio (z) = 0.22909 0.18053
#
# Static dielectric constant tensor:
#      x y z
#    x 1.963240 0.000000 0.000000 
#    y 0.000000 1.872290 0.000000 
#    z 0.000000 0.000000 1.940100 
# 
# From -- ./inp_files/7763.got.cif
#   From: 2010.05.17/outbox.cif.g08.bks.cpg/sg42_4_cif.got.tgz:7763.got - 2010.06.03 19:03:34.
