data_PCOD9369259
_publ_section_title
;
Structure prediction by ZEFSAII (Michael W. Deem and Ramdas Pophale) SiO2 
 PCOD9369259
Probable space group: F M M 2
;
_chemical_formula_sum "Si O2"
_cell_formula_units_Z 112
_cell_length_a 18.751598
_cell_length_b 23.788002
_cell_length_c 12.515644
_cell_angle_alpha 90.000000
_cell_angle_beta 90.000000
_cell_angle_gamma 90.000000
_cell_volume 5582.766344
_symmetry_space_group_name_H-M "F M M 2"
_symmetry_group_IT_number 42
_symmetry_cell_setting 'orthorhombic'
loop_
_space_group_symop_operation_xyz
x,y,z
-x,-y,z
-x,y,z
x,-y,z
x,1/2+y,1/2+z
-x,1/2-y,1/2+z
-x,1/2+y,1/2+z
x,1/2-y,1/2+z
1/2+x,y,1/2+z
1/2-x,-y,1/2+z
1/2-x,y,1/2+z
1/2+x,-y,1/2+z
1/2+x,1/2+y,z
1/2-x,1/2-y,z
1/2-x,1/2+y,z
1/2+x,1/2-y,z
loop_
_atom_site_type_symbol
_atom_site_label
_atom_site_fract_x
_atom_site_fract_y
_atom_site_fract_z
Si Si1 0.914717 0.864277 0.016990
Si Si2 0.346518 0.064358 0.327222
Si Si3 0.175059 0.861825 0.621548
Si Si4 0.416519 0.437279 0.217947
Si Si5 0.202237 0.198656 0.253466
Si Si6 0.309585 0.907592 0.894115
Si Si7 0.585391 0.749356 0.609565
O O1 0.890988 0.892947 0.129132
O O2 0.900105 0.797434 0.019864
O O3 0.000000 0.870755 0.013518
O O4 0.881992 0.899013 0.920658
O O5 0.353315 0.100042 0.218678
O O6 0.262727 0.063367 0.355866
O O7 0.372858 0.000000 0.320618
O O8 0.248223 0.831754 0.662569
O O9 0.186471 0.902013 0.520496
O O10 0.120567 0.811397 0.592218
O O11 0.500000 0.427411 0.236683
O O12 0.407507 0.500000 0.172409
O O13 0.374843 0.433653 0.328769
O O14 0.250000 0.250000 0.792119
O O15 0.192499 0.155486 0.348228
O O16 0.128670 0.224193 0.209439
O O17 0.500000 0.746155 0.625149
#
# Coordination Sequence:
#
# PCOD9369259 Si02
#       7
#    16  16  16  16  16  16  16
#     4  10  21  41  67  94 122 160 213 269 316 362
#     4  11  25  42  64  93 127 170 219 264 313 379
#     4  10  24  40  58  91 132 167 202 250 325 387
#     4  10  21  38  62  91 120 155 206 264 319 367
#     4   9  19  36  58  86 123 163 201 257 308 368
#     4  11  22  38  61  89 123 166 207 257 314 376
#     4  10  20  38  65  94 123 160 211 263 311 375
#
# _framework density 20.061737999999998
#
# number of rings (size 3 to 8) (size 9 to 14) (size 15 to 20)
#    0.000    1.857    1.429    1.714    2.000    8.286 
#    0.000    1.429    0.000    0.000    0.000    0.000 
#    0.000    0.000    0.000    0.000    0.000    0.000 
#
# Total GULP energy -156286.055374 kJ/mol
# GULP energy per Si atom -5581.644835 kJ/mol
# Density = 2.001608 g / cm^3
# Si number density = 20.061738 Si / 1000 Ang^3
#
#
#
# Elastic Constant Matrix: (Units=GPa)
#
#
# Indices 1 2 3 4 5 6 
#
# 1 68.0300 34.9223 12.1254 0.0000 0.0000 0.0000
# 2 34.9223 120.6606 30.0025 0.0000 0.0000 0.0000
# 3 12.1254 30.0025 80.0211 0.0000 0.0000 0.0000
# 4 0.0000 0.0000 0.0000 7.0528 0.0000 0.0000
# 5 0.0000 0.0000 0.0000 0.0000 24.9770 0.0000
# 6 0.0000 0.0000 0.0000 0.0000 0.0000 23.5661
#
#
#
# Elastic Compliance Matrix: (Units=1/GPa)
#
#
# Indices 1 2 3 4 5 6 
#
# 1 0.017313 -0.004807 -0.000821 0.000000 0.000000 0.000000
# 2 -0.004807 0.010474 -0.003199 0.000000 0.000000 0.000000
# 3 -0.000821 -0.003199 0.013820 0.000000 0.000000 0.000000
# 4 0.000000 0.000000 0.000000 0.141788 0.000000 0.000000
# 5 0.000000 0.000000 0.000000 0.000000 0.040037 0.000000
# 6 0.000000 0.000000 0.000000 0.000000 0.000000 0.042434
#
#
# Mechanical properties :
#
#
# Convention : Reuss Voigt Hill
#
# Bulk Modulus (GPa) = 41.74582 46.97914 44.36248
# Shear Modulus (GPa) = 17.15235 23.89660 20.52448
#
# Velocity S-wave (km/s) = 2.92717 3.45505 3.20201
# Velocity P-wave (km/s) = 5.68140 6.27572 5.98594
#
# Compressibility (1/GPa) = 0.02395450
#
# Stress axis : x y z
#
# Youngs Moduli (GPa) = 57.75926 95.47192 72.35641
#
# Poissons Ratio (x) = 0.45890 0.05942
# Poissons Ratio (y) = 0.27763 0.23145
# Poissons Ratio (z) = 0.04744 0.30540
#
# Static dielectric constant tensor:
#      x y z
#    x 1.708270 0.000000 0.000000 
#    y 0.000000 1.743350 0.000000 
#    z 0.000000 0.000000 1.686780 
# 
# From -- ./inp_files/9676.got.cif
#   From: 2010.05.17/outbox.cif.g08.bks.cpg/sg42_5_cif.got.tgz:9676.got - 2010.06.03 19:03:34.
