data_PCOD9369892
_publ_section_title
;
Structure prediction by ZEFSAII (Michael W. Deem and Ramdas Pophale) SiO2 
 PCOD9369892
Probable space group: F M M 2
;
_chemical_formula_sum "Si O2"
_cell_formula_units_Z 116
_cell_length_a 17.362836
_cell_length_b 18.999830
_cell_length_c 17.321440
_cell_angle_alpha 90.000000
_cell_angle_beta 90.000000
_cell_angle_gamma 90.000000
_cell_volume 5714.185991
_symmetry_space_group_name_H-M "F M M 2"
_symmetry_group_IT_number 42
_symmetry_cell_setting 'orthorhombic'
loop_
_space_group_symop_operation_xyz
x,y,z
-x,-y,z
-x,y,z
x,-y,z
x,1/2+y,1/2+z
-x,1/2-y,1/2+z
-x,1/2+y,1/2+z
x,1/2-y,1/2+z
1/2+x,y,1/2+z
1/2-x,-y,1/2+z
1/2-x,y,1/2+z
1/2+x,-y,1/2+z
1/2+x,1/2+y,z
1/2-x,1/2-y,z
1/2-x,1/2+y,z
1/2+x,1/2-y,z
loop_
_atom_site_type_symbol
_atom_site_label
_atom_site_fract_x
_atom_site_fract_y
_atom_site_fract_z
Si Si1 0.406358 0.921469 0.117640
Si Si2 0.170997 0.287982 0.724419
Si Si3 0.185281 0.308622 0.543620
Si Si4 0.858015 0.389605 0.855183
Si Si5 0.809974 0.919679 0.912553
Si Si6 0.500000 0.500000 0.365177
Si Si7 0.091288 0.149267 0.776762
Si Si8 0.589908 0.807312 0.992636
O O1 0.500000 0.921292 0.114896
O O2 0.385351 0.901137 0.204760
O O3 0.380438 0.000000 0.096314
O O4 0.379605 0.862485 0.057298
O O5 0.250000 0.250000 0.751056
O O6 0.183765 0.310341 0.635935
O O7 0.150428 0.357576 0.770843
O O8 0.108786 0.227302 0.743425
O O9 0.250000 0.250000 0.521894
O O10 0.193397 0.378999 0.494369
O O11 0.106317 0.270861 0.519408
O O12 0.776907 0.421875 0.880140
O O13 0.870901 0.323704 0.912060
O O14 0.931277 0.439499 0.865226
O O15 0.860850 0.874250 0.851779
O O16 0.838970 0.000000 0.918723
O O17 0.000000 0.142211 0.790895
O O18 0.500000 0.819902 0.985184
#
# Coordination Sequence:
#
# PCOD9369892 Si02
#       8
#    16  16  16  16  16   4  16  16
#     4   9  19  35  60  96 138 174 217 285 352 413
#     4  11  24  44  70 101 137 181 237 298 350 422
#     4  11  24  44  68 100 138 181 232 289 350 422
#     4  12  25  43  69 100 134 184 233 288 355 418
#     4  12  26  45  70 101 143 185 234 289 353 431
#     4  12  28  48  68 100 150 188 232 296 356 444
#     4  11  23  42  69 100 137 184 238 294 356 416
#     4  11  22  38  66 100 133 172 229 286 349 413
#
# _framework density 20.300353999999999
#
# number of rings (size 3 to 8) (size 9 to 14) (size 15 to 20)
#    0.000    0.966    5.517    1.241    1.931    2.483 
#    1.241    0.000    0.000    0.000    0.000    0.000 
#    0.000    0.000    0.000    0.000    0.000    0.000 
#
# Total GULP energy -161721.056820 kJ/mol
# GULP energy per Si atom -5576.588166 kJ/mol
# Density = 2.025415 g / cm^3
# Si number density = 20.300354 Si / 1000 Ang^3
#
#
#
# Elastic Constant Matrix: (Units=GPa)
#
#
# Indices 1 2 3 4 5 6 
#
# 1 82.1049 15.4811 31.8775 0.0000 0.0000 0.0000
# 2 15.4811 94.6046 34.9081 0.0000 0.0000 0.0000
# 3 31.8775 34.9081 86.0236 0.0000 0.0000 0.0000
# 4 0.0000 0.0000 0.0000 -34.4599 0.0000 0.0000
# 5 0.0000 0.0000 0.0000 0.0000 18.5368 0.0000
# 6 0.0000 0.0000 0.0000 0.0000 0.0000 33.7155
#
#
#
# Elastic Compliance Matrix: (Units=1/GPa)
#
#
# Indices 1 2 3 4 5 6 
#
# 1 0.014243 -0.000451 -0.005095 0.000000 0.000000 0.000000
# 2 -0.000451 0.012446 -0.004884 0.000000 0.000000 0.000000
# 3 -0.005095 -0.004884 0.015494 0.000000 0.000000 0.000000
# 4 0.000000 0.000000 0.000000 -0.029019 0.000000 0.000000
# 5 0.000000 0.000000 0.000000 0.000000 0.053947 0.000000
# 6 0.000000 0.000000 0.000000 0.000000 0.000000 0.029660
#
#
# Mechanical properties :
#
#
# Convention : Reuss Voigt Hill
#
# Bulk Modulus (GPa) = 46.89385 47.47405 47.18395
# Shear Modulus (GPa) = 40.08426 15.58959 27.83692
#
# Velocity S-wave (km/s) = 4.44842 2.77419 3.70706
# Velocity P-wave (km/s) = 7.03809 5.80501 6.45108
#
# Compressibility (1/GPa) = 0.02132476
#
# Stress axis : x y z
#
# Youngs Moduli (GPa) = 70.21166 80.34681 64.53913
#
# Poissons Ratio (x) = 0.03621 0.32882
# Poissons Ratio (y) = 0.03164 0.31518
# Poissons Ratio (z) = 0.35773 0.39238
#
# Static dielectric constant tensor:
#      x y z
#    x 1.742270 0.000000 0.000000 
#    y 0.000000 1.768380 0.000000 
#    z 0.000000 0.000000 1.735080 
# 
# From -- ./inp_files/20979.got.cif
#   From: 2010.05.17/outbox.cif.g08.bks.cpg/sg42_11_cif.got.tgz:20979.got - 2010.06.03 19:03:34.
