data_PCOD9369931
_publ_section_title
;
Structure prediction by ZEFSAII (Michael W. Deem and Ramdas Pophale) SiO2 
 PCOD9369931
Probable space group: F M M 2
;
_chemical_formula_sum "Si O2"
_cell_formula_units_Z 96
_cell_length_a 13.463769
_cell_length_b 14.448833
_cell_length_c 23.227165
_cell_angle_alpha 90.000000
_cell_angle_beta 90.000000
_cell_angle_gamma 90.000000
_cell_volume 4518.513960
_symmetry_space_group_name_H-M "F M M 2"
_symmetry_group_IT_number 42
_symmetry_cell_setting 'orthorhombic'
loop_
_space_group_symop_operation_xyz
x,y,z
-x,-y,z
-x,y,z
x,-y,z
x,1/2+y,1/2+z
-x,1/2-y,1/2+z
-x,1/2+y,1/2+z
x,1/2-y,1/2+z
1/2+x,y,1/2+z
1/2-x,-y,1/2+z
1/2-x,y,1/2+z
1/2+x,-y,1/2+z
1/2+x,1/2+y,z
1/2-x,1/2-y,z
1/2-x,1/2+y,z
1/2+x,1/2-y,z
loop_
_atom_site_type_symbol
_atom_site_label
_atom_site_fract_x
_atom_site_fract_y
_atom_site_fract_z
Si Si1 0.618014 0.700582 0.248270
Si Si2 0.199069 0.395907 0.203518
Si Si3 0.117662 0.500000 0.532506
Si Si4 0.223953 0.150219 0.368630
Si Si5 0.109616 0.394242 0.978436
Si Si6 0.265618 0.852240 0.082628
Si Si7 0.381182 0.500000 0.892368
O O1 0.500000 0.686745 0.245672
O O2 0.684199 0.633887 0.207616
O O3 0.643429 0.808659 0.233573
O O4 0.664454 0.671889 0.310202
O O5 0.183756 0.500000 0.227523
O O6 0.176644 0.398897 0.135580
O O7 0.171477 0.412323 0.562188
O O8 0.135190 0.500000 0.462584
O O9 0.000000 0.500000 0.541282
O O10 0.250000 0.250000 0.393570
O O11 0.154023 0.103678 0.415196
O O12 0.323079 0.088173 0.365684
O O13 0.109031 0.500000 0.000011
O O14 0.000000 0.355774 0.975423
O O15 0.172018 0.340041 0.024731
O O16 0.250000 0.750000 0.105640
O O17 0.500000 0.500000 0.882462
#
# Coordination Sequence:
#
# PCOD9369931 Si02
#       7
#    16  16   8  16  16  16   8
#     4  11  26  47  70 102 136 182 239 289 349 413
#     4  11  24  48  72  95 141 185 231 296 349 408
#     4  11  24  44  69 106 144 184 232 280 349 430
#     4  12  23  46  70  97 142 178 227 294 342 411
#     4  11  23  40  67 102 138 180 225 277 348 424
#     4  12  22  44  70  99 142 181 225 291 348 413
#     4  11  26  46  73 106 146 188 228 282 359 430
#
# _framework density 21.245923000000001
#
# number of rings (size 3 to 8) (size 9 to 14) (size 15 to 20)
#    0.000    0.667    7.500    1.000    1.167    4.000 
#    0.000    0.000    0.000    0.000    0.000    0.000 
#    0.000    0.000    0.000    0.000    0.000    0.000 
#
# Total GULP energy -133906.806575 kJ/mol
# GULP energy per Si atom -5579.450274 kJ/mol
# Density = 2.119757 g / cm^3
# Si number density = 21.245923 Si / 1000 Ang^3
#
#
#
# Elastic Constant Matrix: (Units=GPa)
#
#
# Indices 1 2 3 4 5 6 
#
# 1 121.5086 16.3233 25.4685 0.0000 0.0000 0.0000
# 2 16.3233 123.2375 15.1041 0.0000 0.0000 0.0000
# 3 25.4685 15.1041 111.6573 0.0000 0.0000 0.0000
# 4 0.0000 0.0000 0.0000 40.7955 0.0000 0.0000
# 5 0.0000 0.0000 0.0000 0.0000 3.7616 0.0000
# 6 0.0000 0.0000 0.0000 0.0000 0.0000 4.4127
#
#
#
# Elastic Compliance Matrix: (Units=1/GPa)
#
#
# Indices 1 2 3 4 5 6 
#
# 1 0.008747 -0.000929 -0.001869 0.000000 0.000000 0.000000
# 2 -0.000929 0.008350 -0.000918 0.000000 0.000000 0.000000
# 3 -0.001869 -0.000918 0.009506 0.000000 0.000000 0.000000
# 4 0.000000 0.000000 0.000000 0.024513 0.000000 0.000000
# 5 0.000000 0.000000 0.000000 0.000000 0.265843 0.000000
# 6 0.000000 0.000000 0.000000 0.000000 0.000000 0.226621
#
#
# Mechanical properties :
#
#
# Convention : Reuss Voigt Hill
#
# Bulk Modulus (GPa) = 52.16355 52.24392 52.20374
# Shear Modulus (GPa) = 8.97019 29.76111 19.36565
#
# Velocity S-wave (km/s) = 2.05700 3.74678 3.02238
# Velocity P-wave (km/s) = 5.49975 6.58493 6.06665
#
# Compressibility (1/GPa) = 0.01917047
#
# Stress axis : x y z
#
# Youngs Moduli (GPa) = 114.33086 119.76092 105.19145
#
# Poissons Ratio (x) = 0.11131 0.19664
# Poissons Ratio (y) = 0.10626 0.09652
# Poissons Ratio (z) = 0.21372 0.10988
#
# Static dielectric constant tensor:
#      x y z
#    x 1.761160 0.000000 0.000000 
#    y 0.000000 1.746220 0.000000 
#    z 0.000000 0.000000 1.796360 
# 
# From -- ./inp_files/29415.got.cif
#   From: 2010.05.17/outbox.cif.g08.bks.cpg/sg42_15_cif.got.tgz:29415.got - 2010.06.03 19:03:34.
