data_PCOD9369897
_publ_section_title
;
Structure prediction by ZEFSAII (Michael W. Deem and Ramdas Pophale) SiO2 
 PCOD9369897
Probable space group: F M M 2
;
_chemical_formula_sum "Si O2"
_cell_formula_units_Z 80
_cell_length_a 29.883971
_cell_length_b 8.197190
_cell_length_c 15.714167
_cell_angle_alpha 90.000000
_cell_angle_beta 90.000000
_cell_angle_gamma 90.000000
_cell_volume 3849.414449
_symmetry_space_group_name_H-M "F M M 2"
_symmetry_group_IT_number 42
_symmetry_cell_setting 'orthorhombic'
loop_
_space_group_symop_operation_xyz
x,y,z
-x,-y,z
-x,y,z
x,-y,z
x,1/2+y,1/2+z
-x,1/2-y,1/2+z
-x,1/2+y,1/2+z
x,1/2-y,1/2+z
1/2+x,y,1/2+z
1/2-x,-y,1/2+z
1/2-x,y,1/2+z
1/2+x,-y,1/2+z
1/2+x,1/2+y,z
1/2-x,1/2-y,z
1/2-x,1/2+y,z
1/2+x,1/2-y,z
loop_
_atom_site_type_symbol
_atom_site_label
_atom_site_fract_x
_atom_site_fract_y
_atom_site_fract_z
Si Si1 0.645583 0.192759 0.754230
Si Si2 0.951221 0.802001 0.203122
Si Si3 0.699152 0.309212 0.592288
Si Si4 0.357353 0.692490 0.933856
Si Si5 0.451085 0.198314 0.502395
O O1 0.594055 0.254365 0.747929
O O2 0.674938 0.275885 0.681837
O O3 0.661689 0.224477 0.849608
O O4 0.645660 0.000000 0.735962
O O5 0.000000 0.742242 0.233700
O O6 0.952048 0.000000 0.208765
O O7 0.947321 0.761331 0.102710
O O8 0.698062 0.500000 0.573421
O O9 0.750000 0.250000 0.596020
O O10 0.672118 0.220267 0.517391
O O11 0.360292 0.500000 0.917340
O O12 0.407358 0.758314 0.953892
O O13 0.500000 0.254704 0.471784
O O14 0.450648 0.000000 0.498262
#
# Coordination Sequence:
#
# PCOD9369897 Si02
#       5
#    16  16  16  16  16
#     4  11  22  39  63  94 128 165 206 252 303 362
#     4   8  14  28  54  86 121 164 208 248 294 350
#     4  12  26  46  69  92 119 155 200 255 315 374
#     4  11  22  39  63  94 128 165 206 252 303 362
#     4   8  14  28  54  86 121 164 208 248 294 350
#
# _framework density 20.782381000000001
#
# number of rings (size 3 to 8) (size 9 to 14) (size 15 to 20)
#    0.000    2.000    2.000    4.200    0.000    1.600 
#    0.000    4.000    0.000    4.800    0.000    0.000 
#    0.000    0.000    0.000    0.000    0.000    0.000 
#
# Total GULP energy -111707.521319 kJ/mol
# GULP energy per Si atom -5585.376066 kJ/mol
# Density = 2.073508 g / cm^3
# Si number density = 20.782381 Si / 1000 Ang^3
#
#
#
# Elastic Constant Matrix: (Units=GPa)
#
#
# Indices 1 2 3 4 5 6 
#
# 1 113.3897 -5.0968 34.6130 0.0000 0.0000 0.0000
# 2 -5.0968 28.4632 -18.8798 0.0000 0.0000 0.0000
# 3 34.6130 -18.8798 84.5759 0.0000 0.0000 0.0000
# 4 0.0000 0.0000 0.0000 23.2341 0.0000 0.0000
# 5 0.0000 0.0000 0.0000 0.0000 -6.6101 0.0000
# 6 0.0000 0.0000 0.0000 0.0000 0.0000 17.1282
#
#
#
# Elastic Compliance Matrix: (Units=1/GPa)
#
#
# Indices 1 2 3 4 5 6 
#
# 1 0.010107 -0.001096 -0.004381 0.000000 0.000000 0.000000
# 2 -0.001096 0.041358 0.009681 0.000000 0.000000 0.000000
# 3 -0.004381 0.009681 0.015778 0.000000 0.000000 0.000000
# 4 0.000000 0.000000 0.000000 0.043040 0.000000 0.000000
# 5 0.000000 0.000000 0.000000 0.000000 -0.151284 0.000000
# 6 0.000000 0.000000 0.000000 0.000000 0.000000 0.058383
#
#
# Mechanical properties :
#
#
# Convention : Reuss Voigt Hill
#
# Bulk Modulus (GPa) = 13.21864 27.52241 20.37052
# Shear Modulus (GPa) = 146.23278 21.13660 83.68469
#
# Velocity S-wave (km/s) = 8.39741 3.19257 6.35252
# Velocity P-wave (km/s) = 10.01980 5.18285 7.97679
#
# Compressibility (1/GPa) = 0.07565075
#
# Stress axis : x y z
#
# Youngs Moduli (GPa) = 98.93900 24.17893 63.38027
#
# Poissons Ratio (x) = 0.02650 0.27768
# Poissons Ratio (y) = 0.10846 -0.61359
# Poissons Ratio (z) = 0.43346 -0.23408
#
# Static dielectric constant tensor:
#      x y z
#    x 1.721280 0.000000 0.000000 
#    y 0.000000 1.717000 0.000000 
#    z 0.000000 0.000000 1.719470 
# 
# From -- ./inp_files/22709.got.cif
#   From: 2010.05.17/outbox.cif.g08.bks.cpg/sg42_12_cif.got.tgz:22709.got - 2010.06.03 19:03:34.
