data_PCOD9369434
_publ_section_title
;
Structure prediction by ZEFSAII (Michael W. Deem and Ramdas Pophale) SiO2 
 PCOD9369434
Probable space group: F M M 2
;
_chemical_formula_sum "Si O2"
_cell_formula_units_Z 96
_cell_length_a 14.918219
_cell_length_b 27.497264
_cell_length_c 9.257935
_cell_angle_alpha 90.000000
_cell_angle_beta 90.000000
_cell_angle_gamma 90.000000
_cell_volume 3797.699426
_symmetry_space_group_name_H-M "F M M 2"
_symmetry_group_IT_number 42
_symmetry_cell_setting 'orthorhombic'
loop_
_space_group_symop_operation_xyz
x,y,z
-x,-y,z
-x,y,z
x,-y,z
x,1/2+y,1/2+z
-x,1/2-y,1/2+z
-x,1/2+y,1/2+z
x,1/2-y,1/2+z
1/2+x,y,1/2+z
1/2-x,-y,1/2+z
1/2-x,y,1/2+z
1/2+x,-y,1/2+z
1/2+x,1/2+y,z
1/2-x,1/2-y,z
1/2-x,1/2+y,z
1/2+x,1/2-y,z
loop_
_atom_site_type_symbol
_atom_site_label
_atom_site_fract_x
_atom_site_fract_y
_atom_site_fract_z
Si Si1 0.101739 0.447320 0.605610
Si Si2 0.400243 0.863262 0.414770
Si Si3 0.890673 0.314679 0.913100
Si Si4 0.353588 0.946690 0.218892
Si Si5 0.390837 0.775735 0.229682
Si Si6 0.671743 0.076737 0.888991
O O1 0.143218 0.500000 0.570282
O O2 0.142691 0.397893 0.537735
O O3 0.098557 0.442161 0.776375
O O4 0.000000 0.447986 0.548992
O O5 0.500000 0.849415 0.468255
O O6 0.406234 0.900387 0.279317
O O7 0.357629 0.815001 0.348581
O O8 0.867002 0.277775 0.783935
O O9 0.840748 0.365491 0.896858
O O10 0.000000 0.322120 0.911707
O O11 0.866387 0.290454 0.067442
O O12 0.260218 0.940689 0.304611
O O13 0.391772 0.000000 0.250710
O O14 0.338715 0.942783 0.049086
O O15 0.500000 0.778607 0.234385
#
# Coordination Sequence:
#
# PCOD9369434 Si02
#       6
#    16  16  16  16  16  16
#     4  10  21  37  60  92 127 166 213 265 322 382
#     4  10  21  40  66  96 130 164 212 269 324 391
#     4  10  21  40  69 101 131 167 212 264 322 388
#     4  12  25  42  65  90 125 173 219 269 330 388
#     4   9  19  37  65 100 131 163 205 255 320 383
#     4  12  25  43  64  89 128 170 221 269 322 386
#
# _framework density 25.278462000000001
#
# number of rings (size 3 to 8) (size 9 to 14) (size 15 to 20)
#    0.000    1.500    1.667    3.500    2.333    1.667 
#    0.000    0.833    0.000    0.000    0.000    0.000 
#    0.000    0.000    0.000    0.000    0.000    0.000 
#
# Total GULP energy -134223.945802 kJ/mol
# GULP energy per Si atom -5592.664408 kJ/mol
# Density = 2.522093 g / cm^3
# Si number density = 25.278462 Si / 1000 Ang^3
#
#
#
# Elastic Constant Matrix: (Units=GPa)
#
#
# Indices 1 2 3 4 5 6 
#
# 1 49.8215 3.7611 1.4795 0.0000 0.0000 0.0000
# 2 3.7611 158.0433 30.7129 0.0000 0.0000 0.0000
# 3 1.4795 30.7129 163.9125 0.0000 0.0000 0.0000
# 4 0.0000 0.0000 0.0000 43.7480 0.0000 0.0000
# 5 0.0000 0.0000 0.0000 0.0000 26.5282 0.0000
# 6 0.0000 0.0000 0.0000 0.0000 0.0000 22.8478
#
#
#
# Elastic Compliance Matrix: (Units=1/GPa)
#
#
# Indices 1 2 3 4 5 6 
#
# 1 0.020109 -0.000460 -0.000095 0.000000 0.000000 0.000000
# 2 -0.000460 0.006577 -0.001228 0.000000 0.000000 0.000000
# 3 -0.000095 -0.001228 0.006332 0.000000 0.000000 0.000000
# 4 0.000000 0.000000 0.000000 0.022858 0.000000 0.000000
# 5 0.000000 0.000000 0.000000 0.000000 0.037696 0.000000
# 6 0.000000 0.000000 0.000000 0.000000 0.000000 0.043768
#
#
# Mechanical properties :
#
#
# Convention : Reuss Voigt Hill
#
# Bulk Modulus (GPa) = 33.95480 49.29826 41.62653
# Shear Modulus (GPa) = 33.17322 41.01304 37.09313
#
# Velocity S-wave (km/s) = 3.62651 4.03233 3.83480
# Velocity P-wave (km/s) = 5.56749 6.42060 6.00920
#
# Compressibility (1/GPa) = 0.02945092
#
# Stress axis : x y z
#
# Youngs Moduli (GPa) = 49.72847 152.04484 157.93270
#
# Poissons Ratio (x) = 0.06995 0.01505
# Poissons Ratio (y) = 0.02288 0.19397
# Poissons Ratio (z) = 0.00474 0.18674
#
# Static dielectric constant tensor:
#      x y z
#    x 2.089410 0.000000 0.000000 
#    y 0.000000 1.962310 0.000000 
#    z 0.000000 0.000000 1.965800 
# 
# From -- ./inp_files/4172.got.cif
#   From: 2010.05.17/outbox.cif.g08.bks.cpg/sg42_3_cif.got.tgz:4172.got - 2010.06.03 19:03:34.
