data_PCOD9369222
_publ_section_title
;
Structure prediction by ZEFSAII (Michael W. Deem and Ramdas Pophale) SiO2 
 PCOD9369222
Probable space group: F M M 2
;
_chemical_formula_sum "Si O2"
_cell_formula_units_Z 96
_cell_length_a 8.979159
_cell_length_b 28.929330
_cell_length_c 20.962145
_cell_angle_alpha 90.000000
_cell_angle_beta 90.000000
_cell_angle_gamma 90.000000
_cell_volume 5445.148876
_symmetry_space_group_name_H-M "F M M 2"
_symmetry_group_IT_number 42
_symmetry_cell_setting 'orthorhombic'
loop_
_space_group_symop_operation_xyz
x,y,z
-x,-y,z
-x,y,z
x,-y,z
x,1/2+y,1/2+z
-x,1/2-y,1/2+z
-x,1/2+y,1/2+z
x,1/2-y,1/2+z
1/2+x,y,1/2+z
1/2-x,-y,1/2+z
1/2-x,y,1/2+z
1/2+x,-y,1/2+z
1/2+x,1/2+y,z
1/2-x,1/2-y,z
1/2-x,1/2+y,z
1/2+x,1/2-y,z
loop_
_atom_site_type_symbol
_atom_site_label
_atom_site_fract_x
_atom_site_fract_y
_atom_site_fract_z
Si Si1 0.679672 0.897686 0.201880
Si Si2 0.324616 0.444803 0.324518
Si Si3 0.178707 0.798280 0.896709
Si Si4 0.821135 0.603179 0.446597
Si Si5 0.179398 0.054215 0.568368
Si Si6 0.821522 0.701769 0.247439
O O1 0.500000 0.900709 0.209607
O O2 0.756033 0.924116 0.260148
O O3 0.719081 0.921051 0.134864
O O4 0.721097 0.843611 0.207742
O O5 0.500000 0.433832 0.328598
O O6 0.307745 0.500000 0.324690
O O7 0.240617 0.423482 0.384966
O O8 0.250000 0.750000 0.917338
O O9 0.222638 0.843053 0.937256
O O10 0.220400 0.806122 0.822055
O O11 0.000000 0.794277 0.898751
O O12 0.754814 0.580088 0.509506
O O13 0.000000 0.600681 0.447212
O O14 0.000000 0.056687 0.561298
O O15 0.220597 0.000000 0.569682
O O16 0.750000 0.750000 0.226595
O O17 0.000000 0.706227 0.245192
#
# Coordination Sequence:
#
# PCOD9369222 Si02
#       6
#    16  16  16  16  16  16
#     4  10  20  38  60  82 111 149 189 229 277 335
#     4  11  23  36  54  83 114 142 183 237 283 330
#     4   9  18  33  54  82 111 141 181 226 275 333
#     4  11  22  38  58  82 112 148 189 232 279 333
#     4  10  22  39  58  81 112 152 193 231 278 335
#     4   9  17  32  54  82 112 142 181 225 274 332
#
# _framework density 17.630372000000001
#
# number of rings (size 3 to 8) (size 9 to 14) (size 15 to 20)
#    0.000    2.000    1.667    2.000    0.000    7.000 
#    0.000    0.833    0.000    4.000    0.000    0.000 
#    0.000    0.000    0.000    0.000    0.000    0.000 
#
# Total GULP energy -133991.897441 kJ/mol
# GULP energy per Si atom -5582.995727 kJ/mol
# Density = 1.759024 g / cm^3
# Si number density = 17.630372 Si / 1000 Ang^3
#
#
#
# Elastic Constant Matrix: (Units=GPa)
#
#
# Indices 1 2 3 4 5 6 
#
# 1 30.9841 59.8292 53.8752 0.0000 0.0000 0.0000
# 2 59.8292 180.1867 102.6858 0.0000 0.0000 0.0000
# 3 53.8752 102.6858 147.5067 0.0000 0.0000 0.0000
# 4 0.0000 0.0000 0.0000 29.1519 0.0000 0.0000
# 5 0.0000 0.0000 0.0000 0.0000 27.0410 0.0000
# 6 0.0000 0.0000 0.0000 0.0000 0.0000 32.4228
#
#
#
# Elastic Compliance Matrix: (Units=1/GPa)
#
#
# Indices 1 2 3 4 5 6 
#
# 1 0.148767 -0.030552 -0.033067 0.000000 0.000000 0.000000
# 2 -0.030552 0.015474 0.000387 0.000000 0.000000 0.000000
# 3 -0.033067 0.000387 0.018587 0.000000 0.000000 0.000000
# 4 0.000000 0.000000 0.000000 0.034303 0.000000 0.000000
# 5 0.000000 0.000000 0.000000 0.000000 0.036981 0.000000
# 6 0.000000 0.000000 0.000000 0.000000 0.000000 0.030842
#
#
# Mechanical properties :
#
#
# Convention : Reuss Voigt Hill
#
# Bulk Modulus (GPa) = 17.74194 87.93976 52.84085
# Shear Modulus (GPa) = 11.62233 27.20897 19.41565
#
# Velocity S-wave (km/s) = 2.57032 3.93275 3.32213
# Velocity P-wave (km/s) = 4.34670 8.40298 6.68969
#
# Compressibility (1/GPa) = 0.05636363
#
# Stress axis : x y z
#
# Youngs Moduli (GPa) = 6.72194 64.62472 53.80020
#
# Poissons Ratio (x) = 1.97443 1.77899
# Poissons Ratio (y) = 0.20537 -0.02081
# Poissons Ratio (z) = 0.22227 -0.02500
#
# Static dielectric constant tensor:
#      x y z
#    x 1.591420 0.000000 0.000000 
#    y 0.000000 1.599060 0.000000 
#    z 0.000000 0.000000 1.568040 
# 
# From -- ./inp_files/23691.got.cif
#   From: 2010.05.17/outbox.cif.g08.bks.cpg/sg42_12_cif.got.tgz:23691.got - 2010.06.03 19:03:34.
