data_PCOD9369521
_publ_section_title
;
Structure prediction by ZEFSAII (Michael W. Deem and Ramdas Pophale) SiO2 
 PCOD9369521
Probable space group: F M M 2
;
_chemical_formula_sum "Si O2"
_cell_formula_units_Z 68
_cell_length_a 26.430691
_cell_length_b 15.262710
_cell_length_c 8.807435
_cell_angle_alpha 90.000000
_cell_angle_beta 90.000000
_cell_angle_gamma 90.000000
_cell_volume 3552.954261
_symmetry_space_group_name_H-M "F M M 2"
_symmetry_group_IT_number 42
_symmetry_cell_setting 'orthorhombic'
loop_
_space_group_symop_operation_xyz
x,y,z
-x,-y,z
-x,y,z
x,-y,z
x,1/2+y,1/2+z
-x,1/2-y,1/2+z
-x,1/2+y,1/2+z
x,1/2-y,1/2+z
1/2+x,y,1/2+z
1/2-x,-y,1/2+z
1/2-x,y,1/2+z
1/2+x,-y,1/2+z
1/2+x,1/2+y,z
1/2-x,1/2-y,z
1/2-x,1/2+y,z
1/2+x,1/2-y,z
loop_
_atom_site_type_symbol
_atom_site_label
_atom_site_fract_x
_atom_site_fract_y
_atom_site_fract_z
Si Si1 0.257424 0.000000 0.041641
Si Si2 0.908111 0.863037 0.239977
Si Si3 0.296593 0.318078 0.680809
Si Si4 0.177443 0.000000 0.253991
Si Si5 0.369043 0.215980 0.446920
Si Si6 0.000000 0.000000 0.275295
O O1 0.278021 0.089757 0.115444
O O2 0.198491 0.000000 0.083524
O O3 0.275895 0.000000 0.869382
O O4 0.857053 0.916086 0.280980
O O5 0.904814 0.776182 0.341930
O O6 0.902188 0.841934 0.061351
O O7 0.955576 0.923662 0.272321
O O8 0.250000 0.250000 0.707018
O O9 0.333955 0.273885 0.558504
O O10 0.329380 0.330033 0.833470
#
# Coordination Sequence:
#
# PCOD9369521 Si02
#       6
#     8  16  16   8  16   4
#     4  12  24  35  57  86 130 172 212 248 308 376
#     4  10  22  43  63  88 121 156 212 259 322 366
#     4  11  23  36  58  89 129 172 214 245 306 370
#     4  11  24  37  53  90 126 167 210 248 305 370
#     4  10  21  39  61  88 124 161 201 268 302 379
#     4  10  24  42  72  86 116 162 200 278 326 394
#
# _framework density 19.139002000000001
#
# number of rings (size 3 to 8) (size 9 to 14) (size 15 to 20)
#    0.000    1.412    2.353    3.529    6.588    1.882 
#    0.000    0.000    0.000    5.647    0.000    0.000 
#    0.000    0.000    0.000    0.000    0.000    0.000 
#
# Total GULP energy -94670.965681 kJ/mol
# GULP energy per Si atom -5568.880334 kJ/mol
# Density = 1.909544 g / cm^3
# Si number density = 19.139002 Si / 1000 Ang^3
#
#
#
# Elastic Constant Matrix: (Units=GPa)
#
#
# Indices 1 2 3 4 5 6 
#
# 1 92.0679 7.7915 15.3604 0.0000 0.0000 0.0000
# 2 7.7915 50.7217 0.6081 0.0000 0.0000 0.0000
# 3 15.3604 0.6081 79.3218 0.0000 0.0000 0.0000
# 4 0.0000 0.0000 0.0000 12.2132 0.0000 0.0000
# 5 0.0000 0.0000 0.0000 0.0000 0.4134 0.0000
# 6 0.0000 0.0000 0.0000 0.0000 0.0000 23.2818
#
#
#
# Elastic Compliance Matrix: (Units=1/GPa)
#
#
# Indices 1 2 3 4 5 6 
#
# 1 0.011372 -0.001721 -0.002189 0.000000 0.000000 0.000000
# 2 -0.001721 0.019978 0.000180 0.000000 0.000000 0.000000
# 3 -0.002189 0.000180 0.013029 0.000000 0.000000 0.000000
# 4 0.000000 0.000000 0.000000 0.081879 0.000000 0.000000
# 5 0.000000 0.000000 0.000000 0.000000 2.419168 0.000000
# 6 0.000000 0.000000 0.000000 0.000000 0.000000 0.042952
#
#
# Mechanical properties :
#
#
# Convention : Reuss Voigt Hill
#
# Bulk Modulus (GPa) = 27.08558 29.95904 28.52231
# Shear Modulus (GPa) = 1.91707 20.40509 11.16108
#
# Velocity S-wave (km/s) = 1.00191 3.26874 2.41749
# Velocity P-wave (km/s) = 3.93970 5.47116 4.76733
#
# Compressibility (1/GPa) = 0.03692001
#
# Stress axis : x y z
#
# Youngs Moduli (GPa) = 87.93229 50.05613 76.74950
#
# Poissons Ratio (x) = 0.08613 0.16801
# Poissons Ratio (y) = 0.15131 -0.01382
# Poissons Ratio (z) = 0.19249 -0.00901
#
# Static dielectric constant tensor:
#      x y z
#    x 1.644200 0.000000 0.000000 
#    y 0.000000 1.704870 0.000000 
#    z 0.000000 0.000000 1.696130 
# 
# From -- ./inp_files/2782.got.cif
#   From: 2010.05.17/outbox.cif.g08.bks.cpg/sg42_2_cif.got.tgz:2782.got - 2010.06.03 19:03:34.
