data_PCOD9369573
_publ_section_title
;
Structure prediction by ZEFSAII (Michael W. Deem and Ramdas Pophale) SiO2 
 PCOD9369573
Probable space group: F M M 2
;
_chemical_formula_sum "Si O2"
_cell_formula_units_Z 84
_cell_length_a 24.958320
_cell_length_b 10.507270
_cell_length_c 14.791282
_cell_angle_alpha 90.000000
_cell_angle_beta 90.000000
_cell_angle_gamma 90.000000
_cell_volume 3878.922102
_symmetry_space_group_name_H-M "F M M 2"
_symmetry_group_IT_number 42
_symmetry_cell_setting 'orthorhombic'
loop_
_space_group_symop_operation_xyz
x,y,z
-x,-y,z
-x,y,z
x,-y,z
x,1/2+y,1/2+z
-x,1/2-y,1/2+z
-x,1/2+y,1/2+z
x,1/2-y,1/2+z
1/2+x,y,1/2+z
1/2-x,-y,1/2+z
1/2-x,y,1/2+z
1/2+x,-y,1/2+z
1/2+x,1/2+y,z
1/2-x,1/2-y,z
1/2-x,1/2+y,z
1/2+x,1/2-y,z
loop_
_atom_site_type_symbol
_atom_site_label
_atom_site_fract_x
_atom_site_fract_y
_atom_site_fract_z
Si Si1 0.000000 0.500000 0.573860
Si Si2 0.591281 0.721283 0.091756
Si Si3 0.088892 0.145148 0.777045
Si Si4 0.061555 0.141977 0.419297
Si Si5 0.291704 0.858483 0.562739
Si Si6 0.290093 0.360130 0.844267
O O1 0.952777 0.387865 0.575732
O O2 0.576694 0.809170 0.176460
O O3 0.595354 0.810582 0.003795
O O4 0.649985 0.661706 0.105461
O O5 0.065042 0.251034 0.843132
O O6 0.152573 0.148371 0.796397
O O7 0.070758 0.000000 0.795218
O O8 0.000000 0.136455 0.449920
O O9 0.076847 0.000000 0.387400
O O10 0.250000 0.750000 0.589489
O O11 0.298636 0.851199 0.453099
O O12 0.271306 0.000000 0.583743
O O13 0.266890 0.500000 0.826070
O O14 0.250000 0.250000 0.816594
#
# Coordination Sequence:
#
# PCOD9369573 Si02
#       6
#     4  16  16  16  16  16
#     4  12  28  44  78 104 144 190 238 302 352 432
#     4  12  25  46  71 103 142 184 239 293 359 417
#     4  11  26  44  69  99 138 182 232 291 353 428
#     4  11  26  44  68  98 135 177 231 292 355 422
#     4  10  21  40  69 100 137 184 235 287 350 423
#     4   9  19  39  64  95 132 176 229 283 347 418
#
# _framework density 21.655501000000001
#
# number of rings (size 3 to 8) (size 9 to 14) (size 15 to 20)
#    0.000    1.333    3.810    0.571    4.000    3.429 
#    0.000    1.905    0.000    0.000    0.000    0.000 
#    0.000    0.000    0.000    0.000    0.000    0.000 
#
# Total GULP energy -117155.904813 kJ/mol
# GULP energy per Si atom -5578.852610 kJ/mol
# Density = 2.160621 g / cm^3
# Si number density = 21.655501 Si / 1000 Ang^3
#
#
#
# Elastic Constant Matrix: (Units=GPa)
#
#
# Indices 1 2 3 4 5 6 
#
# 1 85.6493 50.1936 -19.1846 0.0000 0.0000 0.0000
# 2 50.1936 206.0274 32.9532 0.0000 0.0000 0.0000
# 3 -19.1846 32.9532 64.0397 0.0000 0.0000 0.0000
# 4 0.0000 0.0000 0.0000 8.9268 0.0000 0.0000
# 5 0.0000 0.0000 0.0000 0.0000 -87.0788 0.0000
# 6 0.0000 0.0000 0.0000 0.0000 0.0000 36.4822
#
#
#
# Elastic Compliance Matrix: (Units=1/GPa)
#
#
# Indices 1 2 3 4 5 6 
#
# 1 0.016442 -0.005223 0.007613 0.000000 0.000000 0.000000
# 2 -0.005223 0.006948 -0.005140 0.000000 0.000000 0.000000
# 3 0.007613 -0.005140 0.020541 0.000000 0.000000 0.000000
# 4 0.000000 0.000000 0.000000 0.112022 0.000000 0.000000
# 5 0.000000 0.000000 0.000000 0.000000 -0.011484 0.000000
# 6 0.000000 0.000000 0.000000 0.000000 0.000000 0.027411
#
#
# Mechanical properties :
#
#
# Convention : Reuss Voigt Hill
#
# Bulk Modulus (GPa) = 26.02070 53.73786 39.87928
# Shear Modulus (GPa) = 26.28935 11.11634 18.70284
#
# Velocity S-wave (km/s) = 3.48800 2.26813 2.94199
# Velocity P-wave (km/s) = 5.31633 5.63276 5.47683
#
# Compressibility (1/GPa) = 0.03843094
#
# Stress axis : x y z
#
# Youngs Moduli (GPa) = 60.82007 143.91700 48.68275
#
# Poissons Ratio (x) = 0.75174 -0.37064
# Poissons Ratio (y) = 0.31769 0.25024
# Poissons Ratio (z) = -0.46305 0.73978
#
# Static dielectric constant tensor:
#      x y z
#    x 1.774320 0.000000 0.000000 
#    y 0.000000 1.783020 0.000000 
#    z 0.000000 0.000000 1.798310 
# 
# From -- ./inp_files/12922.got.cif
#   From: 2010.05.17/outbox.cif.g08.bks.cpg/sg42_7_cif.got.tgz:12922.got - 2010.06.03 19:03:34.
