data_PCOD9369165
_publ_section_title
;
Structure prediction by ZEFSAII (Michael W. Deem and Ramdas Pophale) SiO2 
 PCOD9369165
Probable space group: F M M 2
;
_chemical_formula_sum "Si O2"
_cell_formula_units_Z 116
_cell_length_a 7.431897
_cell_length_b 30.398119
_cell_length_c 24.543768
_cell_angle_alpha 90.000000
_cell_angle_beta 90.000000
_cell_angle_gamma 90.000000
_cell_volume 5544.822268
_symmetry_space_group_name_H-M "F M M 2"
_symmetry_group_IT_number 42
_symmetry_cell_setting 'orthorhombic'
loop_
_space_group_symop_operation_xyz
x,y,z
-x,-y,z
-x,y,z
x,-y,z
x,1/2+y,1/2+z
-x,1/2-y,1/2+z
-x,1/2+y,1/2+z
x,1/2-y,1/2+z
1/2+x,y,1/2+z
1/2-x,-y,1/2+z
1/2-x,y,1/2+z
1/2+x,-y,1/2+z
1/2+x,1/2+y,z
1/2-x,1/2-y,z
1/2-x,1/2+y,z
1/2+x,1/2-y,z
loop_
_atom_site_type_symbol
_atom_site_label
_atom_site_fract_x
_atom_site_fract_y
_atom_site_fract_z
Si Si1 0.792557 0.950579 0.431160
Si Si2 0.215030 0.301306 0.579491
Si Si3 0.500000 0.000000 0.772009
Si Si4 0.282881 0.549615 0.056539
Si Si5 0.281493 0.118360 0.648503
Si Si6 0.715730 0.198394 0.457283
Si Si7 0.789505 0.419366 0.266361
Si Si8 0.798148 0.366249 0.366638
O O1 0.786557 0.942509 0.495786
O O2 0.696206 0.911544 0.400773
O O3 0.000000 0.950406 0.412621
O O4 0.721588 0.000000 0.421547
O O5 0.250000 0.250000 0.589528
O O6 0.278862 0.334073 0.626477
O O7 0.283756 0.312587 0.518370
O O8 0.000000 0.306927 0.576919
O O9 0.341422 0.038837 0.770376
O O10 0.500000 0.551393 0.052888
O O11 0.232001 0.500000 0.072669
O O12 0.225987 0.584313 0.101265
O O13 0.500000 0.117729 0.651414
O O14 0.215295 0.101336 0.706213
O O15 0.500000 0.191149 0.458724
O O16 0.750000 0.250000 0.448587
O O17 0.788188 0.168880 0.407848
O O18 0.722837 0.382072 0.309081
O O19 0.000000 0.429977 0.279521
O O20 0.000000 0.349977 0.355073
#
# Coordination Sequence:
#
# PCOD9369165 Si02
#       8
#    16  16   4  16  16  16  16  16
#     4  10  21  33  50  78 112 148 190 241 300 361
#     4   9  18  33  58  89 122 161 204 251 318 378
#     4  12  26  48  68  86 132 160 218 272 308 360
#     4   9  18  32  53  78 109 149 189 235 306 371
#     4  10  20  37  60  85 118 161 204 259 316 372
#     4   9  18  36  60  90 122 157 200 251 308 378
#     4  11  26  43  66  94 121 168 217 259 316 371
#     4  10  22  39  58  82 117 154 201 254 306 370
#
# _framework density 20.920418999999999
#
# number of rings (size 3 to 8) (size 9 to 14) (size 15 to 20)
#    0.000    2.207    0.690    1.448    2.897    4.690 
#    0.000    3.448    0.000    3.310    0.000    0.000 
#    0.000    0.000    0.000    0.000    0.000    0.000 
#
# Total GULP energy -161630.420090 kJ/mol
# GULP energy per Si atom -5573.462762 kJ/mol
# Density = 2.087280 g / cm^3
# Si number density = 20.920419 Si / 1000 Ang^3
#
#
#
# Elastic Constant Matrix: (Units=GPa)
#
#
# Indices 1 2 3 4 5 6 
#
# 1 92.8779 9.1205 5.9341 0.0000 0.0000 0.0000
# 2 9.1205 54.6697 35.6021 0.0000 0.0000 0.0000
# 3 5.9341 35.6021 52.1181 0.0000 0.0000 0.0000
# 4 0.0000 0.0000 0.0000 26.5933 0.0000 0.0000
# 5 0.0000 0.0000 0.0000 0.0000 24.0984 0.0000
# 6 0.0000 0.0000 0.0000 0.0000 0.0000 21.8215
#
#
#
# Elastic Compliance Matrix: (Units=1/GPa)
#
#
# Indices 1 2 3 4 5 6 
#
# 1 0.010946 -0.001827 0.000002 0.000000 0.000000 0.000000
# 2 -0.001827 0.033254 -0.022508 0.000000 0.000000 0.000000
# 3 0.000002 -0.022508 0.034562 0.000000 0.000000 0.000000
# 4 0.000000 0.000000 0.000000 0.037603 0.000000 0.000000
# 5 0.000000 0.000000 0.000000 0.000000 0.041497 0.000000
# 6 0.000000 0.000000 0.000000 0.000000 0.000000 0.045826
#
#
# Mechanical properties :
#
#
# Convention : Reuss Voigt Hill
#
# Bulk Modulus (GPa) = 33.22728 33.44212 33.33470
# Shear Modulus (GPa) = 19.05575 24.43658 21.74617
#
# Velocity S-wave (km/s) = 3.02133 3.42142 3.22758
# Velocity P-wave (km/s) = 5.29985 5.62390 5.46428
#
# Compressibility (1/GPa) = 0.03009576
#
# Stress axis : x y z
#
# Youngs Moduli (GPa) = 91.35632 30.07132 28.93323
#
# Poissons Ratio (x) = 0.05495 -0.00006
# Poissons Ratio (y) = 0.16695 0.65123
# Poissons Ratio (z) = -0.00018 0.67685
#
# Static dielectric constant tensor:
#      x y z
#    x 1.812120 0.000000 0.000000 
#    y 0.000000 1.721850 0.000000 
#    z 0.000000 0.000000 1.756940 
# 
# From -- ./inp_files/28485.got.cif
#   From: 2010.05.17/outbox.cif.g08.bks.cpg/sg42_15_cif.got.tgz:28485.got - 2010.06.03 19:03:34.
