data_PCOD9369565
_publ_section_title
;
Structure prediction by ZEFSAII (Michael W. Deem and Ramdas Pophale) SiO2 
 PCOD9369565
Probable space group: F M M 2
;
_chemical_formula_sum "Si O2"
_cell_formula_units_Z 96
_cell_length_a 11.666114
_cell_length_b 26.996428
_cell_length_c 15.617817
_cell_angle_alpha 90.000000
_cell_angle_beta 90.000000
_cell_angle_gamma 90.000000
_cell_volume 4918.728490
_symmetry_space_group_name_H-M "F M M 2"
_symmetry_group_IT_number 42
_symmetry_cell_setting 'orthorhombic'
loop_
_space_group_symop_operation_xyz
x,y,z
-x,-y,z
-x,y,z
x,-y,z
x,1/2+y,1/2+z
-x,1/2-y,1/2+z
-x,1/2+y,1/2+z
x,1/2-y,1/2+z
1/2+x,y,1/2+z
1/2-x,-y,1/2+z
1/2-x,y,1/2+z
1/2+x,-y,1/2+z
1/2+x,1/2+y,z
1/2-x,1/2-y,z
1/2-x,1/2+y,z
1/2+x,1/2-y,z
loop_
_atom_site_type_symbol
_atom_site_label
_atom_site_fract_x
_atom_site_fract_y
_atom_site_fract_z
Si Si1 0.631083 0.721450 0.208440
Si Si2 0.787873 0.387947 0.455979
Si Si3 0.632252 0.220264 0.500874
Si Si4 0.759009 0.559517 0.130844
Si Si5 0.632290 0.111160 0.786310
Si Si6 0.000000 0.559315 0.211588
Si Si7 0.000000 0.942377 0.896041
O O1 0.500000 0.740891 0.230388
O O2 0.750000 0.750000 0.232638
O O3 0.632465 0.717798 0.104739
O O4 0.639298 0.667137 0.250030
O O5 0.844560 0.333972 0.462954
O O6 0.744936 0.405264 0.548317
O O7 0.703388 0.391888 0.374789
O O8 0.887787 0.426886 0.442832
O O9 0.500000 0.237005 0.477109
O O10 0.750000 0.250000 0.476928
O O11 0.746430 0.500000 0.113653
O O12 0.676943 0.576095 0.209164
O O13 0.884889 0.570963 0.164926
O O14 0.500000 0.099559 0.804286
O O15 0.000000 0.500000 0.219248
O O16 0.000000 0.583567 0.304158
O O17 0.000000 0.000000 0.885374
#
# Coordination Sequence:
#
# PCOD9369565 Si02
#       7
#    16  16  16  16  16   8   8
#     4   9  19  41  65  93 127 168 215 267 324 391
#     4  12  24  41  67  99 129 171 218 267 329 391
#     4  10  21  40  66  96 131 169 219 274 328 393
#     4  11  24  43  66  93 129 174 218 266 327 391
#     4  11  25  43  64  96 135 168 212 272 327 388
#     4   9  20  42  64  88 127 169 215 269 317 376
#     4  11  22  40  66  94 125 169 227 273 310 380
#
# _framework density 19.517239
#
# number of rings (size 3 to 8) (size 9 to 14) (size 15 to 20)
#    0.000    1.500    4.167    0.500    2.333    2.333 
#    3.000    1.667    0.000    0.000    0.000    0.000 
#    0.000    0.000    0.000    0.000    0.000    0.000 
#
# Total GULP energy -133661.333338 kJ/mol
# GULP energy per Si atom -5569.222222 kJ/mol
# Density = 1.947282 g / cm^3
# Si number density = 19.517239 Si / 1000 Ang^3
#
#
#
# Elastic Constant Matrix: (Units=GPa)
#
#
# Indices 1 2 3 4 5 6 
#
# 1 191.6093 41.8219 56.2814 0.0000 0.0000 0.0000
# 2 41.8219 43.5235 16.8819 0.0000 0.0000 0.0000
# 3 56.2814 16.8819 76.2588 0.0000 0.0000 0.0000
# 4 0.0000 0.0000 0.0000 29.2025 0.0000 0.0000
# 5 0.0000 0.0000 0.0000 0.0000 69.5123 0.0000
# 6 0.0000 0.0000 0.0000 0.0000 0.0000 37.1054
#
#
#
# Elastic Compliance Matrix: (Units=1/GPa)
#
#
# Indices 1 2 3 4 5 6 
#
# 1 0.007788 -0.005748 -0.004475 0.000000 0.000000 0.000000
# 2 -0.005748 0.029376 -0.002261 0.000000 0.000000 0.000000
# 3 -0.004475 -0.002261 0.016917 0.000000 0.000000 0.000000
# 4 0.000000 0.000000 0.000000 0.034244 0.000000 0.000000
# 5 0.000000 0.000000 0.000000 0.000000 0.014386 0.000000
# 6 0.000000 0.000000 0.000000 0.000000 0.000000 0.026950
#
#
# Mechanical properties :
#
#
# Convention : Reuss Voigt Hill
#
# Bulk Modulus (GPa) = 34.34966 60.15131 47.25049
# Shear Modulus (GPa) = 30.42595 40.25782 35.34189
#
# Velocity S-wave (km/s) = 3.95261 4.54660 4.25997
# Velocity P-wave (km/s) = 6.20231 7.64517 6.96122
#
# Compressibility (1/GPa) = 0.02911237
#
# Stress axis : x y z
#
# Youngs Moduli (GPa) = 128.40223 34.04134 59.11275
#
# Poissons Ratio (x) = 0.19566 0.26455
# Poissons Ratio (y) = 0.73801 0.13367
# Poissons Ratio (z) = 0.57465 0.07698
#
# Static dielectric constant tensor:
#      x y z
#    x 1.674760 0.000000 0.000000 
#    y 0.000000 1.669490 0.000000 
#    z 0.000000 0.000000 1.632900 
# 
# From -- ./inp_files/13181.got.cif
#   From: 2010.05.17/outbox.cif.g08.bks.cpg/sg42_7_cif.got.tgz:13181.got - 2010.06.03 19:03:34.
