data_PCOD9369208
_publ_section_title
;
Structure prediction by ZEFSAII (Michael W. Deem and Ramdas Pophale) SiO2 
 PCOD9369208
Probable space group: F M M 2
;
_chemical_formula_sum "Si O2"
_cell_formula_units_Z 112
_cell_length_a 25.368774
_cell_length_b 14.870600
_cell_length_c 12.509294
_cell_angle_alpha 90.000000
_cell_angle_beta 90.000000
_cell_angle_gamma 90.000000
_cell_volume 4719.117284
_symmetry_space_group_name_H-M "F M M 2"
_symmetry_group_IT_number 42
_symmetry_cell_setting 'orthorhombic'
loop_
_space_group_symop_operation_xyz
x,y,z
-x,-y,z
-x,y,z
x,-y,z
x,1/2+y,1/2+z
-x,1/2-y,1/2+z
-x,1/2+y,1/2+z
x,1/2-y,1/2+z
1/2+x,y,1/2+z
1/2-x,-y,1/2+z
1/2-x,y,1/2+z
1/2+x,-y,1/2+z
1/2+x,1/2+y,z
1/2-x,1/2-y,z
1/2-x,1/2+y,z
1/2+x,1/2-y,z
loop_
_atom_site_type_symbol
_atom_site_label
_atom_site_fract_x
_atom_site_fract_y
_atom_site_fract_z
Si Si1 0.828187 0.705600 0.744260
Si Si2 0.058407 0.603163 0.063699
Si Si3 0.557704 0.211854 0.669350
Si Si4 0.832865 0.603033 0.328970
Si Si5 0.558659 0.894662 0.446350
Si Si6 0.833801 0.401320 0.946893
Si Si7 0.733897 0.852286 0.538997
O O1 0.890602 0.687614 0.733847
O O2 0.818129 0.813027 0.752512
O O3 0.812773 0.664569 0.856931
O O4 0.799602 0.654868 0.647451
O O5 0.064444 0.500000 0.102917
O O6 0.058609 0.681003 0.150965
O O7 0.000000 0.608459 0.011723
O O8 0.108820 0.623201 0.990651
O O9 0.500000 0.185429 0.711952
O O10 0.563303 0.166725 0.551720
O O11 0.827587 0.500000 0.288908
O O12 0.893214 0.619760 0.366433
O O13 0.800157 0.610862 0.439953
O O14 0.500000 0.878576 0.400338
O O15 0.561228 0.000000 0.478575
O O16 0.838054 0.500000 0.898480
O O17 0.789772 0.402253 0.038677
O O18 0.750000 0.750000 0.519602
#
# Coordination Sequence:
#
# PCOD9369208 Si02
#       7
#    16  16  16  16  16  16  16
#     4  12  26  43  72 104 140 179 231 290 346 400
#     4   9  19  40  68  96 132 176 220 276 344 408
#     4  10  20  37  64  99 137 180 225 274 338 412
#     4  11  24  45  71 102 138 182 232 282 345 413
#     4   9  18  36  64  97 137 183 228 278 337 403
#     4  11  25  44  69 103 138 179 234 285 342 414
#     4  12  25  47  70  90 136 185 221 287 344 401
#
# _framework density 23.733250999999999
#
# number of rings (size 3 to 8) (size 9 to 14) (size 15 to 20)
#    0.000    1.429    2.857    2.143    2.000    3.429 
#    0.000    1.429    0.000    0.000    0.000    0.000 
#    0.000    0.000    0.000    0.000    0.000    0.000 
#
# Total GULP energy -156558.457796 kJ/mol
# GULP energy per Si atom -5591.373493 kJ/mol
# Density = 2.367923 g / cm^3
# Si number density = 23.733251 Si / 1000 Ang^3
#
#
#
# Elastic Constant Matrix: (Units=GPa)
#
#
# Indices 1 2 3 4 5 6 
#
# 1 150.7561 22.1039 55.2257 0.0000 0.0000 0.0000
# 2 22.1039 56.5547 28.0574 0.0000 0.0000 0.0000
# 3 55.2257 28.0574 68.4661 0.0000 0.0000 0.0000
# 4 0.0000 0.0000 0.0000 26.9214 0.0000 0.0000
# 5 0.0000 0.0000 0.0000 0.0000 29.7247 0.0000
# 6 0.0000 0.0000 0.0000 0.0000 0.0000 26.2263
#
#
#
# Elastic Compliance Matrix: (Units=1/GPa)
#
#
# Indices 1 2 3 4 5 6 
#
# 1 0.009416 0.000110 -0.007640 0.000000 0.000000 0.000000
# 2 0.000110 0.022195 -0.009185 0.000000 0.000000 0.000000
# 3 -0.007640 -0.009185 0.024532 0.000000 0.000000 0.000000
# 4 0.000000 0.000000 0.000000 0.037145 0.000000 0.000000
# 5 0.000000 0.000000 0.000000 0.000000 0.033642 0.000000
# 6 0.000000 0.000000 0.000000 0.000000 0.000000 0.038130
#
#
# Mechanical properties :
#
#
# Convention : Reuss Voigt Hill
#
# Bulk Modulus (GPa) = 44.02462 54.06122 49.04292
# Shear Modulus (GPa) = 24.26466 27.93380 26.09923
#
# Velocity S-wave (km/s) = 3.20095 3.43445 3.31976
# Velocity P-wave (km/s) = 5.67904 6.20930 5.95008
#
# Compressibility (1/GPa) = 0.02271456
#
# Stress axis : x y z
#
# Youngs Moduli (GPa) = 106.20415 45.05421 40.76270
#
# Poissons Ratio (x) = -0.00497 0.31143
# Poissons Ratio (y) = -0.01171 0.37439
# Poissons Ratio (z) = 0.81141 0.41381
#
# Static dielectric constant tensor:
#      x y z
#    x 1.968000 0.000000 0.000000 
#    y 0.000000 1.649640 0.000000 
#    z 0.000000 0.000000 1.855690 
# 
# From -- ./inp_files/16558.got.cif
#   From: 2010.05.17/outbox.cif.g08.bks.cpg/sg42_9_cif.got.tgz:16558.got - 2010.06.03 19:03:34.
