data_PCOD9369647
_publ_section_title
;
Structure prediction by ZEFSAII (Michael W. Deem and Ramdas Pophale) SiO2 
 PCOD9369647
Probable space group: F M M 2
;
_chemical_formula_sum "Si O2"
_cell_formula_units_Z 80
_cell_length_a 13.590168
_cell_length_b 21.996609
_cell_length_c 11.600597
_cell_angle_alpha 90.000000
_cell_angle_beta 90.000000
_cell_angle_gamma 90.000000
_cell_volume 3467.854762
_symmetry_space_group_name_H-M "F M M 2"
_symmetry_group_IT_number 42
_symmetry_cell_setting 'orthorhombic'
loop_
_space_group_symop_operation_xyz
x,y,z
-x,-y,z
-x,y,z
x,-y,z
x,1/2+y,1/2+z
-x,1/2-y,1/2+z
-x,1/2+y,1/2+z
x,1/2-y,1/2+z
1/2+x,y,1/2+z
1/2-x,-y,1/2+z
1/2-x,y,1/2+z
1/2+x,-y,1/2+z
1/2+x,1/2+y,z
1/2-x,1/2-y,z
1/2-x,1/2+y,z
1/2+x,1/2-y,z
loop_
_atom_site_type_symbol
_atom_site_label
_atom_site_fract_x
_atom_site_fract_y
_atom_site_fract_z
Si Si1 0.317744 0.430698 0.956220
Si Si2 0.109998 0.665741 0.274898
Si Si3 0.133736 0.745819 0.987271
Si Si4 0.604837 0.386833 0.410148
Si Si5 0.328479 0.160880 0.667101
O O1 0.349726 0.500000 0.965597
O O2 0.368637 0.395198 0.850541
O O3 0.200160 0.426173 0.936912
O O4 0.333657 0.391706 0.071403
O O5 0.102489 0.718340 0.372444
O O6 0.213479 0.673711 0.203846
O O7 0.000000 0.660835 0.221789
O O8 0.250000 0.750000 0.977055
O O9 0.106217 0.675826 0.982757
O O10 0.116344 0.782801 0.105007
O O11 0.500000 0.417632 0.425263
O O12 0.618778 0.361982 0.280933
#
# Coordination Sequence:
#
# PCOD9369647 Si02
#       5
#    16  16  16  16  16
#     4  10  23  43  64  85 122 165 205 257 313 360
#     4  10  22  40  64  93 122 157 205 254 305 366
#     4  11  20  39  62  89 126 162 193 240 306 368
#     4  11  24  40  63  92 124 161 205 253 304 364
#     4  10  22  39  64  89 127 160 205 246 308 363
#
# _framework density 23.069016000000001
#
# number of rings (size 3 to 8) (size 9 to 14) (size 15 to 20)
#    0.000    1.600    6.000    0.600    2.800    8.800 
#    0.000    0.000    0.000    0.000    0.000    0.000 
#    0.000    0.000    0.000    0.000    0.000    0.000 
#
# Total GULP energy -111760.585481 kJ/mol
# GULP energy per Si atom -5588.029274 kJ/mol
# Density = 2.301651 g / cm^3
# Si number density = 23.069016 Si / 1000 Ang^3
#
#
#
# Elastic Constant Matrix: (Units=GPa)
#
#
# Indices 1 2 3 4 5 6 
#
# 1 131.4890 -6.5803 4.1124 0.0000 0.0000 0.0000
# 2 -6.5803 87.2003 19.8577 0.0000 0.0000 0.0000
# 3 4.1124 19.8577 111.0234 0.0000 0.0000 0.0000
# 4 0.0000 0.0000 0.0000 11.9271 0.0000 0.0000
# 5 0.0000 0.0000 0.0000 0.0000 10.5548 0.0000
# 6 0.0000 0.0000 0.0000 0.0000 0.0000 -7.9912
#
#
#
# Elastic Compliance Matrix: (Units=1/GPa)
#
#
# Indices 1 2 3 4 5 6 
#
# 1 0.007651 0.000669 -0.000403 0.000000 0.000000 0.000000
# 2 0.000669 0.012013 -0.002173 0.000000 0.000000 0.000000
# 3 -0.000403 -0.002173 0.009411 0.000000 0.000000 0.000000
# 4 0.000000 0.000000 0.000000 0.083843 0.000000 0.000000
# 5 0.000000 0.000000 0.000000 0.000000 0.094744 0.000000
# 6 0.000000 0.000000 0.000000 0.000000 0.000000 -0.125137
#
#
# Mechanical properties :
#
#
# Convention : Reuss Voigt Hill
#
# Bulk Modulus (GPa) = 39.58740 40.49915 40.04327
# Shear Modulus (GPa) = 52.76503 23.71964 38.24234
#
# Velocity S-wave (km/s) = 4.78773 3.21004 4.07595
# Velocity P-wave (km/s) = 6.91092 5.59758 6.28863
#
# Compressibility (1/GPa) = 0.02526056
#
# Stress axis : x y z
#
# Youngs Moduli (GPa) = 130.69682 83.24100 106.26094
#
# Poissons Ratio (x) = -0.05570 0.04283
# Poissons Ratio (y) = -0.08746 0.23096
# Poissons Ratio (z) = 0.05268 0.18092
#
# Static dielectric constant tensor:
#      x y z
#    x 1.895320 0.000000 0.000000 
#    y 0.000000 1.825480 0.000000 
#    z 0.000000 0.000000 1.896330 
# 
# From -- ./inp_files/7739.got.cif
#   From: 2010.05.17/outbox.cif.g08.bks.cpg/sg42_4_cif.got.tgz:7739.got - 2010.06.03 19:03:34.
