data_PCOD9369402
_publ_section_title
;
Structure prediction by ZEFSAII (Michael W. Deem and Ramdas Pophale) SiO2 
 PCOD9369402
Probable space group: F M M 2
;
_chemical_formula_sum "Si O2"
_cell_formula_units_Z 80
_cell_length_a 25.833417
_cell_length_b 17.860630
_cell_length_c 9.264450
_cell_angle_alpha 90.000000
_cell_angle_beta 90.000000
_cell_angle_gamma 90.000000
_cell_volume 4274.627446
_symmetry_space_group_name_H-M "F M M 2"
_symmetry_group_IT_number 42
_symmetry_cell_setting 'orthorhombic'
loop_
_space_group_symop_operation_xyz
x,y,z
-x,-y,z
-x,y,z
x,-y,z
x,1/2+y,1/2+z
-x,1/2-y,1/2+z
-x,1/2+y,1/2+z
x,1/2-y,1/2+z
1/2+x,y,1/2+z
1/2-x,-y,1/2+z
1/2-x,y,1/2+z
1/2+x,-y,1/2+z
1/2+x,1/2+y,z
1/2-x,1/2-y,z
1/2-x,1/2+y,z
1/2+x,1/2-y,z
loop_
_atom_site_type_symbol
_atom_site_label
_atom_site_fract_x
_atom_site_fract_y
_atom_site_fract_z
Si Si1 0.650406 0.664744 0.539390
Si Si2 0.226092 0.586302 0.223946
Si Si3 0.060643 0.410542 0.200545
Si Si4 0.171729 0.314576 0.710681
Si Si5 0.863924 0.412387 0.458156
O O1 0.690448 0.598856 0.582369
O O2 0.594118 0.636602 0.587350
O O3 0.652022 0.687511 0.373777
O O4 0.670103 0.733395 0.638013
O O5 0.244089 0.500000 0.229174
O O6 0.272628 0.644825 0.218541
O O7 0.187728 0.599849 0.360181
O O8 0.067615 0.500000 0.174687
O O9 0.087881 0.394646 0.354303
O O10 0.000000 0.394043 0.199405
O O11 0.138172 0.364979 0.602268
O O12 0.865358 0.500000 0.492735
#
# Coordination Sequence:
#
# PCOD9369402 Si02
#       5
#    16  16  16  16  16
#     4  11  23  37  55  83 115 150 190 230 276 329
#     4  10  21  37  57  82 115 153 188 226 276 332
#     4   9  19  40  66  86 109 142 180 228 284 336
#     4  12  23  36  54  81 117 154 188 228 275 327
#     4   9  19  36  59  87 114 145 188 231 275 331
#
# _framework density 18.715081000000001
#
# number of rings (size 3 to 8) (size 9 to 14) (size 15 to 20)
#    0.000    1.800    0.000    6.600    0.000    6.400 
#    0.000    5.000    0.000    2.400    0.000    0.000 
#    0.000    0.000    0.000    0.000    0.000    0.000 
#
# Total GULP energy -111721.832912 kJ/mol
# GULP energy per Si atom -5586.091646 kJ/mol
# Density = 1.867248 g / cm^3
# Si number density = 18.715081 Si / 1000 Ang^3
#
#
#
# Elastic Constant Matrix: (Units=GPa)
#
#
# Indices 1 2 3 4 5 6 
#
# 1 138.4896 61.3610 46.4412 0.0000 0.0000 0.0000
# 2 61.3610 86.1539 58.0773 0.0000 0.0000 0.0000
# 3 46.4412 58.0773 136.8254 0.0000 0.0000 0.0000
# 4 0.0000 0.0000 0.0000 30.9545 0.0000 0.0000
# 5 0.0000 0.0000 0.0000 0.0000 6.3079 0.0000
# 6 0.0000 0.0000 0.0000 0.0000 0.0000 -39.9712
#
#
#
# Elastic Compliance Matrix: (Units=1/GPa)
#
#
# Indices 1 2 3 4 5 6 
#
# 1 0.010579 -0.007164 -0.000550 0.000000 0.000000 0.000000
# 2 -0.007164 0.021111 -0.006529 0.000000 0.000000 0.000000
# 3 -0.000550 -0.006529 0.010267 0.000000 0.000000 0.000000
# 4 0.000000 0.000000 0.000000 0.032306 0.000000 0.000000
# 5 0.000000 0.000000 0.000000 0.000000 0.158532 0.000000
# 6 0.000000 0.000000 0.000000 0.000000 0.000000 -0.025018
#
#
# Mechanical properties :
#
#
# Convention : Reuss Voigt Hill
#
# Bulk Modulus (GPa) = 74.23643 77.02531 75.63087
# Shear Modulus (GPa) = 20.76815 12.49753 16.63284
#
# Velocity S-wave (km/s) = 3.33483 2.58694 2.98441
# Velocity P-wave (km/s) = 7.38789 7.08302 7.23706
#
# Compressibility (1/GPa) = 0.01347047
#
# Stress axis : x y z
#
# Youngs Moduli (GPa) = 94.52286 47.36847 97.40293
#
# Poissons Ratio (x) = 0.33936 0.05356
# Poissons Ratio (y) = 0.67719 0.63596
# Poissons Ratio (z) = 0.05198 0.30928
#
# Static dielectric constant tensor:
#      x y z
#    x 1.639110 0.000000 0.000000 
#    y 0.000000 1.694730 0.000000 
#    z 0.000000 0.000000 1.649930 
# 
# From -- ./inp_files/3459.got.cif
#   From: 2010.05.17/outbox.cif.g08.bks.cpg/sg42_2_cif.got.tgz:3459.got - 2010.06.03 19:03:34.
