data_PCOD9369068
_publ_section_title
;
Structure prediction by ZEFSAII (Michael W. Deem and Ramdas Pophale) SiO2 
 PCOD9369068
Probable space group: F M M 2
;
_chemical_formula_sum "Si O2"
_cell_formula_units_Z 96
_cell_length_a 8.675055
_cell_length_b 24.259991
_cell_length_c 25.886004
_cell_angle_alpha 90.000000
_cell_angle_beta 90.000000
_cell_angle_gamma 90.000000
_cell_volume 5447.884433
_symmetry_space_group_name_H-M "F M M 2"
_symmetry_group_IT_number 42
_symmetry_cell_setting 'orthorhombic'
loop_
_space_group_symop_operation_xyz
x,y,z
-x,-y,z
-x,y,z
x,-y,z
x,1/2+y,1/2+z
-x,1/2-y,1/2+z
-x,1/2+y,1/2+z
x,1/2-y,1/2+z
1/2+x,y,1/2+z
1/2-x,-y,1/2+z
1/2-x,y,1/2+z
1/2+x,-y,1/2+z
1/2+x,1/2+y,z
1/2-x,1/2-y,z
1/2-x,1/2+y,z
1/2+x,1/2-y,z
loop_
_atom_site_type_symbol
_atom_site_label
_atom_site_fract_x
_atom_site_fract_y
_atom_site_fract_z
Si Si1 0.313824 0.881144 0.524930
Si Si2 0.186152 0.000000 0.370115
Si Si3 0.685457 0.310195 0.122727
Si Si4 0.314191 0.118528 0.827863
Si Si5 0.186251 0.000000 0.986443
Si Si6 0.183641 0.810202 0.736423
Si Si7 0.684525 0.188622 0.929664
O O1 0.500000 0.879625 0.522413
O O2 0.268987 0.854784 0.579712
O O3 0.248910 0.843726 0.478972
O O4 0.263765 0.944003 0.514970
O O5 0.231305 0.944256 0.340455
O O6 0.253035 0.000000 0.427869
O O7 0.000000 0.000000 0.374647
O O8 0.500000 0.307258 0.125445
O O9 0.750000 0.250000 0.107592
O O10 0.750909 0.322692 0.179445
O O11 0.500000 0.120363 0.821796
O O12 0.237372 0.145029 0.777848
O O13 0.273210 0.155190 0.877904
O O14 0.000000 0.000000 0.984776
O O15 0.250000 0.750000 0.751466
O O16 0.000000 0.806623 0.734307
O O17 0.500000 0.190575 0.932811
O O18 0.750000 0.250000 0.927776
#
# Coordination Sequence:
#
# PCOD9369068 Si02
#       7
#    16   8  16  16   8  16  16
#     4  10  21  36  56  82 112 147 187 228 275 329
#     4  10  20  38  59  82 111 149 190 226 274 329
#     4  10  20  36  57  81 111 146 186 230 280 335
#     4  10  21  37  57  82 112 146 186 228 274 331
#     4  10  20  36  57  82 113 149 188 230 274 325
#     4  11  22  37  59  84 112 146 186 231 282 334
#     4  11  22  34  53  80 113 145 180 227 278 333
#
# _framework density 17.621518999999999
#
# number of rings (size 3 to 8) (size 9 to 14) (size 15 to 20)
#    0.000    1.667    1.667    4.500    0.000    6.000 
#    0.000    0.833    0.000    3.000    0.000    0.000 
#    0.000    0.000    0.000    0.000    0.000    0.000 
#
# Total GULP energy -134077.774744 kJ/mol
# GULP energy per Si atom -5586.573948 kJ/mol
# Density = 1.758141 g / cm^3
# Si number density = 17.621519 Si / 1000 Ang^3
#
#
#
# Elastic Constant Matrix: (Units=GPa)
#
#
# Indices 1 2 3 4 5 6 
#
# 1 45.2692 48.3218 45.0722 0.0000 0.0000 0.0000
# 2 48.3218 192.8221 109.9224 0.0000 0.0000 0.0000
# 3 45.0722 109.9224 127.2685 0.0000 0.0000 0.0000
# 4 0.0000 0.0000 0.0000 15.7787 0.0000 0.0000
# 5 0.0000 0.0000 0.0000 0.0000 23.2645 0.0000
# 6 0.0000 0.0000 0.0000 0.0000 0.0000 13.3811
#
#
#
# Elastic Compliance Matrix: (Units=1/GPa)
#
#
# Indices 1 2 3 4 5 6 
#
# 1 0.035204 -0.003378 -0.009550 0.000000 0.000000 0.000000
# 2 -0.003378 0.010541 -0.007908 0.000000 0.000000 0.000000
# 3 -0.009550 -0.007908 0.018069 0.000000 0.000000 0.000000
# 4 0.000000 0.000000 0.000000 0.063376 0.000000 0.000000
# 5 0.000000 0.000000 0.000000 0.000000 0.042984 0.000000
# 6 0.000000 0.000000 0.000000 0.000000 0.000000 0.074733
#
#
# Mechanical properties :
#
#
# Convention : Reuss Voigt Hill
#
# Bulk Modulus (GPa) = 45.16101 85.77693 65.46897
# Shear Modulus (GPa) = 17.00914 21.28774 19.14844
#
# Velocity S-wave (km/s) = 3.11021 3.47948 3.30002
# Velocity P-wave (km/s) = 6.21143 8.05763 7.19400
#
# Compressibility (1/GPa) = 0.02214300
#
# Stress axis : x y z
#
# Youngs Moduli (GPa) = 28.40552 94.87127 55.34249
#
# Poissons Ratio (x) = 0.32050 0.52851
# Poissons Ratio (y) = 0.09596 0.43762
# Poissons Ratio (z) = 0.27127 0.75020
#
# Static dielectric constant tensor:
#      x y z
#    x 1.597820 0.000000 0.000000 
#    y 0.000000 1.592750 0.000000 
#    z 0.000000 0.000000 1.571470 
# 
# From -- ./inp_files/28112.got.cif
#   From: 2010.05.17/outbox.cif.g08.bks.cpg/sg42_15_cif.got.tgz:28112.got - 2010.06.03 19:03:34.
