data_PCOD9369600
_publ_section_title
;
Structure prediction by ZEFSAII (Michael W. Deem and Ramdas Pophale) SiO2 
 PCOD9369600
Probable space group: F M M 2
;
_chemical_formula_sum "Si O2"
_cell_formula_units_Z 60
_cell_length_a 14.286125
_cell_length_b 9.152736
_cell_length_c 25.598324
_cell_angle_alpha 90.000000
_cell_angle_beta 90.000000
_cell_angle_gamma 90.000000
_cell_volume 3347.163394
_symmetry_space_group_name_H-M "F M M 2"
_symmetry_group_IT_number 42
_symmetry_cell_setting 'orthorhombic'
loop_
_space_group_symop_operation_xyz
x,y,z
-x,-y,z
-x,y,z
x,-y,z
x,1/2+y,1/2+z
-x,1/2-y,1/2+z
-x,1/2+y,1/2+z
x,1/2-y,1/2+z
1/2+x,y,1/2+z
1/2-x,-y,1/2+z
1/2-x,y,1/2+z
1/2+x,-y,1/2+z
1/2+x,1/2+y,z
1/2-x,1/2-y,z
1/2-x,1/2+y,z
1/2+x,1/2-y,z
loop_
_atom_site_type_symbol
_atom_site_label
_atom_site_fract_x
_atom_site_fract_y
_atom_site_fract_z
Si Si1 0.250000 0.750000 0.142880
Si Si2 0.395620 0.159500 0.558246
Si Si3 0.112367 0.000000 0.688267
Si Si4 0.151209 0.826852 0.456516
Si Si5 0.500000 0.500000 0.788644
Si Si6 0.500000 0.833510 0.390163
O O1 0.319642 0.667300 0.103358
O O2 0.178424 0.638868 0.172677
O O3 0.500000 0.170501 0.580594
O O4 0.384054 0.281914 0.514309
O O5 0.386584 0.000000 0.531893
O O6 0.088623 0.000000 0.749945
O O7 0.000000 0.000000 0.666941
O O8 0.250000 0.750000 0.451855
O O9 0.086655 0.754858 0.412706
O O10 0.154798 0.000000 0.451622
O O11 0.500000 0.362705 0.828185
O O12 0.500000 0.000000 0.412021
#
# Coordination Sequence:
#
# PCOD9369600 Si02
#       6
#     8  16   8  16   4   8
#     4  12  22  42  68  96 138 176 232 272 342 414
#     4  11  23  37  58  95 141 183 214 265 329 412
#     4  10  24  48  70  98 132 176 234 301 345 403
#     4  12  24  38  61  97 139 180 225 262 329 416
#     4   8  24  50  72  90 130 164 228 302 370 376
#     4  10  21  45  69  87 128 170 216 290 344 396
#
# _framework density 17.925626999999999
#
# number of rings (size 3 to 8) (size 9 to 14) (size 15 to 20)
#    0.800    0.267    4.000    3.600    1.867    0.000 
#    2.400    0.000    2.933    0.000    0.000    0.000 
#    0.000    0.000    0.000    0.000    0.000    0.000 
#
# Total GULP energy -83510.991086 kJ/mol
# GULP energy per Si atom -5567.399406 kJ/mol
# Density = 1.788483 g / cm^3
# Si number density = 17.925627 Si / 1000 Ang^3
#
#
#
# Elastic Constant Matrix: (Units=GPa)
#
#
# Indices 1 2 3 4 5 6 
#
# 1 160.7785 59.4517 56.1472 0.0000 0.0000 0.0000
# 2 59.4517 159.8462 49.2140 0.0000 0.0000 0.0000
# 3 56.1472 49.2140 105.8220 0.0000 0.0000 0.0000
# 4 0.0000 0.0000 0.0000 -3.1634 0.0000 0.0000
# 5 0.0000 0.0000 0.0000 0.0000 160.6811 0.0000
# 6 0.0000 0.0000 0.0000 0.0000 0.0000 32.2345
#
#
#
# Elastic Compliance Matrix: (Units=1/GPa)
#
#
# Indices 1 2 3 4 5 6 
#
# 1 0.008139 -0.001981 -0.003397 0.000000 0.000000 0.000000
# 2 -0.001981 0.007784 -0.002569 0.000000 0.000000 0.000000
# 3 -0.003397 -0.002569 0.012447 0.000000 0.000000 0.000000
# 4 0.000000 0.000000 0.000000 -0.316114 0.000000 0.000000
# 5 0.000000 0.000000 0.000000 0.000000 0.006224 0.000000
# 6 0.000000 0.000000 0.000000 0.000000 0.000000 0.031023
#
#
# Mechanical properties :
#
#
# Convention : Reuss Voigt Hill
#
# Bulk Modulus (GPa) = 80.15654 84.00807 82.08230
# Shear Modulus (GPa) = -21.69698 55.39270 16.84786
#
# Velocity S-wave (km/s) = -3.48284 5.56493 3.06906
# Velocity P-wave (km/s) = 5.35161 9.39456 7.64518
#
# Compressibility (1/GPa) = 0.01247559
#
# Stress axis : x y z
#
# Youngs Moduli (GPa) = 122.87198 128.47277 80.34223
#
# Poissons Ratio (x) = 0.25453 0.27291
# Poissons Ratio (y) = 0.24343 0.20638
# Poissons Ratio (z) = 0.41737 0.33002
#
# Static dielectric constant tensor:
#      x y z
#    x 1.420210 0.000000 0.000000 
#    y 0.000000 1.643550 0.000000 
#    z 0.000000 0.000000 1.594630 
# 
# From -- ./inp_files/32357.got.cif
#   From: 2010.05.17/outbox.cif.g08.bks.cpg/sg42_17_cif.got.tgz:32357.got - 2010.06.03 19:03:34.
