data_PCOD9369824
_publ_section_title
;
Structure prediction by ZEFSAII (Michael W. Deem and Ramdas Pophale) SiO2 
 PCOD9369824
Probable space group: F M M 2
;
_chemical_formula_sum "Si O2"
_cell_formula_units_Z 112
_cell_length_a 14.327628
_cell_length_b 19.633962
_cell_length_c 18.737383
_cell_angle_alpha 90.000000
_cell_angle_beta 90.000000
_cell_angle_gamma 90.000000
_cell_volume 5270.977680
_symmetry_space_group_name_H-M "F M M 2"
_symmetry_group_IT_number 42
_symmetry_cell_setting 'orthorhombic'
loop_
_space_group_symop_operation_xyz
x,y,z
-x,-y,z
-x,y,z
x,-y,z
x,1/2+y,1/2+z
-x,1/2-y,1/2+z
-x,1/2+y,1/2+z
x,1/2-y,1/2+z
1/2+x,y,1/2+z
1/2-x,-y,1/2+z
1/2-x,y,1/2+z
1/2+x,-y,1/2+z
1/2+x,1/2+y,z
1/2-x,1/2-y,z
1/2-x,1/2+y,z
1/2+x,1/2-y,z
loop_
_atom_site_type_symbol
_atom_site_label
_atom_site_fract_x
_atom_site_fract_y
_atom_site_fract_z
Si Si1 0.385392 0.077568 0.773550
Si Si2 0.613344 0.073562 0.385024
Si Si3 0.612774 0.926353 0.219422
Si Si4 0.115235 0.197605 0.983338
Si Si5 0.896347 0.348752 0.635364
Si Si6 0.391638 0.297167 0.368595
Si Si7 0.354546 0.275880 0.727404
O O1 0.500000 0.081138 0.771928
O O2 0.353616 0.099388 0.693643
O O3 0.352257 0.135363 0.829631
O O4 0.359642 0.000000 0.790485
O O5 0.500000 0.075612 0.384250
O O6 0.642219 0.075512 0.302588
O O7 0.644365 0.136119 0.431950
O O8 0.641526 0.000000 0.415179
O O9 0.500000 0.927432 0.217094
O O10 0.639108 0.850889 0.194856
O O11 0.644312 0.000000 0.189356
O O12 0.148982 0.175811 0.061726
O O13 0.000000 0.200885 0.986260
O O14 0.145461 0.266804 0.942840
O O15 0.906147 0.279446 0.679994
O O16 0.000000 0.376402 0.617470
O O17 0.500000 0.312880 0.381056
O O18 0.388078 0.236599 0.308899
O O19 0.250000 0.250000 0.727669
#
# Coordination Sequence:
#
# PCOD9369824 Si02
#       7
#    16  16  16  16  16  16  16
#     4   8  14  25  42  65  91 120 154 190 232 287
#     4   8  13  21  39  70  98 114 137 186 247 295
#     4   9  16  29  52  76  97 125 162 209 259 299
#     4   9  15  25  44  69  94 121 155 199 250 299
#     4   9  18  30  46  66  92 127 162 201 249 301
#     4   9  16  29  49  68  90 121 159 204 248 297
#     4  11  20  31  46  69 100 128 164 204 247 306
#
# _framework density 21.248429999999999
#
# number of rings (size 3 to 8) (size 9 to 14) (size 15 to 20)
#    0.000    3.000    1.429    3.000    0.000    0.571 
#    0.000    6.429    0.000    0.857    0.000    4.000 
#    0.000    0.000    0.000    0.000    0.000    0.000 
#
# Total GULP energy -155926.460499 kJ/mol
# GULP energy per Si atom -5568.802161 kJ/mol
# Density = 2.120007 g / cm^3
# Si number density = 21.248430 Si / 1000 Ang^3
#
#
#
# Elastic Constant Matrix: (Units=GPa)
#
#
# Indices 1 2 3 4 5 6 
#
# 1 47.3355 -1.2783 -9.9716 0.0000 0.0000 0.0000
# 2 -1.2783 148.4486 18.6665 0.0000 0.0000 0.0000
# 3 -9.9716 18.6665 66.4723 0.0000 0.0000 0.0000
# 4 0.0000 0.0000 0.0000 14.1624 0.0000 0.0000
# 5 0.0000 0.0000 0.0000 0.0000 7.4931 0.0000
# 6 0.0000 0.0000 0.0000 0.0000 0.0000 50.3027
#
#
#
# Elastic Compliance Matrix: (Units=1/GPa)
#
#
# Indices 1 2 3 4 5 6 
#
# 1 0.021823 -0.000232 0.003339 0.000000 0.000000 0.000000
# 2 -0.000232 0.006985 -0.001996 0.000000 0.000000 0.000000
# 3 0.003339 -0.001996 0.016105 0.000000 0.000000 0.000000
# 4 0.000000 0.000000 0.000000 0.070609 0.000000 0.000000
# 5 0.000000 0.000000 0.000000 0.000000 0.133456 0.000000
# 6 0.000000 0.000000 0.000000 0.000000 0.000000 0.019880
#
#
# Mechanical properties :
#
#
# Convention : Reuss Voigt Hill
#
# Bulk Modulus (GPa) = 21.21585 30.78773 26.00179
# Shear Modulus (GPa) = 17.70859 31.38097 24.54478
#
# Velocity S-wave (km/s) = 2.89001 3.84716 3.40241
# Velocity P-wave (km/s) = 4.59810 5.85279 5.26297
#
# Compressibility (1/GPa) = 0.04713458
#
# Stress axis : x y z
#
# Youngs Moduli (GPa) = 45.82347 143.15617 62.09121
#
# Poissons Ratio (x) = 0.03320 -0.20731
# Poissons Ratio (y) = 0.01063 0.12396
# Poissons Ratio (z) = -0.15300 0.28580
#
# Static dielectric constant tensor:
#      x y z
#    x 1.775420 0.000000 0.000000 
#    y 0.000000 1.804290 0.000000 
#    z 0.000000 0.000000 1.781430 
# 
# From -- ./inp_files/26076.got.cif
#   From: 2010.05.17/outbox.cif.g08.bks.cpg/sg42_14_cif.got.tgz:26076.got - 2010.06.03 19:03:34.
