data_PCOD9369632
_publ_section_title
;
Structure prediction by ZEFSAII (Michael W. Deem and Ramdas Pophale) SiO2 
 PCOD9369632
Probable space group: F M M 2
;
_chemical_formula_sum "Si O2"
_cell_formula_units_Z 112
_cell_length_a 32.821682
_cell_length_b 13.977151
_cell_length_c 12.473049
_cell_angle_alpha 90.000000
_cell_angle_beta 90.000000
_cell_angle_gamma 90.000000
_cell_volume 5722.056199
_symmetry_space_group_name_H-M "F M M 2"
_symmetry_group_IT_number 42
_symmetry_cell_setting 'orthorhombic'
loop_
_space_group_symop_operation_xyz
x,y,z
-x,-y,z
-x,y,z
x,-y,z
x,1/2+y,1/2+z
-x,1/2-y,1/2+z
-x,1/2+y,1/2+z
x,1/2-y,1/2+z
1/2+x,y,1/2+z
1/2-x,-y,1/2+z
1/2-x,y,1/2+z
1/2+x,-y,1/2+z
1/2+x,1/2+y,z
1/2-x,1/2-y,z
1/2-x,1/2+y,z
1/2+x,1/2-y,z
loop_
_atom_site_type_symbol
_atom_site_label
_atom_site_fract_x
_atom_site_fract_y
_atom_site_fract_z
Si Si1 0.331424 0.114382 0.838980
Si Si2 0.811875 0.197484 0.106989
Si Si3 0.403745 0.108121 0.176160
Si Si4 0.755380 0.613413 0.434572
Si Si5 0.612438 0.254427 0.479248
Si Si6 0.452355 0.111346 0.382127
Si Si7 0.812510 0.110079 0.729448
O O1 0.322290 0.140284 0.715591
O O2 0.290153 0.143327 0.902503
O O3 0.368251 0.176559 0.887937
O O4 0.337732 0.000000 0.851161
O O5 0.805141 0.306949 0.143828
O O6 0.774560 0.156575 0.040665
O O7 0.850388 0.193587 0.027942
O O8 0.440827 0.121986 0.256825
O O9 0.361529 0.115967 0.244858
O O10 0.404253 0.000000 0.133655
O O11 0.401904 0.180037 0.078277
O O12 0.754151 0.500000 0.447996
O O13 0.785466 0.631483 0.333459
O O14 0.576497 0.186132 0.441394
O O15 0.500000 0.128036 0.401002
O O16 0.443101 0.000000 0.409867
O O17 0.803665 0.000000 0.695399
#
# Coordination Sequence:
#
# PCOD9369632 Si02
#       7
#    16  16  16  16  16  16  16
#     4  11  25  41  57  85 121 157 203 255 300 344
#     4  11  22  37  60  85 115 160 206 246 296 355
#     4   9  18  35  60  87 117 156 197 236 285 345
#     4  10  22  39  57  80 115 158 204 252 297 341
#     4  11  22  38  61  90 119 154 189 236 297 356
#     4  10  22  41  65  93 121 147 184 235 287 351
#     4   9  19  36  58  86 119 155 202 255 297 340
#
# _framework density 19.573383
#
# number of rings (size 3 to 8) (size 9 to 14) (size 15 to 20)
#    0.000    1.857    0.000    4.286    0.000    9.143 
#    0.000    5.714    0.000    3.000    0.000    0.000 
#    0.000    0.000    0.000    0.000    0.000    0.000 
#
# Total GULP energy -156576.082725 kJ/mol
# GULP energy per Si atom -5592.002954 kJ/mol
# Density = 1.952883 g / cm^3
# Si number density = 19.573383 Si / 1000 Ang^3
#
#
#
# Elastic Constant Matrix: (Units=GPa)
#
#
# Indices 1 2 3 4 5 6 
#
# 1 124.7661 80.0829 55.8132 0.0000 0.0000 0.0000
# 2 80.0829 109.3593 44.3199 0.0000 0.0000 0.0000
# 3 55.8132 44.3199 65.6548 0.0000 0.0000 0.0000
# 4 0.0000 0.0000 0.0000 34.5385 0.0000 0.0000
# 5 0.0000 0.0000 0.0000 0.0000 22.3854 0.0000
# 6 0.0000 0.0000 0.0000 0.0000 0.0000 34.4717
#
#
#
# Elastic Compliance Matrix: (Units=1/GPa)
#
#
# Indices 1 2 3 4 5 6 
#
# 1 0.018287 -0.009762 -0.008956 0.000000 0.000000 0.000000
# 2 -0.009762 0.017799 -0.003716 0.000000 0.000000 0.000000
# 3 -0.008956 -0.003716 0.025354 0.000000 0.000000 0.000000
# 4 0.000000 0.000000 0.000000 0.028953 0.000000 0.000000
# 5 0.000000 0.000000 0.000000 0.000000 0.044672 0.000000
# 6 0.000000 0.000000 0.000000 0.000000 0.000000 0.029009
#
#
# Mechanical properties :
#
#
# Convention : Reuss Voigt Hill
#
# Bulk Modulus (GPa) = 60.34797 73.35692 66.85244
# Shear Modulus (GPa) = 23.31353 26.25007 24.78180
#
# Velocity S-wave (km/s) = 3.45495 3.66609 3.56209
# Velocity P-wave (km/s) = 6.84209 7.44846 7.15170
#
# Compressibility (1/GPa) = 0.01657057
#
# Stress axis : x y z
#
# Youngs Moduli (GPa) = 54.68222 56.18315 39.44190
#
# Poissons Ratio (x) = 0.54846 0.35326
# Poissons Ratio (y) = 0.53381 0.14658
# Poissons Ratio (z) = 0.48976 0.20880
#
# Static dielectric constant tensor:
#      x y z
#    x 1.681940 0.000000 0.000000 
#    y 0.000000 1.708970 0.000000 
#    z 0.000000 0.000000 1.691650 
# 
# From -- ./inp_files/8102.got.cif
#   From: 2010.05.17/outbox.cif.g08.bks.cpg/sg42_5_cif.got.tgz:8102.got - 2010.06.03 19:03:34.
