data_PCOD9369120
_publ_section_title
;
Structure prediction by ZEFSAII (Michael W. Deem and Ramdas Pophale) SiO2 
 PCOD9369120
Probable space group: F M M 2
;
_chemical_formula_sum "Si O2"
_cell_formula_units_Z 88
_cell_length_a 9.546680
_cell_length_b 21.764615
_cell_length_c 21.437667
_cell_angle_alpha 90.000000
_cell_angle_beta 90.000000
_cell_angle_gamma 90.000000
_cell_volume 4454.314477
_symmetry_space_group_name_H-M "F M M 2"
_symmetry_group_IT_number 42
_symmetry_cell_setting 'orthorhombic'
loop_
_space_group_symop_operation_xyz
x,y,z
-x,-y,z
-x,y,z
x,-y,z
x,1/2+y,1/2+z
-x,1/2-y,1/2+z
-x,1/2+y,1/2+z
x,1/2-y,1/2+z
1/2+x,y,1/2+z
1/2-x,-y,1/2+z
1/2-x,y,1/2+z
1/2+x,-y,1/2+z
1/2+x,1/2+y,z
1/2-x,1/2-y,z
1/2-x,1/2+y,z
1/2+x,1/2-y,z
loop_
_atom_site_type_symbol
_atom_site_label
_atom_site_fract_x
_atom_site_fract_y
_atom_site_fract_z
Si Si1 0.653738 0.429193 0.587640
Si Si2 0.331413 0.427446 0.367156
Si Si3 0.848360 0.180658 0.668475
Si Si4 0.662551 0.126890 0.484015
Si Si5 0.250000 0.750000 0.548939
Si Si6 0.833821 0.808868 0.285748
O O1 0.500000 0.416544 0.557248
O O2 0.661389 0.500000 0.600842
O O3 0.657320 0.390228 0.650081
O O4 0.779626 0.409489 0.543708
O O5 0.500000 0.426715 0.375961
O O6 0.293129 0.500000 0.356781
O O7 0.254314 0.399051 0.427303
O O8 0.298834 0.375944 0.314306
O O9 0.842882 0.213919 0.600744
O O10 0.718182 0.191101 0.713915
O O11 0.000000 0.194578 0.698026
O O12 0.500000 0.116270 0.471691
O O13 0.684550 0.198054 0.504554
O O14 0.750000 0.750000 0.314262
O O15 0.000000 0.800593 0.292427
#
# Coordination Sequence:
#
# PCOD9369120 Si02
#       6
#    16  16  16  16   8  16
#     4   9  19  36  57  84 121 163 201 243 305 373
#     4  10  24  46  66  87 123 170 211 253 313 377
#     4  10  20  36  60  87 119 159 202 249 302 363
#     4  11  23  37  60  92 123 158 207 260 307 362
#     4  10  22  38  58  88 128 164 196 248 312 374
#     4  11  24  41  64  91 122 160 206 258 311 368
#
# _framework density 19.756126999999999
#
# number of rings (size 3 to 8) (size 9 to 14) (size 15 to 20)
#    0.000    1.818    0.909    2.182    1.273   10.182 
#    0.000    0.000    0.000    0.000    0.000    0.000 
#    0.000    0.000    0.000    0.000    0.000    0.000 
#
# Total GULP energy -122505.265221 kJ/mol
# GULP energy per Si atom -5568.421146 kJ/mol
# Density = 1.971116 g / cm^3
# Si number density = 19.756127 Si / 1000 Ang^3
#
#
#
# Elastic Constant Matrix: (Units=GPa)
#
#
# Indices 1 2 3 4 5 6 
#
# 1 76.7625 45.4166 19.7206 0.0000 0.0000 0.0000
# 2 45.4166 163.7213 47.9653 0.0000 0.0000 0.0000
# 3 19.7206 47.9653 55.4828 0.0000 0.0000 0.0000
# 4 0.0000 0.0000 0.0000 15.9482 0.0000 0.0000
# 5 0.0000 0.0000 0.0000 0.0000 10.6134 0.0000
# 6 0.0000 0.0000 0.0000 0.0000 0.0000 21.3382
#
#
#
# Elastic Compliance Matrix: (Units=1/GPa)
#
#
# Indices 1 2 3 4 5 6 
#
# 1 0.015830 -0.003673 -0.002451 0.000000 0.000000 0.000000
# 2 -0.003673 0.009032 -0.006503 0.000000 0.000000 0.000000
# 3 -0.002451 -0.006503 0.024516 0.000000 0.000000 0.000000
# 4 0.000000 0.000000 0.000000 0.062703 0.000000 0.000000
# 5 0.000000 0.000000 0.000000 0.000000 0.094221 0.000000
# 6 0.000000 0.000000 0.000000 0.000000 0.000000 0.046864
#
#
# Mechanical properties :
#
#
# Convention : Reuss Voigt Hill
#
# Bulk Modulus (GPa) = 41.45134 58.01905 49.73520
# Shear Modulus (GPa) = 17.45434 21.77090 19.61262
#
# Velocity S-wave (km/s) = 2.97558 3.32321 3.15419
# Velocity P-wave (km/s) = 5.72997 6.64503 6.20439
#
# Compressibility (1/GPa) = 0.02412467
#
# Stress axis : x y z
#
# Youngs Moduli (GPa) = 63.17055 110.71782 40.78909
#
# Poissons Ratio (x) = 0.40669 0.09998
# Poissons Ratio (y) = 0.23204 0.26524
# Poissons Ratio (z) = 0.15484 0.71995
#
# Static dielectric constant tensor:
#      x y z
#    x 1.711520 0.000000 0.000000 
#    y 0.000000 1.751410 0.000000 
#    z 0.000000 0.000000 1.686920 
# 
# From -- ./inp_files/23548.got.cif
#   From: 2010.05.17/outbox.cif.g08.bks.cpg/sg42_12_cif.got.tgz:23548.got - 2010.06.03 19:03:34.
