data_PCOD9369703
_publ_section_title
;
Structure prediction by ZEFSAII (Michael W. Deem and Ramdas Pophale) SiO2 
 PCOD9369703
Probable space group: F M M 2
;
_chemical_formula_sum "Si O2"
_cell_formula_units_Z 48
_cell_length_a 19.157349
_cell_length_b 18.578815
_cell_length_c 5.518083
_cell_angle_alpha 90.000000
_cell_angle_beta 90.000000
_cell_angle_gamma 90.000000
_cell_volume 1964.000753
_symmetry_space_group_name_H-M "F M M 2"
_symmetry_group_IT_number 42
_symmetry_cell_setting 'orthorhombic'
loop_
_space_group_symop_operation_xyz
x,y,z
-x,-y,z
-x,y,z
x,-y,z
x,1/2+y,1/2+z
-x,1/2-y,1/2+z
-x,1/2+y,1/2+z
x,1/2-y,1/2+z
1/2+x,y,1/2+z
1/2-x,-y,1/2+z
1/2-x,y,1/2+z
1/2+x,-y,1/2+z
1/2+x,1/2+y,z
1/2-x,1/2-y,z
1/2-x,1/2+y,z
1/2+x,1/2-y,z
loop_
_atom_site_type_symbol
_atom_site_label
_atom_site_fract_x
_atom_site_fract_y
_atom_site_fract_z
Si Si1 0.418430 0.583028 0.534530
Si Si2 0.398333 0.277167 0.263131
Si Si3 0.708626 0.845610 0.266241
O O1 0.500000 0.593191 0.604646
O O2 0.409305 0.500000 0.468079
O O3 0.401504 0.638715 0.317457
O O4 0.361476 0.605930 0.734850
O O5 0.429351 0.242917 0.506470
O O6 0.323828 0.235313 0.257497
O O7 0.746810 0.859409 0.521102
#
# Coordination Sequence:
#
# PCOD9369703 Si02
#       3
#    16  16  16
#     4  10  24  47  74 109 154 200 248 306 374 449
#     4  10  22  41  70 101 138 183 239 296 357 425
#     4  11  24  45  73 105 141 186 243 305 365 432
#
# _framework density 24.439907000000002
#
# number of rings (size 3 to 8) (size 9 to 14) (size 15 to 20)
#    0.000    1.667    0.000    4.000    0.000   22.667 
#    0.000   21.667    0.000   36.000    0.000    0.000 
#    0.000    0.000    0.000    0.000    0.000    0.000 
#
# Total GULP energy -66997.147466 kJ/mol
# GULP energy per Si atom -5583.095622 kJ/mol
# Density = 2.438428 g / cm^3
# Si number density = 24.439907 Si / 1000 Ang^3
#
#
#
# Elastic Constant Matrix: (Units=GPa)
#
#
# Indices 1 2 3 4 5 6 
#
# 1 205.9756 72.3541 78.8784 0.0021 0.0033 0.0002
# 2 72.3541 194.3444 66.6768 0.0180 -0.0193 -0.0081
# 3 78.8784 66.6768 230.8463 0.0283 -0.0218 -0.0110
# 4 0.0021 0.0180 0.0283 23.7357 -0.0231 -0.0140
# 5 0.0033 -0.0193 -0.0218 -0.0231 -37.1206 0.0094
# 6 0.0002 -0.0081 -0.0110 -0.0140 0.0094 40.5203
#
#
#
# Elastic Compliance Matrix: (Units=1/GPa)
#
#
# Indices 1 2 3 4 5 6 
#
# 1 0.006061 -0.001716 -0.001575 0.000003 0.000002 -0.000001
# 2 -0.001716 0.006197 -0.001204 -0.000003 -0.000003 0.000001
# 3 -0.001575 -0.001204 0.005218 -0.000005 -0.000003 0.000001
# 4 0.000003 -0.000003 -0.000005 0.042131 -0.000026 0.000015
# 5 0.000002 -0.000003 -0.000003 -0.000026 -0.026939 0.000006
# 6 -0.000001 0.000001 0.000001 0.000015 0.000006 0.024679
#
#
# Mechanical properties :
#
#
# Convention : Reuss Voigt Hill
#
# Bulk Modulus (GPa) = 117.83965 118.55388 118.19677
# Shear Modulus (GPa) = 72.29049 32.97754 52.63401
#
# Velocity S-wave (km/s) = 5.44455 3.67731 4.64573
# Velocity P-wave (km/s) = 9.37256 8.16356 8.78887
#
# Compressibility (1/GPa) = 0.00848611
#
# Stress axis : x y z
#
# Youngs Moduli (GPa) = 164.98860 161.35958 191.65035
#
# Poissons Ratio (x) = 0.27690 0.30192
# Poissons Ratio (y) = 0.28312 0.23068
# Poissons Ratio (z) = 0.25992 0.19422
#
# Static dielectric constant tensor:
#      x y z
#    x 2.071260 0.000000 0.000000 
#    y 0.000000 1.932980 -0.000010 
#    z 0.000000 -0.000010 1.954190 
# 
# From -- ./inp_files/458.got.cif
#   From: 2010.05.17/outbox.cif.g08.bks.cpg/sg42_1_cif.got.tgz:458.got - 2010.06.03 19:03:34.
