data_PCOD9369274
_publ_section_title
;
Structure prediction by ZEFSAII (Michael W. Deem and Ramdas Pophale) SiO2 
 PCOD9369274
Probable space group: F M M 2
;
_chemical_formula_sum "Si O2"
_cell_formula_units_Z 72
_cell_length_a 13.735753
_cell_length_b 13.929763
_cell_length_c 19.178118
_cell_angle_alpha 90.000000
_cell_angle_beta 90.000000
_cell_angle_gamma 90.000000
_cell_volume 3669.460242
_symmetry_space_group_name_H-M "F M M 2"
_symmetry_group_IT_number 42
_symmetry_cell_setting 'orthorhombic'
loop_
_space_group_symop_operation_xyz
x,y,z
-x,-y,z
-x,y,z
x,-y,z
x,1/2+y,1/2+z
-x,1/2-y,1/2+z
-x,1/2+y,1/2+z
x,1/2-y,1/2+z
1/2+x,y,1/2+z
1/2-x,-y,1/2+z
1/2-x,y,1/2+z
1/2+x,-y,1/2+z
1/2+x,1/2+y,z
1/2-x,1/2-y,z
1/2-x,1/2+y,z
1/2+x,1/2-y,z
loop_
_atom_site_type_symbol
_atom_site_label
_atom_site_fract_x
_atom_site_fract_y
_atom_site_fract_z
Si Si1 0.750000 0.250000 0.959301
Si Si2 0.707857 0.609156 0.344771
Si Si3 0.616389 0.688785 0.203100
Si Si4 0.882978 0.611993 0.552079
Si Si5 0.384735 0.393416 0.752918
O O1 0.689773 0.180080 0.907999
O O2 0.820898 0.183362 0.004508
O O3 0.682517 0.500000 0.361213
O O4 0.657355 0.641642 0.273165
O O5 0.822288 0.614528 0.323505
O O6 0.500000 0.682961 0.206914
O O7 0.644349 0.635927 0.132239
O O8 0.642179 0.802268 0.205396
O O9 0.863225 0.500000 0.536598
O O10 0.000000 0.627234 0.544637
O O11 0.500000 0.388528 0.766322
O O12 0.363060 0.500000 0.723550
#
# Coordination Sequence:
#
# PCOD9369274 Si02
#       5
#     8  16  16  16  16
#     4  12  24  38  62  90 130 162 204 250 310 370
#     4  11  22  37  59  90 121 155 199 252 310 360
#     4  10  20  39  64  88 117 156 204 256 301 355
#     4  10  24  45  66  89 122 169 215 251 300 371
#     4   9  18  33  57  90 122 152 192 245 306 365
#
# _framework density 19.621414000000001
#
# number of rings (size 3 to 8) (size 9 to 14) (size 15 to 20)
#    0.000    1.778    2.222    1.333    3.111    3.111 
#    0.000    3.333    0.000    3.333    0.000    0.000 
#    0.000    0.000    0.000    0.000    0.000    0.000 
#
# Total GULP energy -100482.792676 kJ/mol
# GULP energy per Si atom -5582.377371 kJ/mol
# Density = 1.957675 g / cm^3
# Si number density = 19.621414 Si / 1000 Ang^3
#
#
#
# Elastic Constant Matrix: (Units=GPa)
#
#
# Indices 1 2 3 4 5 6 
#
# 1 47.5145 49.9732 42.4389 0.0000 0.0000 0.0000
# 2 49.9732 189.5570 87.0606 0.0000 0.0000 0.0000
# 3 42.4389 87.0606 130.1796 0.0000 0.0000 0.0000
# 4 0.0000 0.0000 0.0000 24.4085 0.0000 0.0000
# 5 0.0000 0.0000 0.0000 0.0000 6.2641 0.0000
# 6 0.0000 0.0000 0.0000 0.0000 0.0000 32.5130
#
#
#
# Elastic Compliance Matrix: (Units=1/GPa)
#
#
# Indices 1 2 3 4 5 6 
#
# 1 0.033190 -0.005456 -0.007171 0.000000 0.000000 0.000000
# 2 -0.005456 0.008511 -0.003913 0.000000 0.000000 0.000000
# 3 -0.007171 -0.003913 0.012637 0.000000 0.000000 0.000000
# 4 0.000000 0.000000 0.000000 0.040969 0.000000 0.000000
# 5 0.000000 0.000000 0.000000 0.000000 0.159640 0.000000
# 6 0.000000 0.000000 0.000000 0.000000 0.000000 0.030757
#
#
# Mechanical properties :
#
#
# Convention : Reuss Voigt Hill
#
# Bulk Modulus (GPa) = 47.04455 80.68852 63.86653
# Shear Modulus (GPa) = 15.34350 25.15569 20.24959
#
# Velocity S-wave (km/s) = 2.79942 3.58446 3.21598
# Velocity P-wave (km/s) = 5.87173 7.63827 6.81250
#
# Compressibility (1/GPa) = 0.02125645
#
# Stress axis : x y z
#
# Youngs Moduli (GPa) = 30.12970 117.49153 79.13570
#
# Poissons Ratio (x) = 0.64108 0.56747
# Poissons Ratio (y) = 0.16440 0.30968
# Poissons Ratio (z) = 0.21606 0.45978
#
# Static dielectric constant tensor:
#      x y z
#    x 1.717250 0.000000 0.000000 
#    y 0.000000 1.726480 0.000000 
#    z 0.000000 0.000000 1.661850 
# 
# From -- ./inp_files/19721.got.cif
#   From: 2010.05.17/outbox.cif.g08.bks.cpg/sg42_10_cif.got.tgz:19721.got - 2010.06.03 19:03:34.
