data_PCOD9369075
_publ_section_title
;
Structure prediction by ZEFSAII (Michael W. Deem and Ramdas Pophale) SiO2 
 PCOD9369075
Probable space group: F M M 2
;
_chemical_formula_sum "Si O2"
_cell_formula_units_Z 80
_cell_length_a 36.074300
_cell_length_b 22.704386
_cell_length_c 5.195537
_cell_angle_alpha 90.000000
_cell_angle_beta 90.000000
_cell_angle_gamma 90.000000
_cell_volume 4255.377729
_symmetry_space_group_name_H-M "F M M 2"
_symmetry_group_IT_number 42
_symmetry_cell_setting 'orthorhombic'
loop_
_space_group_symop_operation_xyz
x,y,z
-x,-y,z
-x,y,z
x,-y,z
x,1/2+y,1/2+z
-x,1/2-y,1/2+z
-x,1/2+y,1/2+z
x,1/2-y,1/2+z
1/2+x,y,1/2+z
1/2-x,-y,1/2+z
1/2-x,y,1/2+z
1/2+x,-y,1/2+z
1/2+x,1/2+y,z
1/2-x,1/2-y,z
1/2-x,1/2+y,z
1/2+x,1/2-y,z
loop_
_atom_site_type_symbol
_atom_site_label
_atom_site_fract_x
_atom_site_fract_y
_atom_site_fract_z
Si Si1 0.847999 0.139802 0.526800
Si Si2 0.228162 0.500000 0.720621
Si Si3 0.078347 0.788765 0.571435
Si Si4 0.233117 0.316394 0.044791
Si Si5 0.500000 0.210059 0.184090
Si Si6 0.839762 0.566063 0.537382
O O1 0.884184 0.175507 0.608320
O O2 0.810822 0.179819 0.503493
O O3 0.856113 0.109033 0.253396
O O4 0.840170 0.093139 0.754026
O O5 0.261920 0.500000 0.520063
O O6 0.201701 0.445855 0.643148
O O7 0.078313 0.736608 0.782757
O O8 0.039162 0.821151 0.627840
O O9 0.244615 0.345018 0.312159
O O10 0.250000 0.250000 0.065067
O O11 0.500000 0.263504 0.972433
O O12 0.856625 0.500000 0.534908
#
# Coordination Sequence:
#
# PCOD9369075 Si02
#       6
#    16   8  16  16   8  16
#     4  12  22  37  60  80 106 154 183 220 292 321
#     4  10  20  36  58  72 104 129 184 249 290 304
#     4  10  21  34  59  84 120 145 184 222 266 347
#     4  10  23  36  49  70 109 145 182 218 266 320
#     4   8  16  34  52  84 113 148 173 224 274 308
#     4  10  24  39  55  80 106 134 195 238 273 327
#
# _framework density 18.799741999999998
#
# number of rings (size 3 to 8) (size 9 to 14) (size 15 to 20)
#    0.600    1.200    0.000    4.200    5.600    4.800 
#    0.000    0.000    0.000    0.000    0.000    4.200 
#    0.000    0.000    0.000    0.000    0.000    0.000 
#
# Total GULP energy -111470.570012 kJ/mol
# GULP energy per Si atom -5573.528501 kJ/mol
# Density = 1.875695 g / cm^3
# Si number density = 18.799742 Si / 1000 Ang^3
#
#
#
# Elastic Constant Matrix: (Units=GPa)
#
#
# Indices 1 2 3 4 5 6 
#
# 1 116.3600 21.6195 -14.8464 0.0120 -0.0020 -0.0009
# 2 21.6195 39.3454 1.1295 0.0061 -0.0020 -0.0005
# 3 -14.8464 1.1295 89.0362 0.0157 -0.0073 -0.0005
# 4 0.0120 0.0061 0.0157 -62.1973 0.0010 0.0007
# 5 -0.0020 -0.0020 -0.0073 0.0010 25.9879 0.0008
# 6 -0.0009 -0.0005 -0.0005 0.0007 0.0008 9.9505
#
#
#
# Elastic Compliance Matrix: (Units=1/GPa)
#
#
# Indices 1 2 3 4 5 6 
#
# 1 0.009824 -0.005447 0.001707 0.000002 0.000001 0.000001
# 2 -0.005447 0.028445 -0.001269 0.000001 0.000001 0.000001
# 3 0.001707 -0.001269 0.011532 0.000003 0.000003 0.000001
# 4 0.000002 0.000001 0.000003 -0.016078 0.000001 0.000001
# 5 0.000001 0.000001 0.000003 0.000001 0.038479 -0.000003
# 6 0.000001 0.000001 0.000001 0.000001 -0.000003 0.100497
#
#
# Mechanical properties :
#
#
# Convention : Reuss Voigt Hill
#
# Bulk Modulus (GPa) = 25.13602 28.94963 27.04282
# Shear Modulus (GPa) = 25.51293 10.53751 18.02522
#
# Velocity S-wave (km/s) = 3.68787 2.37008 3.09981
# Velocity P-wave (km/s) = 5.61545 4.78770 5.21801
#
# Compressibility (1/GPa) = 0.03978355
#
# Stress axis : x y z
#
# Youngs Moduli (GPa) = 101.79276 35.15506 86.71407
#
# Poissons Ratio (x) = 0.19149 -0.14804
# Poissons Ratio (y) = 0.55447 0.11005
# Poissons Ratio (z) = -0.17378 0.04462
#
# Static dielectric constant tensor:
#      x y z
#    x 1.683070 0.000000 0.000000 
#    y 0.000000 1.594270 -0.000010 
#    z 0.000000 -0.000010 1.699070 
# 
# From -- ./inp_files/1446.got.cif
#   From: 2010.05.17/outbox.cif.g08.bks.cpg/sg42_1_cif.got.tgz:1446.got - 2010.06.03 19:03:34.
