data_PCOD9369224
_publ_section_title
;
Structure prediction by ZEFSAII (Michael W. Deem and Ramdas Pophale) SiO2 
 PCOD9369224
Probable space group: F M M 2
;
_chemical_formula_sum "Si O2"
_cell_formula_units_Z 88
_cell_length_a 10.956347
_cell_length_b 27.545150
_cell_length_c 15.044756
_cell_angle_alpha 90.000000
_cell_angle_beta 90.000000
_cell_angle_gamma 90.000000
_cell_volume 4540.420426
_symmetry_space_group_name_H-M "F M M 2"
_symmetry_group_IT_number 42
_symmetry_cell_setting 'orthorhombic'
loop_
_space_group_symop_operation_xyz
x,y,z
-x,-y,z
-x,y,z
x,-y,z
x,1/2+y,1/2+z
-x,1/2-y,1/2+z
-x,1/2+y,1/2+z
x,1/2-y,1/2+z
1/2+x,y,1/2+z
1/2-x,-y,1/2+z
1/2-x,y,1/2+z
1/2+x,-y,1/2+z
1/2+x,1/2+y,z
1/2-x,1/2-y,z
1/2-x,1/2+y,z
1/2+x,1/2-y,z
loop_
_atom_site_type_symbol
_atom_site_label
_atom_site_fract_x
_atom_site_fract_y
_atom_site_fract_z
Si Si1 0.770046 0.808298 0.639900
Si Si2 0.142074 0.942032 0.142806
Si Si3 0.353629 0.444920 0.343044
Si Si4 0.247711 0.377308 0.491232
Si Si5 0.500000 0.295154 0.752224
Si Si6 0.000000 0.805460 0.150040
Si Si7 0.500000 0.323918 0.950195
O O1 0.750000 0.750000 0.631645
O O2 0.806153 0.832443 0.545937
O O3 0.875975 0.817744 0.711276
O O4 0.634200 0.828664 0.664170
O O5 0.188557 0.933435 0.242934
O O6 0.220057 0.916689 0.067362
O O7 0.000000 0.926219 0.134705
O O8 0.143050 0.000000 0.130735
O O9 0.500000 0.446931 0.337861
O O10 0.311522 0.500000 0.366976
O O11 0.317291 0.404184 0.413001
O O12 0.120176 0.356896 0.454188
O O13 0.500000 0.241003 0.712883
O O14 0.500000 0.295371 0.858170
O O15 0.000000 0.794431 0.043551
#
# Coordination Sequence:
#
# PCOD9369224 Si02
#       7
#    16  16  16  16   8   8   8
#     4   9  20  37  60  83 120 157 195 239 290 348
#     4   9  18  35  58  81 109 149 192 236 285 343
#     4   9  20  37  57  85 117 150 194 242 291 349
#     4  11  20  35  60  84 119 149 194 240 293 350
#     4  10  20  38  60  83 118 153 190 251 305 335
#     4   8  18  42  60  79 115 156 200 238 284 346
#     4  10  22  36  59  88 113 153 192 249 296 353
#
# _framework density 19.381464999999999
#
# number of rings (size 3 to 8) (size 9 to 14) (size 15 to 20)
#    0.000    2.545    0.909    1.636    3.818    0.000 
#    0.000   21.818    0.000    0.000    0.000    0.000 
#    0.000    0.000    0.000    0.000    0.000    0.000 
#
# Total GULP energy -122611.214656 kJ/mol
# GULP energy per Si atom -5573.237030 kJ/mol
# Density = 1.933735 g / cm^3
# Si number density = 19.381465 Si / 1000 Ang^3
#
#
#
# Elastic Constant Matrix: (Units=GPa)
#
#
# Indices 1 2 3 4 5 6 
#
# 1 61.3109 9.1915 35.9979 0.0000 0.0000 0.0000
# 2 9.1915 62.8888 39.1054 0.0000 0.0000 0.0000
# 3 35.9979 39.1054 121.1138 0.0000 0.0000 0.0000
# 4 0.0000 0.0000 0.0000 33.7809 0.0000 0.0000
# 5 0.0000 0.0000 0.0000 0.0000 16.9065 0.0000
# 6 0.0000 0.0000 0.0000 0.0000 0.0000 26.4319
#
#
#
# Elastic Compliance Matrix: (Units=1/GPa)
#
#
# Indices 1 2 3 4 5 6 
#
# 1 0.019804 0.000958 -0.006196 0.000000 0.000000 0.000000
# 2 0.000958 0.019942 -0.006724 0.000000 0.000000 0.000000
# 3 -0.006196 -0.006724 0.012269 0.000000 0.000000 0.000000
# 4 0.000000 0.000000 0.000000 0.029603 0.000000 0.000000
# 5 0.000000 0.000000 0.000000 0.000000 0.059149 0.000000
# 6 0.000000 0.000000 0.000000 0.000000 0.000000 0.037833
#
#
# Mechanical properties :
#
#
# Convention : Reuss Voigt Hill
#
# Bulk Modulus (GPa) = 35.59609 45.98924 40.79267
# Shear Modulus (GPa) = 23.59752 26.15844 24.87798
#
# Velocity S-wave (km/s) = 3.49310 3.67776 3.58662
# Velocity P-wave (km/s) = 5.88854 6.46642 6.18423
#
# Compressibility (1/GPa) = 0.02809297
#
# Stress axis : x y z
#
# Youngs Moduli (GPa) = 50.49384 50.14562 81.50530
#
# Poissons Ratio (x) = -0.04804 0.50498
# Poissons Ratio (y) = -0.04838 0.54801
# Poissons Ratio (z) = 0.31284 0.33716
#
# Static dielectric constant tensor:
#      x y z
#    x 1.701260 0.000000 0.000000 
#    y 0.000000 1.723120 0.000000 
#    z 0.000000 0.000000 1.654730 
# 
# From -- ./inp_files/7080.got.cif
#   From: 2010.05.17/outbox.cif.g08.bks.cpg/sg42_4_cif.got.tgz:7080.got - 2010.06.03 19:03:34.
