data_PCOD9369522
_publ_section_title
;
Structure prediction by ZEFSAII (Michael W. Deem and Ramdas Pophale) SiO2 
 PCOD9369522
Probable space group: F M M 2
;
_chemical_formula_sum "Si O2"
_cell_formula_units_Z 80
_cell_length_a 17.929240
_cell_length_b 28.385783
_cell_length_c 8.802404
_cell_angle_alpha 90.000000
_cell_angle_beta 90.000000
_cell_angle_gamma 90.000000
_cell_volume 4479.856022
_symmetry_space_group_name_H-M "F M M 2"
_symmetry_group_IT_number 42
_symmetry_cell_setting 'orthorhombic'
loop_
_space_group_symop_operation_xyz
x,y,z
-x,-y,z
-x,y,z
x,-y,z
x,1/2+y,1/2+z
-x,1/2-y,1/2+z
-x,1/2+y,1/2+z
x,1/2-y,1/2+z
1/2+x,y,1/2+z
1/2-x,-y,1/2+z
1/2-x,y,1/2+z
1/2+x,-y,1/2+z
1/2+x,1/2+y,z
1/2-x,1/2-y,z
1/2-x,1/2+y,z
1/2+x,1/2-y,z
loop_
_atom_site_type_symbol
_atom_site_label
_atom_site_fract_x
_atom_site_fract_y
_atom_site_fract_z
Si Si1 0.088274 0.554679 0.870370
Si Si2 0.343654 0.116666 0.629955
Si Si3 0.327201 0.778651 0.164145
Si Si4 0.801837 0.370679 0.961298
Si Si5 0.586329 0.703129 0.971538
O O1 0.105642 0.500000 0.895266
O O2 0.115480 0.571757 0.703068
O O3 0.000000 0.561675 0.884441
O O4 0.133838 0.589906 0.979960
O O5 0.277106 0.108137 0.512492
O O6 0.399673 0.153735 0.556319
O O7 0.305900 0.139689 0.781263
O O8 0.250000 0.750000 0.180020
O O9 0.315648 0.823562 0.055533
O O10 0.386428 0.744009 0.084442
O O11 0.360130 0.794039 0.325592
O O12 0.500000 0.708712 0.930121
#
# Coordination Sequence:
#
# PCOD9369522 Si02
#       5
#    16  16  16  16  16
#     4   9  21  41  66  94 126 161 202 258 319 373
#     4  10  21  39  61  90 120 161 206 251 306 366
#     4  12  24  40  61  86 125 172 208 253 309 369
#     4  10  22  38  64  89 121 162 208 253 304 370
#     4  12  25  39  59  89 124 165 213 258 304 366
#
# _framework density 17.857716
#
# number of rings (size 3 to 8) (size 9 to 14) (size 15 to 20)
#    1.200    0.200    2.000    4.200    0.000    2.400 
#    0.000    0.000    0.000    0.000    0.000    5.600 
#    0.000    0.000    0.000    0.000    0.000    0.000 
#
# Total GULP energy -111530.273285 kJ/mol
# GULP energy per Si atom -5576.513664 kJ/mol
# Density = 1.781707 g / cm^3
# Si number density = 17.857716 Si / 1000 Ang^3
#
#
#
# Elastic Constant Matrix: (Units=GPa)
#
#
# Indices 1 2 3 4 5 6 
#
# 1 109.4234 54.3565 16.0307 0.0000 0.0000 0.0000
# 2 54.3565 90.5425 9.9699 0.0000 0.0000 0.0000
# 3 16.0307 9.9699 66.9880 0.0000 0.0001 0.0000
# 4 0.0000 0.0000 0.0000 21.0180 0.0000 0.0000
# 5 0.0000 0.0000 0.0001 0.0000 21.7124 0.0000
# 6 0.0000 0.0000 0.0000 0.0000 0.0000 32.4703
#
#
#
# Elastic Compliance Matrix: (Units=1/GPa)
#
#
# Indices 1 2 3 4 5 6 
#
# 1 0.013287 -0.007754 -0.002026 0.000000 0.000000 0.000000
# 2 -0.007754 0.015753 -0.000489 0.000000 0.000000 0.000000
# 3 -0.002026 -0.000489 0.015486 0.000000 0.000000 0.000000
# 4 0.000000 0.000000 0.000000 0.047578 0.000000 0.000000
# 5 0.000000 0.000000 0.000000 0.000000 0.046057 0.000000
# 6 0.000000 0.000000 0.000000 0.000000 0.000000 0.030797
#
#
# Mechanical properties :
#
#
# Convention : Reuss Voigt Hill
#
# Bulk Modulus (GPa) = 41.68576 47.51867 44.60222
# Shear Modulus (GPa) = 25.31746 27.47994 26.39870
#
# Velocity S-wave (km/s) = 3.76936 3.92704 3.84901
# Velocity P-wave (km/s) = 6.50677 6.87238 6.69207
#
# Compressibility (1/GPa) = 0.02398901
#
# Stress axis : x y z
#
# Youngs Moduli (GPa) = 75.25948 63.47844 64.57607
#
# Poissons Ratio (x) = 0.49221 0.13081
# Poissons Ratio (y) = 0.58355 0.03158
# Poissons Ratio (z) = 0.15246 0.03104
#
# Static dielectric constant tensor:
#      x y z
#    x 1.606870 0.000000 0.000000 
#    y 0.000000 1.595800 0.000000 
#    z 0.000000 0.000000 1.618060 
# 
# From -- ./inp_files/3576.got.cif
#   From: 2010.05.17/outbox.cif.g08.bks.cpg/sg42_2_cif.got.tgz:3576.got - 2010.06.03 19:03:34.
