data_PCOD9369014
_publ_section_title
;
Structure prediction by ZEFSAII (Michael W. Deem and Ramdas Pophale) SiO2 
 PCOD9369014
Probable space group: F M M 2
;
_chemical_formula_sum "Si O2"
_cell_formula_units_Z 96
_cell_length_a 15.898480
_cell_length_b 15.649316
_cell_length_c 17.788779
_cell_angle_alpha 90.000000
_cell_angle_beta 90.000000
_cell_angle_gamma 90.000000
_cell_volume 4425.854218
_symmetry_space_group_name_H-M "F M M 2"
_symmetry_group_IT_number 42
_symmetry_cell_setting 'orthorhombic'
loop_
_space_group_symop_operation_xyz
x,y,z
-x,-y,z
-x,y,z
x,-y,z
x,1/2+y,1/2+z
-x,1/2-y,1/2+z
-x,1/2+y,1/2+z
x,1/2-y,1/2+z
1/2+x,y,1/2+z
1/2-x,-y,1/2+z
1/2-x,y,1/2+z
1/2+x,-y,1/2+z
1/2+x,1/2+y,z
1/2-x,1/2-y,z
1/2-x,1/2+y,z
1/2+x,1/2-y,z
loop_
_atom_site_type_symbol
_atom_site_label
_atom_site_fract_x
_atom_site_fract_y
_atom_site_fract_z
Si Si1 0.591525 0.399878 0.355230
Si Si2 0.842638 0.093646 0.008832
Si Si3 0.264421 0.152044 0.363785
Si Si4 0.409485 0.278223 0.501134
Si Si5 0.718626 0.161884 0.125821
Si Si6 0.596551 0.100267 0.252151
O O1 0.500000 0.386096 0.316395
O O2 0.592737 0.500000 0.377219
O O3 0.682151 0.380503 0.318200
O O4 0.592169 0.335380 0.426108
O O5 0.776546 0.097816 0.939556
O O6 0.899516 0.176328 0.991514
O O7 0.882680 0.000000 0.008847
O O8 0.794726 0.109710 0.087986
O O9 0.250000 0.250000 0.384936
O O10 0.349860 0.145358 0.316977
O O11 0.500000 0.295045 0.537681
O O12 0.334999 0.305846 0.554815
O O13 0.750000 0.250000 0.164479
O O14 0.653962 0.112877 0.178644
O O15 0.500000 0.130480 0.244381
O O16 0.593982 0.000000 0.270425
#
# Coordination Sequence:
#
# PCOD9369014 Si02
#       6
#    16  16  16  16  16  16
#     4  10  20  35  58  88 118 154 203 256 306 357
#     4  11  21  36  61  88 121 164 208 254 308 371
#     4  12  22  40  61  87 124 167 206 258 313 372
#     4  10  20  35  57  88 121 153 201 255 307 367
#     4  10  20  39  61  88 117 161 210 258 314 365
#     4  11  25  41  60  90 126 166 210 257 317 383
#
# _framework density 21.690726999999999
#
# number of rings (size 3 to 8) (size 9 to 14) (size 15 to 20)
#    0.000    1.333    3.333    3.500    0.000    2.333 
#    0.000    1.667    0.000    1.000    0.000    0.000 
#    0.000    0.000    0.000    0.000    0.000    0.000 
#
# Total GULP energy -133874.137693 kJ/mol
# GULP energy per Si atom -5578.089071 kJ/mol
# Density = 2.164136 g / cm^3
# Si number density = 21.690727 Si / 1000 Ang^3
#
#
#
# Elastic Constant Matrix: (Units=GPa)
#
#
# Indices 1 2 3 4 5 6 
#
# 1 106.1297 5.0708 6.7294 0.0000 0.0000 0.0000
# 2 5.0708 114.1677 7.4010 0.0000 0.0000 0.0000
# 3 6.7294 7.4010 44.8588 0.0000 0.0000 0.0000
# 4 0.0000 0.0000 0.0000 14.0613 0.0000 0.0000
# 5 0.0000 0.0000 0.0000 0.0000 14.4030 0.0000
# 6 0.0000 0.0000 0.0000 0.0000 0.0000 29.7205
#
#
#
# Elastic Compliance Matrix: (Units=1/GPa)
#
#
# Indices 1 2 3 4 5 6 
#
# 1 0.009526 -0.000334 -0.001374 0.000000 0.000000 0.000000
# 2 -0.000334 0.008865 -0.001413 0.000000 0.000000 0.000000
# 3 -0.001374 -0.001413 0.022731 0.000000 0.000000 0.000000
# 4 0.000000 0.000000 0.000000 0.071117 0.000000 0.000000
# 5 0.000000 0.000000 0.000000 0.000000 0.069430 0.000000
# 6 0.000000 0.000000 0.000000 0.000000 0.000000 0.033647
#
#
# Mechanical properties :
#
#
# Convention : Reuss Voigt Hill
#
# Bulk Modulus (GPa) = 28.66852 33.72872 31.19862
# Shear Modulus (GPa) = 21.44226 28.03395 24.73810
#
# Velocity S-wave (km/s) = 3.14752 3.59895 3.38078
# Velocity P-wave (km/s) = 5.14343 5.73180 5.44557
#
# Compressibility (1/GPa) = 0.03488146
#
# Stress axis : x y z
#
# Youngs Moduli (GPa) = 104.98133 112.79745 43.99216
#
# Poissons Ratio (x) = 0.03768 0.06044
# Poissons Ratio (y) = 0.03507 0.06214
# Poissons Ratio (z) = 0.14423 0.15933
#
# Static dielectric constant tensor:
#      x y z
#    x 1.871320 0.000000 0.000000 
#    y 0.000000 1.804870 0.000000 
#    z 0.000000 0.000000 1.786200 
# 
# From -- ./inp_files/25108.got.cif
#   From: 2010.05.17/outbox.cif.g08.bks.cpg/sg42_13_cif.got.tgz:25108.got - 2010.06.03 19:03:34.
