data_PCOD9369728
_publ_section_title
;
Structure prediction by ZEFSAII (Michael W. Deem and Ramdas Pophale) SiO2 
 PCOD9369728
Probable space group: F M M 2
;
_chemical_formula_sum "Si O2"
_cell_formula_units_Z 112
_cell_length_a 18.270578
_cell_length_b 22.636824
_cell_length_c 11.748145
_cell_angle_alpha 90.000000
_cell_angle_beta 90.000000
_cell_angle_gamma 90.000000
_cell_volume 4858.890133
_symmetry_space_group_name_H-M "F M M 2"
_symmetry_group_IT_number 42
_symmetry_cell_setting 'orthorhombic'
loop_
_space_group_symop_operation_xyz
x,y,z
-x,-y,z
-x,y,z
x,-y,z
x,1/2+y,1/2+z
-x,1/2-y,1/2+z
-x,1/2+y,1/2+z
x,1/2-y,1/2+z
1/2+x,y,1/2+z
1/2-x,-y,1/2+z
1/2-x,y,1/2+z
1/2+x,-y,1/2+z
1/2+x,1/2+y,z
1/2-x,1/2-y,z
1/2-x,1/2+y,z
1/2+x,1/2-y,z
loop_
_atom_site_type_symbol
_atom_site_label
_atom_site_fract_x
_atom_site_fract_y
_atom_site_fract_z
Si Si1 0.414521 0.730225 0.034390
Si Si2 0.862124 0.622149 0.679295
Si Si3 0.774793 0.106145 0.972687
Si Si4 0.585540 0.145460 0.107879
Si Si5 0.308109 0.211392 0.866809
Si Si6 0.412924 0.070851 0.322414
Si Si7 0.377829 0.935664 0.897309
O O1 0.500000 0.736641 0.008316
O O2 0.403270 0.667024 0.093521
O O3 0.389991 0.786406 0.112196
O O4 0.368083 0.746247 0.922790
O O5 0.794885 0.597314 0.605032
O O6 0.839006 0.665994 0.778781
O O7 0.897531 0.573786 0.763626
O O8 0.740742 0.172289 0.956044
O O9 0.851695 0.093007 0.910786
O O10 0.710274 0.066845 0.918637
O O11 0.500000 0.148729 0.128398
O O12 0.595334 0.115410 0.983971
O O13 0.612291 0.101904 0.205297
O O14 0.250000 0.250000 0.800904
O O15 0.500000 0.085160 0.347915
O O16 0.409659 0.000000 0.314160
O O17 0.405019 0.000000 0.934338
#
# Coordination Sequence:
#
# PCOD9369728 Si02
#       7
#    16  16  16  16  16  16  16
#     4  11  24  43  68 101 142 185 232 282 347 432
#     4  11  26  42  68 101 142 180 232 292 363 417
#     4  11  24  42  65 100 137 185 232 290 355 424
#     4  10  22  43  69 100 136 182 239 293 350 418
#     4  11  24  42  67  98 139 178 228 285 349 417
#     4  10  23  44  70 100 135 180 237 296 353 423
#     4  11  25  43  69 104 143 191 239 293 357 429
#
# _framework density 23.050530999999999
#
# number of rings (size 3 to 8) (size 9 to 14) (size 15 to 20)
#    0.000    1.286    4.286    0.857    8.000    3.714 
#    0.000    0.000    0.000    0.000    0.000    0.000 
#    0.000    0.000    0.000    0.000    0.000    0.000 
#
# Total GULP energy -155995.810581 kJ/mol
# GULP energy per Si atom -5571.278949 kJ/mol
# Density = 2.299807 g / cm^3
# Si number density = 23.050531 Si / 1000 Ang^3
#
#
#
# Elastic Constant Matrix: (Units=GPa)
#
#
# Indices 1 2 3 4 5 6 
#
# 1 72.5266 12.7501 7.7142 0.0000 0.0000 0.0000
# 2 12.7501 79.8633 2.2002 0.0000 0.0000 0.0000
# 3 7.7142 2.2002 80.1471 0.0000 0.0000 0.0000
# 4 0.0000 0.0000 0.0000 28.5080 0.0000 0.0000
# 5 0.0000 0.0000 0.0000 0.0000 24.5791 0.0000
# 6 0.0000 0.0000 0.0000 0.0000 0.0000 10.9075
#
#
#
# Elastic Compliance Matrix: (Units=1/GPa)
#
#
# Indices 1 2 3 4 5 6 
#
# 1 0.014324 -0.002250 -0.001317 0.000000 0.000000 0.000000
# 2 -0.002250 0.012884 -0.000137 0.000000 0.000000 0.000000
# 3 -0.001317 -0.000137 0.012608 0.000000 0.000000 0.000000
# 4 0.000000 0.000000 0.000000 0.035078 0.000000 0.000000
# 5 0.000000 0.000000 0.000000 0.000000 0.040685 0.000000
# 6 0.000000 0.000000 0.000000 0.000000 0.000000 0.091680
#
#
# Mechanical properties :
#
#
# Convention : Reuss Voigt Hill
#
# Bulk Modulus (GPa) = 30.85770 30.87401 30.86585
# Shear Modulus (GPa) = 22.17594 26.79042 24.48318
#
# Velocity S-wave (km/s) = 3.10507 3.41287 3.26260
# Velocity P-wave (km/s) = 5.12556 5.38084 5.25475
#
# Compressibility (1/GPa) = 0.03240683
#
# Stress axis : x y z
#
# Youngs Moduli (GPa) = 69.81416 77.61293 79.31743
#
# Poissons Ratio (x) = 0.17467 0.10445
# Poissons Ratio (y) = 0.15712 0.01087
# Poissons Ratio (z) = 0.09194 0.01064
#
# Static dielectric constant tensor:
#      x y z
#    x 1.891550 0.000000 0.000000 
#    y 0.000000 2.069710 0.000000 
#    z 0.000000 0.000000 1.942760 
# 
# From -- ./inp_files/9661.got.cif
#   From: 2010.05.17/outbox.cif.g08.bks.cpg/sg42_5_cif.got.tgz:9661.got - 2010.06.03 19:03:34.
