data_PCOD9369865
_publ_section_title
;
Structure prediction by ZEFSAII (Michael W. Deem and Ramdas Pophale) SiO2 
 PCOD9369865
Probable space group: F M M 2
;
_chemical_formula_sum "Si O2"
_cell_formula_units_Z 80
_cell_length_a 27.477476
_cell_length_b 18.056007
_cell_length_c 7.222609
_cell_angle_alpha 90.000000
_cell_angle_beta 90.000000
_cell_angle_gamma 90.000000
_cell_volume 3583.378275
_symmetry_space_group_name_H-M "F M M 2"
_symmetry_group_IT_number 42
_symmetry_cell_setting 'orthorhombic'
loop_
_space_group_symop_operation_xyz
x,y,z
-x,-y,z
-x,y,z
x,-y,z
x,1/2+y,1/2+z
-x,1/2-y,1/2+z
-x,1/2+y,1/2+z
x,1/2-y,1/2+z
1/2+x,y,1/2+z
1/2-x,-y,1/2+z
1/2-x,y,1/2+z
1/2+x,-y,1/2+z
1/2+x,1/2+y,z
1/2-x,1/2-y,z
1/2-x,1/2+y,z
1/2+x,1/2-y,z
loop_
_atom_site_type_symbol
_atom_site_label
_atom_site_fract_x
_atom_site_fract_y
_atom_site_fract_z
Si Si1 0.052250 0.188022 0.805350
Si Si2 0.299385 0.296918 0.449671
Si Si3 0.154412 0.844439 0.809156
Si Si4 0.553320 0.359620 0.233224
Si Si5 0.159577 0.417021 0.691366
O O1 0.100844 0.154336 0.719399
O O2 0.055828 0.276828 0.816174
O O3 0.000000 0.170654 0.716547
O O4 0.052225 0.155910 0.012276
O O5 0.250000 0.250000 0.448069
O O6 0.340327 0.233768 0.418814
O O7 0.307792 0.338582 0.642677
O O8 0.306477 0.356082 0.287956
O O9 0.161054 0.904265 0.969389
O O10 0.500000 0.392429 0.282161
O O11 0.603917 0.402471 0.260264
O O12 0.174222 0.500000 0.737946
#
# Coordination Sequence:
#
# PCOD9369865 Si02
#       5
#    16  16  16  16  16
#     4   9  16  29  54  92 126 160 214 273 317 373
#     4  12  24  41  72  96 122 169 230 280 332 392
#     4  11  21  40  68  97 126 171 224 274 326 398
#     4   9  17  31  57  93 132 174 219 267 325 391
#     4  11  25  43  65 100 143 177 216 277 344 406
#
# _framework density 22.325299999999999
#
# number of rings (size 3 to 8) (size 9 to 14) (size 15 to 20)
#    0.000    1.600    4.000    1.800    0.000    2.000 
#    0.000    1.000    0.000    0.000    0.000    2.800 
#    0.000    0.000    0.000    0.000    0.000    0.000 
#
# Total GULP energy -111686.795014 kJ/mol
# GULP energy per Si atom -5584.339751 kJ/mol
# Density = 2.227449 g / cm^3
# Si number density = 22.325300 Si / 1000 Ang^3
#
#
#
# Elastic Constant Matrix: (Units=GPa)
#
#
# Indices 1 2 3 4 5 6 
#
# 1 159.1995 28.4652 37.4693 0.0000 0.0000 0.0000
# 2 28.4652 73.8522 13.9153 -0.0004 0.0000 0.0001
# 3 37.4693 13.9153 80.0098 -0.0010 0.0000 0.0002
# 4 0.0000 -0.0004 -0.0010 16.8595 0.0000 0.0001
# 5 0.0000 0.0000 0.0000 0.0000 23.7600 0.0000
# 6 0.0000 0.0001 0.0002 0.0001 0.0000 -18.1761
#
#
#
# Elastic Compliance Matrix: (Units=1/GPa)
#
#
# Indices 1 2 3 4 5 6 
#
# 1 0.007412 -0.002278 -0.003075 0.000000 0.000000 0.000000
# 2 -0.002278 0.014699 -0.001490 0.000000 0.000000 0.000000
# 3 -0.003075 -0.001490 0.014198 0.000001 0.000000 0.000000
# 4 0.000000 0.000000 0.000001 0.059314 0.000000 0.000000
# 5 0.000000 0.000000 0.000000 0.000000 0.042087 0.000000
# 6 0.000000 0.000000 0.000000 0.000000 0.000000 -0.055017
#
#
# Mechanical properties :
#
#
# Convention : Reuss Voigt Hill
#
# Bulk Modulus (GPa) = 44.20082 52.52904 48.36493
# Shear Modulus (GPa) = 48.11401 20.03614 34.07507
#
# Velocity S-wave (km/s) = 4.64738 2.99902 3.91103
# Velocity P-wave (km/s) = 6.97417 5.96424 6.48888
#
# Compressibility (1/GPa) = 0.02262402
#
# Stress axis : x y z
#
# Youngs Moduli (GPa) = 134.90830 68.03123 70.43385
#
# Poissons Ratio (x) = 0.15495 0.21660
# Poissons Ratio (y) = 0.30726 0.10494
# Poissons Ratio (z) = 0.41487 0.10136
#
# Static dielectric constant tensor:
#      x y z
#    x 1.944120 0.000000 0.000000 
#    y 0.000000 1.736860 0.000000 
#    z 0.000000 0.000000 1.875760 
# 
# From -- ./inp_files/5515.got.cif
#   From: 2010.05.17/outbox.cif.g08.bks.cpg/sg42_3_cif.got.tgz:5515.got - 2010.06.03 19:03:34.
