data_PCOD9369622
_publ_section_title
;
Structure prediction by ZEFSAII (Michael W. Deem and Ramdas Pophale) SiO2 
 PCOD9369622
Probable space group: F M M 2
;
_chemical_formula_sum "Si O2"
_cell_formula_units_Z 116
_cell_length_a 7.427515
_cell_length_b 30.097655
_cell_length_c 24.597759
_cell_angle_alpha 90.000000
_cell_angle_beta 90.000000
_cell_angle_gamma 90.000000
_cell_volume 5498.848309
_symmetry_space_group_name_H-M "F M M 2"
_symmetry_group_IT_number 42
_symmetry_cell_setting 'orthorhombic'
loop_
_space_group_symop_operation_xyz
x,y,z
-x,-y,z
-x,y,z
x,-y,z
x,1/2+y,1/2+z
-x,1/2-y,1/2+z
-x,1/2+y,1/2+z
x,1/2-y,1/2+z
1/2+x,y,1/2+z
1/2-x,-y,1/2+z
1/2-x,y,1/2+z
1/2+x,-y,1/2+z
1/2+x,1/2+y,z
1/2-x,1/2-y,z
1/2-x,1/2+y,z
1/2+x,1/2-y,z
loop_
_atom_site_type_symbol
_atom_site_label
_atom_site_fract_x
_atom_site_fract_y
_atom_site_fract_z
Si Si1 0.215887 0.197830 0.966030
Si Si2 0.282050 0.050066 0.832274
Si Si3 0.282380 0.949643 0.957862
Si Si4 0.207538 0.421554 0.653474
Si Si5 0.284548 0.697799 0.844804
Si Si6 0.500000 0.500000 0.673210
Si Si7 0.795503 0.130826 0.755944
Si Si8 0.204993 0.375821 0.544348
O O1 0.250000 0.250000 0.974009
O O2 0.283799 0.185356 0.905346
O O3 0.000000 0.191416 0.964712
O O4 0.287743 0.166887 0.014242
O O5 0.500000 0.051879 0.829111
O O6 0.231190 0.057629 0.895081
O O7 0.204272 0.087156 0.793831
O O8 0.226955 0.000000 0.816746
O O9 0.500000 0.947344 0.960541
O O10 0.230403 0.000000 0.972900
O O11 0.205773 0.913527 0.998073
O O12 0.341269 0.460904 0.670432
O O13 0.204019 0.384608 0.700811
O O14 0.279914 0.398360 0.598425
O O15 0.000000 0.437048 0.644714
O O16 0.500000 0.690722 0.845809
O O17 0.250000 0.750000 0.837612
O O18 0.214029 0.668746 0.794822
O O19 0.000000 0.143613 0.742218
O O20 0.000000 0.363860 0.559288
#
# Coordination Sequence:
#
# PCOD9369622 Si02
#       8
#    16  16  16  16  16   4  16  16
#     4   9  18  36  59  89 121 157 201 252 311 378
#     4   9  19  34  51  78 112 150 192 242 302 367
#     4   9  19  33  52  78 111 148 191 241 298 361
#     4  11  26  44  65  93 124 167 215 261 316 372
#     4   9  19  35  60  89 122 158 203 255 314 379
#     4  12  26  48  68  90 124 164 222 268 308 360
#     4  11  22  38  58  85 119 160 205 259 313 373
#     4  10  22  38  57  82 118 155 198 253 311 369
#
# _framework density 21.095324999999999
#
# number of rings (size 3 to 8) (size 9 to 14) (size 15 to 20)
#    0.000    2.207    0.690    2.276    2.897    3.862 
#    0.000    4.828    0.000    3.310    0.000    0.000 
#    0.000    0.000    0.000    0.000    0.000    0.000 
#
# Total GULP energy -161683.030623 kJ/mol
# GULP energy per Si atom -5575.276918 kJ/mol
# Density = 2.104731 g / cm^3
# Si number density = 21.095325 Si / 1000 Ang^3
#
#
#
# Elastic Constant Matrix: (Units=GPa)
#
#
# Indices 1 2 3 4 5 6 
#
# 1 93.0504 2.3223 4.5050 0.0000 0.0000 0.0000
# 2 2.3223 68.6621 44.2552 0.0000 0.0000 0.0000
# 3 4.5050 44.2552 59.3259 0.0000 0.0000 0.0000
# 4 0.0000 0.0000 0.0000 119.4476 0.0000 0.0000
# 5 0.0000 0.0000 0.0000 0.0000 21.3106 0.0000
# 6 0.0000 0.0000 0.0000 0.0000 0.0000 21.0423
#
#
#
# Elastic Compliance Matrix: (Units=1/GPa)
#
#
# Indices 1 2 3 4 5 6 
#
# 1 0.010790 0.000314 -0.001054 0.000000 0.000000 0.000000
# 2 0.000314 0.028060 -0.020956 0.000000 0.000000 0.000000
# 3 -0.001054 -0.020956 0.032569 0.000000 0.000000 0.000000
# 4 0.000000 0.000000 0.000000 0.008372 0.000000 0.000000
# 5 0.000000 0.000000 0.000000 0.000000 0.046925 0.000000
# 6 0.000000 0.000000 0.000000 0.000000 0.000000 0.047523
#
#
# Mechanical properties :
#
#
# Convention : Reuss Voigt Hill
#
# Bulk Modulus (GPa) = 35.67871 35.91150 35.79511
# Shear Modulus (GPa) = 22.02906 43.69047 32.85977
#
# Velocity S-wave (km/s) = 3.23501 4.55587 3.95103
# Velocity P-wave (km/s) = 5.55909 6.68842 6.14974
#
# Compressibility (1/GPa) = 0.02802792
#
# Stress axis : x y z
#
# Youngs Moduli (GPa) = 92.67809 35.63745 30.70442
#
# Poissons Ratio (x) = -0.01120 0.03236
# Poissons Ratio (y) = -0.02913 0.64344
# Poissons Ratio (z) = 0.09766 0.74682
#
# Static dielectric constant tensor:
#      x y z
#    x 1.793120 0.000000 0.000000 
#    y 0.000000 1.732260 0.000000 
#    z 0.000000 0.000000 1.766490 
# 
# From -- ./inp_files/28500.got.cif
#   From: 2010.05.17/outbox.cif.g08.bks.cpg/sg42_15_cif.got.tgz:28500.got - 2010.06.03 19:03:34.
