data_PCOD9369006
_publ_section_title
;
Structure prediction by ZEFSAII (Michael W. Deem and Ramdas Pophale) SiO2 
 PCOD9369006
Probable space group: F M M 2
;
_chemical_formula_sum "Si O2"
_cell_formula_units_Z 116
_cell_length_a 22.943848
_cell_length_b 20.638936
_cell_length_c 11.774806
_cell_angle_alpha 90.000000
_cell_angle_beta 90.000000
_cell_angle_gamma 90.000000
_cell_volume 5575.801722
_symmetry_space_group_name_H-M "F M M 2"
_symmetry_group_IT_number 42
_symmetry_cell_setting 'orthorhombic'
loop_
_space_group_symop_operation_xyz
x,y,z
-x,-y,z
-x,y,z
x,-y,z
x,1/2+y,1/2+z
-x,1/2-y,1/2+z
-x,1/2+y,1/2+z
x,1/2-y,1/2+z
1/2+x,y,1/2+z
1/2-x,-y,1/2+z
1/2-x,y,1/2+z
1/2+x,-y,1/2+z
1/2+x,1/2+y,z
1/2-x,1/2-y,z
1/2-x,1/2+y,z
1/2+x,1/2-y,z
loop_
_atom_site_type_symbol
_atom_site_label
_atom_site_fract_x
_atom_site_fract_y
_atom_site_fract_z
Si Si1 0.395774 0.605078 0.888380
Si Si2 0.735121 0.424638 0.625972
Si Si3 0.565986 0.806128 0.200245
Si Si4 0.236605 0.925839 0.876388
Si Si5 0.929703 0.831865 0.120591
Si Si6 0.899571 0.070983 0.572128
Si Si7 0.430664 0.071431 0.818746
Si Si8 0.500000 0.500000 0.848366
O O1 0.399369 0.668442 0.808435
O O2 0.333360 0.572886 0.873849
O O3 0.448460 0.556965 0.856290
O O4 0.403186 0.630149 0.015774
O O5 0.755438 0.500000 0.623535
O O6 0.749981 0.395602 0.501124
O O7 0.754417 0.398443 0.750826
O O8 0.664806 0.425760 0.623325
O O9 0.500000 0.791044 0.237354
O O10 0.588914 0.742302 0.137897
O O11 0.565946 0.867778 0.117301
O O12 0.259636 0.000000 0.879866
O O13 0.915866 0.871973 0.233528
O O14 0.000000 0.832942 0.104437
O O15 0.896926 0.074604 0.436502
O O16 0.925717 0.000000 0.600897
O O17 0.500000 0.075690 0.845490
O O18 0.421290 0.000000 0.766310
#
# Coordination Sequence:
#
# PCOD9369006 Si02
#       8
#    16  16  16  16  16  16  16   4
#     4  12  23  38  62  94 123 164 202 252 318 367
#     4   9  19  35  57  86 124 156 198 260 318 374
#     4  11  23  36  57  85 124 163 199 246 297 374
#     4  10  20  36  60  92 126 157 204 262 323 379
#     4  10  23  38  55  83 125 167 206 243 297 377
#     4  10  20  35  57  85 115 153 200 252 306 358
#     4   9  19  34  54  82 118 160 202 248 301 365
#     4  12  24  36  64 100 138 152 194 260 310 386
#
# _framework density 20.804182999999998
#
# number of rings (size 3 to 8) (size 9 to 14) (size 15 to 20)
#    0.000    1.793    3.448    0.414    3.862    1.931 
#    0.000    2.759    0.000    0.828    0.000    0.000 
#    0.000    0.000    0.000    0.000    0.000    0.000 
#
# Total GULP energy -161460.915681 kJ/mol
# GULP energy per Si atom -5567.617782 kJ/mol
# Density = 2.075683 g / cm^3
# Si number density = 20.804183 Si / 1000 Ang^3
#
#
#
# Elastic Constant Matrix: (Units=GPa)
#
#
# Indices 1 2 3 4 5 6 
#
# 1 36.9851 0.6992 7.8895 0.0000 0.0000 0.0000
# 2 0.6992 78.7571 39.7142 0.0000 0.0000 0.0000
# 3 7.8895 39.7142 153.0231 0.0000 0.0000 0.0000
# 4 0.0000 0.0000 0.0000 23.4569 0.0000 0.0000
# 5 0.0000 0.0000 0.0000 0.0000 31.9315 0.0000
# 6 0.0000 0.0000 0.0000 0.0000 0.0000 9.4051
#
#
#
# Elastic Compliance Matrix: (Units=1/GPa)
#
#
# Indices 1 2 3 4 5 6 
#
# 1 0.027358 0.000539 -0.001550 0.000000 0.000000 0.000000
# 2 0.000539 0.014620 -0.003822 0.000000 0.000000 0.000000
# 3 -0.001550 -0.003822 0.007607 0.000000 0.000000 0.000000
# 4 0.000000 0.000000 0.000000 0.042631 0.000000 0.000000
# 5 0.000000 0.000000 0.000000 0.000000 0.031317 0.000000
# 6 0.000000 0.000000 0.000000 0.000000 0.000000 0.106325
#
#
# Mechanical properties :
#
#
# Convention : Reuss Voigt Hill
#
# Bulk Modulus (GPa) = 25.05138 40.59679 32.82408
# Shear Modulus (GPa) = 19.77601 27.65621 23.71611
#
# Velocity S-wave (km/s) = 3.08649 3.64999 3.38000
# Velocity P-wave (km/s) = 4.97690 6.10896 5.57176
#
# Compressibility (1/GPa) = 0.03991797
#
# Stress axis : x y z
#
# Youngs Moduli (GPa) = 36.55181 68.40041 131.46066
#
# Poissons Ratio (x) = -0.03686 0.20382
# Poissons Ratio (y) = -0.01970 0.50245
# Poissons Ratio (z) = 0.05667 0.26143
#
# Static dielectric constant tensor:
#      x y z
#    x 1.718940 0.000000 0.000000 
#    y 0.000000 1.720990 0.000000 
#    z 0.000000 0.000000 1.811560 
# 
# From -- ./inp_files/9014.got.cif
#   From: 2010.05.17/outbox.cif.g08.bks.cpg/sg42_5_cif.got.tgz:9014.got - 2010.06.03 19:03:34.
