data_PCOD9369282
_publ_section_title
;
Structure prediction by ZEFSAII (Michael W. Deem and Ramdas Pophale) SiO2 
 PCOD9369282
Probable space group: F M M 2
;
_chemical_formula_sum "Si O2"
_cell_formula_units_Z 56
_cell_length_a 8.623252
_cell_length_b 17.705319
_cell_length_c 15.705819
_cell_angle_alpha 90.000000
_cell_angle_beta 90.000000
_cell_angle_gamma 90.000000
_cell_volume 2397.924041
_symmetry_space_group_name_H-M "F M M 2"
_symmetry_group_IT_number 42
_symmetry_cell_setting 'orthorhombic'
loop_
_space_group_symop_operation_xyz
x,y,z
-x,-y,z
-x,y,z
x,-y,z
x,1/2+y,1/2+z
-x,1/2-y,1/2+z
-x,1/2+y,1/2+z
x,1/2-y,1/2+z
1/2+x,y,1/2+z
1/2-x,-y,1/2+z
1/2-x,y,1/2+z
1/2+x,-y,1/2+z
1/2+x,1/2+y,z
1/2-x,1/2-y,z
1/2-x,1/2+y,z
1/2+x,1/2-y,z
loop_
_atom_site_type_symbol
_atom_site_label
_atom_site_fract_x
_atom_site_fract_y
_atom_site_fract_z
Si Si1 0.000000 0.288593 0.108521
Si Si2 0.500000 0.673190 0.422437
Si Si3 0.000000 0.345747 0.738344
Si Si4 0.671229 0.913427 0.448133
Si Si5 0.253253 0.416104 0.642450
O O1 0.859768 0.343068 0.133605
O O2 0.000000 0.213138 0.161289
O O3 0.000000 0.275586 0.006862
O O4 0.500000 0.700191 0.325615
O O5 0.664898 0.628030 0.428869
O O6 0.854234 0.399751 0.722953
O O7 0.500000 0.884737 0.418687
O O8 0.667439 0.916510 0.551300
O O9 0.684928 0.000000 0.417917
O O10 0.324209 0.500000 0.649619
#
# Coordination Sequence:
#
# PCOD9369282 Si02
#       5
#     8   8   8  16  16
#     4  10  23  45  68  95 134 185 225 276 345 417
#     4  10  23  40  66  94 135 184 232 278 348 414
#     4  12  23  41  66 101 136 175 227 288 345 403
#     4   9  17  35  64  98 133 177 227 277 335 407
#     4  10  20  39  68  97 131 176 227 277 334 403
#
# _framework density 23.353535000000001
#
# number of rings (size 3 to 8) (size 9 to 14) (size 15 to 20)
#    0.000    2.000    1.429    2.143    0.000    5.714 
#    2.571   11.429    0.000    0.000    0.000    0.000 
#    0.000    0.000    0.000    0.000    0.000    0.000 
#
# Total GULP energy -78042.177253 kJ/mol
# GULP energy per Si atom -5574.441232 kJ/mol
# Density = 2.330038 g / cm^3
# Si number density = 23.353535 Si / 1000 Ang^3
#
#
#
# Elastic Constant Matrix: (Units=GPa)
#
#
# Indices 1 2 3 4 5 6 
#
# 1 137.2877 20.9717 17.0576 0.0000 0.0000 0.0000
# 2 20.9717 100.7108 27.9892 0.0000 0.0000 0.0000
# 3 17.0576 27.9892 123.1869 0.0000 0.0000 0.0000
# 4 0.0000 0.0000 0.0000 20.8116 0.0000 0.0000
# 5 0.0000 0.0000 0.0000 0.0000 3.4950 0.0000
# 6 0.0000 0.0000 0.0000 0.0000 0.0000 9.2325
#
#
#
# Elastic Compliance Matrix: (Units=1/GPa)
#
#
# Indices 1 2 3 4 5 6 
#
# 1 0.007586 -0.001374 -0.000738 0.000000 0.000000 0.000000
# 2 -0.001374 0.010848 -0.002274 0.000000 0.000000 0.000000
# 3 -0.000738 -0.002274 0.008737 0.000000 0.000000 0.000000
# 4 0.000000 0.000000 0.000000 0.048050 0.000000 0.000000
# 5 0.000000 0.000000 0.000000 0.000000 0.286120 0.000000
# 6 0.000000 0.000000 0.000000 0.000000 0.000000 0.108313
#
#
# Mechanical properties :
#
#
# Convention : Reuss Voigt Hill
#
# Bulk Modulus (GPa) = 54.35912 54.80250 54.58081
# Shear Modulus (GPa) = 10.31866 26.38560 18.35213
#
# Velocity S-wave (km/s) = 2.10429 3.36495 2.80632
# Velocity P-wave (km/s) = 5.40659 6.21406 5.82434
#
# Compressibility (1/GPa) = 0.01839618
#
# Stress axis : x y z
#
# Youngs Moduli (GPa) = 131.82799 92.18516 114.45955
#
# Poissons Ratio (x) = 0.12671 0.08448
# Poissons Ratio (y) = 0.18120 0.26032
# Poissons Ratio (z) = 0.09730 0.20966
#
# Static dielectric constant tensor:
#      x y z
#    x 2.055670 0.000000 0.000000 
#    y 0.000000 1.844680 0.000000 
#    z 0.000000 0.000000 1.840220 
# 
# From -- ./inp_files/11747.got.cif
#   From: 2010.05.17/outbox.cif.g08.bks.cpg/sg42_6_cif.got.tgz:11747.got - 2010.06.03 19:03:34.
