data_PCOD9369379
_publ_section_title
;
Structure prediction by ZEFSAII (Michael W. Deem and Ramdas Pophale) SiO2 
 PCOD9369379
Probable space group: F M M 2
;
_chemical_formula_sum "Si O2"
_cell_formula_units_Z 80
_cell_length_a 20.543933
_cell_length_b 16.694106
_cell_length_c 9.360722
_cell_angle_alpha 90.000000
_cell_angle_beta 90.000000
_cell_angle_gamma 90.000000
_cell_volume 3210.377510
_symmetry_space_group_name_H-M "F M M 2"
_symmetry_group_IT_number 42
_symmetry_cell_setting 'orthorhombic'
loop_
_space_group_symop_operation_xyz
x,y,z
-x,-y,z
-x,y,z
x,-y,z
x,1/2+y,1/2+z
-x,1/2-y,1/2+z
-x,1/2+y,1/2+z
x,1/2-y,1/2+z
1/2+x,y,1/2+z
1/2-x,-y,1/2+z
1/2-x,y,1/2+z
1/2+x,-y,1/2+z
1/2+x,1/2+y,z
1/2-x,1/2-y,z
1/2-x,1/2+y,z
1/2+x,1/2-y,z
loop_
_atom_site_type_symbol
_atom_site_label
_atom_site_fract_x
_atom_site_fract_y
_atom_site_fract_z
Si Si1 0.755340 0.910862 0.961320
Si Si2 0.425110 0.411185 0.524577
Si Si3 0.700156 0.316274 0.233088
Si Si4 0.598903 0.587890 0.862450
Si Si5 0.574350 0.264848 0.067588
O O1 0.700216 0.885986 0.850190
O O2 0.822950 0.909190 0.874081
O O3 0.746972 0.000000 0.019557
O O4 0.764599 0.850860 0.091856
O O5 0.500000 0.413622 0.476535
O O6 0.398228 0.500000 0.485293
O O7 0.421451 0.409108 0.698293
O O8 0.405441 0.319075 0.494384
O O9 0.750000 0.250000 0.292674
O O10 0.630354 0.284577 0.182840
O O11 0.579074 0.500000 0.920363
O O12 0.574779 0.661762 0.956033
O O13 0.500000 0.257079 0.123343
#
# Coordination Sequence:
#
# PCOD9369379 Si02
#       5
#    16  16  16  16  16
#     4  10  21  38  60  87 121 160 205 256 308 370
#     4   9  17  31  53  80 110 148 196 247 302 369
#     4  11  22  38  62  91 123 161 208 260 315 377
#     4   9  18  34  57  83 113 156 205 248 299 372
#     4  10  21  36  58  89 122 156 201 263 326 377
#
# _framework density 24.919187999999998
#
# number of rings (size 3 to 8) (size 9 to 14) (size 15 to 20)
#    0.000    2.200    0.000    3.000    0.000    3.600 
#    0.000    1.000    0.000    1.200    0.000    4.200 
#    0.000   12.800    0.000    0.000    0.000    0.000 
#
# Total GULP energy -111825.045364 kJ/mol
# GULP energy per Si atom -5591.252268 kJ/mol
# Density = 2.486247 g / cm^3
# Si number density = 24.919188 Si / 1000 Ang^3
#
#
#
# Elastic Constant Matrix: (Units=GPa)
#
#
# Indices 1 2 3 4 5 6 
#
# 1 126.9461 36.2438 14.3233 0.0000 0.0000 0.0000
# 2 36.2438 226.2826 47.9613 0.0000 -0.0001 0.0000
# 3 14.3233 47.9613 53.1464 0.0000 -0.0002 0.0000
# 4 0.0000 0.0000 0.0000 23.0045 -0.0001 0.0000
# 5 0.0000 -0.0001 -0.0002 -0.0001 125.8078 0.0000
# 6 0.0000 0.0000 0.0000 0.0000 0.0000 37.0535
#
#
#
# Elastic Compliance Matrix: (Units=1/GPa)
#
#
# Indices 1 2 3 4 5 6 
#
# 1 0.008325 -0.001061 -0.001286 0.000000 0.000000 0.000000
# 2 -0.001061 0.005600 -0.004767 0.000000 0.000000 0.000000
# 3 -0.001286 -0.004767 0.023465 0.000000 0.000000 0.000000
# 4 0.000000 0.000000 0.000000 0.043470 0.000000 0.000000
# 5 0.000000 0.000000 0.000000 0.000000 0.007949 0.000000
# 6 0.000000 0.000000 0.000000 0.000000 0.000000 0.026988
#
#
# Mechanical properties :
#
#
# Convention : Reuss Voigt Hill
#
# Bulk Modulus (GPa) = 43.17671 67.04801 55.11236
# Shear Modulus (GPa) = 36.29874 57.69628 46.99751
#
# Velocity S-wave (km/s) = 3.82076 4.81701 4.34752
# Velocity P-wave (km/s) = 6.06866 7.60939 6.88227
#
# Compressibility (1/GPa) = 0.02316063
#
# Stress axis : x y z
#
# Youngs Moduli (GPa) = 120.11471 178.58306 42.61676
#
# Poissons Ratio (x) = 0.18944 0.05482
# Poissons Ratio (y) = 0.12742 0.20317
# Poissons Ratio (z) = 0.15452 0.85138
#
# Static dielectric constant tensor:
#      x y z
#    x 1.069060 0.000000 0.000000 
#    y 0.000000 1.992580 0.000000 
#    z 0.000000 0.000000 1.901650 
# 
# From -- ./inp_files/10016.got.cif
#   From: 2010.05.17/outbox.cif.g08.bks.cpg/sg42_6_cif.got.tgz:10016.got - 2010.06.03 19:03:34.
