data_PCOD9369641
_publ_section_title
;
Structure prediction by ZEFSAII (Michael W. Deem and Ramdas Pophale) SiO2 
 PCOD9369641
Probable space group: F M M 2
;
_chemical_formula_sum "Si O2"
_cell_formula_units_Z 112
_cell_length_a 33.784397
_cell_length_b 25.527953
_cell_length_c 5.363710
_cell_angle_alpha 90.000000
_cell_angle_beta 90.000000
_cell_angle_gamma 90.000000
_cell_volume 4625.912910
_symmetry_space_group_name_H-M "F M M 2"
_symmetry_group_IT_number 42
_symmetry_cell_setting 'orthorhombic'
loop_
_space_group_symop_operation_xyz
x,y,z
-x,-y,z
-x,y,z
x,-y,z
x,1/2+y,1/2+z
-x,1/2-y,1/2+z
-x,1/2+y,1/2+z
x,1/2-y,1/2+z
1/2+x,y,1/2+z
1/2-x,-y,1/2+z
1/2-x,y,1/2+z
1/2+x,-y,1/2+z
1/2+x,1/2+y,z
1/2-x,1/2-y,z
1/2-x,1/2+y,z
1/2+x,1/2-y,z
loop_
_atom_site_type_symbol
_atom_site_label
_atom_site_fract_x
_atom_site_fract_y
_atom_site_fract_z
Si Si1 0.043375 0.057857 0.351570
Si Si2 0.377709 0.557862 0.681541
Si Si3 0.733862 0.308563 0.503033
Si Si4 0.276439 0.941128 0.660294
Si Si5 0.412668 0.631783 0.030715
Si Si6 0.161045 0.860313 0.325012
Si Si7 0.546795 0.282850 0.726993
O O1 0.080354 0.057148 0.536293
O O2 0.050392 0.108811 0.181733
O O3 0.000000 0.061915 0.472452
O O4 0.044043 0.000000 0.222880
O O5 0.360351 0.500000 0.678554
O O6 0.351108 0.600973 0.548319
O O7 0.389955 0.578911 0.949519
O O8 0.758534 0.332377 0.273339
O O9 0.750000 0.250000 0.532254
O O10 0.688580 0.313896 0.425445
O O11 0.246735 0.937745 0.425203
O O12 0.310336 0.896996 0.657640
O O13 0.294134 0.000000 0.650193
O O14 0.378780 0.659347 0.193418
O O15 0.427104 0.667080 0.802712
O O16 0.500000 0.296051 0.737545
O O17 0.554208 0.241949 0.955468
#
# Coordination Sequence:
#
# PCOD9369641 Si02
#       7
#    16  16  16  16  16  16  16
#     4   9  19  37  61  94 134 176 226 279 334 406
#     4  10  23  40  62  97 141 182 225 278 343 415
#     4  10  23  45  70  98 129 171 225 281 341 405
#     4  10  22  39  62  91 123 168 224 272 319 386
#     4  11  24  40  65  98 133 180 224 281 345 424
#     4  11  24  40  64  94 134 174 217 274 342 412
#     4  10  24  47  72  98 132 176 232 293 345 400
#
# _framework density 24.211435999999999
#
# number of rings (size 3 to 8) (size 9 to 14) (size 15 to 20)
#    0.000    1.857    0.000    2.143    8.000    2.857 
#    5.143    1.429    0.000    0.000    0.000    0.000 
#    0.000    0.000    0.000    0.000    0.000    0.000 
#
# Total GULP energy -156502.147310 kJ/mol
# GULP energy per Si atom -5589.362404 kJ/mol
# Density = 2.415633 g / cm^3
# Si number density = 24.211436 Si / 1000 Ang^3
#
#
#
# Elastic Constant Matrix: (Units=GPa)
#
#
# Indices 1 2 3 4 5 6 
#
# 1 100.2273 38.2230 14.6346 0.0848 0.0104 0.0045
# 2 38.2230 88.2761 -0.1848 -0.0813 0.0034 0.0310
# 3 14.6346 -0.1848 82.8670 0.0882 0.0066 0.0250
# 4 0.0848 -0.0813 0.0882 35.6826 -0.0206 0.0189
# 5 0.0104 0.0034 0.0066 -0.0206 23.9420 -0.0412
# 6 0.0045 0.0310 0.0250 0.0189 -0.0412 36.5029
#
#
#
# Elastic Compliance Matrix: (Units=1/GPa)
#
#
# Indices 1 2 3 4 5 6 
#
# 1 0.012336 -0.005346 -0.002190 -0.000036 -0.000004 0.000005
# 2 -0.005346 0.013645 0.000975 0.000041 0.000000 -0.000012
# 3 -0.002190 0.000975 0.012457 -0.000023 -0.000003 -0.000009
# 4 -0.000036 0.000041 -0.000023 0.028025 0.000024 -0.000014
# 5 -0.000004 0.000000 -0.000003 0.000024 0.041768 0.000047
# 6 0.000005 -0.000012 -0.000009 -0.000014 0.000047 0.027395
#
#
# Mechanical properties :
#
#
# Convention : Reuss Voigt Hill
#
# Bulk Modulus (GPa) = 39.50448 41.85733 40.68090
# Shear Modulus (GPa) = 31.80920 33.80535 32.80728
#
# Velocity S-wave (km/s) = 3.62858 3.74070 3.68507
# Velocity P-wave (km/s) = 5.82300 5.99858 5.91144
#
# Compressibility (1/GPa) = 0.02531359
#
# Stress axis : x y z
#
# Youngs Moduli (GPa) = 81.06375 73.28701 80.27894
#
# Poissons Ratio (x) = 0.39179 0.17585
# Poissons Ratio (y) = 0.43337 -0.07823
# Poissons Ratio (z) = 0.17757 -0.07142
#
# Static dielectric constant tensor:
#      x y z
#    x 1.934260 -0.000010 0.000010 
#    y -0.000010 1.925720 -0.000050 
#    z 0.000010 -0.000050 1.965380 
# 
# From -- ./inp_files/1503.got.cif
#   From: 2010.05.17/outbox.cif.g08.bks.cpg/sg42_1_cif.got.tgz:1503.got - 2010.06.03 19:03:34.
