data_PCOD9369374
_publ_section_title
;
Structure prediction by ZEFSAII (Michael W. Deem and Ramdas Pophale) SiO2 
 PCOD9369374
Probable space group: F M M 2
;
_chemical_formula_sum "Si O2"
_cell_formula_units_Z 112
_cell_length_a 22.441495
_cell_length_b 20.287246
_cell_length_c 12.591184
_cell_angle_alpha 90.000000
_cell_angle_beta 90.000000
_cell_angle_gamma 90.000000
_cell_volume 5732.465520
_symmetry_space_group_name_H-M "F M M 2"
_symmetry_group_IT_number 42
_symmetry_cell_setting 'orthorhombic'
loop_
_space_group_symop_operation_xyz
x,y,z
-x,-y,z
-x,y,z
x,-y,z
x,1/2+y,1/2+z
-x,1/2-y,1/2+z
-x,1/2+y,1/2+z
x,1/2-y,1/2+z
1/2+x,y,1/2+z
1/2-x,-y,1/2+z
1/2-x,y,1/2+z
1/2+x,-y,1/2+z
1/2+x,1/2+y,z
1/2-x,1/2-y,z
1/2-x,1/2+y,z
1/2+x,1/2-y,z
loop_
_atom_site_type_symbol
_atom_site_label
_atom_site_fract_x
_atom_site_fract_y
_atom_site_fract_z
Si Si1 0.931766 0.211129 0.367470
Si Si2 0.378815 0.337095 0.584715
Si Si3 0.148030 0.690912 0.662406
Si Si4 0.220201 0.075990 0.480335
Si Si5 0.136954 0.572408 0.514029
Si Si6 0.892271 0.145853 0.814317
Si Si7 0.247445 0.323603 0.305140
O O1 0.915762 0.174064 0.476544
O O2 0.888402 0.190795 0.272026
O O3 0.921420 0.290436 0.370236
O O4 0.000000 0.198637 0.339694
O O5 0.357165 0.262573 0.610073
O O6 0.325041 0.387591 0.559950
O O7 0.413286 0.360119 0.692085
O O8 0.122812 0.633767 0.588672
O O9 0.216528 0.679869 0.695740
O O10 0.290501 0.074200 0.509431
O O11 0.220921 0.121398 0.375873
O O12 0.201973 0.000000 0.463627
O O13 0.119355 0.500000 0.552361
O O14 0.108665 0.586554 0.398157
O O15 0.821760 0.160396 0.798256
O O16 0.250000 0.250000 0.354568
#
# Coordination Sequence:
#
# PCOD9369374 Si02
#       7
#    16  16  16  16  16  16  16
#     4  11  23  40  61  90 118 153 210 266 307 346
#     4  11  20  37  61  84 119 160 201 251 299 354
#     4  11  22  37  62  93 117 161 201 258 304 362
#     4  10  22  35  56  91 130 165 195 240 300 370
#     4  10  22  38  59  91 131 163 194 240 306 377
#     4  10  21  36  57  90 122 158 195 247 301 361
#     4  11  18  34  60  90 120 159 199 242 303 366
#
# _framework density 19.537841
#
# number of rings (size 3 to 8) (size 9 to 14) (size 15 to 20)
#    0.000    1.429    5.714    0.857    2.000    3.429 
#    0.000    2.857    0.000    3.000    0.000    4.000 
#    0.000    0.000    0.000    0.000    0.000    0.000 
#
# Total GULP energy -156113.503423 kJ/mol
# GULP energy per Si atom -5575.482265 kJ/mol
# Density = 1.949337 g / cm^3
# Si number density = 19.537841 Si / 1000 Ang^3
#
#
#
# Elastic Constant Matrix: (Units=GPa)
#
#
# Indices 1 2 3 4 5 6 
#
# 1 39.1031 1.7193 6.6896 0.0000 0.0000 0.0000
# 2 1.7193 133.1248 51.5691 0.0000 0.0000 0.0000
# 3 6.6896 51.5691 67.9342 0.0000 0.0000 0.0000
# 4 0.0000 0.0000 0.0000 11.9113 0.0000 0.0000
# 5 0.0000 0.0000 0.0000 0.0000 6.8766 0.0000
# 6 0.0000 0.0000 0.0000 0.0000 0.0000 7.2991
#
#
#
# Elastic Compliance Matrix: (Units=1/GPa)
#
#
# Indices 1 2 3 4 5 6 
#
# 1 0.026093 0.000933 -0.003277 0.000000 0.000000 0.000000
# 2 0.000933 0.010674 -0.008195 0.000000 0.000000 0.000000
# 3 -0.003277 -0.008195 0.021263 0.000000 0.000000 0.000000
# 4 0.000000 0.000000 0.000000 0.083954 0.000000 0.000000
# 5 0.000000 0.000000 0.000000 0.000000 0.145420 0.000000
# 6 0.000000 0.000000 0.000000 0.000000 0.000000 0.137004
#
#
# Mechanical properties :
#
#
# Convention : Reuss Voigt Hill
#
# Bulk Modulus (GPa) = 27.06224 40.01313 33.53768
# Shear Modulus (GPa) = 10.92170 17.22968 14.07569
#
# Velocity S-wave (km/s) = 2.36689 2.97284 2.68700
# Velocity P-wave (km/s) = 4.62069 5.68401 5.17971
#
# Compressibility (1/GPa) = 0.03695185
#
# Stress axis : x y z
#
# Youngs Moduli (GPa) = 38.32431 93.68513 47.02929
#
# Poissons Ratio (x) = -0.08737 0.15413
# Poissons Ratio (y) = -0.03574 0.38538
# Poissons Ratio (z) = 0.12560 0.76771
#
# Static dielectric constant tensor:
#      x y z
#    x 1.690320 0.000000 0.000000 
#    y 0.000000 1.675140 0.000000 
#    z 0.000000 0.000000 1.738520 
# 
# From -- ./inp_files/9675.got.cif
#   From: 2010.05.17/outbox.cif.g08.bks.cpg/sg42_5_cif.got.tgz:9675.got - 2010.06.03 19:03:34.
