data_PCOD9369514
_publ_section_title
;
Structure prediction by ZEFSAII (Michael W. Deem and Ramdas Pophale) SiO2 
 PCOD9369514
Probable space group: F M M 2
;
_chemical_formula_sum "Si O2"
_cell_formula_units_Z 88
_cell_length_a 28.240513
_cell_length_b 17.393577
_cell_length_c 8.389821
_cell_angle_alpha 90.000000
_cell_angle_beta 90.000000
_cell_angle_gamma 90.000000
_cell_volume 4121.109753
_symmetry_space_group_name_H-M "F M M 2"
_symmetry_group_IT_number 42
_symmetry_cell_setting 'orthorhombic'
loop_
_space_group_symop_operation_xyz
x,y,z
-x,-y,z
-x,y,z
x,-y,z
x,1/2+y,1/2+z
-x,1/2-y,1/2+z
-x,1/2+y,1/2+z
x,1/2-y,1/2+z
1/2+x,y,1/2+z
1/2-x,-y,1/2+z
1/2-x,y,1/2+z
1/2+x,-y,1/2+z
1/2+x,1/2+y,z
1/2-x,1/2-y,z
1/2-x,1/2+y,z
1/2+x,1/2-y,z
loop_
_atom_site_type_symbol
_atom_site_label
_atom_site_fract_x
_atom_site_fract_y
_atom_site_fract_z
Si Si1 0.603558 0.805058 0.217630
Si Si2 0.000000 0.700788 0.194088
Si Si3 0.750000 0.250000 0.123837
Si Si4 0.395361 0.362342 0.352810
Si Si5 0.000000 0.362303 0.833841
Si Si6 0.677587 0.500000 0.350183
Si Si7 0.764054 0.000000 0.035566
Si Si8 0.197307 0.345822 0.379795
O O1 0.549691 0.824774 0.269450
O O2 0.609828 0.713278 0.242804
O O3 0.643676 0.845321 0.321624
O O4 0.607330 0.830568 0.034103
O O5 0.000000 0.792765 0.208071
O O6 0.000000 0.675854 0.010426
O O7 0.770241 0.318012 0.232325
O O8 0.791890 0.218698 0.013060
O O9 0.447825 0.398752 0.324121
O O10 0.354822 0.425010 0.332110
O O11 0.707342 0.500000 0.514072
O O12 0.717251 0.500000 0.214404
O O13 0.785140 0.075017 0.951030
#
# Coordination Sequence:
#
# PCOD9369514 Si02
#       8
#    16   8   8  16   8   8   8  16
#     4  10  21  38  69  97 127 166 211 261 309 377
#     4   8  16  34  58  99 129 155 203 259 313 363
#     4  10  24  40  66  94 118 164 220 272 300 376
#     4  10  23  41  69  97 132 164 213 257 321 376
#     4   8  16  37  64  97 125 164 201 259 309 380
#     4  12  30  47  62  91 131 170 213 264 328 379
#     4  12  30  46  62  87 133 171 209 268 324 379
#     4  11  24  42  64  91 125 166 216 260 322 368
#
# _framework density 21.353472
#
# number of rings (size 3 to 8) (size 9 to 14) (size 15 to 20)
#    0.000    1.818    0.000    2.182   15.273    0.364 
#    0.000    0.000    0.000    2.727    0.000    0.000 
#    0.000    0.000    0.000    0.000    0.000    0.000 
#
# Total GULP energy -122973.146612 kJ/mol
# GULP energy per Si atom -5589.688482 kJ/mol
# Density = 2.130487 g / cm^3
# Si number density = 21.353472 Si / 1000 Ang^3
#
#
#
# Elastic Constant Matrix: (Units=GPa)
#
#
# Indices 1 2 3 4 5 6 
#
# 1 139.1294 16.8651 24.7722 0.0000 0.0000 0.0000
# 2 16.8651 52.8792 5.5459 0.0000 0.0000 0.0000
# 3 24.7722 5.5459 56.8219 0.0000 0.0000 0.0000
# 4 0.0000 0.0000 0.0000 0.7018 0.0000 0.0000
# 5 0.0000 0.0000 0.0000 0.0000 23.4845 0.0000
# 6 0.0000 0.0000 0.0000 0.0000 0.0000 27.5132
#
#
#
# Elastic Compliance Matrix: (Units=1/GPa)
#
#
# Indices 1 2 3 4 5 6 
#
# 1 0.008042 -0.002220 -0.003289 0.000000 0.000000 0.000000
# 2 -0.002220 0.019719 -0.000957 0.000000 0.000000 0.000000
# 3 -0.003289 -0.000957 0.019126 0.000000 0.000000 0.000000
# 4 0.000000 0.000000 0.000000 1.424899 0.000000 0.000000
# 5 0.000000 0.000000 0.000000 0.000000 0.042581 0.000000
# 6 0.000000 0.000000 0.000000 0.000000 0.000000 0.036346
#
#
# Mechanical properties :
#
#
# Convention : Reuss Voigt Hill
#
# Bulk Modulus (GPa) = 29.45031 38.13297 33.79164
# Shear Modulus (GPa) = 3.17467 23.78306 13.47886
#
# Velocity S-wave (km/s) = 1.22064 3.34095 2.51515
# Velocity P-wave (km/s) = 3.97597 5.72533 4.92888
#
# Compressibility (1/GPa) = 0.03395550
#
# Stress axis : x y z
#
# Youngs Moduli (GPa) = 124.34165 50.71143 52.28392
#
# Poissons Ratio (x) = 0.11258 0.17199
# Poissons Ratio (y) = 0.27604 0.05003
# Poissons Ratio (z) = 0.40902 0.04852
#
# Static dielectric constant tensor:
#      x y z
#    x 1.821720 0.000000 0.000000 
#    y 0.000000 1.739150 0.000000 
#    z 0.000000 0.000000 1.790960 
# 
# From -- ./inp_files/5566.got.cif
#   From: 2010.05.17/outbox.cif.g08.bks.cpg/sg42_3_cif.got.tgz:5566.got - 2010.06.03 19:03:34.
