data_PCOD9369535
_publ_section_title
;
Structure prediction by ZEFSAII (Michael W. Deem and Ramdas Pophale) SiO2 
 PCOD9369535
Probable space group: F M M 2
;
_chemical_formula_sum "Si O2"
_cell_formula_units_Z 116
_cell_length_a 16.643886
_cell_length_b 30.991874
_cell_length_c 10.249989
_cell_angle_alpha 90.000000
_cell_angle_beta 90.000000
_cell_angle_gamma 90.000000
_cell_volume 5287.202808
_symmetry_space_group_name_H-M "F M M 2"
_symmetry_group_IT_number 42
_symmetry_cell_setting 'orthorhombic'
loop_
_space_group_symop_operation_xyz
x,y,z
-x,-y,z
-x,y,z
x,-y,z
x,1/2+y,1/2+z
-x,1/2-y,1/2+z
-x,1/2+y,1/2+z
x,1/2-y,1/2+z
1/2+x,y,1/2+z
1/2-x,-y,1/2+z
1/2-x,y,1/2+z
1/2+x,-y,1/2+z
1/2+x,1/2+y,z
1/2-x,1/2-y,z
1/2-x,1/2+y,z
1/2+x,1/2-y,z
loop_
_atom_site_type_symbol
_atom_site_label
_atom_site_fract_x
_atom_site_fract_y
_atom_site_fract_z
Si Si1 0.911768 0.170613 0.150210
Si Si2 0.230684 0.547063 0.987251
Si Si3 0.500000 0.000000 0.227663
Si Si4 0.086665 0.645818 0.183080
Si Si5 0.410701 0.262183 0.793507
Si Si6 0.851546 0.364876 0.906766
Si Si7 0.223252 0.707125 0.486795
Si Si8 0.657141 0.938490 0.262110
O O1 0.912118 0.218246 0.214456
O O2 0.894321 0.138841 0.268983
O O3 0.000000 0.162496 0.091762
O O4 0.835486 0.173149 0.057338
O O5 0.194448 0.500000 0.954701
O O6 0.188059 0.588745 0.927248
O O7 0.314260 0.548617 0.906926
O O8 0.220557 0.550584 0.144670
O O9 0.427008 0.037572 0.229496
O O10 0.099307 0.696167 0.203152
O O11 0.147811 0.613276 0.250451
O O12 0.000000 0.635651 0.239532
O O13 0.089702 0.638563 0.029484
O O14 0.500000 0.265069 0.858557
O O15 0.336235 0.267728 0.888782
O O16 0.790812 0.323994 0.925165
O O17 0.250000 0.750000 0.569423
#
# Coordination Sequence:
#
# PCOD9369535 Si02
#       8
#    16  16   4  16  16  16  16  16
#     4  11  25  43  60  86 127 169 207 255 317 375
#     4  11  23  43  67 100 132 171 213 271 334 386
#     4  12  20  40  72 106 124 170 224 270 312 392
#     4  10  21  39  63  95 123 166 212 263 313 383
#     4  10  22  39  60  85 123 167 208 256 317 372
#     4  11  25  38  67  91 127 161 216 260 318 373
#     4  12  24  38  62  89 125 161 215 261 308 374
#     4  11  23  41  71  98 133 168 217 271 326 391
#
# _framework density 21.939765999999999
#
# number of rings (size 3 to 8) (size 9 to 14) (size 15 to 20)
#    0.000    1.103    3.448    2.483    7.724    0.000 
#    0.000    0.000    0.000    1.655    0.000    0.000 
#    0.000    0.000    0.000    0.000    0.000    0.000 
#
# Total GULP energy -161466.730750 kJ/mol
# GULP energy per Si atom -5567.818302 kJ/mol
# Density = 2.188983 g / cm^3
# Si number density = 21.939766 Si / 1000 Ang^3
#
#
#
# Elastic Constant Matrix: (Units=GPa)
#
#
# Indices 1 2 3 4 5 6 
#
# 1 81.9734 4.9809 27.8185 0.0000 0.0000 0.0000
# 2 4.9809 93.2204 -16.5139 0.0000 0.0000 0.0000
# 3 27.8185 -16.5139 42.8138 0.0000 0.0000 0.0000
# 4 0.0000 0.0000 0.0000 7.5921 0.0000 0.0000
# 5 0.0000 0.0000 0.0000 0.0000 -30.4505 0.0000
# 6 0.0000 0.0000 0.0000 0.0000 0.0000 -17.1475
#
#
#
# Elastic Compliance Matrix: (Units=1/GPa)
#
#
# Indices 1 2 3 4 5 6 
#
# 1 0.016378 -0.002963 -0.011785 0.000000 0.000000 0.000000
# 2 -0.002963 0.012050 0.006573 0.000000 0.000000 0.000000
# 3 -0.011785 0.006573 0.033549 0.000000 0.000000 0.000000
# 4 0.000000 0.000000 0.000000 0.131716 0.000000 0.000000
# 5 0.000000 0.000000 0.000000 0.000000 -0.032840 0.000000
# 6 0.000000 0.000000 0.000000 0.000000 0.000000 -0.058318
#
#
# Mechanical properties :
#
#
# Convention : Reuss Voigt Hill
#
# Bulk Modulus (GPa) = 21.91608 27.84205 24.87907
# Shear Modulus (GPa) = 37.28714 5.44696 21.36705
#
# Velocity S-wave (km/s) = 4.12700 1.57736 3.12412
# Velocity P-wave (km/s) = 5.72017 4.00440 4.93739
#
# Compressibility (1/GPa) = 0.04562859
#
# Stress axis : x y z
#
# Youngs Moduli (GPa) = 61.05616 82.98786 29.80682
#
# Poissons Ratio (x) = 0.24587 0.35126
# Poissons Ratio (y) = 0.18090 -0.19592
# Poissons Ratio (z) = 0.71953 -0.54547
#
# Static dielectric constant tensor:
#      x y z
#    x 2.153960 0.000000 0.000000 
#    y 0.000000 1.833430 0.000000 
#    z 0.000000 0.000000 1.837930 
# 
# From -- ./inp_files/9089.got.cif
#   From: 2010.05.17/outbox.cif.g08.bks.cpg/sg42_5_cif.got.tgz:9089.got - 2010.06.03 19:03:34.
