data_PCOD9369817
_publ_section_title
;
Structure prediction by ZEFSAII (Michael W. Deem and Ramdas Pophale) SiO2 
 PCOD9369817
Probable space group: F M M 2
;
_chemical_formula_sum "Si O2"
_cell_formula_units_Z 96
_cell_length_a 21.446773
_cell_length_b 19.897180
_cell_length_c 9.778253
_cell_angle_alpha 90.000000
_cell_angle_beta 90.000000
_cell_angle_gamma 90.000000
_cell_volume 4172.676864
_symmetry_space_group_name_H-M "F M M 2"
_symmetry_group_IT_number 42
_symmetry_cell_setting 'orthorhombic'
loop_
_space_group_symop_operation_xyz
x,y,z
-x,-y,z
-x,y,z
x,-y,z
x,1/2+y,1/2+z
-x,1/2-y,1/2+z
-x,1/2+y,1/2+z
x,1/2-y,1/2+z
1/2+x,y,1/2+z
1/2-x,-y,1/2+z
1/2-x,y,1/2+z
1/2+x,-y,1/2+z
1/2+x,1/2+y,z
1/2-x,1/2-y,z
1/2-x,1/2+y,z
1/2+x,1/2-y,z
loop_
_atom_site_type_symbol
_atom_site_label
_atom_site_fract_x
_atom_site_fract_y
_atom_site_fract_z
Si Si1 0.632970 0.872924 0.495320
Si Si2 0.151816 0.255407 0.670820
Si Si3 0.274261 0.370159 0.763876
Si Si4 0.570849 0.000000 0.959373
Si Si5 0.688703 0.575168 0.476470
Si Si6 0.071386 0.760848 0.428472
Si Si7 0.071120 0.500000 0.631869
O O1 0.779695 0.908368 0.620856
O O2 0.673258 0.898031 0.368868
O O3 0.579813 0.820564 0.444236
O O4 0.605949 0.933728 0.580168
O O5 0.174164 0.320925 0.587941
O O6 0.200870 0.205269 0.736690
O O7 0.113940 0.214625 0.554030
O O8 0.102216 0.278136 0.784332
O O9 0.212071 0.376442 0.855509
O O10 0.614532 0.063705 0.996992
O O11 0.500000 0.000000 0.011266
O O12 0.569124 0.000000 0.795215
O O13 0.709105 0.500000 0.431000
O O14 0.000000 0.780922 0.437716
O O15 0.000000 0.500000 0.580277
#
# Coordination Sequence:
#
# PCOD9369817 Si02
#       7
#    16  16  16   8  16  16   8
#     4   9  23  38  65  98 153 187 256 314 376 446
#     4   9  21  40  62  96 148 192 249 327 368 450
#     4  11  23  47  70 109 144 196 255 302 393 456
#     4   9  24  46  70 109 148 187 248 298 373 454
#     4  10  25  44  77 104 146 202 240 312 375 451
#     4   9  17  36  64  94 139 202 257 307 378 444
#     4  11  22  38  70 107 148 201 252 314 377 450
#
# _framework density 23.006815
#
# number of rings (size 3 to 8) (size 9 to 14) (size 15 to 20)
#    1.500    0.833    0.000    1.500    4.667    1.333 
#    0.000   10.000    0.000    0.000    0.000    0.000 
#    0.000    0.000    0.000    0.000    0.000    0.000 
#
# Total GULP energy -133957.660229 kJ/mol
# GULP energy per Si atom -5581.569176 kJ/mol
# Density = 2.295445 g / cm^3
# Si number density = 23.006815 Si / 1000 Ang^3
#
#
#
# Elastic Constant Matrix: (Units=GPa)
#
#
# Indices 1 2 3 4 5 6 
#
# 1 122.1006 38.0359 34.1274 0.0000 0.0000 0.0000
# 2 38.0359 80.9174 13.6823 0.0000 0.0000 0.0000
# 3 34.1274 13.6823 122.0032 0.0001 0.0000 0.0000
# 4 0.0000 0.0000 0.0001 26.6578 0.0000 0.0000
# 5 0.0000 0.0000 0.0000 0.0000 19.2843 0.0000
# 6 0.0000 0.0000 0.0000 0.0000 0.0000 25.0381
#
#
#
# Elastic Compliance Matrix: (Units=1/GPa)
#
#
# Indices 1 2 3 4 5 6 
#
# 1 0.010224 -0.004406 -0.002366 0.000000 0.000000 0.000000
# 2 -0.004406 0.014496 -0.000393 0.000000 0.000000 0.000000
# 3 -0.002366 -0.000393 0.008902 0.000000 0.000000 0.000000
# 4 0.000000 0.000000 0.000000 0.037512 0.000000 0.000000
# 5 0.000000 0.000000 0.000000 0.000000 0.051856 0.000000
# 6 0.000000 0.000000 0.000000 0.000000 0.000000 0.039939
#
#
# Mechanical properties :
#
#
# Convention : Reuss Voigt Hill
#
# Bulk Modulus (GPa) = 51.83402 55.19025 53.51213
# Shear Modulus (GPa) = 27.21994 30.14110 28.68052
#
# Velocity S-wave (km/s) = 3.44339 3.62345 3.53457
# Velocity P-wave (km/s) = 6.19581 6.44566 6.32197
#
# Compressibility (1/GPa) = 0.01929235
#
# Stress axis : x y z
#
# Youngs Moduli (GPa) = 97.81273 68.98601 112.32970
#
# Poissons Ratio (x) = 0.30393 0.26574
# Poissons Ratio (y) = 0.43093 0.04418
# Poissons Ratio (z) = 0.23140 0.02713
#
# Static dielectric constant tensor:
#      x y z
#    x 1.921440 0.000000 0.000000 
#    y 0.000000 1.880140 0.000000 
#    z 0.000000 0.000000 1.835790 
# 
# From -- ./inp_files/9630.got.cif
#   From: 2010.05.17/outbox.cif.g08.bks.cpg/sg42_5_cif.got.tgz:9630.got - 2010.06.03 19:03:34.
