data_PCOD9369269
_publ_section_title
;
Structure prediction by ZEFSAII (Michael W. Deem and Ramdas Pophale) SiO2 
 PCOD9369269
Probable space group: F M M 2
;
_chemical_formula_sum "Si O2"
_cell_formula_units_Z 100
_cell_length_a 21.095981
_cell_length_b 7.798068
_cell_length_c 30.419222
_cell_angle_alpha 90.000000
_cell_angle_beta 90.000000
_cell_angle_gamma 90.000000
_cell_volume 5004.202159
_symmetry_space_group_name_H-M "F M M 2"
_symmetry_group_IT_number 42
_symmetry_cell_setting 'orthorhombic'
loop_
_space_group_symop_operation_xyz
x,y,z
-x,-y,z
-x,y,z
x,-y,z
x,1/2+y,1/2+z
-x,1/2-y,1/2+z
-x,1/2+y,1/2+z
x,1/2-y,1/2+z
1/2+x,y,1/2+z
1/2-x,-y,1/2+z
1/2-x,y,1/2+z
1/2+x,-y,1/2+z
1/2+x,1/2+y,z
1/2-x,1/2-y,z
1/2-x,1/2+y,z
1/2+x,1/2-y,z
loop_
_atom_site_type_symbol
_atom_site_label
_atom_site_fract_x
_atom_site_fract_y
_atom_site_fract_z
Si Si1 0.000000 0.000000 0.308745
Si Si2 0.178787 0.297277 0.004106
Si Si3 0.822611 0.206052 0.404568
Si Si4 0.179064 0.294813 0.740880
Si Si5 0.428409 0.790664 0.673141
Si Si6 0.602270 0.307690 0.820828
Si Si7 0.429463 0.794252 0.572782
O O1 0.054787 0.152787 0.309803
O O2 0.177410 0.500000 0.999881
O O3 0.250000 0.250000 0.018318
O O4 0.125284 0.248326 0.038723
O O5 0.167700 0.228525 0.954640
O O6 0.750000 0.250000 0.392875
O O7 0.871231 0.284008 0.370009
O O8 0.829998 0.000000 0.403320
O O9 0.174298 0.500000 0.744417
O O10 0.250000 0.250000 0.727044
O O11 0.126086 0.233839 0.706077
O O12 0.161087 0.213549 0.787433
O O13 0.500000 0.739249 0.686291
O O14 0.417234 0.734564 0.622818
O O15 0.428050 0.000000 0.673691
O O16 0.576219 0.500000 0.815704
O O17 0.500000 0.732283 0.559610
O O18 0.432385 0.000000 0.575111
#
# Coordination Sequence:
#
# PCOD9369269 Si02
#       7
#     4  16  16  16  16  16  16
#     4  12  26  48  64  94 132 168 204 264 308 370
#     4  10  21  36  59  86 118 158 203 254 309 364
#     4  10  20  39  62  88 121 160 207 260 314 373
#     4  11  22  38  62  91 126 162 209 262 312 370
#     4   8  17  34  60  84 114 162 206 251 315 374
#     4  12  25  43  67  94 127 168 212 253 310 373
#     4   9  18  36  58  85 118 158 204 250 307 375
#
# _framework density 19.983205999999999
#
# number of rings (size 3 to 8) (size 9 to 14) (size 15 to 20)
#    0.000    1.920    1.600    3.120    1.120    2.880 
#    1.440    3.200    0.000    1.920    0.000    0.000 
#    0.000    0.000    0.000    0.000    0.000    0.000 
#
# Total GULP energy -139331.996690 kJ/mol
# GULP energy per Si atom -5573.279868 kJ/mol
# Density = 1.993772 g / cm^3
# Si number density = 19.983206 Si / 1000 Ang^3
#
#
#
# Elastic Constant Matrix: (Units=GPa)
#
#
# Indices 1 2 3 4 5 6 
#
# 1 138.0044 22.0865 76.6255 0.0000 0.0001 0.0004
# 2 22.0865 95.9732 13.4509 0.0000 0.0003 0.0008
# 3 76.6255 13.4509 87.0157 0.0000 0.0000 -0.0001
# 4 0.0000 0.0000 0.0000 9.6222 -0.0005 0.0000
# 5 0.0001 0.0003 0.0000 -0.0005 407.9150 -0.0002
# 6 0.0004 0.0008 -0.0001 0.0000 -0.0002 31.7816
#
#
#
# Elastic Compliance Matrix: (Units=1/GPa)
#
#
# Indices 1 2 3 4 5 6 
#
# 1 0.014407 -0.001571 -0.012444 0.000000 0.000000 0.000000
# 2 -0.001571 0.010822 -0.000289 0.000000 0.000000 0.000000
# 3 -0.012444 -0.000289 0.022495 0.000000 0.000000 0.000000
# 4 0.000000 0.000000 0.000000 0.103927 0.000000 0.000000
# 5 0.000000 0.000000 0.000000 0.000000 0.002451 0.000000
# 6 0.000000 0.000000 0.000000 0.000000 0.000000 0.031465
#
#
# Mechanical properties :
#
#
# Convention : Reuss Voigt Hill
#
# Bulk Modulus (GPa) = 52.31498 60.59099 56.45299
# Shear Modulus (GPa) = 22.67101 103.78579 63.22840
#
# Velocity S-wave (km/s) = 3.37189 7.21452 5.63112
# Velocity P-wave (km/s) = 6.43396 9.98928 8.40183
#
# Compressibility (1/GPa) = 0.01911498
#
# Stress axis : x y z
#
# Youngs Moduli (GPa) = 69.41139 92.40668 44.45497
#
# Poissons Ratio (x) = 0.14521 0.55318
# Poissons Ratio (y) = 0.10908 0.01285
# Poissons Ratio (z) = 0.86373 0.02671
#
# Static dielectric constant tensor:
#      x y z
#    x 1.650920 0.000000 0.000000 
#    y 0.000000 1.730240 0.000000 
#    z 0.000000 0.000000 1.721360 
# 
# From -- ./inp_files/33025.got.cif
#   From: 2010.05.17/outbox.cif.g08.bks.cpg/sg42_17_cif.got.tgz:33025.got - 2010.06.03 19:03:34.
