data_PCOD9369731
_publ_section_title
;
Structure prediction by ZEFSAII (Michael W. Deem and Ramdas Pophale) SiO2 
 PCOD9369731
Probable space group: F M M 2
;
_chemical_formula_sum "Si O2"
_cell_formula_units_Z 96
_cell_length_a 16.943904
_cell_length_b 26.373234
_cell_length_c 9.772644
_cell_angle_alpha 90.000000
_cell_angle_beta 90.000000
_cell_angle_gamma 90.000000
_cell_volume 4367.057888
_symmetry_space_group_name_H-M "F M M 2"
_symmetry_group_IT_number 42
_symmetry_cell_setting 'orthorhombic'
loop_
_space_group_symop_operation_xyz
x,y,z
-x,-y,z
-x,y,z
x,-y,z
x,1/2+y,1/2+z
-x,1/2-y,1/2+z
-x,1/2+y,1/2+z
x,1/2-y,1/2+z
1/2+x,y,1/2+z
1/2-x,-y,1/2+z
1/2-x,y,1/2+z
1/2+x,-y,1/2+z
1/2+x,1/2+y,z
1/2-x,1/2-y,z
1/2-x,1/2+y,z
1/2+x,1/2-y,z
loop_
_atom_site_type_symbol
_atom_site_label
_atom_site_fract_x
_atom_site_fract_y
_atom_site_fract_z
Si Si1 0.588554 0.055916 0.937860
Si Si2 0.089597 0.855164 0.105683
Si Si3 0.325122 0.636690 0.588348
Si Si4 0.182696 0.292815 0.830903
Si Si5 0.688526 0.058330 0.667156
Si Si6 0.412062 0.698901 0.816066
O O1 0.500000 0.058414 0.877693
O O2 0.656949 0.059132 0.823535
O O3 0.595184 0.000000 0.003291
O O4 0.601785 0.103014 0.036011
O O5 0.153049 0.827002 0.204055
O O6 0.116619 0.913285 0.092180
O O7 0.000000 0.850346 0.159071
O O8 0.092058 0.831132 0.957063
O O9 0.297725 0.671383 0.459857
O O10 0.263162 0.594036 0.637481
O O11 0.352399 0.673642 0.708684
O O12 0.250000 0.250000 0.808520
O O13 0.108116 0.256422 0.855816
O O14 0.701583 0.000000 0.627808
O O15 0.500000 0.696397 0.757740
#
# Coordination Sequence:
#
# PCOD9369731 Si02
#       6
#    16  16  16  16  16  16
#     4  10  22  43  72 104 139 185 239 289 348 429
#     4  11  24  44  68  98 136 183 236 287 349 425
#     4  12  25  44  70 104 142 179 233 293 359 421
#     4  12  25  44  67  98 134 177 238 290 350 419
#     4  11  24  42  68 102 138 178 230 290 353 419
#     4  11  26  44  66 100 140 183 230 287 353 419
#
# _framework density 21.982762999999998
#
# number of rings (size 3 to 8) (size 9 to 14) (size 15 to 20)
#    0.000    0.833    1.667    5.000    2.333    5.667 
#    0.000    0.833    0.000    2.000    0.000    0.000 
#    0.000    0.000    0.000    0.000    0.000    0.000 
#
# Total GULP energy -134061.418240 kJ/mol
# GULP energy per Si atom -5585.892427 kJ/mol
# Density = 2.193273 g / cm^3
# Si number density = 21.982763 Si / 1000 Ang^3
#
#
#
# Elastic Constant Matrix: (Units=GPa)
#
#
# Indices 1 2 3 4 5 6 
#
# 1 125.3791 58.1135 37.5127 0.0000 0.0000 0.0000
# 2 58.1135 154.0268 38.9803 0.0000 0.0000 0.0000
# 3 37.5127 38.9803 59.4078 0.0000 0.0000 0.0000
# 4 0.0000 0.0000 0.0000 30.5941 0.0000 0.0000
# 5 0.0000 0.0000 0.0000 0.0000 33.9456 0.0000
# 6 0.0000 0.0000 0.0000 0.0000 0.0000 47.8544
#
#
#
# Elastic Compliance Matrix: (Units=1/GPa)
#
#
# Indices 1 2 3 4 5 6 
#
# 1 0.010758 -0.002806 -0.004952 0.000000 0.000000 0.000000
# 2 -0.002806 0.008517 -0.003817 0.000000 0.000000 0.000000
# 3 -0.004952 -0.003817 0.022464 0.000000 0.000000 0.000000
# 4 0.000000 0.000000 0.000000 0.032686 0.000000 0.000000
# 5 0.000000 0.000000 0.000000 0.000000 0.029459 0.000000
# 6 0.000000 0.000000 0.000000 0.000000 0.000000 0.020897
#
#
# Mechanical properties :
#
#
# Convention : Reuss Voigt Hill
#
# Bulk Modulus (GPa) = 53.79248 67.55851 60.67549
# Shear Modulus (GPa) = 32.44101 36.09263 34.26682
#
# Velocity S-wave (km/s) = 3.84571 4.05638 3.95245
# Velocity P-wave (km/s) = 6.65152 7.26211 6.96351
#
# Compressibility (1/GPa) = 0.01858996
#
# Stress axis : x y z
#
# Youngs Moduli (GPa) = 92.95527 117.41447 44.51554
#
# Poissons Ratio (x) = 0.32942 0.22044
# Poissons Ratio (y) = 0.26080 0.16990
# Poissons Ratio (z) = 0.46032 0.44813
#
# Static dielectric constant tensor:
#      x y z
#    x 1.843440 0.000000 0.000000 
#    y 0.000000 1.811450 0.000000 
#    z 0.000000 0.000000 1.818000 
# 
# From -- ./inp_files/8813.got.cif
#   From: 2010.05.17/outbox.cif.g08.bks.cpg/sg42_5_cif.got.tgz:8813.got - 2010.06.03 19:03:34.
