data_PCOD9369961
_publ_section_title
;
Structure prediction by ZEFSAII (Michael W. Deem and Ramdas Pophale) SiO2 
 PCOD9369961
Probable space group: F M M 2
;
_chemical_formula_sum "Si O2"
_cell_formula_units_Z 116
_cell_length_a 25.417058
_cell_length_b 26.432309
_cell_length_c 8.012492
_cell_angle_alpha 90.000000
_cell_angle_beta 90.000000
_cell_angle_gamma 90.000000
_cell_volume 5383.044767
_symmetry_space_group_name_H-M "F M M 2"
_symmetry_group_IT_number 42
_symmetry_cell_setting 'orthorhombic'
loop_
_space_group_symop_operation_xyz
x,y,z
-x,-y,z
-x,y,z
x,-y,z
x,1/2+y,1/2+z
-x,1/2-y,1/2+z
-x,1/2+y,1/2+z
x,1/2-y,1/2+z
1/2+x,y,1/2+z
1/2-x,-y,1/2+z
1/2-x,y,1/2+z
1/2+x,-y,1/2+z
1/2+x,1/2+y,z
1/2-x,1/2-y,z
1/2-x,1/2+y,z
1/2+x,1/2-y,z
loop_
_atom_site_type_symbol
_atom_site_label
_atom_site_fract_x
_atom_site_fract_y
_atom_site_fract_z
Si Si1 0.172215 0.558600 0.661750
Si Si2 0.940964 0.805455 0.502122
Si Si3 0.237175 0.137639 0.668049
Si Si4 0.866812 0.108808 0.488406
Si Si5 0.909140 0.796124 0.870232
Si Si6 0.091923 0.587319 0.365920
Si Si7 0.500000 0.500000 0.881118
Si Si8 0.707692 0.206525 0.453075
O O1 0.183284 0.500000 0.648324
O O2 0.227188 0.588555 0.670733
O O3 0.137305 0.574063 0.500836
O O4 0.142413 0.570189 0.836904
O O5 0.906846 0.849030 0.416068
O O6 0.909219 0.797387 0.671835
O O7 0.944745 0.751089 0.417895
O O8 0.000000 0.824288 0.537204
O O9 0.189992 0.132505 0.535677
O O10 0.276373 0.183819 0.629253
O O11 0.211241 0.156640 0.837159
O O12 0.888657 0.088902 0.669415
O O13 0.923597 0.854197 0.913122
O O14 0.852509 0.779270 0.939482
O O15 0.046344 0.545262 0.379941
O O16 0.750000 0.250000 0.417617
#
# Coordination Sequence:
#
# PCOD9369961 Si02
#       8
#    16  16  16  16  16  16   4  16
#     4  12  27  48  74 107 146 189 244 308 372 434
#     4  11  25  44  67 102 139 188 238 290 365 432
#     4  12  22  46  64 104 148 190 234 291 358 444
#     4  11  26  48  72 108 149 188 248 298 368 445
#     4  11  25  43  67 102 147 182 233 298 354 441
#     4  11  26  52  74 106 141 194 247 307 365 435
#     4  12  28  52  90  96 140 198 264 320 366 432
#     4  12  24  37  70 104 144 193 229 282 362 445
#
# _framework density 21.549143999999998
#
# number of rings (size 3 to 8) (size 9 to 14) (size 15 to 20)
#    0.000    0.552    6.207    1.655    9.655    0.552 
#    1.241    0.690    0.000    0.000    0.000    0.000 
#    0.000    0.000    0.000    0.000    0.000    0.000 
#
# Total GULP energy -161539.039616 kJ/mol
# GULP energy per Si atom -5570.311711 kJ/mol
# Density = 2.150010 g / cm^3
# Si number density = 21.549144 Si / 1000 Ang^3
#
#
#
# Elastic Constant Matrix: (Units=GPa)
#
#
# Indices 1 2 3 4 5 6 
#
# 1 126.6992 44.5183 10.2395 -0.0031 -0.0004 0.0026
# 2 44.5183 145.4680 28.4765 -0.0049 0.0018 0.0030
# 3 10.2395 28.4765 53.2306 -0.0214 0.0058 0.0054
# 4 -0.0031 -0.0049 -0.0214 17.6845 0.0001 0.0015
# 5 -0.0004 0.0018 0.0058 0.0001 16.3663 -0.0002
# 6 0.0026 0.0030 0.0054 0.0015 -0.0002 41.9982
#
#
#
# Elastic Compliance Matrix: (Units=1/GPa)
#
#
# Indices 1 2 3 4 5 6 
#
# 1 0.008847 -0.002652 -0.000283 0.000000 0.000001 0.000000
# 2 -0.002652 0.008474 -0.004023 -0.000003 0.000000 0.000000
# 3 -0.000283 -0.004023 0.020993 0.000024 -0.000007 -0.000002
# 4 0.000000 -0.000003 0.000024 0.056547 0.000000 -0.000002
# 5 0.000001 0.000000 -0.000007 0.000000 0.061101 0.000000
# 6 0.000000 0.000000 -0.000002 -0.000002 0.000000 0.023811
#
#
# Mechanical properties :
#
#
# Convention : Reuss Voigt Hill
#
# Bulk Modulus (GPa) = 40.98785 54.65181 47.81983
# Shear Modulus (GPa) = 24.77443 31.35404 28.06423
#
# Velocity S-wave (km/s) = 3.39436 3.81859 3.61270
# Velocity P-wave (km/s) = 5.86721 6.69766 6.29614
#
# Compressibility (1/GPa) = 0.02439747
#
# Stress axis : x y z
#
# Youngs Moduli (GPa) = 113.02628 118.01441 47.63552
#
# Poissons Ratio (x) = 0.31300 0.01348
# Poissons Ratio (y) = 0.29977 0.19163
# Poissons Ratio (z) = 0.03199 0.47476
#
# Static dielectric constant tensor:
#      x y z
#    x 1.774630 0.000000 0.000000 
#    y 0.000000 1.801720 0.000000 
#    z 0.000000 0.000000 1.838340 
# 
# From -- ./inp_files/5318.got.cif
#   From: 2010.05.17/outbox.cif.g08.bks.cpg/sg42_3_cif.got.tgz:5318.got - 2010.06.03 19:03:34.
