data_PCOD9369780
_publ_section_title
;
Structure prediction by ZEFSAII (Michael W. Deem and Ramdas Pophale) SiO2 
 PCOD9369780
Probable space group: F M M 2
;
_chemical_formula_sum "Si O2"
_cell_formula_units_Z 96
_cell_length_a 11.017398
_cell_length_b 15.782253
_cell_length_c 28.099457
_cell_angle_alpha 90.000000
_cell_angle_beta 90.000000
_cell_angle_gamma 90.000000
_cell_volume 4885.915674
_symmetry_space_group_name_H-M "F M M 2"
_symmetry_group_IT_number 42
_symmetry_cell_setting 'orthorhombic'
loop_
_space_group_symop_operation_xyz
x,y,z
-x,-y,z
-x,y,z
x,-y,z
x,1/2+y,1/2+z
-x,1/2-y,1/2+z
-x,1/2+y,1/2+z
x,1/2-y,1/2+z
1/2+x,y,1/2+z
1/2-x,-y,1/2+z
1/2-x,y,1/2+z
1/2+x,-y,1/2+z
1/2+x,1/2+y,z
1/2-x,1/2-y,z
1/2-x,1/2+y,z
1/2+x,1/2-y,z
loop_
_atom_site_type_symbol
_atom_site_label
_atom_site_fract_x
_atom_site_fract_y
_atom_site_fract_z
Si Si1 0.367660 0.596452 0.058030
Si Si2 0.851362 0.000000 0.411172
Si Si3 0.727747 0.342106 0.473405
Si Si4 0.245558 0.843917 0.149410
Si Si5 0.500000 0.603832 0.535883
Si Si6 0.144294 0.177329 0.249145
Si Si7 0.645346 0.000000 0.799232
Si Si8 0.000000 0.399579 0.147743
O O1 0.500000 0.621127 0.076242
O O2 0.366545 0.500000 0.041170
O O3 0.282160 0.599754 0.103893
O O4 0.335755 0.648422 0.011463
O O5 0.793017 0.917058 0.435711
O O6 0.826289 0.000000 0.355143
O O7 0.000000 0.000000 0.418039
O O8 0.750000 0.250000 0.451090
O O9 0.614269 0.356830 0.508898
O O10 0.250000 0.750000 0.128786
O O11 0.152610 0.844014 0.192751
O O12 0.377251 0.865175 0.170042
O O13 0.500000 0.500000 0.531757
O O14 0.500000 0.624713 0.591740
O O15 0.250000 0.250000 0.257279
O O16 0.000000 0.197729 0.260352
O O17 0.182025 0.089714 0.275597
O O18 0.500000 0.000000 0.794296
O O19 0.000000 0.500000 0.150524
#
# Coordination Sequence:
#
# PCOD9369780 Si02
#       8
#    16   8  16  16   8  16   8   8
#     4  11  23  36  53  83 126 170 208 251 305 367
#     4  11  22  44  70  93 121 158 211 262 317 386
#     4  12  23  36  62  90 122 163 208 256 306 366
#     4  11  24  36  59  87 129 165 210 255 309 368
#     4  11  20  40  60  83 122 162 218 257 299 351
#     4  10  23  43  68  97 131 167 213 265 319 385
#     4   9  22  44  72  97 121 160 204 263 334 393
#     4  11  24  36  58  90 123 169 221 265 305 358
#
# _framework density 19.648312000000001
#
# number of rings (size 3 to 8) (size 9 to 14) (size 15 to 20)
#    0.000    1.167    4.167    1.500    9.333    0.667 
#    0.000    0.417    0.000    2.000    0.000    0.000 
#    0.000    0.000    0.000    0.000    0.000    0.000 
#
# Total GULP energy -133780.619564 kJ/mol
# GULP energy per Si atom -5574.192482 kJ/mol
# Density = 1.960359 g / cm^3
# Si number density = 19.648312 Si / 1000 Ang^3
#
#
#
# Elastic Constant Matrix: (Units=GPa)
#
#
# Indices 1 2 3 4 5 6 
#
# 1 85.9078 30.3887 7.3630 0.0000 0.0000 0.0000
# 2 30.3887 137.6308 48.1546 0.0000 0.0000 0.0000
# 3 7.3630 48.1546 76.6535 0.0000 0.0000 0.0000
# 4 0.0000 0.0000 0.0000 -0.3930 0.0000 0.0000
# 5 0.0000 0.0000 0.0000 0.0000 22.1860 0.0000
# 6 0.0000 0.0000 0.0000 0.0000 0.0000 39.6650
#
#
#
# Elastic Compliance Matrix: (Units=1/GPa)
#
#
# Indices 1 2 3 4 5 6 
#
# 1 0.012655 -0.003036 0.000692 0.000000 0.000000 0.000000
# 2 -0.003036 0.010041 -0.006016 0.000000 0.000000 0.000000
# 3 0.000692 -0.006016 0.016759 0.000000 0.000000 0.000000
# 4 0.000000 0.000000 0.000000 -2.544593 0.000000 0.000000
# 5 0.000000 0.000000 0.000000 0.000000 0.045073 0.000000
# 6 0.000000 0.000000 0.000000 0.000000 0.000000 0.025211
#
#
# Mechanical properties :
#
#
# Convention : Reuss Voigt Hill
#
# Bulk Modulus (GPa) = 43.98788 52.44496 48.21642
# Shear Modulus (GPa) = -2.07421 26.57733 12.25156
#
# Velocity S-wave (km/s) = -1.02857 3.68183 2.49979
# Velocity P-wave (km/s) = 4.58537 6.69509 5.73803
#
# Compressibility (1/GPa) = 0.02273354
#
# Stress axis : x y z
#
# Youngs Moduli (GPa) = 79.01934 99.58929 59.67008
#
# Poissons Ratio (x) = 0.30238 -0.04128
# Poissons Ratio (y) = 0.23993 0.35900
# Poissons Ratio (z) = -0.05467 0.59917
#
# Static dielectric constant tensor:
#      x y z
#    x 1.817190 0.000000 0.000000 
#    y 0.000000 1.714330 0.000000 
#    z 0.000000 0.000000 1.634380 
# 
# From -- ./inp_files/34140.got.cif
#   From: 2010.05.17/outbox.cif.g08.bks.cpg/sg42_18_cif.got.tgz:34140.got - 2010.06.03 19:03:34.
