data_PCOD9369383
_publ_section_title
;
Structure prediction by ZEFSAII (Michael W. Deem and Ramdas Pophale) SiO2 
 PCOD9369383
Probable space group: F M M 2
;
_chemical_formula_sum "Si O2"
_cell_formula_units_Z 96
_cell_length_a 24.731701
_cell_length_b 17.524837
_cell_length_c 11.660176
_cell_angle_alpha 90.000000
_cell_angle_beta 90.000000
_cell_angle_gamma 90.000000
_cell_volume 5053.742157
_symmetry_space_group_name_H-M "F M M 2"
_symmetry_group_IT_number 42
_symmetry_cell_setting 'orthorhombic'
loop_
_space_group_symop_operation_xyz
x,y,z
-x,-y,z
-x,y,z
x,-y,z
x,1/2+y,1/2+z
-x,1/2-y,1/2+z
-x,1/2+y,1/2+z
x,1/2-y,1/2+z
1/2+x,y,1/2+z
1/2-x,-y,1/2+z
1/2-x,y,1/2+z
1/2+x,-y,1/2+z
1/2+x,1/2+y,z
1/2-x,1/2-y,z
1/2-x,1/2+y,z
1/2+x,1/2-y,z
loop_
_atom_site_type_symbol
_atom_site_label
_atom_site_fract_x
_atom_site_fract_y
_atom_site_fract_z
Si Si1 0.278127 0.407201 0.115800
Si Si2 0.145801 0.588890 0.409922
Si Si3 0.564017 0.150871 0.994445
Si Si4 0.879457 0.093019 0.259279
Si Si5 0.159602 0.911004 0.643177
Si Si6 0.938527 0.831341 0.041235
O O1 0.274284 0.500000 0.115239
O O2 0.316004 0.390554 0.227307
O O3 0.217277 0.376311 0.106029
O O4 0.310758 0.382801 0.002575
O O5 0.137651 0.500000 0.436247
O O6 0.162244 0.596051 0.279716
O O7 0.090658 0.631617 0.433273
O O8 0.500000 0.126886 0.993527
O O9 0.594414 0.125604 0.876351
O O10 0.603643 0.118966 0.092693
O O11 0.564309 0.241137 0.019885
O O12 0.909995 0.134997 0.154539
O O13 0.885889 0.000000 0.256746
O O14 0.160258 0.000000 0.610786
O O15 0.000000 0.854900 0.048687
#
# Coordination Sequence:
#
# PCOD9369383 Si02
#       6
#    16  16  16  16  16  16
#     4   8  17  35  61  89 114 150 200 247 297 350
#     4   9  19  36  59  87 114 148 200 246 289 357
#     4  11  25  39  58  88 125 163 197 244 307 363
#     4  10  21  40  66  91 116 155 211 258 290 354
#     4  10  21  36  60  88 120 157 191 242 304 366
#     4  10  22  39  60  83 117 161 200 244 301 355
#
# _framework density 18.995825
#
# number of rings (size 3 to 8) (size 9 to 14) (size 15 to 20)
#    0.000    2.333    0.000    2.500    4.667    4.000 
#    0.000    5.000    0.000    0.000    0.000    0.000 
#    0.000    0.000    0.000    0.000    0.000    0.000 
#
# Total GULP energy -133602.705031 kJ/mol
# GULP energy per Si atom -5566.779376 kJ/mol
# Density = 1.895259 g / cm^3
# Si number density = 18.995825 Si / 1000 Ang^3
#
#
#
# Elastic Constant Matrix: (Units=GPa)
#
#
# Indices 1 2 3 4 5 6 
#
# 1 135.9484 44.7780 -9.9029 0.0000 0.0000 0.0000
# 2 44.7780 41.9993 -23.2086 0.0000 0.0000 0.0000
# 3 -9.9029 -23.2086 258.5556 0.0000 0.0000 0.0000
# 4 0.0000 0.0000 0.0000 13.0886 0.0000 0.0000
# 5 0.0000 0.0000 0.0000 0.0000 57.9411 0.0000
# 6 0.0000 0.0000 0.0000 0.0000 0.0000 6.1345
#
#
#
# Elastic Compliance Matrix: (Units=1/GPa)
#
#
# Indices 1 2 3 4 5 6 
#
# 1 0.011453 -0.012593 -0.000692 0.000000 0.000000 0.000000
# 2 -0.012593 0.038899 0.003009 0.000000 0.000000 0.000000
# 3 -0.000692 0.003009 0.004111 0.000000 0.000000 0.000000
# 4 0.000000 0.000000 0.000000 0.076403 0.000000 0.000000
# 5 0.000000 0.000000 0.000000 0.000000 0.017259 0.000000
# 6 0.000000 0.000000 0.000000 0.000000 0.000000 0.163012
#
#
# Mechanical properties :
#
#
# Convention : Reuss Voigt Hill
#
# Bulk Modulus (GPa) = 29.48753 51.09291 40.29022
# Shear Modulus (GPa) = 14.57755 43.75529 29.16642
#
# Velocity S-wave (km/s) = 2.77322 4.80460 3.92268
# Velocity P-wave (km/s) = 5.08047 7.59830 6.46318
#
# Compressibility (1/GPa) = 0.03391264
#
# Stress axis : x y z
#
# Youngs Moduli (GPa) = 87.31145 25.70735 243.23351
#
# Poissons Ratio (x) = 0.32374 0.16825
# Poissons Ratio (y) = 1.09954 -0.73198
# Poissons Ratio (z) = 0.06040 -0.07736
#
# Static dielectric constant tensor:
#      x y z
#    x 1.690690 0.000000 0.000000 
#    y 0.000000 1.712830 0.000000 
#    z 0.000000 0.000000 1.668080 
# 
# From -- ./inp_files/8792.got.cif
#   From: 2010.05.17/outbox.cif.g08.bks.cpg/sg42_5_cif.got.tgz:8792.got - 2010.06.03 19:03:34.
