data_PCOD9369738
_publ_section_title
;
Structure prediction by ZEFSAII (Michael W. Deem and Ramdas Pophale) SiO2 
 PCOD9369738
Probable space group: F M M 2
;
_chemical_formula_sum "Si O2"
_cell_formula_units_Z 68
_cell_length_a 13.078150
_cell_length_b 27.592085
_cell_length_c 7.031762
_cell_angle_alpha 90.000000
_cell_angle_beta 90.000000
_cell_angle_gamma 90.000000
_cell_volume 2537.435412
_symmetry_space_group_name_H-M "F M M 2"
_symmetry_group_IT_number 42
_symmetry_cell_setting 'orthorhombic'
loop_
_space_group_symop_operation_xyz
x,y,z
-x,-y,z
-x,y,z
x,-y,z
x,1/2+y,1/2+z
-x,1/2-y,1/2+z
-x,1/2+y,1/2+z
x,1/2-y,1/2+z
1/2+x,y,1/2+z
1/2-x,-y,1/2+z
1/2-x,y,1/2+z
1/2+x,-y,1/2+z
1/2+x,1/2+y,z
1/2-x,1/2-y,z
1/2-x,1/2+y,z
1/2+x,1/2-y,z
loop_
_atom_site_type_symbol
_atom_site_label
_atom_site_fract_x
_atom_site_fract_y
_atom_site_fract_z
Si Si1 0.382387 0.787135 0.578620
Si Si2 0.880776 0.106994 0.184256
Si Si3 0.500000 0.000000 0.153883
Si Si4 0.115675 0.317986 0.140910
Si Si5 0.166985 0.418870 0.249945
O O1 0.500000 0.778424 0.639624
O O2 0.353415 0.834793 0.702515
O O3 0.340283 0.732159 0.563834
O O4 0.382003 0.806942 0.365795
O O5 0.789495 0.073636 0.267045
O O6 0.000000 0.099524 0.242286
O O7 0.875890 0.093485 0.959667
O O8 0.591097 0.958357 0.167547
O O9 0.161274 0.370830 0.118280
O O10 0.000000 0.322485 0.075319
#
# Coordination Sequence:
#
# PCOD9369738 Si02
#       5
#    16  16   4  16  16
#     4   8  16  30  57  89 135 170 215 254 322 393
#     4  10  22  45  67 102 134 175 218 278 331 410
#     4  12  24  48  74  98 124 184 232 284 336 398
#     4   9  16  33  57  95 130 177 211 264 318 402
#     4  11  23  43  73  93 138 179 224 279 340 380
#
# _framework density 26.79871
#
# number of rings (size 3 to 8) (size 9 to 14) (size 15 to 20)
#    0.000    2.353    2.353    1.412    0.000    3.765 
#    2.118    7.059    0.000    0.000    0.000    0.000 
#    0.000    0.000    0.000    0.000    0.000    0.000 
#
# Total GULP energy -94703.720866 kJ/mol
# GULP energy per Si atom -5570.807110 kJ/mol
# Density = 2.673772 g / cm^3
# Si number density = 26.798710 Si / 1000 Ang^3
#
#
#
# Elastic Constant Matrix: (Units=GPa)
#
#
# Indices 1 2 3 4 5 6 
#
# 1 232.8033 108.4765 22.9414 0.0000 0.0000 0.0000
# 2 108.4765 146.6391 13.5823 0.0000 0.0000 0.0000
# 3 22.9414 13.5823 60.5732 0.0000 0.0000 0.0000
# 4 0.0000 0.0000 0.0000 -39.4505 0.0000 0.0000
# 5 0.0000 0.0000 0.0000 0.0000 31.5073 0.0000
# 6 0.0000 0.0000 0.0000 0.0000 0.0000 -363.3789
#
#
#
# Elastic Compliance Matrix: (Units=1/GPa)
#
#
# Indices 1 2 3 4 5 6 
#
# 1 0.006678 -0.004805 -0.001452 0.000000 0.000000 0.000000
# 2 -0.004805 0.010422 -0.000517 0.000000 0.000000 0.000000
# 3 -0.001452 -0.000517 0.017175 0.000000 0.000000 0.000000
# 4 0.000000 0.000000 0.000000 -0.025348 0.000000 0.000000
# 5 0.000000 0.000000 0.000000 0.000000 0.031739 0.000000
# 6 0.000000 0.000000 0.000000 0.000000 0.000000 -0.002752
#
#
# Mechanical properties :
#
#
# Convention : Reuss Voigt Hill
#
# Bulk Modulus (GPa) = 48.24720 81.11287 64.68003
# Shear Modulus (GPa) = 85.66144 -54.59671 15.53236
#
# Velocity S-wave (km/s) = 5.65987 -4.51853 2.41009
# Velocity P-wave (km/s) = 7.79454 1.76362 5.65089
#
# Compressibility (1/GPa) = 0.02072659
#
# Stress axis : x y z
#
# Youngs Moduli (GPa) = 149.75485 95.95024 58.22540
#
# Poissons Ratio (x) = 0.46107 0.08452
# Poissons Ratio (y) = 0.71962 0.03010
# Poissons Ratio (z) = 0.21738 0.04960
#
# Static dielectric constant tensor:
#      x y z
#    x 2.133930 0.000000 0.000000 
#    y 0.000000 2.103650 0.000000 
#    z 0.000000 0.000000 2.153930 
# 
# From -- ./inp_files/7699.got.cif
#   From: 2010.05.17/outbox.cif.g08.bks.cpg/sg42_4_cif.got.tgz:7699.got - 2010.06.03 19:03:34.
