data_PCOD9369013
_publ_section_title
;
Structure prediction by ZEFSAII (Michael W. Deem and Ramdas Pophale) SiO2 
 PCOD9369013
Probable space group: F M M 2
;
_chemical_formula_sum "Si O2"
_cell_formula_units_Z 96
_cell_length_a 15.400407
_cell_length_b 15.873476
_cell_length_c 18.282369
_cell_angle_alpha 90.000000
_cell_angle_beta 90.000000
_cell_angle_gamma 90.000000
_cell_volume 4469.271195
_symmetry_space_group_name_H-M "F M M 2"
_symmetry_group_IT_number 42
_symmetry_cell_setting 'orthorhombic'
loop_
_space_group_symop_operation_xyz
x,y,z
-x,-y,z
-x,y,z
x,-y,z
x,1/2+y,1/2+z
-x,1/2-y,1/2+z
-x,1/2+y,1/2+z
x,1/2-y,1/2+z
1/2+x,y,1/2+z
1/2-x,-y,1/2+z
1/2-x,y,1/2+z
1/2+x,-y,1/2+z
1/2+x,1/2+y,z
1/2-x,1/2-y,z
1/2-x,1/2+y,z
1/2+x,1/2-y,z
loop_
_atom_site_type_symbol
_atom_site_label
_atom_site_fract_x
_atom_site_fract_y
_atom_site_fract_z
Si Si1 0.349181 0.233002 0.946430
Si Si2 0.400362 0.697207 0.709842
Si Si3 0.601194 0.908707 0.458105
Si Si4 0.603796 0.597656 0.560477
Si Si5 0.594528 0.848364 0.803962
Si Si6 0.214932 0.410075 0.311477
O O1 0.250000 0.250000 0.925986
O O2 0.381967 0.315610 0.990741
O O3 0.402321 0.217542 0.872101
O O4 0.354809 0.148072 0.993389
O O5 0.500000 0.670482 0.728837
O O6 0.382227 0.656856 0.631133
O O7 0.398796 0.796545 0.727870
O O8 0.327514 0.660513 0.762431
O O9 0.500000 0.908676 0.435681
O O10 0.665532 0.909144 0.388805
O O11 0.615377 0.000000 0.496908
O O12 0.500000 0.595764 0.547921
O O13 0.632445 0.500000 0.568563
O O14 0.500000 0.890752 0.806513
O O15 0.681780 0.900529 0.816199
O O16 0.194060 0.500000 0.276179
#
# Coordination Sequence:
#
# PCOD9369013 Si02
#       6
#    16  16  16  16  16  16
#     4  12  22  38  61  88 125 168 204 259 312 371
#     4  10  20  38  62  87 120 160 204 256 308 365
#     4  10  20  35  57  87 120 156 201 251 303 361
#     4  10  23  41  62  91 126 166 211 257 313 378
#     4  11  22  38  60  85 120 163 209 257 309 371
#     4  11  21  34  57  88 120 152 200 256 307 367
#
# _framework density 21.480011999999999
#
# number of rings (size 3 to 8) (size 9 to 14) (size 15 to 20)
#    0.000    1.333    3.333    3.000    0.000    4.667 
#    0.000    0.000    0.000    1.000    0.000    2.333 
#    0.000    0.000    0.000    0.000    0.000    0.000 
#
# Total GULP energy -133765.404366 kJ/mol
# GULP energy per Si atom -5573.558515 kJ/mol
# Density = 2.143112 g / cm^3
# Si number density = 21.480012 Si / 1000 Ang^3
#
#
#
# Elastic Constant Matrix: (Units=GPa)
#
#
# Indices 1 2 3 4 5 6 
#
# 1 106.1958 7.8021 10.2454 0.0000 0.0000 0.0000
# 2 7.8021 86.1777 17.2176 0.0000 0.0000 0.0000
# 3 10.2454 17.2176 52.9164 0.0000 0.0000 0.0000
# 4 0.0000 0.0000 0.0000 18.7129 0.0000 0.0000
# 5 0.0000 0.0000 0.0000 0.0000 8.1133 0.0000
# 6 0.0000 0.0000 0.0000 0.0000 0.0000 25.3315
#
#
#
# Elastic Compliance Matrix: (Units=1/GPa)
#
#
# Indices 1 2 3 4 5 6 
#
# 1 0.009619 -0.000533 -0.001689 0.000000 0.000000 0.000000
# 2 -0.000533 0.012440 -0.003944 0.000000 0.000000 0.000000
# 3 -0.001689 -0.003944 0.020508 0.000000 0.000000 0.000000
# 4 0.000000 0.000000 0.000000 0.053439 0.000000 0.000000
# 5 0.000000 0.000000 0.000000 0.000000 0.123255 0.000000
# 6 0.000000 0.000000 0.000000 0.000000 0.000000 0.039477
#
#
# Mechanical properties :
#
#
# Convention : Reuss Voigt Hill
#
# Bulk Modulus (GPa) = 33.07557 35.09113 34.08335
# Shear Modulus (GPa) = 17.78416 24.43318 21.10867
#
# Velocity S-wave (km/s) = 2.88052 3.37632 3.13822
# Velocity P-wave (km/s) = 5.14732 5.61885 5.38825
#
# Compressibility (1/GPa) = 0.03023380
#
# Stress axis : x y z
#
# Youngs Moduli (GPa) = 103.96430 80.38397 48.76119
#
# Poissons Ratio (x) = 0.04288 0.08235
# Poissons Ratio (y) = 0.05546 0.19234
# Poissons Ratio (z) = 0.17557 0.31707
#
# Static dielectric constant tensor:
#      x y z
#    x 1.766100 0.000000 0.000000 
#    y 0.000000 1.880020 0.000000 
#    z 0.000000 0.000000 1.747240 
# 
# From -- ./inp_files/25102.got.cif
#   From: 2010.05.17/outbox.cif.g08.bks.cpg/sg42_13_cif.got.tgz:25102.got - 2010.06.03 19:03:34.
