data_PCOD9369710
_publ_section_title
;
Structure prediction by ZEFSAII (Michael W. Deem and Ramdas Pophale) SiO2 
 PCOD9369710
Probable space group: F M M 2
;
_chemical_formula_sum "Si O2"
_cell_formula_units_Z 112
_cell_length_a 27.786924
_cell_length_b 13.982758
_cell_length_c 12.913606
_cell_angle_alpha 90.000000
_cell_angle_beta 90.000000
_cell_angle_gamma 90.000000
_cell_volume 5017.424503
_symmetry_space_group_name_H-M "F M M 2"
_symmetry_group_IT_number 42
_symmetry_cell_setting 'orthorhombic'
loop_
_space_group_symop_operation_xyz
x,y,z
-x,-y,z
-x,y,z
x,-y,z
x,1/2+y,1/2+z
-x,1/2-y,1/2+z
-x,1/2+y,1/2+z
x,1/2-y,1/2+z
1/2+x,y,1/2+z
1/2-x,-y,1/2+z
1/2-x,y,1/2+z
1/2+x,-y,1/2+z
1/2+x,1/2+y,z
1/2-x,1/2-y,z
1/2-x,1/2+y,z
1/2+x,1/2-y,z
loop_
_atom_site_type_symbol
_atom_site_label
_atom_site_fract_x
_atom_site_fract_y
_atom_site_fract_z
Si Si1 0.155333 0.385595 0.847340
Si Si2 0.554518 0.113863 0.364065
Si Si3 0.058316 0.391757 0.596798
Si Si4 0.053169 0.614999 0.942387
Si Si5 0.589420 0.693740 0.653056
Si Si6 0.190915 0.686948 0.058508
Si Si7 0.790513 0.113539 0.131608
O O1 0.152525 0.500000 0.847635
O O2 0.100868 0.352283 0.879464
O O3 0.181968 0.362007 0.739219
O O4 0.188791 0.352545 0.942561
O O5 0.500000 0.151071 0.360990
O O6 0.573788 0.131490 0.479001
O O7 0.580834 0.150749 0.264503
O O8 0.552131 0.000000 0.357166
O O9 0.073270 0.500000 0.625361
O O10 0.080537 0.306945 0.661056
O O11 0.000000 0.390104 0.600335
O O12 0.055873 0.500000 0.949050
O O13 0.000000 0.637309 0.897315
O O14 0.055795 0.656305 0.059126
O O15 0.641495 0.663622 0.614566
O O16 0.191995 0.802975 0.053902
O O17 0.233762 0.639496 0.125251
O O18 0.797667 0.000000 0.109509
#
# Coordination Sequence:
#
# PCOD9369710 Si02
#       7
#    16  16  16  16  16  16  16
#     4   9  19  38  63  89 122 160 195 244 305 355
#     4   9  18  33  54  82 116 155 201 249 292 340
#     4   9  19  35  53  77 115 162 206 244 288 351
#     4   9  17  30  53  87 122 157 198 240 289 354
#     4  11  20  32  56  86 119 155 196 249 305 354
#     4  10  23  38  60  91 120 148 195 253 305 360
#     4  10  22  42  64  84 113 155 199 244 300 363
#
# _framework density 22.322209999999998
#
# number of rings (size 3 to 8) (size 9 to 14) (size 15 to 20)
#    0.000    2.429    0.000    3.000    0.000    8.000 
#    0.000    0.000    0.000   10.286    0.000   10.000 
#    0.000    0.000    0.000    0.000    0.000    0.571 
#
# Total GULP energy -156333.592130 kJ/mol
# GULP energy per Si atom -5583.342576 kJ/mol
# Density = 2.227140 g / cm^3
# Si number density = 22.322210 Si / 1000 Ang^3
#
#
#
# Elastic Constant Matrix: (Units=GPa)
#
#
# Indices 1 2 3 4 5 6 
#
# 1 113.2718 11.8919 31.0920 0.0000 0.0000 0.0000
# 2 11.8919 54.4477 40.6443 0.0000 0.0000 0.0000
# 3 31.0920 40.6443 83.3090 0.0000 0.0000 0.0000
# 4 0.0000 0.0000 0.0000 37.5797 0.0000 0.0000
# 5 0.0000 0.0000 0.0000 0.0000 22.4475 0.0000
# 6 0.0000 0.0000 0.0000 0.0000 0.0000 18.9875
#
#
#
# Elastic Compliance Matrix: (Units=1/GPa)
#
#
# Indices 1 2 3 4 5 6 
#
# 1 0.009866 0.000934 -0.004138 0.000000 0.000000 0.000000
# 2 0.000934 0.028975 -0.014485 0.000000 0.000000 0.000000
# 3 -0.004138 -0.014485 0.020614 0.000000 0.000000 0.000000
# 4 0.000000 0.000000 0.000000 0.026610 0.000000 0.000000
# 5 0.000000 0.000000 0.000000 0.000000 0.044548 0.000000
# 6 0.000000 0.000000 0.000000 0.000000 0.000000 0.052666
#
#
# Mechanical properties :
#
#
# Convention : Reuss Voigt Hill
#
# Bulk Modulus (GPa) = 41.53100 46.47609 44.00355
# Shear Modulus (GPa) = 22.05723 26.96297 24.51010
#
# Velocity S-wave (km/s) = 3.14686 3.47925 3.31722
# Velocity P-wave (km/s) = 5.64352 6.08326 5.86751
#
# Compressibility (1/GPa) = 0.02407840
#
# Stress axis : x y z
#
# Youngs Moduli (GPa) = 101.35759 34.51277 48.50965
#
# Poissons Ratio (x) = -0.03223 0.20072
# Poissons Ratio (y) = -0.09466 0.70264
# Poissons Ratio (z) = 0.41940 0.49990
#
# Static dielectric constant tensor:
#      x y z
#    x 1.908680 0.000000 0.000000 
#    y 0.000000 1.833760 0.000000 
#    z 0.000000 0.000000 1.817650 
# 
# From -- ./inp_files/11102.got.cif
#   From: 2010.05.17/outbox.cif.g08.bks.cpg/sg42_6_cif.got.tgz:11102.got - 2010.06.03 19:03:34.
