data_PCOD9369355
_publ_section_title
;
Structure prediction by ZEFSAII (Michael W. Deem and Ramdas Pophale) SiO2 
 PCOD9369355
Probable space group: F M M 2
;
_chemical_formula_sum "Si O2"
_cell_formula_units_Z 96
_cell_length_a 18.274609
_cell_length_b 9.286530
_cell_length_c 31.686591
_cell_angle_alpha 90.000000
_cell_angle_beta 90.000000
_cell_angle_gamma 90.000000
_cell_volume 5377.458629
_symmetry_space_group_name_H-M "F M M 2"
_symmetry_group_IT_number 42
_symmetry_cell_setting 'orthorhombic'
loop_
_space_group_symop_operation_xyz
x,y,z
-x,-y,z
-x,y,z
x,-y,z
x,1/2+y,1/2+z
-x,1/2-y,1/2+z
-x,1/2+y,1/2+z
x,1/2-y,1/2+z
1/2+x,y,1/2+z
1/2-x,-y,1/2+z
1/2-x,y,1/2+z
1/2+x,-y,1/2+z
1/2+x,1/2+y,z
1/2-x,1/2-y,z
1/2-x,1/2+y,z
1/2+x,1/2-y,z
loop_
_atom_site_type_symbol
_atom_site_label
_atom_site_fract_x
_atom_site_fract_y
_atom_site_fract_z
Si Si1 0.172539 0.672669 0.792780
Si Si2 0.828056 0.172457 0.632541
Si Si3 0.086493 0.327907 0.877393
Si Si4 0.410880 0.665745 0.962023
Si Si5 0.413957 0.328944 0.546351
Si Si6 0.413223 0.329202 0.206866
O O1 0.182765 0.500000 0.793860
O O2 0.250000 0.750000 0.789478
O O3 0.131025 0.714421 0.835805
O O4 0.123467 0.705133 0.751833
O O5 0.750000 0.250000 0.633688
O O6 0.868172 0.203658 0.588154
O O7 0.876549 0.235522 0.670408
O O8 0.820258 0.000000 0.636590
O O9 0.093325 0.500000 0.883344
O O10 0.112131 0.247511 0.919583
O O11 0.000000 0.297515 0.871043
O O12 0.500000 0.670142 0.962104
O O13 0.387862 0.500000 0.961464
O O14 0.387891 0.743927 0.005054
O O15 0.500000 0.295020 0.553676
O O16 0.409303 0.500000 0.538063
O O17 0.500000 0.305458 0.208626
O O18 0.400835 0.500000 0.198556
#
# Coordination Sequence:
#
# PCOD9369355 Si02
#       6
#    16  16  16  16  16  16
#     4  10  21  36  54  78 108 142 178 216 262 316
#     4  11  23  38  56  80 111 145 181 221 268 322
#     4   9  17  32  54  76 101 137 179 219 260 310
#     4   9  17  29  49  79 109 134 168 218 269 313
#     4   9  18  34  55  77 103 138 179 220 263 315
#     4  10  21  38  60  84 109 139 178 223 269 319
#
# _framework density 17.8523
#
# number of rings (size 3 to 8) (size 9 to 14) (size 15 to 20)
#    0.000    2.333    0.000    2.500    0.000    9.000 
#    0.000    2.500    0.000    3.000    0.000    0.000 
#    0.000    0.000    0.000    0.000    0.000    0.000 
#
# Total GULP energy -133968.864099 kJ/mol
# GULP energy per Si atom -5582.036004 kJ/mol
# Density = 1.781167 g / cm^3
# Si number density = 17.852300 Si / 1000 Ang^3
#
#
#
# Elastic Constant Matrix: (Units=GPa)
#
#
# Indices 1 2 3 4 5 6 
#
# 1 96.1523 61.4793 85.6075 0.0000 0.0000 0.0000
# 2 61.4793 66.2272 95.1339 0.0000 0.0000 0.0000
# 3 85.6075 95.1339 197.0885 0.0000 0.0000 0.0000
# 4 0.0000 0.0000 0.0000 32.3047 0.0000 0.0000
# 5 0.0000 0.0000 0.0000 0.0000 -14.8313 0.0000
# 6 0.0000 0.0000 0.0000 0.0000 0.0000 24.2795
#
#
#
# Elastic Compliance Matrix: (Units=1/GPa)
#
#
# Indices 1 2 3 4 5 6 
#
# 1 0.025668 -0.025479 0.001149 0.000000 0.000000 0.000000
# 2 -0.025479 0.074537 -0.024912 0.000000 0.000000 0.000000
# 3 0.001149 -0.024912 0.016599 0.000000 0.000000 0.000000
# 4 0.000000 0.000000 0.000000 0.030955 0.000000 0.000000
# 5 0.000000 0.000000 0.000000 0.000000 -0.067425 0.000000
# 6 0.000000 0.000000 0.000000 0.000000 0.000000 0.041187
#
#
# Mechanical properties :
#
#
# Convention : Reuss Voigt Hill
#
# Bulk Modulus (GPa) = 54.57944 93.76773 74.17358
# Shear Modulus (GPa) = 22.11308 16.16707 19.14007
#
# Velocity S-wave (km/s) = 3.52329 3.01259 3.27790
# Velocity P-wave (km/s) = 6.86954 8.04606 7.48097
#
# Compressibility (1/GPa) = 0.01832192
#
# Stress axis : x y z
#
# Youngs Moduli (GPa) = 38.95935 13.41620 60.24331
#
# Poissons Ratio (x) = 0.34183 -0.06925
# Poissons Ratio (y) = 0.99264 1.50076
# Poissons Ratio (z) = -0.04478 0.33422
#
# Static dielectric constant tensor:
#      x y z
#    x 1.586730 0.000000 0.000000 
#    y 0.000000 1.596580 0.000000 
#    z 0.000000 0.000000 1.586780 
# 
# From -- ./inp_files/31440.got.cif
#   From: 2010.05.17/outbox.cif.g08.bks.cpg/sg42_16_cif.got.tgz:31440.got - 2010.06.03 19:03:34.
