data_PCOD9369906
_publ_section_title
;
Structure prediction by ZEFSAII (Michael W. Deem and Ramdas Pophale) SiO2 
 PCOD9369906
Probable space group: F M M 2
;
_chemical_formula_sum "Si O2"
_cell_formula_units_Z 52
_cell_length_a 27.976237
_cell_length_b 7.778992
_cell_length_c 9.797475
_cell_angle_alpha 90.000000
_cell_angle_beta 90.000000
_cell_angle_gamma 90.000000
_cell_volume 2132.194345
_symmetry_space_group_name_H-M "F M M 2"
_symmetry_group_IT_number 42
_symmetry_cell_setting 'orthorhombic'
loop_
_space_group_symop_operation_xyz
x,y,z
-x,-y,z
-x,y,z
x,-y,z
x,1/2+y,1/2+z
-x,1/2-y,1/2+z
-x,1/2+y,1/2+z
x,1/2-y,1/2+z
1/2+x,y,1/2+z
1/2-x,-y,1/2+z
1/2-x,y,1/2+z
1/2+x,-y,1/2+z
1/2+x,1/2+y,z
1/2-x,1/2-y,z
1/2-x,1/2+y,z
1/2+x,1/2-y,z
loop_
_atom_site_type_symbol
_atom_site_label
_atom_site_fract_x
_atom_site_fract_y
_atom_site_fract_z
Si Si1 0.949102 0.311032 0.959810
Si Si2 0.000000 0.500000 0.335177
Si Si3 0.361538 0.699291 0.137304
Si Si4 0.803589 0.705662 0.890387
O O1 0.945288 0.500000 0.893903
O O2 0.905295 0.287915 0.060711
O O3 0.000000 0.313715 0.042113
O O4 0.958687 0.153454 0.858411
O O5 0.374126 0.500000 0.151903
O O6 0.316563 0.715395 0.035555
O O7 0.343103 0.767399 0.281668
O O8 0.807725 0.500000 0.899303
O O9 0.750000 0.750000 0.847824
#
# Coordination Sequence:
#
# PCOD9369906 Si02
#       4
#    16   4  16  16
#     4   9  17  32  59  89 124 163 205 252 309 368
#     4   8  14  32  56  86 128 158 210 248 304 368
#     4  11  22  41  64  90 125 164 204 259 313 368
#     4  11  25  41  62  90 122 161 210 260 312 373
#
# _framework density 24.388020000000001
#
# number of rings (size 3 to 8) (size 9 to 14) (size 15 to 20)
#    0.923    0.923    1.538    2.769    0.000    7.385 
#    0.000    1.538    0.000    1.846    0.000    0.000 
#    0.000    0.000    0.000    0.000    0.000    0.000 
#
# Total GULP energy -72400.439420 kJ/mol
# GULP energy per Si atom -5569.264571 kJ/mol
# Density = 2.433251 g / cm^3
# Si number density = 24.388020 Si / 1000 Ang^3
#
#
#
# Elastic Constant Matrix: (Units=GPa)
#
#
# Indices 1 2 3 4 5 6 
#
# 1 118.3886 13.6917 11.8898 0.0000 0.0000 0.0000
# 2 13.6917 148.0979 8.5093 0.0000 0.0000 0.0000
# 3 11.8898 8.5093 81.0475 0.0000 0.0000 0.0000
# 4 0.0000 0.0000 0.0000 -3.8704 0.0000 0.0000
# 5 0.0000 0.0000 0.0000 0.0000 33.3268 0.0000
# 6 0.0000 0.0000 0.0000 0.0000 0.0000 38.1971
#
#
#
# Elastic Compliance Matrix: (Units=1/GPa)
#
#
# Indices 1 2 3 4 5 6 
#
# 1 0.008651 -0.000731 -0.001192 0.000000 0.000000 0.000000
# 2 -0.000731 0.006855 -0.000612 0.000000 0.000000 0.000000
# 3 -0.001192 -0.000612 0.012578 0.000000 0.000000 0.000000
# 4 0.000000 0.000000 0.000000 -0.258371 0.000000 0.000000
# 5 0.000000 0.000000 0.000000 0.000000 0.030006 0.000000
# 6 0.000000 0.000000 0.000000 0.000000 0.000000 0.026180
#
#
# Mechanical properties :
#
#
# Convention : Reuss Voigt Hill
#
# Bulk Modulus (GPa) = 43.45621 46.19061 44.82341
# Shear Modulus (GPa) = -30.98689 34.42690 1.72000
#
# Velocity S-wave (km/s) = -3.56838 3.76124 0.84071
# Velocity P-wave (km/s) = 0.93783 6.15172 4.40018
#
# Compressibility (1/GPa) = 0.02301167
#
# Stress axis : x y z
#
# Youngs Moduli (GPa) = 115.59247 145.87702 79.50603
#
# Poissons Ratio (x) = 0.10668 0.09480
# Poissons Ratio (y) = 0.08453 0.04869
# Poissons Ratio (z) = 0.13783 0.08934
#
# Static dielectric constant tensor:
#      x y z
#    x 1.988240 0.000000 0.000000 
#    y 0.000000 1.910220 0.000000 
#    z 0.000000 0.000000 1.946230 
# 
# From -- ./inp_files/6098.got.cif
#   From: 2010.05.17/outbox.cif.g08.bks.cpg/sg42_4_cif.got.tgz:6098.got - 2010.06.03 19:03:34.
