data_PCOD9369930
_publ_section_title
;
Structure prediction by ZEFSAII (Michael W. Deem and Ramdas Pophale) SiO2 
 PCOD9369930
Probable space group: F M M 2
;
_chemical_formula_sum "Si O2"
_cell_formula_units_Z 116
_cell_length_a 14.846156
_cell_length_b 23.833834
_cell_length_c 14.197196
_cell_angle_alpha 90.000000
_cell_angle_beta 90.000000
_cell_angle_gamma 90.000000
_cell_volume 5023.547441
_symmetry_space_group_name_H-M "F M M 2"
_symmetry_group_IT_number 42
_symmetry_cell_setting 'orthorhombic'
loop_
_space_group_symop_operation_xyz
x,y,z
-x,-y,z
-x,y,z
x,-y,z
x,1/2+y,1/2+z
-x,1/2-y,1/2+z
-x,1/2+y,1/2+z
x,1/2-y,1/2+z
1/2+x,y,1/2+z
1/2-x,-y,1/2+z
1/2-x,y,1/2+z
1/2+x,-y,1/2+z
1/2+x,1/2+y,z
1/2-x,1/2-y,z
1/2-x,1/2+y,z
1/2+x,1/2-y,z
loop_
_atom_site_type_symbol
_atom_site_label
_atom_site_fract_x
_atom_site_fract_y
_atom_site_fract_z
Si Si1 0.000000 0.000000 0.704090
Si Si2 0.150465 0.059215 0.291541
Si Si3 0.896655 0.207873 0.708490
Si Si4 0.714992 0.607097 0.471639
Si Si5 0.395928 0.173972 0.700698
Si Si6 0.101725 0.784357 0.479041
Si Si7 0.606400 0.843741 0.485838
Si Si8 0.332228 0.586363 0.689143
O O1 0.920748 0.950717 0.702114
O O2 0.166093 0.064762 0.402195
O O3 0.107255 0.117184 0.258280
O O4 0.247394 0.060979 0.242022
O O5 0.105826 0.000000 0.267126
O O6 0.857496 0.267955 0.741522
O O7 0.898205 0.214626 0.593876
O O8 0.845034 0.150316 0.726295
O O9 0.000000 0.199586 0.741552
O O10 0.673562 0.668991 0.452051
O O11 0.821248 0.612190 0.448116
O O12 0.691566 0.590834 0.578217
O O13 0.500000 0.189097 0.686453
O O14 0.362878 0.160842 0.595627
O O15 0.116838 0.719973 0.448953
O O16 0.000000 0.800344 0.448340
O O17 0.500000 0.858525 0.479627
#
# Coordination Sequence:
#
# PCOD9369930 Si02
#       8
#     4  16  16  16  16  16  16  16
#     4  12  24  44  76 100 126 186 218 276 348 404
#     4  12  27  44  61  93 132 177 225 276 332 396
#     4   8  15  33  64  96 123 163 213 261 325 393
#     4  11  23  40  65  94 131 175 226 277 329 401
#     4   9  19  40  66  93 128 167 210 268 333 397
#     4   8  16  32  60  95 132 166 208 269 340 400
#     4   9  17  37  66  93 126 172 216 268 336 401
#     4  11  23  44  70  95 132 174 225 277 332 399
#
# _framework density 23.091252999999998
#
# number of rings (size 3 to 8) (size 9 to 14) (size 15 to 20)
#    0.000    2.207    2.759    2.069    1.931    1.379 
#    6.207    0.000    0.000    0.000    0.000    0.000 
#    0.000    0.000    0.000    0.000    0.000    0.000 
#
# Total GULP energy -161722.679104 kJ/mol
# GULP energy per Si atom -5576.644107 kJ/mol
# Density = 2.303870 g / cm^3
# Si number density = 23.091253 Si / 1000 Ang^3
#
#
#
# Elastic Constant Matrix: (Units=GPa)
#
#
# Indices 1 2 3 4 5 6 
#
# 1 77.6275 18.5299 -8.1661 0.0000 0.0000 0.0000
# 2 18.5299 151.1612 14.9637 0.0000 0.0000 0.0000
# 3 -8.1661 14.9637 57.9926 0.0000 0.0000 0.0000
# 4 0.0000 0.0000 0.0000 -265.6150 0.0000 0.0000
# 5 0.0000 0.0000 0.0000 0.0000 -4.0608 0.0000
# 6 0.0000 0.0000 0.0000 0.0000 0.0000 23.0595
#
#
#
# Elastic Compliance Matrix: (Units=1/GPa)
#
#
# Indices 1 2 3 4 5 6 
#
# 1 0.013589 -0.001904 0.002405 0.000000 0.000000 0.000000
# 2 -0.001904 0.007056 -0.002089 0.000000 0.000000 0.000000
# 3 0.002405 -0.002089 0.018121 0.000000 0.000000 0.000000
# 4 0.000000 0.000000 0.000000 -0.003765 0.000000 0.000000
# 5 0.000000 0.000000 0.000000 0.000000 -0.246256 0.000000
# 6 0.000000 0.000000 0.000000 0.000000 0.000000 0.043366
#
#
# Mechanical properties :
#
#
# Convention : Reuss Voigt Hill
#
# Bulk Modulus (GPa) = 28.09715 37.49293 32.79504
# Shear Modulus (GPa) = -32.71195 -31.89302 -32.30249
#
# Velocity S-wave (km/s) = -3.76791 -3.72045 -3.74425
# Velocity P-wave (km/s) = 2.59523 1.47767 2.11172
#
# Compressibility (1/GPa) = 0.03559080
#
# Stress axis : x y z
#
# Youngs Moduli (GPa) = 73.58634 141.73131 55.18412
#
# Poissons Ratio (x) = 0.26984 -0.13271
# Poissons Ratio (y) = 0.14010 0.11526
# Poissons Ratio (z) = -0.17696 0.29603
#
# Static dielectric constant tensor:
#      x y z
#    x 1.857130 0.000000 0.000000 
#    y 0.000000 2.006120 0.000000 
#    z 0.000000 0.000000 1.907870 
# 
# From -- ./inp_files/20302.got.cif
#   From: 2010.05.17/outbox.cif.g08.bks.cpg/sg42_11_cif.got.tgz:20302.got - 2010.06.03 19:03:34.
