data_PCOD9369189
_publ_section_title
;
Structure prediction by ZEFSAII (Michael W. Deem and Ramdas Pophale) SiO2 
 PCOD9369189
Probable space group: F M M 2
;
_chemical_formula_sum "Si O2"
_cell_formula_units_Z 96
_cell_length_a 16.364734
_cell_length_b 10.976311
_cell_length_c 29.071452
_cell_angle_alpha 90.000000
_cell_angle_beta 90.000000
_cell_angle_gamma 90.000000
_cell_volume 5221.942408
_symmetry_space_group_name_H-M "F M M 2"
_symmetry_group_IT_number 42
_symmetry_cell_setting 'orthorhombic'
loop_
_space_group_symop_operation_xyz
x,y,z
-x,-y,z
-x,y,z
x,-y,z
x,1/2+y,1/2+z
-x,1/2-y,1/2+z
-x,1/2+y,1/2+z
x,1/2-y,1/2+z
1/2+x,y,1/2+z
1/2-x,-y,1/2+z
1/2-x,y,1/2+z
1/2+x,-y,1/2+z
1/2+x,1/2+y,z
1/2-x,1/2-y,z
1/2-x,1/2+y,z
1/2+x,1/2-y,z
loop_
_atom_site_type_symbol
_atom_site_label
_atom_site_fract_x
_atom_site_fract_y
_atom_site_fract_z
Si Si1 0.903076 0.000000 0.375000
Si Si2 0.906767 0.500000 0.067775
Si Si3 0.907059 0.141512 0.909410
Si Si4 0.177507 0.000000 0.476256
Si Si5 0.847299 0.243259 0.323490
Si Si6 0.250000 0.250000 0.959887
Si Si7 0.097098 0.139998 0.732571
Si Si8 0.692537 0.635515 0.637439
O O1 0.879000 0.882886 0.344818
O O2 0.853883 0.000000 0.423399
O O3 0.000000 0.000000 0.384204
O O4 0.863506 0.385885 0.092709
O O5 0.000000 0.500000 0.080731
O O6 0.893865 0.500000 0.013587
O O7 0.891820 0.156004 0.855040
O O8 0.832865 0.217278 0.931710
O O9 0.000000 0.183150 0.920368
O O10 0.899814 0.000000 0.922574
O O11 0.228640 0.876558 0.484640
O O12 0.750000 0.250000 0.329282
O O13 0.869307 0.268294 0.270841
O O14 0.138757 0.155683 0.683059
O O15 0.000000 0.153396 0.728556
O O16 0.114719 0.000000 0.747250
O O17 0.732962 0.500000 0.643186
O O18 0.750000 0.750000 0.631561
#
# Coordination Sequence:
#
# PCOD9369189 Si02
#       8
#     8   8  16   8  16   8  16  16
#     4  12  25  40  55  84 128 168 210 265 315 374
#     4  10  23  42  73 100 126 166 216 266 321 387
#     4  11  22  38  60  86 122 170 216 263 320 379
#     4  12  25  40  69  92 128 168 222 259 328 379
#     4  12  24  36  57  83 124 166 216 263 316 376
#     4  12  24  42  64  94 128 168 212 276 322 378
#     4  10  20  37  62  88 120 165 214 257 309 383
#     4   9  20  39  67  97 129 159 204 264 324 380
#
# _framework density 18.383963999999999
#
# number of rings (size 3 to 8) (size 9 to 14) (size 15 to 20)
#    0.500    0.667    3.333    3.250    3.500    2.000 
#    1.500    0.000    0.000    1.500    0.000    0.000 
#    0.000    0.000    0.000    0.000    0.000    0.000 
#
# Total GULP energy -133834.805680 kJ/mol
# GULP energy per Si atom -5576.450237 kJ/mol
# Density = 1.834212 g / cm^3
# Si number density = 18.383964 Si / 1000 Ang^3
#
#
#
# Elastic Constant Matrix: (Units=GPa)
#
#
# Indices 1 2 3 4 5 6 
#
# 1 113.1983 51.8854 19.2590 0.0000 0.0000 0.0000
# 2 51.8854 111.4574 32.4177 0.0000 0.0000 0.0000
# 3 19.2590 32.4177 69.6521 0.0000 0.0000 0.0000
# 4 0.0000 0.0000 0.0000 13.4271 0.0000 0.0000
# 5 0.0000 0.0000 0.0000 0.0000 22.7453 0.0000
# 6 0.0000 0.0000 0.0000 0.0000 0.0000 24.4174
#
#
#
# Elastic Compliance Matrix: (Units=1/GPa)
#
#
# Indices 1 2 3 4 5 6 
#
# 1 0.011267 -0.005018 -0.000780 0.000000 0.000000 0.000000
# 2 -0.005018 0.012612 -0.004482 0.000000 0.000000 0.000000
# 3 -0.000780 -0.004482 0.016659 0.000000 0.000000 0.000000
# 4 0.000000 0.000000 0.000000 0.074476 0.000000 0.000000
# 5 0.000000 0.000000 0.000000 0.000000 0.043965 0.000000
# 6 0.000000 0.000000 0.000000 0.000000 0.000000 0.040954
#
#
# Mechanical properties :
#
#
# Convention : Reuss Voigt Hill
#
# Bulk Modulus (GPa) = 50.05735 55.71468 52.88602
# Shear Modulus (GPa) = 22.01163 24.83433 23.42298
#
# Velocity S-wave (km/s) = 3.46400 3.67940 3.57332
# Velocity P-wave (km/s) = 6.57928 6.95864 6.77162
#
# Compressibility (1/GPa) = 0.01997708
#
# Stress axis : x y z
#
# Youngs Moduli (GPa) = 88.75619 79.29117 60.02828
#
# Poissons Ratio (x) = 0.39789 0.04681
# Poissons Ratio (y) = 0.44539 0.26906
# Poissons Ratio (z) = 0.06921 0.35540
#
# Static dielectric constant tensor:
#      x y z
#    x 1.642060 0.000000 0.000000 
#    y 0.000000 1.670120 0.000000 
#    z 0.000000 0.000000 1.622510 
# 
# From -- ./inp_files/34299.got.cif
#   From: 2010.05.17/outbox.cif.g08.bks.cpg/sg42_18_cif.got.tgz:34299.got - 2010.06.03 19:03:34.
