data_PCOD9369993
_publ_section_title
;
Structure prediction by ZEFSAII (Michael W. Deem and Ramdas Pophale) SiO2 
 PCOD9369993
Probable space group: F M M 2
;
_chemical_formula_sum "Si O2"
_cell_formula_units_Z 25
_cell_length_a 30.000000
_cell_length_b 9.000000
_cell_length_c 21.000000
_cell_angle_alpha 90.000000
_cell_angle_beta 90.000000
_cell_angle_gamma 90.000000
_cell_volume 5670.000000
_symmetry_space_group_name_H-M "F M M 2"
_symmetry_group_IT_number 42
_symmetry_cell_setting 'orthorhombic'
loop_
_space_group_symop_operation_xyz
x,y,z
-x,-y,z
-x,y,z
x,-y,z
x,1/2+y,1/2+z
-x,1/2-y,1/2+z
-x,1/2+y,1/2+z
x,1/2-y,1/2+z
1/2+x,y,1/2+z
1/2-x,-y,1/2+z
1/2-x,y,1/2+z
1/2+x,-y,1/2+z
1/2+x,1/2+y,z
1/2-x,1/2-y,z
1/2-x,1/2+y,z
1/2+x,1/2-y,z
loop_
_atom_site_type_symbol
_atom_site_label
_atom_site_fract_x
_atom_site_fract_y
_atom_site_fract_z
Si Si1 0.668399 0.679158 0.799090
Si Si2 0.798734 0.819982 0.165115
Si Si3 0.417601 0.665895 0.348337
Si Si4 0.703461 0.678718 0.429711
Si Si5 0.643417 0.822200 0.538583
Si Si6 0.551487 0.177853 0.479039
Si Si7 0.500000 0.000000 0.798757
O O1 0.673319 0.500000 0.798764
O O2 0.684774 0.749047 0.732134
O O3 0.617653 0.729787 0.813393
O O4 0.693632 0.751023 0.860034
O O5 0.750000 0.750000 0.150961
O O6 0.832874 0.787879 0.106301
O O7 0.795570 0.000000 0.171363
O O8 0.397083 0.500000 0.361406
O O9 0.434186 0.736489 0.414727
O O10 0.460571 0.627157 0.306057
O O11 0.705853 0.500000 0.426869
O O12 0.750000 0.750000 0.451804
O O13 0.666911 0.733545 0.480961
O O14 0.590179 0.792794 0.531464
O O15 0.649750 0.000000 0.527911
O O16 0.500000 0.217047 0.495628
O O17 0.552464 0.000000 0.466946
#
# Coordination Sequence:
#
# PCOD9369993 Si02
#       7
#    16  16  16  16  16  16   4
#     4  12  24  39  61  88 122 160 205 253 308 368
#     4  11  24  43  63  85 121 165 210 254 309 372
#     4  10  18  34  55  88 120 157 195 247 299 358
#     4  12  24  38  59  89 122 157 198 252 309 366
#     4  10  22  39  61  89 124 162 204 251 304 365
#     4  10  18  32  58  90 124 159 201 247 300 359
#     4   8  20  32  58  88 132 148 210 240 310 364
#
# _framework density 4.4091709999999997
#
# number of rings (size 3 to 8) (size 9 to 14) (size 15 to 20)
#    0.480    0.800    2.400    4.800    0.000    2.560 
#    0.000    0.000    1.760    0.000    0.000    0.000 
#    0.000    0.000    0.000    0.000    0.000    0.000 
#
# Total GULP energy -139226.566321 kJ/mol
# GULP energy per Si atom -5569.062653 kJ/mol
# Density = 0.439914 g / cm^3
# Si number density = 4.409171 Si / 1000 Ang^3
#
#
#
# Elastic Constant Matrix: (Units=GPa)
#
#
# Indices 1 2 3 4 5 6 
#
# 1 141.5698 45.0064 46.6633 0.0000 0.0000 0.0000
# 2 45.0064 120.2284 48.7253 0.0000 0.0000 0.0000
# 3 46.6633 48.7253 108.4191 0.0000 0.0000 0.0000
# 4 0.0000 0.0000 0.0000 27.7019 0.0000 0.0000
# 5 0.0000 0.0000 0.0000 0.0000 27.3453 0.0000
# 6 0.0000 0.0000 0.0000 0.0000 0.0000 34.3703
#
#
#
# Elastic Compliance Matrix: (Units=1/GPa)
#
#
# Indices 1 2 3 4 5 6 
#
# 1 0.008650 -0.002114 -0.002773 0.000000 0.000000 0.000000
# 2 -0.002114 0.010687 -0.003893 0.000000 0.000000 0.000000
# 3 -0.002773 -0.003893 0.012166 0.000000 0.000000 0.000000
# 4 0.000000 0.000000 0.000000 0.036099 0.000000 0.000000
# 5 0.000000 0.000000 0.000000 0.000000 0.036569 0.000000
# 6 0.000000 0.000000 0.000000 0.000000 0.000000 0.029095
#
#
# Mechanical properties :
#
#
# Convention : Reuss Voigt Hill
#
# Bulk Modulus (GPa) = 71.71922 72.33415 72.02668
# Shear Modulus (GPa) = 32.16005 33.20499 32.68252
#
# Velocity S-wave (km/s) = 4.27485 4.34374 4.30943
# Velocity P-wave (km/s) = 8.06963 8.14002 8.10490
#
# Compressibility (1/GPa) = 0.01394326
#
# Stress axis : x y z
#
# Youngs Moduli (GPa) = 115.61104 93.57519 82.19456
#
# Poissons Ratio (x) = 0.19784 0.22789
# Poissons Ratio (y) = 0.24443 0.31996
# Poissons Ratio (z) = 0.32054 0.36427
#
# Static dielectric constant tensor:
#      x y z
#    x 1.646480 0.000000 0.000000 
#    y 0.000000 1.597100 0.000000 
#    z 0.000000 0.000000 1.577670 
# 
# From -- ./inp_files/27326.got.cif
#   From: 2010.05.17/outbox.ucp.g08.bks.cvg/sg42_14_cif.got.tgz:27326.got - 2010.06.11 16:29:10.
