data_PCOD9369687
_publ_section_title
;
Structure prediction by ZEFSAII (Michael W. Deem and Ramdas Pophale) SiO2 
 PCOD9369687
Probable space group: F M M 2
;
_chemical_formula_sum "Si O2"
_cell_formula_units_Z 96
_cell_length_a 23.649402
_cell_length_b 19.294732
_cell_length_c 9.922361
_cell_angle_alpha 90.000000
_cell_angle_beta 90.000000
_cell_angle_gamma 90.000000
_cell_volume 4527.661371
_symmetry_space_group_name_H-M "F M M 2"
_symmetry_group_IT_number 42
_symmetry_cell_setting 'orthorhombic'
loop_
_space_group_symop_operation_xyz
x,y,z
-x,-y,z
-x,y,z
x,-y,z
x,1/2+y,1/2+z
-x,1/2-y,1/2+z
-x,1/2+y,1/2+z
x,1/2-y,1/2+z
1/2+x,y,1/2+z
1/2-x,-y,1/2+z
1/2-x,y,1/2+z
1/2+x,-y,1/2+z
1/2+x,1/2+y,z
1/2-x,1/2-y,z
1/2-x,1/2+y,z
1/2+x,1/2-y,z
loop_
_atom_site_type_symbol
_atom_site_label
_atom_site_fract_x
_atom_site_fract_y
_atom_site_fract_z
Si Si1 0.589416 0.421904 0.385320
Si Si2 0.432417 0.300863 0.867720
Si Si3 0.276464 0.420066 0.429410
Si Si4 0.262475 0.668013 0.177058
Si Si5 0.604757 0.818042 0.671172
Si Si6 0.066790 0.422503 0.181501
O O1 0.567028 0.500000 0.381621
O O2 0.657381 0.424241 0.392280
O O3 0.574176 0.380316 0.251523
O O4 0.572818 0.391175 0.531058
O O5 0.500000 0.292328 0.845664
O O6 0.400426 0.243156 0.780574
O O7 0.412745 0.373065 0.799948
O O8 0.420620 0.299424 0.026523
O O9 0.255780 0.500000 0.440467
O O10 0.248815 0.372951 0.313942
O O11 0.269600 0.375137 0.563255
O O12 0.250000 0.750000 0.182211
O O13 0.329689 0.663480 0.149467
O O14 0.092550 0.500000 0.180750
O O15 0.000000 0.429428 0.203599
#
# Coordination Sequence:
#
# PCOD9369687 Si02
#       6
#    16  16  16  16  16  16
#     4   9  20  39  61  89 123 162 206 254 312 374
#     4  11  24  41  62  89 123 163 208 259 315 377
#     4  10  22  41  62  89 126 170 212 256 310 380
#     4  11  25  39  64  92 128 163 208 262 315 370
#     4  11  25  39  63  88 125 159 208 255 313 371
#     4   9  19  37  62  90 121 159 206 256 308 370
#
# _framework density 21.202998000000001
#
# number of rings (size 3 to 8) (size 9 to 14) (size 15 to 20)
#    0.000    1.833    0.000    2.500    9.333    4.000 
#    0.000    1.667    0.000    0.000    0.000    0.000 
#    0.000    0.000    0.000    0.000    0.000    0.000 
#
# Total GULP energy -133967.100955 kJ/mol
# GULP energy per Si atom -5581.962540 kJ/mol
# Density = 2.115474 g / cm^3
# Si number density = 21.202998 Si / 1000 Ang^3
#
#
#
# Elastic Constant Matrix: (Units=GPa)
#
#
# Indices 1 2 3 4 5 6 
#
# 1 24.4712 -6.1573 -19.4185 -0.0001 0.0000 0.0000
# 2 -6.1573 116.0429 47.2924 -0.0001 0.0000 0.0000
# 3 -19.4185 47.2924 130.8291 -0.0002 0.0000 0.0000
# 4 -0.0001 -0.0001 -0.0002 127.6661 0.0000 0.0000
# 5 0.0000 0.0000 0.0000 0.0000 12.6312 0.0000
# 6 0.0000 0.0000 0.0000 0.0000 0.0000 16.0713
#
#
#
# Elastic Compliance Matrix: (Units=1/GPa)
#
#
# Indices 1 2 3 4 5 6 
#
# 1 0.046336 -0.000404 0.007023 0.000000 0.000000 0.000000
# 2 -0.000404 0.010110 -0.003714 0.000000 0.000000 0.000000
# 3 0.007023 -0.003714 0.010029 0.000000 0.000000 0.000000
# 4 0.000000 0.000000 0.000000 0.007833 0.000000 0.000000
# 5 0.000000 0.000000 0.000000 0.000000 0.079169 0.000000
# 6 0.000000 0.000000 0.000000 0.000000 0.000000 0.062223
#
#
# Mechanical properties :
#
#
# Convention : Reuss Voigt Hill
#
# Bulk Modulus (GPa) = 13.83412 34.97518 24.40465
# Shear Modulus (GPa) = 21.36898 47.91548 34.64223
#
# Velocity S-wave (km/s) = 3.17807 4.75894 4.04646
# Velocity P-wave (km/s) = 4.47277 6.83578 5.77640
#
# Compressibility (1/GPa) = 0.07228505
#
# Stress axis : x y z
#
# Youngs Moduli (GPa) = 21.58148 98.91305 99.71350
#
# Poissons Ratio (x) = 0.03994 -0.70033
# Poissons Ratio (y) = 0.00871 0.37038
# Poissons Ratio (z) = -0.15158 0.36741
#
# Static dielectric constant tensor:
#      x y z
#    x 1.764840 0.000000 0.000000 
#    y 0.000000 1.799890 0.000000 
#    z 0.000000 0.000000 1.766170 
# 
# From -- ./inp_files/4147.got.cif
#   From: 2010.05.17/outbox.cif.g08.bks.cpg/sg42_3_cif.got.tgz:4147.got - 2010.06.03 19:03:34.
