data_PCOD9369227
_publ_section_title
;
Structure prediction by ZEFSAII (Michael W. Deem and Ramdas Pophale) SiO2 
 PCOD9369227
Probable space group: F M M 2
;
_chemical_formula_sum "Si O2"
_cell_formula_units_Z 104
_cell_length_a 20.407423
_cell_length_b 9.558282
_cell_length_c 27.346629
_cell_angle_alpha 90.000000
_cell_angle_beta 90.000000
_cell_angle_gamma 90.000000
_cell_volume 5334.230825
_symmetry_space_group_name_H-M "F M M 2"
_symmetry_group_IT_number 42
_symmetry_cell_setting 'orthorhombic'
loop_
_space_group_symop_operation_xyz
x,y,z
-x,-y,z
-x,y,z
x,-y,z
x,1/2+y,1/2+z
-x,1/2-y,1/2+z
-x,1/2+y,1/2+z
x,1/2-y,1/2+z
1/2+x,y,1/2+z
1/2-x,-y,1/2+z
1/2-x,y,1/2+z
1/2+x,-y,1/2+z
1/2+x,1/2+y,z
1/2-x,1/2-y,z
1/2-x,1/2+y,z
1/2+x,1/2-y,z
loop_
_atom_site_type_symbol
_atom_site_label
_atom_site_fract_x
_atom_site_fract_y
_atom_site_fract_z
Si Si1 0.310434 0.843763 0.797650
Si Si2 0.272082 0.500000 0.178264
Si Si3 0.077213 0.665505 0.465563
Si Si4 0.576302 0.158364 0.257527
Si Si5 0.187477 0.660074 0.915108
Si Si6 0.151341 0.217479 0.663556
Si Si7 0.576517 0.663064 0.564557
O O1 0.250000 0.750000 0.780252
O O2 0.377445 0.770065 0.783621
O O3 0.307415 0.850084 0.856278
O O4 0.302350 0.000000 0.776101
O O5 0.213030 0.618977 0.174198
O O6 0.327561 0.624695 0.174126
O O7 0.093010 0.500000 0.464787
O O8 0.123095 0.753966 0.429596
O O9 0.087656 0.734116 0.518859
O O10 0.000000 0.680533 0.453653
O O11 0.500000 0.181170 0.266724
O O12 0.593848 0.172129 0.200650
O O13 0.593575 0.000000 0.273797
O O14 0.187142 0.500000 0.933851
O O15 0.250000 0.750000 0.932635
O O16 0.124860 0.197372 0.608768
O O17 0.500000 0.678781 0.579313
O O18 0.585461 0.500000 0.549831
#
# Coordination Sequence:
#
# PCOD9369227 Si02
#       7
#    16   8  16  16  16  16  16
#     4  10  23  40  64  89 120 156 197 244 300 358
#     4  10  24  38  60  84 118 154 206 244 300 350
#     4  10  22  39  61  89 121 158 200 245 296 355
#     4  11  24  40  61  89 121 160 203 246 294 349
#     4  10  21  41  63  90 119 155 196 245 300 357
#     4  11  22  41  58  87 118 159 200 248 292 352
#     4  10  20  38  61  83 115 159 200 244 296 352
#
# _framework density 19.496718000000001
#
# number of rings (size 3 to 8) (size 9 to 14) (size 15 to 20)
#    0.000    1.692    1.538    1.846    4.308    4.923 
#    2.769    3.846    0.000    0.000    0.000    0.000 
#    0.000    0.000    0.000    0.000    0.000    0.000 
#
# Total GULP energy -144751.694696 kJ/mol
# GULP energy per Si atom -5567.372873 kJ/mol
# Density = 1.945234 g / cm^3
# Si number density = 19.496718 Si / 1000 Ang^3
#
#
#
# Elastic Constant Matrix: (Units=GPa)
#
#
# Indices 1 2 3 4 5 6 
#
# 1 72.8422 66.5762 4.8984 0.0000 0.0000 0.0000
# 2 66.5762 212.1622 17.5910 0.0000 0.0000 0.0000
# 3 4.8984 17.5910 16.7678 0.0000 0.0000 0.0000
# 4 0.0000 0.0000 0.0000 21.8637 0.0000 0.0000
# 5 0.0000 0.0000 0.0000 0.0000 -19.7252 0.0000
# 6 0.0000 0.0000 0.0000 0.0000 0.0000 37.5819
#
#
#
# Elastic Compliance Matrix: (Units=1/GPa)
#
#
# Indices 1 2 3 4 5 6 
#
# 1 0.019258 -0.006108 0.000782 0.000000 0.000000 0.000000
# 2 -0.006108 0.007100 -0.005664 0.000000 0.000000 0.000000
# 3 0.000782 -0.005664 0.065351 0.000000 0.000000 0.000000
# 4 0.000000 0.000000 0.000000 0.045738 0.000000 0.000000
# 5 0.000000 0.000000 0.000000 0.000000 -0.050697 0.000000
# 6 0.000000 0.000000 0.000000 0.000000 0.000000 0.026609
#
#
# Mechanical properties :
#
#
# Convention : Reuss Voigt Hill
#
# Bulk Modulus (GPa) = 14.34113 53.32261 33.83187
# Shear Modulus (GPa) = 31.52935 22.12454 26.82694
#
# Velocity S-wave (km/s) = 4.02576 3.37231 3.71343
# Velocity P-wave (km/s) = 5.38336 6.52474 5.98134
#
# Compressibility (1/GPa) = 0.06972950
#
# Stress axis : x y z
#
# Youngs Moduli (GPa) = 51.92547 140.85118 15.30188
#
# Poissons Ratio (x) = 0.86033 -0.01197
# Poissons Ratio (y) = 0.31717 0.08667
# Poissons Ratio (z) = -0.04060 0.79776
#
# Static dielectric constant tensor:
#      x y z
#    x 1.667260 0.000000 0.000000 
#    y 0.000000 1.687580 0.000000 
#    z 0.000000 0.000000 1.737330 
# 
# From -- ./inp_files/31515.got.cif
#   From: 2010.05.17/outbox.cif.g08.bks.cpg/sg42_16_cif.got.tgz:31515.got - 2010.06.03 19:03:34.
