data_PCOD9369686
_publ_section_title
;
Structure prediction by ZEFSAII (Michael W. Deem and Ramdas Pophale) SiO2 
 PCOD9369686
Probable space group: F M M 2
;
_chemical_formula_sum "Si O2"
_cell_formula_units_Z 112
_cell_length_a 27.992711
_cell_length_b 14.199749
_cell_length_c 14.771106
_cell_angle_alpha 90.000000
_cell_angle_beta 90.000000
_cell_angle_gamma 90.000000
_cell_volume 5871.359096
_symmetry_space_group_name_H-M "F M M 2"
_symmetry_group_IT_number 42
_symmetry_cell_setting 'orthorhombic'
loop_
_space_group_symop_operation_xyz
x,y,z
-x,-y,z
-x,y,z
x,-y,z
x,1/2+y,1/2+z
-x,1/2-y,1/2+z
-x,1/2+y,1/2+z
x,1/2-y,1/2+z
1/2+x,y,1/2+z
1/2-x,-y,1/2+z
1/2-x,y,1/2+z
1/2+x,-y,1/2+z
1/2+x,1/2+y,z
1/2-x,1/2-y,z
1/2-x,1/2+y,z
1/2+x,1/2-y,z
loop_
_atom_site_type_symbol
_atom_site_label
_atom_site_fract_x
_atom_site_fract_y
_atom_site_fract_z
Si Si1 0.124353 0.732282 0.378370
Si Si2 0.199944 0.204839 0.119964
Si Si3 0.305046 0.889848 0.809730
Si Si4 0.101291 0.297133 0.073659
Si Si5 0.709018 0.110583 0.422375
Si Si6 0.057600 0.000000 0.312022
Si Si7 0.944110 0.799085 0.237045
Si Si8 0.558566 0.500000 0.527386
O O1 0.158421 0.821855 0.360342
O O2 0.100550 0.752083 0.474282
O O3 0.159735 0.644416 0.378081
O O4 0.084802 0.729681 0.301961
O O5 0.250000 0.250000 0.146651
O O6 0.190414 0.133815 0.203018
O O7 0.344332 0.222103 0.109534
O O8 0.209096 0.160014 0.020870
O O9 0.253454 0.867924 0.855809
O O10 0.314678 0.000000 0.824753
O O11 0.067854 0.234331 0.137176
O O12 0.082473 0.404588 0.067469
O O13 0.709771 0.000000 0.437843
O O14 0.073076 0.095278 0.261826
O O15 0.069105 0.000000 0.418849
O O16 0.000000 0.000000 0.307930
O O17 0.000000 0.794795 0.255222
O O18 0.500000 0.500000 0.538519
#
# Coordination Sequence:
#
# PCOD9369686 Si02
#       8
#    16  16  16  16  16   8  16   8
#     4  11  22  40  64  93 125 170 213 271 319 386
#     4  11  22  41  62  94 134 167 214 270 323 393
#     4  11  23  39  67  94 128 172 214 263 320 385
#     4  11  24  40  66  95 129 173 214 271 334 387
#     4  10  22  41  61  90 128 171 215 262 323 384
#     4   9  20  40  70  94 123 161 217 276 322 384
#     4  11  23  41  64  96 129 166 212 271 333 387
#     4  11  22  42  68 100 129 171 231 288 331 390
#
# _framework density 19.075652000000002
#
# number of rings (size 3 to 8) (size 9 to 14) (size 15 to 20)
#    0.000    1.286    2.857    3.857    2.000    0.571 
#    9.000    0.000    0.000    0.000    0.000    0.000 
#    0.000    0.000    0.000    0.000    0.000    0.000 
#
# Total GULP energy -156316.055554 kJ/mol
# GULP energy per Si atom -5582.716270 kJ/mol
# Density = 1.903224 g / cm^3
# Si number density = 19.075652 Si / 1000 Ang^3
#
#
#
# Elastic Constant Matrix: (Units=GPa)
#
#
# Indices 1 2 3 4 5 6 
#
# 1 85.1181 29.4696 22.5482 0.0000 0.0000 0.0000
# 2 29.4696 79.2112 18.8865 0.0000 0.0000 0.0000
# 3 22.5482 18.8865 91.3664 0.0000 0.0000 0.0000
# 4 0.0000 0.0000 0.0000 32.9565 0.0000 0.0000
# 5 0.0000 0.0000 0.0000 0.0000 33.8576 0.0000
# 6 0.0000 0.0000 0.0000 0.0000 0.0000 30.7153
#
#
#
# Elastic Compliance Matrix: (Units=1/GPa)
#
#
# Indices 1 2 3 4 5 6 
#
# 1 0.014009 -0.004615 -0.002503 0.000000 0.000000 0.000000
# 2 -0.004615 0.014799 -0.001920 0.000000 0.000000 0.000000
# 3 -0.002503 -0.001920 0.011960 0.000000 0.000000 0.000000
# 4 0.000000 0.000000 0.000000 0.030343 0.000000 0.000000
# 5 0.000000 0.000000 0.000000 0.000000 0.029536 0.000000
# 6 0.000000 0.000000 0.000000 0.000000 0.000000 0.032557
#
#
# Mechanical properties :
#
#
# Convention : Reuss Voigt Hill
#
# Bulk Modulus (GPa) = 44.07045 44.16714 44.11880
# Shear Modulus (GPa) = 31.47719 31.82529 31.65124
#
# Velocity S-wave (km/s) = 4.06658 4.08900 4.07781
# Velocity P-wave (km/s) = 6.72328 6.74516 6.73423
#
# Compressibility (1/GPa) = 0.02269094
#
# Stress axis : x y z
#
# Youngs Moduli (GPa) = 71.38067 67.57061 83.61427
#
# Poissons Ratio (x) = 0.31185 0.20932
# Poissons Ratio (y) = 0.32943 0.16056
# Poissons Ratio (z) = 0.17869 0.12975
#
# Static dielectric constant tensor:
#      x y z
#    x 1.688990 0.000000 0.000000 
#    y 0.000000 1.646390 0.000000 
#    z 0.000000 0.000000 1.662140 
# 
# From -- ./inp_files/17094.got.cif
#   From: 2010.05.17/outbox.cif.g08.bks.cpg/sg42_9_cif.got.tgz:17094.got - 2010.06.03 19:03:34.
