data_PCOD9369951
_publ_section_title
;
Structure prediction by ZEFSAII (Michael W. Deem and Ramdas Pophale) SiO2 
 PCOD9369951
Probable space group: F M M 2
;
_chemical_formula_sum "Si O2"
_cell_formula_units_Z 64
_cell_length_a 17.895302
_cell_length_b 7.757148
_cell_length_c 24.822144
_cell_angle_alpha 90.000000
_cell_angle_beta 90.000000
_cell_angle_gamma 90.000000
_cell_volume 3445.723304
_symmetry_space_group_name_H-M "F M M 2"
_symmetry_group_IT_number 42
_symmetry_cell_setting 'orthorhombic'
loop_
_space_group_symop_operation_xyz
x,y,z
-x,-y,z
-x,y,z
x,-y,z
x,1/2+y,1/2+z
-x,1/2-y,1/2+z
-x,1/2+y,1/2+z
x,1/2-y,1/2+z
1/2+x,y,1/2+z
1/2-x,-y,1/2+z
1/2-x,y,1/2+z
1/2+x,-y,1/2+z
1/2+x,1/2+y,z
1/2-x,1/2-y,z
1/2-x,1/2+y,z
1/2+x,1/2-y,z
loop_
_atom_site_type_symbol
_atom_site_label
_atom_site_fract_x
_atom_site_fract_y
_atom_site_fract_z
Si Si1 0.589402 0.500000 0.521500
Si Si2 0.663712 0.696693 0.088615
Si Si3 0.908862 0.197312 0.818978
Si Si4 0.587073 0.708742 0.697949
Si Si5 0.091210 0.500000 0.897500
O O1 0.500000 0.500000 0.522822
O O2 0.618665 0.331955 0.552471
O O3 0.615065 0.500000 0.459407
O O4 0.654284 0.500000 0.070475
O O5 0.750000 0.750000 0.086807
O O6 0.634543 0.714222 0.149775
O O7 0.887318 0.253571 0.758434
O O8 0.884593 0.331399 0.864229
O O9 0.000000 0.195459 0.818478
O O10 0.884646 0.000000 0.828299
O O11 0.500000 0.759368 0.691865
O O12 0.589960 0.500000 0.694200
O O13 0.000000 0.500000 0.897439
#
# Coordination Sequence:
#
# PCOD9369951 Si02
#       5
#     8  16  16  16   8
#     4  11  24  42  61  90 125 153 201 258 289 346
#     4  12  24  40  61  86 117 165 201 243 304 360
#     4   8  15  28  49  81 117 150 184 233 294 344
#     4   9  17  32  56  88 125 152 186 243 293 350
#     4   9  18  32  53  80 114 151 189 238 290 340
#
# _framework density 18.57375
#
# number of rings (size 3 to 8) (size 9 to 14) (size 15 to 20)
#    0.000    2.250    2.500    2.250    1.750    3.000 
#    0.000    2.500    0.000    1.500    0.000    0.000 
#    0.000    0.000    0.000    0.000    0.000    0.000 
#
# Total GULP energy -89303.229361 kJ/mol
# GULP energy per Si atom -5581.451835 kJ/mol
# Density = 1.853147 g / cm^3
# Si number density = 18.573750 Si / 1000 Ang^3
#
#
#
# Elastic Constant Matrix: (Units=GPa)
#
#
# Indices 1 2 3 4 5 6 
#
# 1 47.9483 31.8844 37.6856 0.0000 0.0000 0.0000
# 2 31.8844 143.8461 92.9103 0.0000 0.0000 0.0000
# 3 37.6856 92.9103 157.0836 0.0000 0.0000 0.0000
# 4 0.0000 0.0000 0.0000 -12.7454 0.0000 0.0000
# 5 0.0000 0.0000 0.0000 0.0000 -9.6960 0.0000
# 6 0.0000 0.0000 0.0000 0.0000 0.0000 17.9817
#
#
#
# Elastic Compliance Matrix: (Units=1/GPa)
#
#
# Indices 1 2 3 4 5 6 
#
# 1 0.026405 -0.002850 -0.004649 0.000000 0.000000 0.000000
# 2 -0.002850 0.011557 -0.006152 0.000000 0.000000 0.000000
# 3 -0.004649 -0.006152 0.011120 0.000000 0.000000 0.000000
# 4 0.000000 0.000000 0.000000 -0.078460 0.000000 0.000000
# 5 0.000000 0.000000 0.000000 0.000000 -0.103136 0.000000
# 6 0.000000 0.000000 0.000000 0.000000 0.000000 0.055612
#
#
# Mechanical properties :
#
#
# Convention : Reuss Voigt Hill
#
# Bulk Modulus (GPa) = 45.91343 74.87097 60.39220
# Shear Modulus (GPa) = -118.09476 11.53458 -53.28009
#
# Velocity S-wave (km/s) = -7.98245 2.49472 -5.36171
# Velocity P-wave (km/s) = 7.75798 6.97824 2.39692
#
# Compressibility (1/GPa) = 0.02178012
#
# Stress axis : x y z
#
# Youngs Moduli (GPa) = 37.87169 86.52638 89.92717
#
# Poissons Ratio (x) = 0.24660 0.41808
# Poissons Ratio (y) = 0.10793 0.55323
# Poissons Ratio (z) = 0.17607 0.53231
#
# Static dielectric constant tensor:
#      x y z
#    x 1.611200 0.000000 0.000000 
#    y 0.000000 1.647910 0.000000 
#    z 0.000000 0.000000 1.630090 
# 
# From -- ./inp_files/23181.got.cif
#   From: 2010.05.17/outbox.cif.g08.bks.cpg/sg42_12_cif.got.tgz:23181.got - 2010.06.03 19:03:34.
