data_PCOD9369048
_publ_section_title
;
Structure prediction by ZEFSAII (Michael W. Deem and Ramdas Pophale) SiO2 
 PCOD9369048
Probable space group: F M M 2
;
_chemical_formula_sum "Si O2"
_cell_formula_units_Z 88
_cell_length_a 15.408077
_cell_length_b 12.655307
_cell_length_c 22.202014
_cell_angle_alpha 90.000000
_cell_angle_beta 90.000000
_cell_angle_gamma 90.000000
_cell_volume 4329.258290
_symmetry_space_group_name_H-M "F M M 2"
_symmetry_group_IT_number 42
_symmetry_cell_setting 'orthorhombic'
loop_
_space_group_symop_operation_xyz
x,y,z
-x,-y,z
-x,y,z
x,-y,z
x,1/2+y,1/2+z
-x,1/2-y,1/2+z
-x,1/2+y,1/2+z
x,1/2-y,1/2+z
1/2+x,y,1/2+z
1/2-x,-y,1/2+z
1/2-x,y,1/2+z
1/2+x,-y,1/2+z
1/2+x,1/2+y,z
1/2-x,1/2-y,z
1/2-x,1/2+y,z
1/2+x,1/2-y,z
loop_
_atom_site_type_symbol
_atom_site_label
_atom_site_fract_x
_atom_site_fract_y
_atom_site_fract_z
Si Si1 0.648281 0.755374 0.547480
Si Si2 0.000000 0.837896 0.752567
Si Si3 0.351194 0.722315 0.414465
Si Si4 0.897314 0.000000 0.061548
Si Si5 0.658682 0.689896 0.283560
Si Si6 0.394023 0.500000 0.203594
Si Si7 0.000000 0.376330 0.113801
Si Si8 0.500000 0.113424 0.386743
O O1 0.750000 0.750000 0.564340
O O2 0.631802 0.693826 0.483813
O O3 0.582748 0.695397 0.592683
O O4 0.631786 0.882502 0.539093
O O5 0.914581 0.768425 0.760526
O O6 0.000000 0.899553 0.815099
O O7 0.000000 0.883960 0.686181
O O8 0.250000 0.750000 0.414974
O O9 0.362870 0.655149 0.352944
O O10 0.414931 0.820703 0.403247
O O11 0.876851 0.000000 0.132853
O O12 0.000000 0.000000 0.055518
O O13 0.750000 0.750000 0.284158
O O14 0.651229 0.596981 0.236522
O O15 0.500000 0.500000 0.212648
O O16 0.000000 0.500000 0.091468
O O17 0.500000 0.000000 0.416969
#
# Coordination Sequence:
#
# PCOD9369048 Si02
#       8
#    16   8  16   8  16   8   8   8
#     4  11  25  45  66  95 129 173 221 267 318 386
#     4  10  21  41  62  83 135 165 203 261 312 380
#     4   9  21  42  61  90 131 159 204 264 320 370
#     4  11  24  42  69  93 127 175 224 274 314 365
#     4  10  21  42  64  95 127 163 207 264 318 384
#     4  11  22  40  65  93 123 169 214 262 320 367
#     4  12  26  44  62  92 136 174 212 265 325 384
#     4  10  20  35  66  95 113 159 212 251 312 373
#
# _framework density 20.326806000000001
#
# number of rings (size 3 to 8) (size 9 to 14) (size 15 to 20)
#    0.000    1.636    1.818    1.909    2.545    2.909 
#   18.000    0.000    0.000    0.000    0.000    0.000 
#    0.000    0.000    0.000    0.000    0.000    0.000 
#
# Total GULP energy -122469.722931 kJ/mol
# GULP energy per Si atom -5566.805588 kJ/mol
# Density = 2.028054 g / cm^3
# Si number density = 20.326806 Si / 1000 Ang^3
#
#
#
# Elastic Constant Matrix: (Units=GPa)
#
#
# Indices 1 2 3 4 5 6 
#
# 1 126.3196 45.1283 27.3721 0.0000 0.0000 0.0000
# 2 45.1283 71.3194 6.2526 0.0000 0.0000 0.0000
# 3 27.3721 6.2526 143.6119 0.0000 0.0000 0.0000
# 4 0.0000 0.0000 0.0000 16.3889 0.0000 0.0000
# 5 0.0000 0.0000 0.0000 0.0000 20.4829 0.0000
# 6 0.0000 0.0000 0.0000 0.0000 0.0000 6.7752
#
#
#
# Elastic Compliance Matrix: (Units=1/GPa)
#
#
# Indices 1 2 3 4 5 6 
#
# 1 0.010646 -0.006584 -0.001742 0.000000 0.000000 0.000000
# 2 -0.006584 0.018147 0.000465 0.000000 0.000000 0.000000
# 3 -0.001742 0.000465 0.007275 0.000000 0.000000 0.000000
# 4 0.000000 0.000000 0.000000 0.061017 0.000000 0.000000
# 5 0.000000 0.000000 0.000000 0.000000 0.048821 0.000000
# 6 0.000000 0.000000 0.000000 0.000000 0.000000 0.147597
#
#
# Mechanical properties :
#
#
# Convention : Reuss Voigt Hill
#
# Bulk Modulus (GPa) = 49.15222 55.41746 52.28484
# Shear Modulus (GPa) = 15.82239 26.22925 21.02582
#
# Velocity S-wave (km/s) = 2.79301 3.59608 3.21968
# Velocity P-wave (km/s) = 5.88512 6.67569 6.29283
#
# Compressibility (1/GPa) = 0.02034496
#
# Stress axis : x y z
#
# Youngs Moduli (GPa) = 93.93155 55.10679 137.45537
#
# Poissons Ratio (x) = 0.36280 0.23951
# Poissons Ratio (y) = 0.61841 -0.06388
# Poissons Ratio (z) = 0.16367 -0.02561
#
# Static dielectric constant tensor:
#      x y z
#    x 1.680450 0.000000 0.000000 
#    y 0.000000 2.937720 0.000000 
#    z 0.000000 0.000000 1.773310 
# 
# From -- ./inp_files/29366.got.cif
#   From: 2010.05.17/outbox.cif.g08.bks.cpg/sg42_15_cif.got.tgz:29366.got - 2010.06.03 19:03:34.
