data_PCOD9369122
_publ_section_title
;
Structure prediction by ZEFSAII (Michael W. Deem and Ramdas Pophale) SiO2 
 PCOD9369122
Probable space group: F M M 2
;
_chemical_formula_sum "Si O2"
_cell_formula_units_Z 80
_cell_length_a 14.028088
_cell_length_b 15.192046
_cell_length_c 18.257385
_cell_angle_alpha 90.000000
_cell_angle_beta 90.000000
_cell_angle_gamma 90.000000
_cell_volume 3890.929144
_symmetry_space_group_name_H-M "F M M 2"
_symmetry_group_IT_number 42
_symmetry_cell_setting 'orthorhombic'
loop_
_space_group_symop_operation_xyz
x,y,z
-x,-y,z
-x,y,z
x,-y,z
x,1/2+y,1/2+z
-x,1/2-y,1/2+z
-x,1/2+y,1/2+z
x,1/2-y,1/2+z
1/2+x,y,1/2+z
1/2-x,-y,1/2+z
1/2-x,y,1/2+z
1/2+x,-y,1/2+z
1/2+x,1/2+y,z
1/2-x,1/2-y,z
1/2-x,1/2+y,z
1/2+x,1/2-y,z
loop_
_atom_site_type_symbol
_atom_site_label
_atom_site_fract_x
_atom_site_fract_y
_atom_site_fract_z
Si Si1 0.885727 0.600427 0.588840
Si Si2 0.384321 0.223462 0.721082
Si Si3 0.221934 0.851927 0.941229
Si Si4 0.109023 0.901747 0.353761
Si Si5 0.615290 0.899894 0.291664
O O1 0.870497 0.500000 0.614987
O O2 0.854051 0.672135 0.648674
O O3 0.830561 0.615423 0.513405
O O4 0.000000 0.610344 0.576872
O O5 0.500000 0.221470 0.719743
O O6 0.357372 0.167593 0.793096
O O7 0.355268 0.324335 0.733983
O O8 0.250000 0.750000 0.947087
O O9 0.321548 0.898499 0.922394
O O10 0.155738 0.872029 0.870802
O O11 0.000000 0.881114 0.373698
O O12 0.110762 0.000000 0.321633
O O13 0.500000 0.899351 0.295009
O O14 0.646239 0.000000 0.275056
#
# Coordination Sequence:
#
# PCOD9369122 Si02
#       5
#    16  16  16  16  16
#     4  10  21  39  65  95 126 160 202 256 312 367
#     4   9  18  36  62  93 122 154 199 251 309 364
#     4  12  23  37  58  90 129 164 204 251 304 364
#     4  10  20  36  60  89 122 161 205 252 301 358
#     4  10  20  37  64  95 125 159 204 259 311 364
#
# _framework density 20.560641
#
# number of rings (size 3 to 8) (size 9 to 14) (size 15 to 20)
#    0.000    1.800    2.000    3.000    0.000    4.800 
#    3.600    0.000    0.000    2.400    0.000    2.800 
#    0.000    0.000    0.000    0.000    0.000    0.000 
#
# Total GULP energy -111742.144246 kJ/mol
# GULP energy per Si atom -5587.107212 kJ/mol
# Density = 2.051384 g / cm^3
# Si number density = 20.560641 Si / 1000 Ang^3
#
#
#
# Elastic Constant Matrix: (Units=GPa)
#
#
# Indices 1 2 3 4 5 6 
#
# 1 88.0467 32.4463 45.9212 0.0000 0.0000 0.0000
# 2 32.4463 169.7715 70.3571 0.0000 0.0000 0.0000
# 3 45.9212 70.3571 124.8339 0.0000 0.0000 0.0000
# 4 0.0000 0.0000 0.0000 26.5757 0.0000 0.0000
# 5 0.0000 0.0000 0.0000 0.0000 28.5877 0.0000
# 6 0.0000 0.0000 0.0000 0.0000 0.0000 22.8785
#
#
#
# Elastic Compliance Matrix: (Units=1/GPa)
#
#
# Indices 1 2 3 4 5 6 
#
# 1 0.014120 -0.000712 -0.004793 0.000000 0.000000 0.000000
# 2 -0.000712 0.007721 -0.004090 0.000000 0.000000 0.000000
# 3 -0.004793 -0.004090 0.012079 0.000000 0.000000 0.000000
# 4 0.000000 0.000000 0.000000 0.037628 0.000000 0.000000
# 5 0.000000 0.000000 0.000000 0.000000 0.034980 0.000000
# 6 0.000000 0.000000 0.000000 0.000000 0.000000 0.043709
#
#
# Mechanical properties :
#
#
# Convention : Reuss Voigt Hill
#
# Bulk Modulus (GPa) = 67.88717 75.56680 71.72699
# Shear Modulus (GPa) = 28.68017 31.20357 29.94187
#
# Velocity S-wave (km/s) = 3.73890 3.89991 3.82025
# Velocity P-wave (km/s) = 7.19228 7.55725 7.37702
#
# Compressibility (1/GPa) = 0.01473032
#
# Stress axis : x y z
#
# Youngs Moduli (GPa) = 70.82303 129.51216 82.79104
#
# Poissons Ratio (x) = 0.09226 0.39678
# Poissons Ratio (y) = 0.05045 0.33859
# Poissons Ratio (z) = 0.33942 0.52967
#
# Static dielectric constant tensor:
#      x y z
#    x 1.760780 0.000000 0.000000 
#    y 0.000000 1.789430 0.000000 
#    z 0.000000 0.000000 1.677250 
# 
# From -- ./inp_files/24935.got.cif
#   From: 2010.05.17/outbox.cif.g08.bks.cpg/sg42_13_cif.got.tgz:24935.got - 2010.06.03 19:03:34.
