data_PCOD9369655
_publ_section_title
;
Structure prediction by ZEFSAII (Michael W. Deem and Ramdas Pophale) SiO2 
 PCOD9369655
Probable space group: F M M 2
;
_chemical_formula_sum "Si O2"
_cell_formula_units_Z 72
_cell_length_a 10.489112
_cell_length_b 24.652201
_cell_length_c 14.451185
_cell_angle_alpha 90.000000
_cell_angle_beta 90.000000
_cell_angle_gamma 90.000000
_cell_volume 3736.783043
_symmetry_space_group_name_H-M "F M M 2"
_symmetry_group_IT_number 42
_symmetry_cell_setting 'orthorhombic'
loop_
_space_group_symop_operation_xyz
x,y,z
-x,-y,z
-x,y,z
x,-y,z
x,1/2+y,1/2+z
-x,1/2-y,1/2+z
-x,1/2+y,1/2+z
x,1/2-y,1/2+z
1/2+x,y,1/2+z
1/2-x,-y,1/2+z
1/2-x,y,1/2+z
1/2+x,-y,1/2+z
1/2+x,1/2+y,z
1/2-x,1/2-y,z
1/2-x,1/2+y,z
1/2+x,1/2-y,z
loop_
_atom_site_type_symbol
_atom_site_label
_atom_site_fract_x
_atom_site_fract_y
_atom_site_fract_z
Si Si1 0.500000 0.248635 0.448570
Si Si2 0.644579 0.855141 0.921178
Si Si3 0.346516 0.560551 0.577400
Si Si4 0.500000 0.314251 0.140466
Si Si5 0.253240 0.365496 0.720144
Si Si6 0.500000 0.703643 0.746984
O O1 0.618947 0.291699 0.445897
O O2 0.500000 0.211738 0.538830
O O3 0.500000 0.210888 0.357942
O O4 0.500000 0.874643 0.899353
O O5 0.723853 0.863124 0.828800
O O6 0.691824 0.892254 0.005169
O O7 0.500000 0.561874 0.582337
O O8 0.307374 0.500000 0.549234
O O9 0.292534 0.577194 0.677018
O O10 0.628168 0.346303 0.165202
O O11 0.500000 0.264389 0.211284
O O12 0.375145 0.326291 0.708417
#
# Coordination Sequence:
#
# PCOD9369655 Si02
#       6
#     8  16  16   8  16   8
#     4  10  22  40  58  95 124 183 198 256 305 383
#     4   9  20  42  60  91 128 162 218 252 308 388
#     4  10  22  43  67  89 121 168 215 267 326 377
#     4  12  24  40  63  89 137 167 211 256 309 363
#     4  12  23  42  63  96 128 166 213 267 306 386
#     4  12  24  40  58  96 132 174 207 242 314 380
#
# _framework density 19.267909
#
# number of rings (size 3 to 8) (size 9 to 14) (size 15 to 20)
#    0.667    0.667    4.444    2.000    3.111    0.889 
#    0.000    0.556    0.000    0.000    0.000    0.000 
#    0.000    0.000    0.000    0.000    0.000    0.000 
#
# Total GULP energy -100412.051703 kJ/mol
# GULP energy per Si atom -5578.447317 kJ/mol
# Density = 1.922405 g / cm^3
# Si number density = 19.267909 Si / 1000 Ang^3
#
#
#
# Elastic Constant Matrix: (Units=GPa)
#
#
# Indices 1 2 3 4 5 6 
#
# 1 82.8294 32.9025 25.4108 0.0000 0.0000 0.0000
# 2 32.9025 72.3379 25.7011 0.0000 0.0000 0.0000
# 3 25.4108 25.7011 92.2431 0.0000 0.0000 0.0000
# 4 0.0000 0.0000 0.0000 20.9918 0.0000 0.0000
# 5 0.0000 0.0000 0.0000 0.0000 50.4453 0.0000
# 6 0.0000 0.0000 0.0000 0.0000 0.0000 9.7519
#
#
#
# Elastic Compliance Matrix: (Units=1/GPa)
#
#
# Indices 1 2 3 4 5 6 
#
# 1 0.015244 -0.006040 -0.002517 0.000000 0.000000 0.000000
# 2 -0.006040 0.017736 -0.003278 0.000000 0.000000 0.000000
# 3 -0.002517 -0.003278 0.012447 0.000000 0.000000 0.000000
# 4 0.000000 0.000000 0.000000 0.047638 0.000000 0.000000
# 5 0.000000 0.000000 0.000000 0.000000 0.019823 0.000000
# 6 0.000000 0.000000 0.000000 0.000000 0.000000 0.102545
#
#
# Mechanical properties :
#
#
# Convention : Reuss Voigt Hill
#
# Bulk Modulus (GPa) = 45.95750 46.15992 46.05871
# Shear Modulus (GPa) = 20.29599 27.13086 23.71342
#
# Velocity S-wave (km/s) = 3.24907 3.75652 3.51197
# Velocity P-wave (km/s) = 6.16270 6.54401 6.35622
#
# Compressibility (1/GPa) = 0.02175924
#
# Stress axis : x y z
#
# Youngs Moduli (GPa) = 65.59879 56.38356 80.33765
#
# Poissons Ratio (x) = 0.34053 0.20218
# Poissons Ratio (y) = 0.39619 0.26333
# Poissons Ratio (z) = 0.16509 0.18481
#
# Static dielectric constant tensor:
#      x y z
#    x 1.523360 0.000000 0.000000 
#    y 0.000000 1.661940 0.000000 
#    z 0.000000 0.000000 1.739390 
# 
# From -- ./inp_files/12793.got.cif
#   From: 2010.05.17/outbox.cif.g08.bks.cpg/sg42_7_cif.got.tgz:12793.got - 2010.06.03 19:03:34.
