data_PCOD9369397
_publ_section_title
;
Structure prediction by ZEFSAII (Michael W. Deem and Ramdas Pophale) SiO2 
 PCOD9369397
Probable space group: F M M 2
;
_chemical_formula_sum "Si O2"
_cell_formula_units_Z 104
_cell_length_a 23.361333
_cell_length_b 14.013365
_cell_length_c 18.651298
_cell_angle_alpha 90.000000
_cell_angle_beta 90.000000
_cell_angle_gamma 90.000000
_cell_volume 6105.891955
_symmetry_space_group_name_H-M "F M M 2"
_symmetry_group_IT_number 42
_symmetry_cell_setting 'orthorhombic'
loop_
_space_group_symop_operation_xyz
x,y,z
-x,-y,z
-x,y,z
x,-y,z
x,1/2+y,1/2+z
-x,1/2-y,1/2+z
-x,1/2+y,1/2+z
x,1/2-y,1/2+z
1/2+x,y,1/2+z
1/2-x,-y,1/2+z
1/2-x,y,1/2+z
1/2+x,-y,1/2+z
1/2+x,1/2+y,z
1/2-x,1/2-y,z
1/2-x,1/2+y,z
1/2+x,1/2-y,z
loop_
_atom_site_type_symbol
_atom_site_label
_atom_site_fract_x
_atom_site_fract_y
_atom_site_fract_z
Si Si1 0.068043 0.386245 0.853850
Si Si2 0.863983 0.112588 0.492253
Si Si3 0.750000 0.250000 0.835506
Si Si4 0.294706 0.885539 0.612030
Si Si5 0.270927 0.111357 0.455584
Si Si6 0.661986 0.114518 0.149784
Si Si7 0.645287 0.711772 0.239366
O O1 0.081606 0.500000 0.846573
O O2 0.094600 0.331201 0.786264
O O3 0.000000 0.376373 0.857755
O O4 0.097379 0.349314 0.927617
O O5 0.797395 0.119090 0.469784
O O6 0.867873 0.144844 0.574744
O O7 0.877594 0.000000 0.496155
O O8 0.717952 0.324800 0.886926
O O9 0.702517 0.200199 0.787114
O O10 0.299642 0.853588 0.529307
O O11 0.229858 0.863657 0.638545
O O12 0.340699 0.842844 0.665659
O O13 0.298446 0.000000 0.611248
O O14 0.284177 0.000000 0.444349
O O15 0.640112 0.178031 0.215354
O O16 0.656599 0.000000 0.158989
#
# Coordination Sequence:
#
# PCOD9369397 Si02
#       7
#    16  16   8  16  16  16  16
#     4  10  21  37  56  77 103 135 176 226 269 303
#     4   8  15  31  52  70  94 132 172 217 258 296
#     4  12  22  26  48  76 104 140 166 204 270 316
#     4   9  18  31  47  69 102 141 171 204 255 315
#     4   9  19  32  46  69 103 138 172 208 250 309
#     4   9  18  31  48  73 105 138 171 206 256 318
#     4  12  21  31  49  79 110 140 168 212 265 321
#
# _framework density 17.032729
#
# number of rings (size 3 to 8) (size 9 to 14) (size 15 to 20)
#    0.000    2.308    3.077    2.308    4.308    1.231 
#    0.000    0.769    0.000    1.385    0.000    0.000 
#    0.000    0.000    0.000    0.000    0.000    0.000 
#
# Total GULP energy -144939.422937 kJ/mol
# GULP energy per Si atom -5574.593190 kJ/mol
# Density = 1.699396 g / cm^3
# Si number density = 17.032729 Si / 1000 Ang^3
#
#
#
# Elastic Constant Matrix: (Units=GPa)
#
#
# Indices 1 2 3 4 5 6 
#
# 1 33.3663 7.1779 27.0760 0.0000 0.0000 0.0000
# 2 7.1779 52.7970 32.8227 0.0000 0.0000 0.0000
# 3 27.0760 32.8227 105.1727 0.0000 0.0000 0.0000
# 4 0.0000 0.0000 0.0000 30.8990 0.0000 0.0000
# 5 0.0000 0.0000 0.0000 0.0000 14.4814 0.0000
# 6 0.0000 0.0000 0.0000 0.0000 0.0000 15.4090
#
#
#
# Elastic Compliance Matrix: (Units=1/GPa)
#
#
# Indices 1 2 3 4 5 6 
#
# 1 0.037940 0.001134 -0.010121 0.000000 0.000000 0.000000
# 2 0.001134 0.023534 -0.007636 0.000000 0.000000 0.000000
# 3 -0.010121 -0.007636 0.014497 0.000000 0.000000 0.000000
# 4 0.000000 0.000000 0.000000 0.032364 0.000000 0.000000
# 5 0.000000 0.000000 0.000000 0.000000 0.069054 0.000000
# 6 0.000000 0.000000 0.000000 0.000000 0.000000 0.064897
#
#
# Mechanical properties :
#
#
# Convention : Reuss Voigt Hill
#
# Bulk Modulus (GPa) = 23.40652 36.16547 29.78599
# Shear Modulus (GPa) = 17.25489 20.44185 18.84837
#
# Velocity S-wave (km/s) = 3.18629 3.46808 3.33016
# Velocity P-wave (km/s) = 5.22575 6.10866 5.68438
#
# Compressibility (1/GPa) = 0.04272313
#
# Stress axis : x y z
#
# Youngs Moduli (GPa) = 26.35773 42.49231 68.97969
#
# Poissons Ratio (x) = -0.04819 0.69816
# Poissons Ratio (y) = -0.02989 0.52676
# Poissons Ratio (z) = 0.26677 0.32449
#
# Static dielectric constant tensor:
#      x y z
#    x 1.547900 0.000000 0.000000 
#    y 0.000000 1.625040 0.000000 
#    z 0.000000 0.000000 1.612400 
# 
# From -- ./inp_files/16646.got.cif
#   From: 2010.05.17/outbox.cif.g08.bks.cpg/sg42_9_cif.got.tgz:16646.got - 2010.06.03 19:03:34.
