data_PCOD9369136
_publ_section_title
;
Structure prediction by ZEFSAII (Michael W. Deem and Ramdas Pophale) SiO2 
 PCOD9369136
Probable space group: F M M 2
;
_chemical_formula_sum "Si O2"
_cell_formula_units_Z 104
_cell_length_a 26.219017
_cell_length_b 15.251426
_cell_length_c 11.981404
_cell_angle_alpha 90.000000
_cell_angle_beta 90.000000
_cell_angle_gamma 90.000000
_cell_volume 4791.092651
_symmetry_space_group_name_H-M "F M M 2"
_symmetry_group_IT_number 42
_symmetry_cell_setting 'orthorhombic'
loop_
_space_group_symop_operation_xyz
x,y,z
-x,-y,z
-x,y,z
x,-y,z
x,1/2+y,1/2+z
-x,1/2-y,1/2+z
-x,1/2+y,1/2+z
x,1/2-y,1/2+z
1/2+x,y,1/2+z
1/2-x,-y,1/2+z
1/2-x,y,1/2+z
1/2+x,-y,1/2+z
1/2+x,1/2+y,z
1/2-x,1/2-y,z
1/2-x,1/2+y,z
1/2+x,1/2-y,z
loop_
_atom_site_type_symbol
_atom_site_label
_atom_site_fract_x
_atom_site_fract_y
_atom_site_fract_z
Si Si1 0.122840 0.159375 0.465260
Si Si2 0.714493 0.167126 0.806259
Si Si3 0.730790 0.500000 0.686781
Si Si4 0.057128 0.335826 0.744453
Si Si5 0.440778 0.130522 0.180881
Si Si6 0.144509 0.166888 0.100092
Si Si7 0.697197 0.000000 0.498404
Si Si8 0.129916 0.000000 0.782119
O O1 0.177162 0.135399 0.406632
O O2 0.082924 0.155964 0.364114
O O3 0.092499 0.115662 0.568721
O O4 0.132949 0.256798 0.513446
O O5 0.750000 0.250000 0.839148
O O6 0.746060 0.085884 0.751897
O O7 0.677023 0.201044 0.706729
O O8 0.748076 0.500000 0.557278
O O9 0.670081 0.500000 0.681514
O O10 0.057537 0.233114 0.710166
O O11 0.093745 0.376020 0.651562
O O12 0.000000 0.369192 0.743915
O O13 0.500000 0.102098 0.170920
O O14 0.408265 0.081624 0.275851
O O15 0.175572 0.090039 0.045845
O O16 0.672498 0.000000 0.377203
#
# Coordination Sequence:
#
# PCOD9369136 Si02
#       8
#    16  16   8  16  16  16   8   8
#     4  10  20  36  63  88 121 167 211 257 322 378
#     4  10  23  40  62  90 129 168 220 264 313 385
#     4  10  26  43  62  93 132 171 215 265 322 372
#     4   9  18  35  59  86 117 157 210 261 313 379
#     4  10  22  39  60  90 124 158 204 263 319 378
#     4   9  20  37  58  86 123 161 210 261 319 377
#     4  10  22  43  61  86 127 171 204 264 319 384
#     4  12  25  40  65  87 127 156 212 255 321 376
#
# _framework density 21.706948000000001
#
# number of rings (size 3 to 8) (size 9 to 14) (size 15 to 20)
#    0.000    2.154    0.000    1.615    8.615    3.077 
#    0.000    2.692    0.000    0.000    0.000    0.000 
#    0.000    0.000    0.000    0.000    0.000    0.000 
#
# Total GULP energy -144894.598452 kJ/mol
# GULP energy per Si atom -5572.869171 kJ/mol
# Density = 2.165754 g / cm^3
# Si number density = 21.706948 Si / 1000 Ang^3
#
#
#
# Elastic Constant Matrix: (Units=GPa)
#
#
# Indices 1 2 3 4 5 6 
#
# 1 139.3240 15.1574 26.3986 0.0000 0.0000 0.0000
# 2 15.1574 26.3539 -1.2773 0.0000 0.0000 0.0000
# 3 26.3986 -1.2773 64.3550 0.0000 0.0000 0.0000
# 4 0.0000 0.0000 0.0000 -10.2169 0.0000 0.0000
# 5 0.0000 0.0000 0.0000 0.0000 14.9200 0.0000
# 6 0.0000 0.0000 0.0000 0.0000 0.0000 49.5861
#
#
#
# Elastic Compliance Matrix: (Units=1/GPa)
#
#
# Indices 1 2 3 4 5 6 
#
# 1 0.008392 -0.004999 -0.003542 0.000000 0.000000 0.000000
# 2 -0.004999 0.040959 0.002863 0.000000 0.000000 0.000000
# 3 -0.003542 0.002863 0.017048 0.000000 0.000000 0.000000
# 4 0.000000 0.000000 0.000000 -0.097877 0.000000 0.000000
# 5 0.000000 0.000000 0.000000 0.000000 0.067024 0.000000
# 6 0.000000 0.000000 0.000000 0.000000 0.000000 0.020167
#
#
# Mechanical properties :
#
#
# Convention : Reuss Voigt Hill
#
# Bulk Modulus (GPa) = 18.16672 34.51004 26.33838
# Shear Modulus (GPa) = 58.53702 23.50811 41.02257
#
# Velocity S-wave (km/s) = 5.19860 3.29443 4.35194
# Velocity P-wave (km/s) = 6.66493 5.51396 6.11657
#
# Compressibility (1/GPa) = 0.05504572
#
# Stress axis : x y z
#
# Youngs Moduli (GPa) = 119.15530 24.41477 58.65624
#
# Poissons Ratio (x) = 0.12204 0.20775
# Poissons Ratio (y) = 0.59561 -0.16795
# Poissons Ratio (z) = 0.42202 -0.06991
#
# Static dielectric constant tensor:
#      x y z
#    x 1.804770 0.000000 0.000000 
#    y 0.000000 1.819800 0.000000 
#    z 0.000000 0.000000 1.912020 
# 
# From -- ./inp_files/9003.got.cif
#   From: 2010.05.17/outbox.cif.g08.bks.cpg/sg42_5_cif.got.tgz:9003.got - 2010.06.03 19:03:34.
