data_PCOD9369178
_publ_section_title
;
Structure prediction by ZEFSAII (Michael W. Deem and Ramdas Pophale) SiO2 
 PCOD9369178
Probable space group: F M M 2
;
_chemical_formula_sum "Si O2"
_cell_formula_units_Z 80
_cell_length_a 13.465439
_cell_length_b 21.096444
_cell_length_c 14.199791
_cell_angle_alpha 90.000000
_cell_angle_beta 90.000000
_cell_angle_gamma 90.000000
_cell_volume 4033.775522
_symmetry_space_group_name_H-M "F M M 2"
_symmetry_group_IT_number 42
_symmetry_cell_setting 'orthorhombic'
loop_
_space_group_symop_operation_xyz
x,y,z
-x,-y,z
-x,y,z
x,-y,z
x,1/2+y,1/2+z
-x,1/2-y,1/2+z
-x,1/2+y,1/2+z
x,1/2-y,1/2+z
1/2+x,y,1/2+z
1/2-x,-y,1/2+z
1/2-x,y,1/2+z
1/2+x,-y,1/2+z
1/2+x,1/2+y,z
1/2-x,1/2-y,z
1/2-x,1/2+y,z
1/2+x,1/2-y,z
loop_
_atom_site_type_symbol
_atom_site_label
_atom_site_fract_x
_atom_site_fract_y
_atom_site_fract_z
Si Si1 0.757808 0.846945 0.871370
Si Si2 0.613162 0.884418 0.730628
Si Si3 0.289863 0.926230 0.537305
Si Si4 0.386849 0.768334 0.224825
Si Si5 0.617766 0.835171 0.029354
O O1 0.693072 0.898043 0.811977
O O2 0.818766 0.804646 0.799236
O O3 0.823901 0.883375 0.948700
O O4 0.674792 0.811418 0.935912
O O5 0.500000 0.903347 0.751952
O O6 0.648735 0.911176 0.631110
O O7 0.617184 0.807562 0.726361
O O8 0.176618 0.900504 0.550677
O O9 0.293128 0.000000 0.516899
O O10 0.500000 0.787368 0.243957
O O11 0.362926 0.790828 0.118936
O O12 0.500000 0.841207 0.014556
#
# Coordination Sequence:
#
# PCOD9369178 Si02
#       5
#    16  16  16  16  16
#     4  10  20  37  61  88 119 158 205 250 303 353
#     4  11  23  39  62  92 124 161 202 254 311 365
#     4  10  24  41  60  87 123 166 208 246 296 360
#     4  10  21  38  61  93 126 155 197 252 316 371
#     4   9  20  39  60  89 122 160 204 252 308 360
#
# _framework density 19.832536999999999
#
# number of rings (size 3 to 8) (size 9 to 14) (size 15 to 20)
#    1.200    0.800    2.000    1.200    0.000    5.600 
#    0.000    4.000    0.000    0.000    0.000    0.000 
#    0.000    0.000    0.000    0.000    0.000    0.000 
#
# Total GULP energy -111483.953371 kJ/mol
# GULP energy per Si atom -5574.197669 kJ/mol
# Density = 1.978740 g / cm^3
# Si number density = 19.832537 Si / 1000 Ang^3
#
#
#
# Elastic Constant Matrix: (Units=GPa)
#
#
# Indices 1 2 3 4 5 6 
#
# 1 81.3083 4.3208 25.8160 0.0000 0.0000 0.0000
# 2 4.3208 29.4592 3.9308 0.0000 0.0000 0.0000
# 3 25.8160 3.9308 96.0674 0.0000 0.0000 0.0000
# 4 0.0000 0.0000 0.0000 16.4158 0.0000 0.0000
# 5 0.0000 0.0000 0.0000 0.0000 32.7508 0.0000
# 6 0.0000 0.0000 0.0000 0.0000 0.0000 10.8643
#
#
#
# Elastic Compliance Matrix: (Units=1/GPa)
#
#
# Indices 1 2 3 4 5 6 
#
# 1 0.013512 -0.001506 -0.003570 0.000000 0.000000 0.000000
# 2 -0.001506 0.034299 -0.000999 0.000000 0.000000 0.000000
# 3 -0.003570 -0.000999 0.011409 0.000000 0.000000 0.000000
# 4 0.000000 0.000000 0.000000 0.060917 0.000000 0.000000
# 5 0.000000 0.000000 0.000000 0.000000 0.030534 0.000000
# 6 0.000000 0.000000 0.000000 0.000000 0.000000 0.092044
#
#
# Mechanical properties :
#
#
# Convention : Reuss Voigt Hill
#
# Bulk Modulus (GPa) = 21.24351 30.55223 25.89787
# Shear Modulus (GPa) = 18.48055 23.52402 21.00229
#
# Velocity S-wave (km/s) = 3.05590 3.44776 3.25773
# Velocity P-wave (km/s) = 4.81519 5.59357 5.21891
#
# Compressibility (1/GPa) = 0.04707320
#
# Stress axis : x y z
#
# Youngs Moduli (GPa) = 74.00713 29.15510 87.64666
#
# Poissons Ratio (x) = 0.04389 0.31286
# Poissons Ratio (y) = 0.11142 0.08754
# Poissons Ratio (z) = 0.26417 0.02912
#
# Static dielectric constant tensor:
#      x y z
#    x 1.735950 0.000000 0.000000 
#    y 0.000000 1.678200 0.000000 
#    z 0.000000 0.000000 1.733780 
# 
# From -- ./inp_files/13818.got.cif
#   From: 2010.05.17/outbox.cif.g08.bks.cpg/sg42_7_cif.got.tgz:13818.got - 2010.06.03 19:03:34.
