data_PCOD9369986
_publ_section_title
;
Structure prediction by ZEFSAII (Michael W. Deem and Ramdas Pophale) SiO2 
 PCOD9369986
Probable space group: F M M 2
;
_chemical_formula_sum "Si O2"
_cell_formula_units_Z 112
_cell_length_a 14.297309
_cell_length_b 10.793454
_cell_length_c 34.829361
_cell_angle_alpha 90.000000
_cell_angle_beta 90.000000
_cell_angle_gamma 90.000000
_cell_volume 5374.774588
_symmetry_space_group_name_H-M "F M M 2"
_symmetry_group_IT_number 42
_symmetry_cell_setting 'orthorhombic'
loop_
_space_group_symop_operation_xyz
x,y,z
-x,-y,z
-x,y,z
x,-y,z
x,1/2+y,1/2+z
-x,1/2-y,1/2+z
-x,1/2+y,1/2+z
x,1/2-y,1/2+z
1/2+x,y,1/2+z
1/2-x,-y,1/2+z
1/2-x,y,1/2+z
1/2+x,-y,1/2+z
1/2+x,1/2+y,z
1/2-x,1/2-y,z
1/2-x,1/2+y,z
1/2+x,1/2-y,z
loop_
_atom_site_type_symbol
_atom_site_label
_atom_site_fract_x
_atom_site_fract_y
_atom_site_fract_z
Si Si1 0.386016 0.639667 0.368600
Si Si2 0.106537 0.350882 0.510564
Si Si3 0.613912 0.861408 0.780108
Si Si4 0.651876 0.137367 0.595022
Si Si5 0.885611 0.143524 0.926234
Si Si6 0.613156 0.860386 0.224592
Si Si7 0.647375 0.865402 0.136736
O O1 0.500000 0.640150 0.368788
O O2 0.357911 0.500000 0.381154
O O3 0.356421 0.655928 0.324303
O O4 0.357003 0.754550 0.395048
O O5 0.102284 0.500000 0.507221
O O6 0.158439 0.326174 0.550298
O O7 0.143810 0.312548 0.468945
O O8 0.000000 0.304373 0.515095
O O9 0.500000 0.860715 0.780297
O O10 0.642616 0.749028 0.752892
O O11 0.642503 0.000000 0.767277
O O12 0.601219 0.246244 0.617735
O O13 0.752319 0.127283 0.615648
O O14 0.609050 0.000000 0.596625
O O15 0.000000 0.141373 0.927063
O O16 0.856923 0.000000 0.918936
O O17 0.500000 0.852787 0.219960
O O18 0.655775 0.846798 0.182244
O O19 0.633555 0.000000 0.238914
O O20 0.602669 0.000000 0.131186
#
# Coordination Sequence:
#
# PCOD9369986 Si02
#       7
#    16  16  16  16  16  16  16
#     4   8  13  21  33  51  79 113 143 171 204 241
#     4   8  14  25  41  62  86 110 141 181 216 245
#     4   8  14  24  37  55  81 112 145 179 211 245
#     4   9  17  30  47  62  79 108 142 175 214 259
#     4   8  13  21  34  53  78 108 140 172 204 240
#     4   9  17  28  41  58  83 114 144 177 217 255
#     4   9  18  31  44  60  83 108 138 177 218 260
#
# _framework density 20.838083000000001
#
# number of rings (size 3 to 8) (size 9 to 14) (size 15 to 20)
#    0.000    3.571    0.000    1.714    0.000    1.714 
#    0.000    3.571    0.000    0.857    0.000    0.000 
#    0.000    4.571    0.000   22.571    0.000   24.857 
#
# Total GULP energy -155955.208934 kJ/mol
# GULP energy per Si atom -5569.828891 kJ/mol
# Density = 2.079066 g / cm^3
# Si number density = 20.838083 Si / 1000 Ang^3
#
#
#
# Elastic Constant Matrix: (Units=GPa)
#
#
# Indices 1 2 3 4 5 6 
#
# 1 77.3392 15.8154 26.3681 0.0000 0.0000 0.0000
# 2 15.8154 199.2471 118.3135 0.0000 0.0000 0.0000
# 3 26.3681 118.3135 154.1263 0.0000 0.0000 0.0000
# 4 0.0000 0.0000 0.0000 73.2585 0.0000 0.0000
# 5 0.0000 0.0000 0.0000 0.0000 24.1246 0.0000
# 6 0.0000 0.0000 0.0000 0.0000 0.0000 -20.2238
#
#
#
# Elastic Compliance Matrix: (Units=1/GPa)
#
#
# Indices 1 2 3 4 5 6 
#
# 1 0.013765 0.000562 -0.002786 0.000000 0.000000 0.000000
# 2 0.000562 0.009246 -0.007194 0.000000 0.000000 0.000000
# 3 -0.002786 -0.007194 0.012487 0.000000 0.000000 0.000000
# 4 0.000000 0.000000 0.000000 0.013650 0.000000 0.000000
# 5 0.000000 0.000000 0.000000 0.000000 0.041452 0.000000
# 6 0.000000 0.000000 0.000000 0.000000 0.000000 -0.049447
#
#
# Mechanical properties :
#
#
# Convention : Reuss Voigt Hill
#
# Bulk Modulus (GPa) = 60.01709 83.52296 71.77002
# Shear Modulus (GPa) = 76.28543 33.44621 54.86582
#
# Velocity S-wave (km/s) = 6.05707 4.01066 5.13680
# Velocity P-wave (km/s) = 8.81939 7.84959 8.34858
#
# Compressibility (1/GPa) = 0.01666192
#
# Stress axis : x y z
#
# Youngs Moduli (GPa) = 72.64748 108.15603 80.08333
#
# Poissons Ratio (x) = -0.06077 0.22313
# Poissons Ratio (y) = -0.04082 0.57609
# Poissons Ratio (z) = 0.20241 0.77804
#
# Static dielectric constant tensor:
#      x y z
#    x 1.692570 0.000000 0.000000 
#    y 0.000000 1.795100 0.000000 
#    z 0.000000 0.000000 1.728930 
# 
# From -- ./inp_files/34310.got.cif
#   From: 2010.05.17/outbox.cif.g08.bks.cpg/sg42_18_cif.got.tgz:34310.got - 2010.06.03 19:03:34.
