data_PCOD9369536
_publ_section_title
;
Structure prediction by ZEFSAII (Michael W. Deem and Ramdas Pophale) SiO2 
 PCOD9369536
Probable space group: F M M 2
;
_chemical_formula_sum "Si O2"
_cell_formula_units_Z 116
_cell_length_a 19.411629
_cell_length_b 15.458696
_cell_length_c 17.884967
_cell_angle_alpha 90.000000
_cell_angle_beta 90.000000
_cell_angle_gamma 90.000000
_cell_volume 5366.893562
_symmetry_space_group_name_H-M "F M M 2"
_symmetry_group_IT_number 42
_symmetry_cell_setting 'orthorhombic'
loop_
_space_group_symop_operation_xyz
x,y,z
-x,-y,z
-x,y,z
x,-y,z
x,1/2+y,1/2+z
-x,1/2-y,1/2+z
-x,1/2+y,1/2+z
x,1/2-y,1/2+z
1/2+x,y,1/2+z
1/2-x,-y,1/2+z
1/2-x,y,1/2+z
1/2+x,-y,1/2+z
1/2+x,1/2+y,z
1/2-x,1/2-y,z
1/2-x,1/2+y,z
1/2+x,1/2-y,z
loop_
_atom_site_type_symbol
_atom_site_label
_atom_site_fract_x
_atom_site_fract_y
_atom_site_fract_z
Si Si1 0.000000 0.000000 0.076221
Si Si2 0.417524 0.169207 0.067925
Si Si3 0.707414 0.602600 0.166882
Si Si4 0.855008 0.604251 0.220909
Si Si5 0.920696 0.866458 0.411404
Si Si6 0.922145 0.400909 0.749838
Si Si7 0.122777 0.866576 0.037199
Si Si8 0.080138 0.338738 0.376952
O O1 0.060937 0.075194 0.069795
O O2 0.500000 0.170673 0.062533
O O3 0.396822 0.130251 0.146859
O O4 0.392422 0.266878 0.056101
O O5 0.390838 0.118670 0.993618
O O6 0.706821 0.500000 0.183351
O O7 0.777541 0.636030 0.202126
O O8 0.638161 0.642416 0.202970
O O9 0.694349 0.612165 0.078577
O O10 0.855419 0.500000 0.227940
O O11 0.886177 0.642247 0.297137
O O12 0.894077 0.904818 0.334364
O O13 0.920227 0.763637 0.394506
O O14 0.000000 0.896224 0.413756
O O15 0.931355 0.500000 0.723448
O O16 0.000000 0.362122 0.747409
O O17 0.119427 0.879683 0.947854
O O18 0.000000 0.368039 0.377698
#
# Coordination Sequence:
#
# PCOD9369536 Si02
#       8
#     4  16  16  16  16  16  16  16
#     4  12  20  36  72 108 118 152 204 276 336 372
#     4  10  21  40  62  91 125 162 208 257 310 373
#     4  10  23  40  57  87 129 162 205 256 316 381
#     4  11  26  43  59  87 130 177 213 251 308 381
#     4   8  17  36  58  87 121 151 197 255 314 363
#     4   9  18  32  59  89 114 153 206 264 316 369
#     4  11  22  38  68  97 128 156 200 271 334 375
#     4  10  21  39  63  96 124 157 210 266 317 369
#
# _framework density 21.613994000000002
#
# number of rings (size 3 to 8) (size 9 to 14) (size 15 to 20)
#    0.000    2.069    2.069    1.241    3.862    2.207 
#    2.483    1.379    0.000    0.000    0.000    0.000 
#    0.000    0.000    0.000    0.000    0.000    0.000 
#
# Total GULP energy -161526.992608 kJ/mol
# GULP energy per Si atom -5569.896297 kJ/mol
# Density = 2.156480 g / cm^3
# Si number density = 21.613994 Si / 1000 Ang^3
#
#
#
# Elastic Constant Matrix: (Units=GPa)
#
#
# Indices 1 2 3 4 5 6 
#
# 1 38.4243 -2.2817 35.9794 0.0000 0.0000 0.0000
# 2 -2.2817 38.9168 13.7123 0.0000 0.0000 0.0000
# 3 35.9794 13.7123 187.6745 0.0000 0.0000 0.0000
# 4 0.0000 0.0000 0.0000 63.5425 0.0000 0.0000
# 5 0.0000 0.0000 0.0000 0.0000 24.8414 0.0000
# 6 0.0000 0.0000 0.0000 0.0000 0.0000 13.1856
#
#
#
# Elastic Compliance Matrix: (Units=1/GPa)
#
#
# Indices 1 2 3 4 5 6 
#
# 1 0.032372 0.004193 -0.006512 0.000000 0.000000 0.000000
# 2 0.004193 0.026918 -0.002771 0.000000 0.000000 0.000000
# 3 -0.006512 -0.002771 0.006779 0.000000 0.000000 0.000000
# 4 0.000000 0.000000 0.000000 0.015738 0.000000 0.000000
# 5 0.000000 0.000000 0.000000 0.000000 0.040255 0.000000
# 6 0.000000 0.000000 0.000000 0.000000 0.000000 0.075840
#
#
# Mechanical properties :
#
#
# Convention : Reuss Voigt Hill
#
# Bulk Modulus (GPa) = 17.89270 39.98175 28.93722
# Shear Modulus (GPa) = 22.05434 34.82094 28.43764
#
# Velocity S-wave (km/s) = 3.19779 4.01813 3.63120
# Velocity P-wave (km/s) = 4.68303 6.32972 5.56759
#
# Compressibility (1/GPa) = 0.05588871
#
# Stress axis : x y z
#
# Youngs Moduli (GPa) = 30.89065 37.15010 147.50748
#
# Poissons Ratio (x) = -0.15576 0.96064
# Poissons Ratio (y) = -0.12951 0.40867
# Poissons Ratio (z) = 0.20117 0.10292
#
# Static dielectric constant tensor:
#      x y z
#    x 1.826010 0.000000 0.000000 
#    y 0.000000 1.799540 0.000000 
#    z 0.000000 0.000000 1.865380 
# 
# From -- ./inp_files/20945.got.cif
#   From: 2010.05.17/outbox.cif.g08.bks.cpg/sg42_11_cif.got.tgz:20945.got - 2010.06.03 19:03:34.
