data_PCOD9369905
_publ_section_title
;
Structure prediction by ZEFSAII (Michael W. Deem and Ramdas Pophale) SiO2 
 PCOD9369905
Probable space group: F M M 2
;
_chemical_formula_sum "Si O2"
_cell_formula_units_Z 72
_cell_length_a 8.555740
_cell_length_b 14.892327
_cell_length_c 24.357225
_cell_angle_alpha 90.000000
_cell_angle_beta 90.000000
_cell_angle_gamma 90.000000
_cell_volume 3103.472847
_symmetry_space_group_name_H-M "F M M 2"
_symmetry_group_IT_number 42
_symmetry_cell_setting 'orthorhombic'
loop_
_space_group_symop_operation_xyz
x,y,z
-x,-y,z
-x,y,z
x,-y,z
x,1/2+y,1/2+z
-x,1/2-y,1/2+z
-x,1/2+y,1/2+z
x,1/2-y,1/2+z
1/2+x,y,1/2+z
1/2-x,-y,1/2+z
1/2-x,y,1/2+z
1/2+x,-y,1/2+z
1/2+x,1/2+y,z
1/2-x,1/2-y,z
1/2-x,1/2+y,z
1/2+x,1/2-y,z
loop_
_atom_site_type_symbol
_atom_site_label
_atom_site_fract_x
_atom_site_fract_y
_atom_site_fract_z
Si Si1 0.170321 0.900422 0.882510
Si Si2 0.315157 0.102447 0.547554
Si Si3 0.185762 0.148009 0.663607
Si Si4 0.818881 0.849472 0.274986
Si Si5 0.250000 0.250000 0.970063
O O1 0.294774 0.893178 0.834205
O O2 0.175331 0.820060 0.926313
O O3 0.000000 0.894257 0.854894
O O4 0.181926 0.000000 0.907699
O O5 0.500000 0.128265 0.539788
O O6 0.271177 0.106006 0.611427
O O7 0.205604 0.172446 0.514571
O O8 0.296555 0.000000 0.529391
O O9 0.250000 0.250000 0.665243
O O10 0.230548 0.108513 0.722982
O O11 0.000000 0.146126 0.656030
O O12 0.750000 0.750000 0.282635
O O13 0.000000 0.844731 0.260689
#
# Coordination Sequence:
#
# PCOD9369905 Si02
#       5
#    16  16  16  16   8
#     4  11  25  45  70 102 140 183 229 280 342 408
#     4  11  25  45  70 102 140 183 229 280 342 408
#     4  11  22  40  69 102 139 180 225 278 340 408
#     4  11  22  40  69 102 139 180 225 278 340 408
#     4  12  24  42  74  98 134 180 232 286 336 402
#
# _framework density 23.199816999999999
#
# number of rings (size 3 to 8) (size 9 to 14) (size 15 to 20)
#    0.000    0.889    2.222    6.667    0.000    5.333 
#    0.000    0.000    0.000    8.000    0.000    0.000 
#    0.000    0.000    0.000    0.000    0.000    0.000 
#
# Total GULP energy -100375.030054 kJ/mol
# GULP energy per Si atom -5576.390559 kJ/mol
# Density = 2.314701 g / cm^3
# Si number density = 23.199817 Si / 1000 Ang^3
#
#
#
# Elastic Constant Matrix: (Units=GPa)
#
#
# Indices 1 2 3 4 5 6 
#
# 1 91.5372 31.7056 23.8459 0.0000 0.0000 0.0000
# 2 31.7056 146.9774 36.7618 0.0000 0.0000 0.0000
# 3 23.8459 36.7618 143.3041 0.0000 0.0000 0.0000
# 4 0.0000 0.0000 0.0000 -54.6723 0.0000 0.0000
# 5 0.0000 0.0000 0.0000 0.0000 -4.7147 0.0000
# 6 0.0000 0.0000 0.0000 0.0000 0.0000 12.2328
#
#
#
# Elastic Compliance Matrix: (Units=1/GPa)
#
#
# Indices 1 2 3 4 5 6 
#
# 1 0.012076 -0.002247 -0.001433 0.000000 0.000000 0.000000
# 2 -0.002247 0.007688 -0.001598 0.000000 0.000000 0.000000
# 3 -0.001433 -0.001598 0.007627 0.000000 0.000000 0.000000
# 4 0.000000 0.000000 0.000000 -0.018291 0.000000 0.000000
# 5 0.000000 0.000000 0.000000 0.000000 -0.212104 0.000000
# 6 0.000000 0.000000 0.000000 0.000000 0.000000 0.081747
#
#
# Mechanical properties :
#
#
# Convention : Reuss Voigt Hill
#
# Bulk Modulus (GPa) = 59.40137 62.93838 61.16987
# Shear Modulus (GPa) = -47.57888 9.86953 -18.85467
#
# Velocity S-wave (km/s) = -4.53352 2.06480 -2.85390
# Velocity P-wave (km/s) = 1.32058 5.73343 3.94514
#
# Compressibility (1/GPa) = 0.01683463
#
# Stress axis : x y z
#
# Youngs Moduli (GPa) = 82.80894 130.06974 131.11849
#
# Poissons Ratio (x) = 0.29221 0.18791
# Poissons Ratio (y) = 0.18603 0.20958
# Poissons Ratio (z) = 0.11868 0.20791
#
# Static dielectric constant tensor:
#      x y z
#    x 1.820470 0.000000 0.000000 
#    y 0.000000 1.911820 0.000000 
#    z 0.000000 0.000000 1.884850 
# 
# From -- ./inp_files/31103.got.cif
#   From: 2010.05.17/outbox.cif.g08.bks.cpg/sg42_16_cif.got.tgz:31103.got - 2010.06.03 19:03:34.
