data_PCOD9369241
_publ_section_title
;
Structure prediction by ZEFSAII (Michael W. Deem and Ramdas Pophale) SiO2 
 PCOD9369241
Probable space group: F M M 2
;
_chemical_formula_sum "Si O2"
_cell_formula_units_Z 72
_cell_length_a 14.925386
_cell_length_b 7.454185
_cell_length_c 25.393820
_cell_angle_alpha 90.000000
_cell_angle_beta 90.000000
_cell_angle_gamma 90.000000
_cell_volume 2825.229781
_symmetry_space_group_name_H-M "F M M 2"
_symmetry_group_IT_number 42
_symmetry_cell_setting 'orthorhombic'
loop_
_space_group_symop_operation_xyz
x,y,z
-x,-y,z
-x,y,z
x,-y,z
x,1/2+y,1/2+z
-x,1/2-y,1/2+z
-x,1/2+y,1/2+z
x,1/2-y,1/2+z
1/2+x,y,1/2+z
1/2-x,-y,1/2+z
1/2-x,y,1/2+z
1/2+x,-y,1/2+z
1/2+x,1/2+y,z
1/2-x,1/2-y,z
1/2-x,1/2+y,z
1/2+x,1/2-y,z
loop_
_atom_site_type_symbol
_atom_site_label
_atom_site_fract_x
_atom_site_fract_y
_atom_site_fract_z
Si Si1 0.396240 0.711262 0.132800
Si Si2 0.643552 0.286167 0.901716
Si Si3 0.825239 0.000000 0.714174
Si Si4 0.102714 0.800921 0.285573
Si Si5 0.356077 0.286526 0.015733
O O1 0.500000 0.721160 0.149748
O O2 0.368496 0.500000 0.135899
O O3 0.392632 0.772653 0.071904
O O4 0.339827 0.841877 0.169148
O O5 0.627695 0.500000 0.898853
O O6 0.750000 0.250000 0.900853
O O7 0.606029 0.203163 0.848648
O O8 0.610747 0.218922 0.958911
O O9 0.835193 0.154113 0.760304
O O10 0.000000 0.760081 0.270087
O O11 0.126244 0.000000 0.266049
O O12 0.371545 0.500000 0.014434
O O13 0.250000 0.250000 0.017305
#
# Coordination Sequence:
#
# PCOD9369241 Si02
#       5
#    16  16   8  16  16
#     4  10  21  38  61  89 120 155 200 249 295 354
#     4  10  20  38  63  89 123 163 200 246 304 362
#     4  12  23  40  64  88 118 162 203 244 307 360
#     4  11  23  39  62  91 122 157 203 254 298 356
#     4   9  20  37  61  88 120 160 195 243 301 356
#
# _framework density 25.484653999999999
#
# number of rings (size 3 to 8) (size 9 to 14) (size 15 to 20)
#    0.000    1.778    1.111    3.333    1.556    3.556 
#    0.000    3.333    0.000    0.000    0.000    0.000 
#    0.000    0.000    0.000    0.000    0.000    0.000 
#
# Total GULP energy -100307.471382 kJ/mol
# GULP energy per Si atom -5572.637299 kJ/mol
# Density = 2.542665 g / cm^3
# Si number density = 25.484654 Si / 1000 Ang^3
#
#
#
# Elastic Constant Matrix: (Units=GPa)
#
#
# Indices 1 2 3 4 5 6 
#
# 1 80.7452 26.1488 13.1050 0.0000 0.0000 0.0000
# 2 26.1488 151.6514 39.8700 0.0000 0.0000 0.0000
# 3 13.1050 39.8700 236.1578 0.0000 0.0000 0.0000
# 4 0.0000 0.0000 0.0000 35.4884 0.0000 0.0000
# 5 0.0000 0.0000 0.0000 0.0000 -117.4333 0.0000
# 6 0.0000 0.0000 0.0000 0.0000 0.0000 1.1614
#
#
#
# Elastic Compliance Matrix: (Units=1/GPa)
#
#
# Indices 1 2 3 4 5 6 
#
# 1 0.013147 -0.002171 -0.000363 0.000000 0.000000 0.000000
# 2 -0.002171 0.007259 -0.001105 0.000000 0.000000 0.000000
# 3 -0.000363 -0.001105 0.004441 0.000000 0.000000 0.000000
# 4 0.000000 0.000000 0.000000 0.028178 0.000000 0.000000
# 5 0.000000 0.000000 0.000000 0.000000 -0.008515 0.000000
# 6 0.000000 0.000000 0.000000 0.000000 0.000000 0.861034
#
#
# Mechanical properties :
#
#
# Convention : Reuss Voigt Hill
#
# Bulk Modulus (GPa) = 56.92134 69.64464 63.28299
# Shear Modulus (GPa) = 5.44260 9.80534 7.62397
#
# Velocity S-wave (km/s) = 1.46297 1.96364 1.73150
# Velocity P-wave (km/s) = 5.02372 5.70338 5.37431
#
# Compressibility (1/GPa) = 0.01756810
#
# Stress axis : x y z
#
# Youngs Moduli (GPa) = 76.06446 137.76005 225.16661
#
# Poissons Ratio (x) = 0.29914 0.08172
# Poissons Ratio (y) = 0.16517 0.24881
# Poissons Ratio (z) = 0.02761 0.15223
#
# Static dielectric constant tensor:
#      x y z
#    x 2.069690 0.000000 0.000000 
#    y 0.000000 1.965850 0.000000 
#    z 0.000000 0.000000 1.997850 
# 
# From -- ./inp_files/29746.got.cif
#   From: 2010.05.17/outbox.cif.g08.bks.cpg/sg42_15_cif.got.tgz:29746.got - 2010.06.03 19:03:34.
