data_PCOD9369149
_publ_section_title
;
Structure prediction by ZEFSAII (Michael W. Deem and Ramdas Pophale) SiO2 
 PCOD9369149
Probable space group: F M M 2
;
_chemical_formula_sum "Si O2"
_cell_formula_units_Z 80
_cell_length_a 16.689304
_cell_length_b 9.838462
_cell_length_c 26.087641
_cell_angle_alpha 90.000000
_cell_angle_beta 90.000000
_cell_angle_gamma 90.000000
_cell_volume 4283.514560
_symmetry_space_group_name_H-M "F M M 2"
_symmetry_group_IT_number 42
_symmetry_cell_setting 'orthorhombic'
loop_
_space_group_symop_operation_xyz
x,y,z
-x,-y,z
-x,y,z
x,-y,z
x,1/2+y,1/2+z
-x,1/2-y,1/2+z
-x,1/2+y,1/2+z
x,1/2-y,1/2+z
1/2+x,y,1/2+z
1/2-x,-y,1/2+z
1/2-x,y,1/2+z
1/2+x,-y,1/2+z
1/2+x,1/2+y,z
1/2-x,1/2-y,z
1/2-x,1/2+y,z
1/2+x,1/2-y,z
loop_
_atom_site_type_symbol
_atom_site_label
_atom_site_fract_x
_atom_site_fract_y
_atom_site_fract_z
Si Si1 0.166044 0.000000 0.018230
Si Si2 0.097174 0.000000 0.402178
Si Si3 0.407807 0.500000 0.669483
Si Si4 0.596624 0.500000 0.284453
Si Si5 0.594579 0.500000 0.129111
Si Si6 0.594929 0.726954 0.482640
Si Si7 0.848079 0.000000 0.557002
Si Si8 0.344180 0.221818 0.705764
O O1 0.111037 0.000000 0.069077
O O2 0.256907 0.000000 0.037757
O O3 0.144691 0.864213 0.987511
O O4 0.123256 0.000000 0.343508
O O5 0.120671 0.132465 0.434903
O O6 0.000000 0.000000 0.402494
O O7 0.500000 0.500000 0.652980
O O8 0.354542 0.500000 0.618002
O O9 0.388721 0.364911 0.701171
O O10 0.500000 0.500000 0.282472
O O11 0.628248 0.369007 0.253709
O O12 0.500000 0.500000 0.140004
O O13 0.633421 0.368749 0.156110
O O14 0.500000 0.756299 0.478798
O O15 0.609917 0.632446 0.532508
O O16 0.250000 0.250000 0.707333
#
# Coordination Sequence:
#
# PCOD9369149 Si02
#       8
#     8   8   8   8   8  16   8  16
#     4  12  22  34  55  86 117 145 184 236 274 310
#     4   8  18  38  64  82 104 144 189 227 276 338
#     4  12  22  35  55  83 113 148 190 233 266 313
#     4  10  20  41  64  81 105 148 189 223 277 348
#     4  11  22  38  56  79 113 159 192 214 262 337
#     4  10  20  37  57  81 108 145 190 231 270 325
#     4  11  22  36  52  77 117 158 182 215 276 338
#     4  11  22  37  56  83 114 144 182 232 279 325
#
# _framework density 18.676252000000002
#
# number of rings (size 3 to 8) (size 9 to 14) (size 15 to 20)
#    0.000    1.400    0.000    9.000    0.000    0.000 
#    0.000    5.000    0.000    2.400    0.000    0.000 
#    0.000    0.000    0.000    0.000    0.000    0.000 
#
# Total GULP energy -111815.005623 kJ/mol
# GULP energy per Si atom -5590.750281 kJ/mol
# Density = 1.863374 g / cm^3
# Si number density = 18.676252 Si / 1000 Ang^3
#
#
#
# Elastic Constant Matrix: (Units=GPa)
#
#
# Indices 1 2 3 4 5 6 
#
# 1 116.2768 39.4830 21.8898 0.0000 0.0000 0.0000
# 2 39.4830 162.0039 65.7788 0.0000 0.0000 0.0000
# 3 21.8898 65.7788 127.0634 0.0000 0.0000 0.0000
# 4 0.0000 0.0000 0.0000 5.3214 0.0000 0.0000
# 5 0.0000 0.0000 0.0000 0.0000 -3.8551 0.0000
# 6 0.0000 0.0000 0.0000 0.0000 0.0000 19.9973
#
#
#
# Elastic Compliance Matrix: (Units=1/GPa)
#
#
# Indices 1 2 3 4 5 6 
#
# 1 0.009406 -0.002069 -0.000549 0.000000 0.000000 0.000000
# 2 -0.002069 0.008271 -0.003925 0.000000 0.000000 0.000000
# 3 -0.000549 -0.003925 0.009997 0.000000 0.000000 0.000000
# 4 0.000000 0.000000 0.000000 0.187922 0.000000 0.000000
# 5 0.000000 0.000000 0.000000 0.000000 -0.259397 0.000000
# 6 0.000000 0.000000 0.000000 0.000000 0.000000 0.050007
#
#
# Mechanical properties :
#
#
# Convention : Reuss Voigt Hill
#
# Bulk Modulus (GPa) = 68.55786 73.29414 70.92600
# Shear Modulus (GPa) = 206.99839 22.83889 114.91864
#
# Velocity S-wave (km/s) = 10.53925 3.50077 7.85274
# Velocity P-wave (km/s) = 13.59740 7.46125 10.96721
#
# Compressibility (1/GPa) = 0.01458622
#
# Stress axis : x y z
#
# Youngs Moduli (GPa) = 106.31216 120.90740 100.03328
#
# Poissons Ratio (x) = 0.25022 0.05493
# Poissons Ratio (y) = 0.22001 0.39264
# Poissons Ratio (z) = 0.05838 0.47458
#
# Static dielectric constant tensor:
#      x y z
#    x 1.646540 0.000000 0.000000 
#    y 0.000000 1.635950 0.000000 
#    z 0.000000 0.000000 1.622940 
# 
# From -- ./inp_files/32804.got.cif
#   From: 2010.05.17/outbox.cif.g08.bks.cpg/sg42_17_cif.got.tgz:32804.got - 2010.06.03 19:03:34.
