data_PCOD9369870
_publ_section_title
;
Structure prediction by ZEFSAII (Michael W. Deem and Ramdas Pophale) SiO2 
 PCOD9369870
Probable space group: F M M 2
;
_chemical_formula_sum "Si O2"
_cell_formula_units_Z 96
_cell_length_a 17.975804
_cell_length_b 10.884909
_cell_length_c 26.377308
_cell_angle_alpha 90.000000
_cell_angle_beta 90.000000
_cell_angle_gamma 90.000000
_cell_volume 5161.115726
_symmetry_space_group_name_H-M "F M M 2"
_symmetry_group_IT_number 42
_symmetry_cell_setting 'orthorhombic'
loop_
_space_group_symop_operation_xyz
x,y,z
-x,-y,z
-x,y,z
x,-y,z
x,1/2+y,1/2+z
-x,1/2-y,1/2+z
-x,1/2+y,1/2+z
x,1/2-y,1/2+z
1/2+x,y,1/2+z
1/2-x,-y,1/2+z
1/2-x,y,1/2+z
1/2+x,-y,1/2+z
1/2+x,1/2+y,z
1/2-x,1/2-y,z
1/2-x,1/2+y,z
1/2+x,1/2-y,z
loop_
_atom_site_type_symbol
_atom_site_label
_atom_site_fract_x
_atom_site_fract_y
_atom_site_fract_z
Si Si1 0.685210 0.145471 0.720630
Si Si2 0.838628 0.745675 0.932015
Si Si3 0.690271 0.638673 0.331946
Si Si4 0.661447 0.725603 0.113170
Si Si5 0.416802 0.643285 0.531521
Si Si6 0.087019 0.000000 0.056703
Si Si7 0.413754 0.000000 0.434768
O O1 0.750000 0.250000 0.722884
O O2 0.650631 0.148828 0.777088
O O3 0.641193 0.188293 0.670678
O O4 0.707817 0.000000 0.712433
O O5 0.750000 0.750000 0.939881
O O6 0.854362 0.658016 0.883916
O O7 0.870918 0.878429 0.918017
O O8 0.874239 0.703488 0.984600
O O9 0.722966 0.500000 0.332879
O O10 0.750000 0.750000 0.333026
O O11 0.750000 0.750000 0.111082
O O12 0.621711 0.838745 0.085911
O O13 0.632260 0.615385 0.078129
O O14 0.500000 0.696672 0.533637
O O15 0.420413 0.500000 0.520572
O O16 0.088035 0.000000 0.996059
O O17 0.000000 0.000000 0.072901
O O18 0.500000 0.000000 0.418904
#
# Coordination Sequence:
#
# PCOD9369870 Si02
#       7
#    16  16  16  16  16   8   8
#     4   9  18  34  55  86 120 154 194 248 308 352
#     4  11  23  35  62  89 120 152 204 253 296 350
#     4   9  19  34  56  86 124 155 195 251 311 358
#     4  11  22  34  60  88 116 148 196 248 289 348
#     4  11  24  39  56  81 119 161 193 237 306 367
#     4  11  22  38  58  83 116 158 194 236 297 357
#     4  11  24  40  60  87 122 166 204 246 309 377
#
# _framework density 18.600629000000001
#
# number of rings (size 3 to 8) (size 9 to 14) (size 15 to 20)
#    0.000    1.667    2.500    2.000    7.000    0.667 
#    0.000    0.000    0.000    4.000    0.000    0.000 
#    0.000    0.000    0.000    0.000    0.000    0.000 
#
# Total GULP energy -133604.450348 kJ/mol
# GULP energy per Si atom -5566.852098 kJ/mol
# Density = 1.855829 g / cm^3
# Si number density = 18.600629 Si / 1000 Ang^3
#
#
#
# Elastic Constant Matrix: (Units=GPa)
#
#
# Indices 1 2 3 4 5 6 
#
# 1 89.2266 24.3749 35.4895 0.0000 0.0000 0.0000
# 2 24.3749 110.7649 27.9540 0.0000 0.0000 0.0000
# 3 35.4895 27.9540 141.0148 0.0000 0.0000 0.0000
# 4 0.0000 0.0000 0.0000 26.9535 0.0000 0.0000
# 5 0.0000 0.0000 0.0000 0.0000 -19.9986 0.0000
# 6 0.0000 0.0000 0.0000 0.0000 0.0000 17.7951
#
#
#
# Elastic Compliance Matrix: (Units=1/GPa)
#
#
# Indices 1 2 3 4 5 6 
#
# 1 0.012914 -0.002128 -0.002828 0.000000 0.000000 0.000000
# 2 -0.002128 0.009854 -0.001418 0.000000 0.000000 0.000000
# 3 -0.002828 -0.001418 0.008084 0.000000 0.000000 0.000000
# 4 0.000000 0.000000 0.000000 0.037101 0.000000 0.000000
# 5 0.000000 0.000000 0.000000 0.000000 -0.050003 0.000000
# 6 0.000000 0.000000 0.000000 0.000000 0.000000 0.056195
#
#
# Mechanical properties :
#
#
# Convention : Reuss Voigt Hill
#
# Bulk Modulus (GPa) = 55.23624 57.40479 56.32052
# Shear Modulus (GPa) = 53.80537 21.82921 37.81729
#
# Velocity S-wave (km/s) = 5.38418 3.42946 4.51390
# Velocity P-wave (km/s) = 8.27121 6.82718 7.58364
#
# Compressibility (1/GPa) = 0.01810406
#
# Stress axis : x y z
#
# Youngs Moduli (GPa) = 77.43753 101.47898 123.69655
#
# Poissons Ratio (x) = 0.21595 0.34983
# Poissons Ratio (y) = 0.16479 0.17539
# Poissons Ratio (z) = 0.21901 0.14389
#
# Static dielectric constant tensor:
#      x y z
#    x 1.631200 0.000000 0.000000 
#    y 0.000000 1.662270 0.000000 
#    z 0.000000 0.000000 1.677270 
# 
# From -- ./inp_files/32825.got.cif
#   From: 2010.05.17/outbox.cif.g08.bks.cpg/sg42_17_cif.got.tgz:32825.got - 2010.06.03 19:03:34.
