data_PCOD9369371
_publ_section_title
;
Structure prediction by ZEFSAII (Michael W. Deem and Ramdas Pophale) SiO2 
 PCOD9369371
Probable space group: F M M 2
;
_chemical_formula_sum "Si O2"
_cell_formula_units_Z 112
_cell_length_a 22.487604
_cell_length_b 20.611429
_cell_length_c 11.543235
_cell_angle_alpha 90.000000
_cell_angle_beta 90.000000
_cell_angle_gamma 90.000000
_cell_volume 5350.308506
_symmetry_space_group_name_H-M "F M M 2"
_symmetry_group_IT_number 42
_symmetry_cell_setting 'orthorhombic'
loop_
_space_group_symop_operation_xyz
x,y,z
-x,-y,z
-x,y,z
x,-y,z
x,1/2+y,1/2+z
-x,1/2-y,1/2+z
-x,1/2+y,1/2+z
x,1/2-y,1/2+z
1/2+x,y,1/2+z
1/2-x,-y,1/2+z
1/2-x,y,1/2+z
1/2+x,-y,1/2+z
1/2+x,1/2+y,z
1/2-x,1/2-y,z
1/2-x,1/2+y,z
1/2+x,1/2-y,z
loop_
_atom_site_type_symbol
_atom_site_label
_atom_site_fract_x
_atom_site_fract_y
_atom_site_fract_z
Si Si1 0.352611 0.811775 0.907120
Si Si2 0.433347 0.426982 0.310585
Si Si3 0.910389 0.142617 0.091997
Si Si4 0.259601 0.612911 0.855298
Si Si5 0.709569 0.427510 0.106091
Si Si6 0.890960 0.333244 0.342730
Si Si7 0.065526 0.208946 0.612844
O O1 0.388881 0.872552 0.855728
O O2 0.284387 0.826183 0.877882
O O3 0.373214 0.742191 0.861189
O O4 0.376420 0.809016 0.038389
O O5 0.500000 0.419588 0.358406
O O6 0.412651 0.500000 0.333517
O O7 0.436413 0.412148 0.173906
O O8 0.839546 0.129397 0.099347
O O9 0.928803 0.213802 0.135657
O O10 0.924577 0.142161 0.956631
O O11 0.239899 0.580607 0.732772
O O12 0.328468 0.629807 0.835766
O O13 0.255471 0.577926 0.982549
O O14 0.682779 0.500000 0.105091
O O15 0.929698 0.332824 0.228322
O O16 0.000000 0.199412 0.557234
#
# Coordination Sequence:
#
# PCOD9369371 Si02
#       7
#    16  16  16  16  16  16  16
#     4  11  22  38  60  88 120 165 208 253 313 377
#     4  11  22  37  59  86 117 154 205 258 302 361
#     4  10  21  36  57  85 116 157 204 249 306 371
#     4  11  22  38  61  88 125 166 213 258 315 380
#     4  11  22  38  59  87 123 166 213 262 310 377
#     4  10  22  37  58  90 122 162 200 258 316 373
#     4  11  22  38  61  90 127 162 205 263 320 380
#
# _framework density 20.933371999999999
#
# number of rings (size 3 to 8) (size 9 to 14) (size 15 to 20)
#    0.000    1.286    2.857    3.000    0.000    3.429 
#    0.000    4.286    0.000    1.714    0.000    2.000 
#    0.000    0.000    0.000    0.000    0.000    0.000 
#
# Total GULP energy -156001.314489 kJ/mol
# GULP energy per Si atom -5571.475517 kJ/mol
# Density = 2.088573 g / cm^3
# Si number density = 20.933372 Si / 1000 Ang^3
#
#
#
# Elastic Constant Matrix: (Units=GPa)
#
#
# Indices 1 2 3 4 5 6 
#
# 1 49.5694 3.0693 8.4753 0.0000 0.0000 0.0000
# 2 3.0693 65.1772 10.2479 0.0000 0.0000 0.0000
# 3 8.4753 10.2479 100.8415 0.0000 0.0000 0.0000
# 4 0.0000 0.0000 0.0000 14.6262 0.0000 0.0000
# 5 0.0000 0.0000 0.0000 0.0000 6.2176 0.0000
# 6 0.0000 0.0000 0.0000 0.0000 0.0000 -194.9468
#
#
#
# Elastic Compliance Matrix: (Units=1/GPa)
#
#
# Indices 1 2 3 4 5 6 
#
# 1 0.020500 -0.000706 -0.001651 0.000000 0.000000 0.000000
# 2 -0.000706 0.015616 -0.001528 0.000000 0.000000 0.000000
# 3 -0.001651 -0.001528 0.010211 0.000000 0.000000 0.000000
# 4 0.000000 0.000000 0.000000 0.068371 0.000000 0.000000
# 5 0.000000 0.000000 0.000000 0.000000 0.160833 0.000000
# 6 0.000000 0.000000 0.000000 0.000000 0.000000 -0.005130
#
#
# Mechanical properties :
#
#
# Convention : Reuss Voigt Hill
#
# Bulk Modulus (GPa) = 25.93538 28.79699 27.36619
# Shear Modulus (GPa) = 17.18083 -21.90090 -2.36004
#
# Velocity S-wave (km/s) = 2.86796 -3.23804 -1.06294
# Velocity P-wave (km/s) = 4.83563 0.43990 3.40513
#
# Compressibility (1/GPa) = 0.03855736
#
# Stress axis : x y z
#
# Youngs Moduli (GPa) = 48.78103 64.03596 97.93763
#
# Poissons Ratio (x) = 0.04519 0.16171
# Poissons Ratio (y) = 0.03443 0.14962
# Poissons Ratio (z) = 0.08055 0.09783
#
# Static dielectric constant tensor:
#      x y z
#    x 1.785540 0.000000 0.000000 
#    y 0.000000 1.713580 0.000000 
#    z 0.000000 0.000000 1.835250 
# 
# From -- ./inp_files/9680.got.cif
#   From: 2010.05.17/outbox.cif.g08.bks.cpg/sg42_5_cif.got.tgz:9680.got - 2010.06.03 19:03:34.
