data_PCOD9369244
_publ_section_title
;
Structure prediction by ZEFSAII (Michael W. Deem and Ramdas Pophale) SiO2 
 PCOD9369244
Probable space group: F M M 2
;
_chemical_formula_sum "Si O2"
_cell_formula_units_Z 104
_cell_length_a 13.829886
_cell_length_b 20.349280
_cell_length_c 18.605456
_cell_angle_alpha 90.000000
_cell_angle_beta 90.000000
_cell_angle_gamma 90.000000
_cell_volume 5236.100412
_symmetry_space_group_name_H-M "F M M 2"
_symmetry_group_IT_number 42
_symmetry_cell_setting 'orthorhombic'
loop_
_space_group_symop_operation_xyz
x,y,z
-x,-y,z
-x,y,z
x,-y,z
x,1/2+y,1/2+z
-x,1/2-y,1/2+z
-x,1/2+y,1/2+z
x,1/2-y,1/2+z
1/2+x,y,1/2+z
1/2-x,-y,1/2+z
1/2-x,y,1/2+z
1/2+x,-y,1/2+z
1/2+x,1/2+y,z
1/2-x,1/2-y,z
1/2-x,1/2+y,z
1/2+x,1/2-y,z
loop_
_atom_site_type_symbol
_atom_site_label
_atom_site_fract_x
_atom_site_fract_y
_atom_site_fract_z
Si Si1 0.613971 0.378470 0.238410
Si Si2 0.885273 0.770606 0.362727
Si Si3 0.118695 0.352280 0.003861
Si Si4 0.317325 0.000000 0.829924
Si Si5 0.732585 0.674101 0.648649
Si Si6 0.893091 0.000000 0.475696
Si Si7 0.606212 0.000000 0.357921
Si Si8 0.110197 0.357122 0.285861
O O1 0.500000 0.392662 0.231400
O O2 0.625033 0.316440 0.292410
O O3 0.668344 0.437351 0.279322
O O4 0.665424 0.362450 0.162796
O O5 0.851729 0.809183 0.434083
O O6 0.848538 0.697590 0.341776
O O7 0.000000 0.763248 0.376150
O O8 0.147735 0.428801 0.994689
O O9 0.000000 0.348785 0.010980
O O10 0.176475 0.330127 0.073961
O O11 0.399300 0.000000 0.889659
O O12 0.219854 0.000000 0.879046
O O13 0.750000 0.750000 0.663599
O O14 0.666415 0.645720 0.711874
O O15 0.000000 0.000000 0.509010
O O16 0.605981 0.068898 0.315040
O O17 0.500000 0.000000 0.397351
O O18 0.000000 0.336258 0.271174
#
# Coordination Sequence:
#
# PCOD9369244 Si02
#       8
#    16  16  16   8  16   8   8  16
#     4  11  22  37  63  94 126 162 210 263 313 371
#     4   9  18  37  64  90 121 161 205 260 313 362
#     4  10  22  40  63  95 128 165 214 266 323 378
#     4  12  20  37  65  98 123 159 218 263 315 370
#     4  12  24  39  58  94 126 168 208 256 329 387
#     4  10  20  38  65  93 127 165 207 270 322 360
#     4  10  22  37  58  95 130 158 199 253 321 386
#     4  10  20  38  63  91 126 162 203 260 319 384
#
# _framework density 19.862109
#
# number of rings (size 3 to 8) (size 9 to 14) (size 15 to 20)
#    0.000    1.538    4.615    1.154    0.000    1.846 
#    5.538    2.308    0.000    0.923    0.000    0.000 
#    0.000    0.000    0.000    0.000    0.000    0.000 
#
# Total GULP energy -144810.295803 kJ/mol
# GULP energy per Si atom -5569.626762 kJ/mol
# Density = 1.981690 g / cm^3
# Si number density = 19.862109 Si / 1000 Ang^3
#
#
#
# Elastic Constant Matrix: (Units=GPa)
#
#
# Indices 1 2 3 4 5 6 
#
# 1 106.3224 -1.5179 21.5888 0.0000 0.0000 0.0000
# 2 -1.5179 90.5157 7.8720 0.0000 0.0000 0.0000
# 3 21.5888 7.8720 68.1872 0.0000 0.0000 0.0000
# 4 0.0000 0.0000 0.0000 14.3396 0.0000 0.0000
# 5 0.0000 0.0000 0.0000 0.0000 25.2746 0.0000
# 6 0.0000 0.0000 0.0000 0.0000 0.0000 60.6329
#
#
#
# Elastic Compliance Matrix: (Units=1/GPa)
#
#
# Indices 1 2 3 4 5 6 
#
# 1 0.010070 0.000451 -0.003240 0.000000 0.000000 0.000000
# 2 0.000451 0.011180 -0.001433 0.000000 0.000000 0.000000
# 3 -0.003240 -0.001433 0.015857 0.000000 0.000000 0.000000
# 4 0.000000 0.000000 0.000000 0.069737 0.000000 0.000000
# 5 0.000000 0.000000 0.000000 0.000000 0.039565 0.000000
# 6 0.000000 0.000000 0.000000 0.000000 0.000000 0.016493
#
#
# Mechanical properties :
#
#
# Convention : Reuss Voigt Hill
#
# Bulk Modulus (GPa) = 34.89091 35.65678 35.27384
# Shear Modulus (GPa) = 27.63939 35.85491 31.74715
#
# Velocity S-wave (km/s) = 3.73441 4.25336 4.00231
# Velocity P-wave (km/s) = 6.01657 6.48942 6.25747
#
# Compressibility (1/GPa) = 0.02866076
#
# Stress axis : x y z
#
# Youngs Moduli (GPa) = 99.30772 89.44525 63.06413
#
# Poissons Ratio (x) = -0.04031 0.20434
# Poissons Ratio (y) = -0.04475 0.09039
# Poissons Ratio (z) = 0.32178 0.12821
#
# Static dielectric constant tensor:
#      x y z
#    x 1.815490 0.000000 0.000000 
#    y 0.000000 1.656510 0.000000 
#    z 0.000000 0.000000 1.653450 
# 
# From -- ./inp_files/20142.got.cif
#   From: 2010.05.17/outbox.cif.g08.bks.cpg/sg42_11_cif.got.tgz:20142.got - 2010.06.03 19:03:34.
