data_PCOD9369468
_publ_section_title
;
Structure prediction by ZEFSAII (Michael W. Deem and Ramdas Pophale) SiO2 
 PCOD9369468
Probable space group: F M M 2
;
_chemical_formula_sum "Si O2"
_cell_formula_units_Z 96
_cell_length_a 25.877039
_cell_length_b 8.845631
_cell_length_c 23.903375
_cell_angle_alpha 90.000000
_cell_angle_beta 90.000000
_cell_angle_gamma 90.000000
_cell_volume 5471.452380
_symmetry_space_group_name_H-M "F M M 2"
_symmetry_group_IT_number 42
_symmetry_cell_setting 'orthorhombic'
loop_
_space_group_symop_operation_xyz
x,y,z
-x,-y,z
-x,y,z
x,-y,z
x,1/2+y,1/2+z
-x,1/2-y,1/2+z
-x,1/2+y,1/2+z
x,1/2-y,1/2+z
1/2+x,y,1/2+z
1/2-x,-y,1/2+z
1/2-x,y,1/2+z
1/2+x,-y,1/2+z
1/2+x,1/2+y,z
1/2-x,1/2-y,z
1/2-x,1/2+y,z
1/2+x,1/2-y,z
loop_
_atom_site_type_symbol
_atom_site_label
_atom_site_fract_x
_atom_site_fract_y
_atom_site_fract_z
Si Si1 0.693558 0.681190 0.425250
Si Si2 0.306247 0.680562 0.555623
Si Si3 0.500000 0.180636 0.552175
Si Si4 0.060524 0.318160 0.238851
Si Si5 0.398824 0.180403 0.625841
Si Si6 0.096443 0.818383 0.863605
Si Si7 0.500000 0.180246 0.930117
O O1 0.694800 0.500000 0.419272
O O2 0.750000 0.750000 0.413742
O O3 0.680995 0.716393 0.490515
O O4 0.650093 0.752608 0.386067
O O5 0.304044 0.500000 0.560911
O O6 0.250000 0.750000 0.567259
O O7 0.349338 0.747214 0.596270
O O8 0.449306 0.216292 0.588426
O O9 0.500000 0.270333 0.494564
O O10 0.500000 0.000000 0.540570
O O11 0.062150 0.500000 0.232677
O O12 0.090203 0.243070 0.187522
O O13 0.084941 0.280354 0.298932
O O14 0.000000 0.272408 0.238206
O O15 0.393180 0.000000 0.627580
O O16 0.050298 0.748979 0.900264
O O17 0.095852 0.000000 0.869155
O O18 0.500000 0.000000 0.925079
#
# Coordination Sequence:
#
# PCOD9369468 Si02
#       7
#    16  16   8  16  16  16   8
#     4  10  21  38  61  90 119 154 194 237 290 345
#     4  10  21  38  60  86 117 153 192 236 288 345
#     4  10  22  37  54  81 117 152 186 230 289 348
#     4  10  21  39  60  82 112 155 198 238 288 343
#     4  11  22  37  58  86 116 150 192 238 288 342
#     4  11  22  39  60  84 116 154 194 239 290 344
#     4  12  24  35  54  85 117 150 190 238 289 346
#
# _framework density 17.545615000000002
#
# number of rings (size 3 to 8) (size 9 to 14) (size 15 to 20)
#    0.000    1.500    1.667    3.750    0.000    7.333 
#    0.000    0.833    0.000    4.000    0.000    0.000 
#    0.000    0.000    0.000    0.000    0.000    0.000 
#
# Total GULP energy -134150.808810 kJ/mol
# GULP energy per Si atom -5589.617034 kJ/mol
# Density = 1.750568 g / cm^3
# Si number density = 17.545615 Si / 1000 Ang^3
#
#
#
# Elastic Constant Matrix: (Units=GPa)
#
#
# Indices 1 2 3 4 5 6 
#
# 1 143.3965 64.1800 98.6398 0.0000 0.0000 0.0000
# 2 64.1800 71.8372 77.5860 0.0000 0.0000 0.0000
# 3 98.6398 77.5860 150.1383 0.0000 0.0000 0.0000
# 4 0.0000 0.0000 0.0000 29.7881 0.0000 0.0000
# 5 0.0000 0.0000 0.0000 0.0000 0.3844 0.0000
# 6 0.0000 0.0000 0.0000 0.0000 0.0000 31.3592
#
#
#
# Elastic Compliance Matrix: (Units=1/GPa)
#
#
# Indices 1 2 3 4 5 6 
#
# 1 0.013681 -0.005692 -0.006047 0.000000 -0.000001 0.000000
# 2 -0.005692 0.033870 -0.013764 0.000000 0.000003 0.000000
# 3 -0.006047 -0.013764 0.017746 0.000000 -0.000001 0.000000
# 4 0.000000 0.000000 0.000000 0.033570 0.000002 0.000000
# 5 -0.000001 0.000003 -0.000001 0.000002 2.601555 -0.000001
# 6 0.000000 0.000000 0.000000 0.000000 -0.000001 0.031889
#
#
# Mechanical properties :
#
#
# Convention : Reuss Voigt Hill
#
# Bulk Modulus (GPa) = 69.96628 94.02037 81.99333
# Shear Modulus (GPa) = 1.79335 20.63743 11.21539
#
# Velocity S-wave (km/s) = 1.01209 3.43332 2.53101
# Velocity P-wave (km/s) = 6.42877 8.33184 7.44139
#
# Compressibility (1/GPa) = 0.01429260
#
# Stress axis : x y z
#
# Youngs Moduli (GPa) = 73.09652 29.52438 56.35158
#
# Poissons Ratio (x) = 0.16804 0.34075
# Poissons Ratio (y) = 0.41604 0.77560
# Poissons Ratio (z) = 0.44200 0.40636
#
# Static dielectric constant tensor:
#      x y z
#    x 1.566970 0.000000 0.000000 
#    y 0.000000 1.582490 0.000000 
#    z 0.000000 0.000000 1.571620 
# 
# From -- ./inp_files/28108.got.cif
#   From: 2010.05.17/outbox.cif.g08.bks.cpg/sg42_15_cif.got.tgz:28108.got - 2010.06.03 19:03:34.
