data_PCOD9369954
_publ_section_title
;
Structure prediction by ZEFSAII (Michael W. Deem and Ramdas Pophale) SiO2 
 PCOD9369954
Probable space group: F M M 2
;
_chemical_formula_sum "Si O2"
_cell_formula_units_Z 64
_cell_length_a 22.221381
_cell_length_b 14.739668
_cell_length_c 8.139047
_cell_angle_alpha 90.000000
_cell_angle_beta 90.000000
_cell_angle_gamma 90.000000
_cell_volume 2665.829095
_symmetry_space_group_name_H-M "F M M 2"
_symmetry_group_IT_number 42
_symmetry_cell_setting 'orthorhombic'
loop_
_space_group_symop_operation_xyz
x,y,z
-x,-y,z
-x,y,z
x,-y,z
x,1/2+y,1/2+z
-x,1/2-y,1/2+z
-x,1/2+y,1/2+z
x,1/2-y,1/2+z
1/2+x,y,1/2+z
1/2-x,-y,1/2+z
1/2-x,y,1/2+z
1/2+x,-y,1/2+z
1/2+x,1/2+y,z
1/2-x,1/2-y,z
1/2-x,1/2+y,z
1/2+x,1/2-y,z
loop_
_atom_site_type_symbol
_atom_site_label
_atom_site_fract_x
_atom_site_fract_y
_atom_site_fract_z
Si Si1 0.089972 0.107044 0.566480
Si Si2 0.291764 0.901812 0.893234
Si Si3 0.306267 0.181185 0.554705
Si Si4 0.065997 0.278359 0.396323
O O1 0.162450 0.108964 0.545357
O O2 0.067460 0.167683 0.410994
O O3 0.071360 0.166774 0.724641
O O4 0.072402 0.000000 0.571769
O O5 0.306249 0.832834 0.748517
O O6 0.306280 0.000000 0.820808
O O7 0.223527 0.899902 0.952661
O O8 0.250000 0.250000 0.524550
O O9 0.373455 0.196791 0.494565
O O10 0.000000 0.304231 0.465241
#
# Coordination Sequence:
#
# PCOD9369954 Si02
#       4
#    16  16  16  16
#     4  11  26  50  78 113 152 200 258 316 379 453
#     4  11  24  43  73 110 147 192 255 321 380 452
#     4  12  24  43  73 108 148 195 251 311 382 446
#     4  12  27  48  77 111 153 206 255 311 386 460
#
# _framework density 24.007539000000001
#
# number of rings (size 3 to 8) (size 9 to 14) (size 15 to 20)
#    0.000    0.500    2.500    5.250    0.000    6.000 
#    0.000    2.500    0.000    6.000    0.000    0.000 
#    0.000    0.000    0.000    0.000    0.000    0.000 
#
# Total GULP energy -89195.262831 kJ/mol
# GULP energy per Si atom -5574.703927 kJ/mol
# Density = 2.395290 g / cm^3
# Si number density = 24.007539 Si / 1000 Ang^3
#
#
#
# Elastic Constant Matrix: (Units=GPa)
#
#
# Indices 1 2 3 4 5 6 
#
# 1 225.9217 52.2505 58.6621 0.0000 0.0000 0.0000
# 2 52.2505 155.0491 63.0917 0.0000 0.0000 0.0000
# 3 58.6621 63.0917 119.0161 0.0000 0.0000 0.0000
# 4 0.0000 0.0000 0.0000 27.1570 0.0000 0.0000
# 5 0.0000 0.0000 0.0000 0.0000 28.5738 0.0000
# 6 0.0000 0.0000 0.0000 0.0000 0.0000 8.2748
#
#
#
# Elastic Compliance Matrix: (Units=1/GPa)
#
#
# Indices 1 2 3 4 5 6 
#
# 1 0.005173 -0.000900 -0.002073 0.000000 0.000000 0.000000
# 2 -0.000900 0.008380 -0.003999 0.000000 0.000000 0.000000
# 3 -0.002073 -0.003999 0.011544 0.000000 0.000000 0.000000
# 4 0.000000 0.000000 0.000000 0.036823 0.000000 0.000000
# 5 0.000000 0.000000 0.000000 0.000000 0.034997 0.000000
# 6 0.000000 0.000000 0.000000 0.000000 0.000000 0.120849
#
#
# Mechanical properties :
#
#
# Convention : Reuss Voigt Hill
#
# Bulk Modulus (GPa) = 89.65515 94.22173 91.93844
# Shear Modulus (GPa) = 21.23813 34.53328 27.88570
#
# Velocity S-wave (km/s) = 2.97752 3.79678 3.41183
# Velocity P-wave (km/s) = 7.01759 7.65197 7.34163
#
# Compressibility (1/GPa) = 0.01115385
#
# Stress axis : x y z
#
# Youngs Moduli (GPa) = 193.32793 119.33222 86.62826
#
# Poissons Ratio (x) = 0.10737 0.17954
# Poissons Ratio (y) = 0.17395 0.34641
# Poissons Ratio (z) = 0.40068 0.47719
#
# Static dielectric constant tensor:
#      x y z
#    x 1.904130 0.000000 0.000000 
#    y 0.000000 2.293220 0.000000 
#    z 0.000000 0.000000 1.904290 
# 
# From -- ./inp_files/4467.got.cif
#   From: 2010.05.17/outbox.cif.g08.bks.cpg/sg42_3_cif.got.tgz:4467.got - 2010.06.03 19:03:34.
