data_PCOD9369407
_publ_section_title
;
Structure prediction by ZEFSAII (Michael W. Deem and Ramdas Pophale) SiO2 
 PCOD9369407
Probable space group: F M M 2
;
_chemical_formula_sum "Si O2"
_cell_formula_units_Z 80
_cell_length_a 21.578625
_cell_length_b 23.314741
_cell_length_c 8.844483
_cell_angle_alpha 90.000000
_cell_angle_beta 90.000000
_cell_angle_gamma 90.000000
_cell_volume 4449.659866
_symmetry_space_group_name_H-M "F M M 2"
_symmetry_group_IT_number 42
_symmetry_cell_setting 'orthorhombic'
loop_
_space_group_symop_operation_xyz
x,y,z
-x,-y,z
-x,y,z
x,-y,z
x,1/2+y,1/2+z
-x,1/2-y,1/2+z
-x,1/2+y,1/2+z
x,1/2-y,1/2+z
1/2+x,y,1/2+z
1/2-x,-y,1/2+z
1/2-x,y,1/2+z
1/2+x,-y,1/2+z
1/2+x,1/2+y,z
1/2-x,1/2-y,z
1/2-x,1/2+y,z
1/2+x,1/2-y,z
loop_
_atom_site_type_symbol
_atom_site_label
_atom_site_fract_x
_atom_site_fract_y
_atom_site_fract_z
Si Si1 0.168142 0.065053 0.187160
Si Si2 0.069494 0.663713 0.669395
Si Si3 0.200119 0.697206 0.228761
Si Si4 0.268253 0.884132 0.967010
Si Si5 0.928788 0.763850 0.868616
O O1 0.118114 0.113604 0.149672
O O2 0.225740 0.077462 0.075860
O O3 0.189478 0.077672 0.358637
O O4 0.146591 0.000000 0.169662
O O5 0.075076 0.696314 0.829878
O O6 0.077267 0.712096 0.538538
O O7 0.000000 0.641071 0.654828
O O8 0.250000 0.750000 0.216043
O O9 0.226946 0.654255 0.354524
O O10 0.198151 0.662340 0.072839
O O11 0.131288 0.713220 0.280621
O O12 0.000000 0.779934 0.819994
#
# Coordination Sequence:
#
# PCOD9369407 Si02
#       5
#    16  16  16  16  16
#     4  11  22  40  59  81 113 153 197 237 281 339
#     4  10  22  38  58  85 115 151 190 234 291 345
#     4  11  21  33  57  86 119 153 184 236 292 354
#     4  10  22  36  54  85 115 146 194 234 286 339
#     4  10  21  37  57  85 120 152 187 234 295 358
#
# _framework density 17.978902999999999
#
# number of rings (size 3 to 8) (size 9 to 14) (size 15 to 20)
#    0.000    1.600    2.000    3.600    5.600    0.400 
#    0.000    0.000    0.000    0.000    0.000    0.000 
#    0.000    0.000    0.000    0.000    0.000    0.000 
#
# Total GULP energy -111506.452855 kJ/mol
# GULP energy per Si atom -5575.322643 kJ/mol
# Density = 1.793798 g / cm^3
# Si number density = 17.978903 Si / 1000 Ang^3
#
#
#
# Elastic Constant Matrix: (Units=GPa)
#
#
# Indices 1 2 3 4 5 6 
#
# 1 74.8005 26.5640 26.4094 -0.0001 0.0004 0.0001
# 2 26.5640 85.6918 25.0435 0.0001 0.0001 -0.0001
# 3 26.4094 25.0435 79.8964 0.0002 0.0005 -0.0001
# 4 -0.0001 0.0001 0.0002 17.0264 0.0000 -0.0002
# 5 0.0004 0.0001 0.0005 0.0000 14.5824 0.0000
# 6 0.0001 -0.0001 -0.0001 -0.0002 0.0000 8.9846
#
#
#
# Elastic Compliance Matrix: (Units=1/GPa)
#
#
# Indices 1 2 3 4 5 6 
#
# 1 0.016188 -0.003803 -0.004159 0.000000 0.000000 0.000000
# 2 -0.003803 0.013740 -0.003050 0.000000 0.000000 0.000000
# 3 -0.004159 -0.003050 0.014847 0.000000 0.000000 0.000000
# 4 0.000000 0.000000 0.000000 0.058732 0.000000 0.000001
# 5 0.000000 0.000000 0.000000 0.000000 0.068576 0.000000
# 6 0.000000 0.000000 0.000000 0.000001 0.000000 0.111302
#
#
# Mechanical properties :
#
#
# Convention : Reuss Voigt Hill
#
# Bulk Modulus (GPa) = 43.95255 44.04691 43.99973
# Shear Modulus (GPa) = 15.97491 18.94347 17.45919
#
# Velocity S-wave (km/s) = 2.98407 3.24952 3.11962
# Velocity P-wave (km/s) = 6.03098 6.21543 6.12390
#
# Compressibility (1/GPa) = 0.02275181
#
# Stress axis : x y z
#
# Youngs Moduli (GPa) = 61.77540 72.78104 67.35439
#
# Poissons Ratio (x) = 0.27676 0.28011
# Poissons Ratio (y) = 0.23491 0.20542
# Poissons Ratio (z) = 0.25691 0.22197
#
# Static dielectric constant tensor:
#      x y z
#    x 1.644800 0.000000 0.000000 
#    y 0.000000 1.602770 0.000000 
#    z 0.000000 0.000000 1.652340 
# 
# From -- ./inp_files/3477.got.cif
#   From: 2010.05.17/outbox.cif.g08.bks.cpg/sg42_2_cif.got.tgz:3477.got - 2010.06.03 19:03:34.
