data_PCOD9369825
_publ_section_title
;
Structure prediction by ZEFSAII (Michael W. Deem and Ramdas Pophale) SiO2 
 PCOD9369825
Probable space group: F M M 2
;
_chemical_formula_sum "Si O2"
_cell_formula_units_Z 96
_cell_length_a 28.592070
_cell_length_b 18.943175
_cell_length_c 7.955491
_cell_angle_alpha 90.000000
_cell_angle_beta 90.000000
_cell_angle_gamma 90.000000
_cell_volume 4308.889516
_symmetry_space_group_name_H-M "F M M 2"
_symmetry_group_IT_number 42
_symmetry_cell_setting 'orthorhombic'
loop_
_space_group_symop_operation_xyz
x,y,z
-x,-y,z
-x,y,z
x,-y,z
x,1/2+y,1/2+z
-x,1/2-y,1/2+z
-x,1/2+y,1/2+z
x,1/2-y,1/2+z
1/2+x,y,1/2+z
1/2-x,-y,1/2+z
1/2-x,y,1/2+z
1/2+x,-y,1/2+z
1/2+x,1/2+y,z
1/2-x,1/2-y,z
1/2-x,1/2+y,z
1/2+x,1/2-y,z
loop_
_atom_site_type_symbol
_atom_site_label
_atom_site_fract_x
_atom_site_fract_y
_atom_site_fract_z
Si Si1 0.911584 0.884219 0.161230
Si Si2 0.215847 0.919002 0.456362
Si Si3 0.447514 0.769118 0.887745
Si Si4 0.447918 0.101962 0.326531
Si Si5 0.686509 0.081439 0.569015
Si Si6 0.384795 0.117448 0.026662
O O1 0.939988 0.814732 0.216614
O O2 0.860929 0.873934 0.073362
O O3 0.899370 0.916971 0.345183
O O4 0.939346 0.923873 0.016204
O O5 0.268174 0.889800 0.473396
O O6 0.203567 0.921008 0.261059
O O7 0.171038 0.883112 0.542476
O O8 0.217890 0.000000 0.520779
O O9 0.500000 0.785516 0.951709
O O10 0.444327 0.686954 0.850864
O O11 0.407021 0.804725 0.000069
O O12 0.500000 0.084334 0.268894
O O13 0.410160 0.083233 0.185489
O O14 0.675958 0.000000 0.515619
#
# Coordination Sequence:
#
# PCOD9369825 Si02
#       6
#    16  16  16  16  16  16
#     4   9  20  32  50  78 105 128 164 216 253 292
#     4   9  18  34  56  78  99 129 168 208 253 303
#     4   9  18  34  52  73 102 134 172 211 244 292
#     4  11  20  32  54  77  98 136 178 207 246 294
#     4   9  18  34  56  78  99 129 168 208 253 303
#     4   9  20  32  50  78 105 128 164 216 253 292
#
# _framework density 22.279522
#
# number of rings (size 3 to 8) (size 9 to 14) (size 15 to 20)
#    1.000    1.667    0.000    2.000    2.333    2.667 
#    0.000    0.000    0.000   12.000    0.000    0.000 
#    0.000    0.000    0.000    0.000    0.000    0.000 
#
# Total GULP energy -133651.724097 kJ/mol
# GULP energy per Si atom -5568.821837 kJ/mol
# Density = 2.222881 g / cm^3
# Si number density = 22.279522 Si / 1000 Ang^3
#
#
#
# Elastic Constant Matrix: (Units=GPa)
#
#
# Indices 1 2 3 4 5 6 
#
# 1 114.8457 25.0445 -4.7390 0.0001 0.0000 0.0000
# 2 25.0445 80.8820 -5.4146 -0.0005 0.0000 0.0000
# 3 -4.7390 -5.4146 73.9767 -0.0012 0.0000 0.0000
# 4 0.0001 -0.0005 -0.0012 -4.3966 0.0000 0.0000
# 5 0.0000 0.0000 0.0000 0.0000 42.3696 0.0000
# 6 0.0000 0.0000 0.0000 0.0000 0.0000 22.2302
#
#
#
# Elastic Compliance Matrix: (Units=1/GPa)
#
#
# Indices 1 2 3 4 5 6 
#
# 1 0.009349 -0.002869 0.000389 0.000000 0.000000 0.000000
# 2 -0.002869 0.013305 0.000790 -0.000002 0.000000 0.000000
# 3 0.000389 0.000790 0.013601 -0.000004 0.000000 0.000000
# 4 0.000000 -0.000002 -0.000004 -0.227447 0.000000 0.000000
# 5 0.000000 0.000000 0.000000 0.000000 0.023602 0.000000
# 6 0.000000 0.000000 0.000000 0.000000 0.000000 0.044984
#
#
# Mechanical properties :
#
#
# Convention : Reuss Voigt Hill
#
# Bulk Modulus (GPa) = 30.41850 33.27624 31.84737
# Shear Modulus (GPa) = -46.18141 29.02821 -8.57660
#
# Velocity S-wave (km/s) = -4.55776 3.61350 -1.96415
# Velocity P-wave (km/s) = 3.74364 5.69017 3.03012
#
# Compressibility (1/GPa) = 0.03287473
#
# Stress axis : x y z
#
# Youngs Moduli (GPa) = 106.96340 75.16039 73.52666
#
# Poissons Ratio (x) = 0.21562 -0.02860
# Poissons Ratio (y) = 0.30686 -0.05809
# Poissons Ratio (z) = -0.04160 -0.05938
#
# Static dielectric constant tensor:
#      x y z
#    x 1.836300 0.000000 0.000000 
#    y 0.000000 1.847700 0.000000 
#    z 0.000000 0.000000 1.913380 
# 
# From -- ./inp_files/5321.got.cif
#   From: 2010.05.17/outbox.cif.g08.bks.cpg/sg42_3_cif.got.tgz:5321.got - 2010.06.03 19:03:34.
