data_PCOD9369454
_publ_section_title
;
Structure prediction by ZEFSAII (Michael W. Deem and Ramdas Pophale) SiO2 
 PCOD9369454
Probable space group: F M M 2
;
_chemical_formula_sum "Si O2"
_cell_formula_units_Z 112
_cell_length_a 14.886553
_cell_length_b 30.099623
_cell_length_c 10.211079
_cell_angle_alpha 90.000000
_cell_angle_beta 90.000000
_cell_angle_gamma 90.000000
_cell_volume 4575.376532
_symmetry_space_group_name_H-M "F M M 2"
_symmetry_group_IT_number 42
_symmetry_cell_setting 'orthorhombic'
loop_
_space_group_symop_operation_xyz
x,y,z
-x,-y,z
-x,y,z
x,-y,z
x,1/2+y,1/2+z
-x,1/2-y,1/2+z
-x,1/2+y,1/2+z
x,1/2-y,1/2+z
1/2+x,y,1/2+z
1/2-x,-y,1/2+z
1/2-x,y,1/2+z
1/2+x,-y,1/2+z
1/2+x,1/2+y,z
1/2-x,1/2-y,z
1/2-x,1/2+y,z
1/2+x,1/2-y,z
loop_
_atom_site_type_symbol
_atom_site_label
_atom_site_fract_x
_atom_site_fract_y
_atom_site_fract_z
Si Si1 0.902651 0.549381 0.948620
Si Si2 0.264317 0.050212 0.718507
Si Si3 0.895416 0.318443 0.361638
Si Si4 0.889957 0.738816 0.046269
Si Si5 0.395622 0.609945 0.688897
Si Si6 0.894612 0.116958 0.101274
Si Si7 0.108885 0.300173 0.786169
O O1 0.903382 0.500000 0.013714
O O2 0.824493 0.549884 0.846567
O O3 0.000000 0.552601 0.882209
O O4 0.894705 0.591702 0.041758
O O5 0.172568 0.075121 0.750408
O O6 0.323641 0.077847 0.615601
O O7 0.251403 0.000000 0.674673
O O8 0.858788 0.279227 0.450314
O O9 0.865715 0.339642 0.223379
O O10 0.889524 0.359954 0.460318
O O11 0.000000 0.305999 0.343869
O O12 0.863565 0.700545 0.939828
O O13 0.000000 0.736456 0.054676
O O14 0.862713 0.758044 0.190861
O O15 0.500000 0.606525 0.729961
O O16 0.868602 0.154620 0.209390
O O17 0.000000 0.105198 0.120547
O O18 0.000000 0.298574 0.785149
#
# Coordination Sequence:
#
# PCOD9369454 Si02
#       7
#    16  16  16  16  16  16  16
#     4   9  19  37  56  76 109 146 182 236 299 348
#     4  11  23  36  57  82 109 149 197 242 294 354
#     4   8  16  32  54  78 110 148 189 237 287 338
#     4   8  13  25  46  76 110 148 189 231 280 343
#     4  10  21  38  58  81 109 148 195 242 294 350
#     4   9  18  34  55  83 119 153 189 240 294 342
#     4   8  14  26  47  77 115 152 188 232 286 345
#
# _framework density 24.478859
#
# number of rings (size 3 to 8) (size 9 to 14) (size 15 to 20)
#    0.000    3.000    0.000    2.571    2.000    1.714 
#    2.571    0.714    0.000    6.000    0.000    4.000 
#    0.000    0.000    0.000    0.000    0.000    0.000 
#
# Total GULP energy -156040.712342 kJ/mol
# GULP energy per Si atom -5572.882584 kJ/mol
# Density = 2.442314 g / cm^3
# Si number density = 24.478859 Si / 1000 Ang^3
#
#
#
# Elastic Constant Matrix: (Units=GPa)
#
#
# Indices 1 2 3 4 5 6 
#
# 1 90.9386 6.6927 2.0794 0.0000 0.0000 0.0000
# 2 6.6927 31.4832 -30.5322 0.0000 0.0000 0.0000
# 3 2.0794 -30.5322 90.7247 0.0000 0.0000 0.0000
# 4 0.0000 0.0000 0.0000 34.2006 0.0000 0.0000
# 5 0.0000 0.0000 0.0000 0.0000 15.2940 0.0000
# 6 0.0000 0.0000 0.0000 0.0000 0.0000 4.2674
#
#
#
# Elastic Compliance Matrix: (Units=1/GPa)
#
#
# Indices 1 2 3 4 5 6 
#
# 1 0.011323 -0.003947 -0.001588 0.000000 0.000000 0.000000
# 2 -0.003947 0.048528 0.016422 0.000000 0.000000 0.000000
# 3 -0.001588 0.016422 0.016585 0.000000 0.000000 0.000000
# 4 0.000000 0.000000 0.000000 0.029239 0.000000 0.000000
# 5 0.000000 0.000000 0.000000 0.000000 0.065385 0.000000
# 6 0.000000 0.000000 0.000000 0.000000 0.000000 0.234334
#
#
# Mechanical properties :
#
#
# Convention : Reuss Voigt Hill
#
# Bulk Modulus (GPa) = 10.18221 18.84737 14.51479
# Shear Modulus (GPa) = 12.00891 26.41285 19.21088
#
# Velocity S-wave (km/s) = 2.21731 3.28839 2.80446
# Velocity P-wave (km/s) = 3.27474 4.70469 4.05327
#
# Compressibility (1/GPa) = 0.09821055
#
# Stress axis : x y z
#
# Youngs Moduli (GPa) = 88.31417 20.60673 60.29438
#
# Poissons Ratio (x) = 0.08133 0.09574
# Poissons Ratio (y) = 0.34857 -0.99015
# Poissons Ratio (z) = 0.14023 -0.33840
#
# Static dielectric constant tensor:
#      x y z
#    x 1.949130 0.000000 0.000000 
#    y 0.000000 2.093090 0.000000 
#    z 0.000000 0.000000 2.012200 
# 
# From -- ./inp_files/8105.got.cif
#   From: 2010.05.17/outbox.cif.g08.bks.cpg/sg42_5_cif.got.tgz:8105.got - 2010.06.03 19:03:34.
