data_PCOD9369102
_publ_section_title
;
Structure prediction by ZEFSAII (Michael W. Deem and Ramdas Pophale) SiO2 
 PCOD9369102
Probable space group: F M M 2
;
_chemical_formula_sum "Si O2"
_cell_formula_units_Z 80
_cell_length_a 26.329925
_cell_length_b 8.761334
_cell_length_c 18.482517
_cell_angle_alpha 90.000000
_cell_angle_beta 90.000000
_cell_angle_gamma 90.000000
_cell_volume 4263.644371
_symmetry_space_group_name_H-M "F M M 2"
_symmetry_group_IT_number 42
_symmetry_cell_setting 'orthorhombic'
loop_
_space_group_symop_operation_xyz
x,y,z
-x,-y,z
-x,y,z
x,-y,z
x,1/2+y,1/2+z
-x,1/2-y,1/2+z
-x,1/2+y,1/2+z
x,1/2-y,1/2+z
1/2+x,y,1/2+z
1/2-x,-y,1/2+z
1/2-x,y,1/2+z
1/2+x,-y,1/2+z
1/2+x,1/2+y,z
1/2-x,1/2-y,z
1/2-x,1/2+y,z
1/2+x,1/2-y,z
loop_
_atom_site_type_symbol
_atom_site_label
_atom_site_fract_x
_atom_site_fract_y
_atom_site_fract_z
Si Si1 0.094630 0.816037 0.433570
Si Si2 0.803987 0.683000 0.850705
Si Si3 0.000000 0.817587 0.186482
Si Si4 0.902913 0.317141 0.103851
Si Si5 0.195218 0.183348 0.181498
Si Si6 0.000000 0.681480 0.347122
O O1 0.148465 0.768769 0.399092
O O2 0.092831 0.782262 0.518655
O O3 0.049257 0.736094 0.391162
O O4 0.089616 0.000000 0.424674
O O5 0.800716 0.500000 0.853930
O O6 0.750000 0.750000 0.874088
O O7 0.812473 0.724869 0.766402
O O8 0.049864 0.755141 0.146206
O O9 0.000000 0.758779 0.268572
O O10 0.000000 0.000000 0.185535
O O11 0.903986 0.500000 0.112538
O O12 0.850564 0.252207 0.135606
O O13 0.250000 0.250000 0.159711
O O14 0.195632 0.000000 0.175839
O O15 0.000000 0.500000 0.338960
#
# Coordination Sequence:
#
# PCOD9369102 Si02
#       6
#    16  16   8  16  16   8
#     4  10  22  40  60  85 121 158 189 233 295 353
#     4   9  19  36  58  83 111 149 193 236 286 340
#     4  12  25  42  63  85 115 155 197 242 295 354
#     4  11  23  39  60  88 121 155 195 244 296 351
#     4  10  20  36  59  85 116 156 201 248 297 350
#     4  12  25  40  63  91 115 147 195 244 289 346
#
# _framework density 18.763292
#
# number of rings (size 3 to 8) (size 9 to 14) (size 15 to 20)
#    0.000    1.600    0.000    4.800    0.000    8.000 
#    0.000    2.000    0.000    0.000    0.000    0.000 
#    0.000    0.000    0.000    0.000    0.000    0.000 
#
# Total GULP energy -111827.676943 kJ/mol
# GULP energy per Si atom -5591.383847 kJ/mol
# Density = 1.872059 g / cm^3
# Si number density = 18.763292 Si / 1000 Ang^3
#
#
#
# Elastic Constant Matrix: (Units=GPa)
#
#
# Indices 1 2 3 4 5 6 
#
# 1 205.8629 80.6849 121.4922 0.0000 0.0000 0.0000
# 2 80.6849 80.8453 79.9481 0.0000 0.0000 0.0000
# 3 121.4922 79.9481 140.7365 0.0000 0.0000 0.0000
# 4 0.0000 0.0000 0.0000 24.2426 0.0000 0.0000
# 5 0.0000 0.0000 0.0000 0.0000 350.2889 0.0000
# 6 0.0000 0.0000 0.0000 0.0000 0.0000 40.7157
#
#
#
# Elastic Compliance Matrix: (Units=1/GPa)
#
#
# Indices 1 2 3 4 5 6 
#
# 1 0.010294 -0.003391 -0.006961 0.000000 0.000000 0.000000
# 2 -0.003391 0.029342 -0.013741 0.000000 0.000000 0.000000
# 3 -0.006961 -0.013741 0.020920 0.000000 0.000000 0.000000
# 4 0.000000 0.000000 0.000000 0.041250 0.000000 0.000000
# 5 0.000000 0.000000 0.000000 0.000000 0.002855 0.000000
# 6 0.000000 0.000000 0.000000 0.000000 0.000000 0.024561
#
#
# Mechanical properties :
#
#
# Convention : Reuss Voigt Hill
#
# Bulk Modulus (GPa) = 80.83017 110.18834 95.50926
# Shear Modulus (GPa) = 27.54352 92.73740 60.14046
#
# Velocity S-wave (km/s) = 3.83554 7.03791 5.66761
# Velocity P-wave (km/s) = 7.92386 11.17568 9.68719
#
# Compressibility (1/GPa) = 0.01237162
#
# Stress axis : x y z
#
# Youngs Moduli (GPa) = 97.14035 34.08081 47.80020
#
# Poissons Ratio (x) = 0.11555 0.33272
# Poissons Ratio (y) = 0.32936 0.65684
# Poissons Ratio (z) = 0.67616 0.46832
#
# Static dielectric constant tensor:
#      x y z
#    x 1.610250 0.000000 0.000000 
#    y 0.000000 1.630520 0.000000 
#    z 0.000000 0.000000 1.626760 
# 
# From -- ./inp_files/18246.got.cif
#   From: 2010.05.17/outbox.cif.g08.bks.cpg/sg42_10_cif.got.tgz:18246.got - 2010.06.03 19:03:34.
