data_PCOD9369079
_publ_section_title
;
Structure prediction by ZEFSAII (Michael W. Deem and Ramdas Pophale) SiO2 
 PCOD9369079
Probable space group: F M M 2
;
_chemical_formula_sum "Si O2"
_cell_formula_units_Z 96
_cell_length_a 15.905064
_cell_length_b 7.448739
_cell_length_c 36.283429
_cell_angle_alpha 90.000000
_cell_angle_beta 90.000000
_cell_angle_gamma 90.000000
_cell_volume 4298.594729
_symmetry_space_group_name_H-M "F M M 2"
_symmetry_group_IT_number 42
_symmetry_cell_setting 'orthorhombic'
loop_
_space_group_symop_operation_xyz
x,y,z
-x,-y,z
-x,y,z
x,-y,z
x,1/2+y,1/2+z
-x,1/2-y,1/2+z
-x,1/2+y,1/2+z
x,1/2-y,1/2+z
1/2+x,y,1/2+z
1/2-x,-y,1/2+z
1/2-x,y,1/2+z
1/2+x,-y,1/2+z
1/2+x,1/2+y,z
1/2-x,1/2-y,z
1/2-x,1/2+y,z
1/2+x,1/2-y,z
loop_
_atom_site_type_symbol
_atom_site_label
_atom_site_fract_x
_atom_site_fract_y
_atom_site_fract_z
Si Si1 0.000000 0.784847 0.311190
Si Si2 0.350304 0.285420 0.179216
Si Si3 0.342024 0.785480 0.443948
Si Si4 0.000000 0.784927 0.897736
Si Si5 0.096582 0.716719 0.520450
Si Si6 0.349742 0.284969 0.099940
Si Si7 0.150484 0.284432 0.760274
O O1 0.000000 0.748543 0.354424
O O2 0.084675 0.718405 0.290761
O O3 0.000000 0.000000 0.307148
O O4 0.364449 0.500000 0.179218
O O5 0.250000 0.250000 0.178500
O O6 0.382742 0.216704 0.139630
O O7 0.376427 0.216911 0.219414
O O8 0.250000 0.750000 0.428687
O O9 0.416834 0.716106 0.418376
O O10 0.349613 0.715558 0.485973
O O11 0.352182 0.000000 0.446405
O O12 0.000000 0.000000 0.902209
O O13 0.107716 0.500000 0.522616
O O14 0.115000 0.786298 0.561403
O O15 0.000000 0.750860 0.510809
O O16 0.363822 0.500000 0.100257
O O17 0.250000 0.250000 0.098960
O O18 0.143849 0.500000 0.759016
O O19 0.250000 0.250000 0.766609
#
# Coordination Sequence:
#
# PCOD9369079 Si02
#       7
#     8  16  16   8  16  16  16
#     4  10  22  38  56  79 107 135 165 212 266 308
#     4   8  14  26  44  68  97 130 167 206 247 291
#     4  10  20  36  58  80 104 137 173 210 255 306
#     4  10  22  40  58  77 105 137 169 208 256 316
#     4   9  16  29  48  71 102 136 170 208 248 295
#     4   9  16  26  44  70  97 129 169 209 246 288
#     4   9  18  34  54  76 105 139 172 210 257 306
#
# _framework density 22.332879999999999
#
# number of rings (size 3 to 8) (size 9 to 14) (size 15 to 20)
#    0.000    2.833    0.833    0.500    0.000    2.000 
#    1.500    3.333    0.000    1.500    0.000    0.000 
#    0.000    0.000    0.000    0.000    0.000    0.000 
#
# Total GULP energy -133846.170058 kJ/mol
# GULP energy per Si atom -5576.923752 kJ/mol
# Density = 2.228205 g / cm^3
# Si number density = 22.332880 Si / 1000 Ang^3
#
#
#
# Elastic Constant Matrix: (Units=GPa)
#
#
# Indices 1 2 3 4 5 6 
#
# 1 115.6565 -0.2922 97.1525 0.0000 0.0000 0.0000
# 2 -0.2922 72.6722 7.9142 0.0000 0.0000 0.0000
# 3 97.1525 7.9142 201.0207 0.0000 0.0000 0.0000
# 4 0.0000 0.0000 0.0000 4.4329 0.0000 0.0000
# 5 0.0000 0.0000 0.0000 0.0000 28.8770 0.0000
# 6 0.0000 0.0000 0.0000 0.0000 0.0000 12.6545
#
#
#
# Elastic Compliance Matrix: (Units=1/GPa)
#
#
# Indices 1 2 3 4 5 6 
#
# 1 0.014605 0.000831 -0.007091 0.000000 0.000000 0.000000
# 2 0.000831 0.013867 -0.000948 0.000000 0.000000 0.000000
# 3 -0.007091 -0.000948 0.008439 0.000000 0.000000 0.000000
# 4 0.000000 0.000000 0.000000 0.225586 0.000000 0.000000
# 5 0.000000 0.000000 0.000000 0.000000 0.034630 0.000000
# 6 0.000000 0.000000 0.000000 0.000000 0.000000 0.079023
#
#
# Mechanical properties :
#
#
# Convention : Reuss Voigt Hill
#
# Bulk Modulus (GPa) = 44.45342 66.54426 55.49884
# Shear Modulus (GPa) = 12.56078 28.16453 20.36265
#
# Velocity S-wave (km/s) = 2.37414 3.55508 3.02284
# Velocity P-wave (km/s) = 5.24057 6.83467 6.09000
#
# Compressibility (1/GPa) = 0.02249546
#
# Stress axis : x y z
#
# Youngs Moduli (GPa) = 68.46880 72.11391 118.49548
#
# Poissons Ratio (x) = -0.05993 0.84029
# Poissons Ratio (y) = -0.05690 0.11228
# Poissons Ratio (z) = 0.48554 0.06833
#
# Static dielectric constant tensor:
#      x y z
#    x 1.794260 0.000000 0.000000 
#    y 0.000000 1.522520 0.000000 
#    z 0.000000 0.000000 1.850310 
# 
# From -- ./inp_files/34277.got.cif
#   From: 2010.05.17/outbox.cif.g08.bks.cpg/sg42_18_cif.got.tgz:34277.got - 2010.06.03 19:03:34.
