data_PCOD9369539
_publ_section_title
;
Structure prediction by ZEFSAII (Michael W. Deem and Ramdas Pophale) SiO2 
 PCOD9369539
Probable space group: F M M 2
;
_chemical_formula_sum "Si O2"
_cell_formula_units_Z 88
_cell_length_a 11.871764
_cell_length_b 14.804934
_cell_length_c 23.505003
_cell_angle_alpha 90.000000
_cell_angle_beta 90.000000
_cell_angle_gamma 90.000000
_cell_volume 4131.255369
_symmetry_space_group_name_H-M "F M M 2"
_symmetry_group_IT_number 42
_symmetry_cell_setting 'orthorhombic'
loop_
_space_group_symop_operation_xyz
x,y,z
-x,-y,z
-x,y,z
x,-y,z
x,1/2+y,1/2+z
-x,1/2-y,1/2+z
-x,1/2+y,1/2+z
x,1/2-y,1/2+z
1/2+x,y,1/2+z
1/2-x,-y,1/2+z
1/2-x,y,1/2+z
1/2+x,-y,1/2+z
1/2+x,1/2+y,z
1/2-x,1/2-y,z
1/2-x,1/2+y,z
1/2+x,1/2-y,z
loop_
_atom_site_type_symbol
_atom_site_label
_atom_site_fract_x
_atom_site_fract_y
_atom_site_fract_z
Si Si1 0.750000 0.750000 0.551880
Si Si2 0.752673 0.391246 0.641858
Si Si3 0.868818 0.900891 0.978329
Si Si4 0.000000 0.109229 0.182970
Si Si5 0.000000 0.892418 0.314789
Si Si6 0.262531 0.649485 0.371146
Si Si7 0.627522 0.891145 0.258130
O O1 0.700219 0.672275 0.593461
O O2 0.832487 0.686730 0.514532
O O3 0.739991 0.500000 0.633092
O O4 0.885261 0.368128 0.649863
O O5 0.695725 0.367411 0.701868
O O6 0.789671 0.905662 0.922934
O O7 0.000000 0.891961 0.961671
O O8 0.858411 0.000000 0.008418
O O9 0.000000 0.142038 0.249057
O O10 0.000000 0.000000 0.186538
O O11 0.111282 0.868027 0.350069
O O12 0.000000 0.000000 0.309355
O O13 0.250000 0.750000 0.392633
O O14 0.187047 0.640879 0.314962
O O15 0.500000 0.858752 0.254922
O O16 0.627020 0.000000 0.260854
#
# Coordination Sequence:
#
# PCOD9369539 Si02
#       7
#     8  16  16   8   8  16  16
#     4  12  26  44  68 102 130 174 240 292 340 392
#     4  10  22  41  66 100 136 177 226 285 346 409
#     4  11  26  50  75  98 133 183 236 289 346 413
#     4   9  18  38  65  96 137 181 224 269 338 419
#     4  11  22  40  69 100 141 185 222 271 340 417
#     4  12  25  40  66 105 140 174 225 283 347 412
#     4  10  21  39  64  94 135 181 221 272 347 422
#
# _framework density 21.301031999999999
#
# number of rings (size 3 to 8) (size 9 to 14) (size 15 to 20)
#    0.000    1.273    2.727    2.727    5.091    2.182 
#    0.000    0.000    0.000    1.091    0.000    0.000 
#    0.000    0.000    0.000    0.000    0.000    0.000 
#
# Total GULP energy -122843.894079 kJ/mol
# GULP energy per Si atom -5583.813367 kJ/mol
# Density = 2.125255 g / cm^3
# Si number density = 21.301032 Si / 1000 Ang^3
#
#
#
# Elastic Constant Matrix: (Units=GPa)
#
#
# Indices 1 2 3 4 5 6 
#
# 1 116.8780 40.0209 35.1935 0.0000 0.0000 0.0000
# 2 40.0209 126.2217 40.5937 0.0000 0.0000 0.0000
# 3 35.1935 40.5937 106.6273 0.0000 0.0000 0.0000
# 4 0.0000 0.0000 0.0000 40.5061 0.0000 0.0000
# 5 0.0000 0.0000 0.0000 0.0000 -10.9538 0.0000
# 6 0.0000 0.0000 0.0000 0.0000 0.0000 39.3327
#
#
#
# Elastic Compliance Matrix: (Units=1/GPa)
#
#
# Indices 1 2 3 4 5 6 
#
# 1 0.010115 -0.002431 -0.002413 0.000000 0.000000 0.000000
# 2 -0.002431 0.009612 -0.002857 0.000000 0.000000 0.000000
# 3 -0.002413 -0.002857 0.011263 0.000000 0.000000 0.000000
# 4 0.000000 0.000000 0.000000 0.024688 0.000000 0.000000
# 5 0.000000 0.000000 0.000000 0.000000 -0.091292 0.000000
# 6 0.000000 0.000000 0.000000 0.000000 0.000000 0.025424
#
#
# Mechanical properties :
#
#
# Convention : Reuss Voigt Hill
#
# Bulk Modulus (GPa) = 64.15394 64.59367 64.37380
# Shear Modulus (GPa) = 480.42503 29.37160 254.89832
#
# Velocity S-wave (km/s) = 15.03431 3.71736 10.95101
# Velocity P-wave (km/s) = 18.20871 6.98678 13.79079
#
# Compressibility (1/GPa) = 0.01558751
#
# Stress axis : x y z
#
# Youngs Moduli (GPa) = 98.86346 104.03418 88.78954
#
# Poissons Ratio (x) = 0.25292 0.21425
# Poissons Ratio (y) = 0.24035 0.25367
# Poissons Ratio (z) = 0.23856 0.29723
#
# Static dielectric constant tensor:
#      x y z
#    x 1.734350 0.000000 0.000000 
#    y 0.000000 1.783380 0.000000 
#    z 0.000000 0.000000 1.814060 
# 
# From -- ./inp_files/28748.got.cif
#   From: 2010.05.17/outbox.cif.g08.bks.cpg/sg42_15_cif.got.tgz:28748.got - 2010.06.03 19:03:34.
