data_PCOD9369893
_publ_section_title
;
Structure prediction by ZEFSAII (Michael W. Deem and Ramdas Pophale) SiO2 
 PCOD9369893
Probable space group: F M M 2
;
_chemical_formula_sum "Si O2"
_cell_formula_units_Z 48
_cell_length_a 15.839569
_cell_length_b 8.877998
_cell_length_c 18.776985
_cell_angle_alpha 90.000000
_cell_angle_beta 90.000000
_cell_angle_gamma 90.000000
_cell_volume 2640.488390
_symmetry_space_group_name_H-M "F M M 2"
_symmetry_group_IT_number 42
_symmetry_cell_setting 'orthorhombic'
loop_
_space_group_symop_operation_xyz
x,y,z
-x,-y,z
-x,y,z
x,-y,z
x,1/2+y,1/2+z
-x,1/2-y,1/2+z
-x,1/2+y,1/2+z
x,1/2-y,1/2+z
1/2+x,y,1/2+z
1/2-x,-y,1/2+z
1/2-x,y,1/2+z
1/2+x,-y,1/2+z
1/2+x,1/2+y,z
1/2-x,1/2-y,z
1/2-x,1/2+y,z
1/2+x,1/2-y,z
loop_
_atom_site_type_symbol
_atom_site_label
_atom_site_fract_x
_atom_site_fract_y
_atom_site_fract_z
Si Si1 0.097078 0.327807 0.738330
Si Si2 0.500000 0.320336 0.024194
Si Si3 0.337802 0.320723 0.600757
Si Si4 0.500000 0.678201 0.855427
O O1 0.127197 0.500000 0.742819
O O2 0.149196 0.230921 0.682778
O O3 0.080404 0.253216 0.815265
O O4 0.000000 0.331858 0.709473
O O5 0.500000 0.500000 0.037575
O O6 0.583371 0.246686 0.057728
O O7 0.500000 0.295971 0.939124
O O8 0.336527 0.500000 0.595864
O O9 0.250000 0.250000 0.575030
O O10 0.500000 0.500000 0.840931
#
# Coordination Sequence:
#
# PCOD9369893 Si02
#       4
#    16   8  16   8
#     4   9  18  34  57  83 113 145 186 233 280 335
#     4  11  22  39  60  85 121 155 190 237 288 345
#     4  12  24  38  60  87 117 153 196 240 288 343
#     4   9  18  33  58  85 113 153 192 231 286 343
#
# _framework density 18.178455
#
# number of rings (size 3 to 8) (size 9 to 14) (size 15 to 20)
#    1.000    0.667    1.667    4.500    0.000    2.667 
#    0.000    1.667    0.000    8.000    0.000    0.000 
#    0.000    0.000    0.000    0.000    0.000    0.000 
#
# Total GULP energy -66895.592145 kJ/mol
# GULP energy per Si atom -5574.632679 kJ/mol
# Density = 1.813708 g / cm^3
# Si number density = 18.178455 Si / 1000 Ang^3
#
#
#
# Elastic Constant Matrix: (Units=GPa)
#
#
# Indices 1 2 3 4 5 6 
#
# 1 120.0274 71.6440 49.8159 0.0000 0.0000 0.0000
# 2 71.6440 190.8042 80.8301 0.0000 0.0000 0.0000
# 3 49.8159 80.8301 106.1555 0.0000 0.0000 0.0000
# 4 0.0000 0.0000 0.0000 31.2207 0.0000 0.0000
# 5 0.0000 0.0000 0.0000 0.0000 5.8629 0.0000
# 6 0.0000 0.0000 0.0000 0.0000 0.0000 24.5097
#
#
#
# Elastic Compliance Matrix: (Units=1/GPa)
#
#
# Indices 1 2 3 4 5 6 
#
# 1 0.011382 -0.002969 -0.003081 0.000000 0.000000 0.000000
# 2 -0.002969 0.008511 -0.005087 0.000000 0.000000 0.000000
# 3 -0.003081 -0.005087 0.014740 0.000000 0.000000 0.000000
# 4 0.000000 0.000000 0.000000 0.032030 0.000000 0.000000
# 5 0.000000 0.000000 0.000000 0.000000 0.170563 0.000000
# 6 0.000000 0.000000 0.000000 0.000000 0.000000 0.040800
#
#
# Mechanical properties :
#
#
# Convention : Reuss Voigt Hill
#
# Bulk Modulus (GPa) = 80.91407 91.28525 86.09966
# Shear Modulus (GPa) = 16.42473 26.63178 21.52826
#
# Velocity S-wave (km/s) = 3.00913 3.83171 3.44506
# Velocity P-wave (km/s) = 7.52866 8.36069 7.95556
#
# Compressibility (1/GPa) = 0.01235879
#
# Stress axis : x y z
#
# Youngs Moduli (GPa) = 87.85726 117.49826 67.84483
#
# Poissons Ratio (x) = 0.34881 0.20902
# Poissons Ratio (y) = 0.26082 0.34514
# Poissons Ratio (z) = 0.27068 0.59774
#
# Static dielectric constant tensor:
#      x y z
#    x 1.629180 0.000000 0.000000 
#    y 0.000000 1.607360 0.000000 
#    z 0.000000 0.000000 1.625980 
# 
# From -- ./inp_files/17677.got.cif
#   From: 2010.05.17/outbox.cif.g08.bks.cpg/sg42_9_cif.got.tgz:17677.got - 2010.06.03 19:03:34.
