data_PCOD9369773
_publ_section_title
;
Structure prediction by ZEFSAII (Michael W. Deem and Ramdas Pophale) SiO2 
 PCOD9369773
Probable space group: F M M 2
;
_chemical_formula_sum "Si O2"
_cell_formula_units_Z 80
_cell_length_a 24.362039
_cell_length_b 27.882898
_cell_length_c 5.380798
_cell_angle_alpha 90.000000
_cell_angle_beta 90.000000
_cell_angle_gamma 90.000000
_cell_volume 3655.091326
_symmetry_space_group_name_H-M "F M M 2"
_symmetry_group_IT_number 42
_symmetry_cell_setting 'orthorhombic'
loop_
_space_group_symop_operation_xyz
x,y,z
-x,-y,z
-x,y,z
x,-y,z
x,1/2+y,1/2+z
-x,1/2-y,1/2+z
-x,1/2+y,1/2+z
x,1/2-y,1/2+z
1/2+x,y,1/2+z
1/2-x,-y,1/2+z
1/2-x,y,1/2+z
1/2+x,-y,1/2+z
1/2+x,1/2+y,z
1/2-x,1/2-y,z
1/2-x,1/2+y,z
1/2+x,1/2-y,z
loop_
_atom_site_type_symbol
_atom_site_label
_atom_site_fract_x
_atom_site_fract_y
_atom_site_fract_z
Si Si1 0.314238 0.231999 0.726920
Si Si2 0.882719 0.638370 0.599700
Si Si3 0.298239 0.500000 0.108583
Si Si4 0.371105 0.500000 0.608769
Si Si5 0.227149 0.898445 0.107862
Si Si6 0.565207 0.897471 0.101882
O O1 0.335364 0.266942 0.509229
O O2 0.250000 0.250000 0.752329
O O3 0.339219 0.182559 0.619245
O O4 0.837653 0.596859 0.594938
O O5 0.915634 0.633073 0.344244
O O6 0.917346 0.630355 0.848964
O O7 0.336528 0.500000 0.353312
O O8 0.257946 0.546087 0.112309
O O9 0.336390 0.500000 0.863593
O O10 0.406470 0.549820 0.607198
O O11 0.247927 0.874958 0.361916
O O12 0.500000 0.903266 0.107811
#
# Coordination Sequence:
#
# PCOD9369773 Si02
#       6
#    16  16   8   8  16  16
#     4  10  23  42  68 101 135 168 209 270 344 417
#     4  12  25  44  69 101 138 173 224 286 334 406
#     4  12  22  41  55  87 138 181 231 269 334 386
#     4  12  21  43  64  95 134 185 232 295 321 368
#     4  12  24  37  61  89 134 186 218 268 333 404
#     4  12  25  45  71  99 135 185 235 283 335 381
#
# _framework density 21.887276
#
# number of rings (size 3 to 8) (size 9 to 14) (size 15 to 20)
#    0.000    0.400    4.000    5.100    5.600    0.000 
#    0.000    3.000    0.000   12.000    0.000    0.000 
#    0.000    0.000    0.000    0.000    0.000    0.000 
#
# Total GULP energy -111427.642036 kJ/mol
# GULP energy per Si atom -5571.382102 kJ/mol
# Density = 2.183746 g / cm^3
# Si number density = 21.887276 Si / 1000 Ang^3
#
#
#
# Elastic Constant Matrix: (Units=GPa)
#
#
# Indices 1 2 3 4 5 6 
#
# 1 122.8898 23.2137 79.7636 -0.1008 0.0563 -0.0055
# 2 23.2137 65.0452 5.6163 0.0162 0.0450 -0.0536
# 3 79.7636 5.6163 213.2956 -0.1220 0.1025 -0.0211
# 4 -0.1008 0.0162 -0.1220 19.0423 -0.0020 0.0048
# 5 0.0563 0.0450 0.1025 -0.0020 19.1946 0.0223
# 6 -0.0055 -0.0536 -0.0211 0.0048 0.0223 24.0108
#
#
#
# Elastic Compliance Matrix: (Units=1/GPa)
#
#
# Indices 1 2 3 4 5 6 
#
# 1 0.011602 -0.003775 -0.004239 0.000037 -0.000003 -0.000010
# 2 -0.003775 0.016637 0.000973 -0.000028 -0.000033 0.000037
# 3 -0.004239 0.000973 0.006248 0.000017 -0.000023 0.000007
# 4 0.000037 -0.000028 0.000017 0.052515 0.000005 -0.000011
# 5 -0.000003 -0.000033 -0.000023 0.000005 0.052098 -0.000048
# 6 -0.000010 0.000037 0.000007 -0.000011 -0.000048 0.041648
#
#
# Mechanical properties :
#
#
# Convention : Reuss Voigt Hill
#
# Bulk Modulus (GPa) = 49.00440 68.71309 58.85875
# Shear Modulus (GPa) = 24.79778 31.95868 28.37823
#
# Velocity S-wave (km/s) = 3.36962 3.82534 3.60469
# Velocity P-wave (km/s) = 6.13003 7.13955 6.65396
#
# Compressibility (1/GPa) = 0.02040633
#
# Stress axis : x y z
#
# Youngs Moduli (GPa) = 86.19232 60.10688 160.05088
#
# Poissons Ratio (x) = 0.22688 0.67849
# Poissons Ratio (y) = 0.32534 -0.15580
# Poissons Ratio (z) = 0.36539 -0.05851
#
# Static dielectric constant tensor:
#      x y z
#    x 1.829700 -0.000270 -0.000210 
#    y -0.000270 2.117570 0.000040 
#    z -0.000210 0.000040 1.887260 
# 
# From -- ./inp_files/1012.got.cif
#   From: 2010.05.17/outbox.cif.g08.bks.cpg/sg42_1_cif.got.tgz:1012.got - 2010.06.03 19:03:34.
