data_PCOD9369580
_publ_section_title
;
Structure prediction by ZEFSAII (Michael W. Deem and Ramdas Pophale) SiO2 
 PCOD9369580
Probable space group: F M M 2
;
_chemical_formula_sum "Si O2"
_cell_formula_units_Z 56
_cell_length_a 19.264914
_cell_length_b 10.482080
_cell_length_c 10.916095
_cell_angle_alpha 90.000000
_cell_angle_beta 90.000000
_cell_angle_gamma 90.000000
_cell_volume 2204.356596
_symmetry_space_group_name_H-M "F M M 2"
_symmetry_group_IT_number 42
_symmetry_cell_setting 'orthorhombic'
loop_
_space_group_symop_operation_xyz
x,y,z
-x,-y,z
-x,y,z
x,-y,z
x,1/2+y,1/2+z
-x,1/2-y,1/2+z
-x,1/2+y,1/2+z
x,1/2-y,1/2+z
1/2+x,y,1/2+z
1/2-x,-y,1/2+z
1/2-x,y,1/2+z
1/2+x,-y,1/2+z
1/2+x,1/2+y,z
1/2-x,1/2-y,z
1/2-x,1/2+y,z
1/2+x,1/2-y,z
loop_
_atom_site_type_symbol
_atom_site_label
_atom_site_fract_x
_atom_site_fract_y
_atom_site_fract_z
Si Si1 0.500000 0.768021 0.332921
Si Si2 0.000000 0.000000 0.001735
Si Si3 0.185459 0.500000 0.024060
Si Si4 0.000000 0.500000 0.814041
Si Si5 0.333124 0.500000 0.920682
Si Si6 0.351385 0.209583 0.217600
Si Si7 0.851803 0.000000 0.239952
O O1 0.500000 0.627251 0.387853
O O2 0.566862 0.784326 0.248188
O O3 0.500000 0.861758 0.444486
O O4 0.906775 0.000000 0.989217
O O5 0.162463 0.374688 0.098359
O O6 0.268129 0.500000 0.010022
O O7 0.154622 0.500000 0.888445
O O8 0.064305 0.500000 0.721452
O O9 0.325011 0.624024 0.832265
O O10 0.326231 0.356210 0.208062
#
# Coordination Sequence:
#
# PCOD9369580 Si02
#       7
#     8   4   8   4   8  16   8
#     4   8  14  31  64  98 133 175 224 279 335 390
#     4   8  14  30  63  94 127 176 226 282 336 404
#     4  11  23  40  67 100 136 185 229 280 354 410
#     4   8  16  32  61  98 139 180 220 282 334 382
#     4   9  19  39  65 100 138 177 231 285 344 412
#     4   9  20  41  67 101 140 180 228 284 336 405
#     4  10  21  41  67 102 143 181 231 282 334 403
#
# _framework density 25.404239
#
# number of rings (size 3 to 8) (size 9 to 14) (size 15 to 20)
#    0.000    2.857    0.000    0.857    0.000    2.286 
#    0.000   15.714    0.000    0.000    0.000   46.000 
#    0.000    0.000    0.000    0.000    0.000    0.000 
#
# Total GULP energy -78054.206316 kJ/mol
# GULP energy per Si atom -5575.300451 kJ/mol
# Density = 2.534642 g / cm^3
# Si number density = 25.404239 Si / 1000 Ang^3
#
#
#
# Elastic Constant Matrix: (Units=GPa)
#
#
# Indices 1 2 3 4 5 6 
#
# 1 191.4836 69.4716 97.3855 0.0000 0.0000 0.0000
# 2 69.4716 271.3057 95.4046 0.0000 0.0000 0.0000
# 3 97.3855 95.4046 185.3127 0.0000 0.0000 0.0000
# 4 0.0000 0.0000 0.0000 -7.3953 0.0000 0.0000
# 5 0.0000 0.0000 0.0000 0.0000 -99.6638 0.0000
# 6 0.0000 0.0000 0.0000 0.0000 0.0000 -23.8549
#
#
#
# Elastic Compliance Matrix: (Units=1/GPa)
#
#
# Indices 1 2 3 4 5 6 
#
# 1 0.007214 -0.000628 -0.003468 0.000000 0.000000 0.000000
# 2 -0.000628 0.004555 -0.002015 0.000000 0.000000 0.000000
# 3 -0.003468 -0.002015 0.008256 0.000000 0.000000 0.000000
# 4 0.000000 0.000000 0.000000 -0.135222 0.000000 0.000000
# 5 0.000000 0.000000 0.000000 0.000000 -0.010034 0.000000
# 6 0.000000 0.000000 0.000000 0.000000 0.000000 -0.041920
#
#
# Mechanical properties :
#
#
# Convention : Reuss Voigt Hill
#
# Bulk Modulus (GPa) = 128.14604 130.29170 129.21887
# Shear Modulus (GPa) = -32.82409 -0.46011 -16.64210
#
# Velocity S-wave (km/s) = -3.59844 -0.42604 -2.56225
# Velocity P-wave (km/s) = 5.76951 7.15239 6.49784
#
# Compressibility (1/GPa) = 0.00780360
#
# Stress axis : x y z
#
# Youngs Moduli (GPa) = 138.62308 219.52416 121.12049
#
# Poissons Ratio (x) = 0.13780 0.42002
# Poissons Ratio (y) = 0.08702 0.24410
# Poissons Ratio (z) = 0.48072 0.44241
#
# Static dielectric constant tensor:
#      x y z
#    x 2.415150 0.000000 0.000000 
#    y 0.000000 1.950620 0.000000 
#    z 0.000000 0.000000 2.068710 
# 
# From -- ./inp_files/9197.got.cif
#   From: 2010.05.17/outbox.cif.g08.bks.cpg/sg42_5_cif.got.tgz:9197.got - 2010.06.03 19:03:34.
