data_PCOD9369382
_publ_section_title
;
Structure prediction by ZEFSAII (Michael W. Deem and Ramdas Pophale) SiO2 
 PCOD9369382
Probable space group: F M M 2
;
_chemical_formula_sum "Si O2"
_cell_formula_units_Z 72
_cell_length_a 21.324396
_cell_length_b 17.354235
_cell_length_c 7.776572
_cell_angle_alpha 90.000000
_cell_angle_beta 90.000000
_cell_angle_gamma 90.000000
_cell_volume 2877.864953
_symmetry_space_group_name_H-M "F M M 2"
_symmetry_group_IT_number 42
_symmetry_cell_setting 'orthorhombic'
loop_
_space_group_symop_operation_xyz
x,y,z
-x,-y,z
-x,y,z
x,-y,z
x,1/2+y,1/2+z
-x,1/2-y,1/2+z
-x,1/2+y,1/2+z
x,1/2-y,1/2+z
1/2+x,y,1/2+z
1/2-x,-y,1/2+z
1/2-x,y,1/2+z
1/2+x,-y,1/2+z
1/2+x,1/2+y,z
1/2-x,1/2-y,z
1/2-x,1/2+y,z
1/2+x,1/2-y,z
loop_
_atom_site_type_symbol
_atom_site_label
_atom_site_fract_x
_atom_site_fract_y
_atom_site_fract_z
Si Si1 0.500000 0.641374 0.979861
Si Si2 0.250000 0.750000 0.332736
Si Si3 0.500000 0.311462 0.385687
Si Si4 0.874152 0.585789 0.570931
Si Si5 0.864020 0.336572 0.929444
Si Si6 0.738243 0.086748 0.130820
O O1 0.500000 0.719848 0.876634
O O2 0.500000 0.654213 0.190688
O O3 0.432535 0.602296 0.947833
O O4 0.184023 0.764055 0.433760
O O5 0.257345 0.831282 0.232231
O O6 0.435568 0.329493 0.487153
O O7 0.886108 0.500000 0.641147
O O8 0.872928 0.643997 0.729502
O O9 0.801850 0.587082 0.514169
O O10 0.824996 0.403126 0.022286
O O11 0.739525 0.000000 0.207576
#
# Coordination Sequence:
#
# PCOD9369382 Si02
#       6
#     8   8   8  16  16  16
#     4  10  21  38  58  88 117 161 201 259 302 376
#     4  10  22  36  62  86 124 162 206 254 320 376
#     4  10  24  36  60  88 122 161 211 253 312 370
#     4   9  19  36  58  85 115 154 203 254 307 365
#     4  10  21  36  59  86 118 161 203 260 305 377
#     4  10  21  37  59  90 122 156 204 258 312 372
#
# _framework density 25.018547999999999
#
# number of rings (size 3 to 8) (size 9 to 14) (size 15 to 20)
#    0.000    2.222    0.000    1.667   12.444    0.889 
#    0.000    1.667    0.000    0.000    0.000    0.000 
#    0.000    0.000    0.000    0.000    0.000    0.000 
#
# Total GULP energy -100256.475167 kJ/mol
# GULP energy per Si atom -5569.804176 kJ/mol
# Density = 2.496160 g / cm^3
# Si number density = 25.018548 Si / 1000 Ang^3
#
#
#
# Elastic Constant Matrix: (Units=GPa)
#
#
# Indices 1 2 3 4 5 6 
#
# 1 253.9700 59.1765 27.9956 0.0000 0.0000 0.0000
# 2 59.1765 140.4942 25.9822 0.0000 0.0000 0.0000
# 3 27.9956 25.9822 26.1408 0.0000 0.0000 0.0000
# 4 0.0000 0.0000 0.0000 31.5033 0.0000 0.0000
# 5 0.0000 0.0000 0.0000 0.0000 2.2363 0.0000
# 6 0.0000 0.0000 0.0000 0.0000 0.0000 67.6970
#
#
#
# Elastic Compliance Matrix: (Units=1/GPa)
#
#
# Indices 1 2 3 4 5 6 
#
# 1 0.004642 -0.001269 -0.003710 0.000000 0.000000 0.000000
# 2 -0.001269 0.009068 -0.007653 0.000000 0.000000 0.000000
# 3 -0.003710 -0.007653 0.049835 0.000000 0.000000 0.000000
# 4 0.000000 0.000000 0.000000 0.031743 0.000000 0.000000
# 5 0.000000 0.000000 0.000000 0.000000 0.447167 0.000000
# 6 0.000000 0.000000 0.000000 0.000000 0.000000 0.014772
#
#
# Mechanical properties :
#
#
# Convention : Reuss Voigt Hill
#
# Bulk Modulus (GPa) = 26.12389 71.87929 49.00159
# Shear Modulus (GPa) = 8.39982 40.78404 24.59193
#
# Velocity S-wave (km/s) = 1.83432 4.04189 3.13860
# Velocity P-wave (km/s) = 3.86662 7.11163 5.72390
#
# Compressibility (1/GPa) = 0.03827914
#
# Stress axis : x y z
#
# Youngs Moduli (GPa) = 215.41667 110.28162 20.06635
#
# Poissons Ratio (x) = 0.13997 0.07445
# Poissons Ratio (y) = 0.27340 0.15358
# Poissons Ratio (z) = 0.79921 0.84404
#
# Static dielectric constant tensor:
#      x y z
#    x 2.159330 0.000000 0.000000 
#    y 0.000000 1.948360 0.000000 
#    z 0.000000 0.000000 2.092950 
# 
# From -- ./inp_files/8499.got.cif
#   From: 2010.05.17/outbox.cif.g08.bks.cpg/sg42_5_cif.got.tgz:8499.got - 2010.06.03 19:03:34.
