data_PCOD9369391
_publ_section_title
;
Structure prediction by ZEFSAII (Michael W. Deem and Ramdas Pophale) SiO2 
 PCOD9369391
Probable space group: F M M 2
;
_chemical_formula_sum "Si O2"
_cell_formula_units_Z 88
_cell_length_a 12.434982
_cell_length_b 17.728435
_cell_length_c 20.784550
_cell_angle_alpha 90.000000
_cell_angle_beta 90.000000
_cell_angle_gamma 90.000000
_cell_volume 4582.011623
_symmetry_space_group_name_H-M "F M M 2"
_symmetry_group_IT_number 42
_symmetry_cell_setting 'orthorhombic'
loop_
_space_group_symop_operation_xyz
x,y,z
-x,-y,z
-x,y,z
x,-y,z
x,1/2+y,1/2+z
-x,1/2-y,1/2+z
-x,1/2+y,1/2+z
x,1/2-y,1/2+z
1/2+x,y,1/2+z
1/2-x,-y,1/2+z
1/2-x,y,1/2+z
1/2+x,-y,1/2+z
1/2+x,1/2+y,z
1/2-x,1/2-y,z
1/2-x,1/2+y,z
1/2+x,1/2-y,z
loop_
_atom_site_type_symbol
_atom_site_label
_atom_site_fract_x
_atom_site_fract_y
_atom_site_fract_z
Si Si1 0.240320 0.660851 0.008160
Si Si2 0.500000 0.913648 0.842953
Si Si3 0.124362 0.090249 0.892761
Si Si4 0.770229 0.659939 0.150821
Si Si5 0.000000 0.111174 0.490890
Si Si6 0.500000 0.414748 0.639855
Si Si7 0.282260 0.660668 0.291689
O O1 0.250000 0.750000 0.007330
O O2 0.265074 0.630967 0.080368
O O3 0.314565 0.623034 0.954871
O O4 0.115162 0.650461 0.992629
O O5 0.500000 0.923561 0.920025
O O6 0.605205 0.865539 0.822825
O O7 0.500000 0.000000 0.816030
O O8 0.188382 0.118746 0.830553
O O9 0.000000 0.114518 0.891553
O O10 0.128587 0.000000 0.895190
O O11 0.750000 0.750000 0.147839
O O12 0.714207 0.636322 0.216906
O O13 0.894151 0.633345 0.157245
O O14 0.000000 0.075635 0.562337
O O15 0.500000 0.500000 0.667811
O O16 0.250000 0.750000 0.295133
#
# Coordination Sequence:
#
# PCOD9369391 Si02
#       7
#    16   8  16  16   8   8  16
#     4  10  21  39  65  92 122 160 209 259 308 372
#     4  12  25  41  63  93 131 165 208 263 317 368
#     4  11  25  41  61  90 128 166 206 255 314 374
#     4   9  22  42  61  93 126 163 206 260 313 368
#     4  10  21  36  62  92 120 158 209 258 313 355
#     4  10  21  37  65  95 118 161 215 263 307 363
#     4  11  25  42  67  91 126 167 211 256 312 376
#
# _framework density 19.205539000000002
#
# number of rings (size 3 to 8) (size 9 to 14) (size 15 to 20)
#    0.000    1.636    1.818    1.364    3.818    6.545 
#    3.273    0.000    0.000    0.000    0.000    0.000 
#    0.000    0.000    0.000    0.000    0.000    0.000 
#
# Total GULP energy -122546.261680 kJ/mol
# GULP energy per Si atom -5570.284622 kJ/mol
# Density = 1.916183 g / cm^3
# Si number density = 19.205539 Si / 1000 Ang^3
#
#
#
# Elastic Constant Matrix: (Units=GPa)
#
#
# Indices 1 2 3 4 5 6 
#
# 1 138.9451 62.9395 40.5237 0.0000 0.0000 0.0000
# 2 62.9395 80.0070 26.3871 0.0000 0.0000 0.0000
# 3 40.5237 26.3871 134.9793 0.0000 0.0000 0.0000
# 4 0.0000 0.0000 0.0000 -0.8131 0.0000 0.0000
# 5 0.0000 0.0000 0.0000 0.0000 24.6209 0.0000
# 6 0.0000 0.0000 0.0000 0.0000 0.0000 125.7591
#
#
#
# Elastic Compliance Matrix: (Units=1/GPa)
#
#
# Indices 1 2 3 4 5 6 
#
# 1 0.011582 -0.008514 -0.001813 0.000000 0.000000 0.000000
# 2 -0.008514 0.019618 -0.001279 0.000000 0.000000 0.000000
# 3 -0.001813 -0.001279 0.008203 0.000000 0.000000 0.000000
# 4 0.000000 0.000000 0.000000 -1.229919 0.000000 0.000000
# 5 0.000000 0.000000 0.000000 0.000000 0.040616 0.000000
# 6 0.000000 0.000000 0.000000 0.000000 0.000000 0.007952
#
#
# Mechanical properties :
#
#
# Convention : Reuss Voigt Hill
#
# Bulk Modulus (GPa) = 61.75899 68.18134 64.97016
# Shear Modulus (GPa) = -4.49100 44.85213 20.18056
#
# Velocity S-wave (km/s) = -1.53084 4.83781 3.24507
# Velocity P-wave (km/s) = 5.39463 8.17214 6.92409
#
# Compressibility (1/GPa) = 0.01619197
#
# Stress axis : x y z
#
# Youngs Moduli (GPa) = 86.33839 50.97300 121.90812
#
# Poissons Ratio (x) = 0.43396 0.22101
# Poissons Ratio (y) = 0.73505 0.15595
# Poissons Ratio (z) = 0.15653 0.06520
#
# Static dielectric constant tensor:
#      x y z
#    x 1.621730 0.000000 0.000000 
#    y 0.000000 1.677240 0.000000 
#    z 0.000000 0.000000 1.698780 
# 
# From -- ./inp_files/24351.got.cif
#   From: 2010.05.17/outbox.cif.g08.bks.cpg/sg42_13_cif.got.tgz:24351.got - 2010.06.03 19:03:34.
