data_PCOD9369112
_publ_section_title
;
Structure prediction by ZEFSAII (Michael W. Deem and Ramdas Pophale) SiO2 
 PCOD9369112
Probable space group: F M M 2
;
_chemical_formula_sum "Si O2"
_cell_formula_units_Z 116
_cell_length_a 29.116655
_cell_length_b 8.780625
_cell_length_c 25.151511
_cell_angle_alpha 90.000000
_cell_angle_beta 90.000000
_cell_angle_gamma 90.000000
_cell_volume 6430.296390
_symmetry_space_group_name_H-M "F M M 2"
_symmetry_group_IT_number 42
_symmetry_cell_setting 'orthorhombic'
loop_
_space_group_symop_operation_xyz
x,y,z
-x,-y,z
-x,y,z
x,-y,z
x,1/2+y,1/2+z
-x,1/2-y,1/2+z
-x,1/2+y,1/2+z
x,1/2-y,1/2+z
1/2+x,y,1/2+z
1/2-x,-y,1/2+z
1/2-x,y,1/2+z
1/2+x,-y,1/2+z
1/2+x,1/2+y,z
1/2-x,1/2-y,z
1/2-x,1/2+y,z
1/2+x,1/2-y,z
loop_
_atom_site_type_symbol
_atom_site_label
_atom_site_fract_x
_atom_site_fract_y
_atom_site_fract_z
Si Si1 0.619286 0.817559 0.516830
Si Si2 0.800851 0.316339 0.437957
Si Si3 0.903550 0.168374 0.628122
Si Si4 0.000000 0.000000 0.636524
Si Si5 0.871937 0.680423 0.241980
Si Si6 0.445329 0.822980 0.422416
Si Si7 0.445235 0.825567 0.811606
Si Si8 0.198895 0.182331 0.324683
O O1 0.666190 0.771926 0.486766
O O2 0.608413 0.756871 0.574902
O O3 0.579480 0.770570 0.475613
O O4 0.619420 0.000000 0.519342
O O5 0.799425 0.500000 0.434135
O O6 0.750000 0.250000 0.445440
O O7 0.818092 0.250902 0.381232
O O8 0.881249 0.234377 0.681800
O O9 0.882410 0.000000 0.621345
O O10 0.958069 0.131256 0.635460
O O11 0.862479 0.500000 0.241552
O O12 0.919277 0.712435 0.272838
O O13 0.833337 0.765086 0.276359
O O14 0.500000 0.818849 0.429453
O O15 0.433713 0.721319 0.371758
O O16 0.432093 0.000000 0.411803
O O17 0.500000 0.813333 0.805578
O O18 0.431339 0.000000 0.801290
O O19 0.250000 0.250000 0.317231
O O20 0.200702 0.000000 0.328298
#
# Coordination Sequence:
#
# PCOD9369112 Si02
#       8
#    16  16  16   4  16  16  16  16
#     4  10  21  36  56  82 112 145 191 241 286 341
#     4  10  20  36  59  88 121 156 195 235 288 349
#     4   9  22  38  60  80 112 147 195 234 287 340
#     4   8  20  44  58  84 112 148 202 244 280 342
#     4  11  22  37  59  81 110 151 193 239 287 345
#     4   9  18  32  50  75 106 143 180 223 284 350
#     4  10  21  34  50  79 112 144 184 233 289 347
#     4  11  22  38  62  91 121 152 192 237 292 350
#
# _framework density 18.039604000000001
#
# number of rings (size 3 to 8) (size 9 to 14) (size 15 to 20)
#    0.414    1.655    0.000    4.138    1.931    4.690 
#    0.000    0.690    0.000    1.655    0.000    0.000 
#    0.000    0.000    0.000    0.000    0.000    0.000 
#
# Total GULP energy -161443.743752 kJ/mol
# GULP energy per Si atom -5567.025647 kJ/mol
# Density = 1.799854 g / cm^3
# Si number density = 18.039604 Si / 1000 Ang^3
#
#
#
# Elastic Constant Matrix: (Units=GPa)
#
#
# Indices 1 2 3 4 5 6 
#
# 1 64.6389 23.1746 41.1241 0.0000 0.0007 0.0001
# 2 23.1746 55.8183 21.7968 0.0000 0.0006 0.0002
# 3 41.1241 21.7968 118.4338 0.0000 0.0002 0.0000
# 4 0.0000 0.0000 0.0000 27.0021 0.0002 0.0000
# 5 0.0007 0.0006 0.0002 0.0002 158.9851 -0.0006
# 6 0.0001 0.0002 0.0000 0.0000 -0.0006 28.1513
#
#
#
# Elastic Compliance Matrix: (Units=1/GPa)
#
#
# Indices 1 2 3 4 5 6 
#
# 1 0.021902 -0.006598 -0.006391 0.000000 0.000000 0.000000
# 2 -0.006598 0.021290 -0.001627 0.000000 0.000000 0.000000
# 3 -0.006391 -0.001627 0.010962 0.000000 0.000000 0.000000
# 4 0.000000 0.000000 0.000000 0.037034 0.000000 0.000000
# 5 0.000000 0.000000 0.000000 0.000000 0.006290 0.000000
# 6 0.000000 0.000000 0.000000 0.000000 0.000000 0.035522
#
#
# Mechanical properties :
#
#
# Convention : Reuss Voigt Hill
#
# Bulk Modulus (GPa) = 40.12455 45.67580 42.90017
# Shear Modulus (GPa) = 29.31875 53.01408 41.16641
#
# Velocity S-wave (km/s) = 4.03580 5.42691 4.78221
# Velocity P-wave (km/s) = 6.63383 8.04010 7.37058
#
# Compressibility (1/GPa) = 0.02492240
#
# Stress axis : x y z
#
# Youngs Moduli (GPa) = 45.65818 46.97054 91.22309
#
# Poissons Ratio (x) = 0.30989 0.58299
# Poissons Ratio (y) = 0.30124 0.14845
# Poissons Ratio (z) = 0.29179 0.07644
#
# Static dielectric constant tensor:
#      x y z
#    x 1.621920 0.000000 0.000000 
#    y 0.000000 1.619150 0.000000 
#    z 0.000000 0.000000 1.621760 
# 
# From -- ./inp_files/30873.got.cif
#   From: 2010.05.17/outbox.cif.g08.bks.cpg/sg42_16_cif.got.tgz:30873.got - 2010.06.03 19:03:34.
