data_PCOD9369144
_publ_section_title
;
Structure prediction by ZEFSAII (Michael W. Deem and Ramdas Pophale) SiO2 
 PCOD9369144
Probable space group: F M M 2
;
_chemical_formula_sum "Si O2"
_cell_formula_units_Z 76
_cell_length_a 27.085571
_cell_length_b 10.383242
_cell_length_c 14.836582
_cell_angle_alpha 90.000000
_cell_angle_beta 90.000000
_cell_angle_gamma 90.000000
_cell_volume 4172.581545
_symmetry_space_group_name_H-M "F M M 2"
_symmetry_group_IT_number 42
_symmetry_cell_setting 'orthorhombic'
loop_
_space_group_symop_operation_xyz
x,y,z
-x,-y,z
-x,y,z
x,-y,z
x,1/2+y,1/2+z
-x,1/2-y,1/2+z
-x,1/2+y,1/2+z
x,1/2-y,1/2+z
1/2+x,y,1/2+z
1/2-x,-y,1/2+z
1/2-x,y,1/2+z
1/2+x,-y,1/2+z
1/2+x,1/2+y,z
1/2-x,1/2-y,z
1/2-x,1/2+y,z
1/2+x,1/2-y,z
loop_
_atom_site_type_symbol
_atom_site_label
_atom_site_fract_x
_atom_site_fract_y
_atom_site_fract_z
Si Si1 0.912911 0.709135 0.540620
Si Si2 0.442640 0.151597 0.219064
Si Si3 0.302855 0.000000 0.390835
Si Si4 0.500000 0.500000 0.006208
Si Si5 0.865459 0.241566 0.357266
Si Si6 0.831724 0.500000 0.589743
Si Si7 0.301835 0.000000 0.792702
O O1 0.932596 0.803299 0.617536
O O2 0.891009 0.780107 0.453726
O O3 0.868442 0.622472 0.581924
O O4 0.956338 0.612162 0.510349
O O5 0.500000 0.173355 0.241335
O O6 0.407891 0.232362 0.284469
O O7 0.432534 0.000000 0.230598
O O8 0.333949 0.872865 0.366361
O O9 0.298076 0.000000 0.499897
O O10 0.252045 0.000000 0.336790
O O11 0.831132 0.125350 0.326693
O O12 0.802989 0.500000 0.683784
#
# Coordination Sequence:
#
# PCOD9369144 Si02
#       7
#    16  16   8   4  16   8   8
#     4  10  21  39  62  88 127 165 209 253 308 370
#     4  11  23  38  62  93 130 167 207 252 314 375
#     4  10  23  47  64  90 124 170 213 254 327 392
#     4  10  20  36  70  86 120 182 220 238 306 388
#     4  11  24  42  64  94 127 164 214 263 309 379
#     4   9  20  41  66  86 119 161 207 257 310 378
#     4  12  23  43  68  97 123 159 215 275 316 370
#
# _framework density 18.214144000000001
#
# number of rings (size 3 to 8) (size 9 to 14) (size 15 to 20)
#    0.000    1.474    4.211    1.263    2.947    0.000 
#    3.789    2.105    0.000    0.000    0.000    0.000 
#    0.000    0.000    0.000    0.000    0.000    0.000 
#
# Total GULP energy -105855.381265 kJ/mol
# GULP energy per Si atom -5571.335856 kJ/mol
# Density = 1.817269 g / cm^3
# Si number density = 18.214144 Si / 1000 Ang^3
#
#
#
# Elastic Constant Matrix: (Units=GPa)
#
#
# Indices 1 2 3 4 5 6 
#
# 1 83.1371 14.5181 40.8786 0.0000 0.0000 0.0000
# 2 14.5181 57.0693 19.9173 0.0000 0.0000 0.0000
# 3 40.8786 19.9173 92.9863 0.0000 0.0000 0.0000
# 4 0.0000 0.0000 0.0000 20.6173 0.0000 0.0000
# 5 0.0000 0.0000 0.0000 0.0000 12.2152 0.0000
# 6 0.0000 0.0000 0.0000 0.0000 0.0000 -137.9530
#
#
#
# Elastic Compliance Matrix: (Units=1/GPa)
#
#
# Indices 1 2 3 4 5 6 
#
# 1 0.015495 -0.001691 -0.006450 0.000000 0.000000 0.000000
# 2 -0.001691 0.019123 -0.003353 0.000000 0.000000 0.000000
# 3 -0.006450 -0.003353 0.014308 0.000000 0.000000 0.000000
# 4 0.000000 0.000000 0.000000 0.048503 0.000000 0.000000
# 5 0.000000 0.000000 0.000000 0.000000 0.081865 0.000000
# 6 0.000000 0.000000 0.000000 0.000000 0.000000 -0.007249
#
#
# Mechanical properties :
#
#
# Convention : Reuss Voigt Hill
#
# Bulk Modulus (GPa) = 38.55192 42.64673 40.59933
# Shear Modulus (GPa) = 24.54863 -10.49883 7.02490
#
# Velocity S-wave (km/s) = 3.67519 -2.40346 1.96601
# Velocity P-wave (km/s) = 6.26269 3.97023 5.24328
#
# Compressibility (1/GPa) = 0.02593904
#
# Stress axis : x y z
#
# Youngs Moduli (GPa) = 64.53736 52.29366 69.89196
#
# Poissons Ratio (x) = 0.08842 0.45078
# Poissons Ratio (y) = 0.10912 0.23433
# Poissons Ratio (z) = 0.41625 0.17532
#
# Static dielectric constant tensor:
#      x y z
#    x 1.596950 0.000000 0.000000 
#    y 0.000000 1.600750 0.000000 
#    z 0.000000 0.000000 1.632440 
# 
# From -- ./inp_files/7027.got.cif
#   From: 2010.05.17/outbox.cif.g08.bks.cpg/sg42_4_cif.got.tgz:7027.got - 2010.06.03 19:03:34.
