data_PCOD9369910
_publ_section_title
;
Structure prediction by ZEFSAII (Michael W. Deem and Ramdas Pophale) SiO2 
 PCOD9369910
Probable space group: F M M 2
;
_chemical_formula_sum "Si O2"
_cell_formula_units_Z 116
_cell_length_a 23.380822
_cell_length_b 25.962390
_cell_length_c 9.154644
_cell_angle_alpha 90.000000
_cell_angle_beta 90.000000
_cell_angle_gamma 90.000000
_cell_volume 5557.070487
_symmetry_space_group_name_H-M "F M M 2"
_symmetry_group_IT_number 42
_symmetry_cell_setting 'orthorhombic'
loop_
_space_group_symop_operation_xyz
x,y,z
-x,-y,z
-x,y,z
x,-y,z
x,1/2+y,1/2+z
-x,1/2-y,1/2+z
-x,1/2+y,1/2+z
x,1/2-y,1/2+z
1/2+x,y,1/2+z
1/2-x,-y,1/2+z
1/2-x,y,1/2+z
1/2+x,-y,1/2+z
1/2+x,1/2+y,z
1/2-x,1/2-y,z
1/2-x,1/2+y,z
1/2+x,1/2-y,z
loop_
_atom_site_type_symbol
_atom_site_label
_atom_site_fract_x
_atom_site_fract_y
_atom_site_fract_z
Si Si1 0.067707 0.056868 0.764990
Si Si2 0.867097 0.314647 0.524476
Si Si3 0.226457 0.847355 0.822613
Si Si4 0.845539 0.787180 0.348349
Si Si5 0.000000 0.000000 0.166194
Si Si6 0.597654 0.420678 0.080854
Si Si7 0.806946 0.060469 0.325501
Si Si8 0.640678 0.871462 0.072272
O O1 0.090678 0.102971 0.666420
O O2 0.000000 0.062126 0.799752
O O3 0.074544 0.000000 0.695655
O O4 0.102197 0.057253 0.916812
O O5 0.810545 0.344861 0.469896
O O6 0.864443 0.267633 0.411376
O O7 0.862407 0.289832 0.681545
O O8 0.913118 0.360149 0.544719
O O9 0.278382 0.806250 0.842341
O O10 0.252093 0.903970 0.804249
O O11 0.184948 0.842816 0.682239
O O12 0.875451 0.829966 0.449674
O O13 0.049159 0.954699 0.156137
O O14 0.650502 0.425936 0.191745
O O15 0.832206 0.081958 0.478253
O O16 0.796671 0.000000 0.329313
#
# Coordination Sequence:
#
# PCOD9369910 Si02
#       8
#    16  16  16  16   4  16  16  16
#     4  11  22  42  68 100 131 177 237 300 363 424
#     4  12  24  43  67  99 139 183 235 287 338 414
#     4  11  23  41  62  99 140 192 230 277 342 427
#     4  11  24  41  66  97 137 182 232 278 344 417
#     4  12  24  48  84 102 128 188 244 290 360 432
#     4  12  22  45  71 101 133 180 239 293 346 424
#     4  11  24  41  60  98 142 179 231 284 352 423
#     4  11  23  41  65  98 141 183 228 290 348 422
#
# _framework density 20.874307000000002
#
# number of rings (size 3 to 8) (size 9 to 14) (size 15 to 20)
#    0.000    0.690    6.207    3.310    0.000    2.207 
#    2.483    0.000    1.517    0.000    0.000    0.000 
#    0.000    0.000    0.000    0.000    0.000    0.000 
#
# Total GULP energy -161466.282677 kJ/mol
# GULP energy per Si atom -5567.802851 kJ/mol
# Density = 2.082680 g / cm^3
# Si number density = 20.874307 Si / 1000 Ang^3
#
#
#
# Elastic Constant Matrix: (Units=GPa)
#
#
# Indices 1 2 3 4 5 6 
#
# 1 24.4786 30.3602 22.8800 0.0011 -0.0023 -0.0028
# 2 30.3602 160.2994 45.7274 0.0007 -0.0011 0.0004
# 3 22.8800 45.7274 118.0733 0.0021 -0.0045 -0.0074
# 4 0.0011 0.0007 0.0021 36.0182 -0.0016 0.0003
# 5 -0.0023 -0.0011 -0.0045 -0.0016 -10.3373 0.0146
# 6 -0.0028 0.0004 -0.0074 0.0003 0.0146 -43.1536
#
#
#
# Elastic Compliance Matrix: (Units=1/GPa)
#
#
# Indices 1 2 3 4 5 6 
#
# 1 0.059512 -0.008973 -0.008057 -0.000001 -0.000009 -0.000003
# 2 -0.008973 0.008366 -0.001501 0.000000 0.000002 0.000001
# 3 -0.008057 -0.001501 0.010612 0.000000 -0.000003 -0.000001
# 4 -0.000001 0.000000 0.000000 0.027764 -0.000004 0.000000
# 5 -0.000009 0.000002 -0.000003 -0.000004 -0.096737 -0.000033
# 6 -0.000003 0.000001 -0.000001 0.000000 -0.000033 -0.023173
#
#
# Mechanical properties :
#
#
# Convention : Reuss Voigt Hill
#
# Bulk Modulus (GPa) = 24.13867 55.64294 39.89081
# Shear Modulus (GPa) = 134.35638 10.09771 72.22704
#
# Velocity S-wave (km/s) = 8.03145 2.20179 5.88864
# Velocity P-wave (km/s) = 9.87899 5.76003 8.08617
#
# Compressibility (1/GPa) = 0.04142729
#
# Stress axis : x y z
#
# Youngs Moduli (GPa) = 16.80343 119.53118 94.23311
#
# Poissons Ratio (x) = 1.07255 0.75924
# Poissons Ratio (y) = 0.15078 0.14147
# Poissons Ratio (z) = 0.13539 0.17944
#
# Static dielectric constant tensor:
#      x y z
#    x 1.794130 0.000000 0.000000 
#    y 0.000000 1.817240 0.000000 
#    z 0.000000 0.000000 1.764230 
# 
# From -- ./inp_files/4889.got.cif
#   From: 2010.05.17/outbox.cif.g08.bks.cpg/sg42_3_cif.got.tgz:4889.got - 2010.06.03 19:03:34.
