data_PCOD9369300
_publ_section_title
;
Structure prediction by ZEFSAII (Michael W. Deem and Ramdas Pophale) SiO2 
 PCOD9369300
Probable space group: F M M 2
;
_chemical_formula_sum "Si O2"
_cell_formula_units_Z 88
_cell_length_a 17.324718
_cell_length_b 27.728479
_cell_length_c 8.138186
_cell_angle_alpha 90.000000
_cell_angle_beta 90.000000
_cell_angle_gamma 90.000000
_cell_volume 3909.487541
_symmetry_space_group_name_H-M "F M M 2"
_symmetry_group_IT_number 42
_symmetry_cell_setting 'orthorhombic'
loop_
_space_group_symop_operation_xyz
x,y,z
-x,-y,z
-x,y,z
x,-y,z
x,1/2+y,1/2+z
-x,1/2-y,1/2+z
-x,1/2+y,1/2+z
x,1/2-y,1/2+z
1/2+x,y,1/2+z
1/2-x,-y,1/2+z
1/2-x,y,1/2+z
1/2+x,-y,1/2+z
1/2+x,1/2+y,z
1/2-x,1/2-y,z
1/2-x,1/2+y,z
1/2+x,1/2-y,z
loop_
_atom_site_type_symbol
_atom_site_label
_atom_site_fract_x
_atom_site_fract_y
_atom_site_fract_z
Si Si1 0.500000 0.413079 0.115750
Si Si2 0.141319 0.000000 0.612998
Si Si3 0.908846 0.230690 0.833647
Si Si4 0.500000 0.000000 0.865663
Si Si5 0.589249 0.824211 0.985602
Si Si6 0.849147 0.358677 0.514691
Si Si7 0.804801 0.603998 0.156368
Si Si8 0.500000 0.000000 0.362542
O O1 0.500000 0.450071 0.265697
O O2 0.425328 0.379642 0.099381
O O3 0.500000 0.450833 0.964830
O O4 0.193458 0.047428 0.621132
O O5 0.079183 0.000000 0.760744
O O6 0.080770 0.000000 0.463371
O O7 0.884365 0.286351 0.847546
O O8 0.862211 0.196095 0.955950
O O9 0.000000 0.229492 0.881171
O O10 0.904622 0.207592 0.653556
O O11 0.500000 0.837240 0.959719
O O12 0.638480 0.870854 0.024610
O O13 0.834909 0.386180 0.340341
O O14 0.776628 0.370346 0.628065
#
# Coordination Sequence:
#
# PCOD9369300 Si02
#       8
#     8   8  16   4  16  16  16   4
#     4  11  22  46  68  94 128 169 227 260 329 386
#     4  11  24  44  64  98 133 169 217 270 325 377
#     4   9  18  38  64  93 126 168 214 263 323 388
#     4  10  28  40  68  98 128 166 228 280 308 394
#     4   9  20  38  63  95 127 168 216 265 322 389
#     4  11  24  43  68  95 132 175 215 272 325 393
#     4  11  26  41  66  96 135 173 220 269 329 382
#     4  10  20  40  76  88 110 186 216 256 316 388
#
# _framework density 22.509343000000001
#
# number of rings (size 3 to 8) (size 9 to 14) (size 15 to 20)
#    0.000    1.818    2.727    0.000    6.364    4.364 
#    0.000    3.636    0.000    0.000    0.000    0.000 
#    0.000    0.000    0.000    0.000    0.000    0.000 
#
# Total GULP energy -123096.178439 kJ/mol
# GULP energy per Si atom -5595.280838 kJ/mol
# Density = 2.245811 g / cm^3
# Si number density = 22.509343 Si / 1000 Ang^3
#
#
#
# Elastic Constant Matrix: (Units=GPa)
#
#
# Indices 1 2 3 4 5 6 
#
# 1 74.1871 15.4419 3.8058 0.0000 0.0000 0.0000
# 2 15.4419 117.4686 3.7588 0.0000 0.0000 0.0000
# 3 3.8058 3.7588 57.1221 0.0000 -0.0001 0.0000
# 4 0.0000 0.0000 0.0000 44.1115 0.0000 0.0000
# 5 0.0000 0.0000 -0.0001 0.0000 47.3838 0.0000
# 6 0.0000 0.0000 0.0000 0.0000 0.0000 29.6952
#
#
#
# Elastic Compliance Matrix: (Units=1/GPa)
#
#
# Indices 1 2 3 4 5 6 
#
# 1 0.013896 -0.001801 -0.000807 0.000000 0.000000 0.000000
# 2 -0.001801 0.008764 -0.000457 0.000000 0.000000 0.000000
# 3 -0.000807 -0.000457 0.017590 0.000000 0.000000 0.000000
# 4 0.000000 0.000000 0.000000 0.022670 0.000000 0.000000
# 5 0.000000 0.000000 0.000000 0.000000 0.021104 0.000000
# 6 0.000000 0.000000 0.000000 0.000000 0.000000 0.033675
#
#
# Mechanical properties :
#
#
# Convention : Reuss Voigt Hill
#
# Bulk Modulus (GPa) = 29.30799 32.75453 31.03126
# Shear Modulus (GPa) = 36.98144 39.28950 38.13547
#
# Velocity S-wave (km/s) = 4.05771 4.18242 4.12054
# Velocity P-wave (km/s) = 5.91625 6.15684 6.03774
#
# Compressibility (1/GPa) = 0.03412039
#
# Stress axis : x y z
#
# Youngs Moduli (GPa) = 71.96472 114.09978 56.84986
#
# Poissons Ratio (x) = 0.20547 0.04590
# Poissons Ratio (y) = 0.12960 0.02596
# Poissons Ratio (z) = 0.05810 0.05211
#
# Static dielectric constant tensor:
#      x y z
#    x 1.773400 0.000000 0.000000 
#    y 0.000000 1.790730 0.000000 
#    z 0.000000 0.000000 1.887150 
# 
# From -- ./inp_files/3671.got.cif
#   From: 2010.05.17/outbox.cif.g08.bks.cpg/sg42_2_cif.got.tgz:3671.got - 2010.06.03 19:03:34.
