data_PCOD9369880
_publ_section_title
;
Structure prediction by ZEFSAII (Michael W. Deem and Ramdas Pophale) SiO2 
 PCOD9369880
Probable space group: F M M 2
;
_chemical_formula_sum "Si O2"
_cell_formula_units_Z 80
_cell_length_a 8.632178
_cell_length_b 18.676717
_cell_length_c 26.275353
_cell_angle_alpha 90.000000
_cell_angle_beta 90.000000
_cell_angle_gamma 90.000000
_cell_volume 4236.132002
_symmetry_space_group_name_H-M "F M M 2"
_symmetry_group_IT_number 42
_symmetry_cell_setting 'orthorhombic'
loop_
_space_group_symop_operation_xyz
x,y,z
-x,-y,z
-x,y,z
x,-y,z
x,1/2+y,1/2+z
-x,1/2-y,1/2+z
-x,1/2+y,1/2+z
x,1/2-y,1/2+z
1/2+x,y,1/2+z
1/2-x,-y,1/2+z
1/2-x,y,1/2+z
1/2+x,-y,1/2+z
1/2+x,1/2+y,z
1/2-x,1/2-y,z
1/2-x,1/2+y,z
1/2+x,1/2-y,z
loop_
_atom_site_type_symbol
_atom_site_label
_atom_site_fract_x
_atom_site_fract_y
_atom_site_fract_z
Si Si1 0.685924 0.083465 0.843530
Si Si2 0.315975 0.330098 0.747521
Si Si3 0.686032 0.084798 0.652779
Si Si4 0.188480 0.582046 0.537358
Si Si5 0.313732 0.829863 0.439390
O O1 0.500000 0.087712 0.845195
O O2 0.745258 0.123859 0.793517
O O3 0.754946 0.121880 0.892973
O O4 0.731072 0.000000 0.842148
O O5 0.500000 0.327841 0.752770
O O6 0.250000 0.250000 0.749255
O O7 0.268756 0.367922 0.694835
O O8 0.500000 0.094985 0.656877
O O9 0.734699 0.102193 0.594792
O O10 0.715581 0.000000 0.660831
O O11 0.238177 0.500000 0.527405
O O12 0.239030 0.634505 0.492636
O O13 0.000000 0.581426 0.537381
O O14 0.500000 0.828272 0.438683
O O15 0.250000 0.750000 0.434248
#
# Coordination Sequence:
#
# PCOD9369880 Si02
#       5
#    16  16  16  16  16
#     4  11  24  42  63  86 113 146 186 233 286 342
#     4  12  25  40  59  84 116 151 190 235 284 338
#     4   9  18  36  61  87 117 152 190 233 282 336
#     4   8  16  33  58  85 113 150 193 234 279 333
#     4  11  22  37  58  85 119 154 191 234 281 335
#
# _framework density 18.885152999999999
#
# number of rings (size 3 to 8) (size 9 to 14) (size 15 to 20)
#    0.000    1.800    0.000    6.000    0.000    6.000 
#    0.000    4.000    0.000    2.400    0.000    0.000 
#    0.000    0.000    0.000    0.000    0.000    0.000 
#
# Total GULP energy -111778.212841 kJ/mol
# GULP energy per Si atom -5588.910642 kJ/mol
# Density = 1.884217 g / cm^3
# Si number density = 18.885153 Si / 1000 Ang^3
#
#
#
# Elastic Constant Matrix: (Units=GPa)
#
#
# Indices 1 2 3 4 5 6 
#
# 1 62.2666 58.5294 46.2581 0.0000 0.0000 0.0000
# 2 58.5294 159.8519 115.0284 0.0000 0.0000 0.0000
# 3 46.2581 115.0284 162.6921 0.0000 0.0000 0.0000
# 4 0.0000 0.0000 0.0000 -30.2934 0.0000 0.0000
# 5 0.0000 0.0000 0.0000 0.0000 30.2294 0.0000
# 6 0.0000 0.0000 0.0000 0.0000 0.0000 23.4359
#
#
#
# Elastic Compliance Matrix: (Units=1/GPa)
#
#
# Indices 1 2 3 4 5 6 
#
# 1 0.024617 -0.008096 -0.001275 0.000000 0.000000 0.000000
# 2 -0.008096 0.015398 -0.008585 0.000000 0.000000 0.000000
# 3 -0.001275 -0.008585 0.012579 0.000000 0.000000 0.000000
# 4 0.000000 0.000000 0.000000 -0.033010 0.000000 0.000000
# 5 0.000000 0.000000 0.000000 0.000000 0.033080 0.000000
# 6 0.000000 0.000000 0.000000 0.000000 0.000000 0.042670
#
#
# Mechanical properties :
#
#
# Convention : Reuss Voigt Hill
#
# Bulk Modulus (GPa) = 59.94506 91.60471 75.77489
# Shear Modulus (GPa) = 36.54817 15.67402 26.11110
#
# Velocity S-wave (km/s) = 4.40396 2.88404 3.72240
# Velocity P-wave (km/s) = 7.59412 7.72669 7.66069
#
# Compressibility (1/GPa) = 0.01668194
#
# Stress axis : x y z
#
# Youngs Moduli (GPa) = 40.62168 64.94558 79.49852
#
# Poissons Ratio (x) = 0.52579 0.10140
# Poissons Ratio (y) = 0.32886 0.68247
# Poissons Ratio (z) = 0.05181 0.55754
#
# Static dielectric constant tensor:
#      x y z
#    x 1.641940 0.000000 0.000000 
#    y 0.000000 1.621240 0.000000 
#    z 0.000000 0.000000 1.638710 
# 
# From -- ./inp_files/31251.got.cif
#   From: 2010.05.17/outbox.cif.g08.bks.cpg/sg42_16_cif.got.tgz:31251.got - 2010.06.03 19:03:34.
