data_PCOD9369054
_publ_section_title
;
Structure prediction by ZEFSAII (Michael W. Deem and Ramdas Pophale) SiO2 
 PCOD9369054
Probable space group: F M M 2
;
_chemical_formula_sum "Si O2"
_cell_formula_units_Z 72
_cell_length_a 16.194556
_cell_length_b 13.997801
_cell_length_c 17.854895
_cell_angle_alpha 90.000000
_cell_angle_beta 90.000000
_cell_angle_gamma 90.000000
_cell_volume 4047.493512
_symmetry_space_group_name_H-M "F M M 2"
_symmetry_group_IT_number 42
_symmetry_cell_setting 'orthorhombic'
loop_
_space_group_symop_operation_xyz
x,y,z
-x,-y,z
-x,y,z
x,-y,z
x,1/2+y,1/2+z
-x,1/2-y,1/2+z
-x,1/2+y,1/2+z
x,1/2-y,1/2+z
1/2+x,y,1/2+z
1/2-x,-y,1/2+z
1/2-x,y,1/2+z
1/2+x,-y,1/2+z
1/2+x,1/2+y,z
1/2-x,1/2-y,z
1/2-x,1/2+y,z
1/2+x,1/2-y,z
loop_
_atom_site_type_symbol
_atom_site_label
_atom_site_fract_x
_atom_site_fract_y
_atom_site_fract_z
Si Si1 0.339138 0.804205 0.293160
Si Si2 0.821969 0.500000 0.708717
Si Si3 0.500000 0.823284 0.822454
Si Si4 0.707588 0.154314 0.135226
Si Si5 0.500000 0.000000 0.708870
Si Si6 0.326892 0.500000 0.511660
Si Si7 0.729445 0.500000 0.856805
Si Si8 0.500000 0.500000 0.433725
O O1 0.250000 0.750000 0.299468
O O2 0.416775 0.741462 0.321382
O O3 0.354221 0.822764 0.203959
O O4 0.323265 0.905288 0.335258
O O5 0.775274 0.591893 0.679096
O O6 0.911413 0.500000 0.672639
O O7 0.809080 0.500000 0.798972
O O8 0.500000 0.899485 0.754091
O O9 0.500000 0.900344 0.888656
O O10 0.750000 0.250000 0.107900
O O11 0.680828 0.091101 0.065887
O O12 0.262969 0.500000 0.441680
O O13 0.417271 0.500000 0.479670
#
# Coordination Sequence:
#
# PCOD9369054 Si02
#       8
#    16   8   8  16   4   8   8   4
#     4  10  20  37  60  84 111 146 191 235 277 328
#     4   9  18  33  55  81 107 142 186 230 275 328
#     4  11  22  34  58  86 108 142 187 235 284 329
#     4   9  19  36  55  79 108 144 187 223 273 345
#     4  11  16  28  54  84 112 129 170 242 286 313
#     4  11  22  35  55  79 113 150 176 226 293 336
#     4  10  20  36  56  78 110 148 184 225 274 335
#     4  11  24  38  50  84 116 135 188 242 282 343
#
# _framework density 17.788786999999999
#
# number of rings (size 3 to 8) (size 9 to 14) (size 15 to 20)
#    0.000    2.000    0.000    7.333    0.000    4.000 
#    0.000    1.111    0.000    5.333    0.000    0.000 
#    0.000    0.000    0.000    0.000    0.000    0.000 
#
# Total GULP energy -100225.417412 kJ/mol
# GULP energy per Si atom -5568.078745 kJ/mol
# Density = 1.774830 g / cm^3
# Si number density = 17.788787 Si / 1000 Ang^3
#
#
#
# Elastic Constant Matrix: (Units=GPa)
#
#
# Indices 1 2 3 4 5 6 
#
# 1 102.5925 60.7060 49.0472 0.0000 0.0000 0.0000
# 2 60.7060 168.3599 64.2454 0.0000 0.0000 0.0000
# 3 49.0472 64.2454 119.1182 0.0000 0.0000 0.0000
# 4 0.0000 0.0000 0.0000 379.6772 0.0000 0.0000
# 5 0.0000 0.0000 0.0000 0.0000 16.0349 0.0000
# 6 0.0000 0.0000 0.0000 0.0000 0.0000 45.2617
#
#
#
# Elastic Compliance Matrix: (Units=1/GPa)
#
#
# Indices 1 2 3 4 5 6 
#
# 1 0.013583 -0.003480 -0.003716 0.000000 0.000000 0.000000
# 2 -0.003480 0.008370 -0.003082 0.000000 0.000000 0.000000
# 3 -0.003716 -0.003082 0.011587 0.000000 0.000000 0.000000
# 4 0.000000 0.000000 0.000000 0.002634 0.000000 0.000000
# 5 0.000000 0.000000 0.000000 0.000000 0.062364 0.000000
# 6 0.000000 0.000000 0.000000 0.000000 0.000000 0.022094
#
#
# Mechanical properties :
#
#
# Convention : Reuss Voigt Hill
#
# Bulk Modulus (GPa) = 77.00845 82.00752 79.50798
# Shear Modulus (GPa) = 34.36072 102.59957 68.48014
#
# Velocity S-wave (km/s) = 4.39976 7.60275 6.21127
# Velocity P-wave (km/s) = 8.31835 11.10269 9.80981
#
# Compressibility (1/GPa) = 0.01298559
#
# Stress axis : x y z
#
# Youngs Moduli (GPa) = 73.62263 119.47076 86.30195
#
# Poissons Ratio (x) = 0.41570 0.32070
# Poissons Ratio (y) = 0.25617 0.26596
# Poissons Ratio (z) = 0.27359 0.36817
#
# Static dielectric constant tensor:
#      x y z
#    x 1.836530 0.000000 0.000000 
#    y 0.000000 1.415650 0.000000 
#    z 0.000000 0.000000 1.634460 
# 
# From -- ./inp_files/19765.got.cif
#   From: 2010.05.17/outbox.cif.g08.bks.cpg/sg42_10_cif.got.tgz:19765.got - 2010.06.03 19:03:34.
