data_PCOD9369104
_publ_section_title
;
Structure prediction by ZEFSAII (Michael W. Deem and Ramdas Pophale) SiO2 
 PCOD9369104
Probable space group: F M M 2
;
_chemical_formula_sum "Si O2"
_cell_formula_units_Z 96
_cell_length_a 18.068456
_cell_length_b 8.921159
_cell_length_c 31.699678
_cell_angle_alpha 90.000000
_cell_angle_beta 90.000000
_cell_angle_gamma 90.000000
_cell_volume 5109.720829
_symmetry_space_group_name_H-M "F M M 2"
_symmetry_group_IT_number 42
_symmetry_cell_setting 'orthorhombic'
loop_
_space_group_symop_operation_xyz
x,y,z
-x,-y,z
-x,y,z
x,-y,z
x,1/2+y,1/2+z
-x,1/2-y,1/2+z
-x,1/2+y,1/2+z
x,1/2-y,1/2+z
1/2+x,y,1/2+z
1/2-x,-y,1/2+z
1/2-x,y,1/2+z
1/2+x,-y,1/2+z
1/2+x,1/2+y,z
1/2-x,1/2-y,z
1/2-x,1/2+y,z
1/2+x,1/2-y,z
loop_
_atom_site_type_symbol
_atom_site_label
_atom_site_fract_x
_atom_site_fract_y
_atom_site_fract_z
Si Si1 0.911603 0.176928 0.849930
Si Si2 0.168722 0.819689 0.429675
Si Si3 0.589211 0.675330 0.690723
Si Si4 0.086985 0.320733 0.016502
Si Si5 0.831326 0.178809 0.269708
Si Si6 0.590070 0.172355 0.603650
O O1 0.880007 0.252757 0.891981
O O2 0.875618 0.255538 0.809510
O O3 0.000000 0.192153 0.848368
O O4 0.893216 0.000000 0.849635
O O5 0.250000 0.750000 0.426817
O O6 0.132268 0.781006 0.474763
O O7 0.171675 0.000000 0.426154
O O8 0.500000 0.691164 0.693778
O O9 0.607052 0.500000 0.695990
O O10 0.627332 0.770547 0.727177
O O11 0.612586 0.732709 0.644482
O O12 0.091482 0.500000 0.022709
O O13 0.000000 0.283628 0.010086
O O14 0.114064 0.240336 0.058961
O O15 0.750000 0.250000 0.269917
O O16 0.827066 0.000000 0.272377
O O17 0.500000 0.176290 0.602964
O O18 0.613098 0.000000 0.608042
#
# Coordination Sequence:
#
# PCOD9369104 Si02
#       6
#    16  16  16  16  16  16
#     4  11  24  42  64  89 116 147 187 234 283 337
#     4  11  23  39  59  84 117 154 192 235 285 341
#     4  10  20  36  59  86 117 152 192 238 286 337
#     4   9  18  34  56  81 110 147 191 238 288 341
#     4  12  25  41  61  85 117 153 190 233 283 340
#     4   9  17  30  52  83 115 147 188 238 288 337
#
# _framework density 18.78772
#
# number of rings (size 3 to 8) (size 9 to 14) (size 15 to 20)
#    0.000    1.667    0.000    5.000    0.000    8.333 
#    0.000    2.500    0.000    2.000    0.000    0.000 
#    0.000    0.000    0.000    0.000    0.000    0.000 
#
# Total GULP energy -134149.224832 kJ/mol
# GULP energy per Si atom -5589.551035 kJ/mol
# Density = 1.874496 g / cm^3
# Si number density = 18.787720 Si / 1000 Ang^3
#
#
#
# Elastic Constant Matrix: (Units=GPa)
#
#
# Indices 1 2 3 4 5 6 
#
# 1 56.5807 58.5802 51.6667 0.0000 0.0000 0.0000
# 2 58.5802 135.7085 87.0092 0.0000 0.0000 0.0000
# 3 51.6667 87.0092 166.6026 0.0000 0.0000 0.0000
# 4 0.0000 0.0000 0.0000 40.1120 0.0000 0.0000
# 5 0.0000 0.0000 0.0000 0.0000 -44.4282 0.0000
# 6 0.0000 0.0000 0.0000 0.0000 0.0000 24.6504
#
#
#
# Elastic Compliance Matrix: (Units=1/GPa)
#
#
# Indices 1 2 3 4 5 6 
#
# 1 0.033901 -0.011867 -0.004316 0.000000 0.000000 0.000000
# 2 -0.011867 0.015232 -0.004275 0.000000 0.000000 0.000000
# 3 -0.004316 -0.004275 0.009573 0.000000 0.000000 0.000000
# 4 0.000000 0.000000 0.000000 0.024930 0.000000 0.000000
# 5 0.000000 0.000000 0.000000 0.000000 -0.022508 0.000000
# 6 0.000000 0.000000 0.000000 0.000000 0.000000 0.040567
#
#
# Mechanical properties :
#
#
# Convention : Reuss Voigt Hill
#
# Bulk Modulus (GPa) = 56.20710 83.71155 69.95932
# Shear Modulus (GPa) = 33.66078 14.84255 24.25167
#
# Velocity S-wave (km/s) = 4.23737 2.81377 3.59670
# Velocity P-wave (km/s) = 7.34318 7.43032 7.38688
#
# Compressibility (1/GPa) = 0.01779135
#
# Stress axis : x y z
#
# Youngs Moduli (GPa) = 29.49772 65.65146 104.45656
#
# Poissons Ratio (x) = 0.77906 0.45083
# Poissons Ratio (y) = 0.35004 0.44654
# Poissons Ratio (z) = 0.12731 0.28065
#
# Static dielectric constant tensor:
#      x y z
#    x 1.630290 0.000000 0.000000 
#    y 0.000000 1.629470 0.000000 
#    z 0.000000 0.000000 1.621110 
# 
# From -- ./inp_files/32998.got.cif
#   From: 2010.05.17/outbox.cif.g08.bks.cpg/sg42_17_cif.got.tgz:32998.got - 2010.06.03 19:03:34.
