data_PCOD9369700
_publ_section_title
;
Structure prediction by ZEFSAII (Michael W. Deem and Ramdas Pophale) SiO2 
 PCOD9369700
Probable space group: F M M 2
;
_chemical_formula_sum "Si O2"
_cell_formula_units_Z 80
_cell_length_a 13.248227
_cell_length_b 23.971890
_cell_length_c 11.063661
_cell_angle_alpha 90.000000
_cell_angle_beta 90.000000
_cell_angle_gamma 90.000000
_cell_volume 3513.653225
_symmetry_space_group_name_H-M "F M M 2"
_symmetry_group_IT_number 42
_symmetry_cell_setting 'orthorhombic'
loop_
_space_group_symop_operation_xyz
x,y,z
-x,-y,z
-x,y,z
x,-y,z
x,1/2+y,1/2+z
-x,1/2-y,1/2+z
-x,1/2+y,1/2+z
x,1/2-y,1/2+z
1/2+x,y,1/2+z
1/2-x,-y,1/2+z
1/2-x,y,1/2+z
1/2+x,-y,1/2+z
1/2+x,1/2+y,z
1/2-x,1/2-y,z
1/2-x,1/2+y,z
1/2+x,1/2-y,z
loop_
_atom_site_type_symbol
_atom_site_label
_atom_site_fract_x
_atom_site_fract_y
_atom_site_fract_z
Si Si1 0.000000 0.253235 0.107970
Si Si2 0.176657 0.297491 0.276134
Si Si3 0.000000 0.390066 0.660793
Si Si4 0.000000 0.655244 0.438645
Si Si5 0.000000 0.849827 0.420555
Si Si6 0.670787 0.939048 0.971020
Si Si7 0.724163 0.410997 0.218109
O O1 0.100627 0.269673 0.179925
O O2 0.000000 0.189596 0.065236
O O3 0.000000 0.290401 0.985798
O O4 0.250000 0.250000 0.329403
O O5 0.245694 0.345475 0.219049
O O6 0.099622 0.327501 0.368080
O O7 0.000000 0.400970 0.512175
O O8 0.000000 0.344607 0.777147
O O9 0.894188 0.418398 0.697026
O O10 0.904476 0.886595 0.461453
O O11 0.744056 0.932481 0.854332
O O12 0.621758 0.000000 0.958846
O O13 0.719664 0.936066 0.103174
#
# Coordination Sequence:
#
# PCOD9369700 Si02
#       7
#     8  16   8   8   8  16  16
#     4  11  23  41  60  89 127 163 211 258 314 370
#     4  11  25  40  64  93 127 173 211 258 314 384
#     4  10  23  40  62  91 131 167 209 256 318 379
#     4  11  25  38  61  93 132 166 218 257 311 380
#     4  10  22  41  67  89 122 166 208 265 322 381
#     4  11  23  42  67  96 126 166 217 271 325 382
#     4  11  23  42  67  94 132 170 215 264 323 381
#
# _framework density 22.768325000000001
#
# number of rings (size 3 to 8) (size 9 to 14) (size 15 to 20)
#    0.000    1.200    2.000    3.300    8.400    2.400 
#    0.000    1.500    0.000    0.000    0.000    0.000 
#    0.000    0.000    0.000    0.000    0.000    0.000 
#
# Total GULP energy -111566.114414 kJ/mol
# GULP energy per Si atom -5578.305721 kJ/mol
# Density = 2.271650 g / cm^3
# Si number density = 22.768325 Si / 1000 Ang^3
#
#
#
# Elastic Constant Matrix: (Units=GPa)
#
#
# Indices 1 2 3 4 5 6 
#
# 1 107.5063 -20.2613 23.4166 0.0000 0.0000 0.0000
# 2 -20.2613 115.1595 0.1228 0.0000 0.0000 0.0000
# 3 23.4166 0.1228 127.9955 0.0000 0.0000 0.0000
# 4 0.0000 0.0000 0.0000 17.7059 0.0000 0.0000
# 5 0.0000 0.0000 0.0000 0.0000 10.0302 0.0000
# 6 0.0000 0.0000 0.0000 0.0000 0.0000 -29.9023
#
#
#
# Elastic Compliance Matrix: (Units=1/GPa)
#
#
# Indices 1 2 3 4 5 6 
#
# 1 0.010035 0.001768 -0.001838 0.000000 0.000000 0.000000
# 2 0.001768 0.008995 -0.000332 0.000000 0.000000 0.000000
# 3 -0.001838 -0.000332 0.008149 0.000000 0.000000 0.000000
# 4 0.000000 0.000000 0.000000 0.056478 0.000000 0.000000
# 5 0.000000 0.000000 0.000000 0.000000 0.099699 0.000000
# 6 0.000000 0.000000 0.000000 0.000000 0.000000 -0.033442
#
#
# Mechanical properties :
#
#
# Convention : Reuss Voigt Hill
#
# Bulk Modulus (GPa) = 37.91430 39.69084 38.80257
# Shear Modulus (GPa) = 31.34589 22.72562 27.03576
#
# Velocity S-wave (km/s) = 3.71446 3.16274 3.44965
# Velocity P-wave (km/s) = 5.92323 5.55045 5.73987
#
# Compressibility (1/GPa) = 0.02637527
#
# Stress axis : x y z
#
# Youngs Moduli (GPa) = 99.64955 111.17350 122.71017
#
# Poissons Ratio (x) = -0.19651 0.22549
# Poissons Ratio (y) = -0.17614 0.04074
# Poissons Ratio (z) = 0.18312 0.03691
#
# Static dielectric constant tensor:
#      x y z
#    x 1.812080 0.000000 0.000000 
#    y 0.000000 1.694180 0.000000 
#    z 0.000000 0.000000 1.777500 
# 
# From -- ./inp_files/7022.got.cif
#   From: 2010.05.17/outbox.cif.g08.bks.cpg/sg42_4_cif.got.tgz:7022.got - 2010.06.03 19:03:34.
