data_PCOD9369927
_publ_section_title
;
Structure prediction by ZEFSAII (Michael W. Deem and Ramdas Pophale) SiO2 
 PCOD9369927
Probable space group: F M M 2
;
_chemical_formula_sum "Si O2"
_cell_formula_units_Z 88
_cell_length_a 14.690975
_cell_length_b 10.052101
_cell_length_c 28.962975
_cell_angle_alpha 90.000000
_cell_angle_beta 90.000000
_cell_angle_gamma 90.000000
_cell_volume 4277.112097
_symmetry_space_group_name_H-M "F M M 2"
_symmetry_group_IT_number 42
_symmetry_cell_setting 'orthorhombic'
loop_
_space_group_symop_operation_xyz
x,y,z
-x,-y,z
-x,y,z
x,-y,z
x,1/2+y,1/2+z
-x,1/2-y,1/2+z
-x,1/2+y,1/2+z
x,1/2-y,1/2+z
1/2+x,y,1/2+z
1/2-x,-y,1/2+z
1/2-x,y,1/2+z
1/2+x,-y,1/2+z
1/2+x,1/2+y,z
1/2-x,1/2-y,z
1/2-x,1/2+y,z
1/2+x,1/2-y,z
loop_
_atom_site_type_symbol
_atom_site_label
_atom_site_fract_x
_atom_site_fract_y
_atom_site_fract_z
Si Si1 0.611181 0.651873 0.775970
Si Si2 0.891338 0.853181 0.198663
Si Si3 0.599745 0.852629 0.017392
Si Si4 0.750000 0.250000 0.950438
Si Si5 0.103112 0.841599 0.877249
Si Si6 0.660845 0.658622 0.092658
O O1 0.500000 0.647686 0.775310
O O2 0.643204 0.500000 0.771227
O O3 0.642896 0.742064 0.733714
O O4 0.633665 0.709195 0.826702
O O5 0.875774 0.826826 0.144638
O O6 0.000000 0.858246 0.205234
O O7 0.853522 0.000000 0.209014
O O8 0.500000 0.847615 0.993916
O O9 0.602204 0.731371 0.053465
O O10 0.605794 0.000000 0.039798
O O11 0.685862 0.837912 0.983657
O O12 0.824045 0.183479 0.916930
O O13 0.000000 0.792737 0.887437
O O14 0.096341 0.000000 0.871314
O O15 0.672586 0.500000 0.083867
O O16 0.750000 0.750000 0.090996
#
# Coordination Sequence:
#
# PCOD9369927 Si02
#       6
#    16  16  16   8  16  16
#     4   8  15  31  56  84 115 155 202 248 293 350
#     4   9  18  34  57  86 118 154 198 245 296 359
#     4  11  25  43  63  91 127 163 205 260 317 372
#     4  12  22  38  64  90 122 158 206 260 312 372
#     4   9  19  37  60  87 120 160 207 255 304 363
#     4  11  23  40  62  88 123 162 204 252 306 371
#
# _framework density 20.574631
#
# number of rings (size 3 to 8) (size 9 to 14) (size 15 to 20)
#    0.000    2.182    0.909    3.273    0.000    3.273 
#    1.636    3.636    0.000    4.364    0.000    0.000 
#    0.000    0.000    0.000    0.000    0.000    0.000 
#
# Total GULP energy -122614.409816 kJ/mol
# GULP energy per Si atom -5573.382264 kJ/mol
# Density = 2.052780 g / cm^3
# Si number density = 20.574631 Si / 1000 Ang^3
#
#
#
# Elastic Constant Matrix: (Units=GPa)
#
#
# Indices 1 2 3 4 5 6 
#
# 1 102.8902 33.9395 37.8139 0.0000 0.0000 0.0000
# 2 33.9395 116.7104 74.0010 0.0000 0.0000 0.0000
# 3 37.8139 74.0010 122.5037 0.0000 0.0000 0.0000
# 4 0.0000 0.0000 0.0000 39.6597 0.0000 0.0000
# 5 0.0000 0.0000 0.0000 0.0000 230.0603 0.0000
# 6 0.0000 0.0000 0.0000 0.0000 0.0000 12.3845
#
#
#
# Elastic Compliance Matrix: (Units=1/GPa)
#
#
# Indices 1 2 3 4 5 6 
#
# 1 0.011172 -0.001722 -0.002409 0.000000 0.000000 0.000000
# 2 -0.001722 0.014153 -0.008018 0.000000 0.000000 0.000000
# 3 -0.002409 -0.008018 0.013750 0.000000 0.000000 0.000000
# 4 0.000000 0.000000 0.000000 0.025214 0.000000 0.000000
# 5 0.000000 0.000000 0.000000 0.000000 0.004347 0.000000
# 6 0.000000 0.000000 0.000000 0.000000 0.000000 0.080746
#
#
# Mechanical properties :
#
#
# Convention : Reuss Voigt Hill
#
# Bulk Modulus (GPa) = 67.66558 70.40146 69.03352
# Shear Modulus (GPa) = 27.99488 69.51090 48.75289
#
# Velocity S-wave (km/s) = 3.69270 5.81877 4.87310
# Velocity P-wave (km/s) = 7.15127 8.91269 8.08012
#
# Compressibility (1/GPa) = 0.01477856
#
# Stress axis : x y z
#
# Youngs Moduli (GPa) = 89.50779 70.65854 72.72868
#
# Poissons Ratio (x) = 0.12166 0.17517
# Poissons Ratio (y) = 0.15411 0.58312
# Poissons Ratio (z) = 0.21558 0.56652
#
# Static dielectric constant tensor:
#      x y z
#    x 1.710130 0.000000 0.000000 
#    y 0.000000 1.722190 0.000000 
#    z 0.000000 0.000000 1.758460 
# 
# From -- ./inp_files/29325.got.cif
#   From: 2010.05.17/outbox.cif.g08.bks.cpg/sg42_15_cif.got.tgz:29325.got - 2010.06.03 19:03:34.
