data_PCOD9369774
_publ_section_title
;
Structure prediction by ZEFSAII (Michael W. Deem and Ramdas Pophale) SiO2 
 PCOD9369774
Probable space group: F M M 2
;
_chemical_formula_sum "Si O2"
_cell_formula_units_Z 80
_cell_length_a 11.366331
_cell_length_b 15.730408
_cell_length_c 21.612747
_cell_angle_alpha 90.000000
_cell_angle_beta 90.000000
_cell_angle_gamma 90.000000
_cell_volume 3864.294846
_symmetry_space_group_name_H-M "F M M 2"
_symmetry_group_IT_number 42
_symmetry_cell_setting 'orthorhombic'
loop_
_space_group_symop_operation_xyz
x,y,z
-x,-y,z
-x,y,z
x,-y,z
x,1/2+y,1/2+z
-x,1/2-y,1/2+z
-x,1/2+y,1/2+z
x,1/2-y,1/2+z
1/2+x,y,1/2+z
1/2-x,-y,1/2+z
1/2-x,y,1/2+z
1/2+x,-y,1/2+z
1/2+x,1/2+y,z
1/2-x,1/2-y,z
1/2-x,1/2+y,z
1/2+x,1/2-y,z
loop_
_atom_site_type_symbol
_atom_site_label
_atom_site_fract_x
_atom_site_fract_y
_atom_site_fract_z
Si Si1 0.200113 0.154753 0.387800
Si Si2 0.862314 0.500000 0.217364
Si Si3 0.000000 0.602542 0.793835
Si Si4 0.255641 0.348593 0.640907
Si Si5 0.365644 0.500000 0.865620
Si Si6 0.130975 0.693168 0.020097
Si Si7 0.500000 0.398671 0.149991
O O1 0.250000 0.250000 0.381622
O O2 0.112527 0.135204 0.331536
O O3 0.136085 0.146932 0.454122
O O4 0.301701 0.084869 0.387736
O O5 0.796196 0.416654 0.191543
O O6 0.858543 0.500000 0.291193
O O7 0.000000 0.500000 0.198849
O O8 0.000000 0.629979 0.722228
O O9 0.000000 0.500000 0.795037
O O10 0.250000 0.250000 0.661869
O O11 0.344611 0.357875 0.583178
O O12 0.121987 0.368538 0.620978
O O13 0.500000 0.500000 0.885389
O O14 0.250000 0.750000 0.018856
O O15 0.000000 0.732555 0.024196
O O16 0.500000 0.500000 0.149612
#
# Coordination Sequence:
#
# PCOD9369774 Si02
#       7
#    16   8   8  16   8  16   8
#     4  11  24  43  68 100 131 176 223 279 338 401
#     4  11  24  44  65  95 138 179 223 283 337 402
#     4  11  22  42  69  93 137 175 232 272 330 397
#     4  11  25  43  68  98 135 174 230 273 342 402
#     4  11  26  44  63  97 140 177 223 281 341 402
#     4  10  23  42  70 101 136 176 227 282 338 402
#     4  11  24  44  65  97 135 185 220 286 330 399
#
# _framework density 20.702354
#
# number of rings (size 3 to 8) (size 9 to 14) (size 15 to 20)
#    0.000    1.200    3.000    1.800    8.400    4.800 
#    0.000    1.000    0.000    0.000    0.000    0.000 
#    0.000    0.000    0.000    0.000    0.000    0.000 
#
# Total GULP energy -111678.401887 kJ/mol
# GULP energy per Si atom -5583.920094 kJ/mol
# Density = 2.065523 g / cm^3
# Si number density = 20.702354 Si / 1000 Ang^3
#
#
#
# Elastic Constant Matrix: (Units=GPa)
#
#
# Indices 1 2 3 4 5 6 
#
# 1 176.0680 53.8488 18.8346 0.0000 0.0000 0.0000
# 2 53.8488 125.4518 18.6812 0.0000 0.0000 0.0000
# 3 18.8346 18.6812 62.1593 0.0000 0.0000 0.0000
# 4 0.0000 0.0000 0.0000 2.9109 0.0000 0.0000
# 5 0.0000 0.0000 0.0000 0.0000 31.8904 0.0000
# 6 0.0000 0.0000 0.0000 0.0000 0.0000 22.5406
#
#
#
# Elastic Compliance Matrix: (Units=1/GPa)
#
#
# Indices 1 2 3 4 5 6 
#
# 1 0.006623 -0.002663 -0.001206 0.000000 0.000000 0.000000
# 2 -0.002663 0.009416 -0.002023 0.000000 0.000000 0.000000
# 3 -0.001206 -0.002023 0.017061 0.000000 0.000000 0.000000
# 4 0.000000 0.000000 0.000000 0.343537 0.000000 0.000000
# 5 0.000000 0.000000 0.000000 0.000000 0.031357 0.000000
# 6 0.000000 0.000000 0.000000 0.000000 0.000000 0.044364
#
#
# Mechanical properties :
#
#
# Convention : Reuss Voigt Hill
#
# Bulk Modulus (GPa) = 46.91532 60.71203 53.81368
# Shear Modulus (GPa) = 10.61011 29.62267 20.11639
#
# Velocity S-wave (km/s) = 2.26632 3.78681 3.12059
# Velocity P-wave (km/s) = 5.43685 6.96489 6.24776
#
# Compressibility (1/GPa) = 0.02131500
#
# Stress axis : x y z
#
# Youngs Moduli (GPa) = 150.98384 106.20685 58.61267
#
# Poissons Ratio (x) = 0.28286 0.07071
# Poissons Ratio (y) = 0.40211 0.11856
# Poissons Ratio (z) = 0.18216 0.21483
#
# Static dielectric constant tensor:
#      x y z
#    x 1.753660 0.000000 0.000000 
#    y 0.000000 1.764860 0.000000 
#    z 0.000000 0.000000 1.764480 
# 
# From -- ./inp_files/24284.got.cif
#   From: 2010.05.17/outbox.cif.g08.bks.cpg/sg42_13_cif.got.tgz:24284.got - 2010.06.03 19:03:34.
