data_PCOD9369869
_publ_section_title
;
Structure prediction by ZEFSAII (Michael W. Deem and Ramdas Pophale) SiO2 
 PCOD9369869
Probable space group: F M M 2
;
_chemical_formula_sum "Si O2"
_cell_formula_units_Z 112
_cell_length_a 14.509872
_cell_length_b 15.453829
_cell_length_c 25.052840
_cell_angle_alpha 90.000000
_cell_angle_beta 90.000000
_cell_angle_gamma 90.000000
_cell_volume 5617.675493
_symmetry_space_group_name_H-M "F M M 2"
_symmetry_group_IT_number 42
_symmetry_cell_setting 'orthorhombic'
loop_
_space_group_symop_operation_xyz
x,y,z
-x,-y,z
-x,y,z
x,-y,z
x,1/2+y,1/2+z
-x,1/2-y,1/2+z
-x,1/2+y,1/2+z
x,1/2-y,1/2+z
1/2+x,y,1/2+z
1/2-x,-y,1/2+z
1/2-x,y,1/2+z
1/2+x,-y,1/2+z
1/2+x,1/2+y,z
1/2-x,1/2-y,z
1/2-x,1/2+y,z
1/2+x,1/2-y,z
loop_
_atom_site_type_symbol
_atom_site_label
_atom_site_fract_x
_atom_site_fract_y
_atom_site_fract_z
Si Si1 0.602806 0.895917 0.720330
Si Si2 0.228165 0.150226 0.314882
Si Si3 0.000000 0.402238 0.546236
Si Si4 0.798324 0.104262 0.922335
Si Si5 0.600390 0.601834 0.745148
Si Si6 0.703494 0.893706 0.543226
Si Si7 0.500000 0.402002 0.916703
Si Si8 0.778072 0.393965 0.151046
O O1 0.500000 0.862497 0.710343
O O2 0.640676 0.874086 0.779277
O O3 0.682659 0.867122 0.679749
O O4 0.599938 0.000000 0.716066
O O5 0.250000 0.250000 0.309547
O O6 0.225645 0.126847 0.376976
O O7 0.318564 0.107561 0.288287
O O8 0.900209 0.364154 0.559039
O O9 0.000000 0.408869 0.481451
O O10 0.000000 0.500000 0.569126
O O11 0.900276 0.138157 0.904673
O O12 0.807237 0.000000 0.924506
O O13 0.776638 0.133676 0.982524
O O14 0.500000 0.637784 0.760415
O O15 0.589594 0.500000 0.736372
O O16 0.640660 0.638402 0.689493
O O17 0.773566 0.867024 0.589487
O O18 0.700190 0.000000 0.542636
O O19 0.500000 0.500000 0.893636
O O20 0.780313 0.500000 0.151551
#
# Coordination Sequence:
#
# PCOD9369869 Si02
#       8
#    16  16   8  16  16  16   8  16
#     4   9  18  33  51  69  93 126 161 199 240 285
#     4  11  22  33  47  70  98 128 165 202 245 289
#     4   7  10  16  28  56  95 124 144 173 221 276
#     4   9  16  28  46  69  98 130 160 195 238 288
#     4   9  18  33  53  75  99 127 160 201 245 288
#     4   8  13  21  39  68 101 127 151 190 238 286
#     4   7  12  22  38  64  91 116 149 187 229 274
#     4   8  14  25  44  73 100 122 152 192 241 291
#
# _framework density 19.937071
#
# number of rings (size 3 to 8) (size 9 to 14) (size 15 to 20)
#    0.000    3.286    0.000    3.857    2.000    0.571 
#    0.000    0.000    0.000    4.286    0.000    4.000 
#    0.000    0.000    0.000    0.000    0.000    0.000 
#
# Total GULP energy -155894.618873 kJ/mol
# GULP energy per Si atom -5567.664960 kJ/mol
# Density = 1.989169 g / cm^3
# Si number density = 19.937071 Si / 1000 Ang^3
#
#
#
# Elastic Constant Matrix: (Units=GPa)
#
#
# Indices 1 2 3 4 5 6 
#
# 1 46.9868 3.5737 7.3322 0.0000 0.0000 0.0000
# 2 3.5737 16.3346 -5.3042 0.0000 0.0000 0.0000
# 3 7.3322 -5.3042 82.7374 0.0000 0.0000 0.0000
# 4 0.0000 0.0000 0.0000 -32.8562 0.0000 0.0000
# 5 0.0000 0.0000 0.0000 0.0000 27.2131 0.0000
# 6 0.0000 0.0000 0.0000 0.0000 0.0000 15.0938
#
#
#
# Elastic Compliance Matrix: (Units=1/GPa)
#
#
# Indices 1 2 3 4 5 6 
#
# 1 0.022068 -0.005579 -0.002313 0.000000 0.000000 0.000000
# 2 -0.005579 0.063932 0.004593 0.000000 0.000000 0.000000
# 3 -0.002313 0.004593 0.012586 0.000000 0.000000 0.000000
# 4 0.000000 0.000000 0.000000 -0.030436 0.000000 0.000000
# 5 0.000000 0.000000 0.000000 0.000000 0.036747 0.000000
# 6 0.000000 0.000000 0.000000 0.000000 0.000000 0.066252
#
#
# Mechanical properties :
#
#
# Convention : Reuss Voigt Hill
#
# Bulk Modulus (GPa) = 10.87113 17.47356 14.17235
# Shear Modulus (GPa) = 23.99109 11.25395 17.62252
#
# Velocity S-wave (km/s) = 3.47268 2.37844 2.97628
# Velocity P-wave (km/s) = 4.64154 4.04055 4.35144
#
# Compressibility (1/GPa) = 0.09198677
#
# Stress axis : x y z
#
# Youngs Moduli (GPa) = 45.31472 15.64163 79.45401
#
# Poissons Ratio (x) = 0.08727 0.18380
# Poissons Ratio (y) = 0.25282 -0.36494
# Poissons Ratio (z) = 0.10483 -0.07184
#
# Static dielectric constant tensor:
#      x y z
#    x 1.738180 0.000000 0.000000 
#    y 0.000000 1.626990 0.000000 
#    z 0.000000 0.000000 1.737600 
# 
# From -- ./inp_files/32653.got.cif
#   From: 2010.05.17/outbox.cif.g08.bks.cpg/sg42_17_cif.got.tgz:32653.got - 2010.06.03 19:03:34.
