data_PCOD9369464
_publ_section_title
;
Structure prediction by ZEFSAII (Michael W. Deem and Ramdas Pophale) SiO2 
 PCOD9369464
Probable space group: F M M 2
;
_chemical_formula_sum "Si O2"
_cell_formula_units_Z 112
_cell_length_a 26.269705
_cell_length_b 18.755530
_cell_length_c 12.189407
_cell_angle_alpha 90.000000
_cell_angle_beta 90.000000
_cell_angle_gamma 90.000000
_cell_volume 6005.748136
_symmetry_space_group_name_H-M "F M M 2"
_symmetry_group_IT_number 42
_symmetry_cell_setting 'orthorhombic'
loop_
_space_group_symop_operation_xyz
x,y,z
-x,-y,z
-x,y,z
x,-y,z
x,1/2+y,1/2+z
-x,1/2-y,1/2+z
-x,1/2+y,1/2+z
x,1/2-y,1/2+z
1/2+x,y,1/2+z
1/2-x,-y,1/2+z
1/2-x,y,1/2+z
1/2+x,-y,1/2+z
1/2+x,1/2+y,z
1/2-x,1/2-y,z
1/2-x,1/2+y,z
1/2+x,1/2-y,z
loop_
_atom_site_type_symbol
_atom_site_label
_atom_site_fract_x
_atom_site_fract_y
_atom_site_fract_z
Si Si1 0.684536 0.416290 0.371080
Si Si2 0.348183 0.416022 0.609965
Si Si3 0.439683 0.084722 0.513568
Si Si4 0.148137 0.846044 0.146705
Si Si5 0.695454 0.209747 0.225795
Si Si6 0.721903 0.323860 0.955032
Si Si7 0.942821 0.913611 0.761371
O O1 0.693997 0.500000 0.358268
O O2 0.649573 0.406020 0.479234
O O3 0.661479 0.385272 0.259891
O O4 0.736233 0.375533 0.402446
O O5 0.337536 0.500000 0.630116
O O6 0.305377 0.364137 0.660116
O O7 0.399523 0.395304 0.674222
O O8 0.500000 0.093444 0.532953
O O9 0.404729 0.128439 0.596278
O O10 0.429857 0.106299 0.386752
O O11 0.428051 0.000000 0.523938
O O12 0.154427 0.762351 0.172610
O O13 0.190839 0.858689 0.053201
O O14 0.750000 0.250000 0.224735
O O15 0.685100 0.196215 0.353857
O O16 0.750000 0.250000 0.988261
O O17 0.000000 0.887835 0.735254
O O18 0.944980 0.000000 0.762044
#
# Coordination Sequence:
#
# PCOD9369464 Si02
#       7
#    16  16  16  16  16  16  16
#     4  11  24  37  55  86 123 156 199 248 294 364
#     4  10  21  38  59  88 121 153 198 250 297 352
#     4   9  19  37  61  91 124 160 206 252 297 356
#     4  12  22  38  62  83 121 161 201 247 306 364
#     4  11  22  39  59  84 115 157 201 246 300 361
#     4  11  23  40  58  83 114 161 203 247 299 356
#     4   8  15  33  62  91 117 149 195 249 297 345
#
# _framework density 18.648800999999999
#
# number of rings (size 3 to 8) (size 9 to 14) (size 15 to 20)
#    0.000    1.714    2.857    4.286    0.000    1.714 
#    0.000    1.429    0.000    3.429    0.000    0.000 
#    0.000    0.000    0.000    0.000    0.000    0.000 
#
# Total GULP energy -156283.641939 kJ/mol
# GULP energy per Si atom -5581.558641 kJ/mol
# Density = 1.860636 g / cm^3
# Si number density = 18.648801 Si / 1000 Ang^3
#
#
#
# Elastic Constant Matrix: (Units=GPa)
#
#
# Indices 1 2 3 4 5 6 
#
# 1 85.5803 42.8016 61.3200 0.0000 0.0000 0.0000
# 2 42.8016 79.7573 51.8577 0.0000 0.0000 0.0000
# 3 61.3200 51.8577 141.4690 0.0000 0.0000 0.0000
# 4 0.0000 0.0000 0.0000 30.6018 0.0000 0.0000
# 5 0.0000 0.0000 0.0000 0.0000 29.7416 0.0000
# 6 0.0000 0.0000 0.0000 0.0000 0.0000 26.5291
#
#
#
# Elastic Compliance Matrix: (Units=1/GPa)
#
#
# Indices 1 2 3 4 5 6 
#
# 1 0.019157 -0.006409 -0.005954 0.000000 0.000000 0.000000
# 2 -0.006409 0.018606 -0.004042 0.000000 0.000000 0.000000
# 3 -0.005954 -0.004042 0.011131 0.000000 0.000000 0.000000
# 4 0.000000 0.000000 0.000000 0.032678 0.000000 0.000000
# 5 0.000000 0.000000 0.000000 0.000000 0.033623 0.000000
# 6 0.000000 0.000000 0.000000 0.000000 0.000000 0.037695
#
#
# Mechanical properties :
#
#
# Convention : Reuss Voigt Hill
#
# Bulk Modulus (GPa) = 62.17827 68.75169 65.46498
# Shear Modulus (GPa) = 26.16976 27.42965 26.79971
#
# Velocity S-wave (km/s) = 3.75012 3.83933 3.79499
# Velocity P-wave (km/s) = 7.22255 7.52333 7.37448
#
# Compressibility (1/GPa) = 0.01608279
#
# Stress axis : x y z
#
# Youngs Moduli (GPa) = 52.20146 53.74719 89.83728
#
# Poissons Ratio (x) = 0.34447 0.53490
# Poissons Ratio (y) = 0.33456 0.36314
# Poissons Ratio (z) = 0.31081 0.21726
#
# Static dielectric constant tensor:
#      x y z
#    x 1.653000 0.000000 0.000000 
#    y 0.000000 1.659590 0.000000 
#    z 0.000000 0.000000 1.677140 
# 
# From -- ./inp_files/10261.got.cif
#   From: 2010.05.17/outbox.cif.g08.bks.cpg/sg42_6_cif.got.tgz:10261.got - 2010.06.03 19:03:34.
