data_PCOD9369043
_publ_section_title
;
Structure prediction by ZEFSAII (Michael W. Deem and Ramdas Pophale) SiO2 
 PCOD9369043
Probable space group: F M M 2
;
_chemical_formula_sum "Si O2"
_cell_formula_units_Z 80
_cell_length_a 10.963229
_cell_length_b 15.994422
_cell_length_c 22.256635
_cell_angle_alpha 90.000000
_cell_angle_beta 90.000000
_cell_angle_gamma 90.000000
_cell_volume 3902.712323
_symmetry_space_group_name_H-M "F M M 2"
_symmetry_group_IT_number 42
_symmetry_cell_setting 'orthorhombic'
loop_
_space_group_symop_operation_xyz
x,y,z
-x,-y,z
-x,y,z
x,-y,z
x,1/2+y,1/2+z
-x,1/2-y,1/2+z
-x,1/2+y,1/2+z
x,1/2-y,1/2+z
1/2+x,y,1/2+z
1/2-x,-y,1/2+z
1/2-x,y,1/2+z
1/2+x,-y,1/2+z
1/2+x,1/2+y,z
1/2-x,1/2-y,z
1/2-x,1/2+y,z
1/2+x,1/2-y,z
loop_
_atom_site_type_symbol
_atom_site_label
_atom_site_fract_x
_atom_site_fract_y
_atom_site_fract_z
Si Si1 0.500000 0.827271 0.564930
Si Si2 0.364737 0.900670 0.935101
Si Si3 0.000000 0.641746 0.110717
Si Si4 0.296253 0.843727 0.337346
Si Si5 0.000000 0.396874 0.429912
Si Si6 0.500000 0.900719 0.244821
Si Si7 0.246341 0.595748 0.556111
O O1 0.500000 0.729592 0.576526
O O2 0.500000 0.863768 0.497271
O O3 0.367497 0.858969 0.587582
O O4 0.500000 0.864784 0.941819
O O5 0.320230 0.888899 0.866892
O O6 0.369368 0.000000 0.946072
O O7 0.281781 0.867891 0.990213
O O8 0.126078 0.597990 0.091538
O O9 0.000000 0.648178 0.182434
O O10 0.250000 0.750000 0.326469
O O11 0.387732 0.858655 0.393136
O O12 0.377724 0.878269 0.282751
O O13 0.000000 0.500000 0.426810
O O14 0.500000 0.000000 0.233593
O O15 0.206442 0.500000 0.547949
#
# Coordination Sequence:
#
# PCOD9369043 Si02
#       7
#     8  16   8  16   8   8  16
#     4  12  25  37  66 102 140 178 226 295 342 391
#     4  10  20  35  61  97 141 175 212 268 344 423
#     4  12  27  45  68  97 133 185 239 286 349 413
#     4  11  24  37  67 100 133 168 228 286 339 385
#     4  11  22  40  63  97 144 193 224 256 339 444
#     4  11  26  52  75  88 125 194 249 279 326 434
#     4  11  22  40  66 100 139 186 225 271 345 428
#
# _framework density 20.498564999999999
#
# number of rings (size 3 to 8) (size 9 to 14) (size 15 to 20)
#    0.000    1.000    3.000    4.800    5.600    1.600 
#    0.000    0.000    2.200    0.000    0.000    0.000 
#    0.000    0.000    0.000    0.000    0.000    0.000 
#
# Total GULP energy -111478.354923 kJ/mol
# GULP energy per Si atom -5573.917746 kJ/mol
# Density = 2.045191 g / cm^3
# Si number density = 20.498565 Si / 1000 Ang^3
#
#
#
# Elastic Constant Matrix: (Units=GPa)
#
#
# Indices 1 2 3 4 5 6 
#
# 1 123.1301 24.7724 19.5944 0.0000 0.0000 0.0000
# 2 24.7724 78.0931 -3.5934 0.0000 0.0000 0.0000
# 3 19.5944 -3.5934 76.6572 0.0000 0.0000 0.0000
# 4 0.0000 0.0000 0.0000 17.3485 0.0000 0.0000
# 5 0.0000 0.0000 0.0000 0.0000 24.3079 0.0000
# 6 0.0000 0.0000 0.0000 0.0000 0.0000 34.4631
#
#
#
# Elastic Compliance Matrix: (Units=1/GPa)
#
#
# Indices 1 2 3 4 5 6 
#
# 1 0.009120 -0.003007 -0.002472 0.000000 0.000000 0.000000
# 2 -0.003007 0.013824 0.001417 0.000000 0.000000 0.000000
# 3 -0.002472 0.001417 0.013743 0.000000 0.000000 0.000000
# 4 0.000000 0.000000 0.000000 0.057642 0.000000 0.000000
# 5 0.000000 0.000000 0.000000 0.000000 0.041139 0.000000
# 6 0.000000 0.000000 0.000000 0.000000 0.000000 0.029017
#
#
# Mechanical properties :
#
#
# Convention : Reuss Voigt Hill
#
# Bulk Modulus (GPa) = 35.01035 39.93637 37.47336
# Shear Modulus (GPa) = 27.45289 31.03101 29.24195
#
# Velocity S-wave (km/s) = 3.66356 3.89500 3.78105
# Velocity P-wave (km/s) = 5.91710 6.30498 6.11412
#
# Compressibility (1/GPa) = 0.02856298
#
# Stress axis : x y z
#
# Youngs Moduli (GPa) = 109.65145 72.33695 72.76227
#
# Poissons Ratio (x) = 0.21750 0.17987
# Poissons Ratio (y) = 0.32969 -0.10307
# Poissons Ratio (z) = 0.27107 -0.10247
#
# Static dielectric constant tensor:
#      x y z
#    x 1.752760 0.000000 0.000000 
#    y 0.000000 1.696730 0.000000 
#    z 0.000000 0.000000 1.717980 
# 
# From -- ./inp_files/28678.got.cif
#   From: 2010.05.17/outbox.cif.g08.bks.cpg/sg42_15_cif.got.tgz:28678.got - 2010.06.03 19:03:34.
