data_PCOD9369403
_publ_section_title
;
Structure prediction by ZEFSAII (Michael W. Deem and Ramdas Pophale) SiO2 
 PCOD9369403
Probable space group: F M M 2
;
_chemical_formula_sum "Si O2"
_cell_formula_units_Z 64
_cell_length_a 36.859205
_cell_length_b 8.270086
_cell_length_c 10.616935
_cell_angle_alpha 90.000000
_cell_angle_beta 90.000000
_cell_angle_gamma 90.000000
_cell_volume 3236.347505
_symmetry_space_group_name_H-M "F M M 2"
_symmetry_group_IT_number 42
_symmetry_cell_setting 'orthorhombic'
loop_
_space_group_symop_operation_xyz
x,y,z
-x,-y,z
-x,y,z
x,-y,z
x,1/2+y,1/2+z
-x,1/2-y,1/2+z
-x,1/2+y,1/2+z
x,1/2-y,1/2+z
1/2+x,y,1/2+z
1/2-x,-y,1/2+z
1/2-x,y,1/2+z
1/2+x,-y,1/2+z
1/2+x,1/2+y,z
1/2-x,1/2-y,z
1/2-x,1/2+y,z
1/2+x,1/2-y,z
loop_
_atom_site_type_symbol
_atom_site_label
_atom_site_fract_x
_atom_site_fract_y
_atom_site_fract_z
Si Si1 0.458287 0.304524 0.056590
Si Si2 0.166919 0.695365 0.804971
Si Si3 0.083518 0.304488 0.807584
Si Si4 0.708516 0.306274 0.054244
O O1 0.500000 0.248154 0.055274
O O2 0.458632 0.500000 0.058685
O O3 0.437545 0.248825 0.182396
O O4 0.437215 0.250111 0.932398
O O5 0.166468 0.500000 0.801648
O O6 0.125228 0.751992 0.807260
O O7 0.187637 0.752442 0.679451
O O8 0.188066 0.747951 0.929478
O O9 0.083847 0.500000 0.805662
O O10 0.708002 0.500000 0.055171
O O11 0.750000 0.250000 0.054837
#
# Coordination Sequence:
#
# PCOD9369403 Si02
#       4
#    16  16  16  16
#     4  10  21  37  57  83 115 149 187 232 280 331
#     4  10  22  39  59  85 114 146 187 232 279 332
#     4  10  21  38  59  83 113 148 187 232 280 331
#     4  11  23  39  60  85 114 148 186 229 278 332
#
# _framework density 19.775379999999998
#
# number of rings (size 3 to 8) (size 9 to 14) (size 15 to 20)
#    0.000    1.750    0.000    3.750    0.000    9.500 
#    0.000    0.000    0.000    0.000    0.000    0.000 
#    0.000    0.000    0.000    0.000    0.000    0.000 
#
# Total GULP energy -89452.541478 kJ/mol
# GULP energy per Si atom -5590.783842 kJ/mol
# Density = 1.973037 g / cm^3
# Si number density = 19.775380 Si / 1000 Ang^3
#
#
#
# Elastic Constant Matrix: (Units=GPa)
#
#
# Indices 1 2 3 4 5 6 
#
# 1 246.3497 20.8177 146.8987 0.0000 0.0000 0.0000
# 2 20.8177 8.8804 15.7606 0.0000 0.0000 0.0000
# 3 146.8987 15.7606 239.6392 0.0000 0.0000 0.0000
# 4 0.0000 0.0000 0.0000 33.8018 0.0000 0.0000
# 5 0.0000 0.0000 0.0000 0.0000 47.3703 0.0000
# 6 0.0000 0.0000 0.0000 0.0000 0.0000 22.9910
#
#
#
# Elastic Compliance Matrix: (Units=1/GPa)
#
#
# Indices 1 2 3 4 5 6 
#
# 1 0.007121 -0.010128 -0.003699 0.000000 0.000000 0.000000
# 2 -0.010128 0.141893 -0.003124 0.000000 0.000000 0.000000
# 3 -0.003699 -0.003124 0.006646 0.000000 0.000000 0.000000
# 4 0.000000 0.000000 0.000000 0.029584 0.000000 0.000000
# 5 0.000000 0.000000 0.000000 0.000000 0.021110 0.000000
# 6 0.000000 0.000000 0.000000 0.000000 0.000000 0.043495
#
#
# Mechanical properties :
#
#
# Convention : Reuss Voigt Hill
#
# Bulk Modulus (GPa) = 8.21296 95.75813 51.98555
# Shear Modulus (GPa) = 15.41606 41.59210 28.50408
#
# Velocity S-wave (km/s) = 2.79509 4.59107 3.80069
# Velocity P-wave (km/s) = 3.81822 8.75397 6.75317
#
# Compressibility (1/GPa) = 0.12175875
#
# Stress axis : x y z
#
# Youngs Moduli (GPa) = 140.43290 7.04755 150.47015
#
# Poissons Ratio (x) = 0.07138 0.55658
# Poissons Ratio (y) = 1.42231 0.47000
# Poissons Ratio (z) = 0.51946 0.02201
#
# Static dielectric constant tensor:
#      x y z
#    x 1.673320 0.000000 0.000000 
#    y 0.000000 1.698260 0.000000 
#    z 0.000000 0.000000 1.649330 
# 
# From -- ./inp_files/2223.got.cif
#   From: 2010.05.17/outbox.cif.g08.bks.cpg/sg42_2_cif.got.tgz:2223.got - 2010.06.03 19:03:34.
