data_PCOD9369305
_publ_section_title
;
Structure prediction by ZEFSAII (Michael W. Deem and Ramdas Pophale) SiO2 
 PCOD9369305
Probable space group: F M M 2
;
_chemical_formula_sum "Si O2"
_cell_formula_units_Z 116
_cell_length_a 15.917325
_cell_length_b 18.312716
_cell_length_c 17.915844
_cell_angle_alpha 90.000000
_cell_angle_beta 90.000000
_cell_angle_gamma 90.000000
_cell_volume 5222.279553
_symmetry_space_group_name_H-M "F M M 2"
_symmetry_group_IT_number 42
_symmetry_cell_setting 'orthorhombic'
loop_
_space_group_symop_operation_xyz
x,y,z
-x,-y,z
-x,y,z
x,-y,z
x,1/2+y,1/2+z
-x,1/2-y,1/2+z
-x,1/2+y,1/2+z
x,1/2-y,1/2+z
1/2+x,y,1/2+z
1/2-x,-y,1/2+z
1/2-x,y,1/2+z
1/2+x,-y,1/2+z
1/2+x,1/2+y,z
1/2-x,1/2-y,z
1/2-x,1/2+y,z
1/2+x,1/2-y,z
loop_
_atom_site_type_symbol
_atom_site_label
_atom_site_fract_x
_atom_site_fract_y
_atom_site_fract_z
Si Si1 0.836113 0.415422 0.995090
Si Si2 0.343513 0.282139 0.210538
Si Si3 0.500000 0.000000 0.806113
Si Si4 0.677321 0.412532 0.807147
Si Si5 0.595941 0.414670 0.123929
Si Si6 0.903317 0.638255 0.152333
Si Si7 0.369980 0.630454 0.338663
Si Si8 0.636345 0.415522 0.963232
O O1 0.863512 0.500000 0.985559
O O2 0.876947 0.368602 0.928266
O O3 0.736080 0.413784 0.981570
O O4 0.858387 0.388879 0.077389
O O5 0.250000 0.250000 0.217058
O O6 0.346428 0.360584 0.170360
O O7 0.394865 0.225364 0.160741
O O8 0.385230 0.296499 0.291136
O O9 0.427070 0.064208 0.810989
O O10 0.678950 0.500000 0.811861
O O11 0.639016 0.390820 0.728237
O O12 0.772463 0.386224 0.819273
O O13 0.626405 0.384430 0.880236
O O14 0.500000 0.414033 0.152495
O O15 0.623708 0.500000 0.126087
O O16 0.595291 0.386999 0.038568
O O17 0.000000 0.615311 0.149300
O O18 0.608640 0.500000 0.959441
#
# Coordination Sequence:
#
# PCOD9369305 Si02
#       8
#    16  16   4  16  16  16  16  16
#     4  10  21  43  69 103 139 183 240 296 353 424
#     4  12  26  47  67  95 141 192 231 284 369 447
#     4  12  24  40  80 116 134 176 232 348 368 388
#     4  10  20  42  67  98 138 182 234 281 341 431
#     4  10  22  39  68 105 138 177 241 313 358 406
#     4  12  27  43  63 100 145 189 234 283 347 439
#     4  11  24  42  72 105 138 175 236 302 368 417
#     4   8  17  36  64  96 129 172 227 281 345 404
#
# _framework density 22.212522
#
# number of rings (size 3 to 8) (size 9 to 14) (size 15 to 20)
#    0.000    1.517    2.759    2.483    3.862    1.655 
#    2.483    2.069    0.000    0.000    0.000    0.000 
#    0.000    0.000    0.000    0.000    0.000    0.000 
#
# Total GULP energy -161756.142524 kJ/mol
# GULP energy per Si atom -5577.798018 kJ/mol
# Density = 2.216197 g / cm^3
# Si number density = 22.212522 Si / 1000 Ang^3
#
#
#
# Elastic Constant Matrix: (Units=GPa)
#
#
# Indices 1 2 3 4 5 6 
#
# 1 57.1578 10.1316 31.8909 0.0000 0.0000 0.0000
# 2 10.1316 56.2670 37.4573 0.0000 0.0000 0.0000
# 3 31.8909 37.4573 202.2688 0.0000 0.0000 0.0000
# 4 0.0000 0.0000 0.0000 32.7226 0.0000 0.0000
# 5 0.0000 0.0000 0.0000 0.0000 6.3068 0.0000
# 6 0.0000 0.0000 0.0000 0.0000 0.0000 21.2071
#
#
#
# Elastic Compliance Matrix: (Units=1/GPa)
#
#
# Indices 1 2 3 4 5 6 
#
# 1 0.019317 -0.001655 -0.002739 0.000000 0.000000 0.000000
# 2 -0.001655 0.020413 -0.003519 0.000000 0.000000 0.000000
# 3 -0.002739 -0.003519 0.006028 0.000000 0.000000 0.000000
# 4 0.000000 0.000000 0.000000 0.030560 0.000000 0.000000
# 5 0.000000 0.000000 0.000000 0.000000 0.158558 0.000000
# 6 0.000000 0.000000 0.000000 0.000000 0.000000 0.047154
#
#
# Mechanical properties :
#
#
# Convention : Reuss Voigt Hill
#
# Bulk Modulus (GPa) = 33.40998 52.73923 43.07461
# Shear Modulus (GPa) = 16.24256 27.79490 22.01873
#
# Velocity S-wave (km/s) = 2.70707 3.54123 3.15187
# Velocity P-wave (km/s) = 4.98444 6.36514 5.71663
#
# Compressibility (1/GPa) = 0.02993118
#
# Stress axis : x y z
#
# Youngs Moduli (GPa) = 51.76768 48.98790 165.90563
#
# Poissons Ratio (x) = 0.08106 0.45445
# Poissons Ratio (y) = 0.08566 0.58388
# Poissons Ratio (z) = 0.14180 0.17240
#
# Static dielectric constant tensor:
#      x y z
#    x 1.813440 0.000000 0.000000 
#    y 0.000000 1.824240 0.000000 
#    z 0.000000 0.000000 1.894670 
# 
# From -- ./inp_files/20984.got.cif
#   From: 2010.05.17/outbox.cif.g08.bks.cpg/sg42_11_cif.got.tgz:20984.got - 2010.06.03 19:03:34.
