data_PCOD9369438
_publ_section_title
;
Structure prediction by ZEFSAII (Michael W. Deem and Ramdas Pophale) SiO2 
 PCOD9369438
Probable space group: F M M 2
;
_chemical_formula_sum "Si O2"
_cell_formula_units_Z 128
_cell_length_a 21.258737
_cell_length_b 23.312236
_cell_length_c 13.383614
_cell_angle_alpha 90.000000
_cell_angle_beta 90.000000
_cell_angle_gamma 90.000000
_cell_volume 6632.767783
_symmetry_space_group_name_H-M "F M M 2"
_symmetry_group_IT_number 42
_symmetry_cell_setting 'orthorhombic'
loop_
_space_group_symop_operation_xyz
x,y,z
-x,-y,z
-x,y,z
x,-y,z
x,1/2+y,1/2+z
-x,1/2-y,1/2+z
-x,1/2+y,1/2+z
x,1/2-y,1/2+z
1/2+x,y,1/2+z
1/2-x,-y,1/2+z
1/2-x,y,1/2+z
1/2+x,-y,1/2+z
1/2+x,1/2+y,z
1/2-x,1/2-y,z
1/2-x,1/2+y,z
1/2+x,1/2-y,z
loop_
_atom_site_type_symbol
_atom_site_label
_atom_site_fract_x
_atom_site_fract_y
_atom_site_fract_z
Si Si1 0.608677 0.434214 0.945330
Si Si2 0.929348 0.678495 0.332496
Si Si3 0.837779 0.375702 0.843198
Si Si4 0.571603 0.568856 0.176287
Si Si5 0.774651 0.662766 0.660455
Si Si6 0.146316 0.229065 0.651229
Si Si7 0.249461 0.565281 0.500662
Si Si8 0.928464 0.710826 0.957473
O O1 0.586791 0.500000 0.926434
O O2 0.583857 0.385323 0.871673
O O3 0.684337 0.434221 0.939015
O O4 0.590013 0.419577 0.060522
O O5 0.880655 0.705881 0.255007
O O6 0.927273 0.723087 0.423796
O O7 0.000000 0.680846 0.289742
O O8 0.880418 0.407555 0.759549
O O9 0.780343 0.350726 0.777720
O O10 0.806710 0.412699 0.931889
O O11 0.881165 0.326707 0.891014
O O12 0.500000 0.589690 0.193608
O O13 0.572160 0.500000 0.185232
O O14 0.835604 0.703588 0.642679
O O15 0.712561 0.698095 0.635139
O O16 0.766513 0.606385 0.593724
O O17 0.096697 0.210040 0.569094
O O18 0.260922 0.500000 0.533770
O O19 0.000000 0.689751 0.947138
#
# Coordination Sequence:
#
# PCOD9369438 Si02
#       8
#    16  16  16  16  16  16  16  16
#     4  10  21  40  64  94 131 168 216 270 324 385
#     4  11  23  40  64  95 129 168 216 266 324 389
#     4  12  22  41  63  94 126 164 205 264 328 386
#     4  10  21  37  61  92 126 166 210 257 311 377
#     4  11  23  40  66  91 124 163 210 264 318 382
#     4  11  23  43  62  93 125 170 213 262 324 389
#     4  11  23  40  64  94 127 164 209 264 323 385
#     4  11  24  40  63  93 128 167 213 270 322 389
#
# _framework density 19.298127000000001
#
# number of rings (size 3 to 8) (size 9 to 14) (size 15 to 20)
#    0.000    1.125    3.750    3.000    0.000    1.250 
#    0.000    0.625    0.000    0.000    0.000    0.000 
#    0.000    0.000    0.000    0.000    0.000    0.000 
#
# Total GULP energy -178538.738408 kJ/mol
# GULP energy per Si atom -5579.335575 kJ/mol
# Density = 1.925420 g / cm^3
# Si number density = 19.298127 Si / 1000 Ang^3
#
#
#
# Elastic Constant Matrix: (Units=GPa)
#
#
# Indices 1 2 3 4 5 6 
#
# 1 76.9596 41.9432 25.4156 0.0000 0.0000 0.0000
# 2 41.9432 125.5261 45.3193 0.0000 0.0000 0.0000
# 3 25.4156 45.3193 80.6072 0.0000 0.0000 0.0000
# 4 0.0000 0.0000 0.0000 29.9545 0.0000 0.0000
# 5 0.0000 0.0000 0.0000 0.0000 28.2832 0.0000
# 6 0.0000 0.0000 0.0000 0.0000 0.0000 24.9587
#
#
#
# Elastic Compliance Matrix: (Units=1/GPa)
#
#
# Indices 1 2 3 4 5 6 
#
# 1 0.016313 -0.004509 -0.002608 0.000000 0.000000 0.000000
# 2 -0.004509 0.011242 -0.004899 0.000000 0.000000 0.000000
# 3 -0.002608 -0.004899 0.015982 0.000000 0.000000 0.000000
# 4 0.000000 0.000000 0.000000 0.033384 0.000000 0.000000
# 5 0.000000 0.000000 0.000000 0.000000 0.035357 0.000000
# 6 0.000000 0.000000 0.000000 0.000000 0.000000 0.040066
#
#
# Mechanical properties :
#
#
# Convention : Reuss Voigt Hill
#
# Bulk Modulus (GPa) = 51.26955 56.49434 53.88194
# Shear Modulus (GPa) = 27.34077 28.00027 27.67052
#
# Velocity S-wave (km/s) = 3.76807 3.81324 3.79072
# Velocity P-wave (km/s) = 6.74951 6.98039 6.86592
#
# Compressibility (1/GPa) = 0.01950475
#
# Stress axis : x y z
#
# Youngs Moduli (GPa) = 61.30217 88.95467 62.56883
#
# Poissons Ratio (x) = 0.40110 0.16320
# Poissons Ratio (y) = 0.27641 0.30650
# Poissons Ratio (z) = 0.15990 0.43576
#
# Static dielectric constant tensor:
#      x y z
#    x 1.685120 0.000000 0.000000 
#    y 0.000000 1.694520 0.000000 
#    z 0.000000 0.000000 1.655460 
# 
# From -- ./inp_files/10381.got.cif
#   From: 2010.05.17/outbox.cif.g08.bks.cpg/sg42_6_cif.got.tgz:10381.got - 2010.06.03 19:03:34.
