data_PCOD9369331
_publ_section_title
;
Structure prediction by ZEFSAII (Michael W. Deem and Ramdas Pophale) SiO2 
 PCOD9369331
Probable space group: F M M 2
;
_chemical_formula_sum "Si O2"
_cell_formula_units_Z 100
_cell_length_a 9.305702
_cell_length_b 25.636150
_cell_length_c 20.415113
_cell_angle_alpha 90.000000
_cell_angle_beta 90.000000
_cell_angle_gamma 90.000000
_cell_volume 4870.277789
_symmetry_space_group_name_H-M "F M M 2"
_symmetry_group_IT_number 42
_symmetry_cell_setting 'orthorhombic'
loop_
_space_group_symop_operation_xyz
x,y,z
-x,-y,z
-x,y,z
x,-y,z
x,1/2+y,1/2+z
-x,1/2-y,1/2+z
-x,1/2+y,1/2+z
x,1/2-y,1/2+z
1/2+x,y,1/2+z
1/2-x,-y,1/2+z
1/2-x,y,1/2+z
1/2+x,-y,1/2+z
1/2+x,1/2+y,z
1/2-x,1/2-y,z
1/2-x,1/2+y,z
1/2+x,1/2-y,z
loop_
_atom_site_type_symbol
_atom_site_label
_atom_site_fract_x
_atom_site_fract_y
_atom_site_fract_z
Si Si1 0.000000 0.000000 0.595366
Si Si2 0.171947 0.841559 0.725641
Si Si3 0.839715 0.586122 0.026575
Si Si4 0.668315 0.799817 0.367502
Si Si5 0.830623 0.082163 0.903838
Si Si6 0.329178 0.801636 0.082851
Si Si7 0.671317 0.058059 0.769403
O O1 0.123708 0.046252 0.585033
O O2 0.211608 0.810907 0.791908
O O3 0.201846 0.810079 0.659978
O O4 0.256075 0.895972 0.728274
O O5 0.000000 0.852102 0.728792
O O6 0.791285 0.642875 0.050443
O O7 0.000000 0.591828 0.994504
O O8 0.734051 0.563647 0.972210
O O9 0.500000 0.788355 0.368383
O O10 0.750000 0.750000 0.394189
O O11 0.690754 0.854976 0.402732
O O12 0.743979 0.061454 0.841311
O O13 0.000000 0.071465 0.896341
O O14 0.500000 0.794944 0.075001
O O15 0.250000 0.750000 0.058809
O O16 0.500000 0.065609 0.774544
O O17 0.699473 0.000000 0.743051
#
# Coordination Sequence:
#
# PCOD9369331 Si02
#       7
#     4  16  16  16  16  16  16
#     4   8  20  40  62  76 116 144 206 242 280 346
#     4   9  19  36  53  80 110 143 190 233 279 336
#     4   9  20  38  58  82 110 152 194 239 290 339
#     4   9  18  31  48  72 106 139 175 223 275 334
#     4  10  21  35  53  80 112 141 187 237 287 345
#     4  10  21  38  60  88 116 152 195 237 289 347
#     4  10  21  35  54  80 112 147 184 231 288 346
#
# _framework density 20.532710000000002
#
# number of rings (size 3 to 8) (size 9 to 14) (size 15 to 20)
#    0.480    2.080    0.000    2.400    1.120    6.400 
#    1.440    3.200    0.000    0.000    0.000    0.000 
#    0.000    0.000    0.000    0.000    0.000    0.000 
#
# Total GULP energy -139181.872865 kJ/mol
# GULP energy per Si atom -5567.274915 kJ/mol
# Density = 2.048598 g / cm^3
# Si number density = 20.532710 Si / 1000 Ang^3
#
#
#
# Elastic Constant Matrix: (Units=GPa)
#
#
# Indices 1 2 3 4 5 6 
#
# 1 31.8441 43.9097 15.8823 0.0000 0.0000 0.0000
# 2 43.9097 140.2634 5.7772 0.0000 0.0000 0.0000
# 3 15.8823 5.7772 42.6525 0.0000 0.0000 0.0000
# 4 0.0000 0.0000 0.0000 29.8166 0.0000 0.0000
# 5 0.0000 0.0000 0.0000 0.0000 11.8842 0.0000
# 6 0.0000 0.0000 0.0000 0.0000 0.0000 36.8295
#
#
#
# Elastic Compliance Matrix: (Units=1/GPa)
#
#
# Indices 1 2 3 4 5 6 
#
# 1 0.074470 -0.022295 -0.024710 0.000000 0.000000 0.000000
# 2 -0.022295 0.013844 0.006427 0.000000 0.000000 0.000000
# 3 -0.024710 0.006427 0.031776 0.000000 0.000000 0.000000
# 4 0.000000 0.000000 0.000000 0.033538 0.000000 0.000000
# 5 0.000000 0.000000 0.000000 0.000000 0.084145 0.000000
# 6 0.000000 0.000000 0.000000 0.000000 0.000000 0.027152
#
#
# Mechanical properties :
#
#
# Convention : Reuss Voigt Hill
#
# Bulk Modulus (GPa) = 25.68513 38.43317 32.05915
# Shear Modulus (GPa) = 13.92523 25.65212 19.78868
#
# Velocity S-wave (km/s) = 2.60705 3.53842 3.10782
# Velocity P-wave (km/s) = 4.64745 5.95420 5.34094
#
# Compressibility (1/GPa) = 0.03893303
#
# Stress axis : x y z
#
# Youngs Moduli (GPa) = 13.42826 72.23212 31.47030
#
# Poissons Ratio (x) = 1.61042 0.77764
# Poissons Ratio (y) = 0.29938 -0.20225
# Poissons Ratio (z) = 0.33181 -0.46422
#
# Static dielectric constant tensor:
#      x y z
#    x 1.706480 0.000000 0.000000 
#    y 0.000000 1.736430 0.000000 
#    z 0.000000 0.000000 1.753890 
# 
# From -- ./inp_files/23788.got.cif
#   From: 2010.05.17/outbox.cif.g08.bks.cpg/sg42_12_cif.got.tgz:23788.got - 2010.06.03 19:03:34.
