data_PCOD9369232
_publ_section_title
;
Structure prediction by ZEFSAII (Michael W. Deem and Ramdas Pophale) SiO2 
 PCOD9369232
Probable space group: F M M 2
;
_chemical_formula_sum "Si O2"
_cell_formula_units_Z 112
_cell_length_a 16.494111
_cell_length_b 26.216980
_cell_length_c 13.228653
_cell_angle_alpha 90.000000
_cell_angle_beta 90.000000
_cell_angle_gamma 90.000000
_cell_volume 5720.410568
_symmetry_space_group_name_H-M "F M M 2"
_symmetry_group_IT_number 42
_symmetry_cell_setting 'orthorhombic'
loop_
_space_group_symop_operation_xyz
x,y,z
-x,-y,z
-x,y,z
x,-y,z
x,1/2+y,1/2+z
-x,1/2-y,1/2+z
-x,1/2+y,1/2+z
x,1/2-y,1/2+z
1/2+x,y,1/2+z
1/2-x,-y,1/2+z
1/2-x,y,1/2+z
1/2+x,-y,1/2+z
1/2+x,1/2+y,z
1/2-x,1/2-y,z
1/2-x,1/2+y,z
1/2+x,1/2-y,z
loop_
_atom_site_type_symbol
_atom_site_label
_atom_site_fract_x
_atom_site_fract_y
_atom_site_fract_z
Si Si1 0.906222 0.340693 0.179310
Si Si2 0.594537 0.101172 0.499025
Si Si3 0.149903 0.444098 0.098971
Si Si4 0.172869 0.058124 0.197738
Si Si5 0.594174 0.295324 0.891060
Si Si6 0.732359 0.100673 0.908262
Si Si7 0.311538 0.791542 0.994738
O O1 0.896323 0.400873 0.160928
O O2 0.875325 0.322374 0.288348
O O3 0.000000 0.327532 0.173118
O O4 0.860979 0.313971 0.087543
O O5 0.500000 0.085814 0.473196
O O6 0.615248 0.084617 0.613894
O O7 0.597208 0.162060 0.479555
O O8 0.673929 0.082613 0.432306
O O9 0.112478 0.500000 0.103343
O O10 0.239807 0.445973 0.144936
O O11 0.169742 0.426720 0.985185
O O12 0.195706 0.088990 0.298659
O O13 0.144762 0.000000 0.219851
O O14 0.500000 0.283669 0.876026
O O15 0.637795 0.243163 0.917939
O O16 0.727741 0.160431 0.937655
O O17 0.250000 0.750000 0.038175
#
# Coordination Sequence:
#
# PCOD9369232 Si02
#       7
#    16  16  16  16  16  16  16
#     4  10  22  39  59  86 122 158 204 260 314 378
#     4  10  21  39  62  91 127 164 207 264 322 374
#     4   9  19  35  58  85 116 157 203 255 312 369
#     4  10  21  38  62  90 123 163 208 258 309 373
#     4  10  21  39  59  85 122 161 202 258 321 374
#     4  10  20  38  61  90 124 162 212 259 311 375
#     4  11  22  37  59  90 119 163 210 258 309 379
#
# _framework density 19.579014000000001
#
# number of rings (size 3 to 8) (size 9 to 14) (size 15 to 20)
#    0.000    2.000    1.429    1.714    0.000    2.857 
#    0.000    5.714    0.000    6.857    0.000    0.000 
#    0.000    0.000    0.000    0.000    0.000    0.000 
#
# Total GULP energy -155970.110902 kJ/mol
# GULP energy per Si atom -5570.361104 kJ/mol
# Density = 1.953445 g / cm^3
# Si number density = 19.579014 Si / 1000 Ang^3
#
#
#
# Elastic Constant Matrix: (Units=GPa)
#
#
# Indices 1 2 3 4 5 6 
#
# 1 83.4544 38.5759 40.9883 0.0000 0.0000 0.0000
# 2 38.5759 122.7259 64.2602 0.0000 0.0000 0.0000
# 3 40.9883 64.2602 108.6564 0.0000 0.0000 0.0000
# 4 0.0000 0.0000 0.0000 15.9526 0.0000 0.0000
# 5 0.0000 0.0000 0.0000 0.0000 28.2869 0.0000
# 6 0.0000 0.0000 0.0000 0.0000 0.0000 -87.4786
#
#
#
# Elastic Compliance Matrix: (Units=1/GPa)
#
#
# Indices 1 2 3 4 5 6 
#
# 1 0.015252 -0.002581 -0.004227 0.000000 0.000000 0.000000
# 2 -0.002581 0.012240 -0.006265 0.000000 0.000000 0.000000
# 3 -0.004227 -0.006265 0.014503 0.000000 0.000000 0.000000
# 4 0.000000 0.000000 0.000000 0.062686 0.000000 0.000000
# 5 0.000000 0.000000 0.000000 0.000000 0.035352 0.000000
# 6 0.000000 0.000000 0.000000 0.000000 0.000000 -0.011431
#
#
# Mechanical properties :
#
#
# Convention : Reuss Voigt Hill
#
# Bulk Modulus (GPa) = 63.09671 66.94283 65.01977
# Shear Modulus (GPa) = 31.24408 2.75299 16.99853
#
# Velocity S-wave (km/s) = 3.99907 1.18707 2.94972
# Velocity P-wave (km/s) = 7.32258 6.01200 6.69941
#
# Compressibility (1/GPa) = 0.01584869
#
# Stress axis : x y z
#
# Youngs Moduli (GPa) = 65.56692 81.69957 68.94994
#
# Poissons Ratio (x) = 0.21083 0.29146
# Poissons Ratio (y) = 0.16920 0.43199
# Poissons Ratio (z) = 0.27716 0.51187
#
# Static dielectric constant tensor:
#      x y z
#    x 1.876310 0.000000 0.000000 
#    y 0.000000 1.695660 0.000000 
#    z 0.000000 0.000000 1.702370 
# 
# From -- ./inp_files/14221.got.cif
#   From: 2010.05.17/outbox.cif.g08.bks.cpg/sg42_8_cif.got.tgz:14221.got - 2010.06.03 19:03:34.
