data_PCOD9369736
_publ_section_title
;
Structure prediction by ZEFSAII (Michael W. Deem and Ramdas Pophale) SiO2 
 PCOD9369736
Probable space group: F M M 2
;
_chemical_formula_sum "Si O2"
_cell_formula_units_Z 64
_cell_length_a 19.124224
_cell_length_b 14.695820
_cell_length_c 10.285222
_cell_angle_alpha 90.000000
_cell_angle_beta 90.000000
_cell_angle_gamma 90.000000
_cell_volume 2890.622081
_symmetry_space_group_name_H-M "F M M 2"
_symmetry_group_IT_number 42
_symmetry_cell_setting 'orthorhombic'
loop_
_space_group_symop_operation_xyz
x,y,z
-x,-y,z
-x,y,z
x,-y,z
x,1/2+y,1/2+z
-x,1/2-y,1/2+z
-x,1/2+y,1/2+z
x,1/2-y,1/2+z
1/2+x,y,1/2+z
1/2-x,-y,1/2+z
1/2-x,y,1/2+z
1/2+x,-y,1/2+z
1/2+x,1/2+y,z
1/2-x,1/2-y,z
1/2-x,1/2+y,z
1/2+x,1/2-y,z
loop_
_atom_site_type_symbol
_atom_site_label
_atom_site_fract_x
_atom_site_fract_y
_atom_site_fract_z
Si Si1 0.920957 0.151792 0.285800
Si Si2 0.667558 0.500000 0.394438
Si Si3 0.078247 0.397163 0.493138
Si Si4 0.679339 0.810772 0.306124
Si Si5 0.219471 0.500000 0.176239
O O1 0.922376 0.101060 0.148199
O O2 0.880025 0.243679 0.254345
O O3 0.000000 0.166245 0.329177
O O4 0.879628 0.090168 0.389113
O O5 0.709586 0.500000 0.259276
O O6 0.717659 0.500000 0.519801
O O7 0.084820 0.500000 0.442801
O O8 0.144894 0.341811 0.442437
O O9 0.000000 0.363508 0.453801
O O10 0.750000 0.750000 0.315685
O O11 0.687332 0.903082 0.222909
#
# Coordination Sequence:
#
# PCOD9369736 Si02
#       5
#    16   8  16  16   8
#     4  11  25  46  73 106 145 196 245 292 361 433
#     4  12  27  50  75 105 146 190 243 308 361 431
#     4  10  22  44  74 103 143 193 239 292 354 431
#     4  12  26  45  72 106 145 188 240 304 358 427
#     4  12  30  48  71 109 147 184 241 306 368 423
#
# _framework density 22.140563
#
# number of rings (size 3 to 8) (size 9 to 14) (size 15 to 20)
#    0.000    0.750    5.000    1.125    7.000    1.000 
#    0.000    3.750    0.000    0.000    0.000    0.000 
#    0.000    0.000    0.000    0.000    0.000    0.000 
#
# Total GULP energy -89313.284038 kJ/mol
# GULP energy per Si atom -5582.080252 kJ/mol
# Density = 2.209017 g / cm^3
# Si number density = 22.140563 Si / 1000 Ang^3
#
#
#
# Elastic Constant Matrix: (Units=GPa)
#
#
# Indices 1 2 3 4 5 6 
#
# 1 146.1991 68.1015 47.0026 0.0000 0.0000 0.0000
# 2 68.1015 146.9376 17.9376 0.0000 0.0000 0.0000
# 3 47.0026 17.9376 71.2753 0.0000 0.0000 0.0000
# 4 0.0000 0.0000 0.0000 26.6007 0.0000 0.0000
# 5 0.0000 0.0000 0.0000 0.0000 24.1632 0.0000
# 6 0.0000 0.0000 0.0000 0.0000 0.0000 97.2897
#
#
#
# Elastic Compliance Matrix: (Units=1/GPa)
#
#
# Indices 1 2 3 4 5 6 
#
# 1 0.010756 -0.004250 -0.006024 0.000000 0.000000 0.000000
# 2 -0.004250 0.008700 0.000613 0.000000 0.000000 0.000000
# 3 -0.006024 0.000613 0.017848 0.000000 0.000000 0.000000
# 4 0.000000 0.000000 0.000000 0.037593 0.000000 0.000000
# 5 0.000000 0.000000 0.000000 0.000000 0.041385 0.000000
# 6 0.000000 0.000000 0.000000 0.000000 0.000000 0.010279
#
#
# Mechanical properties :
#
#
# Convention : Reuss Voigt Hill
#
# Bulk Modulus (GPa) = 55.60584 70.05506 62.83045
# Shear Modulus (GPa) = 32.92130 45.03540 38.97835
#
# Velocity S-wave (km/s) = 3.86025 4.51496 4.20038
# Velocity P-wave (km/s) = 6.71104 7.67395 7.20859
#
# Compressibility (1/GPa) = 0.01798372
#
# Stress axis : x y z
#
# Youngs Moduli (GPa) = 92.96948 114.93621 56.02826
#
# Poissons Ratio (x) = 0.48846 0.33749
# Poissons Ratio (y) = 0.39511 -0.03434
# Poissons Ratio (z) = 0.56002 -0.07045
#
# Static dielectric constant tensor:
#      x y z
#    x 1.864250 0.000000 0.000000 
#    y 0.000000 1.880080 0.000000 
#    z 0.000000 0.000000 1.803120 
# 
# From -- ./inp_files/7513.got.cif
#   From: 2010.05.17/outbox.cif.g08.bks.cpg/sg42_4_cif.got.tgz:7513.got - 2010.06.03 19:03:34.
