data_PCOD9369958
_publ_section_title
;
Structure prediction by ZEFSAII (Michael W. Deem and Ramdas Pophale) SiO2 
 PCOD9369958
Probable space group: F M M 2
;
_chemical_formula_sum "Si O2"
_cell_formula_units_Z 40
_cell_length_a 9.943579
_cell_length_b 15.482276
_cell_length_c 10.422022
_cell_angle_alpha 90.000000
_cell_angle_beta 90.000000
_cell_angle_gamma 90.000000
_cell_volume 1604.462309
_symmetry_space_group_name_H-M "F M M 2"
_symmetry_group_IT_number 42
_symmetry_cell_setting 'orthorhombic'
loop_
_space_group_symop_operation_xyz
x,y,z
-x,-y,z
-x,y,z
x,-y,z
x,1/2+y,1/2+z
-x,1/2-y,1/2+z
-x,1/2+y,1/2+z
x,1/2-y,1/2+z
1/2+x,y,1/2+z
1/2-x,-y,1/2+z
1/2-x,y,1/2+z
1/2+x,-y,1/2+z
1/2+x,1/2+y,z
1/2-x,1/2-y,z
1/2-x,1/2+y,z
1/2+x,1/2-y,z
loop_
_atom_site_type_symbol
_atom_site_label
_atom_site_fract_x
_atom_site_fract_y
_atom_site_fract_z
Si Si1 0.500000 0.403788 0.036371
Si Si2 0.000000 0.404969 0.882455
Si Si3 0.500000 0.709305 0.632731
Si Si4 0.217442 0.344707 0.339541
O O1 0.500000 0.500000 0.097070
O O2 0.500000 0.312226 0.111682
O O3 0.628975 0.396245 0.941854
O O4 0.857910 0.391126 0.812119
O O5 0.000000 0.500000 0.939723
O O6 0.000000 0.335829 0.996133
O O7 0.372239 0.676817 0.715186
O O8 0.250000 0.250000 0.396029
#
# Coordination Sequence:
#
# PCOD9369958 Si02
#       4
#     8   8   8  16
#     4  11  24  49  81 114 152 199 259 311 368 454
#     4  12  26  48  78 115 153 196 258 314 373 453
#     4  11  26  47  83 105 157 211 243 309 389 441
#     4  11  24  49  76 106 156 203 244 310 380 445
#
# _framework density 24.93047
#
# number of rings (size 3 to 8) (size 9 to 14) (size 15 to 20)
#    0.000    0.800    4.000    2.400    5.600    4.800 
#    0.000    6.000    0.000    0.000    0.000    0.000 
#    0.000    0.000    0.000    0.000    0.000    0.000 
#
# Total GULP energy -56017.284598 kJ/mol
# GULP energy per Si atom -5601.728460 kJ/mol
# Density = 2.487373 g / cm^3
# Si number density = 24.930470 Si / 1000 Ang^3
#
#
#
# Elastic Constant Matrix: (Units=GPa)
#
#
# Indices 1 2 3 4 5 6 
#
# 1 215.7445 52.5973 56.9651 0.0000 0.0000 0.0000
# 2 52.5973 155.0127 29.0757 0.0000 0.0000 0.0000
# 3 56.9651 29.0757 84.0234 0.0000 0.0000 0.0000
# 4 0.0000 0.0000 0.0000 14.3645 0.0000 0.0000
# 5 0.0000 0.0000 0.0000 0.0000 19.1794 0.0000
# 6 0.0000 0.0000 0.0000 0.0000 0.0000 18.6374
#
#
#
# Elastic Compliance Matrix: (Units=1/GPa)
#
#
# Indices 1 2 3 4 5 6 
#
# 1 0.005894 -0.001337 -0.003533 0.000000 0.000000 0.000000
# 2 -0.001337 0.007202 -0.001586 0.000000 0.000000 0.000000
# 3 -0.003533 -0.001586 0.014846 0.000000 0.000000 0.000000
# 4 0.000000 0.000000 0.000000 0.069616 0.000000 0.000000
# 5 0.000000 0.000000 0.000000 0.000000 0.052139 0.000000
# 6 0.000000 0.000000 0.000000 0.000000 0.000000 0.053656
#
#
# Mechanical properties :
#
#
# Convention : Reuss Voigt Hill
#
# Bulk Modulus (GPa) = 66.53539 81.33963 73.93751
# Shear Modulus (GPa) = 22.59634 31.51243 27.05439
#
# Velocity S-wave (km/s) = 3.01387 3.55915 3.29780
# Velocity P-wave (km/s) = 6.23358 7.04184 6.65000
#
# Compressibility (1/GPa) = 0.01502960
#
# Stress axis : x y z
#
# Youngs Moduli (GPa) = 169.66348 138.84584 67.36006
#
# Poissons Ratio (x) = 0.18566 0.23800
# Poissons Ratio (y) = 0.22687 0.10681
# Poissons Ratio (z) = 0.59946 0.22017
#
# Static dielectric constant tensor:
#      x y z
#    x 2.007670 0.000000 0.000000 
#    y 0.000000 1.871280 0.000000 
#    z 0.000000 0.000000 1.991270 
# 
# From -- ./inp_files/6407.got.cif
#   From: 2010.05.17/outbox.cif.g08.bks.cpg/sg42_4_cif.got.tgz:6407.got - 2010.06.03 19:03:34.
