data_PCOD9369262
_publ_section_title
;
Structure prediction by ZEFSAII (Michael W. Deem and Ramdas Pophale) SiO2 
 PCOD9369262
Probable space group: F M M 2
;
_chemical_formula_sum "Si O2"
_cell_formula_units_Z 80
_cell_length_a 13.940790
_cell_length_b 31.049859
_cell_length_c 7.594936
_cell_angle_alpha 90.000000
_cell_angle_beta 90.000000
_cell_angle_gamma 90.000000
_cell_volume 3287.540684
_symmetry_space_group_name_H-M "F M M 2"
_symmetry_group_IT_number 42
_symmetry_cell_setting 'orthorhombic'
loop_
_space_group_symop_operation_xyz
x,y,z
-x,-y,z
-x,y,z
x,-y,z
x,1/2+y,1/2+z
-x,1/2-y,1/2+z
-x,1/2+y,1/2+z
x,1/2-y,1/2+z
1/2+x,y,1/2+z
1/2-x,-y,1/2+z
1/2-x,y,1/2+z
1/2+x,-y,1/2+z
1/2+x,1/2+y,z
1/2-x,1/2-y,z
1/2-x,1/2+y,z
1/2+x,1/2-y,z
loop_
_atom_site_type_symbol
_atom_site_label
_atom_site_fract_x
_atom_site_fract_y
_atom_site_fract_z
Si Si1 0.722673 0.701480 0.745070
Si Si2 0.117072 0.452772 0.147116
Si Si3 0.891476 0.584769 0.801580
Si Si4 0.883057 0.878332 0.926390
Si Si5 0.894599 0.819938 0.404569
O O1 0.750000 0.750000 0.803148
O O2 0.670274 0.665807 0.867587
O O3 0.840143 0.700021 0.070116
O O4 0.667880 0.814065 0.730917
O O5 0.145932 0.500000 0.212824
O O6 0.153029 0.446626 0.945815
O O7 0.000000 0.452096 0.137733
O O8 0.141176 0.413765 0.277377
O O9 0.853006 0.599366 0.611667
O O10 0.899403 0.628738 0.917167
O O11 0.000000 0.569372 0.761979
O O12 0.000000 0.871075 0.932245
O O13 0.000000 0.801548 0.388656
#
# Coordination Sequence:
#
# PCOD9369262 Si02
#       5
#    16  16  16  16  16
#     4  12  25  43  68 102 140 191 256 309 375 459
#     4   9  17  32  60 102 147 194 254 316 382 465
#     4   9  18  35  61  94 135 190 244 300 378 454
#     4  10  20  38  67 101 147 205 254 315 395 462
#     4  11  24  44  68  99 143 189 244 314 379 446
#
# _framework density 24.334299000000001
#
# number of rings (size 3 to 8) (size 9 to 14) (size 15 to 20)
#    0.000    1.800    2.000    2.400    0.000    2.400 
#    0.000    8.000    0.000    1.200    0.000    0.000 
#    0.000    0.000    0.000    0.000    0.000    0.000 
#
# Total GULP energy -111470.834132 kJ/mol
# GULP energy per Si atom -5573.541707 kJ/mol
# Density = 2.427891 g / cm^3
# Si number density = 24.334299 Si / 1000 Ang^3
#
#
#
# Elastic Constant Matrix: (Units=GPa)
#
#
# Indices 1 2 3 4 5 6 
#
# 1 140.2651 22.9674 46.9901 0.0000 0.0000 0.0000
# 2 22.9674 140.7230 71.5277 0.0000 0.0000 0.0000
# 3 46.9901 71.5277 193.5798 0.0000 0.0000 0.0000
# 4 0.0000 0.0000 0.0000 12.9476 0.0000 0.0000
# 5 0.0000 0.0000 0.0000 0.0000 24.1907 0.0000
# 6 0.0000 0.0000 0.0000 0.0000 0.0000 21.3633
#
#
#
# Elastic Compliance Matrix: (Units=1/GPa)
#
#
# Indices 1 2 3 4 5 6 
#
# 1 0.007777 -0.000381 -0.001747 0.000000 0.000000 0.000000
# 2 -0.000381 0.008768 -0.003147 0.000000 0.000000 0.000000
# 3 -0.001747 -0.003147 0.006753 0.000000 0.000000 0.000000
# 4 0.000000 0.000000 0.000000 0.077235 0.000000 0.000000
# 5 0.000000 0.000000 0.000000 0.000000 0.041338 0.000000
# 6 0.000000 0.000000 0.000000 0.000000 0.000000 0.046809
#
#
# Mechanical properties :
#
#
# Convention : Reuss Voigt Hill
#
# Bulk Modulus (GPa) = 78.45040 84.17091 81.31066
# Shear Modulus (GPa) = 24.57246 33.90584 29.23915
#
# Velocity S-wave (km/s) = 3.18116 3.73679 3.47011
# Velocity P-wave (km/s) = 6.76769 7.29950 7.03862
#
# Compressibility (1/GPa) = 0.01274691
#
# Stress axis : x y z
#
# Youngs Moduli (GPa) = 128.58378 114.04979 148.08713
#
# Poissons Ratio (x) = 0.04349 0.25869
# Poissons Ratio (y) = 0.04904 0.46607
# Poissons Ratio (z) = 0.22462 0.35894
#
# Static dielectric constant tensor:
#      x y z
#    x 2.011270 0.000000 0.000000 
#    y 0.000000 2.078560 0.000000 
#    z 0.000000 0.000000 1.961910 
# 
# From -- ./inp_files/3481.got.cif
#   From: 2010.05.17/outbox.cif.g08.bks.cpg/sg42_2_cif.got.tgz:3481.got - 2010.06.03 19:03:34.
