data_PCOD9369968
_publ_section_title
;
Structure prediction by ZEFSAII (Michael W. Deem and Ramdas Pophale) SiO2 
 PCOD9369968
Probable space group: F M M 2
;
_chemical_formula_sum "Si O2"
_cell_formula_units_Z 56
_cell_length_a 8.056198
_cell_length_b 13.714855
_cell_length_c 23.560631
_cell_angle_alpha 90.000000
_cell_angle_beta 90.000000
_cell_angle_gamma 90.000000
_cell_volume 2603.204399
_symmetry_space_group_name_H-M "F M M 2"
_symmetry_group_IT_number 42
_symmetry_cell_setting 'orthorhombic'
loop_
_space_group_symop_operation_xyz
x,y,z
-x,-y,z
-x,y,z
x,-y,z
x,1/2+y,1/2+z
-x,1/2-y,1/2+z
-x,1/2+y,1/2+z
x,1/2-y,1/2+z
1/2+x,y,1/2+z
1/2-x,-y,1/2+z
1/2-x,y,1/2+z
1/2+x,-y,1/2+z
1/2+x,1/2+y,z
1/2-x,1/2-y,z
1/2-x,1/2+y,z
1/2+x,1/2-y,z
loop_
_atom_site_type_symbol
_atom_site_label
_atom_site_fract_x
_atom_site_fract_y
_atom_site_fract_z
Si Si1 0.000000 0.381345 0.075020
Si Si2 0.687831 0.881673 0.782116
Si Si3 0.000000 0.617909 0.208928
Si Si4 0.801431 0.385077 0.913082
Si Si5 0.250000 0.750000 0.005272
O O1 0.150507 0.322989 0.045911
O O2 0.000000 0.500000 0.065172
O O3 0.000000 0.362267 0.142169
O O4 0.500000 0.849719 0.768575
O O5 0.833472 0.848655 0.740716
O O6 0.727671 0.858240 0.847614
O O7 0.684069 0.000000 0.779761
O O8 0.000000 0.500000 0.213849
O O9 0.775733 0.500000 0.918771
O O10 0.000000 0.367617 0.924900
O O11 0.689403 0.327937 0.957811
#
# Coordination Sequence:
#
# PCOD9369968 Si02
#       5
#     8  16   8  16   8
#     4  11  26  47  67  93 135 182 229 281 330 392
#     4   8  15  31  60  96 129 170 219 272 347 415
#     4   9  18  37  62  89 129 174 222 281 335 396
#     4   9  18  36  63  95 134 172 212 275 344 405
#     4  12  22  40  68  92 132 182 224 266 338 402
#
# _framework density 21.511948
#
# number of rings (size 3 to 8) (size 9 to 14) (size 15 to 20)
#    0.000    2.571    1.429    2.571    0.000    1.143 
#    2.571    5.714    0.000    0.000    0.000    0.000 
#    0.000    0.000    0.000    0.000    0.000    0.000 
#
# Total GULP energy -78012.974570 kJ/mol
# GULP energy per Si atom -5572.355326 kJ/mol
# Density = 2.146299 g / cm^3
# Si number density = 21.511948 Si / 1000 Ang^3
#
#
#
# Elastic Constant Matrix: (Units=GPa)
#
#
# Indices 1 2 3 4 5 6 
#
# 1 117.0594 65.4766 119.4689 0.0000 0.0000 0.0000
# 2 65.4766 155.7686 69.7841 0.0000 0.0000 0.0000
# 3 119.4689 69.7841 196.6044 0.0000 0.0000 0.0000
# 4 0.0000 0.0000 0.0000 178.7206 0.0000 0.0000
# 5 0.0000 0.0000 0.0000 0.0000 36.8371 0.0000
# 6 0.0000 0.0000 0.0000 0.0000 0.0000 29.9340
#
#
#
# Elastic Compliance Matrix: (Units=1/GPa)
#
#
# Indices 1 2 3 4 5 6 
#
# 1 0.024753 -0.004359 -0.013494 0.000000 0.000000 0.000000
# 2 -0.004359 0.008401 -0.000333 0.000000 0.000000 0.000000
# 3 -0.013494 -0.000333 0.013404 0.000000 0.000000 0.000000
# 4 0.000000 0.000000 0.000000 0.005595 0.000000 0.000000
# 5 0.000000 0.000000 0.000000 0.000000 0.027147 0.000000
# 6 0.000000 0.000000 0.000000 0.000000 0.000000 0.033407
#
#
# Mechanical properties :
#
#
# Convention : Reuss Voigt Hill
#
# Bulk Modulus (GPa) = 98.17636 108.76574 103.47105
# Shear Modulus (GPa) = 32.79219 63.41188 48.10203
#
# Velocity S-wave (km/s) = 3.90856 5.43521 4.73383
# Velocity P-wave (km/s) = 8.13057 9.48994 8.83644
#
# Compressibility (1/GPa) = 0.01018575
#
# Stress axis : x y z
#
# Youngs Moduli (GPa) = 40.39943 119.02728 74.60291
#
# Poissons Ratio (x) = 0.51890 1.00669
# Poissons Ratio (y) = 0.17612 0.02484
# Poissons Ratio (z) = 0.54515 0.03963
#
# Static dielectric constant tensor:
#      x y z
#    x 1.848020 0.000000 0.000000 
#    y 0.000000 1.739620 0.000000 
#    z 0.000000 0.000000 1.753240 
# 
# From -- ./inp_files/23103.got.cif
#   From: 2010.05.17/outbox.cif.g08.bks.cpg/sg42_12_cif.got.tgz:23103.got - 2010.06.03 19:03:34.
