data_PCOD9369770
_publ_section_title
;
Structure prediction by ZEFSAII (Michael W. Deem and Ramdas Pophale) SiO2 
 PCOD9369770
Probable space group: F M M 2
;
_chemical_formula_sum "Si O2"
_cell_formula_units_Z 96
_cell_length_a 22.696261
_cell_length_b 14.794844
_cell_length_c 13.848154
_cell_angle_alpha 90.000000
_cell_angle_beta 90.000000
_cell_angle_gamma 90.000000
_cell_volume 4650.038962
_symmetry_space_group_name_H-M "F M M 2"
_symmetry_group_IT_number 42
_symmetry_cell_setting 'orthorhombic'
loop_
_space_group_symop_operation_xyz
x,y,z
-x,-y,z
-x,y,z
x,-y,z
x,1/2+y,1/2+z
-x,1/2-y,1/2+z
-x,1/2+y,1/2+z
x,1/2-y,1/2+z
1/2+x,y,1/2+z
1/2-x,-y,1/2+z
1/2-x,y,1/2+z
1/2+x,-y,1/2+z
1/2+x,1/2+y,z
1/2-x,1/2-y,z
1/2-x,1/2+y,z
1/2+x,1/2-y,z
loop_
_atom_site_type_symbol
_atom_site_label
_atom_site_fract_x
_atom_site_fract_y
_atom_site_fract_z
Si Si1 0.710517 0.606380 0.805350
Si Si2 0.189987 0.692261 0.510482
Si Si3 0.408780 0.603466 0.705395
Si Si4 0.063748 0.207456 0.288896
Si Si5 0.172219 0.895363 0.203410
Si Si6 0.433235 0.297495 0.514166
O O1 0.716054 0.500000 0.827900
O O2 0.690620 0.656337 0.901520
O O3 0.661425 0.613288 0.722047
O O4 0.773366 0.638950 0.767848
O O5 0.250000 0.750000 0.523337
O O6 0.190584 0.615982 0.592468
O O7 0.127126 0.741270 0.526894
O O8 0.424579 0.500000 0.731161
O O9 0.433642 0.683942 0.772775
O O10 0.427519 0.625592 0.596003
O O11 0.115848 0.163256 0.229477
O O12 0.068838 0.179194 0.400687
O O13 0.000000 0.176777 0.253064
O O14 0.161237 0.000000 0.225377
O O15 0.500000 0.257416 0.528014
#
# Coordination Sequence:
#
# PCOD9369770 Si02
#       6
#    16  16  16  16  16  16
#     4  10  23  42  65  98 133 171 226 281 339 405
#     4  12  23  39  69  96 129 179 225 278 338 403
#     4  11  23  42  70 100 135 177 224 279 339 403
#     4  11  24  43  67  96 134 180 228 278 341 407
#     4  11  25  42  65  97 134 177 224 281 342 406
#     4  11  24  41  64  98 135 174 222 277 336 402
#
# _framework density 20.644988999999999
#
# number of rings (size 3 to 8) (size 9 to 14) (size 15 to 20)
#    0.000    1.000    3.333    3.000    0.000    2.333 
#    0.000    5.833    0.000    1.500    0.000    0.000 
#    0.000    0.000    0.000    0.000    0.000    0.000 
#
# Total GULP energy -133939.809192 kJ/mol
# GULP energy per Si atom -5580.825383 kJ/mol
# Density = 2.059800 g / cm^3
# Si number density = 20.644989 Si / 1000 Ang^3
#
#
#
# Elastic Constant Matrix: (Units=GPa)
#
#
# Indices 1 2 3 4 5 6 
#
# 1 178.2252 49.7340 35.9475 0.0000 0.0000 0.0000
# 2 49.7340 69.6169 31.2173 0.0000 0.0000 0.0000
# 3 35.9475 31.2173 122.6741 0.0000 0.0000 0.0000
# 4 0.0000 0.0000 0.0000 28.2843 0.0000 0.0000
# 5 0.0000 0.0000 0.0000 0.0000 -3.0229 0.0000
# 6 0.0000 0.0000 0.0000 0.0000 0.0000 9.0281
#
#
#
# Elastic Compliance Matrix: (Units=1/GPa)
#
#
# Indices 1 2 3 4 5 6 
#
# 1 0.007093 -0.004668 -0.000891 0.000000 0.000000 0.000000
# 2 -0.004668 0.019286 -0.003540 0.000000 0.000000 0.000000
# 3 -0.000891 -0.003540 0.009314 0.000000 0.000000 0.000000
# 4 0.000000 0.000000 0.000000 0.035355 0.000000 0.000000
# 5 0.000000 0.000000 0.000000 0.000000 -0.330811 0.000000
# 6 0.000000 0.000000 0.000000 0.000000 0.000000 0.110765
#
#
# Mechanical properties :
#
#
# Convention : Reuss Voigt Hill
#
# Bulk Modulus (GPa) = 57.15628 67.14598 62.15113
# Shear Modulus (GPa) = -40.01018 23.76572 -8.12223
#
# Velocity S-wave (km/s) = -4.40706 3.39656 -1.98564
# Velocity P-wave (km/s) = 1.35985 6.92653 4.99129
#
# Compressibility (1/GPa) = 0.01749589
#
# Stress axis : x y z
#
# Youngs Moduli (GPa) = 140.98188 51.84978 107.37075
#
# Poissons Ratio (x) = 0.24203 0.09563
# Poissons Ratio (y) = 0.65809 0.38010
# Poissons Ratio (z) = 0.12557 0.18355
#
# Static dielectric constant tensor:
#      x y z
#    x 1.768210 0.000000 0.000000 
#    y 0.000000 1.729570 0.000000 
#    z 0.000000 0.000000 1.723670 
# 
# From -- ./inp_files/14019.got.cif
#   From: 2010.05.17/outbox.cif.g08.bks.cpg/sg42_8_cif.got.tgz:14019.got - 2010.06.03 19:03:34.
