data_PCOD9369603
_publ_section_title
;
Structure prediction by ZEFSAII (Michael W. Deem and Ramdas Pophale) SiO2 
 PCOD9369603
Probable space group: F M M 2
;
_chemical_formula_sum "Si O2"
_cell_formula_units_Z 88
_cell_length_a 22.688123
_cell_length_b 21.181327
_cell_length_c 7.888769
_cell_angle_alpha 90.000000
_cell_angle_beta 90.000000
_cell_angle_gamma 90.000000
_cell_volume 3791.062743
_symmetry_space_group_name_H-M "F M M 2"
_symmetry_group_IT_number 42
_symmetry_cell_setting 'orthorhombic'
loop_
_space_group_symop_operation_xyz
x,y,z
-x,-y,z
-x,y,z
x,-y,z
x,1/2+y,1/2+z
-x,1/2-y,1/2+z
-x,1/2+y,1/2+z
x,1/2-y,1/2+z
1/2+x,y,1/2+z
1/2-x,-y,1/2+z
1/2-x,y,1/2+z
1/2+x,-y,1/2+z
1/2+x,1/2+y,z
1/2-x,1/2-y,z
1/2-x,1/2+y,z
1/2+x,1/2-y,z
loop_
_atom_site_type_symbol
_atom_site_label
_atom_site_fract_x
_atom_site_fract_y
_atom_site_fract_z
Si Si1 0.122892 0.374081 0.486480
Si Si2 0.000000 0.352529 0.585340
Si Si3 0.750000 0.750000 0.230759
Si Si4 0.792015 0.000000 0.277170
Si Si5 0.164033 0.000000 0.883009
Si Si6 0.312959 0.635211 0.323485
Si Si7 0.000000 0.773540 0.731786
Si Si8 0.875998 0.230530 0.538505
O O1 0.060941 0.389513 0.579350
O O2 0.133191 0.431563 0.358128
O O3 0.174413 0.373228 0.625019
O O4 0.118993 0.299164 0.447921
O O5 0.000000 0.302971 0.739667
O O6 0.000000 0.313440 0.404586
O O7 0.740508 0.684941 0.334568
O O8 0.813171 0.737764 0.138848
O O9 0.721781 0.000000 0.269623
O O10 0.806461 0.063828 0.380365
O O11 0.820154 0.000000 0.087542
O O12 0.365232 0.673371 0.410566
O O13 0.937988 0.783142 0.631737
#
# Coordination Sequence:
#
# PCOD9369603 Si02
#       8
#    16   8   8   8   8  16   8  16
#     4   9  22  37  62  88 122 160 210 256 313 380
#     4  10  22  39  62  93 123 166 212 255 326 377
#     4  10  22  34  62  92 126 166 208 272 314 382
#     4  10  24  38  60  85 127 167 209 255 322 381
#     4  10  22  43  58  89 123 166 211 259 316 387
#     4  10  22  38  59  93 124 164 215 258 326 374
#     4  10  24  38  64  93 133 165 208 265 328 378
#     4  10  22  37  61  94 127 163 210 268 316 381
#
# _framework density 23.212489999999999
#
# number of rings (size 3 to 8) (size 9 to 14) (size 15 to 20)
#    0.000    2.182    0.000    0.545   25.455    0.364 
#    0.000    0.000    0.000    2.727    0.000    0.000 
#    0.000    0.000    0.000    0.000    0.000    0.000 
#
# Total GULP energy -122475.972952 kJ/mol
# GULP energy per Si atom -5567.089680 kJ/mol
# Density = 2.315966 g / cm^3
# Si number density = 23.212490 Si / 1000 Ang^3
#
#
#
# Elastic Constant Matrix: (Units=GPa)
#
#
# Indices 1 2 3 4 5 6 
#
# 1 117.5765 28.7866 23.3637 -0.0003 0.0001 0.0001
# 2 28.7866 175.5203 28.1614 -0.0005 0.0004 0.0003
# 3 23.3637 28.1614 42.4547 -0.0009 0.0005 0.0005
# 4 -0.0003 -0.0005 -0.0009 5.8126 0.0004 0.0004
# 5 0.0001 0.0004 0.0005 0.0004 37.8104 -0.0002
# 6 0.0001 0.0003 0.0005 0.0004 -0.0002 3.5050
#
#
#
# Elastic Compliance Matrix: (Units=1/GPa)
#
#
# Indices 1 2 3 4 5 6 
#
# 1 0.009653 -0.000818 -0.004770 0.000000 0.000000 0.000001
# 2 -0.000818 0.006445 -0.003825 0.000000 0.000000 0.000000
# 3 -0.004770 -0.003825 0.028717 0.000004 0.000000 -0.000004
# 4 0.000000 0.000000 0.000004 0.172041 -0.000002 -0.000019
# 5 0.000000 0.000000 0.000000 -0.000002 0.026448 0.000002
# 6 0.000001 0.000000 -0.000004 -0.000019 0.000002 0.285307
#
#
# Mechanical properties :
#
#
# Convention : Reuss Voigt Hill
#
# Bulk Modulus (GPa) = 38.47721 55.13055 46.80388
# Shear Modulus (GPa) = 8.99119 26.44157 17.71638
#
# Velocity S-wave (km/s) = 1.97024 3.37873 2.76565
# Velocity P-wave (km/s) = 4.66775 6.24684 5.51411
#
# Compressibility (1/GPa) = 0.02598941
#
# Stress axis : x y z
#
# Youngs Moduli (GPa) = 103.59307 155.15365 34.82280
#
# Poissons Ratio (x) = 0.12690 0.16610
# Poissons Ratio (y) = 0.08473 0.13320
# Poissons Ratio (z) = 0.49412 0.59349
#
# Static dielectric constant tensor:
#      x y z
#    x 1.915620 0.000000 0.000000 
#    y 0.000000 1.978420 0.000000 
#    z 0.000000 0.000000 2.006850 
# 
# From -- ./inp_files/4667.got.cif
#   From: 2010.05.17/outbox.cif.g08.bks.cpg/sg42_3_cif.got.tgz:4667.got - 2010.06.03 19:03:34.
