data_PCOD9369582
_publ_section_title
;
Structure prediction by ZEFSAII (Michael W. Deem and Ramdas Pophale) SiO2 
 PCOD9369582
Probable space group: F M M 2
;
_chemical_formula_sum "Si O2"
_cell_formula_units_Z 88
_cell_length_a 20.926266
_cell_length_b 20.972894
_cell_length_c 9.987332
_cell_angle_alpha 90.000000
_cell_angle_beta 90.000000
_cell_angle_gamma 90.000000
_cell_volume 4383.283799
_symmetry_space_group_name_H-M "F M M 2"
_symmetry_group_IT_number 42
_symmetry_cell_setting 'orthorhombic'
loop_
_space_group_symop_operation_xyz
x,y,z
-x,-y,z
-x,y,z
x,-y,z
x,1/2+y,1/2+z
-x,1/2-y,1/2+z
-x,1/2+y,1/2+z
x,1/2-y,1/2+z
1/2+x,y,1/2+z
1/2-x,-y,1/2+z
1/2-x,y,1/2+z
1/2+x,-y,1/2+z
1/2+x,1/2+y,z
1/2-x,1/2-y,z
1/2-x,1/2+y,z
1/2+x,1/2-y,z
loop_
_atom_site_type_symbol
_atom_site_label
_atom_site_fract_x
_atom_site_fract_y
_atom_site_fract_z
Si Si1 0.694505 0.070824 0.629450
Si Si2 0.750000 0.750000 0.752960
Si Si3 0.136437 0.833277 0.343666
Si Si4 0.000000 0.165855 0.966232
Si Si5 0.500000 0.723351 0.258463
Si Si6 0.888656 0.075653 0.885402
Si Si7 0.826011 0.130844 0.632958
O O1 0.658882 0.118759 0.727778
O O2 0.674740 0.081422 0.475746
O O3 0.770015 0.078797 0.637427
O O4 0.674194 0.000000 0.666522
O O5 0.807589 0.719999 0.838533
O O6 0.786841 0.804243 0.667816
O O7 0.141020 0.863342 0.490048
O O8 0.066017 0.807947 0.310705
O O9 0.000000 0.207530 0.829814
O O10 0.940428 0.117705 0.963704
O O11 0.000000 0.212146 0.096804
O O12 0.875823 0.110148 0.745609
O O13 0.904401 0.000000 0.872822
#
# Coordination Sequence:
#
# PCOD9369582 Si02
#       7
#    16   8  16   8   8  16  16
#     4  10  21  41  67  94 130 176 223 276 337 405
#     4  10  22  40  66  94 140 186 222 278 344 410
#     4  11  24  42  64 100 134 177 220 287 341 409
#     4  12  27  48  69  97 128 179 222 281 331 423
#     4  12  28  44  73  97 139 171 228 273 359 409
#     4  11  24  44  69  94 131 181 226 273 337 408
#     4  11  23  37  65 100 135 169 228 279 342 394
#
# _framework density 20.076273
#
# number of rings (size 3 to 8) (size 9 to 14) (size 15 to 20)
#    0.000    1.091    1.818    4.636    5.091    4.364 
#    0.000    0.455    0.000    0.000    0.000    0.000 
#    0.000    0.000    0.000    0.000    0.000    0.000 
#
# Total GULP energy -122834.289884 kJ/mol
# GULP energy per Si atom -5583.376813 kJ/mol
# Density = 2.003058 g / cm^3
# Si number density = 20.076273 Si / 1000 Ang^3
#
#
#
# Elastic Constant Matrix: (Units=GPa)
#
#
# Indices 1 2 3 4 5 6 
#
# 1 90.6249 12.1702 24.7054 0.0000 0.0000 0.0000
# 2 12.1702 74.8876 38.8172 0.0000 0.0000 0.0000
# 3 24.7054 38.8172 117.5164 0.0001 0.0000 0.0000
# 4 0.0000 0.0000 0.0001 14.9240 0.0000 0.0000
# 5 0.0000 0.0000 0.0000 0.0000 16.3548 0.0000
# 6 0.0000 0.0000 0.0000 0.0000 0.0000 21.0777
#
#
#
# Elastic Compliance Matrix: (Units=1/GPa)
#
#
# Indices 1 2 3 4 5 6 
#
# 1 0.011741 -0.000759 -0.002218 0.000000 0.000000 0.000000
# 2 -0.000759 0.016161 -0.005179 0.000000 0.000000 0.000000
# 3 -0.002218 -0.005179 0.010686 0.000000 0.000000 0.000000
# 4 0.000000 0.000000 0.000000 0.067006 0.000000 0.000000
# 5 0.000000 0.000000 0.000000 0.000000 0.061144 0.000000
# 6 0.000000 0.000000 0.000000 0.000000 0.000000 0.047444
#
#
# Mechanical properties :
#
#
# Convention : Reuss Voigt Hill
#
# Bulk Modulus (GPa) = 44.88686 48.26827 46.57757
# Shear Modulus (GPa) = 21.01564 24.29370 22.65467
#
# Velocity S-wave (km/s) = 3.23892 3.48238 3.36286
# Velocity P-wave (km/s) = 6.03276 6.34539 6.19105
#
# Compressibility (1/GPa) = 0.02227824
#
# Stress axis : x y z
#
# Youngs Moduli (GPa) = 85.17209 61.87763 93.57790
#
# Poissons Ratio (x) = 0.04693 0.20753
# Poissons Ratio (y) = 0.06460 0.48461
# Poissons Ratio (z) = 0.18889 0.32045
#
# Static dielectric constant tensor:
#      x y z
#    x 1.720620 0.000000 0.000000 
#    y 0.000000 1.729190 0.000000 
#    z 0.000000 0.000000 1.702400 
# 
# From -- ./inp_files/8700.got.cif
#   From: 2010.05.17/outbox.cif.g08.bks.cpg/sg42_5_cif.got.tgz:8700.got - 2010.06.03 19:03:34.
