data_PCOD9369788
_publ_section_title
;
Structure prediction by ZEFSAII (Michael W. Deem and Ramdas Pophale) SiO2 
 PCOD9369788
Probable space group: F M M 2
;
_chemical_formula_sum "Si O2"
_cell_formula_units_Z 100
_cell_length_a 24.022170
_cell_length_b 7.595676
_cell_length_c 25.911113
_cell_angle_alpha 90.000000
_cell_angle_beta 90.000000
_cell_angle_gamma 90.000000
_cell_volume 4727.861391
_symmetry_space_group_name_H-M "F M M 2"
_symmetry_group_IT_number 42
_symmetry_cell_setting 'orthorhombic'
loop_
_space_group_symop_operation_xyz
x,y,z
-x,-y,z
-x,y,z
x,-y,z
x,1/2+y,1/2+z
-x,1/2-y,1/2+z
-x,1/2+y,1/2+z
x,1/2-y,1/2+z
1/2+x,y,1/2+z
1/2-x,-y,1/2+z
1/2-x,y,1/2+z
1/2+x,-y,1/2+z
1/2+x,1/2+y,z
1/2-x,1/2-y,z
1/2-x,1/2+y,z
1/2+x,1/2-y,z
loop_
_atom_site_type_symbol
_atom_site_label
_atom_site_fract_x
_atom_site_fract_y
_atom_site_fract_z
Si Si1 0.399784 0.784676 0.639620
Si Si2 0.188314 0.299564 0.431175
Si Si3 0.000000 0.285094 0.469224
Si Si4 0.623519 0.293332 0.330795
Si Si5 0.814933 0.290061 0.729642
Si Si6 0.500000 0.710723 0.850039
Si Si7 0.885090 0.214251 0.021211
Si Si8 0.000000 0.000000 0.651749
O O1 0.351447 0.739782 0.680368
O O2 0.380182 0.745047 0.581197
O O3 0.451588 0.657438 0.650722
O O4 0.411567 0.000000 0.642669
O O5 0.194914 0.500000 0.445701
O O6 0.250000 0.250000 0.413742
O O7 0.144581 0.285633 0.384626
O O8 0.162066 0.214240 0.482427
O O9 0.000000 0.227096 0.409676
O O10 0.055187 0.226510 0.498948
O O11 0.000000 0.500000 0.468487
O O12 0.635350 0.500000 0.335510
O O13 0.657505 0.218689 0.282354
O O14 0.557493 0.269378 0.324271
O O15 0.820165 0.500000 0.733184
O O16 0.750000 0.250000 0.725569
O O17 0.500000 0.500000 0.850300
O O18 0.886281 0.000000 0.018127
#
# Coordination Sequence:
#
# PCOD9369788 Si02
#       8
#    16  16   8  16  16   8  16   4
#     4  10  23  45  67  99 139 178 220 284 341 397
#     4  11  22  38  59  90 125 169 218 267 327 392
#     4   9  15  30  57  87 115 157 203 240 297 382
#     4  11  23  41  61  93 128 168 216 268 330 393
#     4  10  24  44  69  92 127 174 223 276 334 395
#     4  11  21  37  60  90 126 166 205 259 316 387
#     4   9  18  36  63  87 124 169 209 254 325 387
#     4  12  24  42  70 108 134 174 230 272 338 424
#
# _framework density 21.151212999999998
#
# number of rings (size 3 to 8) (size 9 to 14) (size 15 to 20)
#    0.000    1.760    1.600    2.400    1.120    5.120 
#    4.320    2.400    0.000    0.000    0.000    0.000 
#    0.000    0.000    0.000    0.000    0.000    0.000 
#
# Total GULP energy -139299.043356 kJ/mol
# GULP energy per Si atom -5571.961734 kJ/mol
# Density = 2.110307 g / cm^3
# Si number density = 21.151213 Si / 1000 Ang^3
#
#
#
# Elastic Constant Matrix: (Units=GPa)
#
#
# Indices 1 2 3 4 5 6 
#
# 1 139.0148 -1.4838 59.2440 0.0000 0.0000 -0.0001
# 2 -1.4838 50.7024 3.5762 0.0001 0.0000 -0.0001
# 3 59.2440 3.5762 101.6872 0.0000 0.0000 0.0000
# 4 0.0000 0.0001 0.0000 8.1748 0.0000 0.0000
# 5 0.0000 0.0000 0.0000 0.0000 -1.6218 0.0000
# 6 -0.0001 -0.0001 0.0000 0.0000 0.0000 27.9998
#
#
#
# Elastic Compliance Matrix: (Units=1/GPa)
#
#
# Indices 1 2 3 4 5 6 
#
# 1 0.009593 0.000677 -0.005613 0.000000 0.000000 0.000000
# 2 0.000677 0.019820 -0.001091 0.000000 0.000000 0.000000
# 3 -0.005613 -0.001091 0.013142 0.000000 0.000000 0.000000
# 4 0.000000 0.000000 0.000000 0.122327 0.000000 0.000000
# 5 0.000000 0.000000 0.000000 0.000000 -0.616602 0.000000
# 6 0.000000 0.000000 0.000000 0.000000 0.000000 0.035714
#
#
# Mechanical properties :
#
#
# Convention : Reuss Voigt Hill
#
# Bulk Modulus (GPa) = 32.78652 46.00856 39.39754
# Shear Modulus (GPa) = -12.69730 22.24844 4.77557
#
# Velocity S-wave (km/s) = -2.45278 3.24678 1.50424
# Velocity P-wave (km/s) = 2.74101 5.98789 4.65661
#
# Compressibility (1/GPa) = 0.03050034
#
# Stress axis : x y z
#
# Youngs Moduli (GPa) = 104.24705 50.45488 76.08973
#
# Poissons Ratio (x) = -0.03414 0.42706
# Poissons Ratio (y) = -0.07053 0.08303
# Poissons Ratio (z) = 0.58509 0.05506
#
# Static dielectric constant tensor:
#      x y z
#    x 1.769790 0.000000 0.000000 
#    y 0.000000 1.806830 0.000000 
#    z 0.000000 0.000000 1.755450 
# 
# From -- ./inp_files/33099.got.cif
#   From: 2010.05.17/outbox.cif.g08.bks.cpg/sg42_17_cif.got.tgz:33099.got - 2010.06.03 19:03:34.
