data_PCOD9369348
_publ_section_title
;
Structure prediction by ZEFSAII (Michael W. Deem and Ramdas Pophale) SiO2 
 PCOD9369348
Probable space group: F M M 2
;
_chemical_formula_sum "Si O2"
_cell_formula_units_Z 112
_cell_length_a 22.923365
_cell_length_b 18.827613
_cell_length_c 11.233190
_cell_angle_alpha 90.000000
_cell_angle_beta 90.000000
_cell_angle_gamma 90.000000
_cell_volume 4848.157689
_symmetry_space_group_name_H-M "F M M 2"
_symmetry_group_IT_number 42
_symmetry_cell_setting 'orthorhombic'
loop_
_space_group_symop_operation_xyz
x,y,z
-x,-y,z
-x,y,z
x,-y,z
x,1/2+y,1/2+z
-x,1/2-y,1/2+z
-x,1/2+y,1/2+z
x,1/2-y,1/2+z
1/2+x,y,1/2+z
1/2-x,-y,1/2+z
1/2-x,y,1/2+z
1/2+x,-y,1/2+z
1/2+x,1/2+y,z
1/2-x,1/2-y,z
1/2-x,1/2+y,z
1/2+x,1/2-y,z
loop_
_atom_site_type_symbol
_atom_site_label
_atom_site_fract_x
_atom_site_fract_y
_atom_site_fract_z
Si Si1 0.428317 0.784394 0.819600
Si Si2 0.430141 0.420918 0.196921
Si Si3 0.897000 0.085595 0.934192
Si Si4 0.279050 0.582135 0.632274
Si Si5 0.738815 0.413739 0.884274
Si Si6 0.917094 0.418769 0.176321
Si Si7 0.066073 0.225311 0.573445
O O1 0.500000 0.779772 0.823875
O O2 0.411656 0.866316 0.797879
O O3 0.406528 0.747474 0.698923
O O4 0.406468 0.756559 0.946296
O O5 0.500000 0.425879 0.202976
O O6 0.404972 0.500000 0.209807
O O7 0.416452 0.391040 0.064949
O O8 0.828909 0.099839 0.915403
O O9 0.904384 0.000000 0.937084
O O10 0.930234 0.105880 0.812531
O O11 0.258151 0.500000 0.621766
O O12 0.271909 0.613838 0.500956
O O13 0.347170 0.579798 0.663524
O O14 0.248616 0.613757 0.750521
O O15 0.746152 0.500000 0.875756
O O16 0.936548 0.500000 0.158810
O O17 0.938057 0.360131 0.084420
O O18 0.000000 0.254201 0.574197
#
# Coordination Sequence:
#
# PCOD9369348 Si02
#       7
#    16  16  16  16  16  16  16
#     4   9  20  36  52  71  96 131 171 207 245 291
#     4   9  17  30  49  73 103 131 158 203 257 301
#     4   8  15  27  44  71 103 133 164 197 242 300
#     4   8  14  26  43  65  97 130 160 201 248 293
#     4   8  13  24  41  62  94 130 160 195 241 288
#     4   9  18  31  48  74 107 135 164 207 254 298
#     4  10  21  36  53  72  99 134 171 210 247 295
#
# _framework density 23.101559999999999
#
# number of rings (size 3 to 8) (size 9 to 14) (size 15 to 20)
#    0.000    3.286    0.000    1.714    2.000    1.429 
#    2.571    2.857    0.000    0.000    0.000    1.000 
#    0.000    0.000    0.000    0.000    0.000    0.000 
#
# Total GULP energy -156045.726406 kJ/mol
# GULP energy per Si atom -5573.061657 kJ/mol
# Density = 2.304898 g / cm^3
# Si number density = 23.101560 Si / 1000 Ang^3
#
#
#
# Elastic Constant Matrix: (Units=GPa)
#
#
# Indices 1 2 3 4 5 6 
#
# 1 22.6962 -7.0430 10.9515 0.0000 0.0000 0.0000
# 2 -7.0430 59.3868 34.6162 0.0000 0.0000 0.0000
# 3 10.9515 34.6162 172.8491 0.0000 0.0000 0.0000
# 4 0.0000 0.0000 0.0000 31.6171 0.0000 0.0000
# 5 0.0000 0.0000 0.0000 0.0000 14.1962 0.0000
# 6 0.0000 0.0000 0.0000 0.0000 0.0000 1.1212
#
#
#
# Elastic Compliance Matrix: (Units=1/GPa)
#
#
# Indices 1 2 3 4 5 6 
#
# 1 0.049078 0.008642 -0.004840 0.000000 0.000000 0.000000
# 2 0.008642 0.020586 -0.004670 0.000000 0.000000 0.000000
# 3 -0.004840 -0.004670 0.007027 0.000000 0.000000 0.000000
# 4 0.000000 0.000000 0.000000 0.031628 0.000000 0.000000
# 5 0.000000 0.000000 0.000000 0.000000 0.070441 0.000000
# 6 0.000000 0.000000 0.000000 0.000000 0.000000 0.891915
#
#
# Mechanical properties :
#
#
# Convention : Reuss Voigt Hill
#
# Bulk Modulus (GPa) = 13.34162 36.88681 25.11422
# Shear Modulus (GPa) = 4.55624 23.81405 14.18514
#
# Velocity S-wave (km/s) = 1.40590 3.21416 2.48066
# Velocity P-wave (km/s) = 2.90226 5.45677 4.37032
#
# Compressibility (1/GPa) = 0.07495342
#
# Stress axis : x y z
#
# Youngs Moduli (GPa) = 20.37593 48.57694 142.30093
#
# Poissons Ratio (x) = -0.41979 0.68876
# Poissons Ratio (y) = -0.17608 0.66458
# Poissons Ratio (z) = 0.09862 0.22687
#
# Static dielectric constant tensor:
#      x y z
#    x 1.840560 0.000000 0.000000 
#    y 0.000000 1.912070 0.000000 
#    z 0.000000 0.000000 1.932900 
# 
# From -- ./inp_files/10240.got.cif
#   From: 2010.05.17/outbox.cif.g08.bks.cpg/sg42_6_cif.got.tgz:10240.got - 2010.06.03 19:03:34.
