data_PCOD9369511
_publ_section_title
;
Structure prediction by ZEFSAII (Michael W. Deem and Ramdas Pophale) SiO2 
 PCOD9369511
Probable space group: F M M 2
;
_chemical_formula_sum "Si O2"
_cell_formula_units_Z 56
_cell_length_a 11.151990
_cell_length_b 22.149985
_cell_length_c 9.171875
_cell_angle_alpha 90.000000
_cell_angle_beta 90.000000
_cell_angle_gamma 90.000000
_cell_volume 2265.603647
_symmetry_space_group_name_H-M "F M M 2"
_symmetry_group_IT_number 42
_symmetry_cell_setting 'orthorhombic'
loop_
_space_group_symop_operation_xyz
x,y,z
-x,-y,z
-x,y,z
x,-y,z
x,1/2+y,1/2+z
-x,1/2-y,1/2+z
-x,1/2+y,1/2+z
x,1/2-y,1/2+z
1/2+x,y,1/2+z
1/2-x,-y,1/2+z
1/2-x,y,1/2+z
1/2+x,-y,1/2+z
1/2+x,1/2+y,z
1/2-x,1/2-y,z
1/2-x,1/2+y,z
1/2+x,1/2-y,z
loop_
_atom_site_type_symbol
_atom_site_label
_atom_site_fract_x
_atom_site_fract_y
_atom_site_fract_z
Si Si1 0.750000 0.750000 0.720240
Si Si2 0.859784 0.169299 0.974019
Si Si3 0.500000 0.927246 0.857239
Si Si4 0.735203 0.072142 0.672805
Si Si5 0.500000 0.572582 0.685160
O O1 0.813943 0.796314 0.830377
O O2 0.839848 0.715837 0.610368
O O3 0.000000 0.154470 0.961728
O O4 0.783817 0.111684 0.028715
O O5 0.380118 0.912244 0.769853
O O6 0.500000 0.000000 0.871423
O O7 0.500000 0.902335 0.019917
O O8 0.866102 0.086022 0.739669
O O9 0.731192 0.000000 0.641313
O O10 0.500000 0.500000 0.684441
#
# Coordination Sequence:
#
# PCOD9369511 Si02
#       5
#     8  16   8  16   8
#     4  10  26  46  64  96 126 178 224 268 324 384
#     4  11  23  45  70  95 131 171 221 275 324 389
#     4   9  18  36  59  86 126 167 205 253 318 388
#     4  10  21  38  65  99 130 167 212 265 332 394
#     4   9  20  38  57  88 134 173 205 249 320 400
#
# _framework density 24.717472999999998
#
# number of rings (size 3 to 8) (size 9 to 14) (size 15 to 20)
#    0.000    2.000    1.429    0.857    4.000    0.000 
#   12.857    1.429    0.000    8.571    0.000    0.000 
#    0.000    0.000    0.000    0.000    0.000    0.000 
#
# Total GULP energy -78332.960345 kJ/mol
# GULP energy per Si atom -5595.211453 kJ/mol
# Density = 2.466122 g / cm^3
# Si number density = 24.717473 Si / 1000 Ang^3
#
#
#
# Elastic Constant Matrix: (Units=GPa)
#
#
# Indices 1 2 3 4 5 6 
#
# 1 231.5748 33.4827 44.0253 0.0000 0.0000 0.0000
# 2 33.4827 111.7060 24.3107 0.0000 0.0000 0.0000
# 3 44.0253 24.3107 105.9446 0.0000 0.0000 0.0000
# 4 0.0000 0.0000 0.0000 18.0819 0.0000 0.0000
# 5 0.0000 0.0000 0.0000 0.0000 44.3982 0.0000
# 6 0.0000 0.0000 0.0000 0.0000 0.0000 41.3965
#
#
#
# Elastic Compliance Matrix: (Units=1/GPa)
#
#
# Indices 1 2 3 4 5 6 
#
# 1 0.004805 -0.001058 -0.001754 0.000000 0.000000 0.000000
# 2 -0.001058 0.009656 -0.001776 0.000000 0.000000 0.000000
# 3 -0.001754 -0.001776 0.010575 0.000000 0.000000 0.000000
# 4 0.000000 0.000000 0.000000 0.055304 0.000000 0.000000
# 5 0.000000 0.000000 0.000000 0.000000 0.022523 0.000000
# 6 0.000000 0.000000 0.000000 0.000000 0.000000 0.024157
#
#
# Mechanical properties :
#
#
# Convention : Reuss Voigt Hill
#
# Bulk Modulus (GPa) = 63.05328 72.54031 67.79680
# Shear Modulus (GPa) = 35.34016 43.93578 39.63797
#
# Velocity S-wave (km/s) = 3.78532 4.22064 4.00889
# Velocity P-wave (km/s) = 6.68355 7.29131 6.99404
#
# Compressibility (1/GPa) = 0.01585960
#
# Stress axis : x y z
#
# Youngs Moduli (GPa) = 208.12926 103.56451 94.56142
#
# Poissons Ratio (x) = 0.10962 0.16583
# Poissons Ratio (y) = 0.22030 0.16792
# Poissons Ratio (z) = 0.36500 0.18391
#
# Static dielectric constant tensor:
#      x y z
#    x 1.916970 0.000000 0.000000 
#    y 0.000000 1.955000 0.000000 
#    z 0.000000 0.000000 2.027840 
# 
# From -- ./inp_files/2139.got.cif
#   From: 2010.05.17/outbox.cif.g08.bks.cpg/sg42_2_cif.got.tgz:2139.got - 2010.06.03 19:03:34.
