data_PCOD9369225
_publ_section_title
;
Structure prediction by ZEFSAII (Michael W. Deem and Ramdas Pophale) SiO2 
 PCOD9369225
Probable space group: F M M 2
;
_chemical_formula_sum "Si O2"
_cell_formula_units_Z 64
_cell_length_a 28.404539
_cell_length_b 8.060215
_cell_length_c 14.104646
_cell_angle_alpha 90.000000
_cell_angle_beta 90.000000
_cell_angle_gamma 90.000000
_cell_volume 3229.212034
_symmetry_space_group_name_H-M "F M M 2"
_symmetry_group_IT_number 42
_symmetry_cell_setting 'orthorhombic'
loop_
_space_group_symop_operation_xyz
x,y,z
-x,-y,z
-x,y,z
x,-y,z
x,1/2+y,1/2+z
-x,1/2-y,1/2+z
-x,1/2+y,1/2+z
x,1/2-y,1/2+z
1/2+x,y,1/2+z
1/2-x,-y,1/2+z
1/2-x,y,1/2+z
1/2+x,-y,1/2+z
1/2+x,1/2+y,z
1/2-x,1/2-y,z
1/2-x,1/2+y,z
1/2+x,1/2-y,z
loop_
_atom_site_type_symbol
_atom_site_label
_atom_site_fract_x
_atom_site_fract_y
_atom_site_fract_z
Si Si1 0.383534 0.312382 0.929840
Si Si2 0.553837 0.500000 0.659643
Si Si3 0.446360 0.500000 0.427937
Si Si4 0.303447 0.693878 0.782960
Si Si5 0.384283 0.683955 0.156678
O O1 0.399891 0.500000 0.906011
O O2 0.333479 0.286440 0.879312
O O3 0.418438 0.165781 0.899551
O O4 0.379044 0.303994 0.043264
O O5 0.500000 0.500000 0.693097
O O6 0.552628 0.500000 0.543859
O O7 0.582254 0.665063 0.688035
O O8 0.500000 0.500000 0.394372
O O9 0.304461 0.500000 0.757140
O O10 0.250000 0.750000 0.791768
O O11 0.333860 0.791893 0.705511
O O12 0.403076 0.500000 0.178697
#
# Coordination Sequence:
#
# PCOD9369225 Si02
#       5
#    16   8   8  16  16
#     4   9  21  38  58  84 118 150 188 236 281 334
#     4   9  18  36  59  86 115 151 192 235 284 334
#     4   9  18  34  61  86 111 151 192 231 284 334
#     4  11  23  39  59  85 116 152 190 238 287 340
#     4  10  20  38  60  85 117 152 190 236 282 337
#
# _framework density 19.819075999999999
#
# number of rings (size 3 to 8) (size 9 to 14) (size 15 to 20)
#    0.000    2.250    1.250    0.750    3.500    2.000 
#    0.000    8.750    0.000    0.000    0.000    0.000 
#    0.000    0.000    0.000    0.000    0.000    0.000 
#
# Total GULP energy -89357.753632 kJ/mol
# GULP energy per Si atom -5584.859602 kJ/mol
# Density = 1.977397 g / cm^3
# Si number density = 19.819076 Si / 1000 Ang^3
#
#
#
# Elastic Constant Matrix: (Units=GPa)
#
#
# Indices 1 2 3 4 5 6 
#
# 1 163.9595 108.5882 23.7251 0.0000 0.0000 0.0000
# 2 108.5882 184.0212 49.7947 0.0000 0.0000 0.0000
# 3 23.7251 49.7947 56.3136 0.0000 0.0000 0.0000
# 4 0.0000 0.0000 0.0000 23.9474 0.0000 0.0000
# 5 0.0000 0.0000 0.0000 0.0000 28.2049 0.0000
# 6 0.0000 0.0000 0.0000 0.0000 0.0000 5.7991
#
#
#
# Elastic Compliance Matrix: (Units=1/GPa)
#
#
# Indices 1 2 3 4 5 6 
#
# 1 0.010087 -0.006313 0.001332 0.000000 0.000000 0.000000
# 2 -0.006313 0.011094 -0.007150 0.000000 0.000000 0.000000
# 3 0.001332 -0.007150 0.023519 0.000000 0.000000 0.000000
# 4 0.000000 0.000000 0.000000 0.041758 0.000000 0.000000
# 5 0.000000 0.000000 0.000000 0.000000 0.035455 0.000000
# 6 0.000000 0.000000 0.000000 0.000000 0.000000 0.172442
#
#
# Mechanical properties :
#
#
# Convention : Reuss Voigt Hill
#
# Bulk Modulus (GPa) = 48.92692 85.39002 67.15847
# Shear Modulus (GPa) = 15.36433 26.40269 20.88351
#
# Velocity S-wave (km/s) = 2.78731 3.65387 3.24961
# Velocity P-wave (km/s) = 5.92446 7.80893 6.93104
#
# Compressibility (1/GPa) = 0.02043865
#
# Stress axis : x y z
#
# Youngs Moduli (GPa) = 99.13594 90.13876 42.51911
#
# Poissons Ratio (x) = 0.56903 -0.05665
# Poissons Ratio (y) = 0.62582 0.30402
# Poissons Ratio (z) = -0.13207 0.64451
#
# Static dielectric constant tensor:
#      x y z
#    x 1.638580 0.000000 0.000000 
#    y 0.000000 1.713130 0.000000 
#    z 0.000000 0.000000 1.718120 
# 
# From -- ./inp_files/11879.got.cif
#   From: 2010.05.17/outbox.cif.g08.bks.cpg/sg42_6_cif.got.tgz:11879.got - 2010.06.03 19:03:34.
