data_PCOD9369743
_publ_section_title
;
Structure prediction by ZEFSAII (Michael W. Deem and Ramdas Pophale) SiO2 
 PCOD9369743
Probable space group: F M M 2
;
_chemical_formula_sum "Si O2"
_cell_formula_units_Z 116
_cell_length_a 23.186274
_cell_length_b 26.705236
_cell_length_c 8.463345
_cell_angle_alpha 90.000000
_cell_angle_beta 90.000000
_cell_angle_gamma 90.000000
_cell_volume 5240.460223
_symmetry_space_group_name_H-M "F M M 2"
_symmetry_group_IT_number 42
_symmetry_cell_setting 'orthorhombic'
loop_
_space_group_symop_operation_xyz
x,y,z
-x,-y,z
-x,y,z
x,-y,z
x,1/2+y,1/2+z
-x,1/2-y,1/2+z
-x,1/2+y,1/2+z
x,1/2-y,1/2+z
1/2+x,y,1/2+z
1/2-x,-y,1/2+z
1/2-x,y,1/2+z
1/2+x,-y,1/2+z
1/2+x,1/2+y,z
1/2-x,1/2-y,z
1/2-x,1/2+y,z
1/2+x,1/2-y,z
loop_
_atom_site_type_symbol
_atom_site_label
_atom_site_fract_x
_atom_site_fract_y
_atom_site_fract_z
Si Si1 0.437900 0.939439 0.317260
Si Si2 0.000000 0.500000 0.857493
Si Si3 0.211586 0.202080 0.007714
Si Si4 0.635515 0.235852 0.234226
Si Si5 0.935058 0.303409 0.950786
Si Si6 0.316893 0.557485 0.881137
Si Si7 0.282290 0.399395 0.555479
Si Si8 0.410202 0.085851 0.952686
O O1 0.500000 0.921605 0.375881
O O2 0.382429 0.927912 0.423004
O O3 0.440861 0.000000 0.304125
O O4 0.427410 0.919839 0.139511
O O5 0.948331 0.543489 0.869006
O O6 0.250000 0.250000 0.971031
O O7 0.167886 0.200945 0.860434
O O8 0.176065 0.219948 0.162639
O O9 0.253336 0.154910 0.028685
O O10 0.583089 0.263402 0.320411
O O11 0.611327 0.203850 0.089995
O O12 0.928852 0.359915 0.892380
O O13 0.000000 0.295174 0.006829
O O14 0.318396 0.500000 0.825336
O O15 0.298164 0.592074 0.736536
O O16 0.269960 0.563522 0.014659
O O17 0.339929 0.413522 0.455926
#
# Coordination Sequence:
#
# PCOD9369743 Si02
#       8
#    16   4  16  16  16  16  16  16
#     4   9  15  31  55  84 114 152 202 261 307 364
#     4  12  20  40  60  96 124 162 222 272 324 376
#     4  11  24  40  63  91 134 172 222 266 336 407
#     4  10  24  41  64  92 136 178 217 280 333 404
#     4  11  22  41  65  97 129 173 224 276 338 395
#     4  10  23  38  59  90 127 165 207 267 330 390
#     4  11  25  38  62  95 128 168 213 267 334 395
#     4  11  21  34  61  88 125 159 214 268 320 381
#
# _framework density 22.135459999999998
#
# number of rings (size 3 to 8) (size 9 to 14) (size 15 to 20)
#    0.000    1.517    2.069    2.897   11.586    0.000 
#    0.000    0.000    0.000    0.828    1.793    0.000 
#    0.000    4.414    0.000    0.000    0.000    0.000 
#
# Total GULP energy -161704.061671 kJ/mol
# GULP energy per Si atom -5576.002127 kJ/mol
# Density = 2.208508 g / cm^3
# Si number density = 22.135460 Si / 1000 Ang^3
#
#
#
# Elastic Constant Matrix: (Units=GPa)
#
#
# Indices 1 2 3 4 5 6 
#
# 1 176.5425 41.5798 13.8981 -0.0124 0.0016 0.0004
# 2 41.5798 123.3098 6.9396 -0.0068 0.0010 0.0003
# 3 13.8981 6.9396 21.8671 -0.0153 0.0052 0.0013
# 4 -0.0124 -0.0068 -0.0153 4.7818 0.0029 -0.0009
# 5 0.0016 0.0010 0.0052 0.0029 17.4845 -0.0006
# 6 0.0004 0.0003 0.0013 -0.0009 -0.0006 38.3094
#
#
#
# Elastic Compliance Matrix: (Units=1/GPa)
#
#
# Indices 1 2 3 4 5 6 
#
# 1 0.006398 -0.001964 -0.003443 0.000003 0.000001 0.000000
# 2 -0.001964 0.008860 -0.001564 0.000002 0.000000 0.000000
# 3 -0.003443 -0.001564 0.048416 0.000144 -0.000014 -0.000002
# 4 0.000003 0.000002 0.000144 0.209128 -0.000034 0.000005
# 5 0.000001 0.000000 -0.000014 -0.000034 0.057193 0.000001
# 6 0.000000 0.000000 -0.000002 0.000005 0.000001 0.026103
#
#
# Mechanical properties :
#
#
# Convention : Reuss Voigt Hill
#
# Bulk Modulus (GPa) = 20.10761 49.61715 34.86238
# Shear Modulus (GPa) = 12.93272 29.40192 21.16732
#
# Velocity S-wave (km/s) = 2.41976 3.64850 3.09570
# Velocity P-wave (km/s) = 4.11225 6.34134 5.34431
#
# Compressibility (1/GPa) = 0.04973242
#
# Stress axis : x y z
#
# Youngs Moduli (GPa) = 156.30158 112.86976 20.65449
#
# Poissons Ratio (x) = 0.22163 0.07112
# Poissons Ratio (y) = 0.30691 0.03230
# Poissons Ratio (z) = 0.53817 0.17649
#
# Static dielectric constant tensor:
#      x y z
#    x 1.857420 0.000000 0.000000 
#    y 0.000000 1.823190 0.000000 
#    z 0.000000 0.000000 1.808880 
# 
# From -- ./inp_files/4867.got.cif
#   From: 2010.05.17/outbox.cif.g08.bks.cpg/sg42_3_cif.got.tgz:4867.got - 2010.06.03 19:03:34.
