data_PCOD9369615
_publ_section_title
;
Structure prediction by ZEFSAII (Michael W. Deem and Ramdas Pophale) SiO2 
 PCOD9369615
Probable space group: F M M 2
;
_chemical_formula_sum "Si O2"
_cell_formula_units_Z 104
_cell_length_a 14.855915
_cell_length_b 20.780198
_cell_length_c 17.280123
_cell_angle_alpha 90.000000
_cell_angle_beta 90.000000
_cell_angle_gamma 90.000000
_cell_volume 5334.526989
_symmetry_space_group_name_H-M "F M M 2"
_symmetry_group_IT_number 42
_symmetry_cell_setting 'orthorhombic'
loop_
_space_group_symop_operation_xyz
x,y,z
-x,-y,z
-x,y,z
x,-y,z
x,1/2+y,1/2+z
-x,1/2-y,1/2+z
-x,1/2+y,1/2+z
x,1/2-y,1/2+z
1/2+x,y,1/2+z
1/2-x,-y,1/2+z
1/2-x,y,1/2+z
1/2+x,-y,1/2+z
1/2+x,1/2+y,z
1/2-x,1/2-y,z
1/2-x,1/2+y,z
1/2+x,1/2-y,z
loop_
_atom_site_type_symbol
_atom_site_label
_atom_site_fract_x
_atom_site_fract_y
_atom_site_fract_z
Si Si1 0.397732 0.359859 0.537660
Si Si2 0.396107 0.500000 0.463283
Si Si3 0.853872 0.770033 0.391470
Si Si4 0.769291 0.325279 0.177699
Si Si5 0.192749 0.500000 0.807089
Si Si6 0.902028 0.642896 0.318464
Si Si7 0.894989 0.868818 0.251323
Si Si8 0.896777 0.000000 0.813837
O O1 0.500000 0.350447 0.565337
O O2 0.388959 0.433953 0.510795
O O3 0.382050 0.312532 0.464745
O O4 0.327611 0.344257 0.604379
O O5 0.500000 0.500000 0.429940
O O6 0.316989 0.500000 0.399955
O O7 0.750000 0.750000 0.396200
O O8 0.899200 0.700684 0.379271
O O9 0.874969 0.814087 0.316278
O O10 0.750000 0.250000 0.180082
O O11 0.824678 0.345773 0.254779
O O12 0.670720 0.356103 0.179845
O O13 0.138391 0.563083 0.783052
O O14 0.295924 0.500000 0.775474
O O15 0.893830 0.570725 0.352618
O O16 0.000000 0.646451 0.278994
O O17 0.000000 0.868188 0.234192
O O18 0.000000 0.000000 0.776772
#
# Coordination Sequence:
#
# PCOD9369615 Si02
#       8
#    16   8  16  16   8  16  16   8
#     4  11  25  42  65  97 131 174 222 271 333 399
#     4  10  22  40  65  95 131 173 217 274 330 382
#     4  12  21  40  64  94 131 170 216 267 327 388
#     4  12  24  42  61  94 131 170 216 271 336 392
#     4  12  20  39  65 102 135 163 216 273 325 384
#     4  11  21  38  64  93 129 170 212 266 324 391
#     4  12  23  38  67  98 128 170 219 270 325 388
#     4  10  22  37  60  97 132 166 209 255 325 394
#
# _framework density 19.495636999999999
#
# number of rings (size 3 to 8) (size 9 to 14) (size 15 to 20)
#    0.000    0.615    6.154    3.000    0.000    1.846 
#    0.000    2.308    0.000    0.923    0.000    0.000 
#    0.000    0.000    0.000    0.000    0.000    0.000 
#
# Total GULP energy -144987.325975 kJ/mol
# GULP energy per Si atom -5576.435614 kJ/mol
# Density = 1.945126 g / cm^3
# Si number density = 19.495637 Si / 1000 Ang^3
#
#
#
# Elastic Constant Matrix: (Units=GPa)
#
#
# Indices 1 2 3 4 5 6 
#
# 1 184.2242 51.4863 42.6580 0.0000 0.0000 0.0000
# 2 51.4863 185.4456 39.2555 0.0000 0.0000 0.0000
# 3 42.6580 39.2555 67.2825 0.0000 0.0000 0.0000
# 4 0.0000 0.0000 0.0000 -8.7956 0.0000 0.0000
# 5 0.0000 0.0000 0.0000 0.0000 23.5933 0.0000
# 6 0.0000 0.0000 0.0000 0.0000 0.0000 1.3173
#
#
#
# Elastic Compliance Matrix: (Units=1/GPa)
#
#
# Indices 1 2 3 4 5 6 
#
# 1 0.006543 -0.001071 -0.003524 0.000000 0.000000 0.000000
# 2 -0.001071 0.006327 -0.003013 0.000000 0.000000 0.000000
# 3 -0.003524 -0.003013 0.018855 0.000000 0.000000 0.000000
# 4 0.000000 0.000000 0.000000 -0.113694 0.000000 0.000000
# 5 0.000000 0.000000 0.000000 0.000000 0.042385 0.000000
# 6 0.000000 0.000000 0.000000 0.000000 0.000000 0.759145
#
#
# Mechanical properties :
#
#
# Convention : Reuss Voigt Hill
#
# Bulk Modulus (GPa) = 60.56702 78.19464 69.38083
# Shear Modulus (GPa) = 6.75420 23.45982 15.10701
#
# Velocity S-wave (km/s) = 1.86333 3.47268 2.78671
# Velocity P-wave (km/s) = 5.98028 7.50168 6.78376
#
# Compressibility (1/GPa) = 0.01651064
#
# Stress axis : x y z
#
# Youngs Moduli (GPa) = 152.82603 158.04135 53.03707
#
# Poissons Ratio (x) = 0.16922 0.18690
# Poissons Ratio (y) = 0.16364 0.15979
# Poissons Ratio (z) = 0.53854 0.47616
#
# Static dielectric constant tensor:
#      x y z
#    x 1.753710 0.000000 0.000000 
#    y 0.000000 1.742250 0.000000 
#    z 0.000000 0.000000 1.663880 
# 
# From -- ./inp_files/20144.got.cif
#   From: 2010.05.17/outbox.cif.g08.bks.cpg/sg42_11_cif.got.tgz:20144.got - 2010.06.03 19:03:34.
