data_PCOD9369711
_publ_section_title
;
Structure prediction by ZEFSAII (Michael W. Deem and Ramdas Pophale) SiO2 
 PCOD9369711
Probable space group: F M M 2
;
_chemical_formula_sum "Si O2"
_cell_formula_units_Z 84
_cell_length_a 19.932279
_cell_length_b 24.914854
_cell_length_c 8.171766
_cell_angle_alpha 90.000000
_cell_angle_beta 90.000000
_cell_angle_gamma 90.000000
_cell_volume 4058.179252
_symmetry_space_group_name_H-M "F M M 2"
_symmetry_group_IT_number 42
_symmetry_cell_setting 'orthorhombic'
loop_
_space_group_symop_operation_xyz
x,y,z
-x,-y,z
-x,y,z
x,-y,z
x,1/2+y,1/2+z
-x,1/2-y,1/2+z
-x,1/2+y,1/2+z
x,1/2-y,1/2+z
1/2+x,y,1/2+z
1/2-x,-y,1/2+z
1/2-x,y,1/2+z
1/2+x,-y,1/2+z
1/2+x,1/2+y,z
1/2-x,1/2-y,z
1/2-x,1/2+y,z
1/2+x,1/2-y,z
loop_
_atom_site_type_symbol
_atom_site_label
_atom_site_fract_x
_atom_site_fract_y
_atom_site_fract_z
Si Si1 0.000000 0.000000 0.114990
Si Si2 0.421811 0.401718 0.602916
Si Si3 0.826016 0.808898 0.716255
Si Si4 0.886864 0.080892 0.230467
Si Si5 0.714942 0.500000 0.107333
Si Si6 0.647207 0.500000 0.754151
Si Si7 0.327214 0.812337 0.606494
O O1 0.058834 0.046962 0.129021
O O2 0.500000 0.390437 0.624617
O O3 0.376426 0.349979 0.632167
O O4 0.409379 0.422627 0.418712
O O5 0.397929 0.447871 0.727136
O O6 0.749937 0.821569 0.661077
O O7 0.842425 0.747848 0.666508
O O8 0.830055 0.814483 0.911023
O O9 0.816021 0.051564 0.198365
O O10 0.875649 0.142395 0.179935
O O11 0.794511 0.500000 0.117484
O O12 0.686641 0.500000 0.924122
#
# Coordination Sequence:
#
# PCOD9369711 Si02
#       7
#     4  16  16  16   8   8  16
#     4  10  22  42  64  92 126 172 222 264 320 402
#     4  12  25  43  64  94 136 180 217 269 328 412
#     4  11  23  43  69 105 135 169 228 270 346 390
#     4  11  22  43  67  95 128 173 224 266 339 383
#     4  11  24  41  68  99 123 166 224 289 324 398
#     4  12  24  43  65  95 132 168 224 275 342 382
#     4  11  22  43  73 100 133 175 216 293 327 397
#
# _framework density 20.698937999999998
#
# number of rings (size 3 to 8) (size 9 to 14) (size 15 to 20)
#    0.000    0.762    0.952    9.429    0.000    0.000 
#   17.143    0.000    0.000    0.000    0.000    0.000 
#    0.000    0.000    0.000    0.000    0.000    0.000 
#
# Total GULP energy -117302.209704 kJ/mol
# GULP energy per Si atom -5585.819510 kJ/mol
# Density = 2.065183 g / cm^3
# Si number density = 20.698938 Si / 1000 Ang^3
#
#
#
# Elastic Constant Matrix: (Units=GPa)
#
#
# Indices 1 2 3 4 5 6 
#
# 1 90.3236 63.3431 1.0403 -0.0002 0.0003 0.0004
# 2 63.3431 131.5685 -3.5012 -0.0001 0.0001 0.0001
# 3 1.0403 -3.5012 80.0440 -0.0002 0.0006 0.0009
# 4 -0.0002 -0.0001 -0.0002 25.2291 0.0002 0.0004
# 5 0.0003 0.0001 0.0006 0.0002 12.3133 -0.0005
# 6 0.0004 0.0001 0.0009 0.0004 -0.0005 17.7612
#
#
#
# Elastic Compliance Matrix: (Units=1/GPa)
#
#
# Indices 1 2 3 4 5 6 
#
# 1 0.016741 -0.008075 -0.000571 0.000000 0.000000 0.000000
# 2 -0.008075 0.011504 0.000608 0.000000 0.000000 0.000000
# 3 -0.000571 0.000608 0.012527 0.000000 -0.000001 -0.000001
# 4 0.000000 0.000000 0.000000 0.039637 -0.000001 -0.000001
# 5 0.000000 0.000000 -0.000001 -0.000001 0.081213 0.000002
# 6 0.000000 0.000000 -0.000001 -0.000001 0.000002 0.056303
#
#
# Mechanical properties :
#
#
# Convention : Reuss Voigt Hill
#
# Bulk Modulus (GPa) = 40.49042 47.07783 43.78413
# Shear Modulus (GPa) = 20.64135 27.13098 23.88617
#
# Velocity S-wave (km/s) = 3.16130 3.62435 3.40071
# Velocity P-wave (km/s) = 5.73839 6.34886 6.05133
#
# Compressibility (1/GPa) = 0.02469720
#
# Stress axis : x y z
#
# Youngs Moduli (GPa) = 59.73442 86.92297 79.82663
#
# Poissons Ratio (x) = 0.70190 0.04556
# Poissons Ratio (y) = 0.48235 -0.04855
# Poissons Ratio (z) = 0.03410 -0.05286
#
# Static dielectric constant tensor:
#      x y z
#    x 1.700730 0.000000 0.000000 
#    y 0.000000 1.719710 0.000000 
#    z 0.000000 0.000000 1.766960 
# 
# From -- ./inp_files/4006.got.cif
#   From: 2010.05.17/outbox.cif.g08.bks.cpg/sg42_3_cif.got.tgz:4006.got - 2010.06.03 19:03:34.
