data_PCOD9369657
_publ_section_title
;
Structure prediction by ZEFSAII (Michael W. Deem and Ramdas Pophale) SiO2 
 PCOD9369657
Probable space group: F M M 2
;
_chemical_formula_sum "Si O2"
_cell_formula_units_Z 88
_cell_length_a 31.380168
_cell_length_b 13.479549
_cell_length_c 11.158665
_cell_angle_alpha 90.000000
_cell_angle_beta 90.000000
_cell_angle_gamma 90.000000
_cell_volume 4720.009424
_symmetry_space_group_name_H-M "F M M 2"
_symmetry_group_IT_number 42
_symmetry_cell_setting 'orthorhombic'
loop_
_space_group_symop_operation_xyz
x,y,z
-x,-y,z
-x,y,z
x,-y,z
x,1/2+y,1/2+z
-x,1/2-y,1/2+z
-x,1/2+y,1/2+z
x,1/2-y,1/2+z
1/2+x,y,1/2+z
1/2-x,-y,1/2+z
1/2-x,y,1/2+z
1/2+x,-y,1/2+z
1/2+x,1/2+y,z
1/2-x,1/2-y,z
1/2-x,1/2+y,z
1/2+x,1/2-y,z
loop_
_atom_site_type_symbol
_atom_site_label
_atom_site_fract_x
_atom_site_fract_y
_atom_site_fract_z
Si Si1 0.336482 0.294323 0.556510
Si Si2 0.500000 0.885088 0.507469
Si Si3 0.799043 0.715388 0.803201
Si Si4 0.730902 0.000000 0.823672
Si Si5 0.213260 0.500000 0.083307
Si Si6 0.500000 0.677044 0.742879
Si Si7 0.562505 0.704848 0.546681
Si Si8 0.000000 0.885753 0.360816
O O1 0.317734 0.249395 0.431723
O O2 0.323250 0.244048 0.681949
O O3 0.315680 0.403001 0.569684
O O4 0.387225 0.295093 0.544950
O O5 0.500000 0.882765 0.363768
O O6 0.541132 0.815151 0.537578
O O7 0.500000 0.000000 0.548687
O O8 0.750000 0.750000 0.793953
O O9 0.797180 0.597176 0.808066
O O10 0.764740 0.000000 0.714359
O O11 0.744595 0.000000 0.965354
O O12 0.542093 0.658127 0.665868
O O13 0.500000 0.795931 0.767460
O O14 0.541373 0.640111 0.441008
O O15 0.000000 0.000000 0.323381
#
# Coordination Sequence:
#
# PCOD9369657 Si02
#       8
#    16   8  16   8   8   8  16   8
#     4  11  24  39  64  92 125 156 205 253 308 349
#     4   9  19  39  62  80 118 161 193 240 300 359
#     4  11  23  41  63  88 120 167 198 254 301 365
#     4  10  22  40  60  84 120 157 211 241 311 360
#     4  10  22  40  64  89 120 161 201 262 291 376
#     4   8  18  36  58  80 114 152 190 242 294 356
#     4   9  21  38  56  86 122 150 194 245 296 360
#     4   9  19  35  60  84 112 155 193 234 296 363
#
# _framework density 18.644030999999998
#
# number of rings (size 3 to 8) (size 9 to 14) (size 15 to 20)
#    0.000    2.545    1.818    0.545    8.909    2.909 
#    1.636    0.000    0.000    0.000    0.000    0.000 
#    0.000    0.000    0.000    0.000    0.000    0.000 
#
# Total GULP energy -122484.875718 kJ/mol
# GULP energy per Si atom -5567.494351 kJ/mol
# Density = 1.860160 g / cm^3
# Si number density = 18.644031 Si / 1000 Ang^3
#
#
#
# Elastic Constant Matrix: (Units=GPa)
#
#
# Indices 1 2 3 4 5 6 
#
# 1 124.4889 -6.7204 60.6132 0.0000 0.0000 0.0000
# 2 -6.7204 79.6071 15.6369 0.0000 0.0000 0.0000
# 3 60.6132 15.6369 129.3196 0.0000 0.0000 0.0000
# 4 0.0000 0.0000 0.0000 13.9563 0.0000 0.0000
# 5 0.0000 0.0000 0.0000 0.0000 -17.8101 0.0000
# 6 0.0000 0.0000 0.0000 0.0000 0.0000 8.1333
#
#
#
# Elastic Compliance Matrix: (Units=1/GPa)
#
#
# Indices 1 2 3 4 5 6 
#
# 1 0.010691 0.001933 -0.005245 0.000000 0.000000 0.000000
# 2 0.001933 0.013217 -0.002504 0.000000 0.000000 0.000000
# 3 -0.005245 -0.002504 0.010494 0.000000 0.000000 0.000000
# 4 0.000000 0.000000 0.000000 0.071652 0.000000 0.000000
# 5 0.000000 0.000000 0.000000 0.000000 -0.056148 0.000000
# 6 0.000000 0.000000 0.000000 0.000000 0.000000 0.122951
#
#
# Mechanical properties :
#
#
# Convention : Reuss Voigt Hill
#
# Bulk Modulus (GPa) = 43.91849 52.49722 48.20785
# Shear Modulus (GPa) = 26.03114 18.44830 22.23972
#
# Velocity S-wave (km/s) = 3.74065 3.14905 3.45753
# Velocity P-wave (km/s) = 6.50109 6.43745 6.46935
#
# Compressibility (1/GPa) = 0.02276945
#
# Stress axis : x y z
#
# Youngs Moduli (GPa) = 93.53909 75.66186 95.29517
#
# Poissons Ratio (x) = -0.14623 0.49978
# Poissons Ratio (y) = -0.18078 0.23862
# Poissons Ratio (z) = 0.49057 0.18946
#
# Static dielectric constant tensor:
#      x y z
#    x 1.596260 0.000000 0.000000 
#    y 0.000000 1.578290 0.000000 
#    z 0.000000 0.000000 1.719850 
# 
# From -- ./inp_files/8049.got.cif
#   From: 2010.05.17/outbox.cif.g08.bks.cpg/sg42_5_cif.got.tgz:8049.got - 2010.06.03 19:03:34.
