data_PCOD9369292
_publ_section_title
;
Structure prediction by ZEFSAII (Michael W. Deem and Ramdas Pophale) SiO2 
 PCOD9369292
Probable space group: F M M 2
;
_chemical_formula_sum "Si O2"
_cell_formula_units_Z 72
_cell_length_a 17.064290
_cell_length_b 22.515162
_cell_length_c 8.569093
_cell_angle_alpha 90.000000
_cell_angle_beta 90.000000
_cell_angle_gamma 90.000000
_cell_volume 3292.290551
_symmetry_space_group_name_H-M "F M M 2"
_symmetry_group_IT_number 42
_symmetry_cell_setting 'orthorhombic'
loop_
_space_group_symop_operation_xyz
x,y,z
-x,-y,z
-x,y,z
x,-y,z
x,1/2+y,1/2+z
-x,1/2-y,1/2+z
-x,1/2+y,1/2+z
x,1/2-y,1/2+z
1/2+x,y,1/2+z
1/2-x,-y,1/2+z
1/2-x,y,1/2+z
1/2+x,-y,1/2+z
1/2+x,1/2+y,z
1/2-x,1/2-y,z
1/2-x,1/2+y,z
1/2+x,1/2-y,z
loop_
_atom_site_type_symbol
_atom_site_label
_atom_site_fract_x
_atom_site_fract_y
_atom_site_fract_z
Si Si1 0.500000 0.908359 0.755510
Si Si2 0.000000 0.778883 0.328872
Si Si3 0.671416 0.433128 0.238586
Si Si4 0.500000 0.370356 0.596511
Si Si5 0.365542 0.313175 0.756378
Si Si6 0.737488 0.853651 0.998425
O O1 0.500000 0.837747 0.723722
O O2 0.580509 0.933555 0.691999
O O3 0.500000 0.914240 0.947548
O O4 0.077256 0.740561 0.298203
O O5 0.000000 0.806714 0.502904
O O6 0.695762 0.500000 0.279566
O O7 0.678712 0.386679 0.380760
O O8 0.726055 0.404570 0.107839
O O9 0.423486 0.367463 0.705386
O O10 0.309291 0.307608 0.606106
O O11 0.308054 0.326749 0.898697
#
# Coordination Sequence:
#
# PCOD9369292 Si02
#       6
#     8   8  16   8  16  16
#     4  10  21  41  60  89 116 159 209 247 296 366
#     4   9  21  39  62  85 119 167 200 244 294 371
#     4  11  22  41  63  88 122 162 206 258 307 358
#     4   9  19  40  60  84 120 162 205 237 298 355
#     4  10  20  40  63  90 128 161 198 251 305 373
#     4  10  22  38  63  95 124 158 202 253 312 367
#
# _framework density 21.869271999999999
#
# number of rings (size 3 to 8) (size 9 to 14) (size 15 to 20)
#    0.667    1.333    2.222    1.000    0.000    5.333 
#    0.000   18.889    0.000    0.000    0.000    0.000 
#    0.000    0.000    0.000    0.000    0.000    0.000 
#
# Total GULP energy -100514.300724 kJ/mol
# GULP energy per Si atom -5584.127818 kJ/mol
# Density = 2.181950 g / cm^3
# Si number density = 21.869272 Si / 1000 Ang^3
#
#
#
# Elastic Constant Matrix: (Units=GPa)
#
#
# Indices 1 2 3 4 5 6 
#
# 1 130.1231 24.0676 23.6753 0.0000 0.0000 0.0000
# 2 24.0676 83.0801 10.8031 0.0000 0.0000 0.0000
# 3 23.6753 10.8031 48.1537 0.0000 0.0000 0.0000
# 4 0.0000 0.0000 0.0000 2.5378 0.0000 0.0000
# 5 0.0000 0.0000 0.0000 0.0000 36.0306 0.0000
# 6 0.0000 0.0000 0.0000 0.0000 0.0000 -7.2224
#
#
#
# Elastic Compliance Matrix: (Units=1/GPa)
#
#
# Indices 1 2 3 4 5 6 
#
# 1 0.008763 -0.002038 -0.003851 0.000000 0.000000 0.000000
# 2 -0.002038 0.012872 -0.001886 0.000000 0.000000 0.000000
# 3 -0.003851 -0.001886 0.023083 0.000000 0.000000 0.000000
# 4 0.000000 0.000000 0.000000 0.394049 0.000000 0.000000
# 5 0.000000 0.000000 0.000000 0.000000 0.027754 0.000000
# 6 0.000000 0.000000 0.000000 0.000000 0.000000 -0.138459
#
#
# Mechanical properties :
#
#
# Convention : Reuss Voigt Hill
#
# Bulk Modulus (GPa) = 34.28344 42.04989 38.16667
# Shear Modulus (GPa) = 14.15089 19.78990 16.97040
#
# Velocity S-wave (km/s) = 2.54651 3.01145 2.78869
# Velocity P-wave (km/s) = 4.93527 5.60012 5.27817
#
# Compressibility (1/GPa) = 0.02916860
#
# Stress axis : x y z
#
# Youngs Moduli (GPa) = 114.12121 77.68726 43.32126
#
# Poissons Ratio (x) = 0.15830 0.16683
# Poissons Ratio (y) = 0.23254 0.08170
# Poissons Ratio (z) = 0.43949 0.14652
#
# Static dielectric constant tensor:
#      x y z
#    x 1.819190 0.000000 0.000000 
#    y 0.000000 1.816860 0.000000 
#    z 0.000000 0.000000 1.813560 
# 
# From -- ./inp_files/2872.got.cif
#   From: 2010.05.17/outbox.cif.g08.bks.cpg/sg42_2_cif.got.tgz:2872.got - 2010.06.03 19:03:34.
