data_PCOD9369881
_publ_section_title
;
Structure prediction by ZEFSAII (Michael W. Deem and Ramdas Pophale) SiO2 
 PCOD9369881
Probable space group: F M M 2
;
_chemical_formula_sum "Si O2"
_cell_formula_units_Z 96
_cell_length_a 14.897769
_cell_length_b 24.739713
_cell_length_c 11.103146
_cell_angle_alpha 90.000000
_cell_angle_beta 90.000000
_cell_angle_gamma 90.000000
_cell_volume 4092.247987
_symmetry_space_group_name_H-M "F M M 2"
_symmetry_group_IT_number 42
_symmetry_cell_setting 'orthorhombic'
loop_
_space_group_symop_operation_xyz
x,y,z
-x,-y,z
-x,y,z
x,-y,z
x,1/2+y,1/2+z
-x,1/2-y,1/2+z
-x,1/2+y,1/2+z
x,1/2-y,1/2+z
1/2+x,y,1/2+z
1/2-x,-y,1/2+z
1/2-x,y,1/2+z
1/2+x,-y,1/2+z
1/2+x,1/2+y,z
1/2-x,1/2-y,z
1/2-x,1/2+y,z
1/2+x,1/2-y,z
loop_
_atom_site_type_symbol
_atom_site_label
_atom_site_fract_x
_atom_site_fract_y
_atom_site_fract_z
Si Si1 0.357899 0.613948 0.961830
Si Si2 0.866783 0.938109 0.205333
Si Si3 0.341374 0.407977 0.709206
Si Si4 0.340003 0.936157 0.959161
Si Si5 0.855537 0.239948 0.919018
Si Si6 0.599800 0.293826 0.670281
O O1 0.387203 0.584504 0.838435
O O2 0.250928 0.599660 0.964242
O O3 0.374682 0.677107 0.946271
O O4 0.395273 0.594407 0.088515
O O5 0.757478 0.934389 0.211088
O O6 0.893206 0.920005 0.339271
O O7 0.892679 0.000000 0.188248
O O8 0.386675 0.428296 0.587363
O O9 0.331617 0.342974 0.692989
O O10 0.316924 0.000000 0.946997
O O11 0.750000 0.250000 0.918185
O O12 0.887831 0.248428 0.780756
O O13 0.891472 0.272054 0.034956
O O14 0.500000 0.316913 0.684663
#
# Coordination Sequence:
#
# PCOD9369881 Si02
#       6
#    16  16  16  16  16  16
#     4   9  17  27  43  71 101 130 167 218 269 313
#     4   9  16  27  46  76 109 136 169 219 273 319
#     4   9  17  29  46  67  96 135 174 210 256 317
#     4   9  16  26  44  73 107 138 171 217 271 321
#     4  11  22  37  59  84 108 143 193 240 279 328
#     4  11  24  40  56  79 115 152 186 230 286 340
#
# _framework density 23.458988000000002
#
# number of rings (size 3 to 8) (size 9 to 14) (size 15 to 20)
#    0.000    2.333    0.000    5.000    0.000    7.333 
#    0.000    0.000    0.000    2.000    0.000    0.000 
#    0.000   14.667    0.000    1.333    0.000    0.000 
#
# Total GULP energy -133884.895473 kJ/mol
# GULP energy per Si atom -5578.537311 kJ/mol
# Density = 2.340559 g / cm^3
# Si number density = 23.458988 Si / 1000 Ang^3
#
#
#
# Elastic Constant Matrix: (Units=GPa)
#
#
# Indices 1 2 3 4 5 6 
#
# 1 74.3220 0.2236 8.8944 0.0000 0.0000 0.0000
# 2 0.2236 33.1356 19.0060 0.0000 0.0000 0.0000
# 3 8.8944 19.0060 221.6421 0.0000 0.0000 0.0000
# 4 0.0000 0.0000 0.0000 42.9135 0.0000 0.0000
# 5 0.0000 0.0000 0.0000 0.0000 -48.6498 0.0000
# 6 0.0000 0.0000 0.0000 0.0000 0.0000 -334.2934
#
#
#
# Elastic Compliance Matrix: (Units=1/GPa)
#
#
# Indices 1 2 3 4 5 6 
#
# 1 0.013522 0.000231 -0.000562 0.000000 0.000000 0.000000
# 2 0.000231 0.031744 -0.002731 0.000000 0.000000 0.000000
# 3 -0.000562 -0.002731 0.004769 0.000000 0.000000 0.000000
# 4 0.000000 0.000000 0.000000 0.023303 0.000000 0.000000
# 5 0.000000 0.000000 0.000000 0.000000 -0.020555 0.000000
# 6 0.000000 0.000000 0.000000 0.000000 0.000000 -0.002991
#
#
# Mechanical properties :
#
#
# Convention : Reuss Voigt Hill
#
# Bulk Modulus (GPa) = 22.77421 42.81642 32.79531
# Shear Modulus (GPa) = 70.86982 -47.94091 11.46445
#
# Velocity S-wave (km/s) = 5.50233 -4.52553 2.21306
# Velocity P-wave (km/s) = 7.07790 3.00266 4.53215
#
# Compressibility (1/GPa) = 0.04390932
#
# Stress axis : x y z
#
# Youngs Moduli (GPa) = 73.95583 31.50191 209.70654
#
# Poissons Ratio (x) = -0.00729 0.11795
# Poissons Ratio (y) = -0.01711 0.57279
# Poissons Ratio (z) = 0.04160 0.08604
#
# Static dielectric constant tensor:
#      x y z
#    x 2.034740 0.000000 0.000000 
#    y 0.000000 1.863190 0.000000 
#    z 0.000000 0.000000 1.999610 
# 
# From -- ./inp_files/8825.got.cif
#   From: 2010.05.17/outbox.cif.g08.bks.cpg/sg42_5_cif.got.tgz:8825.got - 2010.06.03 19:03:34.
