data_PCOD9369659
_publ_section_title
;
Structure prediction by ZEFSAII (Michael W. Deem and Ramdas Pophale) SiO2 
 PCOD9369659
Probable space group: F M M 2
;
_chemical_formula_sum "Si O2"
_cell_formula_units_Z 112
_cell_length_a 14.125528
_cell_length_b 32.197228
_cell_length_c 12.160789
_cell_angle_alpha 90.000000
_cell_angle_beta 90.000000
_cell_angle_gamma 90.000000
_cell_volume 5530.761442
_symmetry_space_group_name_H-M "F M M 2"
_symmetry_group_IT_number 42
_symmetry_cell_setting 'orthorhombic'
loop_
_space_group_symop_operation_xyz
x,y,z
-x,-y,z
-x,y,z
x,-y,z
x,1/2+y,1/2+z
-x,1/2-y,1/2+z
-x,1/2+y,1/2+z
x,1/2-y,1/2+z
1/2+x,y,1/2+z
1/2-x,-y,1/2+z
1/2-x,y,1/2+z
1/2+x,-y,1/2+z
1/2+x,1/2+y,z
1/2-x,1/2-y,z
1/2-x,1/2+y,z
1/2+x,1/2-y,z
loop_
_atom_site_type_symbol
_atom_site_label
_atom_site_fract_x
_atom_site_fract_y
_atom_site_fract_z
Si Si1 0.385154 0.863935 0.103040
Si Si2 0.292718 0.627348 0.841874
Si Si3 0.386513 0.782055 0.970019
Si Si4 0.391499 0.953860 0.338469
Si Si5 0.389107 0.045435 0.071475
Si Si6 0.109648 0.665897 0.767423
Si Si7 0.113094 0.188829 0.013827
O O1 0.500000 0.865105 0.104161
O O2 0.347842 0.863349 0.227360
O O3 0.352203 0.907772 0.048184
O O4 0.354614 0.821809 0.041475
O O5 0.321739 0.581402 0.877556
O O6 0.183322 0.632498 0.811592
O O7 0.331136 0.659581 0.930794
O O8 0.500000 0.780744 0.986603
O O9 0.370589 0.793570 0.842524
O O10 0.353365 0.736332 0.000817
O O11 0.500000 0.942892 0.366832
O O12 0.386964 0.955315 0.205299
O O13 0.371407 0.000000 0.379811
O O14 0.500000 0.045299 0.038532
O O15 0.349303 0.000000 0.035305
O O16 0.124163 0.674786 0.639676
O O17 0.000000 0.654362 0.786496
O O18 0.000000 0.186773 0.988487
#
# Coordination Sequence:
#
# PCOD9369659 Si02
#       7
#    16  16  16  16  16  16  16
#     4   9  17  30  53  86 116 144 189 247 299 354
#     4  11  21  34  61  90 117 153 204 247 296 362
#     4   9  20  38  57  77 115 162 197 240 303 361
#     4   8  14  28  54  91 127 149 182 249 314 351
#     4   7  10  19  39  72 112 143 170 222 293 346
#     4  10  24  43  57  79 119 165 199 243 306 358
#     4  10  22  40  61  85 118 156 200 252 305 362
#
# _framework density 20.250375999999999
#
# number of rings (size 3 to 8) (size 9 to 14) (size 15 to 20)
#    0.000    2.857    0.000    3.000    4.000    0.571 
#    0.000    0.000    0.000    2.143    0.000    4.000 
#    0.000    0.000    0.000    0.000    0.000    0.000 
#
# Total GULP energy -156172.370563 kJ/mol
# GULP energy per Si atom -5577.584663 kJ/mol
# Density = 2.020429 g / cm^3
# Si number density = 20.250376 Si / 1000 Ang^3
#
#
#
# Elastic Constant Matrix: (Units=GPa)
#
#
# Indices 1 2 3 4 5 6 
#
# 1 102.1782 66.0008 43.5078 0.0000 0.0000 0.0000
# 2 66.0008 169.3485 48.4953 0.0000 0.0000 0.0000
# 3 43.5078 48.4953 79.6841 0.0000 0.0000 0.0000
# 4 0.0000 0.0000 0.0000 20.5127 0.0000 0.0000
# 5 0.0000 0.0000 0.0000 0.0000 24.0205 0.0000
# 6 0.0000 0.0000 0.0000 0.0000 0.0000 5.7544
#
#
#
# Elastic Compliance Matrix: (Units=1/GPa)
#
#
# Indices 1 2 3 4 5 6 
#
# 1 0.014869 -0.004203 -0.005561 0.000000 0.000000 0.000000
# 2 -0.004203 0.008339 -0.002781 0.000000 0.000000 0.000000
# 3 -0.005561 -0.002781 0.017278 0.000000 0.000000 0.000000
# 4 0.000000 0.000000 0.000000 0.048750 0.000000 0.000000
# 5 0.000000 0.000000 0.000000 0.000000 0.041631 0.000000
# 6 0.000000 0.000000 0.000000 0.000000 0.000000 0.173780
#
#
# Mechanical properties :
#
#
# Convention : Reuss Voigt Hill
#
# Bulk Modulus (GPa) = 64.94233 74.13540 69.53886
# Shear Modulus (GPa) = 14.93122 22.93798 18.93460
#
# Velocity S-wave (km/s) = 2.71833 3.36924 3.06113
# Velocity P-wave (km/s) = 6.48010 7.19893 6.84895
#
# Compressibility (1/GPa) = 0.01539828
#
# Stress axis : x y z
#
# Youngs Moduli (GPa) = 67.25246 119.91687 57.87670
#
# Poissons Ratio (x) = 0.50396 0.32185
# Poissons Ratio (y) = 0.28263 0.16093
# Poissons Ratio (z) = 0.37399 0.33343
#
# Static dielectric constant tensor:
#      x y z
#    x 1.742480 0.000000 0.000000 
#    y 0.000000 1.754990 0.000000 
#    z 0.000000 0.000000 1.694820 
# 
# From -- ./inp_files/8096.got.cif
#   From: 2010.05.17/outbox.cif.g08.bks.cpg/sg42_5_cif.got.tgz:8096.got - 2010.06.03 19:03:34.
