data_PCOD9369140
_publ_section_title
;
Structure prediction by ZEFSAII (Michael W. Deem and Ramdas Pophale) SiO2 
 PCOD9369140
Probable space group: F M M 2
;
_chemical_formula_sum "Si O2"
_cell_formula_units_Z 100
_cell_length_a 18.655520
_cell_length_b 13.375477
_cell_length_c 15.253493
_cell_angle_alpha 90.000000
_cell_angle_beta 90.000000
_cell_angle_gamma 90.000000
_cell_volume 3806.150396
_symmetry_space_group_name_H-M "F M M 2"
_symmetry_group_IT_number 42
_symmetry_cell_setting 'orthorhombic'
loop_
_space_group_symop_operation_xyz
x,y,z
-x,-y,z
-x,y,z
x,-y,z
x,1/2+y,1/2+z
-x,1/2-y,1/2+z
-x,1/2+y,1/2+z
x,1/2-y,1/2+z
1/2+x,y,1/2+z
1/2-x,-y,1/2+z
1/2-x,y,1/2+z
1/2+x,-y,1/2+z
1/2+x,1/2+y,z
1/2-x,1/2-y,z
1/2-x,1/2+y,z
1/2+x,1/2-y,z
loop_
_atom_site_type_symbol
_atom_site_label
_atom_site_fract_x
_atom_site_fract_y
_atom_site_fract_z
Si Si1 0.401621 0.325733 0.878650
Si Si2 0.247635 0.393427 0.400761
Si Si3 0.258064 0.366693 0.097493
Si Si4 0.000000 0.000000 0.947757
Si Si5 0.612223 0.888573 0.178762
Si Si6 0.901851 0.112874 0.335506
Si Si7 0.920079 0.835087 0.133574
O O1 0.316933 0.317780 0.895678
O O2 0.438304 0.410355 0.936127
O O3 0.410119 0.362887 0.778324
O O4 0.426380 0.211029 0.888108
O O5 0.213137 0.500000 0.378245
O O6 0.270592 0.397335 0.502174
O O7 0.315728 0.383687 0.340094
O O8 0.250000 0.250000 0.101756
O O9 0.198834 0.397381 0.168971
O O10 0.343953 0.384032 0.103449
O O11 0.588500 0.786656 0.127744
O O12 0.584768 0.000000 0.154463
O O13 0.922174 0.133549 0.235576
O O14 0.921919 0.000000 0.362754
O O15 0.000000 0.865512 0.100268
#
# Coordination Sequence:
#
# PCOD9369140 Si02
#       7
#    16  16  16   4  16  16  16
#     4  11  22  39  62  94 128 163 208 264 317 380
#     4  11  21  40  65  93 125 164 215 273 319 373
#     4  10  21  38  60  92 127 168 215 260 317 381
#     4  12  24  40  62  96 132 164 206 256 340 380
#     4  10  20  36  64  91 120 162 215 269 311 366
#     4  10  23  39  65  92 125 168 216 262 315 375
#     4  10  23  40  61  93 133 167 205 259 323 393
#
# _framework density 26.273267000000001
#
# number of rings (size 3 to 8) (size 9 to 14) (size 15 to 20)
#    0.000    1.600    1.600    2.880    4.480    5.760 
#    1.440    0.000    0.000    0.960    0.000    2.240 
#    0.000    0.000    0.000    0.000    0.000    0.000 
#
# Total GULP energy -139321.398006 kJ/mol
# GULP energy per Si atom -5572.855920 kJ/mol
# Density = 2.621347 g / cm^3
# Si number density = 26.273267 Si / 1000 Ang^3
#
#
#
# Elastic Constant Matrix: (Units=GPa)
#
#
# Indices 1 2 3 4 5 6 
#
# 1 225.7799 13.3226 34.2359 0.0000 0.0000 0.0000
# 2 13.3226 226.1500 -4.4173 0.0000 0.0000 0.0000
# 3 34.2359 -4.4173 62.4480 0.0000 0.0000 0.0000
# 4 0.0000 0.0000 0.0000 -17.2592 0.0000 0.0000
# 5 0.0000 0.0000 0.0000 0.0000 54.3154 0.0000
# 6 0.0000 0.0000 0.0000 0.0000 0.0000 -36.4290
#
#
#
# Elastic Compliance Matrix: (Units=1/GPa)
#
#
# Indices 1 2 3 4 5 6 
#
# 1 0.004856 -0.000339 -0.002686 0.000000 0.000000 0.000000
# 2 -0.000339 0.004452 0.000500 0.000000 0.000000 0.000000
# 3 -0.002686 0.000500 0.017521 0.000000 0.000000 0.000000
# 4 0.000000 0.000000 0.000000 -0.057940 0.000000 0.000000
# 5 0.000000 0.000000 0.000000 0.000000 0.018411 0.000000
# 6 0.000000 0.000000 0.000000 0.000000 0.000000 -0.027451
#
#
# Mechanical properties :
#
#
# Convention : Reuss Voigt Hill
#
# Bulk Modulus (GPa) = 45.91253 66.74006 56.32629
# Shear Modulus (GPa) = -179.58940 31.54123 -74.02408
#
# Velocity S-wave (km/s) = -8.27664 3.46859 -5.31374
# Velocity P-wave (km/s) = 8.59210 6.44197 4.02028
#
# Compressibility (1/GPa) = 0.02178055
#
# Stress axis : x y z
#
# Youngs Moduli (GPa) = 205.91315 224.64011 57.07283
#
# Poissons Ratio (x) = 0.07606 0.15332
# Poissons Ratio (y) = 0.06972 -0.02856
# Poissons Ratio (z) = 0.55316 -0.11243
#
# Static dielectric constant tensor:
#      x y z
#    x 2.047080 0.000000 0.000000 
#    y 0.000000 2.079120 0.000000 
#    z 0.000000 0.000000 2.037640 
# 
# From -- ./inp_files/25913.got.cif
#   From: 2010.05.17/outbox.cif.g08.bks.cpg/sg42_13_cif.got.tgz:25913.got - 2010.06.03 19:03:34.
