data_PCOD9369942
_publ_section_title
;
Structure prediction by ZEFSAII (Michael W. Deem and Ramdas Pophale) SiO2 
 PCOD9369942
Probable space group: F M M 2
;
_chemical_formula_sum "Si O2"
_cell_formula_units_Z 56
_cell_length_a 9.621392
_cell_length_b 20.662644
_cell_length_c 12.361573
_cell_angle_alpha 90.000000
_cell_angle_beta 90.000000
_cell_angle_gamma 90.000000
_cell_volume 2457.522713
_symmetry_space_group_name_H-M "F M M 2"
_symmetry_group_IT_number 42
_symmetry_cell_setting 'orthorhombic'
loop_
_space_group_symop_operation_xyz
x,y,z
-x,-y,z
-x,y,z
x,-y,z
x,1/2+y,1/2+z
-x,1/2-y,1/2+z
-x,1/2+y,1/2+z
x,1/2-y,1/2+z
1/2+x,y,1/2+z
1/2-x,-y,1/2+z
1/2-x,y,1/2+z
1/2+x,-y,1/2+z
1/2+x,1/2+y,z
1/2-x,1/2-y,z
1/2-x,1/2+y,z
1/2+x,1/2-y,z
loop_
_atom_site_type_symbol
_atom_site_label
_atom_site_fract_x
_atom_site_fract_y
_atom_site_fract_z
Si Si1 0.000000 0.656558 0.112651
Si Si2 0.750000 0.750000 0.916338
Si Si3 0.000000 0.428567 0.675036
Si Si4 0.500000 0.574807 0.829916
Si Si5 0.210351 0.378955 0.506233
Si Si6 0.000000 0.284967 0.760423
O O1 0.000000 0.617295 0.223891
O O2 0.000000 0.730853 0.162651
O O3 0.131103 0.632592 0.041545
O O4 0.825999 0.803346 0.989500
O O5 0.634102 0.775788 0.835139
O O6 0.865603 0.419794 0.598511
O O7 0.000000 0.361091 0.736167
O O8 0.000000 0.500000 0.726349
O O9 0.500000 0.500000 0.803351
O O10 0.359526 0.590641 0.898713
#
# Coordination Sequence:
#
# PCOD9369942 Si02
#       6
#     8   8   8   8  16   8
#     4  12  24  46  77 107 141 194 244 305 359 429
#     4  12  22  42  72 108 142 182 238 316 350 414
#     4  11  25  45  67 100 149 193 236 297 365 434
#     4  11  26  49  71 103 152 192 239 300 361 438
#     4  11  23  45  70 105 144 188 243 293 362 421
#     4  12  23  42  71 108 140 185 247 296 369 419
#
# _framework density 22.787175000000001
#
# number of rings (size 3 to 8) (size 9 to 14) (size 15 to 20)
#    0.000    0.571    2.857    6.857    0.000    2.286 
#    0.000    1.429    0.000    1.714    0.000    0.000 
#    0.000    0.000    0.000    0.000    0.000    0.000 
#
# Total GULP energy -78025.643711 kJ/mol
# GULP energy per Si atom -5573.260265 kJ/mol
# Density = 2.273531 g / cm^3
# Si number density = 22.787175 Si / 1000 Ang^3
#
#
#
# Elastic Constant Matrix: (Units=GPa)
#
#
# Indices 1 2 3 4 5 6 
#
# 1 145.3836 54.6599 72.6017 0.0000 0.0000 0.0000
# 2 54.6599 182.4391 39.4168 0.0000 0.0000 0.0000
# 3 72.6017 39.4168 89.2180 0.0000 0.0000 0.0000
# 4 0.0000 0.0000 0.0000 28.8352 0.0000 0.0000
# 5 0.0000 0.0000 0.0000 0.0000 -10.9186 0.0000
# 6 0.0000 0.0000 0.0000 0.0000 0.0000 27.0340
#
#
#
# Elastic Compliance Matrix: (Units=1/GPa)
#
#
# Indices 1 2 3 4 5 6 
#
# 1 0.012017 -0.001645 -0.009053 0.000000 0.000000 0.000000
# 2 -0.001645 0.006285 -0.001438 0.000000 0.000000 0.000000
# 3 -0.009053 -0.001438 0.019211 0.000000 0.000000 0.000000
# 4 0.000000 0.000000 0.000000 0.034680 0.000000 0.000000
# 5 0.000000 0.000000 0.000000 0.000000 -0.091587 0.000000
# 6 0.000000 0.000000 0.000000 0.000000 0.000000 0.036990
#
#
# Mechanical properties :
#
#
# Convention : Reuss Voigt Hill
#
# Bulk Modulus (GPa) = 75.51943 83.37751 79.44847
# Shear Modulus (GPa) = 108.03482 25.68092 66.85787
#
# Velocity S-wave (km/s) = 6.89299 3.36071 5.42253
# Velocity P-wave (km/s) = 9.82671 7.19224 8.61082
#
# Compressibility (1/GPa) = 0.01324162
#
# Stress axis : x y z
#
# Youngs Moduli (GPa) = 83.21273 159.11469 52.05462
#
# Poissons Ratio (x) = 0.26168 0.47123
# Poissons Ratio (y) = 0.13685 0.07487
# Poissons Ratio (z) = 0.75329 0.22886
#
# Static dielectric constant tensor:
#      x y z
#    x 1.930050 0.000000 0.000000 
#    y 0.000000 1.860100 0.000000 
#    z 0.000000 0.000000 1.892620 
# 
# From -- ./inp_files/11773.got.cif
#   From: 2010.05.17/outbox.cif.g08.bks.cpg/sg42_6_cif.got.tgz:11773.got - 2010.06.03 19:03:34.
