data_PCOD9369856
_publ_section_title
;
Structure prediction by ZEFSAII (Michael W. Deem and Ramdas Pophale) SiO2 
 PCOD9369856
Probable space group: F M M 2
;
_chemical_formula_sum "Si O2"
_cell_formula_units_Z 100
_cell_length_a 23.696329
_cell_length_b 8.811554
_cell_length_c 25.671368
_cell_angle_alpha 90.000000
_cell_angle_beta 90.000000
_cell_angle_gamma 90.000000
_cell_volume 5360.219698
_symmetry_space_group_name_H-M "F M M 2"
_symmetry_group_IT_number 42
_symmetry_cell_setting 'orthorhombic'
loop_
_space_group_symop_operation_xyz
x,y,z
-x,-y,z
-x,y,z
x,-y,z
x,1/2+y,1/2+z
-x,1/2-y,1/2+z
-x,1/2+y,1/2+z
x,1/2-y,1/2+z
1/2+x,y,1/2+z
1/2-x,-y,1/2+z
1/2-x,y,1/2+z
1/2+x,-y,1/2+z
1/2+x,1/2+y,z
1/2-x,1/2-y,z
1/2-x,1/2+y,z
1/2+x,1/2-y,z
loop_
_atom_site_type_symbol
_atom_site_label
_atom_site_fract_x
_atom_site_fract_y
_atom_site_fract_z
Si Si1 0.500000 0.000000 0.574775
Si Si2 0.618977 0.317934 0.757887
Si Si3 0.116193 0.832611 0.060861
Si Si4 0.312300 0.682678 0.161967
Si Si5 0.117600 0.319222 0.951298
Si Si6 0.000000 0.682400 0.779423
Si Si7 0.000000 0.315979 0.901074
Si Si8 0.811208 0.181338 0.860640
O O1 0.449251 0.130182 0.573244
O O2 0.616367 0.500000 0.754438
O O3 0.658382 0.251771 0.712901
O O4 0.556733 0.247626 0.754489
O O5 0.646116 0.276647 0.813864
O O6 0.149303 0.779455 0.111815
O O7 0.140338 0.000000 0.046329
O O8 0.122534 0.726471 0.011214
O O9 0.310096 0.500000 0.166624
O O10 0.250000 0.750000 0.156088
O O11 0.120281 0.500000 0.945134
O O12 0.164309 0.244594 0.914517
O O13 0.056525 0.263794 0.930005
O O14 0.000000 0.728554 0.840559
O O15 0.000000 0.500000 0.776166
O O16 0.000000 0.500000 0.902312
O O17 0.750000 0.250000 0.849742
O O18 0.807478 0.000000 0.862574
#
# Coordination Sequence:
#
# PCOD9369856 Si02
#       8
#     4  16  16  16  16   8   8  16
#     4   8  18  42  68  88 126 158 222 262 318 386
#     4  11  24  42  63  95 128 164 215 267 324 383
#     4   9  21  40  63  92 123 167 214 264 320 383
#     4  11  24  43  67  93 124 169 217 267 323 388
#     4  11  21  37  62  94 128 162 208 259 317 376
#     4  11  21  39  64  92 131 170 209 263 320 388
#     4   9  19  34  57  90 126 161 201 247 305 370
#     4  11  24  40  59  86 124 170 214 263 317 379
#
# _framework density 18.655951999999999
#
# number of rings (size 3 to 8) (size 9 to 14) (size 15 to 20)
#    0.480    1.120    1.600    3.120    0.000    5.760 
#    1.440    1.600    0.000    1.920    0.000    0.000 
#    0.000    0.000    0.000    0.000    0.000    0.000 
#
# Total GULP energy -139332.492798 kJ/mol
# GULP energy per Si atom -5573.299712 kJ/mol
# Density = 1.861349 g / cm^3
# Si number density = 18.655952 Si / 1000 Ang^3
#
#
#
# Elastic Constant Matrix: (Units=GPa)
#
#
# Indices 1 2 3 4 5 6 
#
# 1 144.5232 43.6265 61.1620 0.0000 0.0000 0.0000
# 2 43.6265 50.9581 34.3574 0.0000 0.0000 0.0000
# 3 61.1620 34.3574 96.2850 0.0000 0.0000 0.0000
# 4 0.0000 0.0000 0.0000 30.9604 0.0000 0.0000
# 5 0.0000 0.0000 0.0000 0.0000 14.5679 0.0000
# 6 0.0000 0.0000 0.0000 0.0000 0.0000 32.7312
#
#
#
# Elastic Compliance Matrix: (Units=1/GPa)
#
#
# Indices 1 2 3 4 5 6 
#
# 1 0.010708 -0.006033 -0.004649 0.000000 0.000000 0.000000
# 2 -0.006033 0.029240 -0.006602 0.000000 0.000000 0.000000
# 3 -0.004649 -0.006602 0.015695 0.000000 0.000000 0.000000
# 4 0.000000 0.000000 0.000000 0.032299 0.000000 0.000000
# 5 0.000000 0.000000 0.000000 0.000000 0.068644 0.000000
# 6 0.000000 0.000000 0.000000 0.000000 0.000000 0.030552
#
#
# Mechanical properties :
#
#
# Convention : Reuss Voigt Hill
#
# Bulk Modulus (GPa) = 47.44860 63.33978 55.39419
# Shear Modulus (GPa) = 21.85987 25.82659 23.84323
#
# Velocity S-wave (km/s) = 3.42678 3.72474 3.57886
# Velocity P-wave (km/s) = 6.41450 7.24731 6.84358
#
# Compressibility (1/GPa) = 0.02107544
#
# Stress axis : x y z
#
# Youngs Moduli (GPa) = 93.38908 34.20014 63.71566
#
# Poissons Ratio (x) = 0.20632 0.29623
# Poissons Ratio (y) = 0.56339 0.42062
# Poissons Ratio (z) = 0.43419 0.22577
#
# Static dielectric constant tensor:
#      x y z
#    x 1.630790 0.000000 0.000000 
#    y 0.000000 1.633160 0.000000 
#    z 0.000000 0.000000 1.629800 
# 
# From -- ./inp_files/33072.got.cif
#   From: 2010.05.17/outbox.cif.g08.bks.cpg/sg42_17_cif.got.tgz:33072.got - 2010.06.03 19:03:34.
