data_PCOD9369571
_publ_section_title
;
Structure prediction by ZEFSAII (Michael W. Deem and Ramdas Pophale) SiO2 
 PCOD9369571
Probable space group: F M M 2
;
_chemical_formula_sum "Si O2"
_cell_formula_units_Z 84
_cell_length_a 11.636228
_cell_length_b 23.281510
_cell_length_c 15.334116
_cell_angle_alpha 90.000000
_cell_angle_beta 90.000000
_cell_angle_gamma 90.000000
_cell_volume 4154.149396
_symmetry_space_group_name_H-M "F M M 2"
_symmetry_group_IT_number 42
_symmetry_cell_setting 'orthorhombic'
loop_
_space_group_symop_operation_xyz
x,y,z
-x,-y,z
-x,y,z
x,-y,z
x,1/2+y,1/2+z
-x,1/2-y,1/2+z
-x,1/2+y,1/2+z
x,1/2-y,1/2+z
1/2+x,y,1/2+z
1/2-x,-y,1/2+z
1/2-x,y,1/2+z
1/2+x,-y,1/2+z
1/2+x,1/2+y,z
1/2-x,1/2-y,z
1/2-x,1/2+y,z
1/2+x,1/2-y,z
loop_
_atom_site_type_symbol
_atom_site_label
_atom_site_fract_x
_atom_site_fract_y
_atom_site_fract_z
Si Si1 0.136250 0.619393 0.981720
Si Si2 0.500000 0.929002 0.594198
Si Si3 0.257640 0.612129 0.157501
Si Si4 0.765789 0.682165 0.335275
Si Si5 0.000000 0.000000 0.870479
Si Si6 0.701298 0.000000 0.236805
Si Si7 0.862463 0.000000 0.394521
Si Si8 0.000000 0.632087 0.421245
O O1 0.168233 0.659706 0.901119
O O2 0.175158 0.556325 0.947812
O O3 0.000000 0.619054 0.998919
O O4 0.207932 0.636295 0.067307
O O5 0.616501 0.915135 0.645292
O O6 0.500000 0.873850 0.525633
O O7 0.500000 0.000000 0.573565
O O8 0.248950 0.653591 0.240274
O O9 0.182995 0.556147 0.180248
O O10 0.750000 0.750000 0.328314
O O11 0.887098 0.660706 0.377978
O O12 0.000000 0.062827 0.911177
O O13 0.888367 0.000000 0.813126
O O14 0.817133 0.000000 0.295419
O O15 0.000000 0.000000 0.391948
#
# Coordination Sequence:
#
# PCOD9369571 Si02
#       8
#    16   8  16  16   4   8   8   8
#     4  11  25  45  71 102 140 182 230 287 361 427
#     4  12  26  41  74 111 145 175 227 296 365 427
#     4  12  26  44  69 106 141 181 232 289 359 429
#     4  12  29  49  71  98 140 195 244 292 343 417
#     4  12  22  38  76 104 140 180 226 294 372 420
#     4  12  23  36  69 104 141 176 224 280 369 436
#     4  10  21  40  67  99 139 181 222 281 355 433
#     4  12  24  49  73 105 144 187 239 299 354 417
#
# _framework density 20.220745999999998
#
# number of rings (size 3 to 8) (size 9 to 14) (size 15 to 20)
#    0.000    0.381    7.143    0.571    6.667    0.762 
#    0.000    0.000    0.000    0.000    0.000    0.000 
#    0.000    0.000    0.000    0.000    0.000    0.000 
#
# Total GULP energy -117157.609480 kJ/mol
# GULP energy per Si atom -5578.933785 kJ/mol
# Density = 2.017472 g / cm^3
# Si number density = 20.220746 Si / 1000 Ang^3
#
#
#
# Elastic Constant Matrix: (Units=GPa)
#
#
# Indices 1 2 3 4 5 6 
#
# 1 76.5060 21.1135 19.7067 0.0000 0.0000 0.0000
# 2 21.1135 142.5854 50.2587 0.0000 0.0000 0.0000
# 3 19.7067 50.2587 127.1099 0.0000 0.0000 0.0000
# 4 0.0000 0.0000 0.0000 -2.3643 0.0000 0.0000
# 5 0.0000 0.0000 0.0000 0.0000 -605.4501 0.0000
# 6 0.0000 0.0000 0.0000 0.0000 0.0000 24.4106
#
#
#
# Elastic Compliance Matrix: (Units=1/GPa)
#
#
# Indices 1 2 3 4 5 6 
#
# 1 0.013888 -0.001508 -0.001557 0.000000 0.000000 0.000000
# 2 -0.001508 0.008313 -0.003053 0.000000 0.000000 0.000000
# 3 -0.001557 -0.003053 0.009316 0.000000 0.000000 0.000000
# 4 0.000000 0.000000 0.000000 -0.422960 0.000000 0.000000
# 5 0.000000 0.000000 0.000000 0.000000 -0.001652 0.000000
# 6 0.000000 0.000000 0.000000 0.000000 0.000000 0.040966
#
#
# Mechanical properties :
#
#
# Convention : Reuss Voigt Hill
#
# Bulk Modulus (GPa) = 51.86456 58.70656 55.28556
# Shear Modulus (GPa) = -14.99401 -99.67260 -57.33331
#
# Velocity S-wave (km/s) = -2.72603 -7.02846 -5.33060
# Velocity P-wave (km/s) = 3.97448 6.06381 3.23831
#
# Compressibility (1/GPa) = 0.01928099
#
# Stress axis : x y z
#
# Youngs Moduli (GPa) = 72.00463 120.29717 107.34474
#
# Poissons Ratio (x) = 0.18137 0.16714
# Poissons Ratio (y) = 0.10856 0.32773
# Poissons Ratio (z) = 0.11211 0.36728
#
# Static dielectric constant tensor:
#      x y z
#    x 1.813720 0.000000 0.000000 
#    y 0.000000 1.815930 0.000000 
#    z 0.000000 0.000000 1.790710 
# 
# From -- ./inp_files/12962.got.cif
#   From: 2010.05.17/outbox.cif.g08.bks.cpg/sg42_7_cif.got.tgz:12962.got - 2010.06.03 19:03:34.
