data_PCOD9369405
_publ_section_title
;
Structure prediction by ZEFSAII (Michael W. Deem and Ramdas Pophale) SiO2 
 PCOD9369405
Probable space group: F M M 2
;
_chemical_formula_sum "Si O2"
_cell_formula_units_Z 72
_cell_length_a 16.391802
_cell_length_b 15.085590
_cell_length_c 14.619348
_cell_angle_alpha 90.000000
_cell_angle_beta 90.000000
_cell_angle_gamma 90.000000
_cell_volume 3615.072437
_symmetry_space_group_name_H-M "F M M 2"
_symmetry_group_IT_number 42
_symmetry_cell_setting 'orthorhombic'
loop_
_space_group_symop_operation_xyz
x,y,z
-x,-y,z
-x,y,z
x,-y,z
x,1/2+y,1/2+z
-x,1/2-y,1/2+z
-x,1/2+y,1/2+z
x,1/2-y,1/2+z
1/2+x,y,1/2+z
1/2-x,-y,1/2+z
1/2-x,y,1/2+z
1/2+x,-y,1/2+z
1/2+x,1/2+y,z
1/2-x,1/2-y,z
1/2-x,1/2+y,z
1/2+x,1/2-y,z
loop_
_atom_site_type_symbol
_atom_site_label
_atom_site_fract_x
_atom_site_fract_y
_atom_site_fract_z
Si Si1 0.822632 0.106355 0.100130
Si Si2 0.000000 0.892703 0.607702
Si Si3 0.164414 0.105496 0.709480
Si Si4 0.000000 0.240661 0.446509
Si Si5 0.668602 0.305628 0.899667
Si Si6 0.500000 0.894952 0.596698
O O1 0.746303 0.139260 0.159473
O O2 0.912578 0.122224 0.143614
O O3 0.814552 0.000000 0.089647
O O4 0.823573 0.149441 0.999557
O O5 0.081671 0.862815 0.660538
O O6 0.000000 0.845025 0.510522
O O7 0.000000 0.000000 0.600864
O O8 0.163116 0.126765 0.816087
O O9 0.164740 0.000000 0.698614
O O10 0.085924 0.247640 0.395400
O O11 0.000000 0.329682 0.509851
O O12 0.750000 0.250000 0.885939
O O13 0.500000 0.000000 0.570875
#
# Coordination Sequence:
#
# PCOD9369405 Si02
#       6
#    16   8  16   8  16   8
#     4   9  18  35  57  80 110 148 189 235 286 341
#     4  10  21  38  60  84 112 150 195 240 289 346
#     4  10  21  37  58  83 112 150 194 240 289 341
#     4  10  21  37  57  84 113 148 191 236 289 343
#     4  11  22  35  55  84 116 148 189 236 289 347
#     4   8  16  31  55  84 111 142 180 226 284 343
#
# _framework density 19.916613000000002
#
# number of rings (size 3 to 8) (size 9 to 14) (size 15 to 20)
#    0.000    2.222    0.000    2.667    0.000    5.333 
#    0.000    5.556    0.000    0.000    0.000   10.889 
#    0.000    0.000    0.000    0.000    0.000    0.000 
#
# Total GULP energy -100385.243647 kJ/mol
# GULP energy per Si atom -5576.957980 kJ/mol
# Density = 1.987128 g / cm^3
# Si number density = 19.916613 Si / 1000 Ang^3
#
#
#
# Elastic Constant Matrix: (Units=GPa)
#
#
# Indices 1 2 3 4 5 6 
#
# 1 204.3290 22.0805 45.4113 0.0000 0.0000 0.0000
# 2 22.0805 31.7087 -1.6949 0.0000 0.0000 0.0000
# 3 45.4113 -1.6949 72.6856 0.0000 0.0000 0.0000
# 4 0.0000 0.0000 0.0000 62.6009 0.0000 0.0000
# 5 0.0000 0.0000 0.0000 0.0000 1.3272 0.0000
# 6 0.0000 0.0000 0.0000 0.0000 0.0000 7.7378
#
#
#
# Elastic Compliance Matrix: (Units=1/GPa)
#
#
# Indices 1 2 3 4 5 6 
#
# 1 0.006287 -0.004594 -0.004035 0.000000 0.000000 0.000000
# 2 -0.004594 0.034933 0.003685 0.000000 0.000000 0.000000
# 3 -0.004035 0.003685 0.016365 0.000000 0.000000 0.000000
# 4 0.000000 0.000000 0.000000 0.015974 0.000000 0.000000
# 5 0.000000 0.000000 0.000000 0.000000 0.753486 0.000000
# 6 0.000000 0.000000 0.000000 0.000000 0.000000 0.129235
#
#
# Mechanical properties :
#
#
# Convention : Reuss Voigt Hill
#
# Bulk Modulus (GPa) = 20.96600 48.92415 34.94507
# Shear Modulus (GPa) = 5.09130 30.52827 17.80978
#
# Velocity S-wave (km/s) = 1.60058 3.91935 2.99359
# Velocity P-wave (km/s) = 3.73705 6.71562 5.43439
#
# Compressibility (1/GPa) = 0.04769628
#
# Stress axis : x y z
#
# Youngs Moduli (GPa) = 159.05054 28.62622 61.10659
#
# Poissons Ratio (x) = 0.13151 0.24658
# Poissons Ratio (y) = 0.73066 -0.22516
# Poissons Ratio (z) = 0.64180 -0.10548
#
# Static dielectric constant tensor:
#      x y z
#    x 1.763650 0.000000 0.000000 
#    y 0.000000 1.638240 0.000000 
#    z 0.000000 0.000000 1.651380 
# 
# From -- ./inp_files/13702.got.cif
#   From: 2010.05.17/outbox.cif.g08.bks.cpg/sg42_7_cif.got.tgz:13702.got - 2010.06.03 19:03:34.
