data_PCOD9369701
_publ_section_title
;
Structure prediction by ZEFSAII (Michael W. Deem and Ramdas Pophale) SiO2 
 PCOD9369701
Probable space group: F M M 2
;
_chemical_formula_sum "Si O2"
_cell_formula_units_Z 92
_cell_length_a 14.620143
_cell_length_b 20.290316
_cell_length_c 15.863285
_cell_angle_alpha 90.000000
_cell_angle_beta 90.000000
_cell_angle_gamma 90.000000
_cell_volume 4705.801004
_symmetry_space_group_name_H-M "F M M 2"
_symmetry_group_IT_number 42
_symmetry_cell_setting 'orthorhombic'
loop_
_space_group_symop_operation_xyz
x,y,z
-x,-y,z
-x,y,z
x,-y,z
x,1/2+y,1/2+z
-x,1/2-y,1/2+z
-x,1/2+y,1/2+z
x,1/2-y,1/2+z
1/2+x,y,1/2+z
1/2-x,-y,1/2+z
1/2-x,y,1/2+z
1/2+x,-y,1/2+z
1/2+x,1/2+y,z
1/2-x,1/2-y,z
1/2-x,1/2+y,z
1/2+x,1/2-y,z
loop_
_atom_site_type_symbol
_atom_site_label
_atom_site_fract_x
_atom_site_fract_y
_atom_site_fract_z
Si Si1 0.892638 0.924438 0.786690
Si Si2 0.179820 0.190700 0.694539
Si Si3 0.000000 0.266192 0.737987
Si Si4 0.147308 0.885292 0.526587
Si Si5 0.000000 0.000000 0.569292
Si Si6 0.000000 0.173508 0.053262
Si Si7 0.351979 0.425106 0.984666
Si Si8 0.000000 0.695851 0.931759
O O1 0.816376 0.877496 0.745961
O O2 0.882138 0.920064 0.887184
O O3 0.000000 0.910712 0.764621
O O4 0.877679 0.000000 0.760420
O O5 0.250000 0.250000 0.704041
O O6 0.087596 0.221078 0.729573
O O7 0.169548 0.167923 0.598810
O O8 0.000000 0.294690 0.831726
O O9 0.000000 0.309232 0.652373
O O10 0.243810 0.912828 0.494105
O O11 0.088791 0.846651 0.456890
O O12 0.080631 0.941920 0.563021
O O13 0.088974 0.129292 0.033348
O O14 0.000000 0.237569 0.990432
O O15 0.372767 0.500000 0.012881
#
# Coordination Sequence:
#
# PCOD9369701 Si02
#       8
#    16  16   8  16   4   8  16   8
#     4  10  22  41  70 100 130 175 227 282 334 397
#     4  12  25  43  64 101 137 172 223 280 338 401
#     4  12  24  45  62  97 139 171 219 271 337 408
#     4  11  24  44  70  96 129 177 225 278 334 406
#     4  10  22  44  72  96 124 174 232 278 330 404
#     4  12  22  43  70  97 136 177 215 270 340 406
#     4  11  23  43  68  98 133 172 225 276 336 399
#     4  11  26  43  69  98 129 181 218 276 342 386
#
# _framework density 19.550338
#
# number of rings (size 3 to 8) (size 9 to 14) (size 15 to 20)
#    0.000    0.870    4.348    2.870    3.652    0.000 
#    0.000    0.000    7.652    0.000    0.000    0.000 
#    0.000    0.000    0.000    0.000    0.000    0.000 
#
# Total GULP energy -128152.897958 kJ/mol
# GULP energy per Si atom -5571.865129 kJ/mol
# Density = 1.950584 g / cm^3
# Si number density = 19.550338 Si / 1000 Ang^3
#
#
#
# Elastic Constant Matrix: (Units=GPa)
#
#
# Indices 1 2 3 4 5 6 
#
# 1 103.2146 47.5045 9.1647 0.0000 0.0000 0.0000
# 2 47.5045 123.1571 47.1435 0.0000 0.0000 0.0000
# 3 9.1647 47.1435 99.1239 0.0000 0.0000 0.0000
# 4 0.0000 0.0000 0.0000 15.3383 0.0000 0.0000
# 5 0.0000 0.0000 0.0000 0.0000 21.3628 0.0000
# 6 0.0000 0.0000 0.0000 0.0000 0.0000 33.3124
#
#
#
# Elastic Compliance Matrix: (Units=1/GPa)
#
#
# Indices 1 2 3 4 5 6 
#
# 1 0.011921 -0.005106 0.001326 0.000000 0.000000 0.000000
# 2 -0.005106 0.012114 -0.005289 0.000000 0.000000 0.000000
# 3 0.001326 -0.005289 0.012481 0.000000 0.000000 0.000000
# 4 0.000000 0.000000 0.000000 0.065196 0.000000 0.000000
# 5 0.000000 0.000000 0.000000 0.000000 0.046810 0.000000
# 6 0.000000 0.000000 0.000000 0.000000 0.000000 0.030019
#
#
# Mechanical properties :
#
#
# Convention : Reuss Voigt Hill
#
# Bulk Modulus (GPa) = 54.41249 59.23568 56.82409
# Shear Modulus (GPa) = 24.65423 28.78157 26.71790
#
# Velocity S-wave (km/s) = 3.55500 3.84106 3.70079
# Velocity P-wave (km/s) = 6.68903 7.07365 6.88402
#
# Compressibility (1/GPa) = 0.01837813
#
# Stress axis : x y z
#
# Youngs Moduli (GPa) = 83.88763 82.55048 80.11941
#
# Poissons Ratio (x) = 0.42148 -0.10625
# Poissons Ratio (y) = 0.42831 0.42377
# Poissons Ratio (z) = -0.11125 0.43663
#
# Static dielectric constant tensor:
#      x y z
#    x 1.610700 0.000000 0.000000 
#    y 0.000000 1.728650 0.000000 
#    z 0.000000 0.000000 1.763990 
# 
# From -- ./inp_files/14080.got.cif
#   From: 2010.05.17/outbox.cif.g08.bks.cpg/sg42_8_cif.got.tgz:14080.got - 2010.06.03 19:03:34.
