data_PCOD9369583
_publ_section_title
;
Structure prediction by ZEFSAII (Michael W. Deem and Ramdas Pophale) SiO2 
 PCOD9369583
Probable space group: F M M 2
;
_chemical_formula_sum "Si O2"
_cell_formula_units_Z 84
_cell_length_a 16.886743
_cell_length_b 20.683264
_cell_length_c 12.079068
_cell_angle_alpha 90.000000
_cell_angle_beta 90.000000
_cell_angle_gamma 90.000000
_cell_volume 4218.891878
_symmetry_space_group_name_H-M "F M M 2"
_symmetry_group_IT_number 42
_symmetry_cell_setting 'orthorhombic'
loop_
_space_group_symop_operation_xyz
x,y,z
-x,-y,z
-x,y,z
x,-y,z
x,1/2+y,1/2+z
-x,1/2-y,1/2+z
-x,1/2+y,1/2+z
x,1/2-y,1/2+z
1/2+x,y,1/2+z
1/2-x,-y,1/2+z
1/2-x,y,1/2+z
1/2+x,-y,1/2+z
1/2+x,1/2+y,z
1/2-x,1/2-y,z
1/2-x,1/2+y,z
1/2+x,1/2-y,z
loop_
_atom_site_type_symbol
_atom_site_label
_atom_site_fract_x
_atom_site_fract_y
_atom_site_fract_z
Si Si1 0.687617 0.571898 0.550500
Si Si2 0.332276 0.668684 0.362938
Si Si3 0.137143 0.388242 0.620240
Si Si4 0.355032 0.310858 0.913130
Si Si5 0.089613 0.570779 0.273035
Si Si6 0.000000 0.500000 0.607817
O O1 0.676428 0.500000 0.505056
O O2 0.649705 0.622121 0.465774
O O3 0.780225 0.583783 0.572494
O O4 0.647268 0.576345 0.669818
O O5 0.351157 0.634903 0.246630
O O6 0.373761 0.738177 0.376352
O O7 0.237456 0.679683 0.378886
O O8 0.127531 0.324761 0.542084
O O9 0.069425 0.442186 0.609789
O O10 0.399206 0.369095 0.852427
O O11 0.103002 0.500000 0.328414
O O12 0.000000 0.570535 0.231665
#
# Coordination Sequence:
#
# PCOD9369583 Si02
#       6
#    16  16  16  16  16   4
#     4  10  21  41  68  95 129 176 218 269 325 386
#     4  10  23  41  67  96 130 177 220 263 328 400
#     4  11  24  43  64  96 135 170 222 270 330 396
#     4  10  23  39  69  95 130 176 217 273 324 390
#     4  10  22  40  66  97 126 166 224 278 322 383
#     4  12  28  44  64 100 132 176 206 288 336 402
#
# _framework density 19.910442
#
# number of rings (size 3 to 8) (size 9 to 14) (size 15 to 20)
#    0.000    1.714    2.857    0.000    6.667    2.286 
#    3.429    0.000    0.000    0.000    0.000    0.000 
#    0.000    0.000    0.000    0.000    0.000    0.000 
#
# Total GULP energy -116901.277969 kJ/mol
# GULP energy per Si atom -5566.727522 kJ/mol
# Density = 1.986513 g / cm^3
# Si number density = 19.910442 Si / 1000 Ang^3
#
#
#
# Elastic Constant Matrix: (Units=GPa)
#
#
# Indices 1 2 3 4 5 6 
#
# 1 68.7809 30.3380 25.4070 0.0000 0.0000 0.0000
# 2 30.3380 146.4746 54.1343 0.0000 0.0000 0.0000
# 3 25.4070 54.1343 82.0256 0.0000 0.0000 0.0000
# 4 0.0000 0.0000 0.0000 28.6367 0.0000 0.0000
# 5 0.0000 0.0000 0.0000 0.0000 -14.8498 0.0000
# 6 0.0000 0.0000 0.0000 0.0000 0.0000 14.1026
#
#
#
# Elastic Compliance Matrix: (Units=1/GPa)
#
#
# Indices 1 2 3 4 5 6 
#
# 1 0.016878 -0.002068 -0.003863 0.000000 0.000000 0.000000
# 2 -0.002068 0.009283 -0.005486 0.000000 0.000000 0.000000
# 3 -0.003863 -0.005486 0.017008 0.000000 0.000000 0.000000
# 4 0.000000 0.000000 0.000000 0.034920 0.000000 0.000000
# 5 0.000000 0.000000 0.000000 0.000000 -0.067341 0.000000
# 6 0.000000 0.000000 0.000000 0.000000 0.000000 0.070909
#
#
# Mechanical properties :
#
#
# Convention : Reuss Voigt Hill
#
# Bulk Modulus (GPa) = 49.17530 57.44887 53.31208
# Shear Modulus (GPa) = 44.93566 18.07135 31.50350
#
# Velocity S-wave (km/s) = 4.75583 3.01596 3.98208
# Velocity P-wave (km/s) = 7.41006 6.40658 6.92652
#
# Compressibility (1/GPa) = 0.02033541
#
# Stress axis : x y z
#
# Youngs Moduli (GPa) = 59.24846 107.72439 58.79460
#
# Poissons Ratio (x) = 0.22279 0.22712
# Poissons Ratio (y) = 0.12253 0.32254
# Poissons Ratio (z) = 0.22888 0.59096
#
# Static dielectric constant tensor:
#      x y z
#    x 1.701540 0.000000 0.000000 
#    y 0.000000 1.725950 0.000000 
#    z 0.000000 0.000000 1.697870 
# 
# From -- ./inp_files/8623.got.cif
#   From: 2010.05.17/outbox.cif.g08.bks.cpg/sg42_5_cif.got.tgz:8623.got - 2010.06.03 19:03:34.
