data_PCOD9369946
_publ_section_title
;
Structure prediction by ZEFSAII (Michael W. Deem and Ramdas Pophale) SiO2 
 PCOD9369946
Probable space group: F M M 2
;
_chemical_formula_sum "Si O2"
_cell_formula_units_Z 112
_cell_length_a 30.662763
_cell_length_b 13.357550
_cell_length_c 12.111227
_cell_angle_alpha 90.000000
_cell_angle_beta 90.000000
_cell_angle_gamma 90.000000
_cell_volume 4960.508966
_symmetry_space_group_name_H-M "F M M 2"
_symmetry_group_IT_number 42
_symmetry_cell_setting 'orthorhombic'
loop_
_space_group_symop_operation_xyz
x,y,z
-x,-y,z
-x,y,z
x,-y,z
x,1/2+y,1/2+z
-x,1/2-y,1/2+z
-x,1/2+y,1/2+z
x,1/2-y,1/2+z
1/2+x,y,1/2+z
1/2-x,-y,1/2+z
1/2-x,y,1/2+z
1/2+x,-y,1/2+z
1/2+x,1/2+y,z
1/2-x,1/2-y,z
1/2-x,1/2+y,z
1/2+x,1/2-y,z
loop_
_atom_site_type_symbol
_atom_site_label
_atom_site_fract_x
_atom_site_fract_y
_atom_site_fract_z
Si Si1 0.856794 0.822082 0.746560
Si Si2 0.360252 0.614337 0.495612
Si Si3 0.200925 0.710340 0.435732
Si Si4 0.452582 0.681077 0.765061
Si Si5 0.952309 0.888041 0.151899
Si Si6 0.954296 0.381409 0.008211
Si Si7 0.643993 0.885185 0.623731
O O1 0.855656 0.877791 0.628740
O O2 0.815499 0.842394 0.823753
O O3 0.903682 0.846356 0.803578
O O4 0.854616 0.704320 0.712441
O O5 0.356170 0.500000 0.461268
O O6 0.325908 0.687119 0.444090
O O7 0.408234 0.655632 0.466325
O O8 0.250000 0.750000 0.442109
O O9 0.180869 0.643193 0.534555
O O10 0.500000 0.651904 0.814707
O O11 0.452127 0.800385 0.741604
O O12 0.453651 0.637142 0.639774
O O13 0.907171 0.878380 0.084303
O O14 0.000000 0.879121 0.094894
O O15 0.950976 0.000000 0.201014
O O16 0.954251 0.500000 0.990025
O O17 0.000000 0.339038 0.966518
O O18 0.650106 0.000000 0.661280
#
# Coordination Sequence:
#
# PCOD9369946 Si02
#       7
#    16  16  16  16  16  16  16
#     4   9  19  35  55  80 108 140 175 215 263 315
#     4   9  19  37  59  81 107 140 176 214 260 317
#     4  11  24  39  53  75 107 138 176 231 281 312
#     4   8  13  24  44  71 103 136 169 204 246 301
#     4   8  13  24  47  77 105 134 166 200 245 304
#     4   8  13  24  47  77 105 134 166 200 245 304
#     4   9  19  37  59  81 107 140 176 214 260 317
#
# _framework density 22.578329
#
# number of rings (size 3 to 8) (size 9 to 14) (size 15 to 20)
#    0.000    3.143    0.000    0.857    0.000    4.000 
#    0.000    1.429    0.000    0.000    0.000    8.000 
#    0.000    0.000    0.000    0.000    0.000    0.000 
#
# Total GULP energy -155944.988635 kJ/mol
# GULP energy per Si atom -5569.463880 kJ/mol
# Density = 2.252694 g / cm^3
# Si number density = 22.578329 Si / 1000 Ang^3
#
#
#
# Elastic Constant Matrix: (Units=GPa)
#
#
# Indices 1 2 3 4 5 6 
#
# 1 180.3198 2.8777 32.1580 0.0000 0.0000 0.0000
# 2 2.8777 52.3323 -8.2295 0.0000 0.0000 0.0000
# 3 32.1580 -8.2295 60.6484 0.0000 0.0000 0.0000
# 4 0.0000 0.0000 0.0000 -32.1239 0.0000 0.0000
# 5 0.0000 0.0000 0.0000 0.0000 24.8107 0.0000
# 6 0.0000 0.0000 0.0000 0.0000 0.0000 18.6729
#
#
#
# Elastic Compliance Matrix: (Units=1/GPa)
#
#
# Indices 1 2 3 4 5 6 
#
# 1 0.006164 -0.000871 -0.003386 0.000000 0.000000 0.000000
# 2 -0.000871 0.019649 0.003128 0.000000 0.000000 0.000000
# 3 -0.003386 0.003128 0.018709 0.000000 0.000000 0.000000
# 4 0.000000 0.000000 0.000000 -0.031129 0.000000 0.000000
# 5 0.000000 0.000000 0.000000 0.000000 0.040305 0.000000
# 6 0.000000 0.000000 0.000000 0.000000 0.000000 0.053554
#
#
# Mechanical properties :
#
#
# Convention : Reuss Voigt Hill
#
# Bulk Modulus (GPa) = 23.66230 38.54590 31.10410
# Shear Modulus (GPa) = 40.45430 20.03822 30.24626
#
# Velocity S-wave (km/s) = 4.23748 2.98232 3.66405
# Velocity P-wave (km/s) = 5.86894 5.38221 5.63083
#
# Compressibility (1/GPa) = 0.04226132
#
# Stress axis : x y z
#
# Youngs Moduli (GPa) = 162.24454 50.89447 53.45151
#
# Poissons Ratio (x) = 0.04435 0.18101
# Poissons Ratio (y) = 0.14139 -0.16721
# Poissons Ratio (z) = 0.54942 -0.15921
#
# Static dielectric constant tensor:
#      x y z
#    x 1.854080 0.000000 0.000000 
#    y 0.000000 1.850500 0.000000 
#    z 0.000000 0.000000 1.879230 
# 
# From -- ./inp_files/8136.got.cif
#   From: 2010.05.17/outbox.cif.g08.bks.cpg/sg42_5_cif.got.tgz:8136.got - 2010.06.03 19:03:34.
