data_PCOD9369186
_publ_section_title
;
Structure prediction by ZEFSAII (Michael W. Deem and Ramdas Pophale) SiO2 
 PCOD9369186
Probable space group: F M M 2
;
_chemical_formula_sum "Si O2"
_cell_formula_units_Z 88
_cell_length_a 29.769568
_cell_length_b 22.078512
_cell_length_c 5.627038
_cell_angle_alpha 90.000000
_cell_angle_beta 90.000000
_cell_angle_gamma 90.000000
_cell_volume 3698.470686
_symmetry_space_group_name_H-M "F M M 2"
_symmetry_group_IT_number 42
_symmetry_cell_setting 'orthorhombic'
loop_
_space_group_symop_operation_xyz
x,y,z
-x,-y,z
-x,y,z
x,-y,z
x,1/2+y,1/2+z
-x,1/2-y,1/2+z
-x,1/2+y,1/2+z
x,1/2-y,1/2+z
1/2+x,y,1/2+z
1/2-x,-y,1/2+z
1/2-x,y,1/2+z
1/2+x,-y,1/2+z
1/2+x,1/2+y,z
1/2-x,1/2-y,z
1/2-x,1/2+y,z
1/2+x,1/2-y,z
loop_
_atom_site_type_symbol
_atom_site_label
_atom_site_fract_x
_atom_site_fract_y
_atom_site_fract_z
Si Si1 0.234958 0.568986 0.017490
Si Si2 0.418466 0.160841 0.413330
Si Si3 0.346731 0.764589 0.948880
Si Si4 0.000000 0.787126 0.664743
Si Si5 0.950702 0.065778 0.274712
Si Si6 0.134274 0.400853 0.057774
O O1 0.253790 0.500000 0.011911
O O2 0.251741 0.597863 0.264684
O O3 0.181396 0.567173 0.033133
O O4 0.391497 0.222196 0.471145
O O5 0.454343 0.175317 0.206231
O O6 0.445331 0.125025 0.612487
O O7 0.379768 0.115064 0.325832
O O8 0.323323 0.745478 0.703896
O O9 0.359557 0.834759 0.937922
O O10 0.000000 0.755500 0.406179
O O11 0.908159 0.066918 0.445094
O O12 0.000000 0.068558 0.390686
O O13 0.949303 0.000000 0.145023
#
# Coordination Sequence:
#
# PCOD9369186 Si02
#       6
#    16  16  16   8  16  16
#     4  10  24  46  74 107 137 176 239 301 353 425
#     4  11  24  39  64  97 138 190 238 293 347 417
#     4  10  20  37  61  97 130 176 223 285 334 410
#     4  12  26  40  67 100 141 188 252 298 346 398
#     4  11  25  42  62  97 145 193 243 288 348 425
#     4  11  24  42  70  99 140 185 234 293 371 413
#
# _framework density 23.793617000000001
#
# number of rings (size 3 to 8) (size 9 to 14) (size 15 to 20)
#    0.000    1.273    2.727    2.727    6.364    1.455 
#    0.000    1.818    0.000   13.091    0.000    0.000 
#    0.000    0.000    0.000    0.000    0.000    0.000 
#
# Total GULP energy -122833.520004 kJ/mol
# GULP energy per Si atom -5583.341818 kJ/mol
# Density = 2.373946 g / cm^3
# Si number density = 23.793617 Si / 1000 Ang^3
#
#
#
# Elastic Constant Matrix: (Units=GPa)
#
#
# Indices 1 2 3 4 5 6 
#
# 1 100.0538 5.2751 32.7770 0.0007 -0.0007 -0.0006
# 2 5.2751 88.8631 22.9168 -0.0050 -0.0001 0.0042
# 3 32.7770 22.9168 138.3835 -0.0030 -0.0010 0.0152
# 4 0.0007 -0.0050 -0.0030 11.5873 -0.0007 -0.0054
# 5 -0.0007 -0.0001 -0.0010 -0.0007 22.3867 -0.0202
# 6 -0.0006 0.0042 0.0152 -0.0054 -0.0202 -49.9691
#
#
#
# Elastic Compliance Matrix: (Units=1/GPa)
#
#
# Indices 1 2 3 4 5 6 
#
# 1 0.010835 0.000019 -0.002570 -0.000001 0.000000 -0.000001
# 2 0.000019 0.011755 -0.001951 0.000005 0.000000 0.000000
# 3 -0.002570 -0.001951 0.008158 0.000001 0.000000 0.000002
# 4 -0.000001 0.000005 0.000001 0.086302 0.000003 -0.000009
# 5 0.000000 0.000000 0.000000 0.000003 0.044669 -0.000018
# 6 -0.000001 0.000000 0.000002 -0.000009 -0.000018 -0.020012
#
#
# Mechanical properties :
#
#
# Convention : Reuss Voigt Hill
#
# Bulk Modulus (GPa) = 45.98596 49.91538 47.95067
# Shear Modulus (GPa) = 31.65380 14.55641 23.10510
#
# Velocity S-wave (km/s) = 3.65135 2.47610 3.11957
# Velocity P-wave (km/s) = 6.09471 5.40359 5.75952
#
# Compressibility (1/GPa) = 0.02174577
#
# Stress axis : x y z
#
# Youngs Moduli (GPa) = 92.29010 85.06771 122.57782
#
# Poissons Ratio (x) = -0.00166 0.31498
# Poissons Ratio (y) = -0.00180 0.23919
# Poissons Ratio (z) = 0.23715 0.16600
#
# Static dielectric constant tensor:
#      x y z
#    x 1.842150 0.000000 0.000000 
#    y 0.000000 1.948630 0.000000 
#    z 0.000000 0.000000 1.996090 
# 
# From -- ./inp_files/1024.got.cif
#   From: 2010.05.17/outbox.cif.g08.bks.cpg/sg42_1_cif.got.tgz:1024.got - 2010.06.03 19:03:34.
