data_PCOD9369826
_publ_section_title
;
Structure prediction by ZEFSAII (Michael W. Deem and Ramdas Pophale) SiO2 
 PCOD9369826
Probable space group: F M M 2
;
_chemical_formula_sum "Si O2"
_cell_formula_units_Z 116
_cell_length_a 28.499454
_cell_length_b 7.673717
_cell_length_c 23.520132
_cell_angle_alpha 90.000000
_cell_angle_beta 90.000000
_cell_angle_gamma 90.000000
_cell_volume 5143.776302
_symmetry_space_group_name_H-M "F M M 2"
_symmetry_group_IT_number 42
_symmetry_cell_setting 'orthorhombic'
loop_
_space_group_symop_operation_xyz
x,y,z
-x,-y,z
-x,y,z
x,-y,z
x,1/2+y,1/2+z
-x,1/2-y,1/2+z
-x,1/2+y,1/2+z
x,1/2-y,1/2+z
1/2+x,y,1/2+z
1/2-x,-y,1/2+z
1/2-x,y,1/2+z
1/2+x,-y,1/2+z
1/2+x,1/2+y,z
1/2-x,1/2-y,z
1/2-x,1/2+y,z
1/2+x,1/2-y,z
loop_
_atom_site_type_symbol
_atom_site_label
_atom_site_fract_x
_atom_site_fract_y
_atom_site_fract_z
Si Si1 0.880727 0.703053 0.159320
Si Si2 0.893505 0.713128 0.286575
Si Si3 0.000000 0.500000 0.014817
Si Si4 0.851355 0.787747 0.963052
Si Si5 0.195247 0.292219 0.579909
Si Si6 0.552804 0.788338 0.397324
Si Si7 0.950450 0.813607 0.065722
Si Si8 0.802017 0.208217 0.852505
O O1 0.893784 0.500000 0.157590
O O2 0.894275 0.771070 0.221408
O O3 0.827199 0.720852 0.138325
O O4 0.909746 0.795435 0.110081
O O5 0.893915 0.500000 0.285461
O O6 0.933064 0.763196 0.332559
O O7 0.843785 0.771779 0.312536
O O8 0.959638 0.652684 0.025065
O O9 0.901711 0.739656 0.935312
O O10 0.813102 0.729558 0.916385
O O11 0.851025 0.000000 0.965242
O O12 0.835107 0.726727 0.025270
O O13 0.190638 0.500000 0.581533
O O14 0.250000 0.250000 0.573017
O O15 0.500000 0.720488 0.411864
O O16 0.550561 0.000000 0.398588
O O17 0.000000 0.815460 0.099279
O O18 0.946366 0.000000 0.035003
O O19 0.750000 0.250000 0.833652
O O20 0.806492 0.000000 0.853794
#
# Coordination Sequence:
#
# PCOD9369826 Si02
#       8
#    16  16   4  16  16  16  16  16
#     4  11  20  35  53  75 111 154 192 236 286 340
#     4   8  17  29  46  73 106 139 175 218 274 336
#     4   8  14  32  52  78 104 140 182 232 288 326
#     4   8  16  31  51  74 104 133 171 226 284 339
#     4  11  23  38  54  76 104 144 191 242 294 349
#     4   8  13  26  50  81 109 137 172 218 274 340
#     4   9  17  31  52  78 105 141 186 232 277 332
#     4   9  16  30  50  73  97 127 165 218 279 340
#
# _framework density 22.551524000000001
#
# number of rings (size 3 to 8) (size 9 to 14) (size 15 to 20)
#    0.414    2.483    0.690    2.897    0.000    1.103 
#    0.000    5.517    0.000    2.483    0.000    0.000 
#    0.000   18.207    0.000    0.000    0.000    0.000 
#
# Total GULP energy -161474.068175 kJ/mol
# GULP energy per Si atom -5568.071316 kJ/mol
# Density = 2.250020 g / cm^3
# Si number density = 22.551524 Si / 1000 Ang^3
#
#
#
# Elastic Constant Matrix: (Units=GPa)
#
#
# Indices 1 2 3 4 5 6 
#
# 1 128.3083 -5.3761 43.6901 -0.0001 0.0000 0.0002
# 2 -5.3761 73.8904 7.3954 0.0000 0.0000 0.0003
# 3 43.6901 7.3954 103.6662 0.0001 0.0000 -0.0001
# 4 -0.0001 0.0000 0.0001 25.4982 0.0000 0.0001
# 5 0.0000 0.0000 0.0000 0.0000 23.1703 0.0000
# 6 0.0002 0.0003 -0.0001 0.0001 0.0000 23.9073
#
#
#
# Elastic Compliance Matrix: (Units=1/GPa)
#
#
# Indices 1 2 3 4 5 6 
#
# 1 0.009182 0.001063 -0.003945 0.000000 0.000000 0.000000
# 2 0.001063 0.013754 -0.001429 0.000000 0.000000 0.000000
# 3 -0.003945 -0.001429 0.011411 0.000000 0.000000 0.000000
# 4 0.000000 0.000000 0.000000 0.039218 0.000000 0.000000
# 5 0.000000 0.000000 0.000000 0.000000 0.043159 0.000000
# 6 0.000000 0.000000 0.000000 0.000000 0.000000 0.041828
#
#
# Mechanical properties :
#
#
# Convention : Reuss Voigt Hill
#
# Bulk Modulus (GPa) = 38.87513 44.14263 41.50888
# Shear Modulus (GPa) = 28.44952 31.85887 30.15420
#
# Velocity S-wave (km/s) = 3.55566 3.76269 3.66064
# Velocity P-wave (km/s) = 5.84232 6.20433 6.02605
#
# Compressibility (1/GPa) = 0.02572339
#
# Stress axis : x y z
#
# Youngs Moduli (GPa) = 108.91200 72.70652 87.63386
#
# Poissons Ratio (x) = -0.07728 0.34576
# Poissons Ratio (y) = -0.11576 0.12524
# Poissons Ratio (z) = 0.42971 0.10391
#
# Static dielectric constant tensor:
#      x y z
#    x 1.882260 0.000000 0.000000 
#    y 0.000000 1.832630 0.000000 
#    z 0.000000 0.000000 1.854390 
# 
# From -- ./inp_files/30749.got.cif
#   From: 2010.05.17/outbox.cif.g08.bks.cpg/sg42_16_cif.got.tgz:30749.got - 2010.06.03 19:03:34.
