data_PCOD9369849
_publ_section_title
;
Structure prediction by ZEFSAII (Michael W. Deem and Ramdas Pophale) SiO2 
 PCOD9369849
Probable space group: F M M 2
;
_chemical_formula_sum "Si O2"
_cell_formula_units_Z 116
_cell_length_a 14.528871
_cell_length_b 18.162502
_cell_length_c 17.382844
_cell_angle_alpha 90.000000
_cell_angle_beta 90.000000
_cell_angle_gamma 90.000000
_cell_volume 4586.996149
_symmetry_space_group_name_H-M "F M M 2"
_symmetry_group_IT_number 42
_symmetry_cell_setting 'orthorhombic'
loop_
_space_group_symop_operation_xyz
x,y,z
-x,-y,z
-x,y,z
x,-y,z
x,1/2+y,1/2+z
-x,1/2-y,1/2+z
-x,1/2+y,1/2+z
x,1/2-y,1/2+z
1/2+x,y,1/2+z
1/2-x,-y,1/2+z
1/2-x,y,1/2+z
1/2+x,-y,1/2+z
1/2+x,1/2+y,z
1/2-x,1/2-y,z
1/2-x,1/2+y,z
1/2+x,1/2-y,z
loop_
_atom_site_type_symbol
_atom_site_label
_atom_site_fract_x
_atom_site_fract_y
_atom_site_fract_z
Si Si1 0.860561 0.419230 0.501370
Si Si2 0.500000 0.500000 0.450948
Si Si3 0.860541 0.833357 0.148593
Si Si4 0.365963 0.917337 0.797026
Si Si5 0.354440 0.615838 0.509433
Si Si6 0.158191 0.379144 0.333746
Si Si7 0.362664 0.165937 0.170951
Si Si8 0.895399 0.771250 0.393017
O O1 0.888117 0.500000 0.528271
O O2 0.888747 0.357755 0.563012
O O3 0.749136 0.412961 0.503711
O O4 0.885532 0.411271 0.411419
O O5 0.420524 0.563841 0.461834
O O6 0.886661 0.897089 0.208693
O O7 0.748981 0.831409 0.160060
O O8 0.893226 0.751139 0.169139
O O9 0.257000 0.915769 0.817337
O O10 0.398024 0.842822 0.838793
O O11 0.401559 0.000000 0.814440
O O12 0.391111 0.621337 0.595817
O O13 0.357388 0.697344 0.472992
O O14 0.111849 0.374170 0.250184
O O15 0.165168 0.293227 0.357286
O O16 0.000000 0.744069 0.401752
#
# Coordination Sequence:
#
# PCOD9369849 Si02
#       8
#    16   4  16  16  16  16  16  16
#     4  11  21  35  63  97 126 161 210 270 326 383
#     4  12  24  44  56  88 140 176 206 272 336 412
#     4   9  18  35  59  90 125 154 204 270 320 374
#     4  11  22  37  65  96 128 168 210 271 334 385
#     4  11  23  38  62  89 128 171 215 260 325 394
#     4  11  22  40  65  92 129 164 218 271 321 382
#     4   9  19  37  58  88 119 165 214 262 313 376
#     4  12  25  40  63  93 130 172 213 263 323 396
#
# _framework density 25.288881
#
# number of rings (size 3 to 8) (size 9 to 14) (size 15 to 20)
#    0.000    1.379    4.138    2.069    0.966    1.379 
#    3.724    0.000    0.000    1.655    0.000    0.000 
#    0.000    0.000    0.000    0.000    0.000    0.000 
#
# Total GULP energy -161911.925085 kJ/mol
# GULP energy per Si atom -5583.169831 kJ/mol
# Density = 2.523132 g / cm^3
# Si number density = 25.288881 Si / 1000 Ang^3
#
#
#
# Elastic Constant Matrix: (Units=GPa)
#
#
# Indices 1 2 3 4 5 6 
#
# 1 98.6483 14.6091 -18.6206 0.0000 0.0000 0.0000
# 2 14.6091 131.5759 31.3549 0.0000 0.0000 0.0000
# 3 -18.6206 31.3549 165.8057 0.0000 0.0000 0.0000
# 4 0.0000 0.0000 0.0000 40.2641 0.0000 0.0000
# 5 0.0000 0.0000 0.0000 0.0000 -51.0491 0.0000
# 6 0.0000 0.0000 0.0000 0.0000 0.0000 -105.4612
#
#
#
# Elastic Compliance Matrix: (Units=1/GPa)
#
#
# Indices 1 2 3 4 5 6 
#
# 1 0.010645 -0.001536 0.001486 0.000000 0.000000 0.000000
# 2 -0.001536 0.008180 -0.001719 0.000000 0.000000 0.000000
# 3 0.001486 -0.001719 0.006523 0.000000 0.000000 0.000000
# 4 0.000000 0.000000 0.000000 0.024836 0.000000 0.000000
# 5 0.000000 0.000000 0.000000 0.000000 -0.019589 0.000000
# 6 0.000000 0.000000 0.000000 0.000000 0.000000 -0.009482
#
#
# Mechanical properties :
#
#
# Convention : Reuss Voigt Hill
#
# Bulk Modulus (GPa) = 45.85154 50.07963 47.96559
# Shear Modulus (GPa) = 156.62923 1.32986 78.97955
#
# Velocity S-wave (km/s) = 7.87848 0.72595 5.59453
# Velocity P-wave (km/s) = 10.04645 4.53307 7.79358
#
# Compressibility (1/GPa) = 0.02180952
#
# Stress axis : x y z
#
# Youngs Moduli (GPa) = 93.94095 122.24214 153.29898
#
# Poissons Ratio (x) = 0.18777 -0.22779
# Poissons Ratio (y) = 0.14430 0.26360
# Poissons Ratio (z) = -0.13959 0.21019
#
# Static dielectric constant tensor:
#      x y z
#    x 2.125130 0.000000 0.000000 
#    y 0.000000 1.933760 0.000000 
#    z 0.000000 0.000000 2.056130 
# 
# From -- ./inp_files/20952.got.cif
#   From: 2010.05.17/outbox.cif.g08.bks.cpg/sg42_11_cif.got.tgz:20952.got - 2010.06.03 19:03:34.
