data_PCOD9369757
_publ_section_title
;
Structure prediction by ZEFSAII (Michael W. Deem and Ramdas Pophale) SiO2 
 PCOD9369757
Probable space group: F M M 2
;
_chemical_formula_sum "Si O2"
_cell_formula_units_Z 68
_cell_length_a 17.884125
_cell_length_b 9.730706
_cell_length_c 20.284904
_cell_angle_alpha 90.000000
_cell_angle_beta 90.000000
_cell_angle_gamma 90.000000
_cell_volume 3530.083714
_symmetry_space_group_name_H-M "F M M 2"
_symmetry_group_IT_number 42
_symmetry_cell_setting 'orthorhombic'
loop_
_space_group_symop_operation_xyz
x,y,z
-x,-y,z
-x,y,z
x,-y,z
x,1/2+y,1/2+z
-x,1/2-y,1/2+z
-x,1/2+y,1/2+z
x,1/2-y,1/2+z
1/2+x,y,1/2+z
1/2-x,-y,1/2+z
1/2-x,y,1/2+z
1/2+x,-y,1/2+z
1/2+x,1/2+y,z
1/2-x,1/2-y,z
1/2-x,1/2+y,z
1/2+x,1/2-y,z
loop_
_atom_site_type_symbol
_atom_site_label
_atom_site_fract_x
_atom_site_fract_y
_atom_site_fract_z
Si Si1 0.500000 0.500000 0.068321
Si Si2 0.324157 0.842090 0.176983
Si Si3 0.911028 0.341123 0.780659
Si Si4 0.175095 0.660959 0.918518
Si Si5 0.417133 0.719768 0.549474
O O1 0.435868 0.378182 0.065889
O O2 0.250000 0.750000 0.173101
O O3 0.377446 0.767113 0.229708
O O4 0.366399 0.839594 0.107234
O O5 0.307755 0.000000 0.195686
O O6 0.898007 0.500000 0.758632
O O7 0.871241 0.322763 0.850963
O O8 0.000000 0.323670 0.786676
O O9 0.193873 0.500000 0.925567
O O10 0.250000 0.750000 0.916125
O O11 0.124261 0.704412 0.980167
O O12 0.500000 0.654683 0.546271
#
# Coordination Sequence:
#
# PCOD9369757 Si02
#       5
#     4  16  16  16  16
#     4   8  24  40  66  96 124 168 204 254 328 352
#     4  12  26  41  64  94 127 166 208 260 313 369
#     4  10  23  43  67  91 126 167 208 256 313 374
#     4  11  24  41  64  94 128 167 209 258 312 369
#     4  10  23  41  66  92 125 163 209 253 311 373
#
# _framework density 19.262999000000001
#
# number of rings (size 3 to 8) (size 9 to 14) (size 15 to 20)
#    0.706    0.706    0.000    4.235    4.941    7.059 
#    0.000    0.000    0.000    0.000    0.000    0.000 
#    0.000    0.000    0.000    0.000    0.000    0.000 
#
# Total GULP energy -94706.461151 kJ/mol
# GULP energy per Si atom -5570.968303 kJ/mol
# Density = 1.921916 g / cm^3
# Si number density = 19.262999 Si / 1000 Ang^3
#
#
#
# Elastic Constant Matrix: (Units=GPa)
#
#
# Indices 1 2 3 4 5 6 
#
# 1 138.0051 65.3764 30.6201 0.0000 0.0000 0.0000
# 2 65.3764 146.1362 32.1987 0.0000 0.0000 0.0000
# 3 30.6201 32.1987 64.8741 0.0000 0.0000 0.0000
# 4 0.0000 0.0000 0.0000 5.1233 0.0000 0.0000
# 5 0.0000 0.0000 0.0000 0.0000 32.3698 0.0000
# 6 0.0000 0.0000 0.0000 0.0000 0.0000 28.7006
#
#
#
# Elastic Compliance Matrix: (Units=1/GPa)
#
#
# Indices 1 2 3 4 5 6 
#
# 1 0.009596 -0.003700 -0.002693 0.000000 0.000000 0.000000
# 2 -0.003700 0.009109 -0.002775 0.000000 0.000000 0.000000
# 3 -0.002693 -0.002775 0.018063 0.000000 0.000000 0.000000
# 4 0.000000 0.000000 0.000000 0.195188 0.000000 0.000000
# 5 0.000000 0.000000 0.000000 0.000000 0.030893 0.000000
# 6 0.000000 0.000000 0.000000 0.000000 0.000000 0.034843
#
#
# Mechanical properties :
#
#
# Convention : Reuss Voigt Hill
#
# Bulk Modulus (GPa) = 54.25054 67.26731 60.75892
# Shear Modulus (GPa) = 15.51964 27.96007 21.73985
#
# Velocity S-wave (km/s) = 2.84151 3.81398 3.36308
# Velocity P-wave (km/s) = 6.24418 7.37506 6.83306
#
# Compressibility (1/GPa) = 0.01843300
#
# Stress axis : x y z
#
# Youngs Moduli (GPa) = 104.20714 109.77585 55.36192
#
# Poissons Ratio (x) = 0.40613 0.14910
# Poissons Ratio (y) = 0.38553 0.15363
# Poissons Ratio (z) = 0.28064 0.30463
#
# Static dielectric constant tensor:
#      x y z
#    x 1.649270 0.000000 0.000000 
#    y 0.000000 1.667790 0.000000 
#    z 0.000000 0.000000 1.651600 
# 
# From -- ./inp_files/21380.got.cif
#   From: 2010.05.17/outbox.cif.g08.bks.cpg/sg42_11_cif.got.tgz:21380.got - 2010.06.03 19:03:34.
