data_PCOD9369416
_publ_section_title
;
Structure prediction by ZEFSAII (Michael W. Deem and Ramdas Pophale) SiO2 
 PCOD9369416
Probable space group: F M M 2
;
_chemical_formula_sum "Si O2"
_cell_formula_units_Z 112
_cell_length_a 29.797642
_cell_length_b 13.998237
_cell_length_c 13.887976
_cell_angle_alpha 90.000000
_cell_angle_beta 90.000000
_cell_angle_gamma 90.000000
_cell_volume 5792.875537
_symmetry_space_group_name_H-M "F M M 2"
_symmetry_group_IT_number 42
_symmetry_cell_setting 'orthorhombic'
loop_
_space_group_symop_operation_xyz
x,y,z
-x,-y,z
-x,y,z
x,-y,z
x,1/2+y,1/2+z
-x,1/2-y,1/2+z
-x,1/2+y,1/2+z
x,1/2-y,1/2+z
1/2+x,y,1/2+z
1/2-x,-y,1/2+z
1/2-x,y,1/2+z
1/2+x,-y,1/2+z
1/2+x,1/2+y,z
1/2-x,1/2-y,z
1/2-x,1/2+y,z
1/2+x,1/2-y,z
loop_
_atom_site_type_symbol
_atom_site_label
_atom_site_fract_x
_atom_site_fract_y
_atom_site_fract_z
Si Si1 0.353086 0.281886 0.241190
Si Si2 0.697308 0.767918 0.544120
Si Si3 0.355285 0.889186 0.928641
Si Si4 0.952211 0.113361 0.889262
Si Si5 0.146702 0.387332 0.392848
Si Si6 0.951023 0.740303 0.196776
Si Si7 0.450926 0.612641 0.505513
O O1 0.320766 0.286480 0.150667
O O2 0.341151 0.358657 0.322308
O O3 0.349902 0.179788 0.298012
O O4 0.404599 0.296722 0.207058
O O5 0.750000 0.750000 0.542076
O O6 0.671182 0.675244 0.503969
O O7 0.682370 0.851442 0.470751
O O8 0.348489 0.000000 0.947123
O O9 0.408464 0.866967 0.938939
O O10 0.903681 0.132117 0.935577
O O11 0.952016 0.170506 0.789393
O O12 0.000000 0.136292 0.939773
O O13 0.952568 0.000000 0.869762
O O14 0.150673 0.500000 0.372058
O O15 0.947701 0.675497 0.101286
O O16 0.000000 0.790215 0.194406
O O17 0.500000 0.629901 0.460157
O O18 0.448843 0.500000 0.531146
#
# Coordination Sequence:
#
# PCOD9369416 Si02
#       7
#    16  16  16  16  16  16  16
#     4  10  21  37  58  87 118 151 192 236 289 342
#     4  11  24  42  60  81 112 148 192 249 301 347
#     4  10  22  40  61  87 119 154 192 236 289 350
#     4   8  13  24  47  81 117 148 179 221 271 324
#     4   9  20  38  61  87 116 149 187 233 285 346
#     4   9  15  26  48  81 117 153 191 227 269 329
#     4   9  16  28  52  85 119 155 193 232 274 330
#
# _framework density 19.334094
#
# number of rings (size 3 to 8) (size 9 to 14) (size 15 to 20)
#    0.000    2.571    1.429    0.429    0.000    6.857 
#    0.000    2.857    0.000    0.000    0.000    4.000 
#    0.000    0.000    0.000    0.000    0.000    0.000 
#
# Total GULP energy -156130.104385 kJ/mol
# GULP energy per Si atom -5576.075157 kJ/mol
# Density = 1.929009 g / cm^3
# Si number density = 19.334094 Si / 1000 Ang^3
#
#
#
# Elastic Constant Matrix: (Units=GPa)
#
#
# Indices 1 2 3 4 5 6 
#
# 1 106.4012 -17.9296 23.5523 0.0000 0.0000 0.0000
# 2 -17.9296 39.9565 -15.3469 0.0000 0.0000 0.0000
# 3 23.5523 -15.3469 60.6767 0.0000 0.0000 0.0000
# 4 0.0000 0.0000 0.0000 5.0383 0.0000 0.0000
# 5 0.0000 0.0000 0.0000 0.0000 65.8768 0.0000
# 6 0.0000 0.0000 0.0000 0.0000 0.0000 16.0821
#
#
#
# Elastic Compliance Matrix: (Units=1/GPa)
#
#
# Indices 1 2 3 4 5 6 
#
# 1 0.010720 0.003558 -0.003261 0.000000 0.000000 0.000000
# 2 0.003558 0.028901 0.005929 0.000000 0.000000 0.000000
# 3 -0.003261 0.005929 0.019246 0.000000 0.000000 0.000000
# 4 0.000000 0.000000 0.000000 0.198479 0.000000 0.000000
# 5 0.000000 0.000000 0.000000 0.000000 0.015180 0.000000
# 6 0.000000 0.000000 0.000000 0.000000 0.000000 0.062181
#
#
# Mechanical properties :
#
#
# Convention : Reuss Voigt Hill
#
# Bulk Modulus (GPa) = 14.02175 20.84288 17.43232
# Shear Modulus (GPa) = 14.44967 31.85002 23.14985
#
# Velocity S-wave (km/s) = 2.73677 4.06316 3.46404
# Velocity P-wave (km/s) = 4.15387 5.72854 5.00354
#
# Compressibility (1/GPa) = 0.07131780
#
# Stress axis : x y z
#
# Youngs Moduli (GPa) = 93.28574 34.60103 51.95826
#
# Poissons Ratio (x) = -0.12310 0.16944
# Poissons Ratio (y) = -0.33188 -0.30806
# Poissons Ratio (z) = 0.30422 -0.20515
#
# Static dielectric constant tensor:
#      x y z
#    x 1.714920 0.000000 0.000000 
#    y 0.000000 1.676550 0.000000 
#    z 0.000000 0.000000 1.644630 
# 
# From -- ./inp_files/8135.got.cif
#   From: 2010.05.17/outbox.cif.g08.bks.cpg/sg42_5_cif.got.tgz:8135.got - 2010.06.03 19:03:34.
