data_PCOD9369510
_publ_section_title
;
Structure prediction by ZEFSAII (Michael W. Deem and Ramdas Pophale) SiO2 
 PCOD9369510
Probable space group: F M M 2
;
_chemical_formula_sum "Si O2"
_cell_formula_units_Z 116
_cell_length_a 17.263049
_cell_length_b 17.258957
_cell_length_c 17.244436
_cell_angle_alpha 90.000000
_cell_angle_beta 90.000000
_cell_angle_gamma 90.000000
_cell_volume 5137.845551
_symmetry_space_group_name_H-M "F M M 2"
_symmetry_group_IT_number 42
_symmetry_cell_setting 'orthorhombic'
loop_
_space_group_symop_operation_xyz
x,y,z
-x,-y,z
-x,y,z
x,-y,z
x,1/2+y,1/2+z
-x,1/2-y,1/2+z
-x,1/2+y,1/2+z
x,1/2-y,1/2+z
1/2+x,y,1/2+z
1/2-x,-y,1/2+z
1/2-x,y,1/2+z
1/2+x,-y,1/2+z
1/2+x,1/2+y,z
1/2-x,1/2-y,z
1/2-x,1/2+y,z
1/2+x,1/2-y,z
loop_
_atom_site_type_symbol
_atom_site_label
_atom_site_fract_x
_atom_site_fract_y
_atom_site_fract_z
Si Si1 0.585879 0.801244 0.119940
Si Si2 0.000000 0.000000 0.491702
Si Si3 0.413971 0.876156 0.648621
Si Si4 0.156872 0.410694 0.805194
Si Si5 0.178642 0.408317 0.227874
Si Si6 0.702303 0.908905 0.511702
Si Si7 0.626214 0.638748 0.470673
Si Si8 0.914476 0.906436 0.882156
O O1 0.500000 0.833868 0.136352
O O2 0.590823 0.716380 0.155291
O O3 0.650305 0.856847 0.156745
O O4 0.595495 0.794238 0.027178
O O5 0.068321 0.067663 0.489150
O O6 0.500000 0.896956 0.617963
O O7 0.402507 0.909436 0.734240
O O8 0.344408 0.900605 0.591991
O O9 0.165065 0.500000 0.833939
O O10 0.238725 0.388274 0.766160
O O11 0.131671 0.358260 0.877496
O O12 0.180760 0.500000 0.207507
O O13 0.116349 0.394930 0.295736
O O14 0.786104 0.873150 0.499927
O O15 0.646423 0.876995 0.444552
O O16 0.713842 0.000000 0.498796
O O17 0.000000 0.874463 0.893218
O O18 0.917680 0.000000 0.892740
#
# Coordination Sequence:
#
# PCOD9369510 Si02
#       8
#    16   4  16  16  16  16  16  16
#     4  11  26  45  63  92 137 178 228 278 331 402
#     4  12  24  40  72 108 134 172 220 284 344 404
#     4  11  27  46  63  93 137 183 226 275 334 402
#     4  11  23  42  69 102 134 170 222 281 335 399
#     4  10  21  38  65  98 130 166 216 276 335 390
#     4  11  21  40  67  97 132 166 220 278 328 394
#     4  12  24  42  71 102 135 171 220 282 343 401
#     4   9  17  32  57  91 127 163 204 256 319 383
#
# _framework density 22.577556000000001
#
# number of rings (size 3 to 8) (size 9 to 14) (size 15 to 20)
#    0.000    1.241    3.448    2.069    1.931    5.793 
#    2.483    1.379    0.000    0.000    0.000    0.000 
#    0.000    0.000    0.000    0.000    0.000    0.000 
#
# Total GULP energy -161815.232575 kJ/mol
# GULP energy per Si atom -5579.835606 kJ/mol
# Density = 2.252617 g / cm^3
# Si number density = 22.577556 Si / 1000 Ang^3
#
#
#
# Elastic Constant Matrix: (Units=GPa)
#
#
# Indices 1 2 3 4 5 6 
#
# 1 132.2606 3.6125 20.5694 0.0000 0.0000 0.0000
# 2 3.6125 32.1948 17.5659 0.0000 0.0000 0.0000
# 3 20.5694 17.5659 104.0724 0.0000 0.0000 0.0000
# 4 0.0000 0.0000 0.0000 0.5259 0.0000 0.0000
# 5 0.0000 0.0000 0.0000 0.0000 27.6850 0.0000
# 6 0.0000 0.0000 0.0000 0.0000 0.0000-1706.3647
#
#
#
# Elastic Compliance Matrix: (Units=1/GPa)
#
#
# Indices 1 2 3 4 5 6 
#
# 1 0.007801 -0.000038 -0.001535 0.000000 0.000000 0.000000
# 2 -0.000038 0.034212 -0.005767 0.000000 0.000000 0.000000
# 3 -0.001535 -0.005767 0.010886 0.000000 0.000000 0.000000
# 4 0.000000 0.000000 0.000000 1.901425 0.000000 0.000000
# 5 0.000000 0.000000 0.000000 0.000000 0.036121 0.000000
# 6 0.000000 0.000000 0.000000 0.000000 0.000000 -0.000586
#
#
# Mechanical properties :
#
#
# Convention : Reuss Voigt Hill
#
# Bulk Modulus (GPa) = 26.16571 39.11371 32.63971
# Shear Modulus (GPa) = 2.47859 -320.51209 -159.01675
#
# Velocity S-wave (km/s) = 1.04890 -11.92764 -8.40144
# Velocity P-wave (km/s) = 3.61681 13.12744 8.92324
#
# Compressibility (1/GPa) = 0.03821796
#
# Stress axis : x y z
#
# Youngs Moduli (GPa) = 128.19446 29.22975 91.86490
#
# Poissons Ratio (x) = 0.00110 0.14105
# Poissons Ratio (y) = 0.00481 0.52979
# Poissons Ratio (z) = 0.19683 0.16857
#
# Static dielectric constant tensor:
#      x y z
#    x 1.846930 0.000000 0.000000 
#    y 0.000000 1.824540 0.000000 
#    z 0.000000 0.000000 1.859480 
# 
# From -- ./inp_files/20974.got.cif
#   From: 2010.05.17/outbox.cif.g08.bks.cpg/sg42_11_cif.got.tgz:20974.got - 2010.06.03 19:03:34.
