data_PCOD9369746
_publ_section_title
;
Structure prediction by ZEFSAII (Michael W. Deem and Ramdas Pophale) SiO2 
 PCOD9369746
Probable space group: F M M 2
;
_chemical_formula_sum "Si O2"
_cell_formula_units_Z 96
_cell_length_a 21.756334
_cell_length_b 23.008013
_cell_length_c 8.910214
_cell_angle_alpha 90.000000
_cell_angle_beta 90.000000
_cell_angle_gamma 90.000000
_cell_volume 4460.185960
_symmetry_space_group_name_H-M "F M M 2"
_symmetry_group_IT_number 42
_symmetry_cell_setting 'orthorhombic'
loop_
_space_group_symop_operation_xyz
x,y,z
-x,-y,z
-x,y,z
x,-y,z
x,1/2+y,1/2+z
-x,1/2-y,1/2+z
-x,1/2+y,1/2+z
x,1/2-y,1/2+z
1/2+x,y,1/2+z
1/2-x,-y,1/2+z
1/2-x,y,1/2+z
1/2+x,-y,1/2+z
1/2+x,1/2+y,z
1/2-x,1/2-y,z
1/2-x,1/2+y,z
1/2+x,1/2-y,z
loop_
_atom_site_type_symbol
_atom_site_label
_atom_site_fract_x
_atom_site_fract_y
_atom_site_fract_z
Si Si1 0.747398 0.639314 0.574420
Si Si2 0.926262 0.435302 0.350152
Si Si3 0.369536 0.823074 0.460933
Si Si4 0.686256 0.566797 0.330641
Si Si5 0.122378 0.710128 0.130345
Si Si6 0.929139 0.900969 0.506375
O O1 0.796141 0.671426 0.468448
O O2 0.720065 0.584639 0.485035
O O3 0.786540 0.612792 0.711684
O O4 0.691386 0.683129 0.610283
O O5 0.906613 0.500000 0.391167
O O6 0.896192 0.387814 0.457762
O O7 0.910520 0.424674 0.173537
O O8 0.000000 0.430728 0.358792
O O9 0.385118 0.776676 0.586736
O O10 0.392585 0.797842 0.303731
O O11 0.697259 0.500000 0.288425
O O12 0.615149 0.576407 0.375935
O O13 0.081066 0.667984 0.028002
O O14 0.000000 0.915818 0.481957
#
# Coordination Sequence:
#
# PCOD9369746 Si02
#       6
#    16  16  16  16  16  16
#     4  11  23  41  59  91 132 169 214 273 327 393
#     4   9  19  39  66  96 131 172 218 268 328 395
#     4  11  23  39  65  94 124 167 216 265 322 387
#     4  11  23  39  63  95 130 174 222 272 329 387
#     4  10  23  39  63  94 126 167 215 266 326 383
#     4   9  20  40  65  96 131 173 222 269 324 389
#
# _framework density 21.523765999999998
#
# number of rings (size 3 to 8) (size 9 to 14) (size 15 to 20)
#    0.000    1.833    1.667    1.500    4.667    4.333 
#    0.000    0.833    0.000    0.000    0.000    0.000 
#    0.000    0.000    0.000    0.000    0.000    0.000 
#
# Total GULP energy -133994.583071 kJ/mol
# GULP energy per Si atom -5583.107628 kJ/mol
# Density = 2.147478 g / cm^3
# Si number density = 21.523766 Si / 1000 Ang^3
#
#
#
# Elastic Constant Matrix: (Units=GPa)
#
#
# Indices 1 2 3 4 5 6 
#
# 1 29.2979 13.9072 21.8111 0.0001 -0.0001 -0.0001
# 2 13.9072 127.0056 27.9296 0.0000 0.0000 0.0000
# 3 21.8111 27.9296 48.7114 0.0002 -0.0003 -0.0002
# 4 0.0001 0.0000 0.0002 23.5685 -0.0001 -0.0001
# 5 -0.0001 0.0000 -0.0003 -0.0001 26.2795 0.0001
# 6 -0.0001 0.0000 -0.0002 -0.0001 0.0001 7.7109
#
#
#
# Elastic Compliance Matrix: (Units=1/GPa)
#
#
# Indices 1 2 3 4 5 6 
#
# 1 0.051245 -0.000647 -0.022575 0.000000 0.000000 0.000000
# 2 -0.000647 0.009018 -0.004881 0.000000 0.000000 0.000000
# 3 -0.022575 -0.004881 0.033436 0.000000 0.000000 0.000001
# 4 0.000000 0.000000 0.000000 0.042429 0.000000 0.000000
# 5 0.000000 0.000000 0.000000 0.000000 0.038052 0.000000
# 6 0.000000 0.000000 0.000001 0.000000 0.000000 0.129686
#
#
# Mechanical properties :
#
#
# Convention : Reuss Voigt Hill
#
# Bulk Modulus (GPa) = 26.67116 36.92341 31.79728
# Shear Modulus (GPa) = 13.42031 20.93625 17.17828
#
# Velocity S-wave (km/s) = 2.49973 3.12220 2.82814
# Velocity P-wave (km/s) = 4.55521 5.49450 5.04675
#
# Compressibility (1/GPa) = 0.03749369
#
# Stress axis : x y z
#
# Youngs Moduli (GPa) = 19.51404 110.89103 29.90819
#
# Poissons Ratio (x) = 0.07175 0.67517
# Poissons Ratio (y) = 0.01263 0.14598
# Poissons Ratio (z) = 0.44052 0.54124
#
# Static dielectric constant tensor:
#      x y z
#    x 1.792610 0.000000 0.000000 
#    y 0.000000 1.798940 0.000000 
#    z 0.000000 0.000000 1.807590 
# 
# From -- ./inp_files/4727.got.cif
#   From: 2010.05.17/outbox.cif.g08.bks.cpg/sg42_3_cif.got.tgz:4727.got - 2010.06.03 19:03:34.
