data_PCOD9369740
_publ_section_title
;
Structure prediction by ZEFSAII (Michael W. Deem and Ramdas Pophale) SiO2 
 PCOD9369740
Probable space group: F M M 2
;
_chemical_formula_sum "Si O2"
_cell_formula_units_Z 64
_cell_length_a 9.520208
_cell_length_b 23.151682
_cell_length_c 10.991797
_cell_angle_alpha 90.000000
_cell_angle_beta 90.000000
_cell_angle_gamma 90.000000
_cell_volume 2422.689096
_symmetry_space_group_name_H-M "F M M 2"
_symmetry_group_IT_number 42
_symmetry_cell_setting 'orthorhombic'
loop_
_space_group_symop_operation_xyz
x,y,z
-x,-y,z
-x,y,z
x,-y,z
x,1/2+y,1/2+z
-x,1/2-y,1/2+z
-x,1/2+y,1/2+z
x,1/2-y,1/2+z
1/2+x,y,1/2+z
1/2-x,-y,1/2+z
1/2-x,y,1/2+z
1/2+x,-y,1/2+z
1/2+x,1/2+y,z
1/2-x,1/2-y,z
1/2-x,1/2+y,z
1/2+x,1/2-y,z
loop_
_atom_site_type_symbol
_atom_site_label
_atom_site_fract_x
_atom_site_fract_y
_atom_site_fract_z
Si Si1 0.000000 0.210404 0.732940
Si Si2 0.746189 0.000000 0.227688
Si Si3 0.500000 0.661096 0.293087
Si Si4 0.000000 0.582701 0.147126
Si Si5 0.000000 0.000000 0.420080
Si Si6 0.229288 0.688458 0.437061
Si Si7 0.000000 0.500000 0.538124
Si Si8 0.500000 0.384117 0.054787
O O1 0.000000 0.153005 0.649091
O O2 0.131892 0.202247 0.821652
O O3 0.000000 0.279608 0.709037
O O4 0.639976 0.945048 0.211224
O O5 0.853712 0.000000 0.342487
O O6 0.856691 0.000000 0.115822
O O7 0.367801 0.663362 0.380016
O O8 0.500000 0.608205 0.199801
O O9 0.000000 0.554490 0.012670
O O10 0.250000 0.750000 0.502070
O O11 0.142475 0.647746 0.523228
O O12 0.000000 0.440302 0.471113
#
# Coordination Sequence:
#
# PCOD9369740 Si02
#       8
#     8   8   8   8   4  16   4   8
#     4   9  20  42  70 108 150 179 233 312 370 430
#     4   9  22  48  70  96 150 197 245 314 356 436
#     4  10  22  45  77 103 148 188 231 306 365 442
#     4  10  22  46  72 105 144 188 253 303 365 441
#     4   9  20  48  71 100 142 199 258 292 367 430
#     4   9  21  46  72 109 145 184 245 294 365 443
#     4  11  26  50  73 104 156 191 256 296 371 430
#     4  11  25  48  74 107 146 198 237 301 368 434
#
# _framework density 26.416926
#
# number of rings (size 3 to 8) (size 9 to 14) (size 15 to 20)
#    0.000    2.500    0.000    0.750    3.500    3.000 
#   18.000   16.250    5.500    0.000    0.000    0.000 
#    0.000    0.000    0.000    0.000    0.000    0.000 
#
# Total GULP energy -89584.404629 kJ/mol
# GULP energy per Si atom -5599.025289 kJ/mol
# Density = 2.635680 g / cm^3
# Si number density = 26.416926 Si / 1000 Ang^3
#
#
#
# Elastic Constant Matrix: (Units=GPa)
#
#
# Indices 1 2 3 4 5 6 
#
# 1 207.0210 29.9575 54.5720 0.0000 0.0000 0.0000
# 2 29.9575 147.9231 14.6223 0.0000 0.0000 0.0000
# 3 54.5720 14.6223 86.7513 0.0000 0.0000 0.0000
# 4 0.0000 0.0000 0.0000 18.0567 0.0000 0.0000
# 5 0.0000 0.0000 0.0000 0.0000 23.7769 0.0000
# 6 0.0000 0.0000 0.0000 0.0000 0.0000 110.2688
#
#
#
# Elastic Compliance Matrix: (Units=1/GPa)
#
#
# Indices 1 2 3 4 5 6 
#
# 1 0.005892 -0.000841 -0.003565 0.000000 0.000000 0.000000
# 2 -0.000841 0.006995 -0.000650 0.000000 0.000000 0.000000
# 3 -0.003565 -0.000650 0.013879 0.000000 0.000000 0.000000
# 4 0.000000 0.000000 0.000000 0.055381 0.000000 0.000000
# 5 0.000000 0.000000 0.000000 0.000000 0.042058 0.000000
# 6 0.000000 0.000000 0.000000 0.000000 0.000000 0.009069
#
#
# Mechanical properties :
#
#
# Convention : Reuss Voigt Hill
#
# Bulk Modulus (GPa) = 60.04292 71.11098 65.57695
# Shear Modulus (GPa) = 33.57158 53.25674 43.41416
#
# Velocity S-wave (km/s) = 3.56875 4.49487 4.05831
# Velocity P-wave (km/s) = 6.30552 7.34273 6.84380
#
# Compressibility (1/GPa) = 0.01665475
#
# Stress axis : x y z
#
# Youngs Moduli (GPa) = 169.72922 142.96297 72.05084
#
# Poissons Ratio (x) = 0.12021 0.25683
# Poissons Ratio (y) = 0.14272 0.04684
# Poissons Ratio (z) = 0.60501 0.09293
#
# Static dielectric constant tensor:
#      x y z
#    x 1.917310 0.000000 0.000000 
#    y 0.000000 2.264120 0.000000 
#    z 0.000000 0.000000 2.041820 
# 
# From -- ./inp_files/6282.got.cif
#   From: 2010.05.17/outbox.cif.g08.bks.cpg/sg42_4_cif.got.tgz:6282.got - 2010.06.03 19:03:34.
