data_PCOD9369179
_publ_section_title
;
Structure prediction by ZEFSAII (Michael W. Deem and Ramdas Pophale) SiO2 
 PCOD9369179
Probable space group: F M M 2
;
_chemical_formula_sum "Si O2"
_cell_formula_units_Z 96
_cell_length_a 8.751964
_cell_length_b 28.920956
_cell_length_c 20.792599
_cell_angle_alpha 90.000000
_cell_angle_beta 90.000000
_cell_angle_gamma 90.000000
_cell_volume 5262.922142
_symmetry_space_group_name_H-M "F M M 2"
_symmetry_group_IT_number 42
_symmetry_cell_setting 'orthorhombic'
loop_
_space_group_symop_operation_xyz
x,y,z
-x,-y,z
-x,y,z
x,-y,z
x,1/2+y,1/2+z
-x,1/2-y,1/2+z
-x,1/2+y,1/2+z
x,1/2-y,1/2+z
1/2+x,y,1/2+z
1/2-x,-y,1/2+z
1/2-x,y,1/2+z
1/2+x,-y,1/2+z
1/2+x,1/2+y,z
1/2-x,1/2-y,z
1/2-x,1/2+y,z
1/2+x,1/2-y,z
loop_
_atom_site_type_symbol
_atom_site_label
_atom_site_fract_x
_atom_site_fract_y
_atom_site_fract_z
Si Si1 0.816472 0.446754 0.517730
Si Si2 0.317984 0.301224 0.945854
Si Si3 0.181574 0.644480 0.066833
Si Si4 0.682991 0.647086 0.810657
Si Si5 0.681829 0.198440 0.688139
Si Si6 0.814134 0.448352 0.367561
O O1 0.783137 0.500000 0.534850
O O2 0.734614 0.408569 0.560351
O O3 0.772215 0.440476 0.442431
O O4 0.000000 0.440175 0.521342
O O5 0.500000 0.299820 0.957020
O O6 0.250000 0.250000 0.945101
O O7 0.291983 0.325598 0.877290
O O8 0.240934 0.330209 0.002604
O O9 0.255295 0.669984 0.127503
O O10 0.000000 0.647556 0.070954
O O11 0.500000 0.647107 0.798149
O O12 0.766532 0.672214 0.752655
O O13 0.734987 0.594354 0.823723
O O14 0.500000 0.201404 0.684856
O O15 0.750000 0.250000 0.687722
O O16 0.763343 0.500000 0.348759
O O17 0.000000 0.448286 0.366809
#
# Coordination Sequence:
#
# PCOD9369179 Si02
#       6
#    16  16  16  16  16  16
#     4   9  17  34  61  91 122 157 196 240 295 351
#     4  11  22  37  58  86 118 152 194 246 299 353
#     4  12  24  39  60  87 120 156 200 246 295 353
#     4  10  20  37  61  89 120 154 196 241 293 354
#     4  12  26  44  63  83 115 157 202 248 304 361
#     4   8  14  29  57  90 121 154 191 233 285 343
#
# _framework density 18.240815999999999
#
# number of rings (size 3 to 8) (size 9 to 14) (size 15 to 20)
#    0.000    1.667    1.667    5.500    0.000    3.000 
#    0.000    0.833    0.000    3.500    0.000    0.000 
#    0.000    0.000    0.000    0.000    0.000    0.000 
#
# Total GULP energy -134089.451021 kJ/mol
# GULP energy per Si atom -5587.060459 kJ/mol
# Density = 1.819930 g / cm^3
# Si number density = 18.240816 Si / 1000 Ang^3
#
#
#
# Elastic Constant Matrix: (Units=GPa)
#
#
# Indices 1 2 3 4 5 6 
#
# 1 110.7201 80.9797 79.9007 0.0000 0.0000 0.0000
# 2 80.9797 177.0888 84.2048 0.0000 0.0000 0.0000
# 3 79.9007 84.2048 113.7824 0.0000 0.0000 0.0000
# 4 0.0000 0.0000 0.0000 27.0004 0.0000 0.0000
# 5 0.0000 0.0000 0.0000 0.0000 23.2177 0.0000
# 6 0.0000 0.0000 0.0000 0.0000 0.0000 21.6996
#
#
#
# Elastic Compliance Matrix: (Units=1/GPa)
#
#
# Indices 1 2 3 4 5 6 
#
# 1 0.019821 -0.003773 -0.011126 0.000000 0.000000 0.000000
# 2 -0.003773 0.009431 -0.004330 0.000000 0.000000 0.000000
# 3 -0.011126 -0.004330 0.019806 0.000000 0.000000 0.000000
# 4 0.000000 0.000000 0.000000 0.037036 0.000000 0.000000
# 5 0.000000 0.000000 0.000000 0.000000 0.043071 0.000000
# 6 0.000000 0.000000 0.000000 0.000000 0.000000 0.046084
#
#
# Mechanical properties :
#
#
# Convention : Reuss Voigt Hill
#
# Bulk Modulus (GPa) = 94.34531 99.08465 96.71498
# Shear Modulus (GPa) = 23.01599 24.81729 23.91664
#
# Velocity S-wave (km/s) = 3.55602 3.69255 3.62492
# Velocity P-wave (km/s) = 8.28823 8.52162 8.40574
#
# Compressibility (1/GPa) = 0.01059936
#
# Stress axis : x y z
#
# Youngs Moduli (GPa) = 50.45259 106.03165 50.48953
#
# Poissons Ratio (x) = 0.40008 0.56175
# Poissons Ratio (y) = 0.19037 0.21861
# Poissons Ratio (z) = 0.56134 0.45911
#
# Static dielectric constant tensor:
#      x y z
#    x 1.607420 0.000000 0.000000 
#    y 0.000000 1.630890 0.000000 
#    z 0.000000 0.000000 1.594160 
# 
# From -- ./inp_files/23681.got.cif
#   From: 2010.05.17/outbox.cif.g08.bks.cpg/sg42_12_cif.got.tgz:23681.got - 2010.06.03 19:03:34.
