data_PCOD9369503
_publ_section_title
;
Structure prediction by ZEFSAII (Michael W. Deem and Ramdas Pophale) SiO2 
 PCOD9369503
Probable space group: F M M 2
;
_chemical_formula_sum "Si O2"
_cell_formula_units_Z 64
_cell_length_a 13.019453
_cell_length_b 24.007916
_cell_length_c 7.890655
_cell_angle_alpha 90.000000
_cell_angle_beta 90.000000
_cell_angle_gamma 90.000000
_cell_volume 2466.381512
_symmetry_space_group_name_H-M "F M M 2"
_symmetry_group_IT_number 42
_symmetry_cell_setting 'orthorhombic'
loop_
_space_group_symop_operation_xyz
x,y,z
-x,-y,z
-x,y,z
x,-y,z
x,1/2+y,1/2+z
-x,1/2-y,1/2+z
-x,1/2+y,1/2+z
x,1/2-y,1/2+z
1/2+x,y,1/2+z
1/2-x,-y,1/2+z
1/2-x,y,1/2+z
1/2+x,-y,1/2+z
1/2+x,1/2+y,z
1/2-x,1/2-y,z
1/2-x,1/2+y,z
1/2+x,1/2-y,z
loop_
_atom_site_type_symbol
_atom_site_label
_atom_site_fract_x
_atom_site_fract_y
_atom_site_fract_z
Si Si1 0.328874 0.673599 0.948610
Si Si2 0.666350 0.434422 0.099950
Si Si3 0.609901 0.566886 0.490771
Si Si4 0.614924 0.713804 0.321208
O O1 0.374571 0.719207 0.823198
O O2 0.206307 0.684798 0.927583
O O3 0.367181 0.609881 0.957423
O O4 0.364077 0.695261 0.131152
O O5 0.648848 0.500000 0.061487
O O6 0.624888 0.422268 0.288169
O O7 0.788253 0.421399 0.097708
O O8 0.500000 0.588985 0.548457
O O9 0.605316 0.500000 0.497831
O O10 0.500000 0.699571 0.375146
#
# Coordination Sequence:
#
# PCOD9369503 Si02
#       4
#    16  16  16  16
#     4  11  23  40  65  96 125 163 215 257 311 381
#     4  10  21  38  63  96 131 164 204 257 312 376
#     4   9  19  37  60  87 124 169 208 245 300 367
#     4  11  24  43  66  92 127 167 210 266 315 360
#
# _framework density 25.948945999999999
#
# number of rings (size 3 to 8) (size 9 to 14) (size 15 to 20)
#    0.000    1.750    0.000    5.250    0.000    5.000 
#    0.000    2.500    0.000   19.500    0.000    0.000 
#    0.000    0.000    0.000    0.000    0.000    0.000 
#
# Total GULP energy -89425.549907 kJ/mol
# GULP energy per Si atom -5589.096869 kJ/mol
# Density = 2.588989 g / cm^3
# Si number density = 25.948946 Si / 1000 Ang^3
#
#
#
# Elastic Constant Matrix: (Units=GPa)
#
#
# Indices 1 2 3 4 5 6 
#
# 1 154.7331 4.5552 1.5825 0.0000 0.0000 0.0000
# 2 4.5552 129.3870 31.8150 0.0000 0.0000 0.0000
# 3 1.5825 31.8150 39.9303 0.0000 0.0000 0.0000
# 4 0.0000 0.0000 0.0000 24.3713 0.0000 0.0000
# 5 0.0000 0.0000 0.0000 0.0000 -15.0258 0.0000
# 6 0.0000 0.0000 0.0000 0.0000 0.0000 -0.6098
#
#
#
# Elastic Compliance Matrix: (Units=1/GPa)
#
#
# Indices 1 2 3 4 5 6 
#
# 1 0.006470 -0.000205 -0.000093 0.000000 0.000000 0.000000
# 2 -0.000205 0.009618 -0.007655 0.000000 0.000000 0.000000
# 3 -0.000093 -0.007655 0.031147 0.000000 0.000000 0.000000
# 4 0.000000 0.000000 0.000000 0.041032 0.000000 0.000000
# 5 0.000000 0.000000 0.000000 0.000000 -0.066552 0.000000
# 6 0.000000 0.000000 0.000000 0.000000 0.000000 -1.639924
#
#
# Mechanical properties :
#
#
# Convention : Reuss Voigt Hill
#
# Bulk Modulus (GPa) = 31.92027 44.43953 38.17990
# Shear Modulus (GPa) = -3.14098 20.82032 8.83967
#
# Velocity S-wave (km/s) = -1.10140 2.83566 1.84769
# Velocity P-wave (km/s) = 3.27268 5.28055 4.39288
#
# Compressibility (1/GPa) = 0.03132805
#
# Stress axis : x y z
#
# Youngs Moduli (GPa) = 154.56604 103.96778 32.10590
#
# Poissons Ratio (x) = 0.02130 0.00299
# Poissons Ratio (y) = 0.03167 0.24578
# Poissons Ratio (z) = 0.01440 0.79592
#
# Static dielectric constant tensor:
#      x y z
#    x 2.109640 0.000000 0.000000 
#    y 0.000000 2.152730 0.000000 
#    z 0.000000 0.000000 1.948730 
# 
# From -- ./inp_files/2676.got.cif
#   From: 2010.05.17/outbox.cif.g08.bks.cpg/sg42_2_cif.got.tgz:2676.got - 2010.06.03 19:03:34.
