data_PCOD9369162
_publ_section_title
;
Structure prediction by ZEFSAII (Michael W. Deem and Ramdas Pophale) SiO2 
 PCOD9369162
Probable space group: F M M 2
;
_chemical_formula_sum "Si O2"
_cell_formula_units_Z 100
_cell_length_a 8.893963
_cell_length_b 23.202764
_cell_length_c 25.266796
_cell_angle_alpha 90.000000
_cell_angle_beta 90.000000
_cell_angle_gamma 90.000000
_cell_volume 5214.170343
_symmetry_space_group_name_H-M "F M M 2"
_symmetry_group_IT_number 42
_symmetry_cell_setting 'orthorhombic'
loop_
_space_group_symop_operation_xyz
x,y,z
-x,-y,z
-x,y,z
x,-y,z
x,1/2+y,1/2+z
-x,1/2-y,1/2+z
-x,1/2+y,1/2+z
x,1/2-y,1/2+z
1/2+x,y,1/2+z
1/2-x,-y,1/2+z
1/2-x,y,1/2+z
1/2+x,-y,1/2+z
1/2+x,1/2+y,z
1/2-x,1/2-y,z
1/2-x,1/2+y,z
1/2+x,1/2-y,z
loop_
_atom_site_type_symbol
_atom_site_label
_atom_site_fract_x
_atom_site_fract_y
_atom_site_fract_z
Si Si1 0.680072 0.188262 0.047780
Si Si2 0.820372 0.119325 0.648548
Si Si3 0.333217 0.380799 0.956557
Si Si4 0.500000 0.000000 0.456426
Si Si5 0.819216 0.121720 0.771358
Si Si6 0.173191 0.000000 0.273014
Si Si7 0.679344 0.311637 0.365255
Si Si8 0.670018 0.000000 0.644424
O O1 0.500000 0.190081 0.042663
O O2 0.750000 0.250000 0.035097
O O3 0.719899 0.169253 0.107640
O O4 0.748849 0.141024 0.008559
O O5 0.776870 0.129918 0.709572
O O6 0.000000 0.112614 0.648385
O O7 0.750456 0.059047 0.629343
O O8 0.500000 0.352290 0.954327
O O9 0.371039 0.448328 0.956245
O O10 0.238964 0.358707 0.906796
O O11 0.760138 0.058240 0.788073
O O12 0.741677 0.168501 0.808337
O O13 0.000000 0.123868 0.776460
O O14 0.169371 0.000000 0.208696
O O15 0.000000 0.000000 0.291469
O O16 0.500000 0.308619 0.365298
O O17 0.750000 0.250000 0.379462
O O18 0.500000 0.000000 0.624288
#
# Coordination Sequence:
#
# PCOD9369162 Si02
#       8
#    16  16  16   4  16   8  16   8
#     4  11  23  40  63  93 127 172 219 264 317 379
#     4   9  20  37  57  85 126 170 219 265 320 378
#     4  10  22  45  68  95 125 159 206 257 321 384
#     4   8  24  44  74  96 130 154 204 256 322 384
#     4  10  20  37  59  88 126 171 220 270 324 378
#     4   9  17  32  53  82 117 160 212 265 316 378
#     4  12  25  42  65  94 127 171 219 265 320 385
#     4   9  17  30  53  82 114 157 209 264 317 371
#
# _framework density 19.178508000000001
#
# number of rings (size 3 to 8) (size 9 to 14) (size 15 to 20)
#    0.480    1.440    0.000    3.840    0.000    5.760 
#    1.440    4.800    0.000    0.000    0.000    0.000 
#    0.000    0.000    0.000    0.000    0.000    0.000 
#
# Total GULP energy -139272.143358 kJ/mol
# GULP energy per Si atom -5570.885734 kJ/mol
# Density = 1.913486 g / cm^3
# Si number density = 19.178508 Si / 1000 Ang^3
#
#
#
# Elastic Constant Matrix: (Units=GPa)
#
#
# Indices 1 2 3 4 5 6 
#
# 1 100.3770 48.4640 44.0440 0.0000 0.0000 0.0000
# 2 48.4640 138.0336 46.0339 0.0000 0.0000 0.0000
# 3 44.0440 46.0339 79.8176 0.0000 0.0000 0.0000
# 4 0.0000 0.0000 0.0000 12.2393 0.0000 0.0000
# 5 0.0000 0.0000 0.0000 0.0000 23.4254 0.0000
# 6 0.0000 0.0000 0.0000 0.0000 0.0000 30.7126
#
#
#
# Elastic Compliance Matrix: (Units=1/GPa)
#
#
# Indices 1 2 3 4 5 6 
#
# 1 0.014025 -0.002901 -0.006066 0.000000 0.000000 0.000000
# 2 -0.002901 0.009570 -0.003919 0.000000 0.000000 0.000000
# 3 -0.006066 -0.003919 0.018136 0.000000 0.000000 0.000000
# 4 0.000000 0.000000 0.000000 0.081704 0.000000 0.000000
# 5 0.000000 0.000000 0.000000 0.000000 0.042689 0.000000
# 6 0.000000 0.000000 0.000000 0.000000 0.000000 0.032560
#
#
# Mechanical properties :
#
#
# Convention : Reuss Voigt Hill
#
# Bulk Modulus (GPa) = 62.65844 66.14578 64.40211
# Shear Modulus (GPa) = 21.76054 25.25455 23.50754
#
# Velocity S-wave (km/s) = 3.37208 3.63273 3.50483
# Velocity P-wave (km/s) = 6.92123 7.22219 7.07331
#
# Compressibility (1/GPa) = 0.01595954
#
# Stress axis : x y z
#
# Youngs Moduli (GPa) = 71.30241 104.49253 55.14001
#
# Poissons Ratio (x) = 0.30316 0.33446
# Poissons Ratio (y) = 0.20686 0.21607
# Poissons Ratio (z) = 0.43250 0.40945
#
# Static dielectric constant tensor:
#      x y z
#    x 1.647310 0.000000 0.000000 
#    y 0.000000 1.644620 0.000000 
#    z 0.000000 0.000000 1.703500 
# 
# From -- ./inp_files/31570.got.cif
#   From: 2010.05.17/outbox.cif.g08.bks.cpg/sg42_16_cif.got.tgz:31570.got - 2010.06.03 19:03:34.
