data_PCOD9369547
_publ_section_title
;
Structure prediction by ZEFSAII (Michael W. Deem and Ramdas Pophale) SiO2 
 PCOD9369547
Probable space group: F M M 2
;
_chemical_formula_sum "Si O2"
_cell_formula_units_Z 72
_cell_length_a 22.911194
_cell_length_b 17.194050
_cell_length_c 7.808820
_cell_angle_alpha 90.000000
_cell_angle_beta 90.000000
_cell_angle_gamma 90.000000
_cell_volume 3076.176996
_symmetry_space_group_name_H-M "F M M 2"
_symmetry_group_IT_number 42
_symmetry_cell_setting 'orthorhombic'
loop_
_space_group_symop_operation_xyz
x,y,z
-x,-y,z
-x,y,z
x,-y,z
x,1/2+y,1/2+z
-x,1/2-y,1/2+z
-x,1/2+y,1/2+z
x,1/2-y,1/2+z
1/2+x,y,1/2+z
1/2-x,-y,1/2+z
1/2-x,y,1/2+z
1/2+x,-y,1/2+z
1/2+x,1/2+y,z
1/2-x,1/2-y,z
1/2-x,1/2+y,z
1/2+x,1/2-y,z
loop_
_atom_site_type_symbol
_atom_site_label
_atom_site_fract_x
_atom_site_fract_y
_atom_site_fract_z
Si Si1 0.845277 0.500000 0.827940
Si Si2 0.772955 0.000000 0.681506
Si Si3 0.566803 0.861750 0.894259
Si Si4 0.433966 0.184308 0.292818
Si Si5 0.750000 0.250000 0.643728
Si Si6 0.315493 0.850966 0.386687
O O1 0.797628 0.500000 0.676361
O O2 0.885934 0.576022 0.832937
O O3 0.806061 0.500000 0.001002
O O4 0.793363 0.926081 0.790518
O O5 0.500000 0.890186 0.872239
O O6 0.570735 0.777649 0.804909
O O7 0.575223 0.845156 0.098296
O O8 0.500000 0.164110 0.345259
O O9 0.384371 0.147499 0.412591
O O10 0.725885 0.176730 0.539038
O O11 0.696405 0.279390 0.755930
#
# Coordination Sequence:
#
# PCOD9369547 Si02
#       6
#     8   8  16  16   8  16
#     4  12  25  46  60  98 125 176 204 260 316 378
#     4  12  26  40  62  90 136 164 214 252 316 370
#     4  10  22  43  70  94 125 162 212 262 316 373
#     4  10  21  39  66  96 123 161 210 265 308 371
#     4  10  24  36  66  84 124 162 212 250 316 366
#     4  11  22  41  58  93 121 167 203 261 305 374
#
# _framework density 23.405677000000001
#
# number of rings (size 3 to 8) (size 9 to 14) (size 15 to 20)
#    0.000    1.333    2.222    3.000    6.222    0.000 
#    4.000    0.556    0.000    0.000    0.000    9.333 
#    0.000    0.000    0.000    0.000    0.000    0.000 
#
# Total GULP energy -100771.813955 kJ/mol
# GULP energy per Si atom -5598.434109 kJ/mol
# Density = 2.335240 g / cm^3
# Si number density = 23.405677 Si / 1000 Ang^3
#
#
#
# Elastic Constant Matrix: (Units=GPa)
#
#
# Indices 1 2 3 4 5 6 
#
# 1 190.0328 35.9308 23.0816 -0.0001 0.0000 0.0000
# 2 35.9308 62.0508 3.6283 -0.0001 0.0001 0.0000
# 3 23.0816 3.6283 49.5746 -0.0003 0.0001 0.0000
# 4 -0.0001 -0.0001 -0.0003 24.6090 0.0001 0.0000
# 5 0.0000 0.0001 0.0001 0.0001 24.0841 0.0000
# 6 0.0000 0.0000 0.0000 0.0000 0.0000 44.9144
#
#
#
# Elastic Compliance Matrix: (Units=1/GPa)
#
#
# Indices 1 2 3 4 5 6 
#
# 1 0.006238 -0.003457 -0.002651 0.000000 0.000000 0.000000
# 2 -0.003457 0.018101 0.000285 0.000000 0.000000 0.000000
# 3 -0.002651 0.000285 0.021385 0.000000 0.000000 0.000000
# 4 0.000000 0.000000 0.000000 0.040635 0.000000 0.000000
# 5 0.000000 0.000000 0.000000 0.000000 0.041521 0.000000
# 6 0.000000 0.000000 0.000000 0.000000 0.000000 0.022265
#
#
# Mechanical properties :
#
#
# Convention : Reuss Voigt Hill
#
# Bulk Modulus (GPa) = 29.34537 47.43773 38.39155
# Shear Modulus (GPa) = 28.87645 34.65602 31.76623
#
# Velocity S-wave (km/s) = 3.51627 3.85212 3.68802
# Velocity P-wave (km/s) = 5.38985 6.33220 5.87993
#
# Compressibility (1/GPa) = 0.03407693
#
# Stress axis : x y z
#
# Youngs Moduli (GPa) = 160.30954 55.24559 46.76132
#
# Poissons Ratio (x) = 0.19099 0.12398
# Poissons Ratio (y) = 0.55420 -0.01332
# Poissons Ratio (z) = 0.42503 -0.01573
#
# Static dielectric constant tensor:
#      x y z
#    x 1.914940 0.000000 0.000000 
#    y 0.000000 1.832290 0.000000 
#    z 0.000000 0.000000 1.917670 
# 
# From -- ./inp_files/3392.got.cif
#   From: 2010.05.17/outbox.cif.g08.bks.cpg/sg42_2_cif.got.tgz:3392.got - 2010.06.03 19:03:34.
