data_PCOD9369342
_publ_section_title
;
Structure prediction by ZEFSAII (Michael W. Deem and Ramdas Pophale) SiO2 
 PCOD9369342
Probable space group: F M M 2
;
_chemical_formula_sum "Si O2"
_cell_formula_units_Z 84
_cell_length_a 19.636308
_cell_length_b 18.660177
_cell_length_c 9.807206
_cell_angle_alpha 90.000000
_cell_angle_beta 90.000000
_cell_angle_gamma 90.000000
_cell_volume 3593.526833
_symmetry_space_group_name_H-M "F M M 2"
_symmetry_group_IT_number 42
_symmetry_cell_setting 'orthorhombic'
loop_
_space_group_symop_operation_xyz
x,y,z
-x,-y,z
-x,y,z
x,-y,z
x,1/2+y,1/2+z
-x,1/2-y,1/2+z
-x,1/2+y,1/2+z
x,1/2-y,1/2+z
1/2+x,y,1/2+z
1/2-x,-y,1/2+z
1/2-x,y,1/2+z
1/2+x,-y,1/2+z
1/2+x,1/2+y,z
1/2-x,1/2-y,z
1/2-x,1/2+y,z
1/2+x,1/2-y,z
loop_
_atom_site_type_symbol
_atom_site_label
_atom_site_fract_x
_atom_site_fract_y
_atom_site_fract_z
Si Si1 0.500000 0.500000 0.273610
Si Si2 0.773228 0.916465 0.336424
Si Si3 0.899226 0.617828 0.669144
Si Si4 0.109378 0.418238 0.353127
Si Si5 0.315944 0.706594 0.510091
Si Si6 0.605428 0.268655 0.766541
O O1 0.440863 0.562703 0.261074
O O2 0.819173 0.885365 0.212643
O O3 0.691380 0.910052 0.333717
O O4 0.802858 0.874462 0.466516
O O5 0.787399 0.000000 0.344108
O O6 0.905930 0.591911 0.513788
O O7 0.925372 0.698289 0.695640
O O8 0.090467 0.500000 0.313235
O O9 0.076519 0.349042 0.279650
O O10 0.250000 0.750000 0.467661
O O11 0.330588 0.718266 0.666888
O O12 0.375068 0.740641 0.416526
#
# Coordination Sequence:
#
# PCOD9369342 Si02
#       6
#     4  16  16  16  16  16
#     4  12  24  48  76  84 124 192 244 294 298 416
#     4  10  21  35  58  92 138 170 218 278 338 417
#     4  11  23  43  65  97 130 181 242 267 336 409
#     4  11  22  37  62  98 142 173 216 280 343 414
#     4  11  20  32  54  86 135 181 211 259 330 414
#     4  11  22  36  59  94 135 173 221 275 332 408
#
# _framework density 23.375364999999999
#
# number of rings (size 3 to 8) (size 9 to 14) (size 15 to 20)
#    0.000    1.143    5.714    0.571    5.333    0.762 
#    0.000    0.952    0.000    0.000    0.000    5.333 
#    0.000    0.000    0.000    0.000    0.000    0.000 
#
# Total GULP energy -116953.209312 kJ/mol
# GULP energy per Si atom -5569.200443 kJ/mol
# Density = 2.332216 g / cm^3
# Si number density = 23.375365 Si / 1000 Ang^3
#
#
#
# Elastic Constant Matrix: (Units=GPa)
#
#
# Indices 1 2 3 4 5 6 
#
# 1 83.4695 24.2979 3.8408 0.0000 0.0000 0.0000
# 2 24.2979 243.8312 24.0922 0.0000 0.0000 0.0000
# 3 3.8408 24.0922 50.2976 0.0000 0.0000 0.0000
# 4 0.0000 0.0000 0.0000 27.6791 0.0000 0.0000
# 5 0.0000 0.0000 0.0000 0.0000 -29.1406 0.0000
# 6 0.0000 0.0000 0.0000 0.0000 0.0000 -30.5113
#
#
#
# Elastic Compliance Matrix: (Units=1/GPa)
#
#
# Indices 1 2 3 4 5 6 
#
# 1 0.012345 -0.001194 -0.000371 0.000000 0.000000 0.000000
# 2 -0.001194 0.004420 -0.002026 0.000000 0.000000 0.000000
# 3 -0.000371 -0.002026 0.020881 0.000000 0.000000 0.000000
# 4 0.000000 0.000000 0.000000 0.036128 0.000000 0.000000
# 5 0.000000 0.000000 0.000000 0.000000 -0.034316 0.000000
# 6 0.000000 0.000000 0.000000 0.000000 0.000000 -0.032775
#
#
# Mechanical properties :
#
#
# Convention : Reuss Voigt Hill
#
# Bulk Modulus (GPa) = 32.82522 53.56225 43.19374
# Shear Modulus (GPa) = 208.16754 15.29661 111.73208
#
# Velocity S-wave (km/s) = 9.44709 2.56088 6.92119
# Velocity P-wave (km/s) = 11.53559 5.63097 9.07683
#
# Compressibility (1/GPa) = 0.03046438
#
# Stress axis : x y z
#
# Youngs Moduli (GPa) = 81.00497 226.22742 47.89157
#
# Poissons Ratio (x) = 0.27001 0.01777
# Poissons Ratio (y) = 0.09668 0.09704
# Poissons Ratio (z) = 0.03005 0.45837
#
# Static dielectric constant tensor:
#      x y z
#    x 1.920750 0.000000 0.000000 
#    y 0.000000 1.904690 0.000000 
#    z 0.000000 0.000000 1.848370 
# 
# From -- ./inp_files/9504.got.cif
#   From: 2010.05.17/outbox.cif.g08.bks.cpg/sg42_5_cif.got.tgz:9504.got - 2010.06.03 19:03:34.
