data_PCOD9369394
_publ_section_title
;
Structure prediction by ZEFSAII (Michael W. Deem and Ramdas Pophale) SiO2 
 PCOD9369394
Probable space group: F M M 2
;
_chemical_formula_sum "Si O2"
_cell_formula_units_Z 96
_cell_length_a 31.790983
_cell_length_b 8.995624
_cell_length_c 19.772059
_cell_angle_alpha 90.000000
_cell_angle_beta 90.000000
_cell_angle_gamma 90.000000
_cell_volume 5654.408088
_symmetry_space_group_name_H-M "F M M 2"
_symmetry_group_IT_number 42
_symmetry_cell_setting 'orthorhombic'
loop_
_space_group_symop_operation_xyz
x,y,z
-x,-y,z
-x,y,z
x,-y,z
x,1/2+y,1/2+z
-x,1/2-y,1/2+z
-x,1/2+y,1/2+z
x,1/2-y,1/2+z
1/2+x,y,1/2+z
1/2-x,-y,1/2+z
1/2-x,y,1/2+z
1/2+x,-y,1/2+z
1/2+x,1/2+y,z
1/2-x,1/2-y,z
1/2-x,1/2+y,z
1/2+x,1/2-y,z
loop_
_atom_site_type_symbol
_atom_site_label
_atom_site_fract_x
_atom_site_fract_y
_atom_site_fract_z
Si Si1 0.618673 0.822100 0.317790
Si Si2 0.708165 0.169620 0.977357
Si Si3 0.293171 0.327824 0.312600
Si Si4 0.548634 0.824226 0.078406
Si Si5 0.549125 0.177105 0.722590
Si Si6 0.116671 0.680303 0.965333
O O1 0.664081 0.758011 0.294323
O O2 0.581523 0.761678 0.270629
O O3 0.611259 0.758316 0.393268
O O4 0.619957 0.000000 0.318579
O O5 0.750000 0.250000 0.001382
O O6 0.708290 0.173267 0.895049
O O7 0.661995 0.228619 0.995379
O O8 0.710617 0.000000 0.999475
O O9 0.295016 0.500000 0.291583
O O10 0.250000 0.250000 0.289355
O O11 0.500000 0.802808 0.058224
O O12 0.556441 0.730017 0.145717
O O13 0.554236 0.000000 0.094262
O O14 0.579762 0.786648 0.017552
O O15 0.500000 0.211294 0.738521
O O16 0.554856 0.000000 0.728856
O O17 0.118539 0.500000 0.954865
#
# Coordination Sequence:
#
# PCOD9369394 Si02
#       6
#    16  16  16  16  16  16
#     4  11  21  32  50  77 106 135 170 212 254 296
#     4   8  14  24  40  63  93 127 160 194 233 281
#     4   9  16  28  46  70 101 134 168 205 249 299
#     4   9  18  34  55  75  96 126 164 204 250 307
#     4  10  21  37  55  73  97 131 169 210 258 310
#     4   9  18  32  49  73 104 133 162 203 253 299
#
# _framework density 16.977903999999999
#
# number of rings (size 3 to 8) (size 9 to 14) (size 15 to 20)
#    0.000    2.667    0.000    3.500    0.000    6.333 
#    0.000    1.667    0.000    1.000    0.000    4.667 
#    0.000    0.000    0.000    0.000    0.000    0.000 
#
# Total GULP energy -133749.380202 kJ/mol
# GULP energy per Si atom -5572.890842 kJ/mol
# Density = 1.693926 g / cm^3
# Si number density = 16.977904 Si / 1000 Ang^3
#
#
#
# Elastic Constant Matrix: (Units=GPa)
#
#
# Indices 1 2 3 4 5 6 
#
# 1 160.1984 84.9192 75.6399 0.0000 0.0000 0.0000
# 2 84.9192 98.3478 45.2650 0.0000 0.0000 0.0000
# 3 75.6399 45.2650 50.8916 0.0000 0.0000 0.0000
# 4 0.0000 0.0000 0.0000 21.1445 0.0000 0.0000
# 5 0.0000 0.0000 0.0000 0.0000 -11.3692 0.0000
# 6 0.0000 0.0000 0.0000 0.0000 0.0000 30.2007
#
#
#
# Elastic Compliance Matrix: (Units=1/GPa)
#
#
# Indices 1 2 3 4 5 6 
#
# 1 0.023575 -0.007160 -0.028671 0.000000 0.000000 0.000000
# 2 -0.007160 0.019390 -0.006604 0.000000 0.000000 0.000000
# 3 -0.028671 -0.006604 0.068138 0.000000 0.000000 0.000000
# 4 0.000000 0.000000 0.000000 0.047294 0.000000 0.000000
# 5 0.000000 0.000000 0.000000 0.000000 -0.087957 0.000000
# 6 0.000000 0.000000 0.000000 0.000000 0.000000 0.033112
#
#
# Mechanical properties :
#
#
# Convention : Reuss Voigt Hill
#
# Bulk Modulus (GPa) = 38.12176 80.12068 59.12122
# Shear Modulus (GPa) = 25.35919 14.90279 20.13099
#
# Velocity S-wave (km/s) = 3.86898 2.96594 3.44716
# Velocity P-wave (km/s) = 6.51622 7.68262 7.12334
#
# Compressibility (1/GPa) = 0.02623174
#
# Stress axis : x y z
#
# Youngs Moduli (GPa) = 42.41698 51.57257 14.67613
#
# Poissons Ratio (x) = 0.36927 0.42079
# Poissons Ratio (y) = 0.30372 0.09692
# Poissons Ratio (z) = 1.21616 0.34059
#
# Static dielectric constant tensor:
#      x y z
#    x 1.591850 0.000000 0.000000 
#    y 0.000000 1.575540 0.000000 
#    z 0.000000 0.000000 1.538030 
# 
# From -- ./inp_files/23710.got.cif
#   From: 2010.05.17/outbox.cif.g08.bks.cpg/sg42_12_cif.got.tgz:23710.got - 2010.06.03 19:03:34.
