data_PCOD9369056
_publ_section_title
;
Structure prediction by ZEFSAII (Michael W. Deem and Ramdas Pophale) SiO2 
 PCOD9369056
Probable space group: F M M 2
;
_chemical_formula_sum "Si O2"
_cell_formula_units_Z 80
_cell_length_a 25.135816
_cell_length_b 15.269017
_cell_length_c 9.959245
_cell_angle_alpha 90.000000
_cell_angle_beta 90.000000
_cell_angle_gamma 90.000000
_cell_volume 3822.350282
_symmetry_space_group_name_H-M "F M M 2"
_symmetry_group_IT_number 42
_symmetry_cell_setting 'orthorhombic'
loop_
_space_group_symop_operation_xyz
x,y,z
-x,-y,z
-x,y,z
x,-y,z
x,1/2+y,1/2+z
-x,1/2-y,1/2+z
-x,1/2+y,1/2+z
x,1/2-y,1/2+z
1/2+x,y,1/2+z
1/2-x,-y,1/2+z
1/2-x,y,1/2+z
1/2+x,-y,1/2+z
1/2+x,1/2+y,z
1/2-x,1/2-y,z
1/2-x,1/2+y,z
1/2+x,1/2-y,z
loop_
_atom_site_type_symbol
_atom_site_label
_atom_site_fract_x
_atom_site_fract_y
_atom_site_fract_z
Si Si1 0.000000 0.392157 0.631390
Si Si2 0.402065 0.393348 0.627191
Si Si3 0.592526 0.894148 0.436012
Si Si4 0.500000 0.893260 0.939545
Si Si5 0.282457 0.164008 0.118281
Si Si6 0.289506 0.401667 0.906672
O O1 0.051213 0.361860 0.546501
O O2 0.000000 0.362956 0.785579
O O3 0.000000 0.500000 0.633847
O O4 0.394637 0.500000 0.619605
O O5 0.447266 0.367748 0.521454
O O6 0.345745 0.345947 0.602146
O O7 0.419881 0.373127 0.780479
O O8 0.653656 0.867409 0.459613
O O9 0.589981 0.000000 0.445759
O O10 0.500000 0.000000 0.938069
O O11 0.250000 0.250000 0.076314
O O12 0.271627 0.149636 0.275385
O O13 0.253918 0.095444 0.021606
O O14 0.300439 0.500000 0.856292
#
# Coordination Sequence:
#
# PCOD9369056 Si02
#       6
#     8  16  16   8  16  16
#     4   9  15  25  43  76 111 136 169 228 292 337
#     4   9  17  32  52  77 110 153 195 233 283 352
#     4   8  15  27  46  69  99 137 180 223 271 330
#     4   9  17  27  47  80 115 146 186 240 294 339
#     4  11  22  36  55  82 116 151 189 237 291 346
#     4  10  20  36  56  80 109 150 197 240 284 342
#
# _framework density 20.929531000000001
#
# number of rings (size 3 to 8) (size 9 to 14) (size 15 to 20)
#    0.000    2.600    0.000    4.200    0.000    4.000 
#    0.000    4.000    0.000    1.200    0.000    4.200 
#    0.000    0.000    0.000    0.000    0.000    0.000 
#
# Total GULP energy -111547.571148 kJ/mol
# GULP energy per Si atom -5577.378557 kJ/mol
# Density = 2.088189 g / cm^3
# Si number density = 20.929531 Si / 1000 Ang^3
#
#
#
# Elastic Constant Matrix: (Units=GPa)
#
#
# Indices 1 2 3 4 5 6 
#
# 1 135.2065 15.6835 125.4140 0.0000 0.0000 0.0000
# 2 15.6835 50.2685 9.1413 0.0000 0.0000 0.0000
# 3 125.4140 9.1413 161.9878 0.0000 0.0000 0.0000
# 4 0.0000 0.0000 0.0000 12.2592 0.0000 0.0000
# 5 0.0000 0.0000 0.0000 0.0000 41.9736 0.0000
# 6 0.0000 0.0000 0.0000 0.0000 0.0000 11.9780
#
#
#
# Elastic Compliance Matrix: (Units=1/GPa)
#
#
# Indices 1 2 3 4 5 6 
#
# 1 0.027307 -0.004724 -0.020875 0.000000 0.000000 0.000000
# 2 -0.004724 0.020916 0.002477 0.000000 0.000000 0.000000
# 3 -0.020875 0.002477 0.022196 0.000000 0.000000 0.000000
# 4 0.000000 0.000000 0.000000 0.081572 0.000000 0.000000
# 5 0.000000 0.000000 0.000000 0.000000 0.023824 0.000000
# 6 0.000000 0.000000 0.000000 0.000000 0.000000 0.083487
#
#
# Mechanical properties :
#
#
# Convention : Reuss Voigt Hill
#
# Bulk Modulus (GPa) = 41.36485 71.99339 56.67912
# Shear Modulus (GPa) = 15.94362 26.39043 21.16702
#
# Velocity S-wave (km/s) = 2.76302 3.55479 3.18362
# Velocity P-wave (km/s) = 5.47593 7.16390 6.37602
#
# Compressibility (1/GPa) = 0.02417511
#
# Stress axis : x y z
#
# Youngs Moduli (GPa) = 36.61998 47.80917 45.05384
#
# Poissons Ratio (x) = 0.22583 0.94052
# Poissons Ratio (y) = 0.17298 -0.11159
# Poissons Ratio (z) = 0.76446 -0.11841
#
# Static dielectric constant tensor:
#      x y z
#    x 1.739440 0.000000 0.000000 
#    y 0.000000 1.824360 0.000000 
#    z 0.000000 0.000000 1.694710 
# 
# From -- ./inp_files/5123.got.cif
#   From: 2010.05.17/outbox.cif.g08.bks.cpg/sg42_3_cif.got.tgz:5123.got - 2010.06.03 19:03:34.
