data_PCOD9369896
_publ_section_title
;
Structure prediction by ZEFSAII (Michael W. Deem and Ramdas Pophale) SiO2 
 PCOD9369896
Probable space group: F M M 2
;
_chemical_formula_sum "Si O2"
_cell_formula_units_Z 64
_cell_length_a 18.417459
_cell_length_b 7.617983
_cell_length_c 24.551759
_cell_angle_alpha 90.000000
_cell_angle_beta 90.000000
_cell_angle_gamma 90.000000
_cell_volume 3444.707283
_symmetry_space_group_name_H-M "F M M 2"
_symmetry_group_IT_number 42
_symmetry_cell_setting 'orthorhombic'
loop_
_space_group_symop_operation_xyz
x,y,z
-x,-y,z
-x,y,z
x,-y,z
x,1/2+y,1/2+z
-x,1/2-y,1/2+z
-x,1/2+y,1/2+z
x,1/2-y,1/2+z
1/2+x,y,1/2+z
1/2-x,-y,1/2+z
1/2-x,y,1/2+z
1/2+x,-y,1/2+z
1/2+x,1/2+y,z
1/2-x,1/2-y,z
1/2-x,1/2+y,z
1/2+x,1/2-y,z
loop_
_atom_site_type_symbol
_atom_site_label
_atom_site_fract_x
_atom_site_fract_y
_atom_site_fract_z
Si Si1 0.164342 0.208530 0.886270
Si Si2 0.331068 0.195736 0.171654
Si Si3 0.914408 0.000000 0.585985
Si Si4 0.917035 0.785853 0.774105
Si Si5 0.913187 0.500000 0.957173
O O1 0.250000 0.250000 0.886203
O O2 0.129344 0.254779 0.827713
O O3 0.123634 0.329570 0.930099
O O4 0.153925 0.000000 0.895727
O O5 0.250000 0.250000 0.158272
O O6 0.376256 0.283679 0.220054
O O7 0.319223 0.000000 0.194310
O O8 0.378693 0.165283 0.117593
O O9 0.900724 0.000000 0.522072
O O10 0.000000 0.000000 0.596242
O O11 0.000000 0.722349 0.777702
O O12 0.922170 0.000000 0.771566
O O13 0.000000 0.500000 0.947527
#
# Coordination Sequence:
#
# PCOD9369896 Si02
#       5
#    16  16   8  16   8
#     4  11  22  39  61  90 123 162 201 251 306 360
#     4   9  18  33  56  84 110 144 190 238 287 349
#     4   9  20  38  61  80 111 159 195 238 292 358
#     4   9  17  31  56  84 116 154 192 237 297 364
#     4  11  24  42  61  90 123 159 209 254 302 366
#
# _framework density 18.579226999999999
#
# number of rings (size 3 to 8) (size 9 to 14) (size 15 to 20)
#    0.750    1.500    1.250    2.250    0.000    2.500 
#    2.250    0.000    0.000    3.750    0.000    0.000 
#    0.000    0.000    0.000    0.000    0.000    0.000 
#
# Total GULP energy -89087.980519 kJ/mol
# GULP energy per Si atom -5567.998782 kJ/mol
# Density = 1.853694 g / cm^3
# Si number density = 18.579227 Si / 1000 Ang^3
#
#
#
# Elastic Constant Matrix: (Units=GPa)
#
#
# Indices 1 2 3 4 5 6 
#
# 1 195.6106 42.4957 124.4508 0.0000 0.0000 0.0000
# 2 42.4957 70.5168 45.4899 0.0000 0.0000 0.0000
# 3 124.4508 45.4899 162.9586 0.0000 0.0000 0.0000
# 4 0.0000 0.0000 0.0000 16.2929 0.0000 0.0000
# 5 0.0000 0.0000 0.0000 0.0000 -43.1119 0.0000
# 6 0.0000 0.0000 0.0000 0.0000 0.0000 20.7694
#
#
#
# Elastic Compliance Matrix: (Units=1/GPa)
#
#
# Indices 1 2 3 4 5 6 
#
# 1 0.010047 -0.001348 -0.007297 0.000000 0.000000 0.000000
# 2 -0.001348 0.017476 -0.003849 0.000000 0.000000 0.000000
# 3 -0.007297 -0.003849 0.012784 0.000000 0.000000 0.000000
# 4 0.000000 0.000000 0.000000 0.061376 0.000000 0.000000
# 5 0.000000 0.000000 0.000000 0.000000 -0.023195 0.000000
# 6 0.000000 0.000000 0.000000 0.000000 0.000000 0.048148
#
#
# Mechanical properties :
#
#
# Convention : Reuss Voigt Hill
#
# Bulk Modulus (GPa) = 65.27595 94.88432 80.08014
# Shear Modulus (GPa) = 31.90186 13.23339 22.56762
#
# Velocity S-wave (km/s) = 4.14825 2.67173 3.48899
# Velocity P-wave (km/s) = 7.62588 7.79092 7.70885
#
# Compressibility (1/GPa) = 0.01531958
#
# Stress axis : x y z
#
# Youngs Moduli (GPa) = 99.52789 57.22023 78.22444
#
# Poissons Ratio (x) = 0.07711 0.57080
# Poissons Ratio (y) = 0.13413 0.30111
# Poissons Ratio (z) = 0.72625 0.22026
#
# Static dielectric constant tensor:
#      x y z
#    x 1.659950 0.000000 0.000000 
#    y 0.000000 1.659310 0.000000 
#    z 0.000000 0.000000 1.618940 
# 
# From -- ./inp_files/29722.got.cif
#   From: 2010.05.17/outbox.cif.g08.bks.cpg/sg42_15_cif.got.tgz:29722.got - 2010.06.03 19:03:34.
