data_PCOD9369495
_publ_section_title
;
Structure prediction by ZEFSAII (Michael W. Deem and Ramdas Pophale) SiO2 
 PCOD9369495
Probable space group: F M M 2
;
_chemical_formula_sum "Si O2"
_cell_formula_units_Z 96
_cell_length_a 22.716295
_cell_length_b 22.055565
_cell_length_c 9.044391
_cell_angle_alpha 90.000000
_cell_angle_beta 90.000000
_cell_angle_gamma 90.000000
_cell_volume 4531.427299
_symmetry_space_group_name_H-M "F M M 2"
_symmetry_group_IT_number 42
_symmetry_cell_setting 'orthorhombic'
loop_
_space_group_symop_operation_xyz
x,y,z
-x,-y,z
-x,y,z
x,-y,z
x,1/2+y,1/2+z
-x,1/2-y,1/2+z
-x,1/2+y,1/2+z
x,1/2-y,1/2+z
1/2+x,y,1/2+z
1/2-x,-y,1/2+z
1/2-x,y,1/2+z
1/2+x,-y,1/2+z
1/2+x,1/2+y,z
1/2-x,1/2-y,z
1/2-x,1/2+y,z
1/2+x,1/2-y,z
loop_
_atom_site_type_symbol
_atom_site_label
_atom_site_fract_x
_atom_site_fract_y
_atom_site_fract_z
Si Si1 0.716488 0.892036 0.183410
Si Si2 0.117680 0.696189 0.715570
Si Si3 0.066750 0.803426 0.899760
Si Si4 0.269626 0.188616 0.906948
Si Si5 0.892890 0.434729 0.334781
Si Si6 0.647590 0.566524 0.176563
O O1 0.717780 0.842930 0.315600
O O2 0.662126 0.933639 0.223238
O O3 0.782016 0.920910 0.188140
O O4 0.708484 0.858668 0.028147
O O5 0.077501 0.746211 0.793611
O O6 0.110003 0.703328 0.540274
O O7 0.181931 0.705785 0.785156
O O8 0.111296 0.623405 0.741995
O O9 0.075527 0.869327 0.823186
O O10 0.000000 0.802049 0.957630
O O11 0.250000 0.250000 0.983555
O O12 0.924574 0.500000 0.316488
O O13 0.868174 0.434804 0.502920
O O14 0.634773 0.500000 0.239892
#
# Coordination Sequence:
#
# PCOD9369495 Si02
#       6
#    16  16  16  16  16  16
#     4  11  20  36  55  90 129 171 203 242 295 367
#     4  10  24  39  63  95 123 162 209 259 316 372
#     4  11  24  44  67  89 119 161 214 273 327 370
#     4  11  23  33  57  89 131 170 203 245 299 369
#     4  10  21  38  62  93 125 161 210 255 306 371
#     4   9  19  38  59  89 131 170 205 243 297 374
#
# _framework density 21.185379000000001
#
# number of rings (size 3 to 8) (size 9 to 14) (size 15 to 20)
#    0.000    1.667    1.667    2.500    9.333    0.333 
#    0.000    0.833    0.000    1.500    0.000    0.000 
#    0.000    0.000    0.000    0.000    0.000    0.000 
#
# Total GULP energy -133847.288676 kJ/mol
# GULP energy per Si atom -5576.970361 kJ/mol
# Density = 2.113716 g / cm^3
# Si number density = 21.185379 Si / 1000 Ang^3
#
#
#
# Elastic Constant Matrix: (Units=GPa)
#
#
# Indices 1 2 3 4 5 6 
#
# 1 50.4055 32.5487 14.4631 0.0002 -0.0002 -0.0001
# 2 32.5487 187.1482 47.4118 0.0001 -0.0001 0.0000
# 3 14.4631 47.4118 69.8522 0.0008 -0.0006 -0.0005
# 4 0.0002 0.0001 0.0008 19.4371 -0.0004 -0.0003
# 5 -0.0002 -0.0001 -0.0006 -0.0004 14.9460 0.0003
# 6 -0.0001 0.0000 -0.0005 -0.0003 0.0003 2.8085
#
#
#
# Elastic Compliance Matrix: (Units=1/GPa)
#
#
# Indices 1 2 3 4 5 6 
#
# 1 0.022688 -0.003328 -0.002439 0.000000 0.000000 0.000000
# 2 -0.003328 0.006941 -0.004022 0.000000 0.000000 -0.000001
# 3 -0.002439 -0.004022 0.017551 -0.000001 0.000001 0.000003
# 4 0.000000 0.000000 -0.000001 0.051448 0.000001 0.000006
# 5 0.000000 0.000000 0.000001 0.000001 0.066907 -0.000007
# 6 0.000000 -0.000001 0.000003 0.000006 -0.000007 0.356067
#
#
# Mechanical properties :
#
#
# Convention : Reuss Voigt Hill
#
# Bulk Modulus (GPa) = 36.22910 55.13922 45.68416
# Shear Modulus (GPa) = 9.08462 21.63714 15.36088
#
# Velocity S-wave (km/s) = 2.07303 3.19928 2.69563
# Velocity P-wave (km/s) = 4.78206 6.30323 5.59459
#
# Compressibility (1/GPa) = 0.02760212
#
# Stress axis : x y z
#
# Youngs Moduli (GPa) = 44.07633 144.06848 56.97710
#
# Poissons Ratio (x) = 0.47947 0.13895
# Poissons Ratio (y) = 0.14669 0.22917
# Poissons Ratio (z) = 0.10749 0.57947
#
# Static dielectric constant tensor:
#      x y z
#    x 1.751680 0.000000 0.000000 
#    y 0.000000 1.869070 0.000000 
#    z 0.000000 0.000000 1.739350 
# 
# From -- ./inp_files/4174.got.cif
#   From: 2010.05.17/outbox.cif.g08.bks.cpg/sg42_3_cif.got.tgz:4174.got - 2010.06.03 19:03:34.
