data_PCOD9369301
_publ_section_title
;
Structure prediction by ZEFSAII (Michael W. Deem and Ramdas Pophale) SiO2 
 PCOD9369301
Probable space group: F M M 2
;
_chemical_formula_sum "Si O2"
_cell_formula_units_Z 64
_cell_length_a 14.478595
_cell_length_b 10.218988
_cell_length_c 21.815895
_cell_angle_alpha 90.000000
_cell_angle_beta 90.000000
_cell_angle_gamma 90.000000
_cell_volume 3227.805401
_symmetry_space_group_name_H-M "F M M 2"
_symmetry_group_IT_number 42
_symmetry_cell_setting 'orthorhombic'
loop_
_space_group_symop_operation_xyz
x,y,z
-x,-y,z
-x,y,z
x,-y,z
x,1/2+y,1/2+z
-x,1/2-y,1/2+z
-x,1/2+y,1/2+z
x,1/2-y,1/2+z
1/2+x,y,1/2+z
1/2-x,-y,1/2+z
1/2-x,y,1/2+z
1/2+x,-y,1/2+z
1/2+x,1/2+y,z
1/2-x,1/2-y,z
1/2-x,1/2+y,z
1/2+x,1/2-y,z
loop_
_atom_site_type_symbol
_atom_site_label
_atom_site_fract_x
_atom_site_fract_y
_atom_site_fract_z
Si Si1 0.000000 0.271924 0.529390
Si Si2 0.860974 0.500000 0.734956
Si Si3 0.840213 0.342794 0.434629
Si Si4 0.500000 0.500000 0.601044
Si Si5 0.000000 0.500000 0.626924
Si Si6 0.138695 0.264386 0.299814
Si Si7 0.639264 0.500000 0.712414
O O1 0.911242 0.303601 0.487569
O O2 0.000000 0.373053 0.585025
O O3 0.000000 0.127476 0.557986
O O4 0.890083 0.375644 0.775110
O O5 0.751518 0.500000 0.717690
O O6 0.912662 0.500000 0.671072
O O7 0.819939 0.500000 0.436133
O O8 0.750000 0.250000 0.440400
O O9 0.884632 0.308815 0.368318
O O10 0.589391 0.500000 0.646673
O O11 0.250000 0.250000 0.300465
O O12 0.110449 0.372713 0.250771
#
# Coordination Sequence:
#
# PCOD9369301 Si02
#       7
#     8   8  16   4   4  16   8
#     4  12  28  46  63  93 137 173 232 275 305 385
#     4  10  22  37  65  95 129 164 207 266 332 382
#     4  11  24  44  72  97 130 173 213 273 338 387
#     4  12  28  40  64  94 128 180 230 262 310 386
#     4  12  24  44  62  88 130 182 222 264 312 380
#     4   9  19  37  66  97 126 156 205 266 330 397
#     4  10  20  41  61  93 127 162 207 266 320 386
#
# _framework density 19.827712999999999
#
# number of rings (size 3 to 8) (size 9 to 14) (size 15 to 20)
#    0.000    1.500    2.500    1.500    7.000    4.000 
#    0.000    0.000    0.000    0.000    0.000    0.000 
#    0.000    0.000    0.000    0.000    0.000    0.000 
#
# Total GULP energy -89361.184045 kJ/mol
# GULP energy per Si atom -5585.074003 kJ/mol
# Density = 1.978258 g / cm^3
# Si number density = 19.827713 Si / 1000 Ang^3
#
#
#
# Elastic Constant Matrix: (Units=GPa)
#
#
# Indices 1 2 3 4 5 6 
#
# 1 111.3460 53.8918 52.3697 0.0000 0.0000 0.0000
# 2 53.8918 243.7769 108.0157 0.0000 0.0000 0.0000
# 3 52.3697 108.0157 150.0059 0.0000 0.0000 0.0000
# 4 0.0000 0.0000 0.0000 48.9157 0.0000 0.0000
# 5 0.0000 0.0000 0.0000 0.0000 29.9204 0.0000
# 6 0.0000 0.0000 0.0000 0.0000 0.0000 34.9217
#
#
#
# Elastic Compliance Matrix: (Units=1/GPa)
#
#
# Indices 1 2 3 4 5 6 
#
# 1 0.010931 -0.001066 -0.003049 0.000000 0.000000 0.000000
# 2 -0.001066 0.006128 -0.004041 0.000000 0.000000 0.000000
# 3 -0.003049 -0.004041 0.010640 0.000000 0.000000 0.000000
# 4 0.000000 0.000000 0.000000 0.020443 0.000000 0.000000
# 5 0.000000 0.000000 0.000000 0.000000 0.033422 0.000000
# 6 0.000000 0.000000 0.000000 0.000000 0.000000 0.028635
#
#
# Mechanical properties :
#
#
# Convention : Reuss Voigt Hill
#
# Bulk Modulus (GPa) = 87.80343 103.74257 95.77300
# Shear Modulus (GPa) = 38.37108 42.14166 40.25637
#
# Velocity S-wave (km/s) = 4.40389 4.61520 4.51078
# Velocity P-wave (km/s) = 8.38083 8.99087 8.69120
#
# Compressibility (1/GPa) = 0.01138908
#
# Stress axis : x y z
#
# Youngs Moduli (GPa) = 91.48536 163.18372 93.98143
#
# Poissons Ratio (x) = 0.17388 0.28653
# Poissons Ratio (y) = 0.09748 0.37975
# Poissons Ratio (z) = 0.27892 0.65937
#
# Static dielectric constant tensor:
#      x y z
#    x 1.736060 0.000000 0.000000 
#    y 0.000000 1.692050 0.000000 
#    z 0.000000 0.000000 1.657860 
# 
# From -- ./inp_files/19633.got.cif
#   From: 2010.05.17/outbox.cif.g08.bks.cpg/sg42_10_cif.got.tgz:19633.got - 2010.06.03 19:03:34.
