data_PCOD9369210
_publ_section_title
;
Structure prediction by ZEFSAII (Michael W. Deem and Ramdas Pophale) SiO2 
 PCOD9369210
Probable space group: F M M 2
;
_chemical_formula_sum "Si O2"
_cell_formula_units_Z 96
_cell_length_a 17.210211
_cell_length_b 21.093879
_cell_length_c 12.310203
_cell_angle_alpha 90.000000
_cell_angle_beta 90.000000
_cell_angle_gamma 90.000000
_cell_volume 4468.974329
_symmetry_space_group_name_H-M "F M M 2"
_symmetry_group_IT_number 42
_symmetry_cell_setting 'orthorhombic'
loop_
_space_group_symop_operation_xyz
x,y,z
-x,-y,z
-x,y,z
x,-y,z
x,1/2+y,1/2+z
-x,1/2-y,1/2+z
-x,1/2+y,1/2+z
x,1/2-y,1/2+z
1/2+x,y,1/2+z
1/2-x,-y,1/2+z
1/2-x,y,1/2+z
1/2+x,-y,1/2+z
1/2+x,1/2+y,z
1/2-x,1/2-y,z
1/2-x,1/2+y,z
1/2+x,1/2-y,z
loop_
_atom_site_type_symbol
_atom_site_label
_atom_site_fract_x
_atom_site_fract_y
_atom_site_fract_z
Si Si1 0.795106 0.683446 0.699550
Si Si2 0.643870 0.371991 0.617156
Si Si3 0.906331 0.000000 0.736961
Si Si4 0.913689 0.193610 0.821787
Si Si5 0.094077 0.638744 0.536021
Si Si6 0.593708 0.000000 0.490516
Si Si7 0.410794 0.157946 0.875443
O O1 0.750000 0.750000 0.728594
O O2 0.734935 0.641900 0.629733
O O3 0.868214 0.688022 0.618655
O O4 0.835188 0.645535 0.799348
O O5 0.622105 0.438522 0.671628
O O6 0.611021 0.319947 0.700916
O O7 0.609614 0.362609 0.497546
O O8 0.880080 0.000000 0.863765
O O9 0.000000 0.000000 0.737425
O O10 0.913754 0.265891 0.859562
O O11 0.000000 0.167194 0.825579
O O12 0.872192 0.155318 0.916807
O O13 0.113975 0.564904 0.551912
O O14 0.000000 0.645447 0.542558
O O15 0.500000 0.000000 0.483396
O O16 0.500000 0.135670 0.847309
#
# Coordination Sequence:
#
# PCOD9369210 Si02
#       7
#    16  16   8  16  16   8  16
#     4  12  26  43  65  97 143 181 226 289 361 415
#     4  12  25  42  69 101 139 179 237 290 350 406
#     4  11  22  43  69 101 142 190 240 289 340 420
#     4  10  20  37  65  97 129 169 223 281 340 414
#     4  10  21  40  67  98 131 176 227 281 343 419
#     4   9  18  35  67  99 127 168 228 285 333 398
#     4  11  25  44  67  98 139 187 231 281 351 430
#
# _framework density 21.481438000000001
#
# number of rings (size 3 to 8) (size 9 to 14) (size 15 to 20)
#    0.000    1.167    3.333    3.000    2.333    1.333 
#    0.000    1.667    0.000    1.000    0.000    0.000 
#    0.000    0.000    0.000    0.000    0.000    0.000 
#
# Total GULP energy -133678.625637 kJ/mol
# GULP energy per Si atom -5569.942735 kJ/mol
# Density = 2.143255 g / cm^3
# Si number density = 21.481438 Si / 1000 Ang^3
#
#
#
# Elastic Constant Matrix: (Units=GPa)
#
#
# Indices 1 2 3 4 5 6 
#
# 1 88.7267 25.3532 28.2658 0.0000 0.0000 0.0000
# 2 25.3532 86.5179 25.8522 0.0000 0.0000 0.0000
# 3 28.2658 25.8522 107.1265 0.0000 0.0000 0.0000
# 4 0.0000 0.0000 0.0000 21.5836 0.0000 0.0000
# 5 0.0000 0.0000 0.0000 0.0000 36.1768 0.0000
# 6 0.0000 0.0000 0.0000 0.0000 0.0000 4.4135
#
#
#
# Elastic Compliance Matrix: (Units=1/GPa)
#
#
# Indices 1 2 3 4 5 6 
#
# 1 0.012989 -0.002998 -0.002704 0.000000 0.000000 0.000000
# 2 -0.002998 0.013149 -0.002382 0.000000 0.000000 0.000000
# 3 -0.002704 -0.002382 0.010623 0.000000 0.000000 0.000000
# 4 0.000000 0.000000 0.000000 0.046331 0.000000 0.000000
# 5 0.000000 0.000000 0.000000 0.000000 0.027642 0.000000
# 6 0.000000 0.000000 0.000000 0.000000 0.000000 0.226575
#
#
# Mechanical properties :
#
#
# Convention : Reuss Voigt Hill
#
# Bulk Modulus (GPa) = 48.56130 49.03483 48.79806
# Shear Modulus (GPa) = 13.87576 25.96147 19.91861
#
# Velocity S-wave (km/s) = 2.54430 3.48020 3.04838
# Velocity P-wave (km/s) = 5.59343 6.24701 5.92924
#
# Compressibility (1/GPa) = 0.02059253
#
# Stress axis : x y z
#
# Youngs Moduli (GPa) = 76.99068 76.05323 94.13608
#
# Poissons Ratio (x) = 0.22803 0.25450
# Poissons Ratio (y) = 0.23084 0.22423
# Poissons Ratio (z) = 0.20815 0.18116
#
# Static dielectric constant tensor:
#      x y z
#    x 1.914660 0.000000 0.000000 
#    y 0.000000 1.785730 0.000000 
#    z 0.000000 0.000000 1.827220 
# 
# From -- ./inp_files/8859.got.cif
#   From: 2010.05.17/outbox.cif.g08.bks.cpg/sg42_5_cif.got.tgz:8859.got - 2010.06.03 19:03:34.
