data_PCOD9369685
_publ_section_title
;
Structure prediction by ZEFSAII (Michael W. Deem and Ramdas Pophale) SiO2 
 PCOD9369685
Probable space group: F M M 2
;
_chemical_formula_sum "Si O2"
_cell_formula_units_Z 84
_cell_length_a 8.782984
_cell_length_b 20.382847
_cell_length_c 25.765290
_cell_angle_alpha 90.000000
_cell_angle_beta 90.000000
_cell_angle_gamma 90.000000
_cell_volume 4612.559391
_symmetry_space_group_name_H-M "F M M 2"
_symmetry_group_IT_number 42
_symmetry_cell_setting 'orthorhombic'
loop_
_space_group_symop_operation_xyz
x,y,z
-x,-y,z
-x,y,z
x,-y,z
x,1/2+y,1/2+z
-x,1/2-y,1/2+z
-x,1/2+y,1/2+z
x,1/2-y,1/2+z
1/2+x,y,1/2+z
1/2-x,-y,1/2+z
1/2-x,y,1/2+z
1/2+x,-y,1/2+z
1/2+x,1/2+y,z
1/2-x,1/2-y,z
1/2-x,1/2+y,z
1/2+x,1/2-y,z
loop_
_atom_site_type_symbol
_atom_site_label
_atom_site_fract_x
_atom_site_fract_y
_atom_site_fract_z
Si Si1 0.817065 0.678322 0.991510
Si Si2 0.685077 0.925839 0.077669
Si Si3 0.819166 0.820190 0.276874
Si Si4 0.817017 0.576750 0.197117
Si Si5 0.000000 0.000000 0.880197
Si Si6 0.168258 0.136346 0.884039
O O1 0.750000 0.750000 0.001691
O O2 0.757978 0.653713 0.935943
O O3 0.000000 0.680809 0.991791
O O4 0.764611 0.627153 0.035798
O O5 0.500000 0.926853 0.076956
O O6 0.727513 0.910768 0.137158
O O7 0.736678 0.000000 0.065029
O O8 0.750000 0.750000 0.261637
O O9 0.765293 0.875241 0.236373
O O10 0.753967 0.839283 0.333180
O O11 0.000000 0.816172 0.278373
O O12 0.785928 0.500000 0.208307
O O13 0.000000 0.585528 0.201809
O O14 0.869981 0.941000 0.880386
O O15 0.000000 0.169258 0.886309
#
# Coordination Sequence:
#
# PCOD9369685 Si02
#       6
#    16  16  16  16   4  16
#     4  11  22  37  59  88 122 160 198 241 291 347
#     4   8  17  35  59  86 115 153 198 244 293 346
#     4  12  25  40  60  87 119 157 197 242 294 350
#     4   9  19  38  63  87 118 157 195 241 297 350
#     4   8  24  40  66  88 116 152 196 236 300 346
#     4  10  22  41  61  87 117 151 191 233 292 351
#
# _framework density 18.211148000000001
#
# number of rings (size 3 to 8) (size 9 to 14) (size 15 to 20)
#    0.571    1.524    0.000    4.571    2.667    1.143 
#    0.000    4.762    0.000    2.286    0.000    0.000 
#    0.000    0.000    0.000    0.000    0.000    0.000 
#
# Total GULP energy -116929.923483 kJ/mol
# GULP energy per Si atom -5568.091594 kJ/mol
# Density = 1.816970 g / cm^3
# Si number density = 18.211148 Si / 1000 Ang^3
#
#
#
# Elastic Constant Matrix: (Units=GPa)
#
#
# Indices 1 2 3 4 5 6 
#
# 1 93.0939 60.2751 56.8520 0.0000 0.0000 0.0000
# 2 60.2751 120.5774 84.6286 0.0000 0.0000 0.0000
# 3 56.8520 84.6286 127.6302 0.0000 0.0000 0.0000
# 4 0.0000 0.0000 0.0000 21.5897 0.0000 0.0000
# 5 0.0000 0.0000 0.0000 0.0000 22.5315 0.0000
# 6 0.0000 0.0000 0.0000 0.0000 0.0000 23.3353
#
#
#
# Elastic Compliance Matrix: (Units=1/GPa)
#
#
# Indices 1 2 3 4 5 6 
#
# 1 0.016705 -0.005851 -0.003562 0.000000 0.000000 0.000000
# 2 -0.005851 0.017562 -0.009039 0.000000 0.000000 0.000000
# 3 -0.003562 -0.009039 0.015415 0.000000 0.000000 0.000000
# 4 0.000000 0.000000 0.000000 0.046318 0.000000 0.000000
# 5 0.000000 0.000000 0.000000 0.000000 0.044382 0.000000
# 6 0.000000 0.000000 0.000000 0.000000 0.000000 0.042853
#
#
# Mechanical properties :
#
#
# Convention : Reuss Voigt Hill
#
# Bulk Modulus (GPa) = 78.24895 82.75699 80.50297
# Shear Modulus (GPa) = 22.28170 22.79436 22.53803
#
# Velocity S-wave (km/s) = 3.50168 3.54173 3.52176
# Velocity P-wave (km/s) = 7.70778 7.89094 7.79990
#
# Compressibility (1/GPa) = 0.01277972
#
# Stress axis : x y z
#
# Youngs Moduli (GPa) = 59.86171 56.94023 64.87159
#
# Poissons Ratio (x) = 0.33316 0.23104
# Poissons Ratio (y) = 0.35025 0.58637
# Poissons Ratio (z) = 0.21320 0.51467
#
# Static dielectric constant tensor:
#      x y z
#    x 1.621800 0.000000 0.000000 
#    y 0.000000 1.611000 0.000000 
#    z 0.000000 0.000000 1.610240 
# 
# From -- ./inp_files/27820.got.cif
#   From: 2010.05.17/outbox.cif.g08.bks.cpg/sg42_14_cif.got.tgz:27820.got - 2010.06.03 19:03:34.
