data_PCOD9369266
_publ_section_title
;
Structure prediction by ZEFSAII (Michael W. Deem and Ramdas Pophale) SiO2 
 PCOD9369266
Probable space group: F M M 2
;
_chemical_formula_sum "Si O2"
_cell_formula_units_Z 112
_cell_length_a 14.324783
_cell_length_b 29.345383
_cell_length_c 14.928077
_cell_angle_alpha 90.000000
_cell_angle_beta 90.000000
_cell_angle_gamma 90.000000
_cell_volume 6275.259652
_symmetry_space_group_name_H-M "F M M 2"
_symmetry_group_IT_number 42
_symmetry_cell_setting 'orthorhombic'
loop_
_space_group_symop_operation_xyz
x,y,z
-x,-y,z
-x,y,z
x,-y,z
x,1/2+y,1/2+z
-x,1/2-y,1/2+z
-x,1/2+y,1/2+z
x,1/2-y,1/2+z
1/2+x,y,1/2+z
1/2-x,-y,1/2+z
1/2-x,y,1/2+z
1/2+x,-y,1/2+z
1/2+x,1/2+y,z
1/2-x,1/2-y,z
1/2-x,1/2+y,z
1/2+x,1/2-y,z
loop_
_atom_site_type_symbol
_atom_site_label
_atom_site_fract_x
_atom_site_fract_y
_atom_site_fract_z
Si Si1 0.205869 0.946818 0.511670
Si Si2 0.192811 0.590331 0.679098
Si Si3 0.000000 0.945419 0.264070
Si Si4 0.000000 0.445061 0.971482
Si Si5 0.756605 0.625564 0.362026
Si Si6 0.611422 0.184352 0.623336
Si Si7 0.388331 0.204922 0.425178
Si Si8 0.610955 0.296772 0.323612
O O1 0.257856 0.940905 0.605855
O O2 0.096972 0.932352 0.517860
O O3 0.248553 0.913358 0.436940
O O4 0.210163 0.000000 0.483554
O O5 0.094412 0.571483 0.716660
O O6 0.256895 0.601716 0.764836
O O7 0.167513 0.637476 0.629916
O O8 0.000000 0.929627 0.367717
O O9 0.000000 0.000000 0.263331
O O10 0.000000 0.500000 0.968758
O O11 0.839705 0.660444 0.383941
O O12 0.666491 0.659141 0.357766
O O13 0.500000 0.174644 0.621555
O O14 0.635292 0.208515 0.530576
O O15 0.629762 0.209201 0.717423
O O16 0.500000 0.200309 0.417277
O O17 0.361345 0.251163 0.375073
O O18 0.500000 0.303980 0.334648
#
# Coordination Sequence:
#
# PCOD9369266 Si02
#       8
#    16  16   8   8  16  16  16  16
#     4  11  23  39  60  89 121 156 199 250 304 355
#     4  11  21  36  58  90 119 153 197 249 302 349
#     4  11  20  34  62  91 114 152 206 260 300 349
#     4   9  20  38  60  83 114 156 200 250 302 353
#     4  11  22  37  61  87 116 156 199 251 298 359
#     4   9  17  33  58  82 110 144 186 234 292 346
#     4  10  20  39  58  82 120 157 190 237 303 362
#     4   9  20  36  60  88 115 147 194 249 296 355
#
# _framework density 17.847867000000001
#
# number of rings (size 3 to 8) (size 9 to 14) (size 15 to 20)
#    0.000    1.857    3.571    0.857    2.000    0.571 
#    3.857    1.429    0.000    0.000    0.000    0.000 
#    0.000    0.000    0.000    0.000    0.000    0.000 
#
# Total GULP energy -156200.658461 kJ/mol
# GULP energy per Si atom -5578.594945 kJ/mol
# Density = 1.780724 g / cm^3
# Si number density = 17.847867 Si / 1000 Ang^3
#
#
#
# Elastic Constant Matrix: (Units=GPa)
#
#
# Indices 1 2 3 4 5 6 
#
# 1 61.4840 18.8280 40.7341 0.0000 0.0000 0.0000
# 2 18.8280 89.0467 49.3385 0.0000 0.0000 0.0000
# 3 40.7341 49.3385 105.8970 0.0000 0.0000 0.0000
# 4 0.0000 0.0000 0.0000 33.5710 0.0000 0.0000
# 5 0.0000 0.0000 0.0000 0.0000 24.4970 0.0000
# 6 0.0000 0.0000 0.0000 0.0000 0.0000 25.3035
#
#
#
# Elastic Compliance Matrix: (Units=1/GPa)
#
#
# Indices 1 2 3 4 5 6 
#
# 1 0.021827 0.000050 -0.008419 0.000000 0.000000 0.000000
# 2 0.000050 0.015138 -0.007072 0.000000 0.000000 0.000000
# 3 -0.008419 -0.007072 0.015977 0.000000 0.000000 0.000000
# 4 0.000000 0.000000 0.000000 0.029788 0.000000 0.000000
# 5 0.000000 0.000000 0.000000 0.000000 0.040821 0.000000
# 6 0.000000 0.000000 0.000000 0.000000 0.000000 0.039520
#
#
# Mechanical properties :
#
#
# Convention : Reuss Voigt Hill
#
# Bulk Modulus (GPa) = 45.33372 52.69211 49.01292
# Shear Modulus (GPa) = 24.83775 26.50943 25.67359
#
# Velocity S-wave (km/s) = 3.73451 3.85814 3.79683
# Velocity P-wave (km/s) = 6.63707 7.03093 6.83684
#
# Compressibility (1/GPa) = 0.02205864
#
# Stress axis : x y z
#
# Youngs Moduli (GPa) = 45.81495 66.05888 62.59172
#
# Poissons Ratio (x) = -0.00328 0.52696
# Poissons Ratio (y) = -0.00228 0.44265
# Poissons Ratio (z) = 0.38572 0.46717
#
# Static dielectric constant tensor:
#      x y z
#    x 1.619580 0.000000 0.000000 
#    y 0.000000 1.593540 0.000000 
#    z 0.000000 0.000000 1.609990 
# 
# From -- ./inp_files/14448.got.cif
#   From: 2010.05.17/outbox.cif.g08.bks.cpg/sg42_8_cif.got.tgz:14448.got - 2010.06.03 19:03:34.
