data_PCOD9369599
_publ_section_title
;
Structure prediction by ZEFSAII (Michael W. Deem and Ramdas Pophale) SiO2 
 PCOD9369599
Probable space group: F M M 2
;
_chemical_formula_sum "Si O2"
_cell_formula_units_Z 104
_cell_length_a 18.333507
_cell_length_b 28.167780
_cell_length_c 8.346133
_cell_angle_alpha 90.000000
_cell_angle_beta 90.000000
_cell_angle_gamma 90.000000
_cell_volume 4310.061528
_symmetry_space_group_name_H-M "F M M 2"
_symmetry_group_IT_number 42
_symmetry_cell_setting 'orthorhombic'
loop_
_space_group_symop_operation_xyz
x,y,z
-x,-y,z
-x,y,z
x,-y,z
x,1/2+y,1/2+z
-x,1/2-y,1/2+z
-x,1/2+y,1/2+z
x,1/2-y,1/2+z
1/2+x,y,1/2+z
1/2-x,-y,1/2+z
1/2-x,y,1/2+z
1/2+x,-y,1/2+z
1/2+x,1/2+y,z
1/2-x,1/2-y,z
1/2-x,1/2+y,z
1/2+x,1/2-y,z
loop_
_atom_site_type_symbol
_atom_site_label
_atom_site_fract_x
_atom_site_fract_y
_atom_site_fract_z
Si Si1 0.084991 0.809379 0.765060
Si Si2 0.708838 0.087474 0.495575
Si Si3 0.582195 0.065749 0.896827
Si Si4 0.167902 0.237632 0.470939
Si Si5 0.331094 0.144103 0.794005
Si Si6 0.917548 0.576388 0.268491
Si Si7 0.693712 0.000000 0.695166
O O1 0.127469 0.790174 0.611271
O O2 0.123035 0.783119 0.913341
O O3 0.089496 0.866341 0.767878
O O4 0.000000 0.796448 0.758868
O O5 0.676551 0.127142 0.613056
O O6 0.767042 0.116535 0.391590
O O7 0.646126 0.062002 0.389307
O O8 0.737335 0.042941 0.599443
O O9 0.500000 0.052781 0.851913
O O10 0.590753 0.058324 0.087017
O O11 0.595110 0.121497 0.864245
O O12 0.641769 0.039984 0.787518
O O13 0.250000 0.250000 0.516244
O O14 0.172834 0.199513 0.325536
O O15 0.000000 0.563999 0.322275
#
# Coordination Sequence:
#
# PCOD9369599 Si02
#       7
#    16  16  16  16  16  16   8
#     4  11  25  45  67 103 147 191 243 300 362 427
#     4  11  25  44  69 103 138 183 239 291 363 429
#     4  10  21  43  72 101 137 183 230 285 356 433
#     4  12  26  41  70 103 141 191 248 306 355 425
#     4  11  25  42  69  95 141 188 232 295 358 428
#     4  10  22  43  69  99 144 191 232 286 360 435
#     4  10  25  44  68 106 135 170 228 300 351 430
#
# _framework density 24.129586
#
# number of rings (size 3 to 8) (size 9 to 14) (size 15 to 20)
#    0.000    1.231    1.538    3.000    6.462    6.769 
#    0.000    0.769    0.000    0.000    0.000    0.000 
#    0.000    0.000    0.000    0.000    0.000    0.000 
#
# Total GULP energy -145091.536806 kJ/mol
# GULP energy per Si atom -5580.443723 kJ/mol
# Density = 2.407467 g / cm^3
# Si number density = 24.129586 Si / 1000 Ang^3
#
#
#
# Elastic Constant Matrix: (Units=GPa)
#
#
# Indices 1 2 3 4 5 6 
#
# 1 117.7545 17.1325 22.4935 0.0000 0.0000 0.0000
# 2 17.1325 104.9730 -1.5413 0.0000 0.0000 0.0000
# 3 22.4935 -1.5413 54.8557 0.0000 0.0000 0.0000
# 4 0.0000 0.0000 0.0000 17.4021 0.0000 0.0000
# 5 0.0000 0.0000 0.0000 0.0000 23.2820 0.0000
# 6 0.0000 0.0000 0.0000 0.0000 0.0000 10.2013
#
#
#
# Elastic Compliance Matrix: (Units=1/GPa)
#
#
# Indices 1 2 3 4 5 6 
#
# 1 0.009477 -0.001604 -0.003931 0.000000 0.000000 0.000000
# 2 -0.001604 0.009802 0.000933 0.000000 0.000000 0.000000
# 3 -0.003931 0.000933 0.019868 0.000000 0.000000 0.000000
# 4 0.000000 0.000000 0.000000 0.057464 0.000000 0.000000
# 5 0.000000 0.000000 0.000000 0.000000 0.042952 0.000000
# 6 0.000000 0.000000 0.000000 0.000000 0.000000 0.098026
#
#
# Mechanical properties :
#
#
# Convention : Reuss Voigt Hill
#
# Bulk Modulus (GPa) = 33.39784 39.30584 36.35184
# Shear Modulus (GPa) = 19.47244 26.14365 22.80805
#
# Velocity S-wave (km/s) = 2.84385 3.29518 3.07780
# Velocity P-wave (km/s) = 4.96532 5.55000 5.26578
#
# Compressibility (1/GPa) = 0.02994206
#
# Stress axis : x y z
#
# Youngs Moduli (GPa) = 105.52354 102.02199 50.33284
#
# Poissons Ratio (x) = 0.16368 0.19785
# Poissons Ratio (y) = 0.16930 -0.04697
# Poissons Ratio (z) = 0.41481 -0.09521
#
# Static dielectric constant tensor:
#      x y z
#    x 1.901180 0.000000 0.000000 
#    y 0.000000 1.961990 0.000000 
#    z 0.000000 0.000000 1.968800 
# 
# From -- ./inp_files/4270.got.cif
#   From: 2010.05.17/outbox.cif.g08.bks.cpg/sg42_3_cif.got.tgz:4270.got - 2010.06.03 19:03:34.
