data_PCOD9369808
_publ_section_title
;
Structure prediction by ZEFSAII (Michael W. Deem and Ramdas Pophale) SiO2 
 PCOD9369808
Probable space group: F M M 2
;
_chemical_formula_sum "Si O2"
_cell_formula_units_Z 72
_cell_length_a 8.351846
_cell_length_b 23.286610
_cell_length_c 16.035859
_cell_angle_alpha 90.000000
_cell_angle_beta 90.000000
_cell_angle_gamma 90.000000
_cell_volume 3118.752969
_symmetry_space_group_name_H-M "F M M 2"
_symmetry_group_IT_number 42
_symmetry_cell_setting 'orthorhombic'
loop_
_space_group_symop_operation_xyz
x,y,z
-x,-y,z
-x,y,z
x,-y,z
x,1/2+y,1/2+z
-x,1/2-y,1/2+z
-x,1/2+y,1/2+z
x,1/2-y,1/2+z
1/2+x,y,1/2+z
1/2-x,-y,1/2+z
1/2-x,y,1/2+z
1/2+x,-y,1/2+z
1/2+x,1/2+y,z
1/2-x,1/2-y,z
1/2-x,1/2+y,z
1/2+x,1/2-y,z
loop_
_atom_site_type_symbol
_atom_site_label
_atom_site_fract_x
_atom_site_fract_y
_atom_site_fract_z
Si Si1 0.176534 0.120540 0.216720
Si Si2 0.311779 0.000000 0.277888
Si Si3 0.758605 0.376938 0.525678
Si Si4 0.000000 0.718988 0.061698
Si Si5 0.500000 0.304653 0.743714
Si Si6 0.193060 0.500000 0.477544
Si Si7 0.000000 0.316103 0.425316
O O1 0.162487 0.120916 0.116663
O O2 0.333784 0.159129 0.237516
O O3 0.000000 0.136916 0.251450
O O4 0.224227 0.056738 0.245060
O O5 0.307121 0.000000 0.377855
O O6 0.500000 0.000000 0.252140
O O7 0.643026 0.323425 0.539301
O O8 0.717565 0.443096 0.509691
O O9 0.853654 0.358689 0.442557
O O10 0.000000 0.733749 0.160145
O O11 0.000000 0.773223 0.002942
O O12 0.500000 0.283110 0.838529
O O13 0.000000 0.500000 0.502704
#
# Coordination Sequence:
#
# PCOD9369808 Si02
#       7
#    16   8  16   8   8   8   8
#     4  11  21  41  68 101 139 188 239 295 357 435
#     4  11  22  37  63  97 144 188 232 294 360 436
#     4  11  23  43  73 100 140 187 236 294 362 431
#     4  10  26  47  71 109 140 186 247 294 356 437
#     4  10  24  45  74 100 140 189 238 298 368 422
#     4  11  21  40  66  99 138 186 231 289 368 431
#     4  12  22  49  75 101 146 190 233 300 368 425
#
# _framework density 23.086151000000001
#
# number of rings (size 3 to 8) (size 9 to 14) (size 15 to 20)
#    0.000    1.111    3.333    3.000    0.000    0.444 
#   10.000   11.111    0.000    0.000    0.000    0.000 
#    0.000    0.000    0.000    0.000    0.000    0.000 
#
# Total GULP energy -100415.472093 kJ/mol
# GULP energy per Si atom -5578.637339 kJ/mol
# Density = 2.303361 g / cm^3
# Si number density = 23.086151 Si / 1000 Ang^3
#
#
#
# Elastic Constant Matrix: (Units=GPa)
#
#
# Indices 1 2 3 4 5 6 
#
# 1 105.9642 8.4796 18.5637 0.0000 0.0000 0.0000
# 2 8.4796 111.6161 29.7439 0.0000 0.0000 0.0000
# 3 18.5637 29.7439 125.2023 0.0000 0.0000 0.0000
# 4 0.0000 0.0000 0.0000 39.2465 0.0000 0.0000
# 5 0.0000 0.0000 0.0000 0.0000 7.8148 0.0000
# 6 0.0000 0.0000 0.0000 0.0000 0.0000 -30.1492
#
#
#
# Elastic Compliance Matrix: (Units=1/GPa)
#
#
# Indices 1 2 3 4 5 6 
#
# 1 0.009704 -0.000378 -0.001349 0.000000 0.000000 0.000000
# 2 -0.000378 0.009580 -0.002220 0.000000 0.000000 0.000000
# 3 -0.001349 -0.002220 0.008714 0.000000 0.000000 0.000000
# 4 0.000000 0.000000 0.000000 0.025480 0.000000 0.000000
# 5 0.000000 0.000000 0.000000 0.000000 0.127962 0.000000
# 6 0.000000 0.000000 0.000000 0.000000 0.000000 -0.033168
#
#
# Mechanical properties :
#
#
# Convention : Reuss Voigt Hill
#
# Bulk Modulus (GPa) = 49.73978 50.70634 50.22306
# Shear Modulus (GPa) = 30.70014 22.44879 26.57447
#
# Velocity S-wave (km/s) = 3.65061 3.12170 3.39647
# Velocity P-wave (km/s) = 6.27386 5.91650 6.09780
#
# Compressibility (1/GPa) = 0.02010463
#
# Stress axis : x y z
#
# Youngs Moduli (GPa) = 103.05339 104.38953 114.75213
#
# Poissons Ratio (x) = 0.03943 0.15480
# Poissons Ratio (y) = 0.03892 0.25472
# Poissons Ratio (z) = 0.13902 0.23172
#
# Static dielectric constant tensor:
#      x y z
#    x 1.972890 0.000000 0.000000 
#    y 0.000000 1.821550 0.000000 
#    z 0.000000 0.000000 1.821450 
# 
# From -- ./inp_files/12100.got.cif
#   From: 2010.05.17/outbox.cif.g08.bks.cpg/sg42_7_cif.got.tgz:12100.got - 2010.06.03 19:03:34.
