data_PCOD9369026
_publ_section_title
;
Structure prediction by ZEFSAII (Michael W. Deem and Ramdas Pophale) SiO2 
 PCOD9369026
Probable space group: F M M 2
;
_chemical_formula_sum "Si O2"
_cell_formula_units_Z 96
_cell_length_a 22.604796
_cell_length_b 25.177431
_cell_length_c 8.207181
_cell_angle_alpha 90.000000
_cell_angle_beta 90.000000
_cell_angle_gamma 90.000000
_cell_volume 4670.958598
_symmetry_space_group_name_H-M "F M M 2"
_symmetry_group_IT_number 42
_symmetry_cell_setting 'orthorhombic'
loop_
_space_group_symop_operation_xyz
x,y,z
-x,-y,z
-x,y,z
x,-y,z
x,1/2+y,1/2+z
-x,1/2-y,1/2+z
-x,1/2+y,1/2+z
x,1/2-y,1/2+z
1/2+x,y,1/2+z
1/2-x,-y,1/2+z
1/2-x,y,1/2+z
1/2+x,-y,1/2+z
1/2+x,1/2+y,z
1/2-x,1/2-y,z
1/2-x,1/2+y,z
1/2+x,1/2-y,z
loop_
_atom_site_type_symbol
_atom_site_label
_atom_site_fract_x
_atom_site_fract_y
_atom_site_fract_z
Si Si1 0.929847 0.723576 0.293590
Si Si2 0.158731 0.154045 0.974149
Si Si3 0.297003 0.060625 0.338090
Si Si4 0.165867 0.061992 0.459425
Si Si5 0.879745 0.323330 0.956217
Si Si6 0.267436 0.691067 0.280259
O O1 0.897472 0.689484 0.435001
O O2 0.911274 0.784949 0.323448
O O3 0.000000 0.719423 0.301084
O O4 0.906488 0.697095 0.126411
O O5 0.155934 0.091450 0.951276
O O6 0.206112 0.164680 0.828852
O O7 0.192590 0.167555 0.138221
O O8 0.227254 0.074270 0.364050
O O9 0.315881 0.064196 0.149928
O O10 0.299108 0.000000 0.390392
O O11 0.121367 0.112390 0.434106
O O12 0.147933 0.000000 0.424906
O O13 0.810569 0.308129 0.937413
O O14 0.250000 0.750000 0.235282
#
# Coordination Sequence:
#
# PCOD9369026 Si02
#       6
#    16  16  16  16  16  16
#     4  12  27  45  64  88 129 179 224 270 323 385
#     4  12  22  38  61  94 133 170 208 267 327 396
#     4  10  20  35  58  91 133 173 209 259 327 400
#     4  10  21  38  61  94 136 175 212 261 330 404
#     4  12  24  43  65  95 128 173 214 278 328 398
#     4  12  24  36  62  97 130 162 206 260 344 400
#
# _framework density 20.552526
#
# number of rings (size 3 to 8) (size 9 to 14) (size 15 to 20)
#    0.000    0.667    5.000    4.000    0.000    0.000 
#    0.000    0.833    0.000    3.500    0.000    0.000 
#    0.000   10.667    0.000    0.000    0.000    0.000 
#
# Total GULP energy -133987.437993 kJ/mol
# GULP energy per Si atom -5582.809916 kJ/mol
# Density = 2.050575 g / cm^3
# Si number density = 20.552526 Si / 1000 Ang^3
#
#
#
# Elastic Constant Matrix: (Units=GPa)
#
#
# Indices 1 2 3 4 5 6 
#
# 1 108.5784 55.9760 23.8024 0.0008 -0.0014 -0.0007
# 2 55.9760 156.3927 39.3639 0.0004 -0.0003 0.0001
# 3 23.8024 39.3639 61.8200 0.0013 -0.0024 -0.0012
# 4 0.0008 0.0004 0.0013 33.0967 -0.0007 -0.0001
# 5 -0.0014 -0.0003 -0.0024 -0.0007 17.0088 0.0012
# 6 -0.0007 0.0001 -0.0012 -0.0001 0.0012 11.8416
#
#
#
# Elastic Compliance Matrix: (Units=1/GPa)
#
#
# Indices 1 2 3 4 5 6 
#
# 1 0.011531 -0.003584 -0.002157 0.000000 0.000001 0.000000
# 2 -0.003584 0.008729 -0.004178 0.000000 -0.000001 -0.000001
# 3 -0.002157 -0.004178 0.019667 -0.000001 0.000003 0.000002
# 4 0.000000 0.000000 -0.000001 0.030214 0.000001 0.000000
# 5 0.000001 -0.000001 0.000003 0.000001 0.058793 -0.000006
# 6 0.000000 -0.000001 0.000002 0.000000 -0.000006 0.084448
#
#
# Mechanical properties :
#
#
# Convention : Reuss Voigt Hill
#
# Bulk Modulus (GPa) = 49.78282 62.78619 56.28451
# Shear Modulus (GPa) = 20.84062 26.23269 23.53665
#
# Velocity S-wave (km/s) = 3.18782 3.57651 3.38774
# Velocity P-wave (km/s) = 6.15015 6.90440 6.53816
#
# Compressibility (1/GPa) = 0.02008725
#
# Stress axis : x y z
#
# Youngs Moduli (GPa) = 86.72606 114.56689 50.84655
#
# Poissons Ratio (x) = 0.41061 0.10970
# Poissons Ratio (y) = 0.31082 0.21243
# Poissons Ratio (z) = 0.18711 0.47866
#
# Static dielectric constant tensor:
#      x y z
#    x 1.701150 0.000000 0.000000 
#    y 0.000000 2.215330 0.000000 
#    z 0.000000 0.000000 1.818190 
# 
# From -- ./inp_files/4804.got.cif
#   From: 2010.05.17/outbox.cif.g08.bks.cpg/sg42_3_cif.got.tgz:4804.got - 2010.06.03 19:03:34.
