data_PCOD9369176
_publ_section_title
;
Structure prediction by ZEFSAII (Michael W. Deem and Ramdas Pophale) SiO2 
 PCOD9369176
Probable space group: F M M 2
;
_chemical_formula_sum "Si O2"
_cell_formula_units_Z 96
_cell_length_a 15.219926
_cell_length_b 12.754672
_cell_length_c 22.365776
_cell_angle_alpha 90.000000
_cell_angle_beta 90.000000
_cell_angle_gamma 90.000000
_cell_volume 4341.759934
_symmetry_space_group_name_H-M "F M M 2"
_symmetry_group_IT_number 42
_symmetry_cell_setting 'orthorhombic'
loop_
_space_group_symop_operation_xyz
x,y,z
-x,-y,z
-x,y,z
x,-y,z
x,1/2+y,1/2+z
-x,1/2-y,1/2+z
-x,1/2+y,1/2+z
x,1/2-y,1/2+z
1/2+x,y,1/2+z
1/2-x,-y,1/2+z
1/2-x,y,1/2+z
1/2+x,-y,1/2+z
1/2+x,1/2+y,z
1/2-x,1/2-y,z
1/2-x,1/2+y,z
1/2+x,1/2-y,z
loop_
_atom_site_type_symbol
_atom_site_label
_atom_site_fract_x
_atom_site_fract_y
_atom_site_fract_z
Si Si1 0.607248 0.881525 0.094370
Si Si2 0.105780 0.883382 0.390377
Si Si3 0.893506 0.000000 0.176518
Si Si4 0.101736 0.112522 0.728469
Si Si5 0.892567 0.224349 0.992671
Si Si6 0.107631 0.000000 0.036284
Si Si7 0.337665 0.683776 0.264885
O O1 0.500000 0.876800 0.092950
O O2 0.639103 0.865039 0.162254
O O3 0.631462 0.000000 0.076634
O O4 0.637467 0.793192 0.049168
O O5 0.133077 0.789414 0.434037
O O6 0.155596 0.874546 0.327615
O O7 0.000000 0.875714 0.379648
O O8 0.120161 0.000000 0.416715
O O9 0.860856 0.897250 0.212462
O O10 0.867089 0.000000 0.106679
O O11 0.000000 0.000000 0.179108
O O12 0.101003 0.214380 0.768992
O O13 0.000000 0.096305 0.716470
O O14 0.138869 0.000000 0.750711
O O15 0.000000 0.223153 0.992485
O O16 0.863237 0.105379 0.002595
O O17 0.000000 0.000000 0.036584
O O18 0.250000 0.750000 0.254167
#
# Coordination Sequence:
#
# PCOD9369176 Si02
#       7
#    16  16   8  16  16   8  16
#     4   8  13  24  46  78 109 138 180 242 309 361
#     4  10  20  37  61  87 117 158 214 267 307 365
#     4  11  22  42  71  96 127 169 213 260 307 382
#     4   9  18  33  55  83 116 151 192 246 310 378
#     4   9  16  28  50  85 120 148 193 256 312 360
#     4   9  18  32  57  94 126 155 195 252 322 372
#     4  12  25  38  59  87 123 165 211 261 314 365
#
# _framework density 22.110849999999999
#
# number of rings (size 3 to 8) (size 9 to 14) (size 15 to 20)
#    0.000    2.333    0.833    4.000    1.167    4.667 
#    1.500    0.000    0.000    4.000    0.000    0.000 
#    0.000    0.000    0.000    0.000    0.000    0.000 
#
# Total GULP energy -133806.043219 kJ/mol
# GULP energy per Si atom -5575.251801 kJ/mol
# Density = 2.206052 g / cm^3
# Si number density = 22.110850 Si / 1000 Ang^3
#
#
#
# Elastic Constant Matrix: (Units=GPa)
#
#
# Indices 1 2 3 4 5 6 
#
# 1 41.3785 15.6164 11.1149 0.0000 0.0000 0.0000
# 2 15.6164 190.6899 67.5797 0.0000 0.0000 0.0000
# 3 11.1149 67.5797 74.5450 0.0000 0.0000 0.0000
# 4 0.0000 0.0000 0.0000 44.3619 0.0000 0.0000
# 5 0.0000 0.0000 0.0000 0.0000 -3.0246 0.0000
# 6 0.0000 0.0000 0.0000 0.0000 0.0000 20.2709
#
#
#
# Elastic Compliance Matrix: (Units=1/GPa)
#
#
# Indices 1 2 3 4 5 6 
#
# 1 0.025327 -0.001084 -0.002793 0.000000 0.000000 0.000000
# 2 -0.001084 0.007773 -0.006885 0.000000 0.000000 0.000000
# 3 -0.002793 -0.006885 0.020073 0.000000 0.000000 0.000000
# 4 0.000000 0.000000 0.000000 0.022542 0.000000 0.000000
# 5 0.000000 0.000000 0.000000 0.000000 -0.330624 0.000000
# 6 0.000000 0.000000 0.000000 0.000000 0.000000 0.049332
#
#
# Mechanical properties :
#
#
# Convention : Reuss Voigt Hill
#
# Bulk Modulus (GPa) = 31.59825 55.02616 43.31221
# Shear Modulus (GPa) = -28.81778 26.47514 -1.17132
#
# Velocity S-wave (km/s) = -3.61409 3.46407 -0.72863
# Velocity P-wave (km/s) = 1.75887 6.39846 4.35009
#
# Compressibility (1/GPa) = 0.03164732
#
# Stress axis : x y z
#
# Youngs Moduli (GPa) = 39.48409 128.65200 49.81838
#
# Poissons Ratio (x) = 0.13947 0.13917
# Poissons Ratio (y) = 0.04280 0.34300
# Poissons Ratio (z) = 0.11030 0.88577
#
# Static dielectric constant tensor:
#      x y z
#    x 1.653920 0.000000 0.000000 
#    y 0.000000 1.650100 0.000000 
#    z 0.000000 0.000000 1.784280 
# 
# From -- ./inp_files/24473.got.cif
#   From: 2010.05.17/outbox.cif.g08.bks.cpg/sg42_13_cif.got.tgz:24473.got - 2010.06.03 19:03:34.
