data_PCOD9369453
_publ_section_title
;
Structure prediction by ZEFSAII (Michael W. Deem and Ramdas Pophale) SiO2 
 PCOD9369453
Probable space group: F M M 2
;
_chemical_formula_sum "Si O2"
_cell_formula_units_Z 80
_cell_length_a 18.680496
_cell_length_b 17.177998
_cell_length_c 13.614358
_cell_angle_alpha 90.000000
_cell_angle_beta 90.000000
_cell_angle_gamma 90.000000
_cell_volume 4368.759301
_symmetry_space_group_name_H-M "F M M 2"
_symmetry_group_IT_number 42
_symmetry_cell_setting 'orthorhombic'
loop_
_space_group_symop_operation_xyz
x,y,z
-x,-y,z
-x,y,z
x,-y,z
x,1/2+y,1/2+z
-x,1/2-y,1/2+z
-x,1/2+y,1/2+z
x,1/2-y,1/2+z
1/2+x,y,1/2+z
1/2-x,-y,1/2+z
1/2-x,y,1/2+z
1/2+x,-y,1/2+z
1/2+x,1/2+y,z
1/2-x,1/2-y,z
1/2-x,1/2+y,z
1/2+x,1/2-y,z
loop_
_atom_site_type_symbol
_atom_site_label
_atom_site_fract_x
_atom_site_fract_y
_atom_site_fract_z
Si Si1 0.270005 0.160610 0.977160
Si Si2 0.000000 0.906847 0.963271
Si Si3 0.265432 0.412559 0.685184
Si Si4 0.861637 0.673585 0.793750
Si Si5 0.635769 0.145298 0.337732
Si Si6 0.500000 0.594348 0.195836
O O1 0.250000 0.250000 0.003548
O O2 0.338744 0.154853 0.906088
O O3 0.202576 0.136135 0.911524
O O4 0.277153 0.109619 0.073042
O O5 0.932204 0.877244 0.901667
O O6 0.000000 0.000000 0.962837
O O7 0.000000 0.883785 0.079046
O O8 0.236785 0.500000 0.695683
O O9 0.207017 0.352885 0.729659
O O10 0.339422 0.405003 0.744815
O O11 0.870537 0.766659 0.797123
O O12 0.930290 0.630283 0.749504
O O13 0.500000 0.500000 0.202378
#
# Coordination Sequence:
#
# PCOD9369453 Si02
#       6
#    16   8  16  16  16   8
#     4   9  19  36  58  82 109 144 188 229 270 326
#     4  11  23  38  57  83 113 145 184 231 282 330
#     4  11  21  34  57  86 114 145 182 230 281 324
#     4  10  21  38  58  81 111 147 189 228 269 328
#     4  10  21  38  58  80 110 148 188 229 271 327
#     4  11  23  38  59  85 113 145 182 231 284 328
#
# _framework density 18.311836
#
# number of rings (size 3 to 8) (size 9 to 14) (size 15 to 20)
#    0.000    1.800    0.000    6.000    0.000    8.000 
#    0.000    1.000    0.000    1.200    0.000    0.000 
#    0.000    0.000    0.000    0.000    0.000    0.000 
#
# Total GULP energy -111557.199186 kJ/mol
# GULP energy per Si atom -5577.859959 kJ/mol
# Density = 1.827016 g / cm^3
# Si number density = 18.311836 Si / 1000 Ang^3
#
#
#
# Elastic Constant Matrix: (Units=GPa)
#
#
# Indices 1 2 3 4 5 6 
#
# 1 111.4205 39.8783 50.0021 0.0000 0.0000 0.0000
# 2 39.8783 85.5740 75.2743 0.0000 0.0000 0.0000
# 3 50.0021 75.2743 92.0822 0.0000 0.0000 0.0000
# 4 0.0000 0.0000 0.0000 -61.6835 0.0000 0.0000
# 5 0.0000 0.0000 0.0000 0.0000 9.0905 0.0000
# 6 0.0000 0.0000 0.0000 0.0000 0.0000 24.4884
#
#
#
# Elastic Compliance Matrix: (Units=1/GPa)
#
#
# Indices 1 2 3 4 5 6 
#
# 1 0.011873 0.000492 -0.006849 0.000000 0.000000 0.000000
# 2 0.000492 0.041618 -0.034289 0.000000 0.000000 0.000000
# 3 -0.006849 -0.034289 0.042609 0.000000 0.000000 0.000000
# 4 0.000000 0.000000 0.000000 -0.016212 0.000000 0.000000
# 5 0.000000 0.000000 0.000000 0.000000 0.110005 0.000000
# 6 0.000000 0.000000 0.000000 0.000000 0.000000 0.040836
#
#
# Mechanical properties :
#
#
# Convention : Reuss Voigt Hill
#
# Bulk Modulus (GPa) = 67.53086 68.82068 68.17577
# Shear Modulus (GPa) = 15.77500 2.64054 9.20777
#
# Velocity S-wave (km/s) = 2.93826 1.20213 2.24482
# Velocity P-wave (km/s) = 6.96200 6.29214 6.63553
#
# Compressibility (1/GPa) = 0.01480804
#
# Stress axis : x y z
#
# Youngs Moduli (GPa) = 84.22721 24.02792 23.46904
#
# Poissons Ratio (x) = -0.01183 0.16075
# Poissons Ratio (y) = -0.04147 0.80473
# Poissons Ratio (z) = 0.57691 0.82389
#
# Static dielectric constant tensor:
#      x y z
#    x 1.626530 0.000000 0.000000 
#    y 0.000000 1.646160 0.000000 
#    z 0.000000 0.000000 1.624570 
# 
# From -- ./inp_files/9369.got.cif
#   From: 2010.05.17/outbox.cif.g08.bks.cpg/sg42_5_cif.got.tgz:9369.got - 2010.06.03 19:03:34.
