data_PCOD9369492
_publ_section_title
;
Structure prediction by ZEFSAII (Michael W. Deem and Ramdas Pophale) SiO2 
 PCOD9369492
Probable space group: F M M 2
;
_chemical_formula_sum "Si O2"
_cell_formula_units_Z 120
_cell_length_a 20.943052
_cell_length_b 20.956933
_cell_length_c 13.877556
_cell_angle_alpha 90.000000
_cell_angle_beta 90.000000
_cell_angle_gamma 90.000000
_cell_volume 6090.888993
_symmetry_space_group_name_H-M "F M M 2"
_symmetry_group_IT_number 42
_symmetry_cell_setting 'orthorhombic'
loop_
_space_group_symop_operation_xyz
x,y,z
-x,-y,z
-x,y,z
x,-y,z
x,1/2+y,1/2+z
-x,1/2-y,1/2+z
-x,1/2+y,1/2+z
x,1/2-y,1/2+z
1/2+x,y,1/2+z
1/2-x,-y,1/2+z
1/2-x,y,1/2+z
1/2+x,-y,1/2+z
1/2+x,1/2+y,z
1/2-x,1/2-y,z
1/2-x,1/2+y,z
1/2+x,1/2-y,z
loop_
_atom_site_type_symbol
_atom_site_label
_atom_site_fract_x
_atom_site_fract_y
_atom_site_fract_z
Si Si1 0.250000 0.250000 0.112370
Si Si2 0.923891 0.644142 0.393926
Si Si3 0.819975 0.643617 0.736848
Si Si4 0.425186 0.787370 0.862567
Si Si5 0.577296 0.426234 0.703411
Si Si6 0.146809 0.072611 0.047937
Si Si7 0.228688 0.926776 0.413405
Si Si8 0.859628 0.343511 0.039019
O O1 0.212342 0.200361 0.178301
O O2 0.197147 0.291775 0.055084
O O3 0.901571 0.714063 0.361441
O O4 0.905735 0.592112 0.313300
O O5 0.900031 0.622787 0.497996
O O6 0.000000 0.647495 0.395934
O O7 0.882034 0.670537 0.791732
O O8 0.837728 0.591080 0.657158
O O9 0.772352 0.615902 0.817647
O O10 0.500000 0.790290 0.838326
O O11 0.412842 0.811835 0.971178
O O12 0.500000 0.420976 0.693143
O O13 0.594926 0.500000 0.682988
O O14 0.611408 0.374929 0.634674
O O15 0.209774 0.078153 0.981371
O O16 0.123064 0.000000 0.041559
O O17 0.170888 0.901202 0.478293
O O18 0.220108 0.000000 0.385411
#
# Coordination Sequence:
#
# PCOD9369492 Si02
#       8
#     8  16  16  16  16  16  16  16
#     4  12  24  38  60  94 124 170 202 250 318 366
#     4  10  22  39  59  88 122 159 204 251 306 363
#     4  11  24  40  62  89 126 158 206 257 305 378
#     4  10  23  41  65  91 122 166 206 256 309 366
#     4  10  21  38  62  92 123 157 203 259 315 371
#     4  11  23  40  61  88 122 161 206 252 307 368
#     4  10  23  40  60  87 121 159 200 249 304 366
#     4  11  22  39  64  89 126 159 209 251 308 368
#
# _framework density 19.701557999999999
#
# number of rings (size 3 to 8) (size 9 to 14) (size 15 to 20)
#    0.000    1.467    1.333    3.200    3.733    2.400 
#    0.000    3.333    0.000    7.600    0.000    0.000 
#    0.000    0.000    0.000    0.000    0.000    0.000 
#
# Total GULP energy -167553.399397 kJ/mol
# GULP energy per Si atom -5585.113313 kJ/mol
# Density = 1.965672 g / cm^3
# Si number density = 19.701558 Si / 1000 Ang^3
#
#
#
# Elastic Constant Matrix: (Units=GPa)
#
#
# Indices 1 2 3 4 5 6 
#
# 1 37.2715 22.4774 9.3470 0.0000 0.0000 0.0000
# 2 22.4774 86.4004 11.8367 0.0000 0.0000 0.0000
# 3 9.3470 11.8367 74.9948 0.0000 0.0000 0.0000
# 4 0.0000 0.0000 0.0000 2.1232 0.0000 0.0000
# 5 0.0000 0.0000 0.0000 0.0000 20.1559 0.0000
# 6 0.0000 0.0000 0.0000 0.0000 0.0000 26.2849
#
#
#
# Elastic Compliance Matrix: (Units=1/GPa)
#
#
# Indices 1 2 3 4 5 6 
#
# 1 0.032374 -0.008043 -0.002765 0.000000 0.000000 0.000000
# 2 -0.008043 0.013828 -0.001180 0.000000 0.000000 0.000000
# 3 -0.002765 -0.001180 0.013865 0.000000 0.000000 0.000000
# 4 0.000000 0.000000 0.000000 0.470978 0.000000 0.000000
# 5 0.000000 0.000000 0.000000 0.000000 0.049613 0.000000
# 6 0.000000 0.000000 0.000000 0.000000 0.000000 0.038045
#
#
# Mechanical properties :
#
#
# Convention : Reuss Voigt Hill
#
# Bulk Modulus (GPa) = 27.70863 31.77656 29.74260
# Shear Modulus (GPa) = 7.63694 20.04651 13.84172
#
# Velocity S-wave (km/s) = 1.97097 3.19330 2.65348
# Velocity P-wave (km/s) = 4.39026 5.45529 4.95149
#
# Compressibility (1/GPa) = 0.03608984
#
# Stress axis : x y z
#
# Youngs Moduli (GPa) = 30.88855 72.31589 72.12302
#
# Poissons Ratio (x) = 0.58167 0.19946
# Poissons Ratio (y) = 0.24845 0.08511
# Poissons Ratio (z) = 0.08542 0.08534
#
# Static dielectric constant tensor:
#      x y z
#    x 1.707230 0.000000 0.000000 
#    y 0.000000 1.699000 0.000000 
#    z 0.000000 0.000000 1.666850 
# 
# From -- ./inp_files/10281.got.cif
#   From: 2010.05.17/outbox.cif.g08.bks.cpg/sg42_6_cif.got.tgz:10281.got - 2010.06.03 19:03:34.
