data_PCOD9369839
_publ_section_title
;
Structure prediction by ZEFSAII (Michael W. Deem and Ramdas Pophale) SiO2 
 PCOD9369839
Probable space group: F M M 2
;
_chemical_formula_sum "Si O2"
_cell_formula_units_Z 80
_cell_length_a 15.744072
_cell_length_b 19.157584
_cell_length_c 14.001064
_cell_angle_alpha 90.000000
_cell_angle_beta 90.000000
_cell_angle_gamma 90.000000
_cell_volume 4222.978268
_symmetry_space_group_name_H-M "F M M 2"
_symmetry_group_IT_number 42
_symmetry_cell_setting 'orthorhombic'
loop_
_space_group_symop_operation_xyz
x,y,z
-x,-y,z
-x,y,z
x,-y,z
x,1/2+y,1/2+z
-x,1/2-y,1/2+z
-x,1/2+y,1/2+z
x,1/2-y,1/2+z
1/2+x,y,1/2+z
1/2-x,-y,1/2+z
1/2-x,y,1/2+z
1/2+x,-y,1/2+z
1/2+x,1/2+y,z
1/2-x,1/2-y,z
1/2-x,1/2+y,z
1/2+x,1/2-y,z
loop_
_atom_site_type_symbol
_atom_site_label
_atom_site_fract_x
_atom_site_fract_y
_atom_site_fract_z
Si Si1 0.345833 0.275517 0.449360
Si Si2 0.396260 0.500000 0.173674
Si Si3 0.401159 0.361478 0.848045
Si Si4 0.395532 0.000000 0.452665
Si Si5 0.602824 0.214506 0.162760
Si Si6 0.102968 0.144303 0.267343
O O1 0.250000 0.250000 0.444197
O O2 0.397388 0.206469 0.416191
O O3 0.367298 0.298566 0.556021
O O4 0.363452 0.334743 0.371243
O O5 0.500000 0.500000 0.173829
O O6 0.368685 0.429809 0.227069
O O7 0.369379 0.500000 0.063228
O O8 0.500000 0.377199 0.830509
O O9 0.365518 0.429981 0.899021
O O10 0.364349 0.337240 0.745916
O O11 0.500000 0.000000 0.453689
O O12 0.500000 0.212022 0.163592
O O13 0.627658 0.292469 0.196463
O O14 0.000000 0.144330 0.272247
#
# Coordination Sequence:
#
# PCOD9369839 Si02
#       6
#    16   8  16   8  16  16
#     4  11  21  32  49  72 103 138 170 203 246 299
#     4   9  16  28  52  81 103 127 163 210 258 300
#     4   9  18  33  54  77  99 126 166 213 254 295
#     4   9  16  30  54  81 103 125 163 212 258 302
#     4   9  17  31  51  73  99 131 167 209 252 294
#     4   9  18  33  53  76  99 126 167 214 254 295
#
# _framework density 18.943977
#
# number of rings (size 3 to 8) (size 9 to 14) (size 15 to 20)
#    0.000    2.600    0.000    4.200    0.000    6.400 
#    0.000    2.000    0.000    3.600    0.000    0.000 
#    0.000    0.000    0.000    0.000    0.000    0.000 
#
# Total GULP energy -111559.149013 kJ/mol
# GULP energy per Si atom -5577.957451 kJ/mol
# Density = 1.890086 g / cm^3
# Si number density = 18.943977 Si / 1000 Ang^3
#
#
#
# Elastic Constant Matrix: (Units=GPa)
#
#
# Indices 1 2 3 4 5 6 
#
# 1 11.5954 12.8641 15.2994 0.0000 0.0000 0.0000
# 2 12.8641 156.4387 109.4208 0.0000 0.0000 0.0000
# 3 15.2994 109.4208 194.0694 0.0000 0.0000 0.0000
# 4 0.0000 0.0000 0.0000 20.1946 0.0000 0.0000
# 5 0.0000 0.0000 0.0000 0.0000 -13.8857 0.0000
# 6 0.0000 0.0000 0.0000 0.0000 0.0000 3.9354
#
#
#
# Elastic Compliance Matrix: (Units=1/GPa)
#
#
# Indices 1 2 3 4 5 6 
#
# 1 0.098042 -0.004385 -0.005257 0.000000 0.000000 0.000000
# 2 -0.004385 0.010751 -0.005716 0.000000 0.000000 0.000000
# 3 -0.005257 -0.005716 0.008790 0.000000 0.000000 0.000000
# 4 0.000000 0.000000 0.000000 0.049518 0.000000 0.000000
# 5 0.000000 0.000000 0.000000 0.000000 -0.072017 0.000000
# 6 0.000000 0.000000 0.000000 0.000000 0.000000 0.254105
#
#
# Mechanical properties :
#
#
# Convention : Reuss Voigt Hill
#
# Bulk Modulus (GPa) = 11.51179 70.80803 41.15991
# Shear Modulus (GPa) = 12.22910 17.01681 14.62295
#
# Velocity S-wave (km/s) = 2.54351 3.00037 2.78133
# Velocity P-wave (km/s) = 3.83612 7.03290 5.66469
#
# Compressibility (1/GPa) = 0.08686747
#
# Stress axis : x y z
#
# Youngs Moduli (GPa) = 10.19967 93.01602 113.76677
#
# Poissons Ratio (x) = 0.40792 0.59802
# Poissons Ratio (y) = 0.04473 0.65027
# Poissons Ratio (z) = 0.05361 0.53166
#
# Static dielectric constant tensor:
#      x y z
#    x 1.697380 0.000000 0.000000 
#    y 0.000000 1.650110 0.000000 
#    z 0.000000 0.000000 1.647170 
# 
# From -- ./inp_files/8610.got.cif
#   From: 2010.05.17/outbox.cif.g08.bks.cpg/sg42_5_cif.got.tgz:8610.got - 2010.06.03 19:03:34.
