data_PCOD9369388
_publ_section_title
;
Structure prediction by ZEFSAII (Michael W. Deem and Ramdas Pophale) SiO2 
 PCOD9369388
Probable space group: F M M 2
;
_chemical_formula_sum "Si O2"
_cell_formula_units_Z 100
_cell_length_a 9.474762
_cell_length_b 28.102163
_cell_length_c 20.425222
_cell_angle_alpha 90.000000
_cell_angle_beta 90.000000
_cell_angle_gamma 90.000000
_cell_volume 5438.446287
_symmetry_space_group_name_H-M "F M M 2"
_symmetry_group_IT_number 42
_symmetry_cell_setting 'orthorhombic'
loop_
_space_group_symop_operation_xyz
x,y,z
-x,-y,z
-x,y,z
x,-y,z
x,1/2+y,1/2+z
-x,1/2-y,1/2+z
-x,1/2+y,1/2+z
x,1/2-y,1/2+z
1/2+x,y,1/2+z
1/2-x,-y,1/2+z
1/2-x,y,1/2+z
1/2+x,-y,1/2+z
1/2+x,1/2+y,z
1/2-x,1/2-y,z
1/2-x,1/2+y,z
1/2+x,1/2-y,z
loop_
_atom_site_type_symbol
_atom_site_label
_atom_site_fract_x
_atom_site_fract_y
_atom_site_fract_z
Si Si1 0.667307 0.799172 0.118170
Si Si2 0.333749 0.443738 0.778911
Si Si3 0.710235 0.947223 0.541904
Si Si4 0.500000 0.000000 0.050689
Si Si5 0.161717 0.612849 0.670638
Si Si6 0.834030 0.298729 0.962276
Si Si7 0.662361 0.385976 0.912415
O O1 0.500000 0.795365 0.132240
O O2 0.750000 0.750000 0.130156
O O3 0.743053 0.840729 0.158404
O O4 0.681976 0.809603 0.040150
O O5 0.500000 0.438842 0.760666
O O6 0.305342 0.500000 0.785601
O O7 0.235326 0.420230 0.724589
O O8 0.311740 0.416510 0.847222
O O9 0.661390 0.916220 0.602797
O O10 0.680419 0.920173 0.474828
O O11 0.646395 0.000000 0.541301
O O12 0.875897 0.958914 0.549607
O O13 0.000000 0.624838 0.687888
O O14 0.750000 0.250000 0.949624
O O15 0.766248 0.341757 0.921916
O O16 0.000000 0.293039 0.949063
O O17 0.500000 0.368894 0.911020
#
# Coordination Sequence:
#
# PCOD9369388 Si02
#       7
#    16  16  16   4  16  16  16
#     4  10  21  37  62  91 125 159 199 247 305 363
#     4  10  24  43  63  84 121 168 209 248 304 365
#     4  10  22  36  60  85 119 154 201 251 303 358
#     4   8  24  36  54  92 120 152 198 258 304 360
#     4  12  24  38  60  91 122 158 201 254 306 359
#     4  10  21  36  61  92 125 159 199 248 305 361
#     4  11  22  39  62  90 121 159 202 252 304 361
#
# _framework density 18.387606000000002
#
# number of rings (size 3 to 8) (size 9 to 14) (size 15 to 20)
#    0.480    1.120    1.600    2.880    3.360    4.800 
#    0.000    0.800    0.000    3.840    0.000    0.000 
#    0.000    0.000    0.000    0.000    0.000    0.000 
#
# Total GULP energy -139322.304358 kJ/mol
# GULP energy per Si atom -5572.892174 kJ/mol
# Density = 1.834575 g / cm^3
# Si number density = 18.387606 Si / 1000 Ang^3
#
#
#
# Elastic Constant Matrix: (Units=GPa)
#
#
# Indices 1 2 3 4 5 6 
#
# 1 171.6765 81.7259 49.7834 0.0000 0.0000 0.0000
# 2 81.7259 122.2455 37.5225 0.0000 0.0000 0.0000
# 3 49.7834 37.5225 70.1590 0.0000 0.0000 0.0000
# 4 0.0000 0.0000 0.0000 51.0426 0.0000 0.0000
# 5 0.0000 0.0000 0.0000 0.0000 21.7066 0.0000
# 6 0.0000 0.0000 0.0000 0.0000 0.0000 34.1302
#
#
#
# Elastic Compliance Matrix: (Units=1/GPa)
#
#
# Indices 1 2 3 4 5 6 
#
# 1 0.009378 -0.005057 -0.003950 0.000000 0.000000 0.000000
# 2 -0.005057 0.012514 -0.003104 0.000000 0.000000 0.000000
# 3 -0.003950 -0.003104 0.018716 0.000000 0.000000 0.000000
# 4 0.000000 0.000000 0.000000 0.019591 0.000000 0.000000
# 5 0.000000 0.000000 0.000000 0.000000 0.046069 0.000000
# 6 0.000000 0.000000 0.000000 0.000000 0.000000 0.029300
#
#
# Mechanical properties :
#
#
# Convention : Reuss Voigt Hill
#
# Bulk Modulus (GPa) = 61.02839 78.01606 69.52223
# Shear Modulus (GPa) = 30.25695 34.37916 32.31806
#
# Velocity S-wave (km/s) = 4.06089 4.32868 4.19692
# Velocity P-wave (km/s) = 7.43302 8.21609 7.83434
#
# Compressibility (1/GPa) = 0.01638582
#
# Stress axis : x y z
#
# Youngs Moduli (GPa) = 106.63749 79.91109 53.42984
#
# Poissons Ratio (x) = 0.40411 0.21102
# Poissons Ratio (y) = 0.53926 0.16587
# Poissons Ratio (z) = 0.42117 0.24807
#
# Static dielectric constant tensor:
#      x y z
#    x 1.636390 0.000000 0.000000 
#    y 0.000000 1.617790 0.000000 
#    z 0.000000 0.000000 1.607630 
# 
# From -- ./inp_files/23796.got.cif
#   From: 2010.05.17/outbox.cif.g08.bks.cpg/sg42_12_cif.got.tgz:23796.got - 2010.06.03 19:03:34.
