data_PCOD9369955
_publ_section_title
;
Structure prediction by ZEFSAII (Michael W. Deem and Ramdas Pophale) SiO2 
 PCOD9369955
Probable space group: F M M 2
;
_chemical_formula_sum "Si O2"
_cell_formula_units_Z 80
_cell_length_a 26.240164
_cell_length_b 18.037609
_cell_length_c 7.662675
_cell_angle_alpha 90.000000
_cell_angle_beta 90.000000
_cell_angle_gamma 90.000000
_cell_volume 3626.819312
_symmetry_space_group_name_H-M "F M M 2"
_symmetry_group_IT_number 42
_symmetry_cell_setting 'orthorhombic'
loop_
_space_group_symop_operation_xyz
x,y,z
-x,-y,z
-x,y,z
x,-y,z
x,1/2+y,1/2+z
-x,1/2-y,1/2+z
-x,1/2+y,1/2+z
x,1/2-y,1/2+z
1/2+x,y,1/2+z
1/2-x,-y,1/2+z
1/2-x,y,1/2+z
1/2+x,-y,1/2+z
1/2+x,1/2+y,z
1/2-x,1/2-y,z
1/2-x,1/2+y,z
1/2+x,1/2-y,z
loop_
_atom_site_type_symbol
_atom_site_label
_atom_site_fract_x
_atom_site_fract_y
_atom_site_fract_z
Si Si1 0.831564 0.587599 0.812020
Si Si2 0.557039 0.588054 0.831536
Si Si3 0.299589 0.197523 0.100585
Si Si4 0.444439 0.411238 0.413549
Si Si5 0.842631 0.338926 0.469433
O O1 0.827821 0.500000 0.844292
O O2 0.817329 0.608668 0.615223
O O3 0.800770 0.634913 0.953348
O O4 0.891132 0.612298 0.830301
O O5 0.500000 0.608350 0.888748
O O6 0.563749 0.500000 0.863455
O O7 0.560016 0.599152 0.622444
O O8 0.601776 0.631541 0.923343
O O9 0.250000 0.250000 0.101438
O O10 0.311340 0.165005 0.289616
O O11 0.343317 0.256767 0.049958
O O12 0.500000 0.380923 0.357127
O O13 0.446433 0.500000 0.383744
#
# Coordination Sequence:
#
# PCOD9369955 Si02
#       5
#    16  16  16  16  16
#     4  11  24  43  73 111 142 181 243 304 355 426
#     4   9  18  36  66 104 148 194 236 289 357 424
#     4  12  27  48  75  96 141 194 240 295 376 437
#     4   8  15  32  61  99 143 185 222 274 348 420
#     4  12  24  43  73 104 139 195 240 287 356 443
#
# _framework density 22.057897000000001
#
# number of rings (size 3 to 8) (size 9 to 14) (size 15 to 20)
#    0.000    1.600    4.000    2.400    0.000    2.400 
#    0.000    6.000    0.000    0.000    0.000    0.000 
#    0.000    0.000    0.000    0.000    0.000    0.000 
#
# Total GULP energy -111822.404226 kJ/mol
# GULP energy per Si atom -5591.120211 kJ/mol
# Density = 2.200769 g / cm^3
# Si number density = 22.057897 Si / 1000 Ang^3
#
#
#
# Elastic Constant Matrix: (Units=GPa)
#
#
# Indices 1 2 3 4 5 6 
#
# 1 134.9451 65.1103 82.8287 -0.0001 0.0000 0.0000
# 2 65.1103 92.4444 54.8231 -0.0001 0.0001 0.0000
# 3 82.8287 54.8231 146.5877 -0.0002 0.0001 0.0000
# 4 -0.0001 -0.0001 -0.0002 34.4227 0.0001 0.0000
# 5 0.0000 0.0001 0.0001 0.0001 21.0477 0.0000
# 6 0.0000 0.0000 0.0000 0.0000 0.0000 42.6871
#
#
#
# Elastic Compliance Matrix: (Units=1/GPa)
#
#
# Indices 1 2 3 4 5 6 
#
# 1 0.013899 -0.006594 -0.005387 0.000000 0.000000 0.000000
# 2 -0.006594 0.017029 -0.002643 0.000000 0.000000 0.000000
# 3 -0.005387 -0.002643 0.010854 0.000000 0.000000 0.000000
# 4 0.000000 0.000000 0.000000 0.029051 0.000000 0.000000
# 5 0.000000 0.000000 0.000000 0.000000 0.047511 0.000000
# 6 0.000000 0.000000 0.000000 0.000000 0.000000 0.023426
#
#
# Mechanical properties :
#
#
# Convention : Reuss Voigt Hill
#
# Bulk Modulus (GPa) = 79.78552 86.61128 83.19840
# Shear Modulus (GPa) = 28.53940 31.04585 29.79263
#
# Velocity S-wave (km/s) = 3.60090 3.75570 3.67911
# Velocity P-wave (km/s) = 7.31698 7.62612 7.47315
#
# Compressibility (1/GPa) = 0.01253360
#
# Stress axis : x y z
#
# Youngs Moduli (GPa) = 71.94865 58.72316 92.13026
#
# Poissons Ratio (x) = 0.38724 0.49632
# Poissons Ratio (y) = 0.47446 0.24347
# Poissons Ratio (z) = 0.38760 0.15519
#
# Static dielectric constant tensor:
#      x y z
#    x 1.870990 0.000000 0.000000 
#    y 0.000000 1.770890 0.000000 
#    z 0.000000 0.000000 1.819790 
# 
# From -- ./inp_files/5096.got.cif
#   From: 2010.05.17/outbox.cif.g08.bks.cpg/sg42_3_cif.got.tgz:5096.got - 2010.06.03 19:03:34.
