data_PCOD9369505
_publ_section_title
;
Structure prediction by ZEFSAII (Michael W. Deem and Ramdas Pophale) SiO2 
 PCOD9369505
Probable space group: F M M 2
;
_chemical_formula_sum "Si O2"
_cell_formula_units_Z 80
_cell_length_a 23.750141
_cell_length_b 17.106077
_cell_length_c 9.438730
_cell_angle_alpha 90.000000
_cell_angle_beta 90.000000
_cell_angle_gamma 90.000000
_cell_volume 3834.689267
_symmetry_space_group_name_H-M "F M M 2"
_symmetry_group_IT_number 42
_symmetry_cell_setting 'orthorhombic'
loop_
_space_group_symop_operation_xyz
x,y,z
-x,-y,z
-x,y,z
x,-y,z
x,1/2+y,1/2+z
-x,1/2-y,1/2+z
-x,1/2+y,1/2+z
x,1/2-y,1/2+z
1/2+x,y,1/2+z
1/2-x,-y,1/2+z
1/2-x,y,1/2+z
1/2+x,-y,1/2+z
1/2+x,1/2+y,z
1/2-x,1/2-y,z
1/2-x,1/2+y,z
1/2+x,1/2-y,z
loop_
_atom_site_type_symbol
_atom_site_label
_atom_site_fract_x
_atom_site_fract_y
_atom_site_fract_z
Si Si1 0.500000 0.355167 0.800890
Si Si2 0.694494 0.144672 0.137261
Si Si3 0.126614 0.307119 0.627222
Si Si4 0.500000 0.744089 0.068355
Si Si5 0.620743 0.584283 0.872538
Si Si6 0.801410 0.593811 0.814012
O O1 0.500000 0.330228 0.636822
O O2 0.444680 0.401745 0.843249
O O3 0.500000 0.276952 0.901275
O O4 0.663744 0.228867 0.140223
O O5 0.652126 0.090066 0.224332
O O6 0.752230 0.135775 0.223831
O O7 0.703897 0.116605 0.977862
O O8 0.141133 0.348536 0.478273
O O9 0.142187 0.367418 0.750991
O O10 0.059829 0.289787 0.623099
O O11 0.631205 0.500000 0.939450
O O12 0.798623 0.500000 0.796865
#
# Coordination Sequence:
#
# PCOD9369505 Si02
#       6
#     8  16  16   8  16  16
#     4  10  21  38  64  96 135 174 216 266 321 384
#     4  12  25  44  67  95 128 175 217 273 327 397
#     4  11  24  43  69  97 130 173 221 264 322 391
#     4  10  22  40  66  98 132 170 214 270 316 382
#     4  11  22  40  66  99 134 173 217 269 329 389
#     4  12  26  44  65  95 133 170 216 275 332 386
#
# _framework density 20.862185
#
# number of rings (size 3 to 8) (size 9 to 14) (size 15 to 20)
#    0.000    0.800    2.000    5.700    2.800    1.600 
#    0.000    1.500    0.000    0.000    0.000    0.000 
#    0.000    0.000    0.000    0.000    0.000    0.000 
#
# Total GULP energy -111760.090622 kJ/mol
# GULP energy per Si atom -5588.004531 kJ/mol
# Density = 2.081470 g / cm^3
# Si number density = 20.862185 Si / 1000 Ang^3
#
#
#
# Elastic Constant Matrix: (Units=GPa)
#
#
# Indices 1 2 3 4 5 6 
#
# 1 80.3124 37.1685 26.7596 0.0000 0.0000 0.0000
# 2 37.1685 133.9294 29.8404 0.0000 0.0000 0.0000
# 3 26.7596 29.8404 109.0534 0.0000 0.0000 0.0000
# 4 0.0000 0.0000 0.0000 25.4285 0.0000 0.0000
# 5 0.0000 0.0000 0.0000 0.0000 31.9435 0.0000
# 6 0.0000 0.0000 0.0000 0.0000 0.0000 85.6999
#
#
#
# Elastic Compliance Matrix: (Units=1/GPa)
#
#
# Indices 1 2 3 4 5 6 
#
# 1 0.015001 -0.003560 -0.002707 0.000000 0.000000 0.000000
# 2 -0.003560 0.008796 -0.001533 0.000000 0.000000 0.000000
# 3 -0.002707 -0.001533 0.010254 0.000000 0.000000 0.000000
# 4 0.000000 0.000000 0.000000 0.039326 0.000000 0.000000
# 5 0.000000 0.000000 0.000000 0.000000 0.031305 0.000000
# 6 0.000000 0.000000 0.000000 0.000000 0.000000 0.011669
#
#
# Mechanical properties :
#
#
# Convention : Reuss Voigt Hill
#
# Bulk Modulus (GPa) = 54.19948 56.75913 55.47931
# Shear Modulus (GPa) = 36.20543 43.91618 40.06080
#
# Velocity S-wave (km/s) = 4.17040 4.59307 4.38683
# Velocity P-wave (km/s) = 7.01611 7.44273 7.23257
#
# Compressibility (1/GPa) = 0.01845036
#
# Stress axis : x y z
#
# Youngs Moduli (GPa) = 66.66308 113.68483 97.52684
#
# Poissons Ratio (x) = 0.40472 0.26398
# Poissons Ratio (y) = 0.23732 0.14955
# Poissons Ratio (z) = 0.18044 0.17432
#
# Static dielectric constant tensor:
#      x y z
#    x 1.774410 0.000000 0.000000 
#    y 0.000000 1.750170 0.000000 
#    z 0.000000 0.000000 1.742250 
# 
# From -- ./inp_files/5117.got.cif
#   From: 2010.05.17/outbox.cif.g08.bks.cpg/sg42_3_cif.got.tgz:5117.got - 2010.06.03 19:03:34.
