data_PCOD9369633
_publ_section_title
;
Structure prediction by ZEFSAII (Michael W. Deem and Ramdas Pophale) SiO2 
 PCOD9369633
Probable space group: F M M 2
;
_chemical_formula_sum "Si O2"
_cell_formula_units_Z 72
_cell_length_a 14.106113
_cell_length_b 8.018258
_cell_length_c 25.761221
_cell_angle_alpha 90.000000
_cell_angle_beta 90.000000
_cell_angle_gamma 90.000000
_cell_volume 2913.760343
_symmetry_space_group_name_H-M "F M M 2"
_symmetry_group_IT_number 42
_symmetry_cell_setting 'orthorhombic'
loop_
_space_group_symop_operation_xyz
x,y,z
-x,-y,z
-x,y,z
x,-y,z
x,1/2+y,1/2+z
-x,1/2-y,1/2+z
-x,1/2+y,1/2+z
x,1/2-y,1/2+z
1/2+x,y,1/2+z
1/2-x,-y,1/2+z
1/2-x,y,1/2+z
1/2+x,-y,1/2+z
1/2+x,1/2+y,z
1/2-x,1/2-y,z
1/2-x,1/2+y,z
1/2+x,1/2-y,z
loop_
_atom_site_type_symbol
_atom_site_label
_atom_site_fract_x
_atom_site_fract_y
_atom_site_fract_z
Si Si1 0.612118 0.809290 0.916260
Si Si2 0.250000 0.250000 0.495368
Si Si3 0.112564 0.203295 0.080759
Si Si4 0.614817 0.685124 0.807329
Si Si5 0.115197 0.308219 0.696076
O O1 0.500000 0.772833 0.919909
O O2 0.640257 0.799615 0.855779
O O3 0.628281 0.000000 0.934443
O O4 0.673573 0.688693 0.952347
O O5 0.171965 0.197062 0.538333
O O6 0.140234 0.257408 0.139163
O O7 0.000000 0.227049 0.074211
O O8 0.129318 0.000000 0.075492
O O9 0.500000 0.691450 0.804807
O O10 0.644115 0.500000 0.821779
O O11 0.646736 0.722948 0.749051
O O12 0.145486 0.500000 0.698673
O O13 0.000000 0.306924 0.696319
#
# Coordination Sequence:
#
# PCOD9369633 Si02
#       5
#    16   8  16  16  16
#     4  10  22  39  58  83 117 155 192 234 289 346
#     4  12  22  36  58  84 112 150 198 246 280 322
#     4   9  19  36  58  84 114 150 190 231 280 339
#     4   9  17  31  55  86 115 145 186 236 287 339
#     4   8  14  29  55  83 111 146 186 228 281 345
#
# _framework density 24.710338
#
# number of rings (size 3 to 8) (size 9 to 14) (size 15 to 20)
#    0.000    2.667    0.000    3.333    0.000    4.444 
#    0.000    5.556    0.000    8.000    0.000    0.000 
#    0.000    0.000    0.000    0.000    0.000    0.000 
#
# Total GULP energy -100273.843847 kJ/mol
# GULP energy per Si atom -5570.769103 kJ/mol
# Density = 2.465410 g / cm^3
# Si number density = 24.710338 Si / 1000 Ang^3
#
#
#
# Elastic Constant Matrix: (Units=GPa)
#
#
# Indices 1 2 3 4 5 6 
#
# 1 141.2397 23.4548 48.2366 0.0000 0.0000 0.0000
# 2 23.4548 62.8640 47.3214 0.0000 0.0000 0.0000
# 3 48.2366 47.3214 222.3096 0.0000 0.0000 0.0000
# 4 0.0000 0.0000 0.0000 -56.1856 0.0000 0.0000
# 5 0.0000 0.0000 0.0000 0.0000 353.0513 0.0000
# 6 0.0000 0.0000 0.0000 0.0000 0.0000 -6.3337
#
#
#
# Elastic Compliance Matrix: (Units=1/GPa)
#
#
# Indices 1 2 3 4 5 6 
#
# 1 0.007844 -0.001960 -0.001285 0.000000 0.000000 0.000000
# 2 -0.001960 0.019432 -0.003711 0.000000 0.000000 0.000000
# 3 -0.001285 -0.003711 0.005567 0.000000 0.000000 0.000000
# 4 0.000000 0.000000 0.000000 -0.017798 0.000000 0.000000
# 5 0.000000 0.000000 0.000000 0.000000 0.002832 0.000000
# 6 0.000000 0.000000 0.000000 0.000000 0.000000 -0.157886
#
#
# Mechanical properties :
#
#
# Convention : Reuss Voigt Hill
#
# Bulk Modulus (GPa) = 52.82011 73.82655 63.32333
# Shear Modulus (GPa) = -41.74103 78.59976 18.42936
#
# Velocity S-wave (km/s) = -4.11446 5.64602 2.73393
# Velocity P-wave (km/s) = 1.07220 8.51146 5.97057
#
# Compressibility (1/GPa) = 0.01893218
#
# Stress axis : x y z
#
# Youngs Moduli (GPa) = 127.47930 51.46125 179.62932
#
# Poissons Ratio (x) = 0.10084 0.23082
# Poissons Ratio (y) = 0.24980 0.66664
# Poissons Ratio (z) = 0.16381 0.19098
#
# Static dielectric constant tensor:
#      x y z
#    x 1.955470 0.000000 0.000000 
#    y 0.000000 2.025430 0.000000 
#    z 0.000000 0.000000 1.932610 
# 
# From -- ./inp_files/27679.got.cif
#   From: 2010.05.17/outbox.cif.g08.bks.cpg/sg42_14_cif.got.tgz:27679.got - 2010.06.03 19:03:34.
