data_PCOD9369554
_publ_section_title
;
Structure prediction by ZEFSAII (Michael W. Deem and Ramdas Pophale) SiO2 
 PCOD9369554
Probable space group: F M M 2
;
_chemical_formula_sum "Si O2"
_cell_formula_units_Z 96
_cell_length_a 24.312446
_cell_length_b 14.724240
_cell_length_c 14.220173
_cell_angle_alpha 90.000000
_cell_angle_beta 90.000000
_cell_angle_gamma 90.000000
_cell_volume 5090.570093
_symmetry_space_group_name_H-M "F M M 2"
_symmetry_group_IT_number 42
_symmetry_cell_setting 'orthorhombic'
loop_
_space_group_symop_operation_xyz
x,y,z
-x,-y,z
-x,y,z
x,-y,z
x,1/2+y,1/2+z
-x,1/2-y,1/2+z
-x,1/2+y,1/2+z
x,1/2-y,1/2+z
1/2+x,y,1/2+z
1/2-x,-y,1/2+z
1/2-x,y,1/2+z
1/2+x,-y,1/2+z
1/2+x,1/2+y,z
1/2-x,1/2-y,z
1/2-x,1/2+y,z
1/2+x,1/2-y,z
loop_
_atom_site_type_symbol
_atom_site_label
_atom_site_fract_x
_atom_site_fract_y
_atom_site_fract_z
Si Si1 0.826348 0.000000 0.978621
Si Si2 0.737990 0.356661 0.522658
Si Si3 0.114619 0.609467 0.973374
Si Si4 0.875840 0.000000 0.790688
Si Si5 0.860413 0.500000 0.694735
Si Si6 0.761727 0.500000 0.190040
Si Si7 0.564036 0.653561 0.675073
Si Si8 0.063681 0.654050 0.778467
O O1 0.873928 0.000000 0.902359
O O2 0.787151 0.911191 0.971098
O O3 0.850810 0.000000 0.083278
O O4 0.750000 0.250000 0.534148
O O5 0.679758 0.370788 0.471496
O O6 0.733663 0.412055 0.621419
O O7 0.106437 0.500000 0.968733
O O8 0.091912 0.645172 0.073002
O O9 0.083440 0.656035 0.886637
O O10 0.812175 0.000000 0.759869
O O11 0.905293 0.914464 0.744754
O O12 0.798494 0.500000 0.735690
O O13 0.895019 0.414546 0.728098
O O14 0.500000 0.628296 0.665281
O O15 0.567206 0.751820 0.722715
O O16 0.000000 0.623509 0.775897
#
# Coordination Sequence:
#
# PCOD9369554 Si02
#       8
#     8  16  16   8   8   8  16  16
#     4  10  26  40  56  94 134 168 210 259 312 415
#     4  10  21  40  62  91 129 167 213 261 327 388
#     4  12  22  43  71  97 128 172 221 282 327 380
#     4  12  23  41  64  93 134 173 218 265 333 388
#     4  10  23  42  64  89 134 172 205 275 325 378
#     4  10  22  39  61  98 125 165 217 263 318 403
#     4  11  25  43  65  97 131 170 223 276 325 387
#     4  11  26  43  67  99 126 168 230 271 322 393
#
# _framework density 18.858398999999999
#
# number of rings (size 3 to 8) (size 9 to 14) (size 15 to 20)
#    0.000    1.333    5.000    1.000    9.333    0.667 
#    0.000    4.167    0.000    0.000    0.000    0.000 
#    0.000    0.000    0.000    0.000    0.000    0.000 
#
# Total GULP energy -134075.065763 kJ/mol
# GULP energy per Si atom -5586.461073 kJ/mol
# Density = 1.881548 g / cm^3
# Si number density = 18.858399 Si / 1000 Ang^3
#
#
#
# Elastic Constant Matrix: (Units=GPa)
#
#
# Indices 1 2 3 4 5 6 
#
# 1 108.3877 31.6296 30.2555 0.0000 0.0000 0.0000
# 2 31.6296 104.2421 24.2980 0.0000 0.0000 0.0000
# 3 30.2555 24.2980 87.9411 0.0000 0.0000 0.0000
# 4 0.0000 0.0000 0.0000 40.7144 0.0000 0.0000
# 5 0.0000 0.0000 0.0000 0.0000 30.4738 0.0000
# 6 0.0000 0.0000 0.0000 0.0000 0.0000 27.5569
#
#
#
# Elastic Compliance Matrix: (Units=1/GPa)
#
#
# Indices 1 2 3 4 5 6 
#
# 1 0.010819 -0.002581 -0.003009 0.000000 0.000000 0.000000
# 2 -0.002581 0.010869 -0.002115 0.000000 0.000000 0.000000
# 3 -0.003009 -0.002115 0.012991 0.000000 0.000000 0.000000
# 4 0.000000 0.000000 0.000000 0.024561 0.000000 0.000000
# 5 0.000000 0.000000 0.000000 0.000000 0.032815 0.000000
# 6 0.000000 0.000000 0.000000 0.000000 0.000000 0.036289
#
#
# Mechanical properties :
#
#
# Convention : Reuss Voigt Hill
#
# Bulk Modulus (GPa) = 51.89836 52.54855 52.22346
# Shear Modulus (GPa) = 33.29367 34.04153 33.66760
#
# Velocity S-wave (km/s) = 4.20629 4.25327 4.22985
# Velocity P-wave (km/s) = 7.15334 7.21427 7.18387
#
# Compressibility (1/GPa) = 0.01926843
#
# Stress axis : x y z
#
# Youngs Moduli (GPa) = 92.42635 92.00194 76.97708
#
# Poissons Ratio (x) = 0.23750 0.23163
# Poissons Ratio (y) = 0.23860 0.16281
# Poissons Ratio (z) = 0.27812 0.19459
#
# Static dielectric constant tensor:
#      x y z
#    x 1.647150 0.000000 0.000000 
#    y 0.000000 1.469520 0.000000 
#    z 0.000000 0.000000 1.654050 
# 
# From -- ./inp_files/15885.got.cif
#   From: 2010.05.17/outbox.cif.g08.bks.cpg/sg42_8_cif.got.tgz:15885.got - 2010.06.03 19:03:34.
