data_PCOD9369199
_publ_section_title
;
Structure prediction by ZEFSAII (Michael W. Deem and Ramdas Pophale) SiO2 
 PCOD9369199
Probable space group: F M M 2
;
_chemical_formula_sum "Si O2"
_cell_formula_units_Z 112
_cell_length_a 28.080235
_cell_length_b 14.988930
_cell_length_c 12.240421
_cell_angle_alpha 90.000000
_cell_angle_beta 90.000000
_cell_angle_gamma 90.000000
_cell_volume 5151.903560
_symmetry_space_group_name_H-M "F M M 2"
_symmetry_group_IT_number 42
_symmetry_cell_setting 'orthorhombic'
loop_
_space_group_symop_operation_xyz
x,y,z
-x,-y,z
-x,y,z
x,-y,z
x,1/2+y,1/2+z
-x,1/2-y,1/2+z
-x,1/2+y,1/2+z
x,1/2-y,1/2+z
1/2+x,y,1/2+z
1/2-x,-y,1/2+z
1/2-x,y,1/2+z
1/2+x,-y,1/2+z
1/2+x,1/2+y,z
1/2-x,1/2-y,z
1/2-x,1/2+y,z
1/2+x,1/2-y,z
loop_
_atom_site_type_symbol
_atom_site_label
_atom_site_fract_x
_atom_site_fract_y
_atom_site_fract_z
Si Si1 0.617716 0.606452 0.198180
Si Si2 0.636920 0.826335 0.453313
Si Si3 0.445457 0.259678 0.801924
Si Si4 0.703767 0.398928 0.789498
Si Si5 0.844210 0.599969 0.079221
Si Si6 0.448154 0.607026 0.597974
Si Si7 0.196885 0.657405 0.873616
O O1 0.607038 0.500000 0.196196
O O2 0.576548 0.669575 0.249415
O O3 0.662444 0.624251 0.277594
O O4 0.629804 0.642961 0.077074
O O5 0.587544 0.795853 0.398958
O O6 0.662527 0.900955 0.379996
O O7 0.674084 0.745853 0.428857
O O8 0.500000 0.246226 0.833676
O O9 0.444688 0.336890 0.709222
O O10 0.720409 0.500000 0.765842
O O11 0.679657 0.352709 0.683008
O O12 0.750040 0.346734 0.829580
O O13 0.852230 0.500000 0.121847
O O14 0.897273 0.629088 0.041999
O O15 0.808499 0.595565 0.979400
O O16 0.500000 0.629878 0.547336
O O17 0.449529 0.500000 0.613987
#
# Coordination Sequence:
#
# PCOD9369199 Si02
#       7
#    16  16  16  16  16  16  16
#     4  11  25  45  70 101 143 185 235 297 362 432
#     4  11  24  42  66  97 133 176 229 292 349 423
#     4  10  22  42  66  96 137 181 227 284 356 432
#     4  11  23  40  64  95 132 177 228 283 351 422
#     4  10  20  37  63  92 129 170 222 283 343 422
#     4   9  17  33  62  97 130 170 226 291 351 409
#     4  11  25  43  65  93 135 182 232 286 353 424
#
# _framework density 21.739536999999999
#
# number of rings (size 3 to 8) (size 9 to 14) (size 15 to 20)
#    0.000    1.571    1.429    3.000    4.000    1.429 
#    0.000    4.286    0.000    3.429    0.000    0.000 
#    0.000    0.000    0.000    0.000    0.000    0.000 
#
# Total GULP energy -156173.733964 kJ/mol
# GULP energy per Si atom -5577.633356 kJ/mol
# Density = 2.169006 g / cm^3
# Si number density = 21.739537 Si / 1000 Ang^3
#
#
#
# Elastic Constant Matrix: (Units=GPa)
#
#
# Indices 1 2 3 4 5 6 
#
# 1 179.0802 27.4928 50.6728 0.0000 0.0000 0.0000
# 2 27.4928 101.4905 24.6704 0.0000 0.0000 0.0000
# 3 50.6728 24.6704 111.9374 0.0000 0.0000 0.0000
# 4 0.0000 0.0000 0.0000 -14.3278 0.0000 0.0000
# 5 0.0000 0.0000 0.0000 0.0000 -77.8866 0.0000
# 6 0.0000 0.0000 0.0000 0.0000 0.0000 4.6402
#
#
#
# Elastic Compliance Matrix: (Units=1/GPa)
#
#
# Indices 1 2 3 4 5 6 
#
# 1 0.006520 -0.001108 -0.002707 0.000000 0.000000 0.000000
# 2 -0.001108 0.010599 -0.001834 0.000000 0.000000 0.000000
# 3 -0.002707 -0.001834 0.010563 0.000000 0.000000 0.000000
# 4 0.000000 0.000000 0.000000 -0.069794 0.000000 0.000000
# 5 0.000000 0.000000 0.000000 0.000000 -0.012839 0.000000
# 6 0.000000 0.000000 0.000000 0.000000 0.000000 0.215507
#
#
# Mechanical properties :
#
#
# Convention : Reuss Voigt Hill
#
# Bulk Modulus (GPa) = 61.03853 66.46445 63.75149
# Shear Modulus (GPa) = 28.19801 1.79662 14.99732
#
# Velocity S-wave (km/s) = 3.60541 0.91007 2.62937
# Velocity P-wave (km/s) = 6.74316 5.63416 6.21345
#
# Compressibility (1/GPa) = 0.01638309
#
# Stress axis : x y z
#
# Youngs Moduli (GPa) = 153.36663 94.34649 94.66579
#
# Poissons Ratio (x) = 0.10455 0.25630
# Poissons Ratio (y) = 0.16996 0.17365
# Poissons Ratio (z) = 0.41523 0.17307
#
# Static dielectric constant tensor:
#      x y z
#    x 1.797640 0.000000 0.000000 
#    y 0.000000 2.032230 0.000000 
#    z 0.000000 0.000000 1.796300 
# 
# From -- ./inp_files/11104.got.cif
#   From: 2010.05.17/outbox.cif.g08.bks.cpg/sg42_6_cif.got.tgz:11104.got - 2010.06.03 19:03:34.
