data_PCOD9369404
_publ_section_title
;
Structure prediction by ZEFSAII (Michael W. Deem and Ramdas Pophale) SiO2 
 PCOD9369404
Probable space group: F M M 2
;
_chemical_formula_sum "Si O2"
_cell_formula_units_Z 116
_cell_length_a 8.180750
_cell_length_b 30.642595
_cell_length_c 25.127040
_cell_angle_alpha 90.000000
_cell_angle_beta 90.000000
_cell_angle_gamma 90.000000
_cell_volume 6298.831538
_symmetry_space_group_name_H-M "F M M 2"
_symmetry_group_IT_number 42
_symmetry_cell_setting 'orthorhombic'
loop_
_space_group_symop_operation_xyz
x,y,z
-x,-y,z
-x,y,z
x,-y,z
x,1/2+y,1/2+z
-x,1/2-y,1/2+z
-x,1/2+y,1/2+z
x,1/2-y,1/2+z
1/2+x,y,1/2+z
1/2-x,-y,1/2+z
1/2-x,y,1/2+z
1/2+x,-y,1/2+z
1/2+x,1/2+y,z
1/2-x,1/2-y,z
1/2-x,1/2+y,z
1/2+x,1/2-y,z
loop_
_atom_site_type_symbol
_atom_site_label
_atom_site_fract_x
_atom_site_fract_y
_atom_site_fract_z
Si Si1 0.000000 0.500000 0.535856
Si Si2 0.689060 0.654573 0.037524
Si Si3 0.310656 0.297821 0.254336
Si Si4 0.694105 0.297873 0.438367
Si Si5 0.189477 0.359078 0.345198
Si Si6 0.309198 0.061449 0.008196
Si Si7 0.309946 0.200425 0.138049
Si Si8 0.193819 0.951329 0.381014
O O1 0.848985 0.462812 0.533476
O O2 0.500000 0.645510 0.026732
O O3 0.792499 0.612023 0.023023
O O4 0.714448 0.669330 0.097934
O O5 0.745980 0.692900 0.998016
O O6 0.500000 0.293130 0.240179
O O7 0.250000 0.250000 0.272931
O O8 0.287646 0.333924 0.299434
O O9 0.217426 0.309833 0.200149
O O10 0.500000 0.300781 0.435646
O O11 0.750000 0.250000 0.420685
O O12 0.768101 0.334900 0.400347
O O13 0.227230 0.410181 0.351910
O O14 0.000000 0.352744 0.333288
O O15 0.500000 0.048309 0.020421
O O16 0.287280 0.054593 0.944663
O O17 0.500000 0.197569 0.124713
O O18 0.250000 0.250000 0.130845
O O19 0.000000 0.950148 0.370182
O O20 0.256081 0.000000 0.367272
#
# Coordination Sequence:
#
# PCOD9369404 Si02
#       8
#     4  16  16  16  16  16  16  16
#     4  12  22  36  60  86 116 164 198 252 300 366
#     4  12  23  38  57  86 120 159 201 242 297 360
#     4  11  22  40  62  86 116 152 197 246 295 352
#     4  12  24  38  54  79 117 160 197 239 293 355
#     4  12  24  37  57  85 118 153 195 242 294 357
#     4  11  22  37  57  86 121 157 200 250 302 361
#     4  11  22  39  61  87 117 154 199 250 296 347
#     4  10  21  37  57  83 116 154 195 244 297 352
#
# _framework density 18.416114
#
# number of rings (size 3 to 8) (size 9 to 14) (size 15 to 20)
#    0.000    0.690    2.759    8.069    0.966    0.276 
#    0.000    0.000    0.000    0.000    1.793    0.000 
#    0.000    0.000    0.000    0.000    0.000    0.000 
#
# Total GULP energy -161766.936075 kJ/mol
# GULP energy per Si atom -5578.170209 kJ/mol
# Density = 1.837420 g / cm^3
# Si number density = 18.416114 Si / 1000 Ang^3
#
#
#
# Elastic Constant Matrix: (Units=GPa)
#
#
# Indices 1 2 3 4 5 6 
#
# 1 94.0760 11.5556 -10.3503 0.0000 0.0000 0.0000
# 2 11.5556 106.0846 30.4171 0.0000 0.0000 0.0000
# 3 -10.3503 30.4171 45.5569 0.0000 0.0000 0.0000
# 4 0.0000 0.0000 0.0000 12.7708 0.0000 0.0000
# 5 0.0000 0.0000 0.0000 0.0000 25.3034 0.0000
# 6 0.0000 0.0000 0.0000 0.0000 0.0000 28.7735
#
#
#
# Elastic Compliance Matrix: (Units=1/GPa)
#
#
# Indices 1 2 3 4 5 6 
#
# 1 0.011396 -0.002453 0.004227 0.000000 0.000000 0.000000
# 2 -0.002453 0.012186 -0.008694 0.000000 0.000000 0.000000
# 3 0.004227 -0.008694 0.028716 0.000000 0.000000 0.000000
# 4 0.000000 0.000000 0.000000 0.078304 0.000000 0.000000
# 5 0.000000 0.000000 0.000000 0.000000 0.039520 0.000000
# 6 0.000000 0.000000 0.000000 0.000000 0.000000 0.034754
#
#
# Mechanical properties :
#
#
# Convention : Reuss Voigt Hill
#
# Bulk Modulus (GPa) = 26.00240 34.32916 30.16578
# Shear Modulus (GPa) = 21.59489 27.64254 24.61871
#
# Velocity S-wave (km/s) = 3.42805 3.87847 3.66020
# Velocity P-wave (km/s) = 5.46065 6.22399 5.85478
#
# Compressibility (1/GPa) = 0.03845799
#
# Stress axis : x y z
#
# Youngs Moduli (GPa) = 87.74901 82.05827 34.82413
#
# Poissons Ratio (x) = 0.20132 -0.14721
# Poissons Ratio (y) = 0.21528 0.30276
# Poissons Ratio (z) = -0.37093 0.71341
#
# Static dielectric constant tensor:
#      x y z
#    x 1.641910 0.000000 0.000000 
#    y 0.000000 1.625890 0.000000 
#    z 0.000000 0.000000 1.607830 
# 
# From -- ./inp_files/28463.got.cif
#   From: 2010.05.17/outbox.cif.g08.bks.cpg/sg42_15_cif.got.tgz:28463.got - 2010.06.03 19:03:34.
