data_PCOD9369928
_publ_section_title
;
Structure prediction by ZEFSAII (Michael W. Deem and Ramdas Pophale) SiO2 
 PCOD9369928
Probable space group: F M M 2
;
_chemical_formula_sum "Si O2"
_cell_formula_units_Z 112
_cell_length_a 15.296961
_cell_length_b 15.296961
_cell_length_c 23.389369
_cell_angle_alpha 90.000000
_cell_angle_beta 90.000000
_cell_angle_gamma 90.000000
_cell_volume 5473.042548
_symmetry_space_group_name_H-M "F M M 2"
_symmetry_group_IT_number 42
_symmetry_cell_setting 'orthorhombic'
loop_
_space_group_symop_operation_xyz
x,y,z
-x,-y,z
-x,y,z
x,-y,z
x,1/2+y,1/2+z
-x,1/2-y,1/2+z
-x,1/2+y,1/2+z
x,1/2-y,1/2+z
1/2+x,y,1/2+z
1/2-x,-y,1/2+z
1/2-x,y,1/2+z
1/2+x,-y,1/2+z
1/2+x,1/2+y,z
1/2-x,1/2-y,z
1/2-x,1/2+y,z
1/2+x,1/2-y,z
loop_
_atom_site_type_symbol
_atom_site_label
_atom_site_fract_x
_atom_site_fract_y
_atom_site_fract_z
Si Si1 0.647184 0.768057 0.704560
Si Si2 0.401724 0.401579 0.763327
Si Si3 0.599975 0.711500 0.078569
Si Si4 0.902010 0.402010 0.034163
Si Si5 0.598421 0.901724 0.804998
Si Si6 0.731943 0.352816 0.863765
Si Si7 0.711500 0.099975 0.489756
O O1 0.750000 0.750000 0.705841
O O2 0.604670 0.673600 0.716024
O O3 0.621560 0.809167 0.644085
O O4 0.619903 0.831553 0.756086
O O5 0.500000 0.398562 0.787449
O O6 0.386034 0.500000 0.741531
O O7 0.331553 0.380096 0.812239
O O8 0.500000 0.686790 0.064974
O O9 0.605949 0.817025 0.073820
O O10 0.665077 0.665077 0.034163
O O11 0.896566 0.500000 0.060511
O O12 0.817025 0.394051 0.994505
O O13 0.000000 0.396566 0.007814
O O14 0.500000 0.886034 0.826794
O O15 0.673600 0.895330 0.852301
O O16 0.601438 0.000000 0.780876
O O17 0.750000 0.250000 0.862484
O O18 0.690833 0.378441 0.924240
O O19 0.686790 0.000000 0.503351
#
# Coordination Sequence:
#
# PCOD9369928 Si02
#       7
#    16  16  16  16  16  16  16
#     4  12  23  41  67  95 129 174 216 276 328 393
#     4  11  23  40  63  94 133 173 217 272 332 391
#     4  11  24  42  65  93 131 173 219 270 327 400
#     4   9  19  38  62  90 123 161 210 268 324 381
#     4  11  23  40  63  94 133 173 217 272 332 391
#     4  12  23  41  67  95 129 174 216 276 328 393
#     4  11  24  42  65  93 131 173 219 270 327 400
#
# _framework density 20.463937000000001
#
# number of rings (size 3 to 8) (size 9 to 14) (size 15 to 20)
#    0.000    1.000    2.857    4.714    0.000    2.571 
#    0.000    2.857    0.000    0.000    0.000    0.000 
#    0.000    0.000    0.000    0.000    0.000    0.000 
#
# Total GULP energy -156361.194027 kJ/mol
# GULP energy per Si atom -5584.328358 kJ/mol
# Density = 2.041736 g / cm^3
# Si number density = 20.463937 Si / 1000 Ang^3
#
#
#
# Elastic Constant Matrix: (Units=GPa)
#
#
# Indices 1 2 3 4 5 6 
#
# 1 124.1885 34.2266 29.4223 0.0000 0.0000 0.0000
# 2 34.2266 124.1885 29.4223 0.0000 0.0000 0.0000
# 3 29.4223 29.4223 97.0945 0.0000 0.0000 0.0000
# 4 0.0000 0.0000 0.0000 6.7443 0.0000 0.0000
# 5 0.0000 0.0000 0.0000 0.0000 6.7442 0.0000
# 6 0.0000 0.0000 0.0000 0.0000 0.0000 32.7357
#
#
#
# Elastic Compliance Matrix: (Units=1/GPa)
#
#
# Indices 1 2 3 4 5 6 
#
# 1 0.009115 -0.002001 -0.002155 0.000000 0.000000 0.000000
# 2 -0.002001 0.009115 -0.002155 0.000000 0.000000 0.000000
# 3 -0.002155 -0.002155 0.011606 0.000000 0.000000 0.000000
# 4 0.000000 0.000000 0.000000 0.148274 0.000000 0.000000
# 5 0.000000 0.000000 0.000000 0.000000 0.148274 0.000000
# 6 0.000000 0.000000 0.000000 0.000000 0.000000 0.030548
#
#
# Mechanical properties :
#
#
# Convention : Reuss Voigt Hill
#
# Bulk Modulus (GPa) = 58.10567 59.06820 58.58694
# Shear Modulus (GPa) = 13.32297 26.07154 19.69726
#
# Velocity S-wave (km/s) = 2.55433 3.57322 3.10584
# Velocity P-wave (km/s) = 6.09551 6.77872 6.44618
#
# Compressibility (1/GPa) = 0.01721002
#
# Stress axis : x y z
#
# Youngs Moduli (GPa) = 109.71514 109.71517 86.16538
#
# Poissons Ratio (x) = 0.21957 0.18573
# Poissons Ratio (y) = 0.21957 0.18573
# Poissons Ratio (z) = 0.23649 0.23649
#
# Static dielectric constant tensor:
#      x y z
#    x 1.747170 0.000000 0.000000 
#    y 0.000000 1.747170 0.000000 
#    z 0.000000 0.000000 1.694740 
# 
# From -- ./inp_files/29478.got.cif
#   From: 2010.05.17/outbox.cif.g08.bks.cpg/sg42_15_cif.got.tgz:29478.got - 2010.06.03 19:03:34.
