data_PCOD9369240
_publ_section_title
;
Structure prediction by ZEFSAII (Michael W. Deem and Ramdas Pophale) SiO2 
 PCOD9369240
Probable space group: F M M 2
;
_chemical_formula_sum "Si O2"
_cell_formula_units_Z 88
_cell_length_a 31.883275
_cell_length_b 10.342811
_cell_length_c 14.547779
_cell_angle_alpha 90.000000
_cell_angle_beta 90.000000
_cell_angle_gamma 90.000000
_cell_volume 4797.314699
_symmetry_space_group_name_H-M "F M M 2"
_symmetry_group_IT_number 42
_symmetry_cell_setting 'orthorhombic'
loop_
_space_group_symop_operation_xyz
x,y,z
-x,-y,z
-x,y,z
x,-y,z
x,1/2+y,1/2+z
-x,1/2-y,1/2+z
-x,1/2+y,1/2+z
x,1/2-y,1/2+z
1/2+x,y,1/2+z
1/2-x,-y,1/2+z
1/2-x,y,1/2+z
1/2+x,-y,1/2+z
1/2+x,1/2+y,z
1/2-x,1/2-y,z
1/2-x,1/2+y,z
1/2+x,1/2-y,z
loop_
_atom_site_type_symbol
_atom_site_label
_atom_site_fract_x
_atom_site_fract_y
_atom_site_fract_z
Si Si1 0.885642 0.850516 0.853970
Si Si2 0.687843 0.852075 0.814264
Si Si3 0.909176 0.347799 0.562728
Si Si4 0.185663 0.346310 0.607176
Si Si5 0.048222 0.648774 0.189886
Si Si6 0.250000 0.750000 0.955168
O O1 0.847964 0.748827 0.844283
O O2 0.919462 0.831327 0.773528
O O3 0.869979 0.000000 0.849177
O O4 0.907597 0.836061 0.952828
O O5 0.700567 0.814267 0.710127
O O6 0.726270 0.845591 0.885280
O O7 0.671729 0.000000 0.811023
O O8 0.915564 0.500000 0.585688
O O9 0.862693 0.305958 0.596578
O O10 0.941413 0.253275 0.612064
O O11 0.185869 0.500000 0.598910
O O12 0.214146 0.297340 0.524612
O O13 0.053952 0.500000 0.157288
O O14 0.000000 0.661668 0.220284
#
# Coordination Sequence:
#
# PCOD9369240 Si02
#       6
#    16  16  16  16  16   8
#     4  10  21  39  63  87 118 160 196 237 295 359
#     4  11  23  38  60  87 118 156 200 250 296 346
#     4  10  20  38  63  87 118 159 197 239 292 352
#     4  10  21  38  56  83 120 154 196 247 293 345
#     4  10  22  40  62  91 122 151 193 247 296 351
#     4  12  22  38  58  86 118 160 200 246 296 350
#
# _framework density 18.343595000000001
#
# number of rings (size 3 to 8) (size 9 to 14) (size 15 to 20)
#    0.000    1.636    3.636    1.091    0.000    2.545 
#    0.000    3.636    0.000    0.000    0.000    0.000 
#    0.000    0.000    0.000    0.000    0.000    0.000 
#
# Total GULP energy -122700.323938 kJ/mol
# GULP energy per Si atom -5577.287452 kJ/mol
# Density = 1.830184 g / cm^3
# Si number density = 18.343595 Si / 1000 Ang^3
#
#
#
# Elastic Constant Matrix: (Units=GPa)
#
#
# Indices 1 2 3 4 5 6 
#
# 1 63.0801 44.6641 26.2420 0.0000 0.0000 0.0000
# 2 44.6641 87.8680 46.1660 0.0000 0.0000 0.0000
# 3 26.2420 46.1660 106.3414 0.0000 0.0000 0.0000
# 4 0.0000 0.0000 0.0000 21.1454 0.0000 0.0000
# 5 0.0000 0.0000 0.0000 0.0000 24.9497 0.0000
# 6 0.0000 0.0000 0.0000 0.0000 0.0000 20.2008
#
#
#
# Elastic Compliance Matrix: (Units=1/GPa)
#
#
# Indices 1 2 3 4 5 6 
#
# 1 0.024824 -0.012177 -0.000839 0.000000 0.000000 0.000000
# 2 -0.012177 0.020717 -0.005989 0.000000 0.000000 0.000000
# 3 -0.000839 -0.005989 0.012211 0.000000 0.000000 0.000000
# 4 0.000000 0.000000 0.000000 0.047292 0.000000 0.000000
# 5 0.000000 0.000000 0.000000 0.000000 0.040081 0.000000
# 6 0.000000 0.000000 0.000000 0.000000 0.000000 0.049503
#
#
# Mechanical properties :
#
#
# Convention : Reuss Voigt Hill
#
# Bulk Modulus (GPa) = 50.65624 54.60374 52.62999
# Shear Modulus (GPa) = 20.90133 22.60700 21.75416
#
# Velocity S-wave (km/s) = 3.37921 3.51439 3.44747
# Velocity P-wave (km/s) = 6.54986 6.80439 6.67834
#
# Compressibility (1/GPa) = 0.01974091
#
# Stress axis : x y z
#
# Youngs Moduli (GPa) = 40.28307 48.26906 81.89496
#
# Poissons Ratio (x) = 0.58779 0.06874
# Poissons Ratio (y) = 0.49055 0.49046
# Poissons Ratio (z) = 0.03381 0.28908
#
# Static dielectric constant tensor:
#      x y z
#    x 1.634010 0.000000 0.000000 
#    y 0.000000 1.630100 0.000000 
#    z 0.000000 0.000000 1.634070 
# 
# From -- ./inp_files/7068.got.cif
#   From: 2010.05.17/outbox.cif.g08.bks.cpg/sg42_4_cif.got.tgz:7068.got - 2010.06.03 19:03:34.
