data_PCOD9369518
_publ_section_title
;
Structure prediction by ZEFSAII (Michael W. Deem and Ramdas Pophale) SiO2 
 PCOD9369518
Probable space group: F M M 2
;
_chemical_formula_sum "Si O2"
_cell_formula_units_Z 112
_cell_length_a 13.611413
_cell_length_b 23.097555
_cell_length_c 17.641575
_cell_angle_alpha 90.000000
_cell_angle_beta 90.000000
_cell_angle_gamma 90.000000
_cell_volume 5546.341122
_symmetry_space_group_name_H-M "F M M 2"
_symmetry_group_IT_number 42
_symmetry_cell_setting 'orthorhombic'
loop_
_space_group_symop_operation_xyz
x,y,z
-x,-y,z
-x,y,z
x,-y,z
x,1/2+y,1/2+z
-x,1/2-y,1/2+z
-x,1/2+y,1/2+z
x,1/2-y,1/2+z
1/2+x,y,1/2+z
1/2-x,-y,1/2+z
1/2-x,y,1/2+z
1/2+x,-y,1/2+z
1/2+x,1/2+y,z
1/2-x,1/2-y,z
1/2-x,1/2+y,z
1/2+x,1/2-y,z
loop_
_atom_site_type_symbol
_atom_site_label
_atom_site_fract_x
_atom_site_fract_y
_atom_site_fract_z
Si Si1 0.382171 0.434355 0.664600
Si Si2 0.619203 0.174851 0.262343
Si Si3 0.118585 0.803685 0.217165
Si Si4 0.618480 0.218361 0.424333
Si Si5 0.790126 0.932631 0.502711
Si Si6 0.619276 0.346149 0.384152
Si Si7 0.382694 0.136850 0.562126
O O1 0.500000 0.436266 0.670772
O O2 0.344951 0.500000 0.680984
O O3 0.347315 0.383285 0.720374
O O4 0.355236 0.420156 0.577737
O O5 0.500000 0.173062 0.261027
O O6 0.647695 0.235815 0.222772
O O7 0.649679 0.182534 0.349943
O O8 0.141925 0.836988 0.295169
O O9 0.149854 0.839372 0.143745
O O10 0.000000 0.801589 0.213404
O O11 0.500000 0.221020 0.417806
O O12 0.650170 0.284590 0.420356
O O13 0.639412 0.187562 0.502394
O O14 0.827576 0.895669 0.431619
O O15 0.680961 0.915956 0.530597
O O16 0.797603 0.000000 0.485073
O O17 0.500000 0.353054 0.390573
O O18 0.500000 0.125531 0.562720
#
# Coordination Sequence:
#
# PCOD9369518 Si02
#       7
#    16  16  16  16  16  16  16
#     4   9  18  33  54  82 118 156 191 232 286 352
#     4   8  14  29  54  84 117 149 185 231 287 348
#     4   8  16  33  59  88 114 147 191 240 295 348
#     4   8  16  32  57  87 116 148 185 234 291 348
#     4  11  24  39  55  82 117 155 200 241 285 348
#     4   9  18  36  62  90 121 149 182 238 301 353
#     4  10  21  39  61  82 112 152 199 246 293 344
#
# _framework density 20.193493
#
# number of rings (size 3 to 8) (size 9 to 14) (size 15 to 20)
#    0.000    3.000    0.000    2.143    2.000    1.714 
#    2.571    1.429    0.000    5.143    0.000    0.000 
#    0.000    0.000    0.000    0.000    0.000    0.000 
#
# Total GULP energy -156289.038027 kJ/mol
# GULP energy per Si atom -5581.751358 kJ/mol
# Density = 2.014753 g / cm^3
# Si number density = 20.193493 Si / 1000 Ang^3
#
#
#
# Elastic Constant Matrix: (Units=GPa)
#
#
# Indices 1 2 3 4 5 6 
#
# 1 68.4606 26.1985 27.3459 0.0000 0.0000 0.0000
# 2 26.1985 130.6606 90.9996 0.0000 0.0000 0.0000
# 3 27.3459 90.9996 101.4466 0.0000 0.0000 0.0000
# 4 0.0000 0.0000 0.0000 34.6122 0.0000 0.0000
# 5 0.0000 0.0000 0.0000 0.0000 17.8459 0.0000
# 6 0.0000 0.0000 0.0000 0.0000 0.0000 18.5634
#
#
#
# Elastic Compliance Matrix: (Units=1/GPa)
#
#
# Indices 1 2 3 4 5 6 
#
# 1 0.016385 -0.000558 -0.003916 0.000000 0.000000 0.000000
# 2 -0.000558 0.020414 -0.018161 0.000000 0.000000 0.000000
# 3 -0.003916 -0.018161 0.027204 0.000000 0.000000 0.000000
# 4 0.000000 0.000000 0.000000 0.028892 0.000000 0.000000
# 5 0.000000 0.000000 0.000000 0.000000 0.056035 0.000000
# 6 0.000000 0.000000 0.000000 0.000000 0.000000 0.053869
#
#
# Mechanical properties :
#
#
# Convention : Reuss Voigt Hill
#
# Bulk Modulus (GPa) = 53.38471 65.51733 59.45102
# Shear Modulus (GPa) = 19.66077 24.60590 22.13334
#
# Velocity S-wave (km/s) = 3.12367 3.49450 3.31428
# Velocity P-wave (km/s) = 6.28520 6.98550 6.64458
#
# Compressibility (1/GPa) = 0.01873196
#
# Stress axis : x y z
#
# Youngs Moduli (GPa) = 61.03250 48.98650 36.75908
#
# Poissons Ratio (x) = 0.02732 0.14397
# Poissons Ratio (y) = 0.03403 0.66759
# Poissons Ratio (z) = 0.23903 0.88966
#
# Static dielectric constant tensor:
#      x y z
#    x 1.800030 0.000000 0.000000 
#    y 0.000000 1.683390 0.000000 
#    z 0.000000 0.000000 1.683530 
# 
# From -- ./inp_files/14280.got.cif
#   From: 2010.05.17/outbox.cif.g08.bks.cpg/sg42_8_cif.got.tgz:14280.got - 2010.06.03 19:03:34.
