data_PCOD9369080
_publ_section_title
;
Structure prediction by ZEFSAII (Michael W. Deem and Ramdas Pophale) SiO2 
 PCOD9369080
Probable space group: F M M 2
;
_chemical_formula_sum "Si O2"
_cell_formula_units_Z 80
_cell_length_a 14.347657
_cell_length_b 32.836450
_cell_length_c 7.157300
_cell_angle_alpha 90.000000
_cell_angle_beta 90.000000
_cell_angle_gamma 90.000000
_cell_volume 3371.990991
_symmetry_space_group_name_H-M "F M M 2"
_symmetry_group_IT_number 42
_symmetry_cell_setting 'orthorhombic'
loop_
_space_group_symop_operation_xyz
x,y,z
-x,-y,z
-x,y,z
x,-y,z
x,1/2+y,1/2+z
-x,1/2-y,1/2+z
-x,1/2+y,1/2+z
x,1/2-y,1/2+z
1/2+x,y,1/2+z
1/2-x,-y,1/2+z
1/2-x,y,1/2+z
1/2+x,-y,1/2+z
1/2+x,1/2+y,z
1/2-x,1/2-y,z
1/2-x,1/2+y,z
1/2+x,1/2-y,z
loop_
_atom_site_type_symbol
_atom_site_label
_atom_site_fract_x
_atom_site_fract_y
_atom_site_fract_z
Si Si1 0.605926 0.439536 0.152630
Si Si2 0.000000 0.215623 0.982974
Si Si3 0.636666 0.650290 0.068566
Si Si4 0.500000 0.191022 0.048057
Si Si5 0.183178 0.955114 0.734718
Si Si6 0.347514 0.633313 0.634756
O O1 0.500000 0.454144 0.196298
O O2 0.601912 0.390502 0.169333
O O3 0.703354 0.452775 0.251841
O O4 0.632767 0.450554 0.936270
O O5 0.086393 0.193516 0.086329
O O6 0.000000 0.263952 0.968054
O O7 0.000000 0.201406 0.768864
O O8 0.744940 0.650863 0.111591
O O9 0.625045 0.639041 0.850214
O O10 0.412918 0.161709 0.011789
O O11 0.153584 0.915578 0.613576
O O12 0.159974 0.000000 0.659906
#
# Coordination Sequence:
#
# PCOD9369080 Si02
#       6
#    16   8  16   8  16  16
#     4  10  20  39  63  86 120 161 197 247 306 348
#     4  10  20  36  58  80 110 142 190 232 278 360
#     4   9  18  36  59  80 108 148 187 233 286 348
#     4  10  22  38  55  82 110 146 183 236 288 340
#     4  10  21  35  59  91 118 155 207 245 286 359
#     4   9  20  36  56  79 115 148 182 236 289 333
#
# _framework density 23.724855999999999
#
# number of rings (size 3 to 8) (size 9 to 14) (size 15 to 20)
#    0.000    2.400    1.000    0.600    4.200    4.000 
#    0.000    5.000   15.400    2.400    0.000    0.000 
#    0.000    0.000    0.000    0.000    0.000    0.000 
#
# Total GULP energy -111594.690262 kJ/mol
# GULP energy per Si atom -5579.734513 kJ/mol
# Density = 2.367086 g / cm^3
# Si number density = 23.724856 Si / 1000 Ang^3
#
#
#
# Elastic Constant Matrix: (Units=GPa)
#
#
# Indices 1 2 3 4 5 6 
#
# 1 133.3370 83.9457 -19.7711 0.0000 0.0000 0.0000
# 2 83.9457 239.4373 37.3772 0.0000 0.0000 0.0000
# 3 -19.7711 37.3772 49.2631 0.0000 0.0000 0.0000
# 4 0.0000 0.0000 0.0000 34.2542 0.0000 0.0000
# 5 0.0000 0.0000 0.0000 0.0000 32.9532 0.0000
# 6 0.0000 0.0000 0.0000 0.0000 0.0000 99.6775
#
#
#
# Elastic Compliance Matrix: (Units=1/GPa)
#
#
# Indices 1 2 3 4 5 6 
#
# 1 0.012655 -0.005932 0.009580 0.000000 0.000000 0.000000
# 2 -0.005932 0.007518 -0.008085 0.000000 0.000000 0.000000
# 3 0.009580 -0.008085 0.030279 0.000000 0.000000 0.000000
# 4 0.000000 0.000000 0.000000 0.029193 0.000000 0.000000
# 5 0.000000 0.000000 0.000000 0.000000 0.030346 0.000000
# 6 0.000000 0.000000 0.000000 0.000000 0.000000 0.010032
#
#
# Mechanical properties :
#
#
# Convention : Reuss Voigt Hill
#
# Bulk Modulus (GPa) = 24.05180 69.46011 46.75596
# Shear Modulus (GPa) = 35.02420 54.74268 44.88344
#
# Velocity S-wave (km/s) = 3.84639 4.80875 4.35424
# Velocity P-wave (km/s) = 5.46682 7.75713 6.71041
#
# Compressibility (1/GPa) = 0.04157692
#
# Stress axis : x y z
#
# Youngs Moduli (GPa) = 79.01908 133.00579 33.02665
#
# Poissons Ratio (x) = 0.78904 -0.31640
# Poissons Ratio (y) = 0.46877 0.26703
# Poissons Ratio (z) = -0.75700 1.07540
#
# Static dielectric constant tensor:
#      x y z
#    x 1.930660 0.000000 0.000000 
#    y 0.000000 1.896260 0.000000 
#    z 0.000000 0.000000 1.993350 
# 
# From -- ./inp_files/6987.got.cif
#   From: 2010.05.17/outbox.cif.g08.bks.cpg/sg42_4_cif.got.tgz:6987.got - 2010.06.03 19:03:34.
