data_PCOD9369352
_publ_section_title
;
Structure prediction by ZEFSAII (Michael W. Deem and Ramdas Pophale) SiO2 
 PCOD9369352
Probable space group: F M M 2
;
_chemical_formula_sum "Si O2"
_cell_formula_units_Z 116
_cell_length_a 24.733029
_cell_length_b 22.312435
_cell_length_c 10.418379
_cell_angle_alpha 90.000000
_cell_angle_beta 90.000000
_cell_angle_gamma 90.000000
_cell_volume 5749.425186
_symmetry_space_group_name_H-M "F M M 2"
_symmetry_group_IT_number 42
_symmetry_cell_setting 'orthorhombic'
loop_
_space_group_symop_operation_xyz
x,y,z
-x,-y,z
-x,y,z
x,-y,z
x,1/2+y,1/2+z
-x,1/2-y,1/2+z
-x,1/2+y,1/2+z
x,1/2-y,1/2+z
1/2+x,y,1/2+z
1/2-x,-y,1/2+z
1/2-x,y,1/2+z
1/2+x,-y,1/2+z
1/2+x,1/2+y,z
1/2-x,1/2-y,z
1/2-x,1/2+y,z
1/2+x,1/2-y,z
loop_
_atom_site_type_symbol
_atom_site_label
_atom_site_fract_x
_atom_site_fract_y
_atom_site_fract_z
Si Si1 0.566966 0.192148 0.026280
Si Si2 0.077549 0.391954 0.657394
Si Si3 0.438312 0.739321 0.268351
Si Si4 0.936823 0.065523 0.585507
Si Si5 0.000000 0.000000 0.232683
Si Si6 0.092991 0.571478 0.378129
Si Si7 0.717631 0.927553 0.399717
Si Si8 0.299032 0.072670 0.684303
O O1 0.500000 0.192393 0.024660
O O2 0.586194 0.217878 0.161594
O O3 0.585086 0.123363 0.013433
O O4 0.586126 0.232827 0.909033
O O5 0.060606 0.327642 0.710435
O O6 0.068173 0.396829 0.502847
O O7 0.141088 0.401050 0.681138
O O8 0.046284 0.446737 0.722865
O O9 0.500000 0.760379 0.285945
O O10 0.933619 0.078115 0.738589
O O11 0.000000 0.061001 0.550196
O O12 0.911645 0.000000 0.561501
O O13 0.090504 0.500000 0.408611
O O14 0.155845 0.589627 0.367292
O O15 0.728014 0.912233 0.547478
O O16 0.762016 0.905536 0.300369
O O17 0.718142 0.000000 0.390352
O O18 0.304062 0.000000 0.689490
#
# Coordination Sequence:
#
# PCOD9369352 Si02
#       8
#    16  16  16  16   4  16  16  16
#     4   9  20  38  52  74 101 146 192 229 266 322
#     4  11  20  31  50  80 112 151 189 224 273 335
#     4  10  21  36  54  74 105 144 192 228 271 322
#     4   9  18  31  50  76 111 144 171 222 282 341
#     4  12  20  32  48  80 126 164 178 228 272 344
#     4   9  17  29  47  77 110 143 183 221 269 332
#     4   8  15  28  47  66 102 138 177 226 271 312
#     4   9  16  31  48  73 105 141 182 231 274 326
#
# _framework density 20.175929
#
# number of rings (size 3 to 8) (size 9 to 14) (size 15 to 20)
#    0.000    2.621    2.069    0.828    2.897    0.000 
#    3.724    0.000    0.000    0.000    0.000    0.966 
#    0.000    0.000    0.000    0.000    0.000    0.000 
#
# Total GULP energy -161500.794221 kJ/mol
# GULP energy per Si atom -5568.992904 kJ/mol
# Density = 2.013001 g / cm^3
# Si number density = 20.175929 Si / 1000 Ang^3
#
#
#
# Elastic Constant Matrix: (Units=GPa)
#
#
# Indices 1 2 3 4 5 6 
#
# 1 50.6266 -2.3940 22.4210 0.0000 0.0000 0.0000
# 2 -2.3940 62.0260 20.0342 -0.0001 0.0000 0.0000
# 3 22.4210 20.0342 76.2218 -0.0001 0.0000 0.0000
# 4 0.0000 -0.0001 -0.0001 22.3543 0.0001 0.0000
# 5 0.0000 0.0000 0.0000 0.0001 17.7617 0.0000
# 6 0.0000 0.0000 0.0000 0.0000 0.0000 5.2817
#
#
#
# Elastic Compliance Matrix: (Units=1/GPa)
#
#
# Indices 1 2 3 4 5 6 
#
# 1 0.023353 0.003410 -0.007766 0.000000 0.000000 0.000000
# 2 0.003410 0.018116 -0.005765 0.000000 0.000000 0.000000
# 3 -0.007766 -0.005765 0.016919 0.000000 0.000000 0.000000
# 4 0.000000 0.000000 0.000000 0.044734 0.000000 0.000000
# 5 0.000000 0.000000 0.000000 0.000000 0.056301 0.000000
# 6 0.000000 0.000000 0.000000 0.000000 0.000000 0.189332
#
#
# Mechanical properties :
#
#
# Convention : Reuss Voigt Hill
#
# Bulk Modulus (GPa) = 26.21457 29.88853 28.05155
# Shear Modulus (GPa) = 13.09889 19.00041 16.04965
#
# Velocity S-wave (km/s) = 2.55077 3.07210 2.82349
# Velocity P-wave (km/s) = 4.65794 5.23735 4.95612
#
# Compressibility (1/GPa) = 0.03814673
#
# Stress axis : x y z
#
# Youngs Moduli (GPa) = 42.82141 55.20041 59.10509
#
# Poissons Ratio (x) = -0.18821 0.45898
# Poissons Ratio (y) = -0.14600 0.34071
# Poissons Ratio (z) = 0.33253 0.31820
#
# Static dielectric constant tensor:
#      x y z
#    x 1.677660 0.000000 0.000000 
#    y 0.000000 1.718800 0.000000 
#    z 0.000000 0.000000 1.780650 
# 
# From -- ./inp_files/5672.got.cif
#   From: 2010.05.17/outbox.cif.g08.bks.cpg/sg42_3_cif.got.tgz:5672.got - 2010.06.03 19:03:34.
