data_PCOD9369709
_publ_section_title
;
Structure prediction by ZEFSAII (Michael W. Deem and Ramdas Pophale) SiO2 
 PCOD9369709
Probable space group: F M M 2
;
_chemical_formula_sum "Si O2"
_cell_formula_units_Z 68
_cell_length_a 18.680009
_cell_length_b 9.865824
_cell_length_c 17.758829
_cell_angle_alpha 90.000000
_cell_angle_beta 90.000000
_cell_angle_gamma 90.000000
_cell_volume 3272.839969
_symmetry_space_group_name_H-M "F M M 2"
_symmetry_group_IT_number 42
_symmetry_cell_setting 'orthorhombic'
loop_
_space_group_symop_operation_xyz
x,y,z
-x,-y,z
-x,y,z
x,-y,z
x,1/2+y,1/2+z
-x,1/2-y,1/2+z
-x,1/2+y,1/2+z
x,1/2-y,1/2+z
1/2+x,y,1/2+z
1/2-x,-y,1/2+z
1/2-x,y,1/2+z
1/2+x,-y,1/2+z
1/2+x,1/2+y,z
1/2-x,1/2-y,z
1/2-x,1/2+y,z
1/2+x,1/2-y,z
loop_
_atom_site_type_symbol
_atom_site_label
_atom_site_fract_x
_atom_site_fract_y
_atom_site_fract_z
Si Si1 0.500000 0.500000 0.426291
Si Si2 0.641446 0.000000 0.216699
Si Si3 0.772873 0.500000 0.993680
Si Si4 0.389960 0.724766 0.478518
Si Si5 0.419848 0.225114 0.650360
Si Si6 0.302646 0.000000 0.652200
Si Si7 0.851625 0.000000 0.894143
O O1 0.438556 0.618915 0.433844
O O2 0.601529 0.870109 0.183066
O O3 0.725380 0.000000 0.192332
O O4 0.635613 0.000000 0.306101
O O5 0.717166 0.500000 0.063132
O O6 0.819125 0.636855 0.997949
O O7 0.732159 0.500000 0.914826
O O8 0.421418 0.762100 0.559975
O O9 0.380012 0.862365 0.432329
O O10 0.500000 0.183243 0.675797
O O11 0.354264 0.126137 0.670001
#
# Coordination Sequence:
#
# PCOD9369709 Si02
#       7
#     4   8   8  16  16   8   8
#     4  10  22  42  64 100 136 196 236 296 350 438
#     4  12  28  47  74 106 150 191 237 302 386 428
#     4  11  22  39  70 109 138 184 245 310 353 416
#     4  11  22  41  73 103 143 186 249 298 359 430
#     4  12  24  44  71 107 146 192 239 300 359 442
#     4  12  24  42  74 109 139 189 253 298 352 435
#     4  12  27  44  71 113 143 185 240 319 364 429
#
# _framework density 20.777061
#
# number of rings (size 3 to 8) (size 9 to 14) (size 15 to 20)
#    0.000    0.471    5.882    2.824    0.000    4.235 
#    4.235    1.176    0.000    0.000    0.000    0.000 
#    0.000    0.000    0.000    0.000    0.000    0.000 
#
# Total GULP energy -94757.294764 kJ/mol
# GULP energy per Si atom -5573.958516 kJ/mol
# Density = 2.072977 g / cm^3
# Si number density = 20.777061 Si / 1000 Ang^3
#
#
#
# Elastic Constant Matrix: (Units=GPa)
#
#
# Indices 1 2 3 4 5 6 
#
# 1 121.6869 38.5581 13.9578 0.0000 0.0000 0.0000
# 2 38.5581 138.3032 24.9671 0.0000 0.0000 0.0000
# 3 13.9578 24.9671 91.6222 0.0000 0.0000 0.0000
# 4 0.0000 0.0000 0.0000 25.9633 0.0000 0.0000
# 5 0.0000 0.0000 0.0000 0.0000 18.3079 0.0000
# 6 0.0000 0.0000 0.0000 0.0000 0.0000 37.9339
#
#
#
# Elastic Compliance Matrix: (Units=1/GPa)
#
#
# Indices 1 2 3 4 5 6 
#
# 1 0.009060 -0.002395 -0.000728 0.000000 0.000000 0.000000
# 2 -0.002395 0.008237 -0.001880 0.000000 0.000000 0.000000
# 3 -0.000728 -0.001880 0.011538 0.000000 0.000000 0.000000
# 4 0.000000 0.000000 0.000000 0.038516 0.000000 0.000000
# 5 0.000000 0.000000 0.000000 0.000000 0.054621 0.000000
# 6 0.000000 0.000000 0.000000 0.000000 0.000000 0.026362
#
#
# Mechanical properties :
#
#
# Convention : Reuss Voigt Hill
#
# Bulk Modulus (GPa) = 53.10476 56.28647 54.69561
# Shear Modulus (GPa) = 30.37389 34.71629 32.54509
#
# Velocity S-wave (km/s) = 3.82762 4.09209 3.96206
# Velocity P-wave (km/s) = 6.71931 7.03395 6.87843
#
# Compressibility (1/GPa) = 0.01883070
#
# Stress axis : x y z
#
# Youngs Moduli (GPa) = 110.37508 121.39700 86.67370
#
# Poissons Ratio (x) = 0.29069 0.06307
# Poissons Ratio (y) = 0.26429 0.16294
# Poissons Ratio (z) = 0.08032 0.22822
#
# Static dielectric constant tensor:
#      x y z
#    x 1.753510 0.000000 0.000000 
#    y 0.000000 1.733130 0.000000 
#    z 0.000000 0.000000 1.712910 
# 
# From -- ./inp_files/17982.got.cif
#   From: 2010.05.17/outbox.cif.g08.bks.cpg/sg42_9_cif.got.tgz:17982.got - 2010.06.03 19:03:34.
