data_PCOD9369367
_publ_section_title
;
Structure prediction by ZEFSAII (Michael W. Deem and Ramdas Pophale) SiO2 
 PCOD9369367
Probable space group: F M M 2
;
_chemical_formula_sum "Si O2"
_cell_formula_units_Z 96
_cell_length_a 20.614756
_cell_length_b 24.426987
_cell_length_c 9.474990
_cell_angle_alpha 90.000000
_cell_angle_beta 90.000000
_cell_angle_gamma 90.000000
_cell_volume 4771.191635
_symmetry_space_group_name_H-M "F M M 2"
_symmetry_group_IT_number 42
_symmetry_cell_setting 'orthorhombic'
loop_
_space_group_symop_operation_xyz
x,y,z
-x,-y,z
-x,y,z
x,-y,z
x,1/2+y,1/2+z
-x,1/2-y,1/2+z
-x,1/2+y,1/2+z
x,1/2-y,1/2+z
1/2+x,y,1/2+z
1/2-x,-y,1/2+z
1/2-x,y,1/2+z
1/2+x,-y,1/2+z
1/2+x,1/2+y,z
1/2-x,1/2-y,z
1/2-x,1/2+y,z
1/2+x,1/2-y,z
loop_
_atom_site_type_symbol
_atom_site_label
_atom_site_fract_x
_atom_site_fract_y
_atom_site_fract_z
Si Si1 0.212008 0.597830 0.013890
Si Si2 0.570652 0.870119 0.060615
Si Si3 0.296536 0.206254 0.444512
Si Si4 0.429767 0.645345 0.229641
Si Si5 0.324782 0.939785 0.702410
Si Si6 0.378047 0.764305 0.189088
O O1 0.142416 0.605419 0.091661
O O2 0.261418 0.563581 0.106601
O O3 0.251280 0.654866 0.984380
O O4 0.197422 0.571803 0.862300
O O5 0.500000 0.890895 0.114008
O O6 0.577973 0.806833 0.104177
O O7 0.568252 0.874244 0.891258
O O8 0.250000 0.250000 0.370703
O O9 0.351209 0.201524 0.323867
O O10 0.325897 0.238095 0.579548
O O11 0.500000 0.636902 0.162540
O O12 0.373716 0.609061 0.159584
O O13 0.414250 0.709463 0.236900
O O14 0.355173 0.000000 0.692852
#
# Coordination Sequence:
#
# PCOD9369367 Si02
#       6
#    16  16  16  16  16  16
#     4  11  22  39  60  88 119 150 195 245 296 345
#     4  10  21  36  56  84 122 159 188 226 280 350
#     4  12  22  32  58  89 120 154 190 230 282 344
#     4  10  21  38  57  84 119 152 193 238 286 348
#     4  11  23  40  63  86 110 148 199 254 302 341
#     4  12  20  36  55  87 122 158 191 222 278 349
#
# _framework density 20.120760000000001
#
# number of rings (size 3 to 8) (size 9 to 14) (size 15 to 20)
#    0.000    1.000    5.000    3.500    0.000    0.333 
#    0.000    0.000    0.000    1.500    0.000    0.000 
#    0.000    0.000    0.000    0.000    0.000    0.000 
#
# Total GULP energy -133721.597946 kJ/mol
# GULP energy per Si atom -5571.733248 kJ/mol
# Density = 2.007496 g / cm^3
# Si number density = 20.120760 Si / 1000 Ang^3
#
#
#
# Elastic Constant Matrix: (Units=GPa)
#
#
# Indices 1 2 3 4 5 6 
#
# 1 125.8121 17.2867 19.6764 0.0000 0.0000 0.0000
# 2 17.2867 56.9213 -2.6598 -0.0001 0.0000 0.0000
# 3 19.6764 -2.6598 44.9718 -0.0002 0.0001 0.0001
# 4 0.0000 -0.0001 -0.0002 2.8069 0.0002 0.0001
# 5 0.0000 0.0000 0.0001 0.0002 17.0148 -0.0001
# 6 0.0000 0.0000 0.0001 0.0001 -0.0001 -14.1929
#
#
#
# Elastic Compliance Matrix: (Units=1/GPa)
#
#
# Indices 1 2 3 4 5 6 
#
# 1 0.008992 -0.002923 -0.004107 0.000000 0.000000 0.000000
# 2 -0.002923 0.018567 0.002377 0.000001 0.000000 0.000000
# 3 -0.004107 0.002377 0.024174 0.000002 0.000000 0.000000
# 4 0.000000 0.000001 0.000002 0.356268 -0.000004 0.000004
# 5 0.000000 0.000000 0.000000 -0.000004 0.058772 0.000000
# 6 0.000000 0.000000 0.000000 0.000004 0.000000 -0.070458
#
#
# Mechanical properties :
#
#
# Convention : Reuss Voigt Hill
#
# Bulk Modulus (GPa) = 23.57011 32.92353 28.24682
# Shear Modulus (GPa) = 11.91145 14.01922 12.96533
#
# Velocity S-wave (km/s) = 2.43574 2.64247 2.54121
# Velocity P-wave (km/s) = 4.43285 5.07038 4.76229
#
# Compressibility (1/GPa) = 0.04242661
#
# Stress axis : x y z
#
# Youngs Moduli (GPa) = 111.20611 53.85949 41.36716
#
# Poissons Ratio (x) = 0.15742 0.16991
# Poissons Ratio (y) = 0.32504 -0.09833
# Poissons Ratio (z) = 0.45675 -0.12802
#
# Static dielectric constant tensor:
#      x y z
#    x 1.820500 0.000000 0.000000 
#    y 0.000000 1.706320 0.000000 
#    z 0.000000 0.000000 1.707770 
# 
# From -- ./inp_files/4154.got.cif
#   From: 2010.05.17/outbox.cif.g08.bks.cpg/sg42_3_cif.got.tgz:4154.got - 2010.06.03 19:03:34.
