data_PCOD9369152
_publ_section_title
;
Structure prediction by ZEFSAII (Michael W. Deem and Ramdas Pophale) SiO2 
 PCOD9369152
Probable space group: F M M 2
;
_chemical_formula_sum "Si O2"
_cell_formula_units_Z 116
_cell_length_a 30.719056
_cell_length_b 8.071128
_cell_length_c 25.777277
_cell_angle_alpha 90.000000
_cell_angle_beta 90.000000
_cell_angle_gamma 90.000000
_cell_volume 6391.151890
_symmetry_space_group_name_H-M "F M M 2"
_symmetry_group_IT_number 42
_symmetry_cell_setting 'orthorhombic'
loop_
_space_group_symop_operation_xyz
x,y,z
-x,-y,z
-x,y,z
x,-y,z
x,1/2+y,1/2+z
-x,1/2-y,1/2+z
-x,1/2+y,1/2+z
x,1/2-y,1/2+z
1/2+x,y,1/2+z
1/2-x,-y,1/2+z
1/2-x,y,1/2+z
1/2+x,-y,1/2+z
1/2+x,1/2+y,z
1/2-x,1/2-y,z
1/2-x,1/2+y,z
1/2+x,1/2-y,z
loop_
_atom_site_type_symbol
_atom_site_label
_atom_site_fract_x
_atom_site_fract_y
_atom_site_fract_z
Si Si1 0.163791 0.696182 0.067630
Si Si2 0.365407 0.689794 0.380569
Si Si3 0.548422 0.307842 0.925742
Si Si4 0.799677 0.801821 0.791768
Si Si5 0.500000 0.500000 0.064921
Si Si6 0.062869 0.809545 0.539887
Si Si7 0.298502 0.309078 0.963310
Si Si8 0.299608 0.800511 0.175227
O O1 0.174943 0.500000 0.065088
O O2 0.113559 0.712996 0.052642
O O3 0.172537 0.756241 0.126060
O O4 0.192473 0.785633 0.024182
O O5 0.377473 0.500000 0.374910
O O6 0.410668 0.785536 0.388191
O O7 0.334741 0.741819 0.333123
O O8 0.335399 0.712908 0.431505
O O9 0.500000 0.270285 0.904518
O O10 0.547637 0.500000 0.942828
O O11 0.555865 0.203023 0.977786
O O12 0.750000 0.750000 0.804491
O O13 0.810102 0.739534 0.733354
O O14 0.800436 0.000000 0.791653
O O15 0.537078 0.651712 0.062612
O O16 0.051090 0.000000 0.556006
O O17 0.302954 0.500000 0.948423
O O18 0.250000 0.250000 0.950487
O O19 0.250000 0.750000 0.164957
O O20 0.302664 0.000000 0.177161
#
# Coordination Sequence:
#
# PCOD9369152 Si02
#       8
#    16  16  16  16   4  16  16  16
#     4  10  21  36  54  82 115 148 188 230 283 343
#     4  12  24  37  55  81 114 147 188 234 286 342
#     4  11  21  37  57  83 113 147 190 234 286 349
#     4  10  20  37  59  82 111 147 190 238 286 340
#     4  12  22  36  56  82 116 152 202 236 292 350
#     4  11  21  35  56  82 117 153 191 242 290 346
#     4  12  24  36  52  75 112 153 188 223 274 339
#     4   9  19  36  57  82 111 146 190 236 282 336
#
# _framework density 18.150092999999998
#
# number of rings (size 3 to 8) (size 9 to 14) (size 15 to 20)
#    0.000    1.241    2.759    4.345    0.966    3.034 
#    0.000    0.000    0.000    0.000    1.793    0.000 
#    0.000    0.000    0.000    0.000    0.000    0.000 
#
# Total GULP energy -161612.412104 kJ/mol
# GULP energy per Si atom -5572.841797 kJ/mol
# Density = 1.810878 g / cm^3
# Si number density = 18.150093 Si / 1000 Ang^3
#
#
#
# Elastic Constant Matrix: (Units=GPa)
#
#
# Indices 1 2 3 4 5 6 
#
# 1 114.4969 14.3770 49.7047 0.0000 -0.0002 0.0001
# 2 14.3770 77.1435 4.8226 0.0001 -0.0003 0.0001
# 3 49.7047 4.8226 79.5849 0.0000 0.0000 0.0000
# 4 0.0000 0.0001 0.0000 15.4291 -0.0001 0.0000
# 5 -0.0002 -0.0003 0.0000 -0.0001 25.4194 0.0003
# 6 0.0001 0.0001 0.0000 0.0000 0.0003 29.1369
#
#
#
# Elastic Compliance Matrix: (Units=1/GPa)
#
#
# Indices 1 2 3 4 5 6 
#
# 1 0.012229 -0.001808 -0.007528 0.000000 0.000000 0.000000
# 2 -0.001808 0.013280 0.000325 0.000000 0.000000 0.000000
# 3 -0.007528 0.000325 0.017247 0.000000 0.000000 0.000000
# 4 0.000000 0.000000 0.000000 0.064813 0.000000 0.000000
# 5 0.000000 0.000000 0.000000 0.000000 0.039340 0.000000
# 6 0.000000 0.000000 0.000000 0.000000 0.000000 0.034321
#
#
# Mechanical properties :
#
#
# Convention : Reuss Voigt Hill
#
# Bulk Modulus (GPa) = 40.43299 45.44822 42.94061
# Shear Modulus (GPa) = 24.09676 27.48513 25.79095
#
# Velocity S-wave (km/s) = 3.64763 3.89565 3.77368
# Velocity P-wave (km/s) = 6.32974 6.73271 6.53433
#
# Compressibility (1/GPa) = 0.02473228
#
# Stress axis : x y z
#
# Youngs Moduli (GPa) = 81.77313 75.30358 57.98060
#
# Poissons Ratio (x) = 0.13618 0.43648
# Poissons Ratio (y) = 0.14788 -0.01883
# Poissons Ratio (z) = 0.61559 -0.02446
#
# Static dielectric constant tensor:
#      x y z
#    x 1.644950 0.000000 0.000000 
#    y 0.000000 1.638240 0.000000 
#    z 0.000000 0.000000 1.640180 
# 
# From -- ./inp_files/30872.got.cif
#   From: 2010.05.17/outbox.cif.g08.bks.cpg/sg42_16_cif.got.tgz:30872.got - 2010.06.03 19:03:34.
