data_PCOD9369099
_publ_section_title
;
Structure prediction by ZEFSAII (Michael W. Deem and Ramdas Pophale) SiO2 
 PCOD9369099
Probable space group: F M M 2
;
_chemical_formula_sum "Si O2"
_cell_formula_units_Z 88
_cell_length_a 21.641785
_cell_length_b 12.983325
_cell_length_c 18.009739
_cell_angle_alpha 90.000000
_cell_angle_beta 90.000000
_cell_angle_gamma 90.000000
_cell_volume 5060.418395
_symmetry_space_group_name_H-M "F M M 2"
_symmetry_group_IT_number 42
_symmetry_cell_setting 'orthorhombic'
loop_
_space_group_symop_operation_xyz
x,y,z
-x,-y,z
-x,y,z
x,-y,z
x,1/2+y,1/2+z
-x,1/2-y,1/2+z
-x,1/2+y,1/2+z
x,1/2-y,1/2+z
1/2+x,y,1/2+z
1/2-x,-y,1/2+z
1/2-x,y,1/2+z
1/2+x,-y,1/2+z
1/2+x,1/2+y,z
1/2-x,1/2-y,z
1/2-x,1/2+y,z
1/2+x,1/2-y,z
loop_
_atom_site_type_symbol
_atom_site_label
_atom_site_fract_x
_atom_site_fract_y
_atom_site_fract_z
Si Si1 0.571261 0.294648 0.218860
Si Si2 0.250000 0.750000 0.184791
Si Si3 0.675924 0.221973 0.434833
Si Si4 0.151553 0.121985 0.091932
Si Si5 0.427808 0.379599 0.381534
Si Si6 0.840279 0.620493 0.276815
O O1 0.500000 0.271244 0.213170
O O2 0.593320 0.350099 0.143929
O O3 0.581402 0.363863 0.292728
O O4 0.607440 0.189697 0.237596
O O5 0.203549 0.811598 0.133281
O O6 0.220615 0.663614 0.237206
O O7 0.750000 0.250000 0.439956
O O8 0.652959 0.163442 0.508247
O O9 0.627722 0.316624 0.420766
O O10 0.665892 0.150325 0.362891
O O11 0.162532 0.000000 0.093135
O O12 0.500000 0.346239 0.397303
O O13 0.423508 0.500000 0.399839
O O14 0.849239 0.500000 0.266773
#
# Coordination Sequence:
#
# PCOD9369099 Si02
#       6
#    16   8  16  16  16  16
#     4   9  20  38  59  85 113 144 195 247 285 341
#     4  10  20  38  54  80 112 144 192 236 274 334
#     4  11  22  38  53  87 125 154 194 240 292 355
#     4  11  22  36  56  81 115 154 189 232 288 344
#     4   9  19  38  63  86 111 151 200 247 293 344
#     4  10  20  36  59  83 111 149 189 234 290 343
#
# _framework density 17.389866999999999
#
# number of rings (size 3 to 8) (size 9 to 14) (size 15 to 20)
#    0.000    2.000    1.818    1.636    0.000    3.636 
#    0.000    0.909    0.000    3.273    0.000    0.000 
#    0.000    0.000    0.000    0.000    0.000    0.000 
#
# Total GULP energy -122555.532530 kJ/mol
# GULP energy per Si atom -5570.706024 kJ/mol
# Density = 1.735029 g / cm^3
# Si number density = 17.389867 Si / 1000 Ang^3
#
#
#
# Elastic Constant Matrix: (Units=GPa)
#
#
# Indices 1 2 3 4 5 6 
#
# 1 56.3641 15.1793 9.0165 0.0000 0.0000 0.0000
# 2 15.1793 104.0105 26.1307 0.0000 0.0000 0.0000
# 3 9.0165 26.1307 100.7190 0.0000 0.0000 0.0000
# 4 0.0000 0.0000 0.0000 10.7927 0.0000 0.0000
# 5 0.0000 0.0000 0.0000 0.0000 16.1131 0.0000
# 6 0.0000 0.0000 0.0000 0.0000 0.0000 12.8945
#
#
#
# Elastic Compliance Matrix: (Units=1/GPa)
#
#
# Indices 1 2 3 4 5 6 
#
# 1 0.018566 -0.002452 -0.001026 0.000000 0.000000 0.000000
# 2 -0.002452 0.010609 -0.002533 0.000000 0.000000 0.000000
# 3 -0.001026 -0.002533 0.010678 0.000000 0.000000 0.000000
# 4 0.000000 0.000000 0.000000 0.092655 0.000000 0.000000
# 5 0.000000 0.000000 0.000000 0.000000 0.062061 0.000000
# 6 0.000000 0.000000 0.000000 0.000000 0.000000 0.077552
#
#
# Mechanical properties :
#
#
# Convention : Reuss Voigt Hill
#
# Bulk Modulus (GPa) = 35.93093 40.19406 38.06249
# Shear Modulus (GPa) = 17.04045 22.01120 19.52583
#
# Velocity S-wave (km/s) = 3.13374 3.56160 3.35450
# Velocity P-wave (km/s) = 5.81383 6.33064 6.07773
#
# Compressibility (1/GPa) = 0.02783117
#
# Stress axis : x y z
#
# Youngs Moduli (GPa) = 53.86133 94.26356 93.65419
#
# Poissons Ratio (x) = 0.23112 0.09609
# Poissons Ratio (y) = 0.13206 0.23721
# Poissons Ratio (z) = 0.05526 0.23875
#
# Static dielectric constant tensor:
#      x y z
#    x 1.559020 0.000000 0.000000 
#    y 0.000000 1.557180 0.000000 
#    z 0.000000 0.000000 1.598450 
# 
# From -- ./inp_files/18992.got.cif
#   From: 2010.05.17/outbox.cif.g08.bks.cpg/sg42_10_cif.got.tgz:18992.got - 2010.06.03 19:03:34.
