data_PCOD9369161
_publ_section_title
;
Structure prediction by ZEFSAII (Michael W. Deem and Ramdas Pophale) SiO2 
 PCOD9369161
Probable space group: F M M 2
;
_chemical_formula_sum "Si O2"
_cell_formula_units_Z 112
_cell_length_a 25.925230
_cell_length_b 14.092954
_cell_length_c 13.102469
_cell_angle_alpha 90.000000
_cell_angle_beta 90.000000
_cell_angle_gamma 90.000000
_cell_volume 4787.158349
_symmetry_space_group_name_H-M "F M M 2"
_symmetry_group_IT_number 42
_symmetry_cell_setting 'orthorhombic'
loop_
_space_group_symop_operation_xyz
x,y,z
-x,-y,z
-x,y,z
x,-y,z
x,1/2+y,1/2+z
-x,1/2-y,1/2+z
-x,1/2+y,1/2+z
x,1/2-y,1/2+z
1/2+x,y,1/2+z
1/2-x,-y,1/2+z
1/2-x,y,1/2+z
1/2+x,-y,1/2+z
1/2+x,1/2+y,z
1/2-x,1/2-y,z
1/2-x,1/2+y,z
1/2+x,1/2-y,z
loop_
_atom_site_type_symbol
_atom_site_label
_atom_site_fract_x
_atom_site_fract_y
_atom_site_fract_z
Si Si1 0.557478 0.384886 0.587170
Si Si2 0.767412 0.109895 0.932866
Si Si3 0.336522 0.391183 0.508138
Si Si4 0.593155 0.215252 0.292181
Si Si5 0.059562 0.106986 0.200422
Si Si6 0.203561 0.320803 0.217472
Si Si7 0.378035 0.385523 0.996680
O O1 0.500000 0.356642 0.553459
O O2 0.559933 0.500000 0.589564
O O3 0.605966 0.350239 0.519017
O O4 0.567008 0.346298 0.701744
O O5 0.780344 0.117049 0.814229
O O6 0.817717 0.144896 0.994524
O O7 0.762011 0.000000 0.963814
O O8 0.710690 0.154536 0.945906
O O9 0.343137 0.500000 0.473956
O O10 0.313646 0.384117 0.622505
O O11 0.566988 0.317410 0.289185
O O12 0.652132 0.231508 0.256097
O O13 0.594832 0.160426 0.398502
O O14 0.000000 0.107685 0.168095
O O15 0.073339 0.000000 0.231633
O O16 0.093858 0.135064 0.102780
O O17 0.250000 0.250000 0.191501
O O18 0.378883 0.500000 0.983632
#
# Coordination Sequence:
#
# PCOD9369161 Si02
#       7
#    16  16  16  16  16  16  16
#     4   9  17  31  55  88 122 156 201 254 306 363
#     4   9  18  35  57  81 115 156 196 244 300 363
#     4   9  18  33  55  83 116 156 192 237 304 365
#     4  10  20  37  59  87 121 162 206 256 317 367
#     4  10  22  39  60  90 125 162 211 264 310 369
#     4  10  21  34  51  84 116 149 191 244 297 358
#     4   9  19  37  63  92 123 161 209 262 314 370
#
# _framework density 23.395927
#
# number of rings (size 3 to 8) (size 9 to 14) (size 15 to 20)
#    0.000    2.571    0.000    1.286    2.000    5.143 
#    7.714    2.143    0.000    1.714    0.000    2.000 
#    0.000    0.000    0.000    0.000    0.000    0.857 
#
# Total GULP energy -156479.825566 kJ/mol
# GULP energy per Si atom -5588.565199 kJ/mol
# Density = 2.334268 g / cm^3
# Si number density = 23.395927 Si / 1000 Ang^3
#
#
#
# Elastic Constant Matrix: (Units=GPa)
#
#
# Indices 1 2 3 4 5 6 
#
# 1 160.5085 26.8110 42.8524 0.0000 0.0000 0.0000
# 2 26.8110 80.8198 13.7479 0.0000 0.0000 0.0000
# 3 42.8524 13.7479 68.6471 0.0000 0.0000 0.0000
# 4 0.0000 0.0000 0.0000 26.2025 0.0000 0.0000
# 5 0.0000 0.0000 0.0000 0.0000 26.9311 0.0000
# 6 0.0000 0.0000 0.0000 0.0000 0.0000 26.9300
#
#
#
# Elastic Compliance Matrix: (Units=1/GPa)
#
#
# Indices 1 2 3 4 5 6 
#
# 1 0.007722 -0.001803 -0.004459 0.000000 0.000000 0.000000
# 2 -0.001803 0.013231 -0.001524 0.000000 0.000000 0.000000
# 3 -0.004459 -0.001524 0.017656 0.000000 0.000000 0.000000
# 4 0.000000 0.000000 0.000000 0.038164 0.000000 0.000000
# 5 0.000000 0.000000 0.000000 0.000000 0.037132 0.000000
# 6 0.000000 0.000000 0.000000 0.000000 0.000000 0.037133
#
#
# Mechanical properties :
#
#
# Convention : Reuss Voigt Hill
#
# Bulk Modulus (GPa) = 43.41075 52.97755 48.19415
# Shear Modulus (GPa) = 28.68789 31.11699 29.90244
#
# Velocity S-wave (km/s) = 3.50550 3.65090 3.57894
# Velocity P-wave (km/s) = 5.91437 6.36122 6.14186
#
# Compressibility (1/GPa) = 0.02303577
#
# Stress axis : x y z
#
# Youngs Moduli (GPa) = 129.50167 75.58225 56.63759
#
# Poissons Ratio (x) = 0.13628 0.25256
# Poissons Ratio (y) = 0.23351 0.08632
# Poissons Ratio (z) = 0.57748 0.11519
#
# Static dielectric constant tensor:
#      x y z
#    x 1.921520 0.000000 0.000000 
#    y 0.000000 1.902400 0.000000 
#    z 0.000000 0.000000 1.833980 
# 
# From -- ./inp_files/16553.got.cif
#   From: 2010.05.17/outbox.cif.g08.bks.cpg/sg42_9_cif.got.tgz:16553.got - 2010.06.03 19:03:34.
