data_PCOD9369440
_publ_section_title
;
Structure prediction by ZEFSAII (Michael W. Deem and Ramdas Pophale) SiO2 
 PCOD9369440
Probable space group: F M M 2
;
_chemical_formula_sum "Si O2"
_cell_formula_units_Z 96
_cell_length_a 26.904940
_cell_length_b 13.238697
_cell_length_c 13.835385
_cell_angle_alpha 90.000000
_cell_angle_beta 90.000000
_cell_angle_gamma 90.000000
_cell_volume 4927.975263
_symmetry_space_group_name_H-M "F M M 2"
_symmetry_group_IT_number 42
_symmetry_cell_setting 'orthorhombic'
loop_
_space_group_symop_operation_xyz
x,y,z
-x,-y,z
-x,y,z
x,-y,z
x,1/2+y,1/2+z
-x,1/2-y,1/2+z
-x,1/2+y,1/2+z
x,1/2-y,1/2+z
1/2+x,y,1/2+z
1/2-x,-y,1/2+z
1/2-x,y,1/2+z
1/2+x,-y,1/2+z
1/2+x,1/2+y,z
1/2-x,1/2-y,z
1/2-x,1/2+y,z
1/2+x,1/2-y,z
loop_
_atom_site_type_symbol
_atom_site_label
_atom_site_fract_x
_atom_site_fract_y
_atom_site_fract_z
Si Si1 0.723296 0.000000 0.884818
Si Si2 0.059065 0.882825 0.518999
Si Si3 0.614737 0.500000 0.970514
Si Si4 0.941245 0.313058 0.398436
Si Si5 0.793199 0.166886 0.243301
Si Si6 0.120798 0.813767 0.702531
Si Si7 0.280900 0.000000 0.583607
Si Si8 0.826493 0.000000 0.771971
O O1 0.698181 0.100550 0.840955
O O2 0.774139 0.000000 0.822966
O O3 0.740792 0.000000 0.996005
O O4 0.066591 0.801542 0.434417
O O5 0.089269 0.836560 0.608105
O O6 0.000000 0.883185 0.540931
O O7 0.073495 0.000000 0.500154
O O8 0.663120 0.500000 0.038754
O O9 0.582728 0.603394 0.971077
O O10 0.636464 0.500000 0.862387
O O11 0.915632 0.321112 0.294271
O O12 0.000000 0.332887 0.392244
O O13 0.750000 0.250000 0.262003
O O14 0.845453 0.215099 0.211280
O O15 0.776655 0.096015 0.154118
O O16 0.161277 0.902625 0.710812
#
# Coordination Sequence:
#
# PCOD9369440 Si02
#       8
#     8  16   8  16  16  16   8   8
#     4  10  21  43  57  82 117 158 197 249 303 347
#     4  10  21  38  61  90 123 160 204 251 305 371
#     4   9  18  35  60  88 116 154 200 249 296 360
#     4  10  21  37  61  93 124 157 202 256 310 367
#     4  11  23  39  61  87 119 158 204 251 297 366
#     4  11  20  38  60  90 118 156 201 248 305 353
#     4  10  23  42  60  87 121 158 203 248 307 355
#     4   9  17  32  59  81 112 144 190 242 287 342
#
# _framework density 19.480616999999999
#
# number of rings (size 3 to 8) (size 9 to 14) (size 15 to 20)
#    0.000    1.833    2.500    1.750    0.000    0.667 
#    6.000    0.000    0.000    0.000    0.000    0.000 
#    0.000    0.000    0.000    0.000    0.000    0.000 
#
# Total GULP energy -133808.912811 kJ/mol
# GULP energy per Si atom -5575.371367 kJ/mol
# Density = 1.943628 g / cm^3
# Si number density = 19.480617 Si / 1000 Ang^3
#
#
#
# Elastic Constant Matrix: (Units=GPa)
#
#
# Indices 1 2 3 4 5 6 
#
# 1 53.1662 32.8823 12.2586 0.0000 0.0000 0.0000
# 2 32.8823 105.0621 16.2841 0.0000 0.0000 0.0000
# 3 12.2586 16.2841 49.0482 0.0000 0.0000 0.0000
# 4 0.0000 0.0000 0.0000 20.3337 0.0000 0.0000
# 5 0.0000 0.0000 0.0000 0.0000 23.7225 0.0000
# 6 0.0000 0.0000 0.0000 0.0000 0.0000 36.1485
#
#
#
# Elastic Compliance Matrix: (Units=1/GPa)
#
#
# Indices 1 2 3 4 5 6 
#
# 1 0.023939 -0.006921 -0.003685 0.000000 0.000000 0.000000
# 2 -0.006921 0.012036 -0.002266 0.000000 0.000000 0.000000
# 3 -0.003685 -0.002266 0.022062 0.000000 0.000000 0.000000
# 4 0.000000 0.000000 0.000000 0.049179 0.000000 0.000000
# 5 0.000000 0.000000 0.000000 0.000000 0.042154 0.000000
# 6 0.000000 0.000000 0.000000 0.000000 0.000000 0.027664
#
#
# Mechanical properties :
#
#
# Convention : Reuss Voigt Hill
#
# Bulk Modulus (GPa) = 30.96812 36.68072 33.82442
# Shear Modulus (GPa) = 23.41452 25.76437 24.58944
#
# Velocity S-wave (km/s) = 3.47066 3.64065 3.55667
# Velocity P-wave (km/s) = 5.65615 6.04506 5.85383
#
# Compressibility (1/GPa) = 0.03229127
#
# Stress axis : x y z
#
# Youngs Moduli (GPa) = 41.77218 83.08659 45.32783
#
# Poissons Ratio (x) = 0.57507 0.16705
# Poissons Ratio (y) = 0.28912 0.10271
# Poissons Ratio (z) = 0.15394 0.18827
#
# Static dielectric constant tensor:
#      x y z
#    x 1.705180 0.000000 0.000000 
#    y 0.000000 1.740440 0.000000 
#    z 0.000000 0.000000 1.647640 
# 
# From -- ./inp_files/17325.got.cif
#   From: 2010.05.17/outbox.cif.g08.bks.cpg/sg42_9_cif.got.tgz:17325.got - 2010.06.03 19:03:34.
