data_PCOD9369760
_publ_section_title
;
Structure prediction by ZEFSAII (Michael W. Deem and Ramdas Pophale) SiO2 
 PCOD9369760
Probable space group: F M M 2
;
_chemical_formula_sum "Si O2"
_cell_formula_units_Z 104
_cell_length_a 10.889607
_cell_length_b 14.135729
_cell_length_c 33.293116
_cell_angle_alpha 90.000000
_cell_angle_beta 90.000000
_cell_angle_gamma 90.000000
_cell_volume 5124.893693
_symmetry_space_group_name_H-M "F M M 2"
_symmetry_group_IT_number 42
_symmetry_cell_setting 'orthorhombic'
loop_
_space_group_symop_operation_xyz
x,y,z
-x,-y,z
-x,y,z
x,-y,z
x,1/2+y,1/2+z
-x,1/2-y,1/2+z
-x,1/2+y,1/2+z
x,1/2-y,1/2+z
1/2+x,y,1/2+z
1/2-x,-y,1/2+z
1/2-x,y,1/2+z
1/2+x,-y,1/2+z
1/2+x,1/2+y,z
1/2-x,1/2-y,z
1/2-x,1/2+y,z
1/2+x,1/2-y,z
loop_
_atom_site_type_symbol
_atom_site_label
_atom_site_fract_x
_atom_site_fract_y
_atom_site_fract_z
Si Si1 0.366454 0.851779 0.027210
Si Si2 0.860936 0.350894 0.483727
Si Si3 0.647481 0.892269 0.307583
Si Si4 0.250000 0.750000 0.742972
Si Si5 0.141287 0.385573 0.395018
Si Si6 0.363018 0.613546 0.618343
Si Si7 0.859816 0.887834 0.178723
O O1 0.500000 0.897375 0.021115
O O2 0.352863 0.838698 0.074906
O O3 0.244072 0.899093 0.010250
O O4 0.372567 0.752639 0.003439
O O5 0.812443 0.350581 0.437912
O O6 0.000000 0.391023 0.483640
O O7 0.500000 0.896316 0.311343
O O8 0.679859 0.821955 0.272171
O O9 0.697387 0.861492 0.351620
O O10 0.689875 0.000000 0.299390
O O11 0.164423 0.684068 0.715162
O O12 0.142041 0.500000 0.396487
O O13 0.000000 0.352418 0.394141
O O14 0.500000 0.635944 0.635356
O O15 0.361013 0.500000 0.611305
O O16 0.247837 0.634046 0.646747
O O17 0.000000 0.876564 0.163655
O O18 0.845916 0.000000 0.189751
#
# Coordination Sequence:
#
# PCOD9369760 Si02
#       7
#    16  16  16   8  16  16  16
#     4   9  18  31  47  71 103 135 170 218 272 322
#     4   9  17  29  47  72 101 135 175 219 267 319
#     4   9  19  36  57  82 113 150 193 237 279 333
#     4  12  22  34  58  90 116 146 186 234 292 354
#     4   8  15  30  51  74 102 138 183 232 273 314
#     4   9  19  37  58  77 102 143 192 236 280 337
#     4  10  23  42  61  85 119 153 187 236 296 353
#
# _framework density 20.293104
#
# number of rings (size 3 to 8) (size 9 to 14) (size 15 to 20)
#    0.000    2.769    0.000    1.846    0.000    4.923 
#    0.000    4.615    0.000    0.923    0.000    4.308 
#    0.000    0.000    0.000    0.000    0.000    0.000 
#
# Total GULP energy -144785.406419 kJ/mol
# GULP energy per Si atom -5568.669478 kJ/mol
# Density = 2.024692 g / cm^3
# Si number density = 20.293104 Si / 1000 Ang^3
#
#
#
# Elastic Constant Matrix: (Units=GPa)
#
#
# Indices 1 2 3 4 5 6 
#
# 1 140.0077 22.8565 62.4647 0.0000 0.0000 0.0000
# 2 22.8565 98.1608 48.0390 0.0000 0.0000 0.0000
# 3 62.4647 48.0390 137.7429 0.0000 0.0000 0.0000
# 4 0.0000 0.0000 0.0000 61.2249 0.0000 0.0000
# 5 0.0000 0.0000 0.0000 0.0000 -81.7884 0.0000
# 6 0.0000 0.0000 0.0000 0.0000 0.0000 -1.0079
#
#
#
# Elastic Compliance Matrix: (Units=1/GPa)
#
#
# Indices 1 2 3 4 5 6 
#
# 1 0.008955 -0.000118 -0.004020 0.000000 0.000000 0.000000
# 2 -0.000118 0.012286 -0.004231 0.000000 0.000000 0.000000
# 3 -0.004020 -0.004231 0.010559 0.000000 0.000000 0.000000
# 4 0.000000 0.000000 0.000000 0.016333 0.000000 0.000000
# 5 0.000000 0.000000 0.000000 0.000000 -0.012227 0.000000
# 6 0.000000 0.000000 0.000000 0.000000 0.000000 -0.992133
#
#
# Mechanical properties :
#
#
# Convention : Reuss Voigt Hill
#
# Bulk Modulus (GPa) = 66.39577 71.40353 68.89965
# Shear Modulus (GPa) = -5.35064 11.85581 3.25259
#
# Velocity S-wave (km/s) = -1.62555 2.41970 1.26739
# Velocity P-wave (km/s) = 5.40983 6.56271 6.01396
#
# Compressibility (1/GPa) = 0.01506120
#
# Stress axis : x y z
#
# Youngs Moduli (GPa) = 111.66669 81.39660 94.70969
#
# Poissons Ratio (x) = 0.00959 0.38073
# Poissons Ratio (y) = 0.01316 0.40074
# Poissons Ratio (z) = 0.44890 0.34441
#
# Static dielectric constant tensor:
#      x y z
#    x 1.824870 0.000000 0.000000 
#    y 0.000000 1.432840 0.000000 
#    z 0.000000 0.000000 1.726330 
# 
# From -- ./inp_files/34187.got.cif
#   From: 2010.05.17/outbox.cif.g08.bks.cpg/sg42_18_cif.got.tgz:34187.got - 2010.06.03 19:03:34.
