data_PCOD9369776
_publ_section_title
;
Structure prediction by ZEFSAII (Michael W. Deem and Ramdas Pophale) SiO2 
 PCOD9369776
Probable space group: F M M 2
;
_chemical_formula_sum "Si O2"
_cell_formula_units_Z 64
_cell_length_a 11.731428
_cell_length_b 28.593863
_cell_length_c 8.942957
_cell_angle_alpha 90.000000
_cell_angle_beta 90.000000
_cell_angle_gamma 90.000000
_cell_volume 2999.886711
_symmetry_space_group_name_H-M "F M M 2"
_symmetry_group_IT_number 42
_symmetry_cell_setting 'orthorhombic'
loop_
_space_group_symop_operation_xyz
x,y,z
-x,-y,z
-x,y,z
x,-y,z
x,1/2+y,1/2+z
-x,1/2-y,1/2+z
-x,1/2+y,1/2+z
x,1/2-y,1/2+z
1/2+x,y,1/2+z
1/2-x,-y,1/2+z
1/2-x,y,1/2+z
1/2+x,-y,1/2+z
1/2+x,1/2+y,z
1/2-x,1/2-y,z
1/2-x,1/2+y,z
1/2+x,1/2-y,z
loop_
_atom_site_type_symbol
_atom_site_label
_atom_site_fract_x
_atom_site_fract_y
_atom_site_fract_z
Si Si1 0.369864 0.943842 0.630230
Si Si2 0.127344 0.084223 0.784739
Si Si3 0.623896 0.714886 0.092607
Si Si4 0.830403 0.809788 0.755632
O O1 0.500000 0.931208 0.689476
O O2 0.249416 0.932338 0.714857
O O3 0.362596 0.922394 0.463514
O O4 0.370811 0.000000 0.616368
O O5 0.119701 0.139151 0.747038
O O6 0.000000 0.063749 0.742332
O O7 0.500000 0.695040 0.101803
O O8 0.700707 0.686596 0.205863
O O9 0.625776 0.768907 0.145501
O O10 0.660375 0.709569 0.922292
#
# Coordination Sequence:
#
# PCOD9369776 Si02
#       4
#    16  16  16  16
#     4  10  23  43  66  93 125 160 199 250 312 375
#     4  11  23  41  65  93 126 161 204 255 306 365
#     4  11  22  39  59  82 122 164 204 253 299 348
#     4  11  23  38  60  90 119 161 210 249 298 355
#
# _framework density 21.334137999999999
#
# number of rings (size 3 to 8) (size 9 to 14) (size 15 to 20)
#    0.000    1.250    0.000    7.500    0.000    5.500 
#    0.000    7.500    0.000    0.000    0.000    0.000 
#    0.000    0.000    0.000    0.000    0.000    0.000 
#
# Total GULP energy -89143.184876 kJ/mol
# GULP energy per Si atom -5571.449055 kJ/mol
# Density = 2.128558 g / cm^3
# Si number density = 21.334138 Si / 1000 Ang^3
#
#
#
# Elastic Constant Matrix: (Units=GPa)
#
#
# Indices 1 2 3 4 5 6 
#
# 1 229.4081 7.0321 84.4378 0.0000 0.0000 0.0000
# 2 7.0321 53.7468 10.9512 0.0000 0.0000 0.0000
# 3 84.4378 10.9512 70.0692 0.0000 0.0000 0.0000
# 4 0.0000 0.0000 0.0000 -14.7163 0.0000 0.0000
# 5 0.0000 0.0000 0.0000 0.0000 -33.6521 0.0000
# 6 0.0000 0.0000 0.0000 0.0000 0.0000 7.6631
#
#
#
# Elastic Compliance Matrix: (Units=1/GPa)
#
#
# Indices 1 2 3 4 5 6 
#
# 1 0.007879 0.000933 -0.009640 0.000000 0.000000 0.000000
# 2 0.000933 0.019328 -0.004146 0.000000 0.000000 0.000000
# 3 -0.009640 -0.004146 0.026537 0.000000 0.000000 0.000000
# 4 0.000000 0.000000 0.000000 -0.067952 0.000000 0.000000
# 5 0.000000 0.000000 0.000000 0.000000 -0.029716 0.000000
# 6 0.000000 0.000000 0.000000 0.000000 0.000000 0.130496
#
#
# Mechanical properties :
#
#
# Convention : Reuss Voigt Hill
#
# Bulk Modulus (GPa) = 35.66501 62.00738 48.83620
# Shear Modulus (GPa) = 41.11053 8.57912 24.84482
#
# Velocity S-wave (km/s) = 4.39450 2.00750 3.41626
# Velocity P-wave (km/s) = 6.51940 5.87379 6.20499
#
# Compressibility (1/GPa) = 0.02803869
#
# Stress axis : x y z
#
# Youngs Moduli (GPa) = 126.92488 51.73752 37.68386
#
# Poissons Ratio (x) = -0.04829 0.36328
# Poissons Ratio (y) = -0.11847 0.15622
# Poissons Ratio (z) = 1.22358 0.21449
#
# Static dielectric constant tensor:
#      x y z
#    x 1.969150 0.000000 0.000000 
#    y 0.000000 1.751110 0.000000 
#    z 0.000000 0.000000 1.720170 
# 
# From -- ./inp_files/2215.got.cif
#   From: 2010.05.17/outbox.cif.g08.bks.cpg/sg42_2_cif.got.tgz:2215.got - 2010.06.03 19:03:34.
