data_PCOD9369698
_publ_section_title
;
Structure prediction by ZEFSAII (Michael W. Deem and Ramdas Pophale) SiO2 
 PCOD9369698
Probable space group: F M M 2
;
_chemical_formula_sum "Si O2"
_cell_formula_units_Z 80
_cell_length_a 21.228737
_cell_length_b 16.548493
_cell_length_c 9.578871
_cell_angle_alpha 90.000000
_cell_angle_beta 90.000000
_cell_angle_gamma 90.000000
_cell_volume 3365.091920
_symmetry_space_group_name_H-M "F M M 2"
_symmetry_group_IT_number 42
_symmetry_cell_setting 'orthorhombic'
loop_
_space_group_symop_operation_xyz
x,y,z
-x,-y,z
-x,y,z
x,-y,z
x,1/2+y,1/2+z
-x,1/2-y,1/2+z
-x,1/2+y,1/2+z
x,1/2-y,1/2+z
1/2+x,y,1/2+z
1/2-x,-y,1/2+z
1/2-x,y,1/2+z
1/2+x,-y,1/2+z
1/2+x,1/2+y,z
1/2-x,1/2-y,z
1/2-x,1/2+y,z
1/2+x,1/2-y,z
loop_
_atom_site_type_symbol
_atom_site_label
_atom_site_fract_x
_atom_site_fract_y
_atom_site_fract_z
Si Si1 0.753448 0.909505 0.456690
Si Si2 0.071681 0.910852 0.916355
Si Si3 0.798877 0.816518 0.189396
Si Si4 0.569319 0.261912 0.128244
Si Si5 0.886657 0.410704 0.113368
O O1 0.767614 0.852704 0.326744
O O2 0.699989 0.881299 0.564068
O O3 0.817713 0.909129 0.547041
O O4 0.741974 0.000000 0.406045
O O5 0.072294 0.832524 0.013067
O O6 0.115778 0.905303 0.781570
O O7 0.000000 0.912212 0.857025
O O8 0.080244 0.000000 0.984445
O O9 0.750000 0.750000 0.134306
O O10 0.867842 0.780521 0.217406
O O11 0.500000 0.267128 0.196286
O O12 0.577824 0.171134 0.069531
O O13 0.914034 0.500000 0.079506
#
# Coordination Sequence:
#
# PCOD9369698 Si02
#       5
#    16  16  16  16  16
#     4  11  26  46  72 104 140 186 238 296 364 427
#     4   9  20  40  67  99 136 183 235 286 348 427
#     4  12  26  46  73 103 143 187 237 298 359 431
#     4  11  25  43  71 106 144 190 239 295 362 428
#     4  10  22  41  66  99 138 184 238 290 349 422
#
# _framework density 23.773496000000002
#
# number of rings (size 3 to 8) (size 9 to 14) (size 15 to 20)
#    0.000    1.400    2.000    1.800    5.600    2.800 
#    0.000    1.000    0.000    2.400    0.000    0.000 
#    0.000    0.000    0.000    0.000    0.000    0.000 
#
# Total GULP energy -111813.999070 kJ/mol
# GULP energy per Si atom -5590.699954 kJ/mol
# Density = 2.371939 g / cm^3
# Si number density = 23.773496 Si / 1000 Ang^3
#
#
#
# Elastic Constant Matrix: (Units=GPa)
#
#
# Indices 1 2 3 4 5 6 
#
# 1 129.1459 23.5014 5.9326 0.0000 0.0000 0.0000
# 2 23.5014 194.0041 35.4694 0.0000 0.0000 0.0000
# 3 5.9326 35.4694 51.6473 0.0000 0.0000 0.0000
# 4 0.0000 0.0000 0.0000 42.9899 0.0000 0.0000
# 5 0.0000 0.0000 0.0000 0.0000 16.4474 0.0000
# 6 0.0000 0.0000 0.0000 0.0000 0.0000 21.9932
#
#
#
# Elastic Compliance Matrix: (Units=1/GPa)
#
#
# Indices 1 2 3 4 5 6 
#
# 1 0.007921 -0.000907 -0.000287 0.000000 0.000000 0.000000
# 2 -0.000907 0.005999 -0.004015 0.000000 0.000000 0.000000
# 3 -0.000287 -0.004015 0.022153 0.000000 0.000000 0.000000
# 4 0.000000 0.000000 0.000000 0.023261 0.000000 0.000000
# 5 0.000000 0.000000 0.000000 0.000000 0.060800 0.000000
# 6 0.000000 0.000000 0.000000 0.000000 0.000000 0.045469
#
#
# Mechanical properties :
#
#
# Convention : Reuss Voigt Hill
#
# Bulk Modulus (GPa) = 38.98060 56.06710 47.52385
# Shear Modulus (GPa) = 27.08963 36.94569 32.01766
#
# Velocity S-wave (km/s) = 3.37929 3.94645 3.67383
# Velocity P-wave (km/s) = 5.62658 6.66341 6.16682
#
# Compressibility (1/GPa) = 0.02565379
#
# Stress axis : x y z
#
# Youngs Moduli (GPa) = 126.23968 166.70710 45.14127
#
# Poissons Ratio (x) = 0.15123 0.01295
# Poissons Ratio (y) = 0.11452 0.18126
# Poissons Ratio (z) = 0.03622 0.66939
#
# Static dielectric constant tensor:
#      x y z
#    x 1.980840 0.000000 0.000000 
#    y 0.000000 1.931790 0.000000 
#    z 0.000000 0.000000 1.845480 
# 
# From -- ./inp_files/10001.got.cif
#   From: 2010.05.17/outbox.cif.g08.bks.cpg/sg42_6_cif.got.tgz:10001.got - 2010.06.03 19:03:34.
