data_PCOD9369876
_publ_section_title
;
Structure prediction by ZEFSAII (Michael W. Deem and Ramdas Pophale) SiO2 
 PCOD9369876
Probable space group: F M M 2
;
_chemical_formula_sum "Si O2"
_cell_formula_units_Z 96
_cell_length_a 23.899282
_cell_length_b 23.692447
_cell_length_c 8.478272
_cell_angle_alpha 90.000000
_cell_angle_beta 90.000000
_cell_angle_gamma 90.000000
_cell_volume 4800.672914
_symmetry_space_group_name_H-M "F M M 2"
_symmetry_group_IT_number 42
_symmetry_cell_setting 'orthorhombic'
loop_
_space_group_symop_operation_xyz
x,y,z
-x,-y,z
-x,y,z
x,-y,z
x,1/2+y,1/2+z
-x,1/2-y,1/2+z
-x,1/2+y,1/2+z
x,1/2-y,1/2+z
1/2+x,y,1/2+z
1/2-x,-y,1/2+z
1/2-x,y,1/2+z
1/2+x,-y,1/2+z
1/2+x,1/2+y,z
1/2-x,1/2-y,z
1/2-x,1/2+y,z
1/2+x,1/2-y,z
loop_
_atom_site_type_symbol
_atom_site_label
_atom_site_fract_x
_atom_site_fract_y
_atom_site_fract_z
Si Si1 0.292134 0.935957 0.313350
Si Si2 0.500000 0.333985 0.834494
Si Si3 0.500000 0.217912 0.682252
Si Si4 0.809405 0.223278 0.878176
Si Si5 0.108461 0.827782 0.360088
Si Si6 0.696574 0.373452 0.131367
Si Si7 0.612962 0.631730 0.702930
O O1 0.304243 0.920009 0.494188
O O2 0.246551 0.892046 0.245909
O O3 0.349411 0.923630 0.221319
O O4 0.273006 0.000000 0.296589
O O5 0.500000 0.285191 0.700928
O O6 0.442337 0.367264 0.810128
O O7 0.500000 0.302799 0.002762
O O8 0.445472 0.195617 0.771858
O O9 0.750000 0.250000 0.826587
O O10 0.850679 0.275738 0.904208
O O11 0.845258 0.181942 0.763732
O O12 0.797947 0.185343 0.034137
O O13 0.142206 0.866890 0.238425
O O14 0.096140 0.858416 0.523346
#
# Coordination Sequence:
#
# PCOD9369876 Si02
#       7
#    16   8   8  16  16  16  16
#     4  11  23  43  66  91 122 165 218 280 331 377
#     4  12  24  42  59  91 126 171 217 261 302 388
#     4  12  24  38  60  89 130 177 216 243 310 374
#     4  11  22  36  56  88 128 168 202 249 306 387
#     4  12  23  38  60  92 129 170 207 254 310 394
#     4  11  24  39  60  93 128 165 213 261 322 385
#     4  11  23  39  62  88 122 162 210 261 321 373
#
# _framework density 19.997198000000001
#
# number of rings (size 3 to 8) (size 9 to 14) (size 15 to 20)
#    0.000    0.667    1.667    9.000    0.000    2.667 
#    0.000    1.250    0.000    0.000    0.000    4.083 
#    0.000    0.000    0.000    0.000    0.000    0.000 
#
# Total GULP energy -134193.533935 kJ/mol
# GULP energy per Si atom -5591.397247 kJ/mol
# Density = 1.995168 g / cm^3
# Si number density = 19.997198 Si / 1000 Ang^3
#
#
#
# Elastic Constant Matrix: (Units=GPa)
#
#
# Indices 1 2 3 4 5 6 
#
# 1 132.9585 26.0055 19.5733 0.0005 -0.0002 -0.0003
# 2 26.0055 33.7898 18.0087 0.0012 0.0001 -0.0007
# 3 19.5733 18.0087 94.9854 0.0023 0.0002 -0.0012
# 4 0.0005 0.0012 0.0023 17.0666 0.0005 -0.0013
# 5 -0.0002 0.0001 0.0002 0.0005 0.5179 -0.0001
# 6 -0.0003 -0.0007 -0.0012 -0.0013 -0.0001 18.0613
#
#
#
# Elastic Compliance Matrix: (Units=1/GPa)
#
#
# Indices 1 2 3 4 5 6 
#
# 1 0.008884 -0.006521 -0.000594 0.000000 0.000006 0.000000
# 2 -0.006521 0.037707 -0.005805 -0.000002 -0.000011 0.000001
# 3 -0.000594 -0.005805 0.011751 -0.000001 -0.000003 0.000001
# 4 0.000000 -0.000002 -0.000001 0.058594 -0.000059 0.000004
# 5 0.000006 -0.000011 -0.000003 -0.000059 1.930777 0.000015
# 6 0.000000 0.000001 0.000001 0.000004 0.000015 0.055367
#
#
# Mechanical properties :
#
#
# Convention : Reuss Voigt Hill
#
# Bulk Modulus (GPa) = 30.76781 43.21208 36.98995
# Shear Modulus (GPa) = 2.33672 20.33891 11.33781
#
# Velocity S-wave (km/s) = 1.08215 3.19264 2.38370
# Velocity P-wave (km/s) = 4.12079 5.93688 5.11016
#
# Compressibility (1/GPa) = 0.03250150
#
# Stress axis : x y z
#
# Youngs Moduli (GPa) = 112.56176 26.52017 85.09846
#
# Poissons Ratio (x) = 0.17293 0.05059
# Poissons Ratio (y) = 0.73396 0.49403
# Poissons Ratio (z) = 0.06691 0.15396
#
# Static dielectric constant tensor:
#      x y z
#    x 1.722710 0.000000 0.000000 
#    y 0.000000 1.696010 0.000000 
#    z 0.000000 0.000000 1.733830 
# 
# From -- ./inp_files/4757.got.cif
#   From: 2010.05.17/outbox.cif.g08.bks.cpg/sg42_3_cif.got.tgz:4757.got - 2010.06.03 19:03:34.
