data_PCOD9369459
_publ_section_title
;
Structure prediction by ZEFSAII (Michael W. Deem and Ramdas Pophale) SiO2 
 PCOD9369459
Probable space group: F M M 2
;
_chemical_formula_sum "Si O2"
_cell_formula_units_Z 112
_cell_length_a 12.984195
_cell_length_b 14.013868
_cell_length_c 28.417466
_cell_angle_alpha 90.000000
_cell_angle_beta 90.000000
_cell_angle_gamma 90.000000
_cell_volume 5170.807865
_symmetry_space_group_name_H-M "F M M 2"
_symmetry_group_IT_number 42
_symmetry_cell_setting 'orthorhombic'
loop_
_space_group_symop_operation_xyz
x,y,z
-x,-y,z
-x,y,z
x,-y,z
x,1/2+y,1/2+z
-x,1/2-y,1/2+z
-x,1/2+y,1/2+z
x,1/2-y,1/2+z
1/2+x,y,1/2+z
1/2-x,-y,1/2+z
1/2-x,y,1/2+z
1/2+x,-y,1/2+z
1/2+x,1/2+y,z
1/2-x,1/2-y,z
1/2-x,1/2+y,z
1/2+x,1/2-y,z
loop_
_atom_site_type_symbol
_atom_site_label
_atom_site_fract_x
_atom_site_fract_y
_atom_site_fract_z
Si Si1 0.875275 0.396188 0.237150
Si Si2 0.875116 0.803094 0.640404
Si Si3 0.874819 0.606313 0.687972
Si Si4 0.617964 0.233630 0.891392
Si Si5 0.375735 0.800272 0.785379
Si Si6 0.379079 0.885253 0.039511
Si Si7 0.258261 0.388713 0.447119
O O1 0.841056 0.500000 0.253255
O O2 0.845674 0.373054 0.183412
O O3 0.847730 0.306081 0.268535
O O4 0.000000 0.397290 0.237761
O O5 0.844852 0.695537 0.655075
O O6 0.847905 0.837600 0.588722
O O7 0.000000 0.804130 0.640937
O O8 0.843423 0.500000 0.673814
O O9 0.845286 0.629923 0.742337
O O10 0.000000 0.607178 0.687449
O O11 0.500000 0.263040 0.887386
O O12 0.654833 0.198804 0.839791
O O13 0.634958 0.138470 0.921628
O O14 0.677653 0.319412 0.919433
O O15 0.500000 0.808755 0.785928
O O16 0.500000 0.857061 0.028316
O O17 0.381240 0.000000 0.044904
O O18 0.290966 0.864682 0.000605
O O19 0.230859 0.500000 0.443466
#
# Coordination Sequence:
#
# PCOD9369459 Si02
#       7
#    16  16  16  16  16  16  16
#     4   8  12  19  34  62 101 138 173 216 266 329
#     4   8  13  21  37  65 103 145 184 223 275 339
#     4   8  13  22  38  67 109 150 188 229 270 326
#     4  10  21  38  59  83 115 155 197 242 295 352
#     4   8  15  26  42  69 104 144 187 227 274 335
#     4   9  16  28  49  77 110 149 191 237 293 353
#     4  10  22  38  57  85 116 147 194 253 301 344
#
# _framework density 21.660059
#
# number of rings (size 3 to 8) (size 9 to 14) (size 15 to 20)
#    0.000    3.286    0.000    2.571    0.000    4.000 
#    0.000    2.857    0.000    3.429    0.000   20.000 
#    0.000    0.000    0.000    5.143    0.000   52.286 
#
# Total GULP energy -156069.483670 kJ/mol
# GULP energy per Si atom -5573.910131 kJ/mol
# Density = 2.161076 g / cm^3
# Si number density = 21.660059 Si / 1000 Ang^3
#
#
#
# Elastic Constant Matrix: (Units=GPa)
#
#
# Indices 1 2 3 4 5 6 
#
# 1 53.1087 -4.3869 3.4874 0.0000 0.0000 0.0000
# 2 -4.3869 94.5325 35.3669 0.0000 0.0000 0.0000
# 3 3.4874 35.3669 141.9061 0.0000 0.0000 0.0000
# 4 0.0000 0.0000 0.0000 6.5484 0.0000 0.0000
# 5 0.0000 0.0000 0.0000 0.0000 30.3682 0.0000
# 6 0.0000 0.0000 0.0000 0.0000 0.0000 34.3926
#
#
#
# Elastic Compliance Matrix: (Units=1/GPa)
#
#
# Indices 1 2 3 4 5 6 
#
# 1 0.018975 0.001164 -0.000756 0.000000 0.000000 0.000000
# 2 0.001164 0.011737 -0.002954 0.000000 0.000000 0.000000
# 3 -0.000756 -0.002954 0.007802 0.000000 0.000000 0.000000
# 4 0.000000 0.000000 0.000000 0.152709 0.000000 0.000000
# 5 0.000000 0.000000 0.000000 0.000000 0.032929 0.000000
# 6 0.000000 0.000000 0.000000 0.000000 0.000000 0.029076
#
#
# Mechanical properties :
#
#
# Convention : Reuss Voigt Hill
#
# Bulk Modulus (GPa) = 29.92142 39.83135 34.87639
# Shear Modulus (GPa) = 18.55550 31.26717 24.91134
#
# Velocity S-wave (km/s) = 2.93007 3.80352 3.39500
# Velocity P-wave (km/s) = 5.02903 6.14152 5.61290
#
# Compressibility (1/GPa) = 0.03342087
#
# Stress axis : x y z
#
# Youngs Moduli (GPa) = 52.70074 85.19707 128.17727
#
# Poissons Ratio (x) = -0.09913 0.09694
# Poissons Ratio (y) = -0.06132 0.37862
# Poissons Ratio (z) = 0.03986 0.25166
#
# Static dielectric constant tensor:
#      x y z
#    x 1.958540 0.000000 0.000000 
#    y 0.000000 1.747270 0.000000 
#    z 0.000000 0.000000 1.774440 
# 
# From -- ./inp_files/32597.got.cif
#   From: 2010.05.17/outbox.cif.g08.bks.cpg/sg42_17_cif.got.tgz:32597.got - 2010.06.03 19:03:34.
