data_PCOD9369393
_publ_section_title
;
Structure prediction by ZEFSAII (Michael W. Deem and Ramdas Pophale) SiO2 
 PCOD9369393
Probable space group: F M M 2
;
_chemical_formula_sum "Si O2"
_cell_formula_units_Z 48
_cell_length_a 9.336443
_cell_length_b 17.548526
_cell_length_c 11.933933
_cell_angle_alpha 90.000000
_cell_angle_beta 90.000000
_cell_angle_gamma 90.000000
_cell_volume 1955.265282
_symmetry_space_group_name_H-M "F M M 2"
_symmetry_group_IT_number 42
_symmetry_cell_setting 'orthorhombic'
loop_
_space_group_symop_operation_xyz
x,y,z
-x,-y,z
-x,y,z
x,-y,z
x,1/2+y,1/2+z
-x,1/2-y,1/2+z
-x,1/2+y,1/2+z
x,1/2-y,1/2+z
1/2+x,y,1/2+z
1/2-x,-y,1/2+z
1/2-x,y,1/2+z
1/2+x,-y,1/2+z
1/2+x,1/2+y,z
1/2-x,1/2-y,z
1/2-x,1/2+y,z
1/2+x,1/2-y,z
loop_
_atom_site_type_symbol
_atom_site_label
_atom_site_fract_x
_atom_site_fract_y
_atom_site_fract_z
Si Si1 0.750000 0.250000 0.164140
Si Si2 0.500000 0.000000 0.637256
Si Si3 0.500000 0.772036 0.499121
Si Si4 0.281802 0.500000 0.485519
Si Si5 0.000000 0.893092 0.362039
Si Si6 0.500000 0.658940 0.784301
Si Si7 0.500000 0.500000 0.680947
O O1 0.646071 0.197560 0.238183
O O2 0.635123 0.282529 0.078304
O O3 0.371437 0.000000 0.545281
O O4 0.500000 0.072947 0.730984
O O5 0.500000 0.694438 0.417010
O O6 0.500000 0.839145 0.414469
O O7 0.353934 0.429620 0.415079
O O8 0.368720 0.500000 0.599814
O O9 0.500000 0.573838 0.750711
#
# Coordination Sequence:
#
# PCOD9369393 Si02
#       7
#     8   4   8   8   8   8   4
#     4  10  22  42  70 102 134 180 228 276 334 402
#     4  10  21  36  67 102 132 186 237 272 335 408
#     4  11  23  41  66 101 136 172 226 285 340 402
#     4   9  18  40  66  91 135 181 223 276 330 401
#     4   9  22  41  60  94 144 181 215 282 352 395
#     4  11  24  45  72  98 138 181 225 279 340 402
#     4  10  23  46  67  96 142 182 211 280 355 394
#
# _framework density 24.549099999999999
#
# number of rings (size 3 to 8) (size 9 to 14) (size 15 to 20)
#    0.000    2.333    0.000    5.000    0.000    8.000 
#    0.000   18.333    0.000    0.000    0.000    0.000 
#    0.000    0.000    0.000    0.000    0.000    0.000 
#
# Total GULP energy -66814.535178 kJ/mol
# GULP energy per Si atom -5567.877932 kJ/mol
# Density = 2.449323 g / cm^3
# Si number density = 24.549100 Si / 1000 Ang^3
#
#
#
# Elastic Constant Matrix: (Units=GPa)
#
#
# Indices 1 2 3 4 5 6 
#
# 1 248.2945 39.5257 85.2254 0.0000 0.0000 0.0000
# 2 39.5257 80.9668 23.4547 0.0000 0.0000 0.0000
# 3 85.2254 23.4547 131.8889 0.0000 0.0000 0.0000
# 4 0.0000 0.0000 0.0000 95.2682 0.0000 0.0000
# 5 0.0000 0.0000 0.0000 0.0000 1440.8101 0.0000
# 6 0.0000 0.0000 0.0000 0.0000 0.0000 -70.1416
#
#
#
# Elastic Compliance Matrix: (Units=1/GPa)
#
#
# Indices 1 2 3 4 5 6 
#
# 1 0.005391 -0.001711 -0.003179 0.000000 0.000000 0.000000
# 2 -0.001711 0.013564 -0.001307 0.000000 0.000000 0.000000
# 3 -0.003179 -0.001307 0.009869 0.000000 0.000000 0.000000
# 4 0.000000 0.000000 0.000000 0.010497 0.000000 0.000000
# 5 0.000000 0.000000 0.000000 0.000000 0.000694 0.000000
# 6 0.000000 0.000000 0.000000 0.000000 0.000000 -0.014257
#
#
# Mechanical properties :
#
#
# Convention : Reuss Voigt Hill
#
# Bulk Modulus (GPa) = 60.86190 84.17353 72.51771
# Shear Modulus (GPa) = 114.60163 314.05031 214.32597
#
# Velocity S-wave (km/s) = 6.83988 11.32277 9.35385
# Velocity P-wave (km/s) = 9.33940 14.32838 12.09394
#
# Compressibility (1/GPa) = 0.01643064
#
# Stress axis : x y z
#
# Youngs Moduli (GPa) = 185.48945 73.72220 101.32663
#
# Poissons Ratio (x) = 0.12612 0.32217
# Poissons Ratio (y) = 0.31733 0.13241
# Poissons Ratio (z) = 0.58976 0.09634
#
# Static dielectric constant tensor:
#      x y z
#    x 1.550350 0.000000 0.000000 
#    y 0.000000 2.018110 0.000000 
#    z 0.000000 0.000000 1.906770 
# 
# From -- ./inp_files/11654.got.cif
#   From: 2010.05.17/outbox.cif.g08.bks.cpg/sg42_6_cif.got.tgz:11654.got - 2010.06.03 19:03:34.
