data_PCOD9369574
_publ_section_title
;
Structure prediction by ZEFSAII (Michael W. Deem and Ramdas Pophale) SiO2 
 PCOD9369574
Probable space group: F M M 2
;
_chemical_formula_sum "Si O2"
_cell_formula_units_Z 96
_cell_length_a 15.320158
_cell_length_b 15.743973
_cell_length_c 17.195072
_cell_angle_alpha 90.000000
_cell_angle_beta 90.000000
_cell_angle_gamma 90.000000
_cell_volume 4147.454013
_symmetry_space_group_name_H-M "F M M 2"
_symmetry_group_IT_number 42
_symmetry_cell_setting 'orthorhombic'
loop_
_space_group_symop_operation_xyz
x,y,z
-x,-y,z
-x,y,z
x,-y,z
x,1/2+y,1/2+z
-x,1/2-y,1/2+z
-x,1/2+y,1/2+z
x,1/2-y,1/2+z
1/2+x,y,1/2+z
1/2-x,-y,1/2+z
1/2-x,y,1/2+z
1/2+x,-y,1/2+z
1/2+x,1/2+y,z
1/2-x,1/2-y,z
1/2-x,1/2+y,z
1/2+x,1/2-y,z
loop_
_atom_site_type_symbol
_atom_site_label
_atom_site_fract_x
_atom_site_fract_y
_atom_site_fract_z
Si Si1 0.143389 0.401281 0.582100
Si Si2 0.347642 0.600011 0.535671
Si Si3 0.902726 0.101042 0.260620
Si Si4 0.769872 0.163021 0.817609
Si Si5 0.908719 0.600015 0.202420
Si Si6 0.900386 0.770145 0.950839
O O1 0.113439 0.500000 0.571876
O O2 0.245410 0.400410 0.558244
O O3 0.127001 0.377467 0.672224
O O4 0.100698 0.333383 0.524798
O O5 0.370276 0.500000 0.515996
O O6 0.393185 0.630369 0.615451
O O7 0.371829 0.675141 0.476382
O O8 0.825712 0.122719 0.320891
O O9 0.000000 0.136134 0.276032
O O10 0.909092 0.000000 0.261662
O O11 0.750000 0.250000 0.773333
O O12 0.831263 0.110922 0.761846
O O13 0.828054 0.190243 0.891728
O O14 0.915272 0.500000 0.192150
O O15 0.000000 0.635101 0.233920
O O16 0.000000 0.768785 0.920445
#
# Coordination Sequence:
#
# PCOD9369574 Si02
#       6
#    16  16  16  16  16  16
#     4  10  21  41  70 107 147 189 240 295 361 437
#     4  10  21  42  73 106 141 189 248 303 359 424
#     4  10  22  43  72 104 139 187 247 304 360 432
#     4  12  26  43  64  98 142 187 233 287 360 438
#     4  10  21  40  69 102 136 178 232 293 352 419
#     4  12  27  45  69 106 151 196 242 298 367 439
#
# _framework density 23.146730999999999
#
# number of rings (size 3 to 8) (size 9 to 14) (size 15 to 20)
#    0.000    1.333    1.667    3.500    2.333    4.667 
#    0.000    1.667    0.000    0.000    0.000    0.000 
#    0.000    0.000    0.000    0.000    0.000    0.000 
#
# Total GULP energy -133972.191227 kJ/mol
# GULP energy per Si atom -5582.174634 kJ/mol
# Density = 2.309405 g / cm^3
# Si number density = 23.146731 Si / 1000 Ang^3
#
#
#
# Elastic Constant Matrix: (Units=GPa)
#
#
# Indices 1 2 3 4 5 6 
#
# 1 192.6595 41.2748 73.6276 0.0000 0.0000 0.0000
# 2 41.2748 82.0971 67.7614 0.0000 0.0000 0.0000
# 3 73.6276 67.7614 137.4147 0.0000 0.0000 0.0000
# 4 0.0000 0.0000 0.0000 41.5461 0.0000 0.0000
# 5 0.0000 0.0000 0.0000 0.0000 -39.9033 0.0000
# 6 0.0000 0.0000 0.0000 0.0000 0.0000 -26.7266
#
#
#
# Elastic Compliance Matrix: (Units=1/GPa)
#
#
# Indices 1 2 3 4 5 6 
#
# 1 0.006549 -0.000668 -0.003179 0.000000 0.000000 0.000000
# 2 -0.000668 0.020609 -0.009805 0.000000 0.000000 0.000000
# 3 -0.003179 -0.009805 0.013816 0.000000 0.000000 0.000000
# 4 0.000000 0.000000 0.000000 0.024070 0.000000 0.000000
# 5 0.000000 0.000000 0.000000 0.000000 -0.025061 0.000000
# 6 0.000000 0.000000 0.000000 0.000000 0.000000 -0.037416
#
#
# Mechanical properties :
#
#
# Convention : Reuss Voigt Hill
#
# Bulk Modulus (GPa) = 73.15806 86.38877 79.77342
# Shear Modulus (GPa) = 145.23166 10.28373 77.75770
#
# Velocity S-wave (km/s) = 7.92970 2.11009 5.80227
# Velocity P-wave (km/s) = 10.74779 6.58331 8.91221
#
# Compressibility (1/GPa) = 0.01366903
#
# Stress axis : x y z
#
# Youngs Moduli (GPa) = 152.70249 48.52170 72.38190
#
# Poissons Ratio (x) = 0.03242 0.23012
# Poissons Ratio (y) = 0.10204 0.70969
# Poissons Ratio (z) = 0.48549 0.47574
#
# Static dielectric constant tensor:
#      x y z
#    x 2.005010 0.000000 0.000000 
#    y 0.000000 1.891410 0.000000 
#    z 0.000000 0.000000 1.856720 
# 
# From -- ./inp_files/25101.got.cif
#   From: 2010.05.17/outbox.cif.g08.bks.cpg/sg42_13_cif.got.tgz:25101.got - 2010.06.03 19:03:34.
