data_PCOD9369983
_publ_section_title
;
Structure prediction by ZEFSAII (Michael W. Deem and Ramdas Pophale) SiO2 
 PCOD9369983
Probable space group: F M M 2
;
_chemical_formula_sum "Si O2"
_cell_formula_units_Z 68
_cell_length_a 18.367970
_cell_length_b 17.250815
_cell_length_c 9.430004
_cell_angle_alpha 90.000000
_cell_angle_beta 90.000000
_cell_angle_gamma 90.000000
_cell_volume 2988.014194
_symmetry_space_group_name_H-M "F M M 2"
_symmetry_group_IT_number 42
_symmetry_cell_setting 'orthorhombic'
loop_
_space_group_symop_operation_xyz
x,y,z
-x,-y,z
-x,y,z
x,-y,z
x,1/2+y,1/2+z
-x,1/2-y,1/2+z
-x,1/2+y,1/2+z
x,1/2-y,1/2+z
1/2+x,y,1/2+z
1/2-x,-y,1/2+z
1/2-x,y,1/2+z
1/2+x,-y,1/2+z
1/2+x,1/2+y,z
1/2-x,1/2-y,z
1/2-x,1/2+y,z
1/2+x,1/2-y,z
loop_
_atom_site_type_symbol
_atom_site_label
_atom_site_fract_x
_atom_site_fract_y
_atom_site_fract_z
Si Si1 0.787392 0.166123 0.095980
Si Si2 0.917463 0.189725 0.322304
Si Si3 0.859779 0.086369 0.578383
Si Si4 0.397510 0.870091 0.378847
Si Si5 0.500000 0.000000 0.490708
O O1 0.750000 0.250000 0.089318
O O2 0.855977 0.174171 0.202626
O O3 0.722044 0.107531 0.126439
O O4 0.817612 0.140663 0.943623
O O5 0.890262 0.145053 0.461994
O O6 0.921264 0.280754 0.361308
O O7 0.000000 0.165166 0.282478
O O8 0.904431 0.094017 0.723112
O O9 0.863706 0.000000 0.520459
O O10 0.438086 0.930634 0.479173
#
# Coordination Sequence:
#
# PCOD9369983 Si02
#       5
#    16  16  16  16   4
#     4  12  26  47  78 112 152 204 266 324 388 470
#     4  12  27  47  78 114 156 205 261 321 399 469
#     4  12  28  48  76 112 156 205 260 326 392 466
#     4  12  25  46  75 107 150 206 257 314 391 467
#     4  12  28  44  72 114 166 196 270 326 396 460
#
# _framework density 22.75759
#
# number of rings (size 3 to 8) (size 9 to 14) (size 15 to 20)
#    0.000    0.000    7.059    1.412    4.941    5.176 
#    0.000    0.000    0.000    0.000    0.000    0.000 
#    0.000    0.000    0.000    0.000    0.000    0.000 
#
# Total GULP energy -94776.155533 kJ/mol
# GULP energy per Si atom -5575.067973 kJ/mol
# Density = 2.270579 g / cm^3
# Si number density = 22.757590 Si / 1000 Ang^3
#
#
#
# Elastic Constant Matrix: (Units=GPa)
#
#
# Indices 1 2 3 4 5 6 
#
# 1 125.9590 41.7522 21.6618 0.0000 0.0000 0.0000
# 2 41.7522 142.3041 32.8589 0.0000 0.0000 0.0000
# 3 21.6618 32.8589 62.8119 0.0000 0.0000 0.0000
# 4 0.0000 0.0000 0.0000 22.5189 0.0000 0.0000
# 5 0.0000 0.0000 0.0000 0.0000 -127.7463 0.0000
# 6 0.0000 0.0000 0.0000 0.0000 0.0000 130.5754
#
#
#
# Elastic Compliance Matrix: (Units=1/GPa)
#
#
# Indices 1 2 3 4 5 6 
#
# 1 0.009002 -0.002189 -0.001959 0.000000 0.000000 0.000000
# 2 -0.002189 0.008525 -0.003705 0.000000 0.000000 0.000000
# 3 -0.001959 -0.003705 0.018534 0.000000 0.000000 0.000000
# 4 0.000000 0.000000 0.000000 0.044407 0.000000 0.000000
# 5 0.000000 0.000000 0.000000 0.000000 -0.007828 0.000000
# 6 0.000000 0.000000 0.000000 0.000000 0.000000 0.007658
#
#
# Mechanical properties :
#
#
# Convention : Reuss Voigt Hill
#
# Bulk Modulus (GPa) = 49.12784 58.18008 53.65396
# Shear Modulus (GPa) = 48.64337 20.72309 34.68323
#
# Velocity S-wave (km/s) = 4.62828 3.02089 3.90812
# Velocity P-wave (km/s) = 7.08489 6.14722 6.63264
#
# Compressibility (1/GPa) = 0.02035506
#
# Stress axis : x y z
#
# Youngs Moduli (GPa) = 111.09220 117.30460 53.95381
#
# Poissons Ratio (x) = 0.25674 0.10572
# Poissons Ratio (y) = 0.24314 0.19989
# Poissons Ratio (z) = 0.21767 0.43459
#
# Static dielectric constant tensor:
#      x y z
#    x 1.919810 0.000000 0.000000 
#    y 0.000000 1.800250 0.000000 
#    z 0.000000 0.000000 1.885120 
# 
# From -- ./inp_files/3282.got.cif
#   From: 2010.05.17/outbox.cif.g08.bks.cpg/sg42_2_cif.got.tgz:3282.got - 2010.06.03 19:03:34.
