data_PCOD9369661
_publ_section_title
;
Structure prediction by ZEFSAII (Michael W. Deem and Ramdas Pophale) SiO2 
 PCOD9369661
Probable space group: F M M 2
;
_chemical_formula_sum "Si O2"
_cell_formula_units_Z 88
_cell_length_a 10.999360
_cell_length_b 14.124297
_cell_length_c 27.345377
_cell_angle_alpha 90.000000
_cell_angle_beta 90.000000
_cell_angle_gamma 90.000000
_cell_volume 4248.329300
_symmetry_space_group_name_H-M "F M M 2"
_symmetry_group_IT_number 42
_symmetry_cell_setting 'orthorhombic'
loop_
_space_group_symop_operation_xyz
x,y,z
-x,-y,z
-x,y,z
x,-y,z
x,1/2+y,1/2+z
-x,1/2-y,1/2+z
-x,1/2+y,1/2+z
x,1/2-y,1/2+z
1/2+x,y,1/2+z
1/2-x,-y,1/2+z
1/2-x,y,1/2+z
1/2+x,-y,1/2+z
1/2+x,1/2+y,z
1/2-x,1/2-y,z
1/2-x,1/2+y,z
1/2+x,1/2-y,z
loop_
_atom_site_type_symbol
_atom_site_label
_atom_site_fract_x
_atom_site_fract_y
_atom_site_fract_z
Si Si1 0.138808 0.612274 0.915000
Si Si2 0.750000 0.250000 0.992401
Si Si3 0.364358 0.613509 0.843319
Si Si4 0.867701 0.351134 0.232449
Si Si5 0.863644 0.145907 0.182148
Si Si6 0.355061 0.606301 0.070531
O O1 0.151866 0.500000 0.928961
O O2 0.161979 0.686222 0.958642
O O3 0.248036 0.633086 0.876945
O O4 0.000000 0.623054 0.896229
O O5 0.685921 0.324378 0.028114
O O6 0.500000 0.635810 0.864343
O O7 0.363105 0.500000 0.834435
O O8 0.355136 0.662034 0.790569
O O9 0.872769 0.251683 0.203783
O O10 0.746328 0.398990 0.212396
O O11 0.000000 0.396530 0.224636
O O12 0.827848 0.142890 0.125186
O O13 0.000000 0.105286 0.186652
O O14 0.500000 0.600580 0.068049
O O15 0.304433 0.500000 0.064772
#
# Coordination Sequence:
#
# PCOD9369661 Si02
#       6
#    16   8  16  16  16  16
#     4  10  23  42  62  89 124 157 197 254 312 362
#     4  12  22  38  64  90 116 154 202 250 308 366
#     4   9  19  36  57  82 116 159 204 246 292 356
#     4   9  17  31  52  80 113 149 192 239 285 338
#     4   9  18  33  53  78 110 149 193 239 286 341
#     4  10  22  40  61  87 120 158 201 247 297 361
#
# _framework density 20.714023999999998
#
# number of rings (size 3 to 8) (size 9 to 14) (size 15 to 20)
#    0.000    2.364    0.000    2.182    0.000    4.364 
#    0.000    6.364    0.000    2.182    0.000    0.000 
#    0.000    0.000    0.000    0.000    0.000    0.000 
#
# Total GULP energy -122635.734392 kJ/mol
# GULP energy per Si atom -5574.351563 kJ/mol
# Density = 2.066688 g / cm^3
# Si number density = 20.714024 Si / 1000 Ang^3
#
#
#
# Elastic Constant Matrix: (Units=GPa)
#
#
# Indices 1 2 3 4 5 6 
#
# 1 184.5115 28.7923 74.1656 0.0000 0.0000 0.0000
# 2 28.7923 135.9917 57.6024 0.0000 0.0000 0.0000
# 3 74.1656 57.6024 117.6513 0.0000 0.0000 0.0000
# 4 0.0000 0.0000 0.0000 261.9588 0.0000 0.0000
# 5 0.0000 0.0000 0.0000 0.0000 82.0038 0.0000
# 6 0.0000 0.0000 0.0000 0.0000 0.0000 2.0503
#
#
#
# Elastic Compliance Matrix: (Units=1/GPa)
#
#
# Indices 1 2 3 4 5 6 
#
# 1 0.007287 0.000508 -0.004842 0.000000 0.000000 0.000000
# 2 0.000508 0.009313 -0.004880 0.000000 0.000000 0.000000
# 3 -0.004842 -0.004880 0.013942 0.000000 0.000000 0.000000
# 4 0.000000 0.000000 0.000000 0.003817 0.000000 0.000000
# 5 0.000000 0.000000 0.000000 0.000000 0.012195 0.000000
# 6 0.000000 0.000000 0.000000 0.000000 0.000000 0.487735
#
#
# Mechanical properties :
#
#
# Convention : Reuss Voigt Hill
#
# Bulk Modulus (GPa) = 82.55583 84.36391 83.45987
# Shear Modulus (GPa) = 8.98063 87.70884 48.34474
#
# Velocity S-wave (km/s) = 2.08445 6.51419 4.83630
# Velocity P-wave (km/s) = 6.76275 9.86893 8.45963
#
# Compressibility (1/GPa) = 0.01211301
#
# Stress axis : x y z
#
# Youngs Moduli (GPa) = 137.23405 107.37895 71.72812
#
# Poissons Ratio (x) = -0.05458 0.34734
# Poissons Ratio (y) = -0.06976 0.35003
# Poissons Ratio (z) = 0.66454 0.52401
#
# Static dielectric constant tensor:
#      x y z
#    x 1.783060 0.000000 0.000000 
#    y 0.000000 1.752510 0.000000 
#    z 0.000000 0.000000 1.705770 
# 
# From -- ./inp_files/28719.got.cif
#   From: 2010.05.17/outbox.cif.g08.bks.cpg/sg42_15_cif.got.tgz:28719.got - 2010.06.03 19:03:34.
