data_PCOD9369288
_publ_section_title
;
Structure prediction by ZEFSAII (Michael W. Deem and Ramdas Pophale) SiO2 
 PCOD9369288
Probable space group: F M M 2
;
_chemical_formula_sum "Si O2"
_cell_formula_units_Z 72
_cell_length_a 9.772184
_cell_length_b 27.313674
_cell_length_c 14.283489
_cell_angle_alpha 90.000000
_cell_angle_beta 90.000000
_cell_angle_gamma 90.000000
_cell_volume 3812.466726
_symmetry_space_group_name_H-M "F M M 2"
_symmetry_group_IT_number 42
_symmetry_cell_setting 'orthorhombic'
loop_
_space_group_symop_operation_xyz
x,y,z
-x,-y,z
-x,y,z
x,-y,z
x,1/2+y,1/2+z
-x,1/2-y,1/2+z
-x,1/2+y,1/2+z
x,1/2-y,1/2+z
1/2+x,y,1/2+z
1/2-x,-y,1/2+z
1/2-x,y,1/2+z
1/2+x,-y,1/2+z
1/2+x,1/2+y,z
1/2-x,1/2-y,z
1/2-x,1/2+y,z
1/2+x,1/2-y,z
loop_
_atom_site_type_symbol
_atom_site_label
_atom_site_fract_x
_atom_site_fract_y
_atom_site_fract_z
Si Si1 0.000000 0.151315 0.694668
Si Si2 0.500000 0.143153 0.786073
Si Si3 0.750000 0.250000 0.041223
Si Si4 0.000000 0.179861 0.485106
Si Si5 0.163068 0.500000 0.098382
Si Si6 0.000000 0.266263 0.670968
Si Si7 0.165623 0.500000 0.876524
Si Si8 0.744004 0.917246 0.238913
O O1 0.875227 0.122276 0.738676
O O2 0.000000 0.148807 0.581209
O O3 0.000000 0.209921 0.704716
O O4 0.500000 0.199589 0.759512
O O5 0.624624 0.115965 0.739645
O O6 0.500000 0.143358 0.898084
O O7 0.858377 0.286738 0.987871
O O8 0.862904 0.224366 0.109087
O O9 0.224682 0.452680 0.150077
O O10 0.000000 0.500000 0.117253
O O11 0.183987 0.500000 0.987615
O O12 0.236401 0.546642 0.827339
O O13 0.000000 0.500000 0.856464
#
# Coordination Sequence:
#
# PCOD9369288 Si02
#       8
#     8   8   8   8   8   8   8  16
#     4  10  22  41  65  87 128 172 216 251 318 373
#     4  12  24  37  63  91 134 164 210 261 310 379
#     4   8  18  40  60  82 118 168 220 250 304 362
#     4  10  22  36  64  89 122 168 218 253 306 364
#     4  10  22  43  74  85 124 167 205 266 328 380
#     4  10  20  40  60  88 128 172 204 264 310 366
#     4  10  22  43  66  97 122 161 213 264 324 386
#     4  11  23  39  65  97 123 163 213 262 315 386
#
# _framework density 18.88541
#
# number of rings (size 3 to 8) (size 9 to 14) (size 15 to 20)
#    0.000    2.000    2.222    2.667    3.111    2.667 
#    0.000    3.333    0.000    0.000    0.000    0.000 
#    0.000    0.000    0.000    0.000    0.000    0.000 
#
# Total GULP energy -100241.012807 kJ/mol
# GULP energy per Si atom -5568.945156 kJ/mol
# Density = 1.884243 g / cm^3
# Si number density = 18.885410 Si / 1000 Ang^3
#
#
#
# Elastic Constant Matrix: (Units=GPa)
#
#
# Indices 1 2 3 4 5 6 
#
# 1 176.6278 62.3568 48.8256 0.0000 0.0000 0.0000
# 2 62.3568 122.0793 49.1800 0.0000 0.0000 0.0000
# 3 48.8256 49.1800 93.9681 0.0000 0.0000 0.0000
# 4 0.0000 0.0000 0.0000 -6.5981 0.0000 0.0000
# 5 0.0000 0.0000 0.0000 0.0000 22.2048 0.0000
# 6 0.0000 0.0000 0.0000 0.0000 0.0000 -32.7689
#
#
#
# Elastic Compliance Matrix: (Units=1/GPa)
#
#
# Indices 1 2 3 4 5 6 
#
# 1 0.007289 -0.002784 -0.002330 0.000000 0.000000 0.000000
# 2 -0.002784 0.011444 -0.004542 0.000000 0.000000 0.000000
# 3 -0.002330 -0.004542 0.014230 0.000000 0.000000 0.000000
# 4 0.000000 0.000000 0.000000 -0.151558 0.000000 0.000000
# 5 0.000000 0.000000 0.000000 0.000000 0.045035 0.000000
# 6 0.000000 0.000000 0.000000 0.000000 0.000000 -0.030517
#
#
# Mechanical properties :
#
#
# Convention : Reuss Voigt Hill
#
# Bulk Modulus (GPa) = 73.26729 79.26667 76.26698
# Shear Modulus (GPa) = -62.33319 12.05508 -25.13906
#
# Velocity S-wave (km/s) = -5.75132 2.52926 -3.65243
# Velocity P-wave (km/s) = 2.28552 7.11288 4.76285
#
# Compressibility (1/GPa) = 0.01364866
#
# Stress axis : x y z
#
# Youngs Moduli (GPa) = 137.19897 87.38544 70.27447
#
# Poissons Ratio (x) = 0.24331 0.16374
# Poissons Ratio (y) = 0.38201 0.31922
# Poissons Ratio (z) = 0.31967 0.39694
#
# Static dielectric constant tensor:
#      x y z
#    x 1.639660 0.000000 0.000000 
#    y 0.000000 1.684910 0.000000 
#    z 0.000000 0.000000 1.642490 
# 
# From -- ./inp_files/12212.got.cif
#   From: 2010.05.17/outbox.cif.g08.bks.cpg/sg42_7_cif.got.tgz:12212.got - 2010.06.03 19:03:34.
