data_PCOD9369692
_publ_section_title
;
Structure prediction by ZEFSAII (Michael W. Deem and Ramdas Pophale) SiO2 
 PCOD9369692
Probable space group: F M M 2
;
_chemical_formula_sum "Si O2"
_cell_formula_units_Z 88
_cell_length_a 22.943750
_cell_length_b 22.943910
_cell_length_c 7.342423
_cell_angle_alpha 90.000000
_cell_angle_beta 90.000000
_cell_angle_gamma 90.000000
_cell_volume 3865.193433
_symmetry_space_group_name_H-M "F M M 2"
_symmetry_group_IT_number 42
_symmetry_cell_setting 'orthorhombic'
loop_
_space_group_symop_operation_xyz
x,y,z
-x,-y,z
-x,y,z
x,-y,z
x,1/2+y,1/2+z
-x,1/2-y,1/2+z
-x,1/2+y,1/2+z
x,1/2-y,1/2+z
1/2+x,y,1/2+z
1/2-x,-y,1/2+z
1/2-x,y,1/2+z
1/2+x,-y,1/2+z
1/2+x,1/2+y,z
1/2-x,1/2-y,z
1/2-x,1/2+y,z
1/2+x,1/2-y,z
loop_
_atom_site_type_symbol
_atom_site_label
_atom_site_fract_x
_atom_site_fract_y
_atom_site_fract_z
Si Si1 0.120482 0.379518 0.488710
Si Si2 0.000000 0.343943 0.586644
Si Si3 0.750000 0.750000 0.238702
Si Si4 0.774519 0.000000 0.274683
Si Si5 0.156054 0.000000 0.890772
Si Si6 0.302913 0.630446 0.339129
Si Si7 0.000000 0.725475 0.202719
Si Si8 0.869553 0.197083 0.638282
O O1 0.122076 0.440337 0.383186
O O2 0.170319 0.373318 0.637955
O O3 0.126682 0.329682 0.339459
O O4 0.059664 0.377920 0.594241
O O5 0.000000 0.294214 0.736986
O O6 0.000000 0.313183 0.385322
O O7 0.741855 0.685708 0.332752
O O8 0.814293 0.741854 0.144656
O O9 0.705779 0.000000 0.240413
O O10 0.782737 0.063670 0.371138
O O11 0.813180 0.000000 0.092085
O O12 0.349835 0.650160 0.488710
O O13 0.936330 0.717255 0.106261
#
# Coordination Sequence:
#
# PCOD9369692 Si02
#       8
#    16   8   8   8   8  16   8  16
#     4  10  24  42  64  96 128 174 220 278 335 405
#     4  10  22  41  64  91 129 170 224 271 338 405
#     4  12  26  40  66 102 136 174 222 292 342 398
#     4  10  24  42  64  93 131 183 218 271 352 407
#     4  10  22  41  64  91 129 170 224 271 338 405
#     4  11  26  42  66  99 135 174 226 281 343 407
#     4  10  24  42  64  93 131 183 218 271 352 407
#     4  11  26  42  66  99 135 174 226 281 343 407
#
# _framework density 22.767295000000001
#
# number of rings (size 3 to 8) (size 9 to 14) (size 15 to 20)
#    0.000    1.455    0.000    2.727   20.364    0.364 
#    0.000    0.000    0.000    2.727    0.000    0.000 
#    0.000    0.000    0.000    0.000    0.000    0.000 
#
# Total GULP energy -122686.274610 kJ/mol
# GULP energy per Si atom -5576.648846 kJ/mol
# Density = 2.271548 g / cm^3
# Si number density = 22.767295 Si / 1000 Ang^3
#
#
#
# Elastic Constant Matrix: (Units=GPa)
#
#
# Indices 1 2 3 4 5 6 
#
# 1 138.5700 73.2055 20.1790 -0.0039 -0.0024 0.0018
# 2 73.2055 138.5832 20.1836 -0.0064 0.0056 0.0022
# 3 20.1790 20.1836 59.5388 -0.0051 0.0003 0.0023
# 4 -0.0039 -0.0064 -0.0051 15.2465 0.0005 0.0030
# 5 -0.0024 0.0056 0.0003 0.0005 15.2436 -0.0013
# 6 0.0018 0.0022 0.0023 0.0030 -0.0013 28.6337
#
#
#
# Elastic Compliance Matrix: (Units=1/GPa)
#
#
# Indices 1 2 3 4 5 6 
#
# 1 0.010173 -0.005125 -0.001711 0.000000 0.000003 0.000000
# 2 -0.005125 0.010172 -0.001712 0.000002 -0.000004 0.000000
# 3 -0.001711 -0.001712 0.017956 0.000005 0.000000 -0.000001
# 4 0.000000 0.000002 0.000005 0.065589 -0.000002 -0.000007
# 5 0.000003 -0.000004 0.000000 -0.000002 0.065601 0.000003
# 6 0.000000 0.000000 -0.000001 -0.000007 0.000003 0.034924
#
#
# Mechanical properties :
#
#
# Convention : Reuss Voigt Hill
#
# Bulk Modulus (GPa) = 47.15334 62.64757 54.90046
# Shear Modulus (GPa) = 21.87438 26.69967 24.28703
#
# Velocity S-wave (km/s) = 3.10301 3.42822 3.26966
# Velocity P-wave (km/s) = 5.79605 6.57620 6.19841
#
# Compressibility (1/GPa) = 0.02120741
#
# Stress axis : x y z
#
# Youngs Moduli (GPa) = 98.29937 98.30687 55.69250
#
# Poissons Ratio (x) = 0.50379 0.09527
# Poissons Ratio (y) = 0.50375 0.09532
# Poissons Ratio (z) = 0.16815 0.16825
#
# Static dielectric constant tensor:
#      x y z
#    x 1.870400 0.000000 0.000010 
#    y 0.000000 1.870370 -0.000010 
#    z 0.000010 -0.000010 2.081580 
# 
# From -- ./inp_files/4672.got.cif
#   From: 2010.05.17/outbox.cif.g08.bks.cpg/sg42_3_cif.got.tgz:4672.got - 2010.06.03 19:03:34.
