data_PCOD9369723
_publ_section_title
;
Structure prediction by ZEFSAII (Michael W. Deem and Ramdas Pophale) SiO2 
 PCOD9369723
Probable space group: F M M 2
;
_chemical_formula_sum "Si O2"
_cell_formula_units_Z 72
_cell_length_a 17.375331
_cell_length_b 30.159829
_cell_length_c 5.293098
_cell_angle_alpha 90.000000
_cell_angle_beta 90.000000
_cell_angle_gamma 90.000000
_cell_volume 2773.779259
_symmetry_space_group_name_H-M "F M M 2"
_symmetry_group_IT_number 42
_symmetry_cell_setting 'orthorhombic'
loop_
_space_group_symop_operation_xyz
x,y,z
-x,-y,z
-x,y,z
x,-y,z
x,1/2+y,1/2+z
-x,1/2-y,1/2+z
-x,1/2+y,1/2+z
x,1/2-y,1/2+z
1/2+x,y,1/2+z
1/2-x,-y,1/2+z
1/2-x,y,1/2+z
1/2+x,-y,1/2+z
1/2+x,1/2+y,z
1/2-x,1/2-y,z
1/2-x,1/2+y,z
1/2+x,1/2-y,z
loop_
_atom_site_type_symbol
_atom_site_label
_atom_site_fract_x
_atom_site_fract_y
_atom_site_fract_z
Si Si1 0.091030 0.185075 0.383150
Si Si2 0.909658 0.415371 0.723611
Si Si3 0.290353 0.888919 0.373286
Si Si4 0.195160 0.000000 0.324443
Si Si5 0.182272 0.211700 0.881780
O O1 0.103080 0.131760 0.369087
O O2 0.127998 0.205935 0.634583
O O3 0.129597 0.206169 0.132791
O O4 0.000000 0.193212 0.379376
O O5 0.757065 0.405635 0.114335
O O6 0.876483 0.402899 0.444346
O O7 0.000000 0.423942 0.719171
O O8 0.277261 0.836249 0.375258
O O9 0.252107 0.000000 0.567860
O O10 0.136995 0.957868 0.318141
O O11 0.250000 0.250000 0.884497
#
# Coordination Sequence:
#
# PCOD9369723 Si02
#       5
#    16  16  16   8  16
#     4  10  22  42  72 110 155 205 258 323 398 468
#     4  10  23  46  76 112 153 202 256 313 383 462
#     4  11  23  42  68 101 141 188 241 301 369 444
#     4  12  27  48  75 114 160 202 248 314 379 454
#     4  11  23  41  70 110 147 197 261 325 389 467
#
# _framework density 25.957363000000001
#
# number of rings (size 3 to 8) (size 9 to 14) (size 15 to 20)
#    0.000    1.333    0.000    5.667    0.000    5.333 
#    0.000   10.000    0.000    8.000    0.000   49.778 
#    0.000    0.000    0.000    0.000    0.000    0.000 
#
# Total GULP energy -100727.271744 kJ/mol
# GULP energy per Si atom -5595.959541 kJ/mol
# Density = 2.589828 g / cm^3
# Si number density = 25.957363 Si / 1000 Ang^3
#
#
#
# Elastic Constant Matrix: (Units=GPa)
#
#
# Indices 1 2 3 4 5 6 
#
# 1 261.2876 122.5539 126.8818 0.0068 0.0249 -0.0007
# 2 122.5539 256.2625 64.0111 -0.0058 -0.0018 -0.0011
# 3 126.8818 64.0111 243.6578 0.0423 0.0059 -0.0016
# 4 0.0068 -0.0058 0.0423 162.8909 -0.0345 0.0045
# 5 0.0249 -0.0018 0.0059 -0.0345 43.0644 0.0029
# 6 -0.0007 -0.0011 -0.0016 0.0045 0.0029 61.7864
#
#
#
# Elastic Compliance Matrix: (Units=1/GPa)
#
#
# Indices 1 2 3 4 5 6 
#
# 1 0.006174 -0.002301 -0.002611 0.000000 -0.000003 0.000000
# 2 -0.002301 0.005034 -0.000124 0.000000 0.000002 0.000000
# 3 -0.002611 -0.000124 0.005496 -0.000001 0.000001 0.000000
# 4 0.000000 0.000000 -0.000001 0.006139 0.000005 0.000000
# 5 -0.000003 0.000002 0.000001 0.000005 0.023221 -0.000001
# 6 0.000000 0.000000 0.000000 0.000000 -0.000001 0.016185
#
#
# Mechanical properties :
#
#
# Convention : Reuss Voigt Hill
#
# Bulk Modulus (GPa) = 150.76956 154.23351 152.50154
# Shear Modulus (GPa) = 67.08655 83.39909 75.24282
#
# Velocity S-wave (km/s) = 5.08930 5.67442 5.38981
# Velocity P-wave (km/s) = 9.63038 10.12319 9.87986
#
# Compressibility (1/GPa) = 0.00663264
#
# Stress axis : x y z
#
# Youngs Moduli (GPa) = 161.97055 198.66892 181.94184
#
# Poissons Ratio (x) = 0.45704 0.47499
# Poissons Ratio (y) = 0.37261 0.02263
# Poissons Ratio (z) = 0.42285 0.02471
#
# Static dielectric constant tensor:
#      x y z
#    x 2.031840 0.000000 0.000000 
#    y 0.000000 2.112000 -0.000010 
#    z 0.000000 -0.000010 2.214950 
# 
# From -- ./inp_files/3434.got.cif
#   From: 2010.05.17/outbox.cif.g08.bks.cpg/sg42_2_cif.got.tgz:3434.got - 2010.06.03 19:03:34.
