data_PCOD9369387
_publ_section_title
;
Structure prediction by ZEFSAII (Michael W. Deem and Ramdas Pophale) SiO2 
 PCOD9369387
Probable space group: F M M 2
;
_chemical_formula_sum "Si O2"
_cell_formula_units_Z 96
_cell_length_a 21.782603
_cell_length_b 22.217023
_cell_length_c 9.232116
_cell_angle_alpha 90.000000
_cell_angle_beta 90.000000
_cell_angle_gamma 90.000000
_cell_volume 4467.832610
_symmetry_space_group_name_H-M "F M M 2"
_symmetry_group_IT_number 42
_symmetry_cell_setting 'orthorhombic'
loop_
_space_group_symop_operation_xyz
x,y,z
-x,-y,z
-x,y,z
x,-y,z
x,1/2+y,1/2+z
-x,1/2-y,1/2+z
-x,1/2+y,1/2+z
x,1/2-y,1/2+z
1/2+x,y,1/2+z
1/2-x,-y,1/2+z
1/2-x,y,1/2+z
1/2+x,-y,1/2+z
1/2+x,1/2+y,z
1/2-x,1/2-y,z
1/2-x,1/2+y,z
1/2+x,1/2-y,z
loop_
_atom_site_type_symbol
_atom_site_label
_atom_site_fract_x
_atom_site_fract_y
_atom_site_fract_z
Si Si1 0.231055 0.435239 0.021460
Si Si2 0.377350 0.566467 0.994606
Si Si3 0.875679 0.186860 0.838055
Si Si4 0.861262 0.385170 0.802953
Si Si5 0.427150 0.798526 0.015888
Si Si6 0.252781 0.684368 0.698281
O O1 0.218655 0.500000 0.096082
O O2 0.223079 0.373610 0.110349
O O3 0.302864 0.435621 0.981659
O O4 0.185697 0.429315 0.885809
O O5 0.401143 0.500000 0.959175
O O6 0.396949 0.621957 0.895889
O O7 0.389701 0.583458 0.162446
O O8 0.899053 0.196172 0.675300
O O9 0.901235 0.238638 0.940527
O O10 0.801475 0.189634 0.829097
O O11 0.907131 0.354735 0.915533
O O12 0.815639 0.332875 0.745387
O O13 0.500000 0.794931 0.025390
O O14 0.250000 0.750000 0.626551
#
# Coordination Sequence:
#
# PCOD9369387 Si02
#       6
#    16  16  16  16  16  16
#     4  10  21  36  61 100 145 182 213 264 341 425
#     4  10  23  40  64 102 139 179 220 270 350 422
#     4  12  24  43  68  97 137 174 221 291 342 412
#     4  11  21  40  68  99 141 177 220 283 334 417
#     4  12  27  46  69  97 131 181 235 285 345 402
#     4  11  22  36  63 102 140 172 219 274 351 402
#
# _framework density 21.486927999999999
#
# number of rings (size 3 to 8) (size 9 to 14) (size 15 to 20)
#    0.000    1.000    5.000    2.000    2.333    2.000 
#    0.000    0.833    0.000    8.000    0.000    0.000 
#    0.000    0.000    0.000    0.000    0.000    0.000 
#
# Total GULP energy -134215.140499 kJ/mol
# GULP energy per Si atom -5592.297521 kJ/mol
# Density = 2.143802 g / cm^3
# Si number density = 21.486928 Si / 1000 Ang^3
#
#
#
# Elastic Constant Matrix: (Units=GPa)
#
#
# Indices 1 2 3 4 5 6 
#
# 1 29.8350 10.4249 17.8102 0.0000 0.0000 0.0000
# 2 10.4249 187.5543 72.8229 0.0000 0.0000 0.0000
# 3 17.8102 72.8229 118.0834 0.0001 0.0001 0.0000
# 4 0.0000 0.0000 0.0001 21.1924 0.0000 0.0000
# 5 0.0000 0.0000 0.0001 0.0000 11.7935 0.0000
# 6 0.0000 0.0000 0.0000 0.0000 0.0000 7.9622
#
#
#
# Elastic Compliance Matrix: (Units=1/GPa)
#
#
# Indices 1 2 3 4 5 6 
#
# 1 0.036837 0.000144 -0.005645 0.000000 0.000000 0.000000
# 2 0.000144 0.007011 -0.004346 0.000000 0.000000 0.000000
# 3 -0.005645 -0.004346 0.012000 0.000000 0.000000 0.000000
# 4 0.000000 0.000000 0.000000 0.047187 0.000000 0.000000
# 5 0.000000 0.000000 0.000000 0.000000 0.084792 0.000000
# 6 0.000000 0.000000 0.000000 0.000000 0.000000 0.125594
#
#
# Mechanical properties :
#
#
# Convention : Reuss Voigt Hill
#
# Bulk Modulus (GPa) = 27.65823 59.73207 43.69515
# Shear Modulus (GPa) = 14.48580 23.81725 19.15152
#
# Velocity S-wave (km/s) = 2.59929 3.33296 2.98872
# Velocity P-wave (km/s) = 4.68065 6.53231 5.68241
#
# Compressibility (1/GPa) = 0.03615560
#
# Stress axis : x y z
#
# Youngs Moduli (GPa) = 27.14651 142.63239 83.33386
#
# Poissons Ratio (x) = -0.02058 0.47042
# Poissons Ratio (y) = -0.00392 0.36213
# Poissons Ratio (z) = 0.15324 0.61981
#
# Static dielectric constant tensor:
#      x y z
#    x 1.753640 0.000000 0.000000 
#    y 0.000000 1.815410 0.000000 
#    z 0.000000 0.000000 1.831560 
# 
# From -- ./inp_files/4733.got.cif
#   From: 2010.05.17/outbox.cif.g08.bks.cpg/sg42_3_cif.got.tgz:4733.got - 2010.06.03 19:03:34.
