data_PCOD9369475
_publ_section_title
;
Structure prediction by ZEFSAII (Michael W. Deem and Ramdas Pophale) SiO2 
 PCOD9369475
Probable space group: F M M 2
;
_chemical_formula_sum "Si O2"
_cell_formula_units_Z 96
_cell_length_a 8.815247
_cell_length_b 30.747056
_cell_length_c 19.299771
_cell_angle_alpha 90.000000
_cell_angle_beta 90.000000
_cell_angle_gamma 90.000000
_cell_volume 5231.065769
_symmetry_space_group_name_H-M "F M M 2"
_symmetry_group_IT_number 42
_symmetry_cell_setting 'orthorhombic'
loop_
_space_group_symop_operation_xyz
x,y,z
-x,-y,z
-x,y,z
x,-y,z
x,1/2+y,1/2+z
-x,1/2-y,1/2+z
-x,1/2+y,1/2+z
x,1/2-y,1/2+z
1/2+x,y,1/2+z
1/2-x,-y,1/2+z
1/2-x,y,1/2+z
1/2+x,-y,1/2+z
1/2+x,1/2+y,z
1/2-x,1/2-y,z
1/2-x,1/2+y,z
1/2+x,1/2-y,z
loop_
_atom_site_type_symbol
_atom_site_label
_atom_site_fract_x
_atom_site_fract_y
_atom_site_fract_z
Si Si1 0.319272 0.125350 0.523520
Si Si2 0.180317 0.448813 0.116641
Si Si3 0.181968 0.373458 0.870503
Si Si4 0.681438 0.702433 0.776980
Si Si5 0.318648 0.702420 0.614951
Si Si6 0.818583 0.449685 0.765829
O O1 0.500000 0.127561 0.522532
O O2 0.264497 0.082030 0.562915
O O3 0.254412 0.125923 0.446103
O O4 0.253304 0.166084 0.566323
O O5 0.212927 0.500000 0.105206
O O6 0.234303 0.438212 0.194578
O O7 0.000000 0.442145 0.110964
O O8 0.243667 0.333019 0.826315
O O9 0.221132 0.416905 0.827165
O O10 0.000000 0.370950 0.876290
O O11 0.500000 0.703122 0.786134
O O12 0.750000 0.750000 0.790997
O O13 0.713402 0.692233 0.695968
O O14 0.500000 0.703439 0.606047
O O15 0.250000 0.750000 0.600466
O O16 0.783771 0.500000 0.782727
O O17 0.000000 0.446469 0.753741
#
# Coordination Sequence:
#
# PCOD9369475 Si02
#       6
#    16  16  16  16  16  16
#     4  12  25  39  57  83 117 155 194 236 285 340
#     4  10  21  38  61  87 115 149 190 236 285 338
#     4  11  23  38  57  83 117 154 191 233 283 338
#     4  10  21  38  61  87 114 146 187 234 283 337
#     4  10  21  39  63  89 117 149 189 236 284 337
#     4   9  19  37  61  87 114 147 188 233 281 336
#
# _framework density 18.351901000000002
#
# number of rings (size 3 to 8) (size 9 to 14) (size 15 to 20)
#    0.000    1.667    0.000    4.500    0.000    8.333 
#    0.000    5.000    0.000    0.000    0.000    0.000 
#    0.000    0.000    0.000    0.000    0.000    0.000 
#
# Total GULP energy -134175.221678 kJ/mol
# GULP energy per Si atom -5590.634237 kJ/mol
# Density = 1.831013 g / cm^3
# Si number density = 18.351901 Si / 1000 Ang^3
#
#
#
# Elastic Constant Matrix: (Units=GPa)
#
#
# Indices 1 2 3 4 5 6 
#
# 1 104.9355 80.3165 94.1672 0.0000 0.0000 0.0000
# 2 80.3165 124.6273 118.6187 0.0000 0.0000 0.0000
# 3 94.1672 118.6187 162.7563 0.0000 0.0000 0.0000
# 4 0.0000 0.0000 0.0000 -26.9389 0.0000 0.0000
# 5 0.0000 0.0000 0.0000 0.0000 31.0827 0.0000
# 6 0.0000 0.0000 0.0000 0.0000 0.0000 33.3907
#
#
#
# Elastic Compliance Matrix: (Units=1/GPa)
#
#
# Indices 1 2 3 4 5 6 
#
# 1 0.021333 -0.006530 -0.007584 0.000000 0.000000 0.000000
# 2 -0.006530 0.028193 -0.016769 0.000000 0.000000 0.000000
# 3 -0.007584 -0.016769 0.022753 0.000000 0.000000 0.000000
# 4 0.000000 0.000000 0.000000 -0.037121 0.000000 0.000000
# 5 0.000000 0.000000 0.000000 0.000000 0.032172 0.000000
# 6 0.000000 0.000000 0.000000 0.000000 0.000000 0.029948
#
#
# Mechanical properties :
#
#
# Convention : Reuss Voigt Hill
#
# Bulk Modulus (GPa) = 95.11456 108.72486 101.91971
# Shear Modulus (GPa) = 30.75977 14.12136 22.44057
#
# Velocity S-wave (km/s) = 4.09847 2.77695 3.50064
# Velocity P-wave (km/s) = 8.62191 8.34596 8.48506
#
# Compressibility (1/GPa) = 0.01051364
#
# Stress axis : x y z
#
# Youngs Moduli (GPa) = 46.87509 35.46973 43.94951
#
# Poissons Ratio (x) = 0.23163 0.33330
# Poissons Ratio (y) = 0.30611 0.73699
# Poissons Ratio (z) = 0.35548 0.59480
#
# Static dielectric constant tensor:
#      x y z
#    x 1.609050 0.000000 0.000000 
#    y 0.000000 1.614630 0.000000 
#    z 0.000000 0.000000 1.593990 
# 
# From -- ./inp_files/23731.got.cif
#   From: 2010.05.17/outbox.cif.g08.bks.cpg/sg42_12_cif.got.tgz:23731.got - 2010.06.03 19:03:34.
