data_PCOD9369320
_publ_section_title
;
Structure prediction by ZEFSAII (Michael W. Deem and Ramdas Pophale) SiO2 
 PCOD9369320
Probable space group: F M M 2
;
_chemical_formula_sum "Si O2"
_cell_formula_units_Z 112
_cell_length_a 14.653196
_cell_length_b 28.224421
_cell_length_c 13.422439
_cell_angle_alpha 90.000000
_cell_angle_beta 90.000000
_cell_angle_gamma 90.000000
_cell_volume 5551.225113
_symmetry_space_group_name_H-M "F M M 2"
_symmetry_group_IT_number 42
_symmetry_cell_setting 'orthorhombic'
loop_
_space_group_symop_operation_xyz
x,y,z
-x,-y,z
-x,y,z
x,-y,z
x,1/2+y,1/2+z
-x,1/2-y,1/2+z
-x,1/2+y,1/2+z
x,1/2-y,1/2+z
1/2+x,y,1/2+z
1/2-x,-y,1/2+z
1/2-x,y,1/2+z
1/2+x,-y,1/2+z
1/2+x,1/2+y,z
1/2-x,1/2-y,z
1/2-x,1/2+y,z
1/2+x,1/2-y,z
loop_
_atom_site_type_symbol
_atom_site_label
_atom_site_fract_x
_atom_site_fract_y
_atom_site_fract_z
Si Si1 0.893237 0.314741 0.575520
Si Si2 0.252364 0.195313 0.908273
Si Si3 0.399124 0.056679 0.661331
Si Si4 0.606300 0.296266 0.586537
Si Si5 0.260499 0.140954 0.211179
Si Si6 0.283635 0.555852 0.580258
Si Si7 0.605733 0.942452 0.886600
O O1 0.839004 0.314837 0.471522
O O2 0.887766 0.259763 0.608511
O O3 0.832259 0.346186 0.649817
O O4 0.000000 0.326540 0.568373
O O5 0.250000 0.250000 0.870300
O O6 0.257593 0.156422 0.823196
O O7 0.337300 0.193902 0.985073
O O8 0.500000 0.074822 0.640504
O O9 0.325815 0.061399 0.573896
O O10 0.406103 0.000000 0.673369
O O11 0.369784 0.072412 0.773528
O O12 0.500000 0.309337 0.578208
O O13 0.661168 0.323649 0.670941
O O14 0.299615 0.090007 0.174844
O O15 0.304050 0.500000 0.598030
O O16 0.333908 0.572783 0.480723
O O17 0.500000 0.929093 0.902030
O O18 0.610895 0.000000 0.888613
#
# Coordination Sequence:
#
# PCOD9369320 Si02
#       7
#    16  16  16  16  16  16  16
#     4   9  19  36  56  80 111 140 166 206 263 323
#     4   9  18  34  55  79 107 138 171 210 260 318
#     4   8  15  30  51  71  91 122 169 220 263 302
#     4   9  19  36  57  82 110 136 166 210 263 319
#     4  11  21  33  53  80 108 140 179 219 257 305
#     4  10  21  34  50  75 107 142 181 224 264 299
#     4   8  15  31  54  73  90 122 170 219 264 306
#
# _framework density 20.175726999999998
#
# number of rings (size 3 to 8) (size 9 to 14) (size 15 to 20)
#    0.000    2.857    0.000    3.000    0.000    4.571 
#    0.000    4.286    0.000    0.857    0.000    6.000 
#    0.000    0.000    0.000    0.000    0.000    0.000 
#
# Total GULP energy -156034.280132 kJ/mol
# GULP energy per Si atom -5572.652862 kJ/mol
# Density = 2.012981 g / cm^3
# Si number density = 20.175727 Si / 1000 Ang^3
#
#
#
# Elastic Constant Matrix: (Units=GPa)
#
#
# Indices 1 2 3 4 5 6 
#
# 1 120.6593 25.9813 39.8675 0.0000 0.0000 0.0000
# 2 25.9813 95.8806 36.3084 0.0000 0.0000 0.0000
# 3 39.8675 36.3084 66.0102 0.0000 0.0000 0.0000
# 4 0.0000 0.0000 0.0000 30.9345 0.0000 0.0000
# 5 0.0000 0.0000 0.0000 0.0000 20.2918 0.0000
# 6 0.0000 0.0000 0.0000 0.0000 0.0000 9.1159
#
#
#
# Elastic Compliance Matrix: (Units=1/GPa)
#
#
# Indices 1 2 3 4 5 6 
#
# 1 0.010377 -0.000554 -0.005963 0.000000 0.000000 0.000000
# 2 -0.000554 0.013203 -0.006928 0.000000 0.000000 0.000000
# 3 -0.005963 -0.006928 0.022561 0.000000 0.000000 0.000000
# 4 0.000000 0.000000 0.000000 0.032326 0.000000 0.000000
# 5 0.000000 0.000000 0.000000 0.000000 0.049281 0.000000
# 6 0.000000 0.000000 0.000000 0.000000 0.000000 0.109699
#
#
# Mechanical properties :
#
#
# Convention : Reuss Voigt Hill
#
# Bulk Modulus (GPa) = 51.94125 54.09604 53.01865
# Shear Modulus (GPa) = 18.46693 24.09461 21.28077
#
# Velocity S-wave (km/s) = 3.02868 3.45952 3.25125
# Velocity P-wave (km/s) = 6.16692 6.54434 6.35843
#
# Compressibility (1/GPa) = 0.01925252
#
# Stress axis : x y z
#
# Youngs Moduli (GPa) = 96.36460 75.73944 44.32439
#
# Poissons Ratio (x) = 0.04196 0.26429
# Poissons Ratio (y) = 0.05339 0.30707
# Poissons Ratio (z) = 0.57459 0.52470
#
# Static dielectric constant tensor:
#      x y z
#    x 1.724980 0.000000 0.000000 
#    y 0.000000 1.823880 0.000000 
#    z 0.000000 0.000000 1.682580 
# 
# From -- ./inp_files/14501.got.cif
#   From: 2010.05.17/outbox.cif.g08.bks.cpg/sg42_8_cif.got.tgz:14501.got - 2010.06.03 19:03:34.
