data_PCOD9369202
_publ_section_title
;
Structure prediction by ZEFSAII (Michael W. Deem and Ramdas Pophale) SiO2 
 PCOD9369202
Probable space group: F M M 2
;
_chemical_formula_sum "Si O2"
_cell_formula_units_Z 84
_cell_length_a 19.652980
_cell_length_b 10.034746
_cell_length_c 22.774937
_cell_angle_alpha 90.000000
_cell_angle_beta 90.000000
_cell_angle_gamma 90.000000
_cell_volume 4491.505963
_symmetry_space_group_name_H-M "F M M 2"
_symmetry_group_IT_number 42
_symmetry_cell_setting 'orthorhombic'
loop_
_space_group_symop_operation_xyz
x,y,z
-x,-y,z
-x,y,z
x,-y,z
x,1/2+y,1/2+z
-x,1/2-y,1/2+z
-x,1/2+y,1/2+z
x,1/2-y,1/2+z
1/2+x,y,1/2+z
1/2-x,-y,1/2+z
1/2-x,y,1/2+z
1/2+x,-y,1/2+z
1/2+x,1/2+y,z
1/2-x,1/2-y,z
1/2-x,1/2+y,z
1/2+x,1/2-y,z
loop_
_atom_site_type_symbol
_atom_site_label
_atom_site_fract_x
_atom_site_fract_y
_atom_site_fract_z
Si Si1 0.849723 0.500000 0.818580
Si Si2 0.632090 0.000000 0.952383
Si Si3 0.206326 0.500000 0.473280
Si Si4 0.312864 0.000000 0.339542
Si Si5 0.385405 0.721836 0.016278
Si Si6 0.668374 0.235653 0.252986
Si Si7 0.919832 0.157502 0.640485
Si Si8 0.500000 0.500000 0.992995
O O1 0.883194 0.500000 0.882709
O O2 0.768720 0.500000 0.832196
O O3 0.861482 0.628746 0.779095
O O4 0.713296 0.000000 0.963426
O O5 0.608392 0.861370 0.981463
O O6 0.172837 0.500000 0.408216
O O7 0.183175 0.363811 0.505094
O O8 0.338815 0.128074 0.304863
O O9 0.396406 0.758255 0.084315
O O10 0.441613 0.616819 0.996214
O O11 0.750000 0.250000 0.240969
O O12 0.627326 0.190947 0.195928
O O13 0.000000 0.183779 0.652226
O O14 0.913188 0.000000 0.627183
#
# Coordination Sequence:
#
# PCOD9369202 Si02
#       8
#     8   8   8   8  16  16  16   4
#     4   9  20  35  60  95 121 162 197 248 316 368
#     4  11  21  38  66  96 132 162 200 259 323 380
#     4  10  22  36  63 101 128 164 202 256 320 379
#     4   9  17  37  61  87 129 161 197 244 312 378
#     4  11  22  40  64  88 125 169 209 258 305 385
#     4  10  20  37  64  92 124 159 207 258 306 371
#     4  11  23  42  66  85 121 171 213 257 318 383
#     4  10  24  42  60  86 112 164 228 236 306 362
#
# _framework density 18.701968000000001
#
# number of rings (size 3 to 8) (size 9 to 14) (size 15 to 20)
#    0.000    1.714    2.857    1.714    0.000    6.476 
#    0.000    0.000   20.952    0.000    0.000    0.000 
#    0.000    0.000    0.000    0.000    0.000    0.000 
#
# Total GULP energy -116911.522988 kJ/mol
# GULP energy per Si atom -5567.215380 kJ/mol
# Density = 1.865940 g / cm^3
# Si number density = 18.701968 Si / 1000 Ang^3
#
#
#
# Elastic Constant Matrix: (Units=GPa)
#
#
# Indices 1 2 3 4 5 6 
#
# 1 60.2550 39.7257 46.0511 0.0000 0.0000 0.0000
# 2 39.7257 163.5521 51.5996 0.0000 0.0000 0.0000
# 3 46.0511 51.5996 95.3789 0.0000 0.0000 0.0000
# 4 0.0000 0.0000 0.0000 426.1078 0.0000 0.0000
# 5 0.0000 0.0000 0.0000 0.0000 -30.5153 0.0000
# 6 0.0000 0.0000 0.0000 0.0000 0.0000 79.0811
#
#
#
# Elastic Compliance Matrix: (Units=1/GPa)
#
#
# Indices 1 2 3 4 5 6 
#
# 1 0.027470 -0.003000 -0.011640 0.000000 0.000000 0.000000
# 2 -0.003000 0.007700 -0.002717 0.000000 0.000000 0.000000
# 3 -0.011640 -0.002717 0.017575 0.000000 0.000000 0.000000
# 4 0.000000 0.000000 0.000000 0.002347 0.000000 0.000000
# 5 0.000000 0.000000 0.000000 0.000000 -0.032770 0.000000
# 6 0.000000 0.000000 0.000000 0.000000 0.000000 0.012645
#
#
# Mechanical properties :
#
#
# Convention : Reuss Voigt Hill
#
# Bulk Modulus (GPa) = 55.46278 65.99318 60.72798
# Shear Modulus (GPa) = 66.05690 107.05536 86.55613
#
# Velocity S-wave (km/s) = 5.94958 7.57411 6.81046
# Velocity P-wave (km/s) = 8.77024 10.57605 9.71519
#
# Compressibility (1/GPa) = 0.01803011
#
# Stress axis : x y z
#
# Youngs Moduli (GPa) = 36.40293 129.86622 56.89957
#
# Poissons Ratio (x) = 0.38958 0.66233
# Poissons Ratio (y) = 0.10920 0.15462
# Poissons Ratio (z) = 0.42374 0.35290
#
# Static dielectric constant tensor:
#      x y z
#    x 1.658160 0.000000 0.000000 
#    y 0.000000 1.401070 0.000000 
#    z 0.000000 0.000000 1.623830 
# 
# From -- ./inp_files/26757.got.cif
#   From: 2010.05.17/outbox.cif.g08.bks.cpg/sg42_14_cif.got.tgz:26757.got - 2010.06.03 19:03:34.
