data_PCOD9369239
_publ_section_title
;
Structure prediction by ZEFSAII (Michael W. Deem and Ramdas Pophale) SiO2 
 PCOD9369239
Probable space group: F M M 2
;
_chemical_formula_sum "Si O2"
_cell_formula_units_Z 104
_cell_length_a 25.394483
_cell_length_b 24.055630
_cell_length_c 8.856924
_cell_angle_alpha 90.000000
_cell_angle_beta 90.000000
_cell_angle_gamma 90.000000
_cell_volume 5410.520276
_symmetry_space_group_name_H-M "F M M 2"
_symmetry_group_IT_number 42
_symmetry_cell_setting 'orthorhombic'
loop_
_space_group_symop_operation_xyz
x,y,z
-x,-y,z
-x,y,z
x,-y,z
x,1/2+y,1/2+z
-x,1/2-y,1/2+z
-x,1/2+y,1/2+z
x,1/2-y,1/2+z
1/2+x,y,1/2+z
1/2-x,-y,1/2+z
1/2-x,y,1/2+z
1/2+x,-y,1/2+z
1/2+x,1/2+y,z
1/2-x,1/2-y,z
1/2-x,1/2+y,z
1/2+x,1/2-y,z
loop_
_atom_site_type_symbol
_atom_site_label
_atom_site_fract_x
_atom_site_fract_y
_atom_site_fract_z
Si Si1 0.733518 0.631113 0.489210
Si Si2 0.799402 0.562267 0.722689
Si Si3 0.000000 0.346981 0.066920
Si Si4 0.910923 0.336187 0.309362
Si Si5 0.000000 0.117803 0.228423
Si Si6 0.406443 0.436514 0.036286
Si Si7 0.000000 0.716722 0.513886
Si Si8 0.296603 0.202757 0.259919
O O1 0.756667 0.587418 0.608105
O O2 0.696580 0.601223 0.368686
O O3 0.708735 0.678759 0.591378
O O4 0.778699 0.659025 0.387870
O O5 0.784640 0.500000 0.769258
O O6 0.853055 0.561616 0.631037
O O7 0.946754 0.354447 0.166225
O O8 0.000000 0.281529 0.035116
O O9 0.000000 0.380634 0.909686
O O10 0.898546 0.393435 0.398903
O O11 0.860024 0.296690 0.280747
O O12 0.949665 0.302438 0.418759
O O13 0.950611 0.087683 0.149003
O O14 0.000000 0.181457 0.168386
O O15 0.419496 0.500000 0.988762
O O16 0.250000 0.250000 0.270897
#
# Coordination Sequence:
#
# PCOD9369239 Si02
#       8
#    16  16   8  16   8  16   8  16
#     4  10  22  38  57  87 125 152 213 249 304 364
#     4  10  20  38  63  87 116 160 204 252 309 363
#     4  11  23  39  63  94 121 164 211 265 314 357
#     4  10  22  42  63  90 127 161 212 255 308 388
#     4  10  21  37  63  93 126 153 216 264 307 366
#     4  10  21  41  65  89 122 169 203 251 323 380
#     4   9  21  42  62  89 117 171 206 249 319 369
#     4  11  23  40  59  89 126 168 200 254 314 372
#
# _framework density 19.221812
#
# number of rings (size 3 to 8) (size 9 to 14) (size 15 to 20)
#    0.000    1.846    1.538    2.538    2.154    2.462 
#    5.538    2.308    0.000    0.000    0.000    0.000 
#    0.000    0.000    0.000    0.000    0.000    0.000 
#
# Total GULP energy -144857.846382 kJ/mol
# GULP energy per Si atom -5571.455630 kJ/mol
# Density = 1.917806 g / cm^3
# Si number density = 19.221812 Si / 1000 Ang^3
#
#
#
# Elastic Constant Matrix: (Units=GPa)
#
#
# Indices 1 2 3 4 5 6 
#
# 1 103.6847 34.4562 36.0198 -0.0003 0.0004 0.0002
# 2 34.4562 96.6136 32.5500 0.0001 -0.0004 0.0000
# 3 36.0198 32.5500 108.2546 0.0001 -0.0006 0.0003
# 4 -0.0003 0.0001 0.0001 24.6168 -0.0001 0.0003
# 5 0.0004 -0.0004 -0.0006 -0.0001 7.7427 -0.0003
# 6 0.0002 0.0000 0.0003 0.0003 -0.0003 20.4748
#
#
#
# Elastic Compliance Matrix: (Units=1/GPa)
#
#
# Indices 1 2 3 4 5 6 
#
# 1 0.011727 -0.003191 -0.002943 0.000000 -0.000001 0.000000
# 2 -0.003191 0.012386 -0.002662 0.000000 0.000001 0.000000
# 3 -0.002943 -0.002662 0.011017 0.000000 0.000001 0.000000
# 4 0.000000 0.000000 0.000000 0.040623 0.000001 -0.000001
# 5 -0.000001 0.000001 0.000001 0.000001 0.129154 0.000002
# 6 0.000000 0.000000 0.000000 -0.000001 0.000002 0.048841
#
#
# Mechanical properties :
#
#
# Convention : Reuss Voigt Hill
#
# Bulk Modulus (GPa) = 57.01891 57.17833 57.09862
# Shear Modulus (GPa) = 18.03847 24.26864 21.15356
#
# Velocity S-wave (km/s) = 3.06672 3.55710 3.32097
# Velocity P-wave (km/s) = 6.50136 6.83241 6.66894
#
# Compressibility (1/GPa) = 0.01753804
#
# Stress axis : x y z
#
# Youngs Moduli (GPa) = 85.27105 80.73948 90.76818
#
# Poissons Ratio (x) = 0.25764 0.26709
# Poissons Ratio (y) = 0.27210 0.24165
# Poissons Ratio (z) = 0.25092 0.21495
#
# Static dielectric constant tensor:
#      x y z
#    x 1.707230 0.000000 0.000000 
#    y 0.000000 1.691860 0.000000 
#    z 0.000000 0.000000 1.659050 
# 
# From -- ./inp_files/4851.got.cif
#   From: 2010.05.17/outbox.cif.g08.bks.cpg/sg42_3_cif.got.tgz:4851.got - 2010.06.03 19:03:34.
