data_PCOD9369072
_publ_section_title
;
Structure prediction by ZEFSAII (Michael W. Deem and Ramdas Pophale) SiO2 
 PCOD9369072
Probable space group: F M M 2
;
_chemical_formula_sum "Si O2"
_cell_formula_units_Z 88
_cell_length_a 10.796422
_cell_length_b 21.623223
_cell_length_c 17.914550
_cell_angle_alpha 90.000000
_cell_angle_beta 90.000000
_cell_angle_gamma 90.000000
_cell_volume 4182.213333
_symmetry_space_group_name_H-M "F M M 2"
_symmetry_group_IT_number 42
_symmetry_cell_setting 'orthorhombic'
loop_
_space_group_symop_operation_xyz
x,y,z
-x,-y,z
-x,y,z
x,-y,z
x,1/2+y,1/2+z
-x,1/2-y,1/2+z
-x,1/2+y,1/2+z
x,1/2-y,1/2+z
1/2+x,y,1/2+z
1/2-x,-y,1/2+z
1/2-x,y,1/2+z
1/2+x,-y,1/2+z
1/2+x,1/2+y,z
1/2-x,1/2-y,z
1/2-x,1/2+y,z
1/2+x,1/2-y,z
loop_
_atom_site_type_symbol
_atom_site_label
_atom_site_fract_x
_atom_site_fract_y
_atom_site_fract_z
Si Si1 0.750000 0.750000 0.826000
Si Si2 0.361694 0.925778 0.468988
Si Si3 0.871519 0.214279 0.551038
Si Si4 0.866024 0.139103 0.411318
Si Si5 0.360787 0.153924 0.211544
Si Si6 0.641872 0.425592 0.145909
O O1 0.838715 0.704908 0.873038
O O2 0.672538 0.701989 0.776172
O O3 0.500000 0.903918 0.448319
O O4 0.257084 0.901893 0.412159
O O5 0.342706 0.909714 0.557346
O O6 0.360425 0.000000 0.467068
O O7 0.750000 0.250000 0.529651
O O8 0.877544 0.154847 0.498798
O O9 0.864327 0.194345 0.636042
O O10 0.000000 0.250451 0.538994
O O11 0.000000 0.114118 0.385396
O O12 0.500000 0.127187 0.221555
O O13 0.247783 0.106574 0.195695
O O14 0.500000 0.407413 0.166493
O O15 0.650702 0.500000 0.151929
#
# Coordination Sequence:
#
# PCOD9369072 Si02
#       6
#     8  16  16  16  16  16
#     4  12  26  42  58  82 126 170 204 244 298 366
#     4   9  19  37  63  94 124 155 194 244 304 364
#     4  10  20  36  57  84 115 153 202 250 298 353
#     4  11  23  39  60  89 121 158 203 252 299 351
#     4  11  23  39  60  89 121 158 203 252 299 351
#     4   9  19  37  63  94 124 155 194 244 304 364
#
# _framework density 21.04149
#
# number of rings (size 3 to 8) (size 9 to 14) (size 15 to 20)
#    0.000    1.818    3.636    1.636    0.000    5.091 
#    0.000    2.727    0.000    0.000    0.000    0.000 
#    0.000    0.000    0.000    0.000    0.000    0.000 
#
# Total GULP energy -122632.666891 kJ/mol
# GULP energy per Si atom -5574.212131 kJ/mol
# Density = 2.099360 g / cm^3
# Si number density = 21.041490 Si / 1000 Ang^3
#
#
#
# Elastic Constant Matrix: (Units=GPa)
#
#
# Indices 1 2 3 4 5 6 
#
# 1 223.1955 67.7673 27.3075 0.0000 0.0000 0.0000
# 2 67.7673 51.4025 13.7080 0.0000 0.0000 0.0000
# 3 27.3075 13.7080 49.5352 0.0000 0.0000 0.0000
# 4 0.0000 0.0000 0.0000 34.8587 0.0000 0.0000
# 5 0.0000 0.0000 0.0000 0.0000 24.1285 0.0000
# 6 0.0000 0.0000 0.0000 0.0000 0.0000 27.5685
#
#
#
# Elastic Compliance Matrix: (Units=1/GPa)
#
#
# Indices 1 2 3 4 5 6 
#
# 1 0.007576 -0.009581 -0.001525 0.000000 0.000000 0.000000
# 2 -0.009581 0.033122 -0.003884 0.000000 0.000000 0.000000
# 3 -0.001525 -0.003884 0.022103 0.000000 0.000000 0.000000
# 4 0.000000 0.000000 0.000000 0.028687 0.000000 0.000000
# 5 0.000000 0.000000 0.000000 0.000000 0.041445 0.000000
# 6 0.000000 0.000000 0.000000 0.000000 0.000000 0.036273
#
#
# Mechanical properties :
#
#
# Convention : Reuss Voigt Hill
#
# Bulk Modulus (GPa) = 30.46882 60.18876 45.32879
# Shear Modulus (GPa) = 23.79510 31.66782 27.73146
#
# Velocity S-wave (km/s) = 3.36648 3.88366 3.63429
# Velocity P-wave (km/s) = 5.44268 6.98408 6.26099
#
# Compressibility (1/GPa) = 0.03282044
#
# Stress axis : x y z
#
# Youngs Moduli (GPa) = 131.99432 30.19157 45.24233
#
# Poissons Ratio (x) = 0.28928 0.06900
# Poissons Ratio (y) = 1.26469 0.17572
# Poissons Ratio (z) = 0.20129 0.11726
#
# Static dielectric constant tensor:
#      x y z
#    x 1.857670 0.000000 0.000000 
#    y 0.000000 1.731840 0.000000 
#    z 0.000000 0.000000 1.760900 
# 
# From -- ./inp_files/23526.got.cif
#   From: 2010.05.17/outbox.cif.g08.bks.cpg/sg42_12_cif.got.tgz:23526.got - 2010.06.03 19:03:34.
