data_PCOD9369970
_publ_section_title
;
Structure prediction by ZEFSAII (Michael W. Deem and Ramdas Pophale) SiO2 
 PCOD9369970
Probable space group: F M M 2
;
_chemical_formula_sum "Si O2"
_cell_formula_units_Z 48
_cell_length_a 5.620322
_cell_length_b 24.989553
_cell_length_c 13.501415
_cell_angle_alpha 90.000000
_cell_angle_beta 90.000000
_cell_angle_gamma 90.000000
_cell_volume 1896.264752
_symmetry_space_group_name_H-M "F M M 2"
_symmetry_group_IT_number 42
_symmetry_cell_setting 'orthorhombic'
loop_
_space_group_symop_operation_xyz
x,y,z
-x,-y,z
-x,y,z
x,-y,z
x,1/2+y,1/2+z
-x,1/2-y,1/2+z
-x,1/2+y,1/2+z
x,1/2-y,1/2+z
1/2+x,y,1/2+z
1/2-x,-y,1/2+z
1/2-x,y,1/2+z
1/2+x,-y,1/2+z
1/2+x,1/2+y,z
1/2-x,1/2-y,z
1/2-x,1/2+y,z
1/2+x,1/2-y,z
loop_
_atom_site_type_symbol
_atom_site_label
_atom_site_fract_x
_atom_site_fract_y
_atom_site_fract_z
Si Si1 0.000000 0.500000 0.809180
Si Si2 0.500000 0.630389 0.046907
Si Si3 0.500000 0.896306 0.067895
Si Si4 0.000000 0.000000 0.701478
Si Si5 0.500000 0.123325 0.790073
Si Si6 0.500000 0.178670 0.352259
Si Si7 0.000000 0.724539 0.155334
O O1 0.744482 0.500000 0.758200
O O2 0.000000 0.563602 0.836498
O O3 0.257435 0.600691 0.018318
O O4 0.500000 0.629455 0.168047
O O5 0.500000 0.681291 0.971687
O O6 0.500000 0.836785 0.117006
O O7 0.500000 0.945447 0.141263
O O8 0.749838 0.150029 0.822827
O O9 0.500000 0.227645 0.275618
O O10 0.750000 0.750000 0.123476
#
# Coordination Sequence:
#
# PCOD9369970 Si02
#       7
#     4   8   8   4   8   8   8
#     4  12  20  36  67  99 138 188 234 286 359 413
#     4  12  23  45  73 100 140 186 238 292 359 428
#     4  12  23  45  70 108 140 192 241 290 360 425
#     4  12  20  38  71 103 140 188 242 290 351 421
#     4  12  22  45  67 101 141 186 234 297 348 419
#     4  12  26  45  72  99 140 190 237 294 357 423
#     4  12  24  44  72 103 144 187 233 300 360 419
#
# _framework density 25.312920999999999
#
# number of rings (size 3 to 8) (size 9 to 14) (size 15 to 20)
#    0.000    0.000    6.667    4.000    0.000    0.000 
#    0.000   11.667    0.000    0.000    0.000    0.000 
#    0.000    0.000    0.000    0.000    0.000    0.000 
#
# Total GULP energy -66867.120947 kJ/mol
# GULP energy per Si atom -5572.260079 kJ/mol
# Density = 2.525531 g / cm^3
# Si number density = 25.312921 Si / 1000 Ang^3
#
#
#
# Elastic Constant Matrix: (Units=GPa)
#
#
# Indices 1 2 3 4 5 6 
#
# 1 318.0119 77.7664 61.0879 0.0000 0.0000 0.0000
# 2 77.7664 127.6770 14.6153 0.0000 0.0000 0.0000
# 3 61.0879 14.6153 141.2974 0.0000 0.0000 0.0000
# 4 0.0000 0.0000 0.0000 34.9871 0.0000 0.0000
# 5 0.0000 0.0000 0.0000 0.0000 0.7611 0.0000
# 6 0.0000 0.0000 0.0000 0.0000 0.0000 45.4046
#
#
#
# Elastic Compliance Matrix: (Units=1/GPa)
#
#
# Indices 1 2 3 4 5 6 
#
# 1 0.003982 -0.002255 -0.001488 0.000000 0.000000 0.000000
# 2 -0.002255 0.009203 0.000023 0.000000 0.000000 0.000000
# 3 -0.001488 0.000023 0.007718 0.000000 0.000000 0.000000
# 4 0.000000 0.000000 0.000000 0.028582 0.000000 0.000000
# 5 0.000000 0.000000 0.000000 0.000000 1.313886 0.000000
# 6 0.000000 0.000000 0.000000 0.000000 0.000000 0.022024
#
#
# Mechanical properties :
#
#
# Convention : Reuss Voigt Hill
#
# Bulk Modulus (GPa) = 74.27877 99.32505 86.80191
# Shear Modulus (GPa) = 3.57827 45.13166 24.35497
#
# Velocity S-wave (km/s) = 1.19024 4.22708 3.10523
# Velocity P-wave (km/s) = 5.59436 7.94659 6.87187
#
# Compressibility (1/GPa) = 0.01346280
#
# Stress axis : x y z
#
# Youngs Moduli (GPa) = 251.14031 108.65920 129.56186
#
# Poissons Ratio (x) = 0.24502 0.19282
# Poissons Ratio (y) = 0.56630 -0.00297
# Poissons Ratio (z) = 0.37376 -0.00249
#
# Static dielectric constant tensor:
#      x y z
#    x 1.939780 0.000000 0.000000 
#    y 0.000000 1.915390 0.000000 
#    z 0.000000 0.000000 2.077000 
# 
# From -- ./inp_files/11324.got.cif
#   From: 2010.05.17/outbox.cif.g08.bks.cpg/sg42_6_cif.got.tgz:11324.got - 2010.06.03 19:03:34.
