data_PCOD9369050
_publ_section_title
;
Structure prediction by ZEFSAII (Michael W. Deem and Ramdas Pophale) SiO2 
 PCOD9369050
Probable space group: F M M 2
;
_chemical_formula_sum "Si O2"
_cell_formula_units_Z 116
_cell_length_a 31.050939
_cell_length_b 8.267968
_cell_length_c 25.651863
_cell_angle_alpha 90.000000
_cell_angle_beta 90.000000
_cell_angle_gamma 90.000000
_cell_volume 6585.555846
_symmetry_space_group_name_H-M "F M M 2"
_symmetry_group_IT_number 42
_symmetry_cell_setting 'orthorhombic'
loop_
_space_group_symop_operation_xyz
x,y,z
-x,-y,z
-x,y,z
x,-y,z
x,1/2+y,1/2+z
-x,1/2-y,1/2+z
-x,1/2+y,1/2+z
x,1/2-y,1/2+z
1/2+x,y,1/2+z
1/2-x,-y,1/2+z
1/2-x,y,1/2+z
1/2+x,-y,1/2+z
1/2+x,1/2+y,z
1/2-x,1/2-y,z
1/2-x,1/2+y,z
1/2+x,1/2-y,z
loop_
_atom_site_type_symbol
_atom_site_label
_atom_site_fract_x
_atom_site_fract_y
_atom_site_fract_z
Si Si1 0.500000 0.500000 0.003695
Si Si2 0.660344 0.311928 0.497991
Si Si3 0.438806 0.806218 0.030231
Si Si4 0.202243 0.693004 0.396454
Si Si5 0.452411 0.691590 0.654431
Si Si6 0.361236 0.807221 0.688462
Si Si7 0.202063 0.306448 0.277609
Si Si8 0.297593 0.309815 0.100112
O O1 0.463373 0.650322 0.005931
O O2 0.671396 0.500000 0.500767
O O3 0.610955 0.291548 0.514674
O O4 0.669311 0.252979 0.439753
O O5 0.689850 0.225335 0.540725
O O6 0.445414 0.784597 0.092433
O O7 0.450670 0.000000 0.019140
O O8 0.201576 0.500000 0.395525
O O9 0.250000 0.750000 0.411900
O O10 0.194767 0.751845 0.337170
O O11 0.500000 0.759169 0.667771
O O12 0.453613 0.500000 0.663261
O O13 0.410865 0.756467 0.684329
O O14 0.334930 0.752820 0.739092
O O15 0.334224 0.740236 0.638700
O O16 0.360625 0.000000 0.686519
O O17 0.202160 0.500000 0.277553
O O18 0.250000 0.250000 0.261312
O O19 0.297370 0.500000 0.107832
O O20 0.250000 0.250000 0.112776
#
# Coordination Sequence:
#
# PCOD9369050 Si02
#       8
#     4  16  16  16  16  16  16  16
#     4  12  22  32  64  78 116 160 186 248 288 342
#     4  11  22  36  55  80 115 150 186 234 282 338
#     4  10  22  36  54  85 116 151 195 237 291 349
#     4  10  21  37  58  82 110 146 192 236 282 338
#     4  10  20  36  55  79 113 149 186 236 285 337
#     4  11  23  35  55  83 112 146 189 232 279 342
#     4  10  21  38  59  82 111 147 188 237 285 337
#     4  11  23  35  50  75 112 153 190 223 274 340
#
# _framework density 17.614305000000002
#
# number of rings (size 3 to 8) (size 9 to 14) (size 15 to 20)
#    0.000    1.517    2.069    3.103    2.897    4.690 
#    0.000    0.000    0.000    0.000    1.793    0.000 
#    0.000    0.000    0.000    0.000    0.000    0.000 
#
# Total GULP energy -161496.596021 kJ/mol
# GULP energy per Si atom -5568.848139 kJ/mol
# Density = 1.757421 g / cm^3
# Si number density = 17.614305 Si / 1000 Ang^3
#
#
#
# Elastic Constant Matrix: (Units=GPa)
#
#
# Indices 1 2 3 4 5 6 
#
# 1 150.3025 43.5041 62.4672 0.0000 0.0001 0.0000
# 2 43.5041 64.5457 12.7732 0.0000 0.0002 0.0001
# 3 62.4672 12.7732 65.2708 0.0000 0.0000 0.0000
# 4 0.0000 0.0000 0.0000 22.8230 0.0000 0.0000
# 5 0.0001 0.0002 0.0000 0.0000 20.4904 -0.0001
# 6 0.0000 0.0001 0.0000 0.0000 -0.0001 40.3535
#
#
#
# Elastic Compliance Matrix: (Units=1/GPa)
#
#
# Indices 1 2 3 4 5 6 
#
# 1 0.013378 -0.006744 -0.011484 0.000000 0.000000 0.000000
# 2 -0.006744 0.019517 0.002635 0.000000 0.000000 0.000000
# 3 -0.011484 0.002635 0.025795 0.000000 0.000000 0.000000
# 4 0.000000 0.000000 0.000000 0.043815 0.000000 0.000000
# 5 0.000000 0.000000 0.000000 0.000000 0.048803 0.000000
# 6 0.000000 0.000000 0.000000 0.000000 0.000000 0.024781
#
#
# Mechanical properties :
#
#
# Convention : Reuss Voigt Hill
#
# Bulk Modulus (GPa) = 36.35678 57.51203 46.93440
# Shear Modulus (GPa) = 23.10066 27.49169 25.29618
#
# Velocity S-wave (km/s) = 3.62535 3.95493 3.79372
# Velocity P-wave (km/s) = 6.18139 7.31963 6.77445
#
# Compressibility (1/GPa) = 0.02750519
#
# Stress axis : x y z
#
# Youngs Moduli (GPa) = 74.74938 51.23711 38.76662
#
# Poissons Ratio (x) = 0.34556 0.44518
# Poissons Ratio (y) = 0.50413 -0.10216
# Poissons Ratio (z) = 0.85839 -0.13502
#
# Static dielectric constant tensor:
#      x y z
#    x 1.607880 0.000000 0.000000 
#    y 0.000000 1.617820 0.000000 
#    z 0.000000 0.000000 1.610460 
# 
# From -- ./inp_files/30888.got.cif
#   From: 2010.05.17/outbox.cif.g08.bks.cpg/sg42_16_cif.got.tgz:30888.got - 2010.06.03 19:03:34.
