data_PCOD9369276
_publ_section_title
;
Structure prediction by ZEFSAII (Michael W. Deem and Ramdas Pophale) SiO2 
 PCOD9369276
Probable space group: F M M 2
;
_chemical_formula_sum "Si O2"
_cell_formula_units_Z 64
_cell_length_a 25.309044
_cell_length_b 8.565479
_cell_length_c 14.835306
_cell_angle_alpha 90.000000
_cell_angle_beta 90.000000
_cell_angle_gamma 90.000000
_cell_volume 3216.058235
_symmetry_space_group_name_H-M "F M M 2"
_symmetry_group_IT_number 42
_symmetry_cell_setting 'orthorhombic'
loop_
_space_group_symop_operation_xyz
x,y,z
-x,-y,z
-x,y,z
x,-y,z
x,1/2+y,1/2+z
-x,1/2-y,1/2+z
-x,1/2+y,1/2+z
x,1/2-y,1/2+z
1/2+x,y,1/2+z
1/2-x,-y,1/2+z
1/2-x,y,1/2+z
1/2+x,-y,1/2+z
1/2+x,1/2+y,z
1/2-x,1/2-y,z
1/2-x,1/2+y,z
1/2+x,1/2-y,z
loop_
_atom_site_type_symbol
_atom_site_label
_atom_site_fract_x
_atom_site_fract_y
_atom_site_fract_z
Si Si1 0.000000 0.321416 0.208830
Si Si2 0.000000 0.820407 0.928788
Si Si3 0.386931 0.814571 0.927777
Si Si4 0.808989 0.185435 0.076179
Si Si5 0.614091 0.311359 0.725477
O O1 0.000000 0.322912 0.318765
O O2 0.942716 0.253161 0.185849
O O3 0.000000 0.500000 0.175642
O O4 0.946184 0.735714 0.956104
O O5 0.000000 0.000000 0.958950
O O6 0.379874 0.759832 0.824684
O O7 0.381675 0.000000 0.935255
O O8 0.343908 0.732165 0.989989
O O9 0.750000 0.250000 0.067699
O O10 0.838817 0.261633 0.161082
O O11 0.807797 0.000000 0.086579
O O12 0.611140 0.500000 0.732739
#
# Coordination Sequence:
#
# PCOD9369276 Si02
#       5
#     8   8  16  16  16
#     4   7  14  30  57  88 120 152 188 231 285 348
#     4   9  17  34  59  90 124 160 198 243 295 356
#     4  11  22  39  63  93 125 161 199 245 302 361
#     4  12  26  44  62  86 118 158 207 257 302 357
#     4  10  20  39  64  92 124 160 197 243 298 357
#
# _framework density 19.900137000000001
#
# number of rings (size 3 to 8) (size 9 to 14) (size 15 to 20)
#    0.000    1.750    0.000    7.125    0.000    2.000 
#    0.000   10.625    0.000    0.000    0.000    0.000 
#    0.000    0.000    0.000    0.000    0.000    0.000 
#
# Total GULP energy -89422.771373 kJ/mol
# GULP energy per Si atom -5588.923211 kJ/mol
# Density = 1.985484 g / cm^3
# Si number density = 19.900137 Si / 1000 Ang^3
#
#
#
# Elastic Constant Matrix: (Units=GPa)
#
#
# Indices 1 2 3 4 5 6 
#
# 1 154.6227 -1.2144 32.0787 0.0000 0.0000 0.0000
# 2 -1.2144 65.8607 -18.0394 0.0000 0.0000 0.0000
# 3 32.0787 -18.0394 58.2214 0.0000 0.0000 0.0000
# 4 0.0000 0.0000 0.0000 28.6741 0.0000 0.0000
# 5 0.0000 0.0000 0.0000 0.0000 27.9252 0.0000
# 6 0.0000 0.0000 0.0000 0.0000 0.0000 33.3783
#
#
#
# Elastic Compliance Matrix: (Units=1/GPa)
#
#
# Indices 1 2 3 4 5 6 
#
# 1 0.007370 -0.001067 -0.004391 0.000000 0.000000 0.000000
# 2 -0.001067 0.016746 0.005776 0.000000 0.000000 0.000000
# 3 -0.004391 0.005776 0.021385 0.000000 0.000000 0.000000
# 4 0.000000 0.000000 0.000000 0.034875 0.000000 0.000000
# 5 0.000000 0.000000 0.000000 0.000000 0.035810 0.000000
# 6 0.000000 0.000000 0.000000 0.000000 0.000000 0.029960
#
#
# Mechanical properties :
#
#
# Convention : Reuss Voigt Hill
#
# Bulk Modulus (GPa) = 21.67421 33.81717 27.74569
# Shear Modulus (GPa) = 31.07751 35.72085 33.39918
#
# Velocity S-wave (km/s) = 3.95609 4.24135 4.10120
# Velocity P-wave (km/s) = 5.63761 6.40435 6.03317
#
# Compressibility (1/GPa) = 0.04613778
#
# Stress axis : x y z
#
# Youngs Moduli (GPa) = 135.68497 59.71549 46.76151
#
# Poissons Ratio (x) = 0.06371 0.20534
# Poissons Ratio (y) = 0.14476 -0.27012
# Poissons Ratio (z) = 0.59583 -0.34494
#
# Static dielectric constant tensor:
#      x y z
#    x 1.692070 0.000000 0.000000 
#    y 0.000000 1.665660 0.000000 
#    z 0.000000 0.000000 1.709480 
# 
# From -- ./inp_files/11903.got.cif
#   From: 2010.05.17/outbox.cif.g08.bks.cpg/sg42_6_cif.got.tgz:11903.got - 2010.06.03 19:03:34.
