data_PCOD9369024
_publ_section_title
;
Structure prediction by ZEFSAII (Michael W. Deem and Ramdas Pophale) SiO2 
 PCOD9369024
Probable space group: F M M 2
;
_chemical_formula_sum "Si O2"
_cell_formula_units_Z 96
_cell_length_a 22.787324
_cell_length_b 18.635605
_cell_length_c 11.962380
_cell_angle_alpha 90.000000
_cell_angle_beta 90.000000
_cell_angle_gamma 90.000000
_cell_volume 5079.891286
_symmetry_space_group_name_H-M "F M M 2"
_symmetry_group_IT_number 42
_symmetry_cell_setting 'orthorhombic'
loop_
_space_group_symop_operation_xyz
x,y,z
-x,-y,z
-x,y,z
x,-y,z
x,1/2+y,1/2+z
-x,1/2-y,1/2+z
-x,1/2+y,1/2+z
x,1/2-y,1/2+z
1/2+x,y,1/2+z
1/2-x,-y,1/2+z
1/2-x,y,1/2+z
1/2+x,-y,1/2+z
1/2+x,1/2+y,z
1/2-x,1/2-y,z
1/2-x,1/2+y,z
1/2+x,1/2-y,z
loop_
_atom_site_type_symbol
_atom_site_label
_atom_site_fract_x
_atom_site_fract_y
_atom_site_fract_z
Si Si1 0.152539 0.788315 0.467190
Si Si2 0.932602 0.500000 0.238991
Si Si3 0.856140 0.637351 0.202054
Si Si4 0.931070 0.500000 0.507624
Si Si5 0.630513 0.356483 0.097401
Si Si6 0.067620 0.270352 0.783558
Si Si7 0.766523 0.670958 0.761202
O O1 0.157411 0.835961 0.577170
O O2 0.149114 0.705456 0.508779
O O3 0.092569 0.802522 0.398496
O O4 0.202883 0.809982 0.378935
O O5 0.896974 0.568975 0.200181
O O6 0.932496 0.500000 0.373580
O O7 0.000000 0.500000 0.200775
O O8 0.892230 0.701097 0.260710
O O9 0.794181 0.628253 0.264990
O O10 0.896128 0.571159 0.546996
O O11 0.000000 0.500000 0.545447
O O12 0.581351 0.321698 0.178991
O O13 0.686530 0.365684 0.179266
O O14 0.000000 0.251799 0.790923
O O15 0.750000 0.750000 0.712952
#
# Coordination Sequence:
#
# PCOD9369024 Si02
#       7
#    16   8  16   8  16  16  16
#     4  10  21  36  62  92 118 158 206 260 321 362
#     4  11  26  45  59  87 129 169 209 250 304 379
#     4  11  23  39  62  89 122 164 203 256 314 369
#     4  11  24  41  63  87 125 173 209 254 310 371
#     4  10  22  38  60  90 122 162 206 256 310 370
#     4  10  20  35  58  89 117 153 212 265 304 362
#     4  11  21  38  64  94 123 151 201 262 315 367
#
# _framework density 18.898043000000001
#
# number of rings (size 3 to 8) (size 9 to 14) (size 15 to 20)
#    0.000    1.500    5.000    2.000    2.333    6.000 
#    0.000    4.167    0.000    4.000    0.000    0.000 
#    0.000    0.000    0.000    0.000    0.000    0.000 
#
# Total GULP energy -133966.444291 kJ/mol
# GULP energy per Si atom -5581.935179 kJ/mol
# Density = 1.885503 g / cm^3
# Si number density = 18.898043 Si / 1000 Ang^3
#
#
#
# Elastic Constant Matrix: (Units=GPa)
#
#
# Indices 1 2 3 4 5 6 
#
# 1 170.2354 44.0751 61.3306 0.0000 0.0000 0.0000
# 2 44.0751 104.3411 41.2680 0.0000 0.0000 0.0000
# 3 61.3306 41.2680 106.4602 0.0000 0.0000 0.0000
# 4 0.0000 0.0000 0.0000 11.2266 0.0000 0.0000
# 5 0.0000 0.0000 0.0000 0.0000 13.9458 0.0000
# 6 0.0000 0.0000 0.0000 0.0000 0.0000 3.4041
#
#
#
# Elastic Compliance Matrix: (Units=1/GPa)
#
#
# Indices 1 2 3 4 5 6 
#
# 1 0.007678 -0.001764 -0.003739 0.000000 0.000000 0.000000
# 2 -0.001764 0.011725 -0.003529 0.000000 0.000000 0.000000
# 3 -0.003739 -0.003529 0.012915 0.000000 0.000000 0.000000
# 4 0.000000 0.000000 0.000000 0.089074 0.000000 0.000000
# 5 0.000000 0.000000 0.000000 0.000000 0.071706 0.000000
# 6 0.000000 0.000000 0.000000 0.000000 0.000000 0.293767
#
#
# Mechanical properties :
#
#
# Convention : Reuss Voigt Hill
#
# Bulk Modulus (GPa) = 70.15777 74.93155 72.54466
# Shear Modulus (GPa) = 9.81005 21.33949 15.57477
#
# Velocity S-wave (km/s) = 2.28086 3.36399 2.87391
# Velocity P-wave (km/s) = 6.64390 7.40440 7.03443
#
# Compressibility (1/GPa) = 0.01425359
#
# Stress axis : x y z
#
# Youngs Moduli (GPa) = 130.23849 85.28908 77.42817
#
# Poissons Ratio (x) = 0.15049 0.28953
# Poissons Ratio (y) = 0.22979 0.27321
# Poissons Ratio (z) = 0.48701 0.30094
#
# Static dielectric constant tensor:
#      x y z
#    x 1.674540 0.000000 0.000000 
#    y 0.000000 1.654710 0.000000 
#    z 0.000000 0.000000 1.673160 
# 
# From -- ./inp_files/8851.got.cif
#   From: 2010.05.17/outbox.cif.g08.bks.cpg/sg42_5_cif.got.tgz:8851.got - 2010.06.03 19:03:34.
