data_PCOD9369721
_publ_section_title
;
Structure prediction by ZEFSAII (Michael W. Deem and Ramdas Pophale) SiO2 
 PCOD9369721
Probable space group: F M M 2
;
_chemical_formula_sum "Si O2"
_cell_formula_units_Z 112
_cell_length_a 15.525569
_cell_length_b 23.393104
_cell_length_c 13.745747
_cell_angle_alpha 90.000000
_cell_angle_beta 90.000000
_cell_angle_gamma 90.000000
_cell_volume 4992.335039
_symmetry_space_group_name_H-M "F M M 2"
_symmetry_group_IT_number 42
_symmetry_cell_setting 'orthorhombic'
loop_
_space_group_symop_operation_xyz
x,y,z
-x,-y,z
-x,y,z
x,-y,z
x,1/2+y,1/2+z
-x,1/2-y,1/2+z
-x,1/2+y,1/2+z
x,1/2-y,1/2+z
1/2+x,y,1/2+z
1/2-x,-y,1/2+z
1/2-x,y,1/2+z
1/2+x,-y,1/2+z
1/2+x,1/2+y,z
1/2-x,1/2-y,z
1/2-x,1/2+y,z
1/2+x,1/2-y,z
loop_
_atom_site_type_symbol
_atom_site_label
_atom_site_fract_x
_atom_site_fract_y
_atom_site_fract_z
Si Si1 0.171830 0.628575 0.513450
Si Si2 0.263931 0.068470 0.707429
Si Si3 0.596140 0.269002 0.123440
Si Si4 0.347207 0.752665 0.821388
Si Si5 0.904972 0.933524 0.370554
Si Si6 0.134754 0.832574 0.487473
Si Si7 0.600681 0.621148 0.808511
O O1 0.193305 0.589134 0.606332
O O2 0.112176 0.681467 0.546019
O O3 0.263585 0.656442 0.488491
O O4 0.130942 0.600838 0.416928
O O5 0.330199 0.083612 0.795200
O O6 0.171455 0.096756 0.732787
O O7 0.254706 0.000000 0.705905
O O8 0.500000 0.272579 0.162143
O O9 0.657674 0.278918 0.214056
O O10 0.610338 0.206510 0.078184
O O11 0.250000 0.750000 0.857991
O O12 0.394005 0.794415 0.895441
O O13 0.387360 0.689992 0.812619
O O14 0.902134 0.894900 0.466667
O O15 0.000000 0.927258 0.324942
O O16 0.892354 0.000000 0.394457
O O17 0.500000 0.607754 0.789981
#
# Coordination Sequence:
#
# PCOD9369721 Si02
#       7
#    16  16  16  16  16  16  16
#     4  12  24  42  68 100 137 182 237 297 355 427
#     4  11  26  48  73 100 138 187 237 297 372 442
#     4  12  25  37  61 101 140 179 229 286 353 431
#     4  12  22  41  65  94 137 189 229 280 356 427
#     4  10  22  42  69  99 134 179 234 293 351 419
#     4  12  22  41  66  96 135 185 228 277 348 427
#     4  12  25  45  73 108 147 189 242 305 370 437
#
# _framework density 22.434391999999999
#
# number of rings (size 3 to 8) (size 9 to 14) (size 15 to 20)
#    0.000    0.429    4.286    5.143    0.000    5.429 
#    0.000    0.714    0.000    0.000    0.000    0.000 
#    0.000    0.000    0.000    0.000    0.000    0.000 
#
# Total GULP energy -156576.214272 kJ/mol
# GULP energy per Si atom -5592.007653 kJ/mol
# Density = 2.238333 g / cm^3
# Si number density = 22.434392 Si / 1000 Ang^3
#
#
#
# Elastic Constant Matrix: (Units=GPa)
#
#
# Indices 1 2 3 4 5 6 
#
# 1 109.9898 20.0731 -12.6750 0.0000 0.0000 0.0000
# 2 20.0731 85.0146 19.0195 0.0000 0.0000 0.0000
# 3 -12.6750 19.0195 62.8169 0.0000 0.0000 0.0000
# 4 0.0000 0.0000 0.0000 35.4727 0.0000 0.0000
# 5 0.0000 0.0000 0.0000 0.0000 -4.6023 0.0000
# 6 0.0000 0.0000 0.0000 0.0000 0.0000 20.0314
#
#
#
# Elastic Compliance Matrix: (Units=1/GPa)
#
#
# Indices 1 2 3 4 5 6 
#
# 1 0.009978 -0.003010 0.002925 0.000000 0.000000 0.000000
# 2 -0.003010 0.013526 -0.004703 0.000000 0.000000 0.000000
# 3 0.002925 -0.004703 0.017933 0.000000 0.000000 0.000000
# 4 0.000000 0.000000 0.000000 0.028191 0.000000 0.000000
# 5 0.000000 0.000000 0.000000 0.000000 -0.217284 0.000000
# 6 0.000000 0.000000 0.000000 0.000000 0.000000 0.049922
#
#
# Mechanical properties :
#
#
# Convention : Reuss Voigt Hill
#
# Bulk Modulus (GPa) = 31.38657 34.51737 32.95197
# Shear Modulus (GPa) = -64.48486 25.60727 -19.43880
#
# Velocity S-wave (km/s) = -5.36714 3.38217 -2.94678
# Velocity P-wave (km/s) = 4.93837 5.53818 1.77256
#
# Compressibility (1/GPa) = 0.03186076
#
# Stress axis : x y z
#
# Youngs Moduli (GPa) = 100.21864 73.93417 55.76216
#
# Poissons Ratio (x) = 0.22257 -0.16309
# Poissons Ratio (y) = 0.30169 0.26223
# Poissons Ratio (z) = -0.29312 0.34769
#
# Static dielectric constant tensor:
#      x y z
#    x 1.857120 0.000000 0.000000 
#    y 0.000000 1.818960 0.000000 
#    z 0.000000 0.000000 1.877320 
# 
# From -- ./inp_files/14216.got.cif
#   From: 2010.05.17/outbox.cif.g08.bks.cpg/sg42_8_cif.got.tgz:14216.got - 2010.06.03 19:03:34.
