data_PCOD9369471
_publ_section_title
;
Structure prediction by ZEFSAII (Michael W. Deem and Ramdas Pophale) SiO2 
 PCOD9369471
Probable space group: F M M 2
;
_chemical_formula_sum "Si O2"
_cell_formula_units_Z 96
_cell_length_a 16.603828
_cell_length_b 22.750803
_cell_length_c 13.171485
_cell_angle_alpha 90.000000
_cell_angle_beta 90.000000
_cell_angle_gamma 90.000000
_cell_volume 4975.533989
_symmetry_space_group_name_H-M "F M M 2"
_symmetry_group_IT_number 42
_symmetry_cell_setting 'orthorhombic'
loop_
_space_group_symop_operation_xyz
x,y,z
-x,-y,z
-x,y,z
x,-y,z
x,1/2+y,1/2+z
-x,1/2-y,1/2+z
-x,1/2+y,1/2+z
x,1/2-y,1/2+z
1/2+x,y,1/2+z
1/2-x,-y,1/2+z
1/2-x,y,1/2+z
1/2+x,-y,1/2+z
1/2+x,1/2+y,z
1/2-x,1/2-y,z
1/2-x,1/2+y,z
1/2+x,1/2-y,z
loop_
_atom_site_type_symbol
_atom_site_label
_atom_site_fract_x
_atom_site_fract_y
_atom_site_fract_z
Si Si1 0.405831 0.812136 0.441560
Si Si2 0.802336 0.195397 0.752472
Si Si3 0.096668 0.300105 0.058429
Si Si4 0.180744 0.878859 0.389310
Si Si5 0.673995 0.568598 0.003488
Si Si6 0.089120 0.930104 0.207939
O O1 0.500000 0.809404 0.423973
O O2 0.359993 0.785901 0.344934
O O3 0.388046 0.769629 0.537294
O O4 0.378961 0.879757 0.452653
O O5 0.750000 0.250000 0.715835
O O6 0.858425 0.177142 0.659040
O O7 0.741611 0.150725 0.807798
O O8 0.000000 0.308686 0.063352
O O9 0.136548 0.333552 0.963610
O O10 0.236611 0.919969 0.460664
O O11 0.115462 0.909596 0.318411
O O12 0.651802 0.500000 0.984596
O O13 0.656389 0.581674 0.122043
O O14 0.000000 0.906133 0.179105
O O15 0.083087 0.000000 0.209970
#
# Coordination Sequence:
#
# PCOD9369471 Si02
#       6
#    16  16  16  16  16  16
#     4  10  22  39  59  87 122 158 195 242 299 356
#     4  11  23  37  59  84 122 153 192 242 287 353
#     4  11  24  39  59  89 123 156 193 237 298 365
#     4  11  22  39  62  88 119 159 193 243 296 354
#     4  10  22  38  60  89 119 157 204 251 294 344
#     4  10  21  38  60  88 118 152 199 248 291 341
#
# _framework density 19.294411
#
# number of rings (size 3 to 8) (size 9 to 14) (size 15 to 20)
#    0.000    1.500    1.667    3.000    7.000    1.000 
#    0.000    0.000    0.000    1.000    0.000    0.000 
#    0.000    0.000    0.000    0.000    0.000    0.000 
#
# Total GULP energy -133761.371658 kJ/mol
# GULP energy per Si atom -5573.390486 kJ/mol
# Density = 1.925050 g / cm^3
# Si number density = 19.294411 Si / 1000 Ang^3
#
#
#
# Elastic Constant Matrix: (Units=GPa)
#
#
# Indices 1 2 3 4 5 6 
#
# 1 84.5935 40.2253 52.5848 0.0000 0.0000 0.0000
# 2 40.2253 48.0924 26.7914 0.0000 0.0000 0.0000
# 3 52.5848 26.7914 105.2904 0.0000 0.0000 0.0000
# 4 0.0000 0.0000 0.0000 22.6878 0.0000 0.0000
# 5 0.0000 0.0000 0.0000 0.0000 43.0899 0.0000
# 6 0.0000 0.0000 0.0000 0.0000 0.0000 6.2251
#
#
#
# Elastic Compliance Matrix: (Units=1/GPa)
#
#
# Indices 1 2 3 4 5 6 
#
# 1 0.024467 -0.015913 -0.008170 0.000000 0.000000 0.000000
# 2 -0.015913 0.034577 -0.000851 0.000000 0.000000 0.000000
# 3 -0.008170 -0.000851 0.013795 0.000000 0.000000 0.000000
# 4 0.000000 0.000000 0.000000 0.044077 0.000000 0.000000
# 5 0.000000 0.000000 0.000000 0.000000 0.023207 0.000000
# 6 0.000000 0.000000 0.000000 0.000000 0.000000 0.160639
#
#
# Mechanical properties :
#
#
# Convention : Reuss Voigt Hill
#
# Bulk Modulus (GPa) = 43.53460 53.01994 48.27727
# Shear Modulus (GPa) = 13.95531 22.29223 18.12377
#
# Velocity S-wave (km/s) = 2.69231 3.40276 3.06817
# Velocity P-wave (km/s) = 5.68129 6.55572 6.13411
#
# Compressibility (1/GPa) = 0.02297024
#
# Stress axis : x y z
#
# Youngs Moduli (GPa) = 40.87158 28.92077 72.49257
#
# Poissons Ratio (x) = 0.46022 0.59229
# Poissons Ratio (y) = 0.65039 0.06168
# Poissons Ratio (z) = 0.33393 0.02461
#
# Static dielectric constant tensor:
#      x y z
#    x 1.671120 0.000000 0.000000 
#    y 0.000000 1.680550 0.000000 
#    z 0.000000 0.000000 1.684730 
# 
# From -- ./inp_files/8796.got.cif
#   From: 2010.05.17/outbox.cif.g08.bks.cpg/sg42_5_cif.got.tgz:8796.got - 2010.06.03 19:03:34.
