data_PCOD9369298
_publ_section_title
;
Structure prediction by ZEFSAII (Michael W. Deem and Ramdas Pophale) SiO2 
 PCOD9369298
Probable space group: F M M 2
;
_chemical_formula_sum "Si O2"
_cell_formula_units_Z 116
_cell_length_a 26.945686
_cell_length_b 16.143260
_cell_length_c 13.154000
_cell_angle_alpha 90.000000
_cell_angle_beta 90.000000
_cell_angle_gamma 90.000000
_cell_volume 5721.874442
_symmetry_space_group_name_H-M "F M M 2"
_symmetry_group_IT_number 42
_symmetry_cell_setting 'orthorhombic'
loop_
_space_group_symop_operation_xyz
x,y,z
-x,-y,z
-x,y,z
x,-y,z
x,1/2+y,1/2+z
-x,1/2-y,1/2+z
-x,1/2+y,1/2+z
x,1/2-y,1/2+z
1/2+x,y,1/2+z
1/2-x,-y,1/2+z
1/2-x,y,1/2+z
1/2+x,-y,1/2+z
1/2+x,1/2+y,z
1/2-x,1/2-y,z
1/2-x,1/2+y,z
1/2+x,1/2-y,z
loop_
_atom_site_type_symbol
_atom_site_label
_atom_site_fract_x
_atom_site_fract_y
_atom_site_fract_z
Si Si1 0.946060 0.820575 0.658870
Si Si2 0.420867 0.350190 0.061137
Si Si3 0.500000 0.500000 0.029813
Si Si4 0.895688 0.262070 0.353634
Si Si5 0.879679 0.906624 0.269778
Si Si6 0.709244 0.313292 0.768365
Si Si7 0.283810 0.905804 0.898618
Si Si8 0.155800 0.402074 0.091260
O O1 0.947438 0.728154 0.613786
O O2 0.932881 0.810223 0.777854
O O3 0.898622 0.864391 0.608343
O O4 0.000000 0.860358 0.644263
O O5 0.456753 0.426130 0.033777
O O6 0.384881 0.381415 0.151916
O O7 0.397351 0.307844 0.961190
O O8 0.906332 0.163704 0.339502
O O9 0.840829 0.270013 0.305944
O O10 0.822826 0.909416 0.305890
O O11 0.900170 0.000000 0.284124
O O12 0.750000 0.250000 0.724195
O O13 0.736823 0.354694 0.863359
O O14 0.690384 0.379190 0.686485
O O15 0.269250 0.000000 0.924366
O O16 0.315413 0.869796 0.992023
O O17 0.150317 0.500000 0.079866
#
# Coordination Sequence:
#
# PCOD9369298 Si02
#       8
#    16  16   4  16  16  16  16  16
#     4  10  22  40  66  92 132 183 224 276 351 421
#     4  11  23  43  67  98 135 170 223 291 343 413
#     4  12  24  44  68 108 130 178 228 300 352 412
#     4  10  23  41  62  98 137 172 228 281 347 409
#     4  10  20  40  67  95 129 174 219 279 338 403
#     4  11  22  40  62  95 128 180 226 282 345 427
#     4  10  21  39  64  90 127 170 222 276 340 408
#     4  10  23  43  64  94 138 176 226 293 344 414
#
# _framework density 20.273076
#
# number of rings (size 3 to 8) (size 9 to 14) (size 15 to 20)
#    0.000    1.655    2.759    1.241    0.966    1.931 
#    6.207    1.379    1.517    0.000    0.000    0.000 
#    0.000    0.000    0.000    0.000    0.000    0.000 
#
# Total GULP energy -161451.630541 kJ/mol
# GULP energy per Si atom -5567.297605 kJ/mol
# Density = 2.022693 g / cm^3
# Si number density = 20.273076 Si / 1000 Ang^3
#
#
#
# Elastic Constant Matrix: (Units=GPa)
#
#
# Indices 1 2 3 4 5 6 
#
# 1 96.5574 23.5312 29.5082 0.0000 0.0000 0.0000
# 2 23.5312 100.1054 34.4863 0.0000 0.0000 0.0000
# 3 29.5082 34.4863 88.3868 0.0000 0.0000 0.0000
# 4 0.0000 0.0000 0.0000 24.8986 0.0000 0.0000
# 5 0.0000 0.0000 0.0000 0.0000 -2.9534 0.0000
# 6 0.0000 0.0000 0.0000 0.0000 0.0000 21.9247
#
#
#
# Elastic Compliance Matrix: (Units=1/GPa)
#
#
# Indices 1 2 3 4 5 6 
#
# 1 0.011759 -0.001631 -0.003290 0.000000 0.000000 0.000000
# 2 -0.001631 0.011767 -0.004047 0.000000 0.000000 0.000000
# 3 -0.003290 -0.004047 0.013991 0.000000 0.000000 0.000000
# 4 0.000000 0.000000 0.000000 0.040163 0.000000 0.000000
# 5 0.000000 0.000000 0.000000 0.000000 -0.338595 0.000000
# 6 0.000000 0.000000 0.000000 0.000000 0.000000 0.045611
#
#
# Mechanical properties :
#
#
# Convention : Reuss Voigt Hill
#
# Bulk Modulus (GPa) = 51.06475 51.12234 51.09355
# Shear Modulus (GPa) = -26.19964 21.94224 -2.12870
#
# Velocity S-wave (km/s) = -3.59881 3.29345 -1.02581
# Velocity P-wave (km/s) = 2.82393 6.30350 4.88409
#
# Compressibility (1/GPa) = 0.01958298
#
# Stress axis : x y z
#
# Youngs Moduli (GPa) = 85.03911 84.98399 71.47433
#
# Poissons Ratio (x) = 0.13860 0.23512
# Poissons Ratio (y) = 0.13869 0.28923
# Poissons Ratio (z) = 0.27974 0.34390
#
# Static dielectric constant tensor:
#      x y z
#    x 1.700540 0.000000 0.000000 
#    y 0.000000 1.762670 0.000000 
#    z 0.000000 0.000000 1.744320 
# 
# From -- ./inp_files/10731.got.cif
#   From: 2010.05.17/outbox.cif.g08.bks.cpg/sg42_6_cif.got.tgz:10731.got - 2010.06.03 19:03:34.
