data_PCOD9369996
_publ_section_title
;
Structure prediction by ZEFSAII (Michael W. Deem and Ramdas Pophale) SiO2 
 PCOD9369996
Probable space group: F M M 2
;
_chemical_formula_sum "Si O2"
_cell_formula_units_Z 20
_cell_length_a 9.000000
_cell_length_b 27.000000
_cell_length_c 18.000000
_cell_angle_alpha 90.000000
_cell_angle_beta 90.000000
_cell_angle_gamma 90.000000
_cell_volume 4374.000000
_symmetry_space_group_name_H-M "F M M 2"
_symmetry_group_IT_number 42
_symmetry_cell_setting 'orthorhombic'
loop_
_space_group_symop_operation_xyz
x,y,z
-x,-y,z
-x,y,z
x,-y,z
x,1/2+y,1/2+z
-x,1/2-y,1/2+z
-x,1/2+y,1/2+z
x,1/2-y,1/2+z
1/2+x,y,1/2+z
1/2-x,-y,1/2+z
1/2-x,y,1/2+z
1/2+x,-y,1/2+z
1/2+x,1/2+y,z
1/2-x,1/2-y,z
1/2-x,1/2+y,z
1/2+x,1/2-y,z
loop_
_atom_site_type_symbol
_atom_site_label
_atom_site_fract_x
_atom_site_fract_y
_atom_site_fract_z
Si Si1 0.824244 0.300530 0.247070
Si Si2 0.174770 0.399722 0.171399
Si Si3 0.671973 0.000000 0.491470
Si Si4 0.324684 0.698634 0.924736
Si Si5 0.170151 0.500000 0.672650
Si Si6 0.325673 0.602020 0.492989
O O1 0.750000 0.250000 0.220497
O O2 0.764790 0.349915 0.208411
O O3 0.803426 0.304317 0.335661
O O4 0.000000 0.297482 0.232253
O O5 0.252018 0.449775 0.197800
O O6 0.000000 0.403415 0.188616
O O7 0.189750 0.396161 0.082466
O O8 0.751692 0.949463 0.467161
O O9 0.500000 0.000000 0.469305
O O10 0.677602 0.000000 0.582062
O O11 0.500000 0.699947 0.940078
O O12 0.250000 0.750000 0.950349
O O13 0.252024 0.650268 0.960074
O O14 0.000000 0.500000 0.694842
O O15 0.500000 0.601980 0.475134
#
# Coordination Sequence:
#
# PCOD9369996 Si02
#       6
#    16  16   8  16   8  16
#     4   9  19  35  53  72  96 130 167 202 244 291
#     4   9  18  33  52  74 100 130 163 200 244 292
#     4   9  17  31  50  73 102 133 165 201 244 293
#     4  10  20  35  53  72  98 132 168 205 247 295
#     4   9  17  29  48  75 102 129 161 199 244 289
#     4  10  19  32  52  77 103 130 163 204 248 294
#
# _framework density 4.5724739999999997
#
# number of rings (size 3 to 8) (size 9 to 14) (size 15 to 20)
#    0.000    2.600    0.000    1.800    0.000    5.600 
#    0.000    3.000    0.000    2.400    0.000    0.000 
#    0.000    0.000    0.000    0.000    0.000    0.000 
#
# Total GULP energy -111546.751417 kJ/mol
# GULP energy per Si atom -5577.337571 kJ/mol
# Density = 0.456207 g / cm^3
# Si number density = 4.572474 Si / 1000 Ang^3
#
#
#
# Elastic Constant Matrix: (Units=GPa)
#
#
# Indices 1 2 3 4 5 6 
#
# 1 99.1459 116.7820 43.6250 0.0000 0.0000 0.0000
# 2 116.7820 247.7142 40.6489 0.0000 0.0000 0.0000
# 3 43.6250 40.6489 -2.8578 0.0000 0.0000 0.0000
# 4 0.0000 0.0000 0.0000 72.2768 0.0000 0.0000
# 5 0.0000 0.0000 0.0000 0.0000 14.3523 0.0000
# 6 0.0000 0.0000 0.0000 0.0000 0.0000 42.2470
#
#
#
# Elastic Compliance Matrix: (Units=1/GPa)
#
#
# Indices 1 2 3 4 5 6 
#
# 1 0.009355 -0.008352 0.024018 0.000000 0.000000 0.000000
# 2 -0.008352 0.008667 -0.004219 0.000000 0.000000 0.000000
# 3 0.024018 -0.004219 -0.043291 0.000000 0.000000 0.000000
# 4 0.000000 0.000000 0.000000 0.013836 0.000000 0.000000
# 5 0.000000 0.000000 0.000000 0.000000 0.069675 0.000000
# 6 0.000000 0.000000 0.000000 0.000000 0.000000 0.023670
#
#
# Mechanical properties :
#
#
# Convention : Reuss Voigt Hill
#
# Bulk Modulus (GPa) = -421.10585 82.90158 -169.10213
# Shear Modulus (GPa) = 85.87145 35.30497 60.58821
#
# Velocity S-wave (km/s) = 6.85946 4.39828 5.76182
# Velocity P-wave (km/s) = 12.96161 8.43908 6.95648
#
# Compressibility (1/GPa) = -0.00237470
#
# Stress axis : x y z
#
# Youngs Moduli (GPa) = 106.89057 115.38559 -23.09954
#
# Poissons Ratio (x) = 0.96367 0.55481
# Poissons Ratio (y) = 0.89272 -0.09746
# Poissons Ratio (z) = -2.56730 0.48683
#
# Static dielectric constant tensor:
#      x y z
#    x 1.616900 0.000000 0.000000 
#    y 0.000000 1.610710 0.000000 
#    z 0.000000 0.000000 1.619700 
# 
# From -- ./inp_files/18219.got.cif
#   From: 2010.05.17/outbox.ucp.g08.bks.cvg/sg42_10_cif.got.tgz:18219.got - 2010.06.11 16:29:10.
