data_PCOD9369636
_publ_section_title
;
Structure prediction by ZEFSAII (Michael W. Deem and Ramdas Pophale) SiO2 
 PCOD9369636
Probable space group: F M M 2
;
_chemical_formula_sum "Si O2"
_cell_formula_units_Z 84
_cell_length_a 10.524894
_cell_length_b 27.648419
_cell_length_c 13.856423
_cell_angle_alpha 90.000000
_cell_angle_beta 90.000000
_cell_angle_gamma 90.000000
_cell_volume 4032.173079
_symmetry_space_group_name_H-M "F M M 2"
_symmetry_group_IT_number 42
_symmetry_cell_setting 'orthorhombic'
loop_
_space_group_symop_operation_xyz
x,y,z
-x,-y,z
-x,y,z
x,-y,z
x,1/2+y,1/2+z
-x,1/2-y,1/2+z
-x,1/2+y,1/2+z
x,1/2-y,1/2+z
1/2+x,y,1/2+z
1/2-x,-y,1/2+z
1/2-x,y,1/2+z
1/2+x,-y,1/2+z
1/2+x,1/2+y,z
1/2-x,1/2-y,z
1/2-x,1/2+y,z
1/2+x,1/2-y,z
loop_
_atom_site_type_symbol
_atom_site_label
_atom_site_fract_x
_atom_site_fract_y
_atom_site_fract_z
Si Si1 0.358589 0.789558 0.054180
Si Si2 0.642713 0.209776 0.278997
Si Si3 0.745137 0.631514 0.416246
Si Si4 0.237092 0.551984 0.777278
Si Si5 0.850755 0.054808 0.064401
Si Si6 0.500000 0.500000 0.804287
O O1 0.500000 0.768378 0.043519
O O2 0.250000 0.750000 0.035850
O O3 0.345121 0.805440 0.166335
O O4 0.340881 0.833601 0.980956
O O5 0.500000 0.229411 0.291828
O O6 0.750000 0.250000 0.296276
O O7 0.666455 0.165916 0.351466
O O8 0.681410 0.594949 0.340390
O O9 0.816845 0.596056 0.489525
O O10 0.171727 0.500000 0.795236
O O11 0.224101 0.561582 0.663764
O O12 0.385492 0.541432 0.800863
O O13 0.000000 0.056377 0.085587
O O14 0.823980 0.000000 0.026488
#
# Coordination Sequence:
#
# PCOD9369636 Si02
#       6
#    16  16  16  16  16   4
#     4  10  24  46  65  94 127 166 208 261 319 382
#     4  10  23  42  65  86 122 162 204 253 313 377
#     4  12  22  36  63  98 119 158 208 258 312 367
#     4   9  21  39  61  89 122 168 206 256 303 365
#     4  10  22  39  60  88 125 161 208 256 311 370
#     4   8  20  40  62  84 128 166 224 250 304 376
#
# _framework density 20.832439000000001
#
# number of rings (size 3 to 8) (size 9 to 14) (size 15 to 20)
#    0.571    1.333    0.000    2.857    2.667    4.571 
#    1.714    3.810    0.000    1.143    0.000    0.000 
#    0.000    0.000    0.000    0.000    0.000    0.000 
#
# Total GULP energy -116961.470446 kJ/mol
# GULP energy per Si atom -5569.593831 kJ/mol
# Density = 2.078502 g / cm^3
# Si number density = 20.832439 Si / 1000 Ang^3
#
#
#
# Elastic Constant Matrix: (Units=GPa)
#
#
# Indices 1 2 3 4 5 6 
#
# 1 96.2566 55.0095 46.7568 0.0000 0.0000 0.0000
# 2 55.0095 117.1553 72.8481 0.0000 0.0000 0.0000
# 3 46.7568 72.8481 114.1626 0.0000 0.0000 0.0000
# 4 0.0000 0.0000 0.0000 52.4895 0.0000 0.0000
# 5 0.0000 0.0000 0.0000 0.0000 2.3678 0.0000
# 6 0.0000 0.0000 0.0000 0.0000 0.0000 24.2570
#
#
#
# Elastic Compliance Matrix: (Units=1/GPa)
#
#
# Indices 1 2 3 4 5 6 
#
# 1 0.014676 -0.005228 -0.002675 0.000000 0.000000 0.000000
# 2 -0.005228 0.016012 -0.008077 0.000000 0.000000 0.000000
# 3 -0.002675 -0.008077 0.015009 0.000000 0.000000 0.000000
# 4 0.000000 0.000000 0.000000 0.019051 0.000000 0.000000
# 5 0.000000 0.000000 0.000000 0.000000 0.422335 0.000000
# 6 0.000000 0.000000 0.000000 0.000000 0.000000 0.041225
#
#
# Mechanical properties :
#
#
# Convention : Reuss Voigt Hill
#
# Bulk Modulus (GPa) = 72.78727 75.20036 73.99382
# Shear Modulus (GPa) = 8.85197 26.02020 17.43609
#
# Velocity S-wave (km/s) = 2.06358 3.53799 2.89618
# Velocity P-wave (km/s) = 6.37911 7.27089 6.83955
#
# Compressibility (1/GPa) = 0.01373867
#
# Stress axis : x y z
#
# Youngs Moduli (GPa) = 68.13967 62.45167 66.62815
#
# Poissons Ratio (x) = 0.32648 0.17822
# Poissons Ratio (y) = 0.35621 0.53813
# Poissons Ratio (z) = 0.18226 0.50440
#
# Static dielectric constant tensor:
#      x y z
#    x 1.719890 0.000000 0.000000 
#    y 0.000000 1.761320 0.000000 
#    z 0.000000 0.000000 1.785840 
# 
# From -- ./inp_files/12926.got.cif
#   From: 2010.05.17/outbox.cif.g08.bks.cpg/sg42_7_cif.got.tgz:12926.got - 2010.06.03 19:03:34.
