data_PCOD9369362
_publ_section_title
;
Structure prediction by ZEFSAII (Michael W. Deem and Ramdas Pophale) SiO2 
 PCOD9369362
Probable space group: F M M 2
;
_chemical_formula_sum "Si O2"
_cell_formula_units_Z 112
_cell_length_a 14.184624
_cell_length_b 16.075444
_cell_length_c 22.847441
_cell_angle_alpha 90.000000
_cell_angle_beta 90.000000
_cell_angle_gamma 90.000000
_cell_volume 5209.767829
_symmetry_space_group_name_H-M "F M M 2"
_symmetry_group_IT_number 42
_symmetry_cell_setting 'orthorhombic'
loop_
_space_group_symop_operation_xyz
x,y,z
-x,-y,z
-x,y,z
x,-y,z
x,1/2+y,1/2+z
-x,1/2-y,1/2+z
-x,1/2+y,1/2+z
x,1/2-y,1/2+z
1/2+x,y,1/2+z
1/2-x,-y,1/2+z
1/2-x,y,1/2+z
1/2+x,-y,1/2+z
1/2+x,1/2+y,z
1/2-x,1/2-y,z
1/2-x,1/2+y,z
1/2+x,1/2-y,z
loop_
_atom_site_type_symbol
_atom_site_label
_atom_site_fract_x
_atom_site_fract_y
_atom_site_fract_z
Si Si1 0.280643 0.153580 0.582730
Si Si2 0.886127 0.902707 0.198230
Si Si3 0.108240 0.127854 0.965048
Si Si4 0.384620 0.274961 0.300396
Si Si5 0.384678 0.090490 0.334007
Si Si6 0.603844 0.903607 0.039311
Si Si7 0.392363 0.819243 0.925755
O O1 0.250000 0.250000 0.575764
O O2 0.343854 0.131991 0.638034
O O3 0.334806 0.119719 0.525121
O O4 0.178660 0.111502 0.589409
O O5 0.857575 0.836138 0.248162
O O6 0.000000 0.901630 0.195561
O O7 0.858801 0.000000 0.208284
O O8 0.143643 0.092398 0.902885
O O9 0.105559 0.225925 0.950021
O O10 0.000000 0.099918 0.973996
O O11 0.500000 0.274234 0.302746
O O12 0.356610 0.177074 0.302130
O O13 0.350118 0.315027 0.361612
O O14 0.500000 0.092468 0.334678
O O15 0.355755 0.000000 0.309299
O O16 0.500000 0.864291 0.048511
O O17 0.592076 0.000000 0.032295
O O18 0.648467 0.870827 0.978836
O O19 0.500000 0.850343 0.919250
#
# Coordination Sequence:
#
# PCOD9369362 Si02
#       7
#    16  16  16  16  16  16  16
#     4  12  23  36  59  84 119 165 206 255 307 362
#     4  10  22  39  60  90 125 163 210 259 308 367
#     4   9  17  31  53  86 124 158 194 239 299 366
#     4   8  15  30  55  86 122 158 197 247 302 364
#     4   8  14  26  51  89 129 165 200 242 297 369
#     4  10  21  36  55  83 118 153 197 252 305 361
#     4   8  14  29  54  84 114 148 189 233 291 363
#
# _framework density 21.498079000000001
#
# number of rings (size 3 to 8) (size 9 to 14) (size 15 to 20)
#    0.000    2.714    1.429    2.571    0.000    2.286 
#    0.000    4.286    6.286    1.714    0.000    2.000 
#    0.000    0.000    0.000    0.286    0.000    0.286 
#
# Total GULP energy -156050.122044 kJ/mol
# GULP energy per Si atom -5573.218644 kJ/mol
# Density = 2.144915 g / cm^3
# Si number density = 21.498079 Si / 1000 Ang^3
#
#
#
# Elastic Constant Matrix: (Units=GPa)
#
#
# Indices 1 2 3 4 5 6 
#
# 1 67.6060 21.2241 41.9308 0.0000 0.0000 0.0000
# 2 21.2241 104.4965 24.8532 0.0000 0.0000 0.0000
# 3 41.9308 24.8532 82.6619 0.0000 0.0000 0.0000
# 4 0.0000 0.0000 0.0000 4.5035 0.0000 0.0000
# 5 0.0000 0.0000 0.0000 0.0000 22.0834 0.0000
# 6 0.0000 0.0000 0.0000 0.0000 0.0000 11.5239
#
#
#
# Elastic Compliance Matrix: (Units=1/GPa)
#
#
# Indices 1 2 3 4 5 6 
#
# 1 0.021944 -0.001949 -0.010545 0.000000 0.000000 0.000000
# 2 -0.001949 0.010480 -0.002162 0.000000 0.000000 0.000000
# 3 -0.010545 -0.002162 0.018097 0.000000 0.000000 0.000000
# 4 0.000000 0.000000 0.000000 0.222051 0.000000 0.000000
# 5 0.000000 0.000000 0.000000 0.000000 0.045283 0.000000
# 6 0.000000 0.000000 0.000000 0.000000 0.000000 0.086776
#
#
# Mechanical properties :
#
#
# Convention : Reuss Voigt Hill
#
# Bulk Modulus (GPa) = 47.15298 47.86452 47.50875
# Shear Modulus (GPa) = 11.33756 18.73924 15.03840
#
# Velocity S-wave (km/s) = 2.29896 2.95561 2.64772
# Velocity P-wave (km/s) = 5.38778 5.82755 5.61198
#
# Compressibility (1/GPa) = 0.02120757
#
# Stress axis : x y z
#
# Youngs Moduli (GPa) = 45.57099 95.42153 55.25878
#
# Poissons Ratio (x) = 0.18597 0.58271
# Poissons Ratio (y) = 0.08881 0.11948
# Poissons Ratio (z) = 0.48055 0.20633
#
# Static dielectric constant tensor:
#      x y z
#    x 1.844180 0.000000 0.000000 
#    y 0.000000 1.826270 0.000000 
#    z 0.000000 0.000000 1.772960 
# 
# From -- ./inp_files/29527.got.cif
#   From: 2010.05.17/outbox.cif.g08.bks.cpg/sg42_15_cif.got.tgz:29527.got - 2010.06.03 19:03:34.
