data_PCOD9369335
_publ_section_title
;
Structure prediction by ZEFSAII (Michael W. Deem and Ramdas Pophale) SiO2 
 PCOD9369335
Probable space group: F M M 2
;
_chemical_formula_sum "Si O2"
_cell_formula_units_Z 100
_cell_length_a 30.311224
_cell_length_b 7.769219
_cell_length_c 20.594588
_cell_angle_alpha 90.000000
_cell_angle_beta 90.000000
_cell_angle_gamma 90.000000
_cell_volume 4849.912974
_symmetry_space_group_name_H-M "F M M 2"
_symmetry_group_IT_number 42
_symmetry_cell_setting 'orthorhombic'
loop_
_space_group_symop_operation_xyz
x,y,z
-x,-y,z
-x,y,z
x,-y,z
x,1/2+y,1/2+z
-x,1/2-y,1/2+z
-x,1/2+y,1/2+z
x,1/2-y,1/2+z
1/2+x,y,1/2+z
1/2-x,-y,1/2+z
1/2-x,y,1/2+z
1/2+x,-y,1/2+z
1/2+x,1/2+y,z
1/2-x,1/2-y,z
1/2-x,1/2+y,z
1/2+x,1/2-y,z
loop_
_atom_site_type_symbol
_atom_site_label
_atom_site_fract_x
_atom_site_fract_y
_atom_site_fract_z
Si Si1 0.636574 0.203793 0.337860
Si Si2 0.299075 0.702724 0.452677
Si Si3 0.831704 0.210110 0.590556
Si Si4 0.298659 0.206497 0.228379
Si Si5 0.568572 0.295962 0.122964
Si Si6 0.500000 0.500000 0.584514
Si Si7 0.049433 0.205275 0.272732
O O1 0.661888 0.253889 0.403000
O O2 0.664573 0.277488 0.277242
O O3 0.585715 0.248496 0.326147
O O4 0.639315 0.000000 0.334162
O O5 0.298765 0.500000 0.459362
O O6 0.250000 0.750000 0.429427
O O7 0.309517 0.774761 0.524284
O O8 0.806081 0.268616 0.655108
O O9 0.881658 0.274015 0.598393
O O10 0.832507 0.000000 0.590121
O O11 0.250000 0.250000 0.252025
O O12 0.302727 0.000000 0.226925
O O13 0.555828 0.500000 0.116959
O O14 0.538037 0.154812 0.088263
O O15 0.565200 0.247203 0.199949
O O16 0.000000 0.276034 0.283031
O O17 0.046479 0.000000 0.272836
#
# Coordination Sequence:
#
# PCOD9369335 Si02
#       7
#    16  16  16  16  16   4  16
#     4  11  23  38  62  89 123 165 209 262 320 379
#     4  11  24  42  65  89 125 171 216 261 319 387
#     4  10  21  40  62  88 125 167 209 265 328 377
#     4  10  21  35  56  87 120 156 202 257 324 384
#     4  11  22  36  62  97 128 172 215 264 322 385
#     4  12  22  36  64  90 144 164 218 264 322 382
#     4  10  21  37  60  93 127 160 210 261 317 383
#
# _framework density 20.618925999999998
#
# number of rings (size 3 to 8) (size 9 to 14) (size 15 to 20)
#    0.000    1.440    3.200    2.160    1.120    4.800 
#    0.000    0.000    1.760    0.000    0.000    0.000 
#    0.000    0.000    0.000    0.000    0.000    0.000 
#
# Total GULP energy -139336.246554 kJ/mol
# GULP energy per Si atom -5573.449862 kJ/mol
# Density = 2.057200 g / cm^3
# Si number density = 20.618926 Si / 1000 Ang^3
#
#
#
# Elastic Constant Matrix: (Units=GPa)
#
#
# Indices 1 2 3 4 5 6 
#
# 1 114.5060 5.4724 26.1626 0.0000 0.0000 0.0000
# 2 5.4724 63.5722 1.6740 0.0000 0.0000 0.0000
# 3 26.1626 1.6740 82.1234 0.0000 0.0000 0.0000
# 4 0.0000 0.0000 0.0000 21.7488 0.0000 0.0000
# 5 0.0000 0.0000 0.0000 0.0000 -5.0370 0.0000
# 6 0.0000 0.0000 0.0000 0.0000 0.0000 29.9135
#
#
#
# Elastic Compliance Matrix: (Units=1/GPa)
#
#
# Indices 1 2 3 4 5 6 
#
# 1 0.009453 -0.000735 -0.002997 0.000000 0.000000 0.000000
# 2 -0.000735 0.015796 -0.000088 0.000000 0.000000 0.000000
# 3 -0.002997 -0.000088 0.013133 0.000000 0.000000 0.000000
# 4 0.000000 0.000000 0.000000 0.045979 0.000000 0.000000
# 5 0.000000 0.000000 0.000000 0.000000 -0.198532 0.000000
# 6 0.000000 0.000000 0.000000 0.000000 0.000000 0.033430
#
#
# Mechanical properties :
#
#
# Convention : Reuss Voigt Hill
#
# Bulk Modulus (GPa) = 32.52727 36.31331 34.42029
# Shear Modulus (GPa) = -79.54867 24.45124 -27.54871
#
# Velocity S-wave (km/s) = -6.21805 3.44737 -3.65922
# Velocity P-wave (km/s) = 5.97851 5.78755 1.05991
#
# Compressibility (1/GPa) = 0.03074343
#
# Stress axis : x y z
#
# Youngs Moduli (GPa) = 105.78729 63.30828 76.14292
#
# Poissons Ratio (x) = 0.04652 0.22816
# Poissons Ratio (y) = 0.07774 0.00669
# Poissons Ratio (z) = 0.31699 0.00556
#
# Static dielectric constant tensor:
#      x y z
#    x 1.755180 0.000000 0.000000 
#    y 0.000000 1.736230 0.000000 
#    z 0.000000 0.000000 1.833000 
# 
# From -- ./inp_files/23817.got.cif
#   From: 2010.05.17/outbox.cif.g08.bks.cpg/sg42_12_cif.got.tgz:23817.got - 2010.06.03 19:03:34.
