data_PCOD9369283
_publ_section_title
;
Structure prediction by ZEFSAII (Michael W. Deem and Ramdas Pophale) SiO2 
 PCOD9369283
Probable space group: F M M 2
;
_chemical_formula_sum "Si O2"
_cell_formula_units_Z 88
_cell_length_a 15.117544
_cell_length_b 18.277407
_cell_length_c 15.844918
_cell_angle_alpha 90.000000
_cell_angle_beta 90.000000
_cell_angle_gamma 90.000000
_cell_volume 4378.101442
_symmetry_space_group_name_H-M "F M M 2"
_symmetry_group_IT_number 42
_symmetry_cell_setting 'orthorhombic'
loop_
_space_group_symop_operation_xyz
x,y,z
-x,-y,z
-x,y,z
x,-y,z
x,1/2+y,1/2+z
-x,1/2-y,1/2+z
-x,1/2+y,1/2+z
x,1/2-y,1/2+z
1/2+x,y,1/2+z
1/2-x,-y,1/2+z
1/2-x,y,1/2+z
1/2+x,-y,1/2+z
1/2+x,1/2+y,z
1/2-x,1/2-y,z
1/2-x,1/2+y,z
1/2+x,1/2-y,z
loop_
_atom_site_type_symbol
_atom_site_label
_atom_site_fract_x
_atom_site_fract_y
_atom_site_fract_z
Si Si1 0.673345 0.808864 0.241900
Si Si2 0.500000 0.181609 0.858350
Si Si3 0.641485 0.081149 0.938205
Si Si4 0.500000 0.776331 0.679710
Si Si5 0.602226 0.417378 0.633979
Si Si6 0.347204 0.913409 0.403158
Si Si7 0.000000 0.823745 0.983166
O O1 0.750000 0.750000 0.257229
O O2 0.588605 0.766229 0.206390
O O3 0.682623 0.868384 0.167899
O O4 0.650893 0.860803 0.320978
O O5 0.588962 0.142841 0.889559
O O6 0.500000 0.167044 0.757547
O O7 0.500000 0.259866 0.909736
O O8 0.746543 0.090086 0.935295
O O9 0.620804 0.000000 0.903992
O O10 0.607446 0.083898 0.033600
O O11 0.500000 0.794018 0.579923
O O12 0.500000 0.397403 0.657364
O O13 0.614821 0.500000 0.664279
O O14 0.415378 0.875395 0.466824
O O15 0.368119 0.000000 0.387776
#
# Coordination Sequence:
#
# PCOD9369283 Si02
#       7
#    16   8  16   8  16  16   8
#     4  12  24  43  66 101 135 174 225 282 345 400
#     4  12  21  43  69  97 139 176 221 278 347 406
#     4  10  22  41  67  98 132 180 228 278 336 403
#     4  12  26  43  60 103 137 174 226 270 347 405
#     4  10  20  39  68  98 131 173 228 283 337 400
#     4  11  25  47  71  96 133 182 232 278 336 406
#     4  12  27  44  69  98 136 178 223 286 344 401
#
# _framework density 20.100037
#
# number of rings (size 3 to 8) (size 9 to 14) (size 15 to 20)
#    0.000    0.909    3.636    3.273    2.545    0.000 
#    0.000    1.818    0.000    0.000    0.000    0.000 
#    0.000    0.000    0.000    0.000    0.000    0.000 
#
# Total GULP energy -122555.974580 kJ/mol
# GULP energy per Si atom -5570.726117 kJ/mol
# Density = 2.005429 g / cm^3
# Si number density = 20.100037 Si / 1000 Ang^3
#
#
#
# Elastic Constant Matrix: (Units=GPa)
#
#
# Indices 1 2 3 4 5 6 
#
# 1 98.4092 66.5319 32.3280 0.0000 0.0000 0.0000
# 2 66.5319 111.7078 36.1017 0.0000 0.0000 0.0000
# 3 32.3280 36.1017 75.9006 0.0000 0.0000 0.0000
# 4 0.0000 0.0000 0.0000 32.8091 0.0000 0.0000
# 5 0.0000 0.0000 0.0000 0.0000 10.7646 0.0000
# 6 0.0000 0.0000 0.0000 0.0000 0.0000 -74.1664
#
#
#
# Elastic Compliance Matrix: (Units=1/GPa)
#
#
# Indices 1 2 3 4 5 6 
#
# 1 0.017557 -0.009500 -0.002959 0.000000 0.000000 0.000000
# 2 -0.009500 0.015719 -0.003430 0.000000 0.000000 0.000000
# 3 -0.002959 -0.003430 0.016067 0.000000 0.000000 0.000000
# 4 0.000000 0.000000 0.000000 0.030479 0.000000 0.000000
# 5 0.000000 0.000000 0.000000 0.000000 0.092897 0.000000
# 6 0.000000 0.000000 0.000000 0.000000 0.000000 -0.013483
#
#
# Mechanical properties :
#
#
# Convention : Reuss Voigt Hill
#
# Bulk Modulus (GPa) = 56.93641 61.77119 59.35380
# Shear Modulus (GPa) = 25.39762 3.95184 14.67473
#
# Velocity S-wave (km/s) = 3.55852 1.40369 2.70494
# Velocity P-wave (km/s) = 6.72845 5.78150 6.27287
#
# Compressibility (1/GPa) = 0.01756345
#
# Stress axis : x y z
#
# Youngs Moduli (GPa) = 56.95878 63.61856 62.23937
#
# Poissons Ratio (x) = 0.60439 0.18417
# Poissons Ratio (y) = 0.54112 0.21349
# Poissons Ratio (z) = 0.16855 0.21822
#
# Static dielectric constant tensor:
#      x y z
#    x 1.695180 0.000000 0.000000 
#    y 0.000000 1.673650 0.000000 
#    z 0.000000 0.000000 1.781990 
# 
# From -- ./inp_files/13942.got.cif
#   From: 2010.05.17/outbox.cif.g08.bks.cpg/sg42_7_cif.got.tgz:13942.got - 2010.06.03 19:03:34.
