data_PCOD9369322
_publ_section_title
;
Structure prediction by ZEFSAII (Michael W. Deem and Ramdas Pophale) SiO2 
 PCOD9369322
Probable space group: F M M 2
;
_chemical_formula_sum "Si O2"
_cell_formula_units_Z 92
_cell_length_a 7.732031
_cell_length_b 24.767566
_cell_length_c 27.710535
_cell_angle_alpha 90.000000
_cell_angle_beta 90.000000
_cell_angle_gamma 90.000000
_cell_volume 5306.666881
_symmetry_space_group_name_H-M "F M M 2"
_symmetry_group_IT_number 42
_symmetry_cell_setting 'orthorhombic'
loop_
_space_group_symop_operation_xyz
x,y,z
-x,-y,z
-x,y,z
x,-y,z
x,1/2+y,1/2+z
-x,1/2-y,1/2+z
-x,1/2+y,1/2+z
x,1/2-y,1/2+z
1/2+x,y,1/2+z
1/2-x,-y,1/2+z
1/2-x,y,1/2+z
1/2+x,-y,1/2+z
1/2+x,1/2+y,z
1/2-x,1/2-y,z
1/2-x,1/2+y,z
1/2+x,1/2-y,z
loop_
_atom_site_type_symbol
_atom_site_label
_atom_site_fract_x
_atom_site_fract_y
_atom_site_fract_z
Si Si1 0.000000 0.565406 0.762118
Si Si2 0.204260 0.688409 0.000222
Si Si3 0.793584 0.313113 0.113346
Si Si4 0.699714 0.434867 0.835832
Si Si5 0.802590 0.911640 0.942970
Si Si6 0.500000 0.500000 0.091893
Si Si7 0.000000 0.110200 0.154670
Si Si8 0.312718 0.000000 0.016689
O O1 0.168955 0.580340 0.793558
O O2 0.000000 0.593227 0.710408
O O3 0.000000 0.500000 0.756125
O O4 0.250000 0.750000 0.990019
O O5 0.247362 0.678056 0.056424
O O6 0.000000 0.680325 0.994865
O O7 0.297396 0.647788 0.964629
O O8 0.750000 0.250000 0.123654
O O9 0.668416 0.353582 0.141829
O O10 0.000000 0.321606 0.120552
O O11 0.500000 0.417677 0.827836
O O12 0.700713 0.500000 0.838726
O O13 0.761871 0.414576 0.888234
O O14 0.000000 0.932006 0.941182
O O15 0.705213 0.949132 0.981044
O O16 0.500000 0.554722 0.123528
O O17 0.664958 0.500000 0.056544
O O18 0.500000 0.000000 0.040436
#
# Coordination Sequence:
#
# PCOD9369322 Si02
#       8
#     8  16  16  16  16   4   8   8
#     4  10  22  40  60  85 114 155 197 238 302 362
#     4  10  21  34  53  84 119 158 196 233 285 348
#     4  10  21  39  63  92 118 156 210 255 293 354
#     4   9  19  35  57  84 115 147 198 249 284 343
#     4  11  20  34  56  86 118 158 195 238 292 342
#     4  12  26  42  52  88 142 170 188 244 304 374
#     4  12  24  40  66  87 123 163 200 249 317 358
#     4  12  24  36  55  85 125 165 200 232 286 351
#
# _framework density 17.336682
#
# number of rings (size 3 to 8) (size 9 to 14) (size 15 to 20)
#    0.000    1.565    3.043    2.087    4.870    2.783 
#    0.000    0.000    0.000    1.043    0.000    0.000 
#    0.000    0.000    0.000    0.000    0.000    0.000 
#
# Total GULP energy -128415.931354 kJ/mol
# GULP energy per Si atom -5583.301363 kJ/mol
# Density = 1.729722 g / cm^3
# Si number density = 17.336682 Si / 1000 Ang^3
#
#
#
# Elastic Constant Matrix: (Units=GPa)
#
#
# Indices 1 2 3 4 5 6 
#
# 1 111.2974 44.6835 74.6833 0.0000 0.0000 0.0000
# 2 44.6835 82.0887 70.1981 0.0000 0.0000 0.0000
# 3 74.6833 70.1981 140.8203 0.0000 0.0000 0.0000
# 4 0.0000 0.0000 0.0000 -10.6103 0.0000 0.0000
# 5 0.0000 0.0000 0.0000 0.0000 17.8185 0.0000
# 6 0.0000 0.0000 0.0000 0.0000 0.0000 19.7957
#
#
#
# Elastic Compliance Matrix: (Units=1/GPa)
#
#
# Indices 1 2 3 4 5 6 
#
# 1 0.014182 -0.002245 -0.006403 0.000000 0.000000 0.000000
# 2 -0.002245 0.021589 -0.009571 0.000000 0.000000 0.000000
# 3 -0.006403 -0.009571 0.015268 0.000000 0.000000 0.000000
# 4 0.000000 0.000000 0.000000 -0.094248 0.000000 0.000000
# 5 0.000000 0.000000 0.000000 0.000000 0.056122 0.000000
# 6 0.000000 0.000000 0.000000 0.000000 0.000000 0.050516
#
#
# Mechanical properties :
#
#
# Convention : Reuss Voigt Hill
#
# Bulk Modulus (GPa) = 68.48441 79.25957 73.87199
# Shear Modulus (GPa) = 47.73998 15.04354 31.39176
#
# Velocity S-wave (km/s) = 5.25326 2.94892 4.25986
# Velocity P-wave (km/s) = 8.73980 7.57707 8.17912
#
# Compressibility (1/GPa) = 0.01460186
#
# Stress axis : x y z
#
# Youngs Moduli (GPa) = 70.50967 46.32025 65.49613
#
# Poissons Ratio (x) = 0.10398 0.41934
# Poissons Ratio (y) = 0.15828 0.62689
# Poissons Ratio (z) = 0.45144 0.44335
#
# Static dielectric constant tensor:
#      x y z
#    x 1.635780 0.000000 0.000000 
#    y 0.000000 1.631990 0.000000 
#    z 0.000000 0.000000 1.559000 
# 
# From -- ./inp_files/28138.got.cif
#   From: 2010.05.17/outbox.cif.g08.bks.cpg/sg42_15_cif.got.tgz:28138.got - 2010.06.03 19:03:34.
