data_PCOD9369268
_publ_section_title
;
Structure prediction by ZEFSAII (Michael W. Deem and Ramdas Pophale) SiO2 
 PCOD9369268
Probable space group: F M M 2
;
_chemical_formula_sum "Si O2"
_cell_formula_units_Z 112
_cell_length_a 30.324921
_cell_length_b 12.973365
_cell_length_c 12.848867
_cell_angle_alpha 90.000000
_cell_angle_beta 90.000000
_cell_angle_gamma 90.000000
_cell_volume 5054.953313
_symmetry_space_group_name_H-M "F M M 2"
_symmetry_group_IT_number 42
_symmetry_cell_setting 'orthorhombic'
loop_
_space_group_symop_operation_xyz
x,y,z
-x,-y,z
-x,y,z
x,-y,z
x,1/2+y,1/2+z
-x,1/2-y,1/2+z
-x,1/2+y,1/2+z
x,1/2-y,1/2+z
1/2+x,y,1/2+z
1/2-x,-y,1/2+z
1/2-x,y,1/2+z
1/2+x,-y,1/2+z
1/2+x,1/2+y,z
1/2-x,1/2-y,z
1/2-x,1/2+y,z
1/2+x,1/2-y,z
loop_
_atom_site_type_symbol
_atom_site_label
_atom_site_fract_x
_atom_site_fract_y
_atom_site_fract_z
Si Si1 0.767144 0.115979 0.328020
Si Si2 0.807613 0.278004 0.205762
Si Si3 0.093969 0.328343 0.218904
Si Si4 0.948508 0.685178 0.015805
Si Si5 0.298164 0.618081 0.019010
Si Si6 0.052512 0.385588 0.783706
Si Si7 0.398423 0.112620 0.450445
O O1 0.805396 0.196791 0.302403
O O2 0.730186 0.141683 0.239626
O O3 0.741580 0.129840 0.436744
O O4 0.782813 0.000000 0.321497
O O5 0.854300 0.330647 0.195357
O O6 0.799135 0.207548 0.104744
O O7 0.067455 0.369487 0.120491
O O8 0.078881 0.209363 0.235439
O O9 0.087423 0.381084 0.329920
O O10 0.941795 0.623982 0.908619
O O11 0.921179 0.791092 0.005116
O O12 0.000000 0.709418 0.023679
O O13 0.295060 0.500000 0.061764
O O14 0.345446 0.622271 0.960519
O O15 0.066152 0.500000 0.749851
O O16 0.000000 0.372835 0.762697
O O17 0.410700 0.000000 0.492817
#
# Coordination Sequence:
#
# PCOD9369268 Si02
#       7
#    16  16  16  16  16  16  16
#     4  10  23  41  60  85 118 155 194 243 297 355
#     4  11  22  37  63  89 117 153 198 246 298 353
#     4  11  21  36  61  88 117 153 201 244 293 349
#     4  10  21  38  59  86 120 158 200 245 292 349
#     4  10  20  39  62  84 115 152 191 240 300 351
#     4   9  20  38  57  82 119 157 192 239 295 344
#     4  10  21  38  61  86 119 156 195 245 296 353
#
# _framework density 22.156485
#
# number of rings (size 3 to 8) (size 9 to 14) (size 15 to 20)
#    0.000    1.857    2.857    0.857    0.000    5.429 
#    0.000    0.000    0.000    0.857    0.000    0.000 
#    0.000    0.000    0.000    0.000    0.000    0.000 
#
# Total GULP energy -156455.607752 kJ/mol
# GULP energy per Si atom -5587.700277 kJ/mol
# Density = 2.210606 g / cm^3
# Si number density = 22.156485 Si / 1000 Ang^3
#
#
#
# Elastic Constant Matrix: (Units=GPa)
#
#
# Indices 1 2 3 4 5 6 
#
# 1 30.7835 -7.1137 0.4517 0.0000 0.0000 0.0000
# 2 -7.1137 72.6139 -11.6304 0.0000 0.0000 0.0000
# 3 0.4517 -11.6304 97.4040 0.0000 0.0000 0.0000
# 4 0.0000 0.0000 0.0000 6.2885 0.0000 0.0000
# 5 0.0000 0.0000 0.0000 0.0000 32.2800 0.0000
# 6 0.0000 0.0000 0.0000 0.0000 0.0000 24.4089
#
#
#
# Elastic Compliance Matrix: (Units=1/GPa)
#
#
# Indices 1 2 3 4 5 6 
#
# 1 0.033243 0.003295 0.000239 0.000000 0.000000 0.000000
# 2 0.003295 0.014367 0.001700 0.000000 0.000000 0.000000
# 3 0.000239 0.001700 0.010468 0.000000 0.000000 0.000000
# 4 0.000000 0.000000 0.000000 0.159019 0.000000 0.000000
# 5 0.000000 0.000000 0.000000 0.000000 0.030979 0.000000
# 6 0.000000 0.000000 0.000000 0.000000 0.000000 0.040969
#
#
# Mechanical properties :
#
#
# Convention : Reuss Voigt Hill
#
# Bulk Modulus (GPa) = 14.58862 18.24631 16.41747
# Shear Modulus (GPa) = 16.58788 27.20173 21.89481
#
# Velocity S-wave (km/s) = 2.73915 3.50767 3.14696
# Velocity P-wave (km/s) = 4.07463 4.96569 4.54206
#
# Compressibility (1/GPa) = 0.06854657
#
# Stress axis : x y z
#
# Youngs Moduli (GPa) = 30.08166 69.60600 95.52545
#
# Poissons Ratio (x) = -0.22935 -0.02285
# Poissons Ratio (y) = -0.09912 -0.16241
# Poissons Ratio (z) = -0.00720 -0.11834
#
# Static dielectric constant tensor:
#      x y z
#    x 1.772900 0.000000 0.000000 
#    y 0.000000 1.821030 0.000000 
#    z 0.000000 0.000000 1.835380 
# 
# From -- ./inp_files/8142.got.cif
#   From: 2010.05.17/outbox.cif.g08.bks.cpg/sg42_5_cif.got.tgz:8142.got - 2010.06.03 19:03:34.
