data_PCOD9369623
_publ_section_title
;
Structure prediction by ZEFSAII (Michael W. Deem and Ramdas Pophale) SiO2 
 PCOD9369623
Probable space group: F M M 2
;
_chemical_formula_sum "Si O2"
_cell_formula_units_Z 112
_cell_length_a 11.500784
_cell_length_b 19.876611
_cell_length_c 23.566048
_cell_angle_alpha 90.000000
_cell_angle_beta 90.000000
_cell_angle_gamma 90.000000
_cell_volume 5387.118678
_symmetry_space_group_name_H-M "F M M 2"
_symmetry_group_IT_number 42
_symmetry_cell_setting 'orthorhombic'
loop_
_space_group_symop_operation_xyz
x,y,z
-x,-y,z
-x,y,z
x,-y,z
x,1/2+y,1/2+z
-x,1/2-y,1/2+z
-x,1/2+y,1/2+z
x,1/2-y,1/2+z
1/2+x,y,1/2+z
1/2-x,-y,1/2+z
1/2-x,y,1/2+z
1/2+x,-y,1/2+z
1/2+x,1/2+y,z
1/2-x,1/2-y,z
1/2-x,1/2+y,z
1/2+x,1/2-y,z
loop_
_atom_site_type_symbol
_atom_site_label
_atom_site_fract_x
_atom_site_fract_y
_atom_site_fract_z
Si Si1 0.638375 0.925085 0.448790
Si Si2 0.128547 0.422261 0.798187
Si Si3 0.375828 0.785240 0.014088
Si Si4 0.871453 0.077739 0.729989
Si Si5 0.700830 0.823951 0.893755
Si Si6 0.700830 0.823951 0.134420
Si Si7 0.861625 0.425085 0.579385
O O1 0.500000 0.925460 0.447550
O O2 0.688031 0.869397 0.408326
O O3 0.673802 0.912057 0.514088
O O4 0.679652 0.000000 0.433350
O O5 0.131759 0.500000 0.819778
O O6 0.250000 0.414194 0.764088
O O7 0.133791 0.364512 0.845674
O O8 0.000000 0.416232 0.768856
O O9 0.500000 0.745974 0.014088
O O10 0.250000 0.750000 0.014088
O O11 0.370314 0.821313 0.075109
O O12 0.370314 0.821313 0.953066
O O13 0.866209 0.135488 0.682501
O O14 0.000000 0.083768 0.759319
O O15 0.868241 0.000000 0.708397
O O16 0.750000 0.750000 0.878992
O O17 0.750000 0.750000 0.149184
O O18 0.811969 0.869397 0.119849
O O19 0.820348 0.500000 0.594825
O O20 0.000000 0.425460 0.580625
#
# Coordination Sequence:
#
# PCOD9369623 Si02
#       7
#    16  16  16  16  16  16  16
#     4   9  18  33  54  83 122 168 213 252 293 353
#     4  10  23  45  69  91 120 160 210 264 318 378
#     4  10  22  38  57  86 129 173 207 241 297 368
#     4  10  23  45  69  91 120 160 210 264 318 378
#     4  11  22  37  60  94 129 166 204 256 313 373
#     4  11  22  37  60  94 129 166 204 256 313 373
#     4   9  18  33  54  83 122 168 213 252 293 353
#
# _framework density 20.790334000000001
#
# number of rings (size 3 to 8) (size 9 to 14) (size 15 to 20)
#    0.000    2.000    1.429    2.571    0.000    7.429 
#    0.000    4.286    0.000    3.429    0.000    0.000 
#    0.000    0.000    0.000    0.000    0.000    0.000 
#
# Total GULP energy -155945.198594 kJ/mol
# GULP energy per Si atom -5569.471378 kJ/mol
# Density = 2.074301 g / cm^3
# Si number density = 20.790334 Si / 1000 Ang^3
#
#
#
# Elastic Constant Matrix: (Units=GPa)
#
#
# Indices 1 2 3 4 5 6 
#
# 1 147.9787 45.8125 46.2152 0.0000 0.0000 0.0000
# 2 45.8125 134.2378 37.2648 0.0000 0.0000 0.0000
# 3 46.2152 37.2648 52.6693 0.0000 0.0000 0.0000
# 4 0.0000 0.0000 0.0000 76.9809 0.0000 0.0000
# 5 0.0000 0.0000 0.0000 0.0000 15.8879 0.0000
# 6 0.0000 0.0000 0.0000 0.0000 0.0000 20.2617
#
#
#
# Elastic Compliance Matrix: (Units=1/GPa)
#
#
# Indices 1 2 3 4 5 6 
#
# 1 0.009449 -0.001149 -0.007478 0.000000 0.000000 0.000000
# 2 -0.001149 0.009410 -0.005650 0.000000 0.000000 0.000000
# 3 -0.007478 -0.005650 0.029546 0.000000 0.000000 0.000000
# 4 0.000000 0.000000 0.000000 0.012990 0.000000 0.000000
# 5 0.000000 0.000000 0.000000 0.000000 0.062941 0.000000
# 6 0.000000 0.000000 0.000000 0.000000 0.000000 0.049354
#
#
# Mechanical properties :
#
#
# Convention : Reuss Voigt Hill
#
# Bulk Modulus (GPa) = 50.37556 65.94117 58.15837
# Shear Modulus (GPa) = 23.93941 36.33231 30.13586
#
# Velocity S-wave (km/s) = 3.39701 4.18492 3.81138
# Velocity P-wave (km/s) = 6.29834 7.42546 6.88500
#
# Compressibility (1/GPa) = 0.01985090
#
# Stress axis : x y z
#
# Youngs Moduli (GPa) = 105.83241 106.27112 33.84591
#
# Poissons Ratio (x) = 0.12208 0.25311
# Poissons Ratio (y) = 0.12157 0.19122
# Poissons Ratio (z) = 0.79145 0.60041
#
# Static dielectric constant tensor:
#      x y z
#    x 1.789630 0.000000 0.000000 
#    y 0.000000 1.779940 0.000000 
#    z 0.000000 0.000000 1.791390 
# 
# From -- ./inp_files/28943.got.cif
#   From: 2010.05.17/outbox.cif.g08.bks.cpg/sg42_15_cif.got.tgz:28943.got - 2010.06.03 19:03:34.
