data_PCOD9369631
_publ_section_title
;
Structure prediction by ZEFSAII (Michael W. Deem and Ramdas Pophale) SiO2 
 PCOD9369631
Probable space group: F M M 2
;
_chemical_formula_sum "Si O2"
_cell_formula_units_Z 80
_cell_length_a 26.830291
_cell_length_b 14.587106
_cell_length_c 10.707161
_cell_angle_alpha 90.000000
_cell_angle_beta 90.000000
_cell_angle_gamma 90.000000
_cell_volume 4190.529043
_symmetry_space_group_name_H-M "F M M 2"
_symmetry_group_IT_number 42
_symmetry_cell_setting 'orthorhombic'
loop_
_space_group_symop_operation_xyz
x,y,z
-x,-y,z
-x,y,z
x,-y,z
x,1/2+y,1/2+z
-x,1/2-y,1/2+z
-x,1/2+y,1/2+z
x,1/2-y,1/2+z
1/2+x,y,1/2+z
1/2-x,-y,1/2+z
1/2-x,y,1/2+z
1/2+x,-y,1/2+z
1/2+x,1/2+y,z
1/2-x,1/2-y,z
1/2-x,1/2+y,z
1/2+x,1/2-y,z
loop_
_atom_site_type_symbol
_atom_site_label
_atom_site_fract_x
_atom_site_fract_y
_atom_site_fract_z
Si Si1 0.208638 0.399286 0.875000
Si Si2 0.056306 0.396067 0.361235
Si Si3 0.778931 0.655864 0.599996
Si Si4 0.944039 0.396489 0.062044
Si Si5 0.133228 0.252694 0.468491
O O1 0.185459 0.500000 0.898665
O O2 0.172929 0.310956 0.894215
O O3 0.224989 0.102908 0.230349
O O4 0.252695 0.388094 0.977728
O O5 0.067579 0.500000 0.405754
O O6 0.054173 0.399648 0.211705
O O7 0.098320 0.323537 0.395795
O O8 0.000000 0.371999 0.405698
O O9 0.750000 0.750000 0.622943
O O10 0.834780 0.686073 0.564619
O O11 0.932318 0.500000 0.018173
O O12 0.000000 0.373258 0.016856
O O13 0.903729 0.321856 0.026584
#
# Coordination Sequence:
#
# PCOD9369631 Si02
#       5
#    16  16  16  16  16
#     4  11  23  39  58  82 113 147 185 230 281 336
#     4   9  19  35  54  78 109 145 184 223 265 320
#     4  10  22  39  57  80 111 148 188 230 278 332
#     4   9  18  33  53  79 111 146 183 221 265 322
#     4  11  20  34  57  83 110 141 183 231 278 323
#
# _framework density 19.090667
#
# number of rings (size 3 to 8) (size 9 to 14) (size 15 to 20)
#    0.000    2.000    0.000    6.000    0.000    3.200 
#    0.000    4.000    0.000    0.000    0.000    8.400 
#    0.000    0.000    0.000    0.000    0.000    0.000 
#
# Total GULP energy -111444.048299 kJ/mol
# GULP energy per Si atom -5572.202415 kJ/mol
# Density = 1.904722 g / cm^3
# Si number density = 19.090667 Si / 1000 Ang^3
#
#
#
# Elastic Constant Matrix: (Units=GPa)
#
#
# Indices 1 2 3 4 5 6 
#
# 1 101.5010 46.8019 45.9865 0.0000 0.0000 0.0000
# 2 46.8019 105.2258 38.8373 0.0000 0.0000 0.0000
# 3 45.9865 38.8373 92.5463 0.0000 0.0000 0.0000
# 4 0.0000 0.0000 0.0000 18.9099 0.0000 0.0000
# 5 0.0000 0.0000 0.0000 0.0000 17.5212 0.0000
# 6 0.0000 0.0000 0.0000 0.0000 0.0000 10.2905
#
#
#
# Elastic Compliance Matrix: (Units=1/GPa)
#
#
# Indices 1 2 3 4 5 6 
#
# 1 0.014256 -0.004409 -0.005234 0.000000 0.000000 0.000000
# 2 -0.004409 0.012609 -0.003100 0.000000 0.000000 0.000000
# 3 -0.005234 -0.003100 0.014707 0.000000 0.000000 0.000000
# 4 0.000000 0.000000 0.000000 0.052882 0.000000 0.000000
# 5 0.000000 0.000000 0.000000 0.000000 0.057074 0.000000
# 6 0.000000 0.000000 0.000000 0.000000 0.000000 0.097177
#
#
# Mechanical properties :
#
#
# Convention : Reuss Voigt Hill
#
# Bulk Modulus (GPa) = 62.16686 62.50273 62.33479
# Shear Modulus (GPa) = 17.88568 20.52084 19.20326
#
# Velocity S-wave (km/s) = 3.06417 3.28215 3.17503
# Velocity P-wave (km/s) = 6.71964 6.86836 6.79441
#
# Compressibility (1/GPa) = 0.01608574
#
# Stress axis : x y z
#
# Youngs Moduli (GPa) = 70.14388 79.30978 67.99433
#
# Poissons Ratio (x) = 0.34969 0.35586
# Poissons Ratio (y) = 0.30928 0.21081
# Poissons Ratio (z) = 0.36711 0.24589
#
# Static dielectric constant tensor:
#      x y z
#    x 1.694810 0.000000 0.000000 
#    y 0.000000 1.669210 0.000000 
#    z 0.000000 0.000000 1.656080 
# 
# From -- ./inp_files/7765.got.cif
#   From: 2010.05.17/outbox.cif.g08.bks.cpg/sg42_4_cif.got.tgz:7765.got - 2010.06.03 19:03:34.
