data_PCOD9369640
_publ_section_title
;
Structure prediction by ZEFSAII (Michael W. Deem and Ramdas Pophale) SiO2 
 PCOD9369640
Probable space group: F M M 2
;
_chemical_formula_sum "Si O2"
_cell_formula_units_Z 84
_cell_length_a 11.502399
_cell_length_b 21.189153
_cell_length_c 14.497337
_cell_angle_alpha 90.000000
_cell_angle_beta 90.000000
_cell_angle_gamma 90.000000
_cell_volume 3533.379295
_symmetry_space_group_name_H-M "F M M 2"
_symmetry_group_IT_number 42
_symmetry_cell_setting 'orthorhombic'
loop_
_space_group_symop_operation_xyz
x,y,z
-x,-y,z
-x,y,z
x,-y,z
x,1/2+y,1/2+z
-x,1/2-y,1/2+z
-x,1/2+y,1/2+z
x,1/2-y,1/2+z
1/2+x,y,1/2+z
1/2-x,-y,1/2+z
1/2-x,y,1/2+z
1/2+x,-y,1/2+z
1/2+x,1/2+y,z
1/2-x,1/2-y,z
1/2-x,1/2+y,z
1/2+x,1/2-y,z
loop_
_atom_site_type_symbol
_atom_site_label
_atom_site_fract_x
_atom_site_fract_y
_atom_site_fract_z
Si Si1 0.214108 0.429673 0.449550
Si Si2 0.631323 0.709552 0.982733
Si Si3 0.622337 0.772695 0.704348
Si Si4 0.500000 0.000000 0.686852
Si Si5 0.820640 0.599148 0.760015
Si Si6 0.370251 0.426462 0.630338
O O1 0.155291 0.500000 0.456028
O O2 0.143800 0.363707 0.450048
O O3 0.292970 0.429958 0.358328
O O4 0.298438 0.423580 0.536824
O O5 0.500000 0.732295 0.954386
O O6 0.750000 0.750000 0.957774
O O7 0.628855 0.710227 0.094986
O O8 0.500000 0.736706 0.717324
O O9 0.750000 0.750000 0.728262
O O10 0.616886 0.835114 0.765593
O O11 0.601674 0.945816 0.696492
O O12 0.698433 0.609542 0.708793
O O13 0.500000 0.403594 0.615540
O O14 0.373923 0.500000 0.659312
#
# Coordination Sequence:
#
# PCOD9369640 Si02
#       6
#    16  16  16   4  16  16
#     4  11  24  41  68 106 142 181 232 286 357 423
#     4  10  23  46  70 102 138 183 237 294 355 424
#     4  10  22  42  68  97 131 176 233 287 346 411
#     4  12  24  40  70 100 144 174 236 288 352 416
#     4  12  23  42  67 103 134 182 228 290 344 419
#     4  10  22  39  61  93 136 178 222 277 351 414
#
# _framework density 23.773275000000002
#
# number of rings (size 3 to 8) (size 9 to 14) (size 15 to 20)
#    0.000    1.333    4.762    0.000    1.333    3.429 
#    0.000    1.905    0.000    0.000    0.000    0.000 
#    0.000    0.000    0.000    0.000    0.000    0.000 
#
# Total GULP energy -116910.434581 kJ/mol
# GULP energy per Si atom -5567.163551 kJ/mol
# Density = 2.371917 g / cm^3
# Si number density = 23.773275 Si / 1000 Ang^3
#
#
#
# Elastic Constant Matrix: (Units=GPa)
#
#
# Indices 1 2 3 4 5 6 
#
# 1 191.1553 72.4360 14.9774 0.0000 0.0000 0.0000
# 2 72.4360 96.1059 7.6464 0.0000 0.0000 0.0000
# 3 14.9774 7.6464 72.3038 0.0000 0.0000 0.0000
# 4 0.0000 0.0000 0.0000 26.8461 0.0000 0.0000
# 5 0.0000 0.0000 0.0000 0.0000 -2.9102 0.0000
# 6 0.0000 0.0000 0.0000 0.0000 0.0000 22.6734
#
#
#
# Elastic Compliance Matrix: (Units=1/GPa)
#
#
# Indices 1 2 3 4 5 6 
#
# 1 0.007387 -0.005492 -0.000949 0.000000 0.000000 0.000000
# 2 -0.005492 0.014577 -0.000404 0.000000 0.000000 0.000000
# 3 -0.000949 -0.000404 0.014070 0.000000 0.000000 0.000000
# 4 0.000000 0.000000 0.000000 0.037249 0.000000 0.000000
# 5 0.000000 0.000000 0.000000 0.000000 -0.343614 0.000000
# 6 0.000000 0.000000 0.000000 0.000000 0.000000 0.044105
#
#
# Mechanical properties :
#
#
# Convention : Reuss Voigt Hill
#
# Bulk Modulus (GPa) = 44.75686 61.07606 52.91646
# Shear Modulus (GPa) = -24.37973 26.95551 1.28789
#
# Velocity S-wave (km/s) = -3.20583 3.37093 0.73683
# Velocity P-wave (km/s) = 2.27250 6.39514 4.79906
#
# Compressibility (1/GPa) = 0.02234294
#
# Stress axis : x y z
#
# Youngs Moduli (GPa) = 135.37529 68.60248 71.07371
#
# Poissons Ratio (x) = 0.37677 0.06747
# Poissons Ratio (y) = 0.74349 0.02871
# Poissons Ratio (z) = 0.12852 0.02771
#
# Static dielectric constant tensor:
#      x y z
#    x 1.951800 0.000000 0.000000 
#    y 0.000000 1.899830 0.000000 
#    z 0.000000 0.000000 1.864750 
# 
# From -- ./inp_files/12919.got.cif
#   From: 2010.05.17/outbox.cif.g08.bks.cpg/sg42_7_cif.got.tgz:12919.got - 2010.06.03 19:03:34.
