data_PCOD9369284
_publ_section_title
;
Structure prediction by ZEFSAII (Michael W. Deem and Ramdas Pophale) SiO2 
 PCOD9369284
Probable space group: F M M 2
;
_chemical_formula_sum "Si O2"
_cell_formula_units_Z 64
_cell_length_a 13.512706
_cell_length_b 26.213197
_cell_length_c 7.184552
_cell_angle_alpha 90.000000
_cell_angle_beta 90.000000
_cell_angle_gamma 90.000000
_cell_volume 2544.848961
_symmetry_space_group_name_H-M "F M M 2"
_symmetry_group_IT_number 42
_symmetry_cell_setting 'orthorhombic'
loop_
_space_group_symop_operation_xyz
x,y,z
-x,-y,z
-x,y,z
x,-y,z
x,1/2+y,1/2+z
-x,1/2-y,1/2+z
-x,1/2+y,1/2+z
x,1/2-y,1/2+z
1/2+x,y,1/2+z
1/2-x,-y,1/2+z
1/2-x,y,1/2+z
1/2+x,-y,1/2+z
1/2+x,1/2+y,z
1/2-x,1/2-y,z
1/2-x,1/2+y,z
1/2+x,1/2-y,z
loop_
_atom_site_type_symbol
_atom_site_label
_atom_site_fract_x
_atom_site_fract_y
_atom_site_fract_z
Si Si1 0.116089 0.679865 0.844700
Si Si2 0.611702 0.060833 0.506956
Si Si3 0.803119 0.615556 0.165980
Si Si4 0.616940 0.704204 0.913953
O O1 0.158629 0.633447 0.964667
O O2 0.127142 0.682716 0.621756
O O3 0.144647 0.736516 0.914598
O O4 0.000000 0.677160 0.881096
O O5 0.500000 0.076955 0.563896
O O6 0.701845 0.085262 0.622856
O O7 0.629807 0.079050 0.294291
O O8 0.617066 0.000000 0.520009
O O9 0.817105 0.669457 0.279024
O O10 0.500000 0.700708 0.858969
#
# Coordination Sequence:
#
# PCOD9369284 Si02
#       4
#    16  16  16  16
#     4  10  20  39  75 125 178 228 274 324 394 484
#     4  11  28  56  86 118 159 209 276 354 425 494
#     4  12  25  48  84 118 159 217 277 336 405 484
#     4  10  20  39  74 124 176 225 278 326 388 488
#
# _framework density 25.14884
#
# number of rings (size 3 to 8) (size 9 to 14) (size 15 to 20)
#    0.000    1.250    2.500    3.000    3.500    0.000 
#    0.000    6.250    0.000   10.500    0.000    0.000 
#    0.000    0.000    0.000    0.000    0.000    0.000 
#
# Total GULP energy -89614.473003 kJ/mol
# GULP energy per Si atom -5600.904563 kJ/mol
# Density = 2.509160 g / cm^3
# Si number density = 25.148840 Si / 1000 Ang^3
#
#
#
# Elastic Constant Matrix: (Units=GPa)
#
#
# Indices 1 2 3 4 5 6 
#
# 1 195.1879 68.4357 56.3967 0.0000 0.0000 0.0000
# 2 68.4357 161.0225 50.3721 0.0000 0.0000 0.0000
# 3 56.3967 50.3721 137.7985 0.0000 0.0000 0.0000
# 4 0.0000 0.0000 0.0000 32.8218 0.0000 0.0000
# 5 0.0000 0.0000 0.0000 0.0000 43.5623 0.0000
# 6 0.0000 0.0000 0.0000 0.0000 0.0000 52.3686
#
#
#
# Elastic Compliance Matrix: (Units=1/GPa)
#
#
# Indices 1 2 3 4 5 6 
#
# 1 0.006407 -0.002149 -0.001837 0.000000 0.000000 0.000000
# 2 -0.002149 0.007733 -0.001947 0.000000 0.000000 0.000000
# 3 -0.001837 -0.001947 0.008721 0.000000 0.000000 0.000000
# 4 0.000000 0.000000 0.000000 0.030468 0.000000 0.000000
# 5 0.000000 0.000000 0.000000 0.000000 0.022956 0.000000
# 6 0.000000 0.000000 0.000000 0.000000 0.000000 0.019095
#
#
# Mechanical properties :
#
#
# Convention : Reuss Voigt Hill
#
# Bulk Modulus (GPa) = 90.95040 93.82422 92.38731
# Shear Modulus (GPa) = 45.08172 47.00418 46.04295
#
# Velocity S-wave (km/s) = 4.23850 4.32793 4.28345
# Velocity P-wave (km/s) = 7.75864 7.89704 7.82815
#
# Compressibility (1/GPa) = 0.01099500
#
# Stress axis : x y z
#
# Youngs Moduli (GPa) = 156.07142 129.32228 114.67081
#
# Poissons Ratio (x) = 0.27785 0.21064
# Poissons Ratio (y) = 0.33532 0.22330
# Poissons Ratio (z) = 0.28669 0.25183
#
# Static dielectric constant tensor:
#      x y z
#    x 2.130120 0.000000 0.000000 
#    y 0.000000 1.975260 0.000000 
#    z 0.000000 0.000000 1.997840 
# 
# From -- ./inp_files/2909.got.cif
#   From: 2010.05.17/outbox.cif.g08.bks.cpg/sg42_2_cif.got.tgz:2909.got - 2010.06.03 19:03:34.
