data_PCOD9369098
_publ_section_title
;
Structure prediction by ZEFSAII (Michael W. Deem and Ramdas Pophale) SiO2 
 PCOD9369098
Probable space group: F M M 2
;
_chemical_formula_sum "Si O2"
_cell_formula_units_Z 100
_cell_length_a 30.247375
_cell_length_b 7.551456
_cell_length_c 20.303701
_cell_angle_alpha 90.000000
_cell_angle_beta 90.000000
_cell_angle_gamma 90.000000
_cell_volume 4637.603297
_symmetry_space_group_name_H-M "F M M 2"
_symmetry_group_IT_number 42
_symmetry_cell_setting 'orthorhombic'
loop_
_space_group_symop_operation_xyz
x,y,z
-x,-y,z
-x,y,z
x,-y,z
x,1/2+y,1/2+z
-x,1/2-y,1/2+z
-x,1/2+y,1/2+z
x,1/2-y,1/2+z
1/2+x,y,1/2+z
1/2-x,-y,1/2+z
1/2-x,y,1/2+z
1/2+x,-y,1/2+z
1/2+x,1/2+y,z
1/2-x,1/2-y,z
1/2-x,1/2+y,z
1/2+x,1/2-y,z
loop_
_atom_site_type_symbol
_atom_site_label
_atom_site_fract_x
_atom_site_fract_y
_atom_site_fract_z
Si Si1 0.632108 0.200156 0.163530
Si Si2 0.799504 0.211176 0.052595
Si Si3 0.428747 0.785844 0.431705
Si Si4 0.674473 0.212950 0.409535
Si Si5 0.299262 0.786736 0.267651
Si Si6 0.500000 0.500000 0.388491
Si Si7 0.549034 0.209149 0.581345
O O1 0.664397 0.206967 0.100539
O O2 0.661413 0.284956 0.221468
O O3 0.585071 0.265989 0.137999
O O4 0.623743 0.000000 0.184167
O O5 0.750000 0.250000 0.075220
O O6 0.807433 0.000000 0.053371
O O7 0.805156 0.278869 0.977946
O O8 0.378055 0.756927 0.411338
O O9 0.461599 0.657732 0.393005
O O10 0.434551 0.732261 0.509046
O O11 0.437774 0.000000 0.425620
O O12 0.695468 0.281382 0.342161
O O13 0.680900 0.000000 0.409899
O O14 0.250000 0.750000 0.242405
O O15 0.303426 0.000000 0.268745
O O16 0.500000 0.283796 0.594381
O O17 0.544765 0.000000 0.574420
#
# Coordination Sequence:
#
# PCOD9369098 Si02
#       7
#    16  16  16  16  16   4  16
#     4  11  23  36  58  87 119 153 198 250 296 360
#     4  11  21  35  56  84 115 149 189 242 302 360
#     4  10  20  36  58  89 124 163 200 256 311 365
#     4   9  19  38  61  81 116 158 197 243 305 366
#     4  10  22  41  61  85 115 159 204 245 304 369
#     4  12  22  32  60  94 128 156 210 248 306 382
#     4  10  20  36  59  85 118 157 197 240 307 364
#
# _framework density 21.562863
#
# number of rings (size 3 to 8) (size 9 to 14) (size 15 to 20)
#    0.000    1.760    2.400    2.160    1.120    2.880 
#    2.880    0.000    1.760    0.000    0.000    0.000 
#    0.000    0.000    0.000    0.000    0.000    0.000 
#
# Total GULP energy -139320.930029 kJ/mol
# GULP energy per Si atom -5572.837201 kJ/mol
# Density = 2.151378 g / cm^3
# Si number density = 21.562863 Si / 1000 Ang^3
#
#
#
# Elastic Constant Matrix: (Units=GPa)
#
#
# Indices 1 2 3 4 5 6 
#
# 1 113.1759 2.2263 20.2666 0.0000 0.0000 -0.0001
# 2 2.2263 69.1278 -11.7522 0.0000 0.0000 -0.0001
# 3 20.2666 -11.7522 72.0485 0.0000 0.0000 0.0000
# 4 0.0000 0.0000 0.0000 11.7186 0.0000 0.0000
# 5 0.0000 0.0000 0.0000 0.0000 6.5820 0.0000
# 6 -0.0001 -0.0001 0.0000 0.0000 0.0000 30.0814
#
#
#
# Elastic Compliance Matrix: (Units=1/GPa)
#
#
# Indices 1 2 3 4 5 6 
#
# 1 0.009344 -0.000769 -0.002754 0.000000 0.000000 0.000000
# 2 -0.000769 0.014942 0.002654 0.000000 0.000000 0.000000
# 3 -0.002754 0.002654 0.015087 0.000000 0.000000 0.000000
# 4 0.000000 0.000000 0.000000 0.085334 0.000000 0.000000
# 5 0.000000 0.000000 0.000000 0.000000 0.151930 0.000000
# 6 0.000000 0.000000 0.000000 0.000000 0.000000 0.033243
#
#
# Mechanical properties :
#
#
# Convention : Reuss Voigt Hill
#
# Bulk Modulus (GPa) = 26.57159 30.64819 28.60989
# Shear Modulus (GPa) = 15.42432 25.91717 20.67074
#
# Velocity S-wave (km/s) = 2.67745 3.47066 3.09953
# Velocity P-wave (km/s) = 4.68059 5.50499 5.10944
#
# Compressibility (1/GPa) = 0.03763417
#
# Stress axis : x y z
#
# Youngs Moduli (GPa) = 107.01976 66.92609 66.28217
#
# Poissons Ratio (x) = 0.05147 0.18253
# Poissons Ratio (y) = 0.08231 -0.17588
# Poissons Ratio (z) = 0.29472 -0.17759
#
# Static dielectric constant tensor:
#      x y z
#    x 1.776290 0.000000 0.000000 
#    y 0.000000 1.826360 0.000000 
#    z 0.000000 0.000000 1.804500 
# 
# From -- ./inp_files/23996.got.cif
#   From: 2010.05.17/outbox.cif.g08.bks.cpg/sg42_12_cif.got.tgz:23996.got - 2010.06.03 19:03:34.
