data_PCOD9369412
_publ_section_title
;
Structure prediction by ZEFSAII (Michael W. Deem and Ramdas Pophale) SiO2 
 PCOD9369412
Probable space group: F M M 2
;
_chemical_formula_sum "Si O2"
_cell_formula_units_Z 80
_cell_length_a 8.820087
_cell_length_b 15.953277
_cell_length_c 29.379095
_cell_angle_alpha 90.000000
_cell_angle_beta 90.000000
_cell_angle_gamma 90.000000
_cell_volume 4133.911630
_symmetry_space_group_name_H-M "F M M 2"
_symmetry_group_IT_number 42
_symmetry_cell_setting 'orthorhombic'
loop_
_space_group_symop_operation_xyz
x,y,z
-x,-y,z
-x,y,z
x,-y,z
x,1/2+y,1/2+z
-x,1/2-y,1/2+z
-x,1/2+y,1/2+z
x,1/2-y,1/2+z
1/2+x,y,1/2+z
1/2-x,-y,1/2+z
1/2-x,y,1/2+z
1/2+x,-y,1/2+z
1/2+x,1/2+y,z
1/2-x,1/2-y,z
1/2-x,1/2+y,z
1/2+x,1/2-y,z
loop_
_atom_site_type_symbol
_atom_site_label
_atom_site_fract_x
_atom_site_fract_y
_atom_site_fract_z
Si Si1 0.180960 0.163183 0.785030
Si Si2 0.684309 0.000000 0.229341
Si Si3 0.325792 0.097011 0.874237
Si Si4 0.182810 0.500000 0.123430
Si Si5 0.681965 0.843388 0.568932
Si Si6 0.819215 0.657801 0.463842
O O1 0.250000 0.250000 0.768063
O O2 0.234700 0.083760 0.755422
O O3 0.233490 0.148301 0.836860
O O4 0.000000 0.167048 0.783326
O O5 0.726937 0.000000 0.176585
O O6 0.500000 0.000000 0.231281
O O7 0.500000 0.125905 0.875147
O O8 0.255237 0.103857 0.924241
O O9 0.321992 0.000000 0.860136
O O10 0.247498 0.583861 0.099823
O O11 0.000000 0.500000 0.119997
O O12 0.500000 0.839782 0.574650
O O13 0.750000 0.750000 0.576941
O O14 0.713674 0.866896 0.515984
O O15 0.750000 0.750000 0.457905
O O16 0.000000 0.659262 0.458201
#
# Coordination Sequence:
#
# PCOD9369412 Si02
#       6
#    16   8  16   8  16  16
#     4  11  22  41  65  89 120 159 200 245 300 358
#     4   9  22  43  64  89 120 155 200 249 304 365
#     4  11  23  37  56  87 123 158 202 247 293 353
#     4  11  23  41  66  93 124 159 200 255 314 369
#     4  10  22  41  63  92 125 163 208 253 303 363
#     4  10  21  37  58  83 118 159 202 245 292 350
#
# _framework density 19.352131
#
# number of rings (size 3 to 8) (size 9 to 14) (size 15 to 20)
#    0.000    1.600    1.000    3.300    1.400    4.400 
#    0.000    6.000    0.000    0.000    0.000    0.000 
#    0.000    0.000    0.000    0.000    0.000    0.000 
#
# Total GULP energy -111749.843323 kJ/mol
# GULP energy per Si atom -5587.492166 kJ/mol
# Density = 1.930808 g / cm^3
# Si number density = 19.352131 Si / 1000 Ang^3
#
#
#
# Elastic Constant Matrix: (Units=GPa)
#
#
# Indices 1 2 3 4 5 6 
#
# 1 85.3683 54.3755 52.6290 0.0000 0.0000 0.0000
# 2 54.3755 141.3174 85.9462 0.0000 0.0000 0.0000
# 3 52.6290 85.9462 120.5955 0.0000 0.0000 0.0000
# 4 0.0000 0.0000 0.0000 10.0526 0.0000 0.0000
# 5 0.0000 0.0000 0.0000 0.0000 22.6336 0.0000
# 6 0.0000 0.0000 0.0000 0.0000 0.0000 34.9484
#
#
#
# Elastic Compliance Matrix: (Units=1/GPa)
#
#
# Indices 1 2 3 4 5 6 
#
# 1 0.016993 -0.003580 -0.004865 0.000000 0.000000 0.000000
# 2 -0.003580 0.013244 -0.007876 0.000000 0.000000 0.000000
# 3 -0.004865 -0.007876 0.016029 0.000000 0.000000 0.000000
# 4 0.000000 0.000000 0.000000 0.099476 0.000000 0.000000
# 5 0.000000 0.000000 0.000000 0.000000 0.044182 0.000000
# 6 0.000000 0.000000 0.000000 0.000000 0.000000 0.028614
#
#
# Mechanical properties :
#
#
# Convention : Reuss Voigt Hill
#
# Bulk Modulus (GPa) = 73.40142 81.46470 77.43306
# Shear Modulus (GPa) = 19.55254 23.81563 21.68409
#
# Velocity S-wave (km/s) = 3.18206 3.51186 3.35102
# Velocity P-wave (km/s) = 7.17721 7.65713 7.42105
#
# Compressibility (1/GPa) = 0.01362372
#
# Stress axis : x y z
#
# Youngs Moduli (GPa) = 58.84687 75.50553 62.38884
#
# Poissons Ratio (x) = 0.27032 0.30349
# Poissons Ratio (y) = 0.21068 0.49140
# Poissons Ratio (z) = 0.28626 0.59471
#
# Static dielectric constant tensor:
#      x y z
#    x 1.655080 0.000000 0.000000 
#    y 0.000000 1.664530 0.000000 
#    z 0.000000 0.000000 1.660470 
# 
# From -- ./inp_files/31327.got.cif
#   From: 2010.05.17/outbox.cif.g08.bks.cpg/sg42_16_cif.got.tgz:31327.got - 2010.06.03 19:03:34.
