data_PCOD9369193
_publ_section_title
;
Structure prediction by ZEFSAII (Michael W. Deem and Ramdas Pophale) SiO2 
 PCOD9369193
Probable space group: F M M 2
;
_chemical_formula_sum "Si O2"
_cell_formula_units_Z 80
_cell_length_a 18.823061
_cell_length_b 13.852286
_cell_length_c 15.480521
_cell_angle_alpha 90.000000
_cell_angle_beta 90.000000
_cell_angle_gamma 90.000000
_cell_volume 4036.428576
_symmetry_space_group_name_H-M "F M M 2"
_symmetry_group_IT_number 42
_symmetry_cell_setting 'orthorhombic'
loop_
_space_group_symop_operation_xyz
x,y,z
-x,-y,z
-x,y,z
x,-y,z
x,1/2+y,1/2+z
-x,1/2-y,1/2+z
-x,1/2+y,1/2+z
x,1/2-y,1/2+z
1/2+x,y,1/2+z
1/2-x,-y,1/2+z
1/2-x,y,1/2+z
1/2+x,-y,1/2+z
1/2+x,1/2+y,z
1/2-x,1/2-y,z
1/2-x,1/2+y,z
1/2+x,1/2-y,z
loop_
_atom_site_type_symbol
_atom_site_label
_atom_site_fract_x
_atom_site_fract_y
_atom_site_fract_z
Si Si1 0.230622 0.616752 0.071790
Si Si2 0.201768 0.113853 0.256077
Si Si3 0.581160 0.263788 0.801396
Si Si4 0.318949 0.385509 0.905602
Si Si5 0.921558 0.383704 0.124174
O O1 0.228915 0.500000 0.067658
O O2 0.266638 0.641785 0.162912
O O3 0.148123 0.647381 0.071243
O O4 0.279086 0.646711 0.992118
O O5 0.133659 0.175824 0.281120
O O6 0.263315 0.127970 0.326978
O O7 0.184902 0.000000 0.254147
O O8 0.500000 0.233755 0.814586
O O9 0.612737 0.323563 0.881329
O O10 0.583433 0.334484 0.717951
O O11 0.335282 0.500000 0.911001
O O12 0.918043 0.500000 0.134755
O O13 0.000000 0.360421 0.087705
#
# Coordination Sequence:
#
# PCOD9369193 Si02
#       5
#    16  16  16  16  16
#     4   9  18  35  61  88 116 156 199 243 296 355
#     4  10  21  40  60  82 117 159 205 248 291 352
#     4  11  22  37  57  87 122 156 196 245 302 354
#     4  10  20  37  62  91 118 151 199 248 298 355
#     4   9  17  32  57  89 121 150 187 243 306 357
#
# _framework density 19.819500999999999
#
# number of rings (size 3 to 8) (size 9 to 14) (size 15 to 20)
#    0.000    2.200    2.000    1.200    0.000    1.600 
#    7.200    2.000    0.000    7.200    0.000    0.000 
#    0.000    0.000    0.000    0.000    0.000    0.000 
#
# Total GULP energy -111746.816635 kJ/mol
# GULP energy per Si atom -5587.340832 kJ/mol
# Density = 1.977439 g / cm^3
# Si number density = 19.819501 Si / 1000 Ang^3
#
#
#
# Elastic Constant Matrix: (Units=GPa)
#
#
# Indices 1 2 3 4 5 6 
#
# 1 128.5590 39.5312 12.5499 0.0000 0.0000 0.0000
# 2 39.5312 80.2155 5.4181 0.0000 0.0000 0.0000
# 3 12.5499 5.4181 72.0143 0.0000 0.0000 0.0000
# 4 0.0000 0.0000 0.0000 0.9837 0.0000 0.0000
# 5 0.0000 0.0000 0.0000 0.0000 28.3120 0.0000
# 6 0.0000 0.0000 0.0000 0.0000 0.0000 24.7124
#
#
#
# Elastic Compliance Matrix: (Units=1/GPa)
#
#
# Indices 1 2 3 4 5 6 
#
# 1 0.009284 -0.004489 -0.001280 0.000000 0.000000 0.000000
# 2 -0.004489 0.014700 -0.000324 0.000000 0.000000 0.000000
# 3 -0.001280 -0.000324 0.014134 0.000000 0.000000 0.000000
# 4 0.000000 0.000000 0.000000 1.016586 0.000000 0.000000
# 5 0.000000 0.000000 0.000000 0.000000 0.035321 0.000000
# 6 0.000000 0.000000 0.000000 0.000000 0.000000 0.040466
#
#
# Mechanical properties :
#
#
# Convention : Reuss Voigt Hill
#
# Bulk Modulus (GPa) = 38.56168 43.97636 41.26902
# Shear Modulus (GPa) = 4.34284 25.68760 15.01522
#
# Velocity S-wave (km/s) = 1.48188 3.60401 2.75544
# Velocity P-wave (km/s) = 4.73567 6.28929 5.56694
#
# Compressibility (1/GPa) = 0.02593248
#
# Stress axis : x y z
#
# Youngs Moduli (GPa) = 107.71525 68.02558 70.75350
#
# Poissons Ratio (x) = 0.30534 0.09058
# Poissons Ratio (y) = 0.48350 0.02291
# Poissons Ratio (z) = 0.13789 0.02202
#
# Static dielectric constant tensor:
#      x y z
#    x 1.683830 0.000000 0.000000 
#    y 0.000000 1.724330 0.000000 
#    z 0.000000 0.000000 1.683760 
# 
# From -- ./inp_files/13817.got.cif
#   From: 2010.05.17/outbox.cif.g08.bks.cpg/sg42_7_cif.got.tgz:13817.got - 2010.06.03 19:03:34.
