data_PCOD9369201
_publ_section_title
;
Structure prediction by ZEFSAII (Michael W. Deem and Ramdas Pophale) SiO2 
 PCOD9369201
Probable space group: F M M 2
;
_chemical_formula_sum "Si O2"
_cell_formula_units_Z 120
_cell_length_a 22.849194
_cell_length_b 20.722839
_cell_length_c 12.128576
_cell_angle_alpha 90.000000
_cell_angle_beta 90.000000
_cell_angle_gamma 90.000000
_cell_volume 5742.882780
_symmetry_space_group_name_H-M "F M M 2"
_symmetry_group_IT_number 42
_symmetry_cell_setting 'orthorhombic'
loop_
_space_group_symop_operation_xyz
x,y,z
-x,-y,z
-x,y,z
x,-y,z
x,1/2+y,1/2+z
-x,1/2-y,1/2+z
-x,1/2+y,1/2+z
x,1/2-y,1/2+z
1/2+x,y,1/2+z
1/2-x,-y,1/2+z
1/2-x,y,1/2+z
1/2+x,-y,1/2+z
1/2+x,1/2+y,z
1/2-x,1/2-y,z
1/2-x,1/2+y,z
1/2+x,1/2-y,z
loop_
_atom_site_type_symbol
_atom_site_label
_atom_site_fract_x
_atom_site_fract_y
_atom_site_fract_z
Si Si1 0.568611 0.749705 0.515480
Si Si2 0.170202 0.221117 0.190970
Si Si3 0.433901 0.927680 0.224649
Si Si4 0.766388 0.126229 0.033551
Si Si5 0.824386 0.605012 0.855700
Si Si6 0.646511 0.669778 0.848328
Si Si7 0.435530 0.096790 0.969761
Si Si8 0.726883 0.000000 0.692807
O O1 0.500000 0.767147 0.535733
O O2 0.612223 0.761900 0.618978
O O3 0.597909 0.789573 0.415736
O O4 0.569116 0.674300 0.484318
O O5 0.158704 0.163549 0.276372
O O6 0.183105 0.282471 0.269064
O O7 0.217642 0.187740 0.109984
O O8 0.500000 0.905447 0.251190
O O9 0.386136 0.880856 0.272121
O O10 0.429498 0.929291 0.093162
O O11 0.426199 0.000000 0.268150
O O12 0.705890 0.130830 0.967229
O O13 0.814733 0.132289 0.937254
O O14 0.767987 0.058738 0.099245
O O15 0.783669 0.556281 0.788656
O O16 0.884591 0.572895 0.892276
O O17 0.500000 0.081109 0.927850
#
# Coordination Sequence:
#
# PCOD9369201 Si02
#       8
#    16  16  16  16  16  16  16   8
#     4  10  20  37  63  94 134 175 223 271 326 400
#     4  10  22  41  60  98 131 169 220 274 337 397
#     4  10  22  38  59  92 130 173 226 277 329 396
#     4  10  25  44  65  96 133 169 225 279 326 411
#     4  11  23  45  67  95 129 177 219 277 345 403
#     4  11  21  40  63  96 131 178 216 272 348 397
#     4  10  21  38  63  98 129 164 218 276 328 401
#     4  10  24  48  69  92 129 172 230 272 324 406
#
# _framework density 20.895427999999999
#
# number of rings (size 3 to 8) (size 9 to 14) (size 15 to 20)
#    0.000    1.733    2.667    0.800    1.867    3.733 
#    4.800    0.000    0.000    4.000    0.000    0.000 
#    0.000    0.000    0.000    0.000    0.000    0.000 
#
# Total GULP energy -167077.089516 kJ/mol
# GULP energy per Si atom -5569.236317 kJ/mol
# Density = 2.084787 g / cm^3
# Si number density = 20.895428 Si / 1000 Ang^3
#
#
#
# Elastic Constant Matrix: (Units=GPa)
#
#
# Indices 1 2 3 4 5 6 
#
# 1 58.8050 29.9667 44.3358 0.0000 0.0000 0.0000
# 2 29.9667 65.7786 21.0993 0.0000 0.0000 0.0000
# 3 44.3358 21.0993 95.0769 0.0000 0.0000 0.0000
# 4 0.0000 0.0000 0.0000 25.7234 0.0000 0.0000
# 5 0.0000 0.0000 0.0000 0.0000 20.4918 0.0000
# 6 0.0000 0.0000 0.0000 0.0000 0.0000 4.4236
#
#
#
# Elastic Compliance Matrix: (Units=1/GPa)
#
#
# Indices 1 2 3 4 5 6 
#
# 1 0.031746 -0.010459 -0.012483 0.000000 0.000000 0.000000
# 2 -0.010459 0.019813 0.000480 0.000000 0.000000 0.000000
# 3 -0.012483 0.000480 0.016232 0.000000 0.000000 0.000000
# 4 0.000000 0.000000 0.000000 0.038875 0.000000 0.000000
# 5 0.000000 0.000000 0.000000 0.000000 0.048800 0.000000
# 6 0.000000 0.000000 0.000000 0.000000 0.000000 0.226062
#
#
# Mechanical properties :
#
#
# Convention : Reuss Voigt Hill
#
# Bulk Modulus (GPa) = 43.72737 45.60714 44.66725
# Shear Modulus (GPa) = 11.51874 18.41165 14.96520
#
# Velocity S-wave (km/s) = 2.35043 2.97161 2.67908
# Velocity P-wave (km/s) = 5.32337 5.80066 5.56713
#
# Compressibility (1/GPa) = 0.02286897
#
# Stress axis : x y z
#
# Youngs Moduli (GPa) = 31.49961 50.47156 61.60589
#
# Poissons Ratio (x) = 0.52786 0.76902
# Poissons Ratio (y) = 0.32944 -0.02958
# Poissons Ratio (z) = 0.39321 -0.02423
#
# Static dielectric constant tensor:
#      x y z
#    x 1.804720 0.000000 0.000000 
#    y 0.000000 1.740820 0.000000 
#    z 0.000000 0.000000 1.733840 
# 
# From -- ./inp_files/10287.got.cif
#   From: 2010.05.17/outbox.cif.g08.bks.cpg/sg42_6_cif.got.tgz:10287.got - 2010.06.03 19:03:34.
