data_PCOD9369832
_publ_section_title
;
Structure prediction by ZEFSAII (Michael W. Deem and Ramdas Pophale) SiO2 
 PCOD9369832
Probable space group: F M M 2
;
_chemical_formula_sum "Si O2"
_cell_formula_units_Z 80
_cell_length_a 17.054400
_cell_length_b 7.722549
_cell_length_c 30.958331
_cell_angle_alpha 90.000000
_cell_angle_beta 90.000000
_cell_angle_gamma 90.000000
_cell_volume 4077.318679
_symmetry_space_group_name_H-M "F M M 2"
_symmetry_group_IT_number 42
_symmetry_cell_setting 'orthorhombic'
loop_
_space_group_symop_operation_xyz
x,y,z
-x,-y,z
-x,y,z
x,-y,z
x,1/2+y,1/2+z
-x,1/2-y,1/2+z
-x,1/2+y,1/2+z
x,1/2-y,1/2+z
1/2+x,y,1/2+z
1/2-x,-y,1/2+z
1/2-x,y,1/2+z
1/2+x,-y,1/2+z
1/2+x,1/2+y,z
1/2-x,1/2-y,z
1/2-x,1/2+y,z
1/2+x,1/2-y,z
loop_
_atom_site_type_symbol
_atom_site_label
_atom_site_fract_x
_atom_site_fract_y
_atom_site_fract_z
Si Si1 0.342981 0.207405 0.557390
Si Si2 0.158298 0.302258 0.151321
Si Si3 0.842125 0.207795 0.963859
Si Si4 0.903924 0.000000 0.308689
Si Si5 0.094231 0.198828 0.872253
Si Si6 0.093080 0.500000 0.710232
O O1 0.250000 0.250000 0.556067
O O2 0.373646 0.283823 0.602233
O O3 0.373396 0.269842 0.510620
O O4 0.351884 0.000000 0.560245
O O5 0.150769 0.500000 0.165381
O O6 0.250000 0.250000 0.149142
O O7 0.119455 0.167843 0.183634
O O8 0.750000 0.250000 0.961444
O O9 0.881631 0.266820 0.919639
O O10 0.851176 0.000000 0.964764
O O11 0.878559 0.169873 0.335285
O O12 0.876290 0.000000 0.259344
O O13 0.000000 0.000000 0.308523
O O14 0.000000 0.193603 0.870796
O O15 0.122754 0.000000 0.866949
O O16 0.000000 0.500000 0.712650
#
# Coordination Sequence:
#
# PCOD9369832 Si02
#       6
#    16  16  16   8  16   8
#     4   9  15  28  49  80 111 149 189 225 269 336
#     4  11  20  37  64  87 117 156 198 239 293 350
#     4   9  18  29  49  78 112 145 180 223 277 319
#     4   9  20  38  60  79 102 143 187 226 280 339
#     4   9  18  35  56  77 104 141 186 226 267 331
#     4  11  24  42  62  89 119 149 195 252 299 347
#
# _framework density 19.620736999999998
#
# number of rings (size 3 to 8) (size 9 to 14) (size 15 to 20)
#    0.000    2.400    2.000    1.800    1.400    2.000 
#    0.000    4.000    0.000    0.000    0.000    0.000 
#    0.000    0.000    0.000    0.000    0.000    0.000 
#
# Total GULP energy -111507.307992 kJ/mol
# GULP energy per Si atom -5575.365400 kJ/mol
# Density = 1.957608 g / cm^3
# Si number density = 19.620737 Si / 1000 Ang^3
#
#
#
# Elastic Constant Matrix: (Units=GPa)
#
#
# Indices 1 2 3 4 5 6 
#
# 1 8.4943 12.8727 24.2952 0.0000 0.0000 0.0000
# 2 12.8727 129.2262 84.1616 0.0000 0.0000 0.0000
# 3 24.2952 84.1616 206.6908 0.0000 0.0000 0.0000
# 4 0.0000 0.0000 0.0000 -0.9795 0.0000 0.0000
# 5 0.0000 0.0000 0.0000 0.0000 27.6158 0.0000
# 6 0.0000 0.0000 0.0000 0.0000 0.0000 14.6516
#
#
#
# Elastic Compliance Matrix: (Units=1/GPa)
#
#
# Indices 1 2 3 4 5 6 
#
# 1 0.180342 -0.005660 -0.018894 0.000000 0.000000 0.000000
# 2 -0.005660 0.010709 -0.003695 0.000000 0.000000 0.000000
# 3 -0.018894 -0.003695 0.008564 0.000000 0.000000 0.000000
# 4 0.000000 0.000000 0.000000 -1.020975 0.000000 0.000000
# 5 0.000000 0.000000 0.000000 0.000000 0.036211 0.000000
# 6 0.000000 0.000000 0.000000 0.000000 0.000000 0.068252
#
#
# Mechanical properties :
#
#
# Convention : Reuss Voigt Hill
#
# Bulk Modulus (GPa) = 6.98726 65.23004 36.10865
# Shear Modulus (GPa) = -8.16067 23.12969 7.48451
#
# Velocity S-wave (km/s) = -2.04163 3.43715 1.95522
# Velocity P-wave (km/s) = 1.41023 7.00497 4.85185
#
# Compressibility (1/GPa) = 0.14311761
#
# Stress axis : x y z
#
# Youngs Moduli (GPa) = 5.54502 93.38179 116.77330
#
# Poissons Ratio (x) = 0.52850 2.20627
# Poissons Ratio (y) = 0.03138 0.43150
# Poissons Ratio (z) = 0.10477 0.34506
#
# Static dielectric constant tensor:
#      x y z
#    x 1.667220 0.000000 0.000000 
#    y 0.000000 1.709970 0.000000 
#    z 0.000000 0.000000 1.721860 
# 
# From -- ./inp_files/31310.got.cif
#   From: 2010.05.17/outbox.cif.g08.bks.cpg/sg42_16_cif.got.tgz:31310.got - 2010.06.03 19:03:34.
