data_PCOD9369567
_publ_section_title
;
Structure prediction by ZEFSAII (Michael W. Deem and Ramdas Pophale) SiO2 
 PCOD9369567
Probable space group: F M M 2
;
_chemical_formula_sum "Si O2"
_cell_formula_units_Z 96
_cell_length_a 13.779049
_cell_length_b 16.067688
_cell_length_c 21.738230
_cell_angle_alpha 90.000000
_cell_angle_beta 90.000000
_cell_angle_gamma 90.000000
_cell_volume 4812.788913
_symmetry_space_group_name_H-M "F M M 2"
_symmetry_group_IT_number 42
_symmetry_cell_setting 'orthorhombic'
loop_
_space_group_symop_operation_xyz
x,y,z
-x,-y,z
-x,y,z
x,-y,z
x,1/2+y,1/2+z
-x,1/2-y,1/2+z
-x,1/2+y,1/2+z
x,1/2-y,1/2+z
1/2+x,y,1/2+z
1/2-x,-y,1/2+z
1/2-x,y,1/2+z
1/2+x,-y,1/2+z
1/2+x,1/2+y,z
1/2-x,1/2-y,z
1/2-x,1/2+y,z
1/2+x,1/2-y,z
loop_
_atom_site_type_symbol
_atom_site_label
_atom_site_fract_x
_atom_site_fract_y
_atom_site_fract_z
Si Si1 0.817039 0.131608 0.284020
Si Si2 0.115308 0.000000 0.041719
Si Si3 0.108502 0.904366 0.416907
Si Si4 0.115176 0.000000 0.188740
Si Si5 0.888038 0.818728 0.762352
Si Si6 0.388330 0.594802 0.633123
Si Si7 0.756381 0.348775 0.020663
O O1 0.867773 0.097347 0.344848
O O2 0.861188 0.222770 0.272477
O O3 0.701002 0.133793 0.294804
O O4 0.839554 0.078493 0.223597
O O5 0.129108 0.000000 0.115905
O O6 0.165888 0.086060 0.018328
O O7 0.000000 0.000000 0.028944
O O8 0.186696 0.855939 0.456478
O O9 0.000000 0.871317 0.426817
O O10 0.111239 0.000000 0.438345
O O11 0.000000 0.000000 0.200541
O O12 0.877926 0.843741 0.690721
O O13 0.000000 0.835950 0.780419
O O14 0.500000 0.599530 0.612190
O O15 0.370717 0.500000 0.654828
O O16 0.320742 0.615436 0.576366
O O17 0.750000 0.250000 0.033256
#
# Coordination Sequence:
#
# PCOD9369567 Si02
#       7
#    16   8  16   8  16  16  16
#     4  11  23  39  66  96 130 168 217 265 323 393
#     4  11  26  45  65  99 145 177 217 274 350 425
#     4  11  23  44  71  95 122 165 224 282 324 383
#     4  11  22  39  65  95 129 171 209 262 328 399
#     4  10  23  39  61  94 135 169 207 261 325 393
#     4  10  21  40  67  97 127 167 220 274 326 390
#     4  12  26  43  69  95 132 177 226 279 344 407
#
# _framework density 19.946853999999998
#
# number of rings (size 3 to 8) (size 9 to 14) (size 15 to 20)
#    0.000    1.167    2.500    3.000    8.167    2.667 
#    0.000    0.833    0.000    0.000    0.000    0.000 
#    0.000    0.000    0.000    0.000    0.000    0.000 
#
# Total GULP energy -134008.125838 kJ/mol
# GULP energy per Si atom -5583.671910 kJ/mol
# Density = 1.990145 g / cm^3
# Si number density = 19.946854 Si / 1000 Ang^3
#
#
#
# Elastic Constant Matrix: (Units=GPa)
#
#
# Indices 1 2 3 4 5 6 
#
# 1 139.0923 39.3863 26.6411 0.0000 0.0000 0.0000
# 2 39.3863 88.8762 13.9081 0.0000 0.0000 0.0000
# 3 26.6411 13.9081 44.7898 0.0000 0.0000 0.0000
# 4 0.0000 0.0000 0.0000 33.1349 0.0000 0.0000
# 5 0.0000 0.0000 0.0000 0.0000 31.0545 0.0000
# 6 0.0000 0.0000 0.0000 0.0000 0.0000 18.8509
#
#
#
# Elastic Compliance Matrix: (Units=1/GPa)
#
#
# Indices 1 2 3 4 5 6 
#
# 1 0.008945 -0.003291 -0.004298 0.000000 0.000000 0.000000
# 2 -0.003291 0.013037 -0.002091 0.000000 0.000000 0.000000
# 3 -0.004298 -0.002091 0.025532 0.000000 0.000000 0.000000
# 4 0.000000 0.000000 0.000000 0.030180 0.000000 0.000000
# 5 0.000000 0.000000 0.000000 0.000000 0.032201 0.000000
# 6 0.000000 0.000000 0.000000 0.000000 0.000000 0.053048
#
#
# Mechanical properties :
#
#
# Convention : Reuss Voigt Hill
#
# Bulk Modulus (GPa) = 35.51914 48.06993 41.79453
# Shear Modulus (GPa) = 26.08395 29.46292 27.77344
#
# Velocity S-wave (km/s) = 3.62010 3.84744 3.73550
# Velocity P-wave (km/s) = 5.94298 6.62483 6.29315
#
# Compressibility (1/GPa) = 0.02815383
#
# Stress axis : x y z
#
# Youngs Moduli (GPa) = 111.79754 76.70271 39.16592
#
# Poissons Ratio (x) = 0.25245 0.16835
# Poissons Ratio (y) = 0.36796 0.08188
# Poissons Ratio (z) = 0.48054 0.16036
#
# Static dielectric constant tensor:
#      x y z
#    x 1.740090 0.000000 0.000000 
#    y 0.000000 1.701820 0.000000 
#    z 0.000000 0.000000 1.651340 
# 
# From -- ./inp_files/25135.got.cif
#   From: 2010.05.17/outbox.cif.g08.bks.cpg/sg42_13_cif.got.tgz:25135.got - 2010.06.03 19:03:34.
