data_PCOD9369866
_publ_section_title
;
Structure prediction by ZEFSAII (Michael W. Deem and Ramdas Pophale) SiO2 
 PCOD9369866
Probable space group: F M M 2
;
_chemical_formula_sum "Si O2"
_cell_formula_units_Z 116
_cell_length_a 23.901995
_cell_length_b 22.351603
_cell_length_c 8.671598
_cell_angle_alpha 90.000000
_cell_angle_beta 90.000000
_cell_angle_gamma 90.000000
_cell_volume 4632.783048
_symmetry_space_group_name_H-M "F M M 2"
_symmetry_group_IT_number 42
_symmetry_cell_setting 'orthorhombic'
loop_
_space_group_symop_operation_xyz
x,y,z
-x,-y,z
-x,y,z
x,-y,z
x,1/2+y,1/2+z
-x,1/2-y,1/2+z
-x,1/2+y,1/2+z
x,1/2-y,1/2+z
1/2+x,y,1/2+z
1/2-x,-y,1/2+z
1/2-x,y,1/2+z
1/2+x,-y,1/2+z
1/2+x,1/2+y,z
1/2-x,1/2-y,z
1/2-x,1/2+y,z
1/2+x,1/2-y,z
loop_
_atom_site_type_symbol
_atom_site_label
_atom_site_fract_x
_atom_site_fract_y
_atom_site_fract_z
Si Si1 0.670406 0.566672 0.289170
Si Si2 0.096053 0.836408 0.473839
Si Si3 0.915152 0.433812 0.193497
Si Si4 0.708105 0.890160 0.238597
Si Si5 0.108512 0.781828 0.162461
Si Si6 0.585664 0.406837 0.046990
Si Si7 0.500000 0.000000 0.675272
Si Si8 0.221669 0.189195 0.020390
O O1 0.655975 0.500000 0.343684
O O2 0.640044 0.618784 0.386629
O O3 0.737264 0.573026 0.289054
O O4 0.647201 0.575381 0.113507
O O5 0.062589 0.885090 0.573562
O O6 0.081641 0.793846 0.329048
O O7 0.106968 0.785453 0.601677
O O8 0.931473 0.500000 0.146340
O O9 0.847384 0.425876 0.197744
O O10 0.929419 0.424867 0.373525
O O11 0.731156 0.851299 0.097204
O O12 0.694652 0.843870 0.375484
O O13 0.080552 0.835400 0.063320
O O14 0.174927 0.796251 0.148087
O O15 0.547740 0.446817 0.159256
O O16 0.250000 0.250000 0.966011
#
# Coordination Sequence:
#
# PCOD9369866 Si02
#       8
#    16  16  16  16  16  16   4  16
#     4  11  21  41  63 100 142 186 233 290 350 430
#     4  11  24  39  66  93 135 193 232 286 356 419
#     4  12  23  40  62  98 139 188 238 290 353 429
#     4  12  22  36  54  90 138 190 237 283 351 411
#     4  11  23  44  61  99 142 188 240 298 347 419
#     4  11  23  44  75 103 139 180 238 299 358 423
#     4  12  24  48  84 114 128 188 242 306 380 434
#     4  12  24  33  56  89 140 194 249 282 328 417
#
# _framework density 25.038945999999999
#
# number of rings (size 3 to 8) (size 9 to 14) (size 15 to 20)
#    0.000    0.552    5.517    4.552    1.931    0.000 
#    0.000    4.138    0.000   14.069    0.000    0.000 
#    0.000    0.000    0.000    0.000    0.000    0.000 
#
# Total GULP energy -161777.708348 kJ/mol
# GULP energy per Si atom -5578.541667 kJ/mol
# Density = 2.498196 g / cm^3
# Si number density = 25.038946 Si / 1000 Ang^3
#
#
#
# Elastic Constant Matrix: (Units=GPa)
#
#
# Indices 1 2 3 4 5 6 
#
# 1 83.2859 27.0731 -0.7171 0.0018 -0.0056 -0.0025
# 2 27.0731 195.5346 43.0815 0.0006 -0.0064 -0.0021
# 3 -0.7171 43.0815 114.3339 0.0017 -0.0071 -0.0046
# 4 0.0018 0.0006 0.0017 33.0289 -0.0064 -0.0028
# 5 -0.0056 -0.0064 -0.0071 -0.0064 -57.7694 0.0123
# 6 -0.0025 -0.0021 -0.0046 -0.0028 0.0123 -7.0819
#
#
#
# Elastic Compliance Matrix: (Units=1/GPa)
#
#
# Indices 1 2 3 4 5 6 
#
# 1 0.012640 -0.001928 0.000806 -0.000001 -0.000001 -0.000004
# 2 -0.001928 0.005871 -0.002224 0.000000 0.000000 0.000000
# 3 0.000806 -0.002224 0.009590 0.000000 -0.000001 -0.000006
# 4 -0.000001 0.000000 0.000000 0.030277 -0.000003 -0.000012
# 5 -0.000001 0.000000 -0.000001 -0.000003 -0.017310 -0.000030
# 6 -0.000004 0.000000 -0.000006 -0.000012 -0.000030 -0.141205
#
#
# Mechanical properties :
#
#
# Convention : Reuss Voigt Hill
#
# Bulk Modulus (GPa) = 46.71091 59.11438 52.91265
# Shear Modulus (GPa) = -57.93167 15.21663 -21.35752
#
# Velocity S-wave (km/s) = -4.81527 2.46787 -2.92374
# Velocity P-wave (km/s) = 3.49571 5.63744 3.12736
#
# Compressibility (1/GPa) = 0.02140827
#
# Stress axis : x y z
#
# Youngs Moduli (GPa) = 79.11155 170.32380 104.28053
#
# Poissons Ratio (x) = 0.32832 -0.08401
# Poissons Ratio (y) = 0.15250 0.23196
# Poissons Ratio (z) = -0.06373 0.37886
#
# Static dielectric constant tensor:
#      x y z
#    x 2.072970 0.000000 0.000000 
#    y 0.000000 1.952950 0.000000 
#    z 0.000000 0.000000 2.043140 
# 
# From -- ./inp_files/4893.got.cif
#   From: 2010.05.17/outbox.cif.g08.bks.cpg/sg42_3_cif.got.tgz:4893.got - 2010.06.03 19:03:34.
