data_PCOD9369748
_publ_section_title
;
Structure prediction by ZEFSAII (Michael W. Deem and Ramdas Pophale) SiO2 
 PCOD9369748
Probable space group: F M M 2
;
_chemical_formula_sum "Si O2"
_cell_formula_units_Z 112
_cell_length_a 29.949753
_cell_length_b 17.355832
_cell_length_c 10.624890
_cell_angle_alpha 90.000000
_cell_angle_beta 90.000000
_cell_angle_gamma 90.000000
_cell_volume 5522.848438
_symmetry_space_group_name_H-M "F M M 2"
_symmetry_group_IT_number 42
_symmetry_cell_setting 'orthorhombic'
loop_
_space_group_symop_operation_xyz
x,y,z
-x,-y,z
-x,y,z
x,-y,z
x,1/2+y,1/2+z
-x,1/2-y,1/2+z
-x,1/2+y,1/2+z
x,1/2-y,1/2+z
1/2+x,y,1/2+z
1/2-x,-y,1/2+z
1/2-x,y,1/2+z
1/2+x,-y,1/2+z
1/2+x,1/2+y,z
1/2-x,1/2-y,z
1/2-x,1/2+y,z
1/2+x,1/2-y,z
loop_
_atom_site_type_symbol
_atom_site_label
_atom_site_fract_x
_atom_site_fract_y
_atom_site_fract_z
Si Si1 0.894889 0.088346 0.113560
Si Si2 0.952321 0.332359 0.025895
Si Si3 0.794160 0.092353 0.753208
Si Si4 0.641218 0.315174 0.914631
Si Si5 0.148701 0.154241 0.521738
Si Si6 0.807543 0.410639 0.771928
Si Si7 0.429000 0.769688 0.761479
O O1 0.843463 0.092996 0.160666
O O2 0.921712 0.145558 0.203882
O O3 0.909391 0.000000 0.119338
O O4 0.893091 0.123659 0.974472
O O5 0.903365 0.372269 0.023250
O O6 0.951119 0.281123 0.898103
O O7 0.000000 0.375418 0.025135
O O8 0.950898 0.280692 0.152089
O O9 0.815390 0.139999 0.868300
O O10 0.823071 0.116799 0.632541
O O11 0.742281 0.113884 0.736440
O O12 0.797741 0.000000 0.772441
O O13 0.648191 0.247607 0.017023
O O14 0.617331 0.272808 0.797761
O O15 0.172136 0.132626 0.390817
O O16 0.804292 0.500000 0.810063
#
# Coordination Sequence:
#
# PCOD9369748 Si02
#       7
#    16  16  16  16  16  16  16
#     4  11  21  38  62  89 128 170 209 256 319 387
#     4  11  22  39  69  99 127 169 219 272 327 388
#     4  11  24  41  61  87 123 172 210 250 322 391
#     4  11  21  39  60  92 126 163 210 262 315 377
#     4  11  22  41  64  91 128 157 212 272 311 370
#     4  10  23  40  60  88 125 168 211 257 317 385
#     4  11  20  42  65  98 130 163 212 271 326 381
#
# _framework density 20.279391
#
# number of rings (size 3 to 8) (size 9 to 14) (size 15 to 20)
#    0.000    1.143    7.143    1.286    2.000    0.571 
#    0.000    0.000    0.000    5.143    0.000    4.000 
#    0.000    0.000    0.000    0.000    0.000    0.000 
#
# Total GULP energy -156160.332711 kJ/mol
# GULP energy per Si atom -5577.154740 kJ/mol
# Density = 2.023323 g / cm^3
# Si number density = 20.279391 Si / 1000 Ang^3
#
#
#
# Elastic Constant Matrix: (Units=GPa)
#
#
# Indices 1 2 3 4 5 6 
#
# 1 118.3049 15.8470 12.4563 0.0000 0.0000 0.0000
# 2 15.8470 68.1133 8.8159 0.0000 0.0000 0.0000
# 3 12.4563 8.8159 77.5919 0.0000 0.0000 0.0000
# 4 0.0000 0.0000 0.0000 28.4021 0.0000 0.0000
# 5 0.0000 0.0000 0.0000 0.0000 -377.0977 0.0000
# 6 0.0000 0.0000 0.0000 0.0000 0.0000 4.6181
#
#
#
# Elastic Compliance Matrix: (Units=1/GPa)
#
#
# Indices 1 2 3 4 5 6 
#
# 1 0.008834 -0.001900 -0.001202 0.000000 0.000000 0.000000
# 2 -0.001900 0.015309 -0.001434 0.000000 0.000000 0.000000
# 3 -0.001202 -0.001434 0.013244 0.000000 0.000000 0.000000
# 4 0.000000 0.000000 0.000000 0.035209 0.000000 0.000000
# 5 0.000000 0.000000 0.000000 0.000000 -0.002652 0.000000
# 6 0.000000 0.000000 0.000000 0.000000 0.000000 0.216538
#
#
# Mechanical properties :
#
#
# Convention : Reuss Voigt Hill
#
# Bulk Modulus (GPa) = 35.31817 37.58315 36.45066
# Shear Modulus (GPa) = 16.39386 -53.68943 -18.64779
#
# Velocity S-wave (km/s) = 2.84632 -5.15096 -3.03569
# Velocity P-wave (km/s) = 5.31561 4.09921 2.39292
#
# Compressibility (1/GPa) = 0.02831404
#
# Stress axis : x y z
#
# Youngs Moduli (GPa) = 113.20176 65.32088 75.50626
#
# Poissons Ratio (x) = 0.12409 0.09078
# Poissons Ratio (y) = 0.21504 0.10831
# Poissons Ratio (z) = 0.13610 0.09370
#
# Static dielectric constant tensor:
#      x y z
#    x 2.080490 0.000000 0.000000 
#    y 0.000000 1.721130 0.000000 
#    z 0.000000 0.000000 1.755060 
# 
# From -- ./inp_files/11121.got.cif
#   From: 2010.05.17/outbox.cif.g08.bks.cpg/sg42_6_cif.got.tgz:11121.got - 2010.06.03 19:03:34.
