data_PCOD9369948
_publ_section_title
;
Structure prediction by ZEFSAII (Michael W. Deem and Ramdas Pophale) SiO2 
 PCOD9369948
Probable space group: F M M 2
;
_chemical_formula_sum "Si O2"
_cell_formula_units_Z 116
_cell_length_a 15.284170
_cell_length_b 22.674412
_cell_length_c 16.703171
_cell_angle_alpha 90.000000
_cell_angle_beta 90.000000
_cell_angle_gamma 90.000000
_cell_volume 5788.643720
_symmetry_space_group_name_H-M "F M M 2"
_symmetry_group_IT_number 42
_symmetry_cell_setting 'orthorhombic'
loop_
_space_group_symop_operation_xyz
x,y,z
-x,-y,z
-x,y,z
x,-y,z
x,1/2+y,1/2+z
-x,1/2-y,1/2+z
-x,1/2+y,1/2+z
x,1/2-y,1/2+z
1/2+x,y,1/2+z
1/2-x,-y,1/2+z
1/2-x,y,1/2+z
1/2+x,-y,1/2+z
1/2+x,1/2+y,z
1/2-x,1/2-y,z
1/2-x,1/2+y,z
1/2+x,1/2-y,z
loop_
_atom_site_type_symbol
_atom_site_label
_atom_site_fract_x
_atom_site_fract_y
_atom_site_fract_z
Si Si1 0.899373 0.063986 0.468020
Si Si2 0.500000 0.500000 0.863578
Si Si3 0.394770 0.329770 0.194618
Si Si4 0.147578 0.604642 0.362630
Si Si5 0.605573 0.311923 0.006627
Si Si6 0.105682 0.700520 0.226960
Si Si7 0.607231 0.183253 0.043645
Si Si8 0.168456 0.434671 0.798795
O O1 0.860097 0.123078 0.504631
O O2 0.898889 0.069462 0.372375
O O3 0.000000 0.062241 0.496137
O O4 0.858990 0.000000 0.488314
O O5 0.575814 0.552841 0.863142
O O6 0.500000 0.334873 0.203700
O O7 0.377420 0.326138 0.099798
O O8 0.366285 0.268613 0.237010
O O9 0.349299 0.384850 0.234712
O O10 0.145335 0.641863 0.444882
O O11 0.132043 0.653279 0.292809
O O12 0.239797 0.575487 0.342597
O O13 0.500000 0.314138 0.994384
O O14 0.634121 0.243390 0.998861
O O15 0.133843 0.684365 0.136639
O O16 0.000000 0.701398 0.226482
O O17 0.500000 0.184351 0.041940
O O18 0.164156 0.500000 0.763352
#
# Coordination Sequence:
#
# PCOD9369948 Si02
#       8
#    16   4  16  16  16  16  16  16
#     4   9  18  35  57  83 118 159 201 243 303 371
#     4  12  24  44  64  88 122 164 212 252 296 364
#     4   9  20  40  65  93 122 157 199 255 306 369
#     4  12  23  41  64  87 120 164 204 257 304 361
#     4   9  18  37  64  91 118 152 209 253 305 357
#     4   9  18  36  62  89 119 153 202 249 301 358
#     4   8  16  33  58  90 117 150 197 253 292 363
#     4  11  24  40  56  86 125 159 201 252 306 363
#
# _framework density 20.039237
#
# number of rings (size 3 to 8) (size 9 to 14) (size 15 to 20)
#    0.000    2.345    2.069    2.069    1.931    1.379 
#    4.966    0.000    0.000    0.000    0.000    0.000 
#    0.000    0.000    0.000    0.000    0.000    0.000 
#
# Total GULP energy -161529.481270 kJ/mol
# GULP energy per Si atom -5569.982113 kJ/mol
# Density = 1.999363 g / cm^3
# Si number density = 20.039237 Si / 1000 Ang^3
#
#
#
# Elastic Constant Matrix: (Units=GPa)
#
#
# Indices 1 2 3 4 5 6 
#
# 1 50.8530 37.1817 17.8975 0.0000 0.0000 0.0000
# 2 37.1817 211.1155 70.9634 0.0000 0.0000 0.0000
# 3 17.8975 70.9634 45.9175 0.0000 0.0000 0.0000
# 4 0.0000 0.0000 0.0000 28.3630 0.0000 0.0000
# 5 0.0000 0.0000 0.0000 0.0000 0.0792 0.0000
# 6 0.0000 0.0000 0.0000 0.0000 0.0000 14.9180
#
#
#
# Elastic Compliance Matrix: (Units=1/GPa)
#
#
# Indices 1 2 3 4 5 6 
#
# 1 0.023265 -0.002184 -0.005693 0.000000 0.000000 0.000000
# 2 -0.002184 0.010063 -0.014700 0.000000 0.000000 0.000000
# 3 -0.005693 -0.014700 0.046715 0.000000 0.000000 0.000000
# 4 0.000000 0.000000 0.000000 0.035257 0.000000 0.000000
# 5 0.000000 0.000000 0.000000 0.000000 12.631273 0.000000
# 6 0.000000 0.000000 0.000000 0.000000 0.000000 0.067033
#
#
# Mechanical properties :
#
#
# Convention : Reuss Voigt Hill
#
# Bulk Modulus (GPa) = 28.66234 62.21901 45.44067
# Shear Modulus (GPa) = 0.38849 20.79493 10.59171
#
# Velocity S-wave (km/s) = 0.44078 3.22485 2.30151
# Velocity P-wave (km/s) = 3.82011 6.70688 5.45781
#
# Compressibility (1/GPa) = 0.03488899
#
# Stress axis : x y z
#
# Youngs Moduli (GPa) = 42.98323 99.37839 21.40618
#
# Poissons Ratio (x) = 0.21702 0.12187
# Poissons Ratio (y) = 0.09386 0.31467
# Poissons Ratio (z) = 0.24471 1.46087
#
# Static dielectric constant tensor:
#      x y z
#    x 1.767900 0.000000 0.000000 
#    y 0.000000 1.714930 0.000000 
#    z 0.000000 0.000000 1.677090 
# 
# From -- ./inp_files/20965.got.cif
#   From: 2010.05.17/outbox.cif.g08.bks.cpg/sg42_11_cif.got.tgz:20965.got - 2010.06.03 19:03:34.
