data_PCOD9369310
_publ_section_title
;
Structure prediction by ZEFSAII (Michael W. Deem and Ramdas Pophale) SiO2 
 PCOD9369310
Probable space group: F M M 2
;
_chemical_formula_sum "Si O2"
_cell_formula_units_Z 88
_cell_length_a 17.307021
_cell_length_b 27.401486
_cell_length_c 8.256896
_cell_angle_alpha 90.000000
_cell_angle_beta 90.000000
_cell_angle_gamma 90.000000
_cell_volume 3915.734618
_symmetry_space_group_name_H-M "F M M 2"
_symmetry_group_IT_number 42
_symmetry_cell_setting 'orthorhombic'
loop_
_space_group_symop_operation_xyz
x,y,z
-x,-y,z
-x,y,z
x,-y,z
x,1/2+y,1/2+z
-x,1/2-y,1/2+z
-x,1/2+y,1/2+z
x,1/2-y,1/2+z
1/2+x,y,1/2+z
1/2-x,-y,1/2+z
1/2-x,y,1/2+z
1/2+x,-y,1/2+z
1/2+x,1/2+y,z
1/2-x,1/2-y,z
1/2-x,1/2+y,z
1/2+x,1/2-y,z
loop_
_atom_site_type_symbol
_atom_site_label
_atom_site_fract_x
_atom_site_fract_y
_atom_site_fract_z
Si Si1 0.500000 0.411577 0.105911
Si Si2 0.139382 0.000000 0.605568
Si Si3 0.839612 0.238321 0.809406
Si Si4 0.500000 0.000000 0.855092
Si Si5 0.590841 0.820162 0.007068
Si Si6 0.846866 0.357164 0.513106
Si Si7 0.806042 0.604033 0.158850
Si Si8 0.500000 0.000000 0.356417
O O1 0.500000 0.449278 0.254979
O O2 0.425379 0.377116 0.090186
O O3 0.500000 0.450313 0.958430
O O4 0.192369 0.952589 0.618529
O O5 0.077862 0.000000 0.752119
O O6 0.080000 0.000000 0.455532
O O7 0.750000 0.250000 0.777222
O O8 0.881779 0.211426 0.662558
O O9 0.880700 0.288491 0.856524
O O10 0.845318 0.199349 0.957798
O O11 0.500000 0.826747 0.005312
O O12 0.634159 0.870724 0.034848
O O13 0.832725 0.385493 0.342083
O O14 0.775402 0.370218 0.627639
#
# Coordination Sequence:
#
# PCOD9369310 Si02
#       8
#     8   8  16   4  16  16  16   4
#     4  11  24  48  70 100 140 173 235 282 345 408
#     4  11  24  44  70 100 135 181 225 280 345 413
#     4  11  23  44  66  96 138 182 226 284 343 398
#     4  10  28  44  72 102 144 174 232 288 356 402
#     4  11  25  42  67 100 134 179 232 279 338 407
#     4  11  26  44  72  99 136 185 230 288 344 412
#     4  11  26  44  69  99 138 178 235 280 349 411
#     4  10  20  44  72  92 126 186 212 284 332 392
#
# _framework density 22.473431999999999
#
# number of rings (size 3 to 8) (size 9 to 14) (size 15 to 20)
#    0.000    1.091    3.636    1.091   14.000    2.182 
#    0.000    0.000    0.000    0.000    0.000    0.000 
#    0.000    0.000    0.000    0.000    0.000    0.000 
#
# Total GULP energy -123242.583740 kJ/mol
# GULP energy per Si atom -5601.935625 kJ/mol
# Density = 2.242228 g / cm^3
# Si number density = 22.473432 Si / 1000 Ang^3
#
#
#
# Elastic Constant Matrix: (Units=GPa)
#
#
# Indices 1 2 3 4 5 6 
#
# 1 148.5248 24.1418 -1.1332 0.0000 0.0000 0.0000
# 2 24.1418 129.3310 11.0297 0.0000 0.0000 0.0000
# 3 -1.1332 11.0297 43.7496 0.0000 0.0000 0.0000
# 4 0.0000 0.0000 0.0000 45.2135 0.0000 0.0000
# 5 0.0000 0.0000 0.0000 0.0000 -3.0959 0.0000
# 6 0.0000 0.0000 0.0000 0.0000 0.0000 18.1496
#
#
#
# Elastic Compliance Matrix: (Units=1/GPa)
#
#
# Indices 1 2 3 4 5 6 
#
# 1 0.006955 -0.001343 0.000519 0.000000 0.000000 0.000000
# 2 -0.001343 0.008161 -0.002092 0.000000 0.000000 0.000000
# 3 0.000519 -0.002092 0.023398 0.000000 0.000000 0.000000
# 4 0.000000 0.000000 0.000000 0.022117 0.000000 0.000000
# 5 0.000000 0.000000 0.000000 0.000000 -0.323012 0.000000
# 6 0.000000 0.000000 0.000000 0.000000 0.000000 0.055098
#
#
# Mechanical properties :
#
#
# Convention : Reuss Voigt Hill
#
# Bulk Modulus (GPa) = 30.59779 43.29801 36.94790
# Shear Modulus (GPa) = -26.23903 31.22459 2.49278
#
# Velocity S-wave (km/s) = -3.42066 3.73151 1.05433
# Velocity P-wave (km/s) = 1.39878 6.15416 4.23775
#
# Compressibility (1/GPa) = 0.03268210
#
# Stress axis : x y z
#
# Youngs Moduli (GPa) = 143.78026 122.53199 42.73823
#
# Poissons Ratio (x) = 0.16450 -0.02216
# Poissons Ratio (y) = 0.19303 0.08942
# Poissons Ratio (z) = -0.07456 0.25637
#
# Static dielectric constant tensor:
#      x y z
#    x 1.750190 0.000000 0.000000 
#    y 0.000000 1.797460 0.000000 
#    z 0.000000 0.000000 1.886760 
# 
# From -- ./inp_files/3670.got.cif
#   From: 2010.05.17/outbox.cif.g08.bks.cpg/sg42_2_cif.got.tgz:3670.got - 2010.06.03 19:03:34.
