data_PCOD9369153
_publ_section_title
;
Structure prediction by ZEFSAII (Michael W. Deem and Ramdas Pophale) SiO2 
 PCOD9369153
Probable space group: F M M 2
;
_chemical_formula_sum "Si O2"
_cell_formula_units_Z 80
_cell_length_a 31.613613
_cell_length_b 8.091641
_cell_length_c 14.868659
_cell_angle_alpha 90.000000
_cell_angle_beta 90.000000
_cell_angle_gamma 90.000000
_cell_volume 3803.492290
_symmetry_space_group_name_H-M "F M M 2"
_symmetry_group_IT_number 42
_symmetry_cell_setting 'orthorhombic'
loop_
_space_group_symop_operation_xyz
x,y,z
-x,-y,z
-x,y,z
x,-y,z
x,1/2+y,1/2+z
-x,1/2-y,1/2+z
-x,1/2+y,1/2+z
x,1/2-y,1/2+z
1/2+x,y,1/2+z
1/2-x,-y,1/2+z
1/2-x,y,1/2+z
1/2+x,-y,1/2+z
1/2+x,1/2+y,z
1/2-x,1/2-y,z
1/2-x,1/2+y,z
1/2+x,1/2-y,z
loop_
_atom_site_type_symbol
_atom_site_label
_atom_site_fract_x
_atom_site_fract_y
_atom_site_fract_z
Si Si1 0.045667 0.804735 0.971390
Si Si2 0.865317 0.803078 0.488846
Si Si3 0.454417 0.193679 0.767001
Si Si4 0.298344 0.803445 0.634385
Si Si5 0.862916 0.797156 0.281821
O O1 0.046417 0.708747 0.876220
O O2 0.000000 0.768632 0.015348
O O3 0.046439 0.000000 0.951372
O O4 0.088954 0.762526 0.021272
O O5 0.826524 0.749060 0.549737
O O6 0.859539 0.744883 0.385617
O O7 0.867521 0.000000 0.488071
O O8 0.500000 0.266837 0.739016
O O9 0.408231 0.261316 0.742173
O O10 0.455064 0.000000 0.741770
O O11 0.250000 0.750000 0.629789
O O12 0.323856 0.740262 0.721776
O O13 0.298838 0.000000 0.638816
O O14 0.864023 0.000000 0.281294
#
# Coordination Sequence:
#
# PCOD9369153 Si02
#       5
#    16  16  16  16  16
#     4   9  16  27  47  78 113 147 182 220 263 313
#     4  10  20  37  59  83 111 145 183 223 271 324
#     4   8  13  25  48  76 105 140 179 217 262 318
#     4  11  23  40  58  79 107 139 180 230 281 330
#     4   8  17  34  56  80 108 141 178 219 265 322
#
# _framework density 21.033303
#
# number of rings (size 3 to 8) (size 9 to 14) (size 15 to 20)
#    0.000    2.800    0.000    3.000    0.000    2.000 
#    0.000   13.000    0.000    3.600    0.000    0.000 
#    0.000    0.000    0.000    0.000    0.000    0.000 
#
# Total GULP energy -111514.169069 kJ/mol
# GULP energy per Si atom -5575.708453 kJ/mol
# Density = 2.098543 g / cm^3
# Si number density = 21.033303 Si / 1000 Ang^3
#
#
#
# Elastic Constant Matrix: (Units=GPa)
#
#
# Indices 1 2 3 4 5 6 
#
# 1 251.0719 26.0553 72.7074 0.0000 0.0000 0.0000
# 2 26.0553 35.8159 6.5799 0.0000 0.0000 0.0000
# 3 72.7074 6.5799 84.7514 0.0000 0.0000 0.0000
# 4 0.0000 0.0000 0.0000 7.9875 0.0000 0.0000
# 5 0.0000 0.0000 0.0000 0.0000 42.2133 0.0000
# 6 0.0000 0.0000 0.0000 0.0000 0.0000 21.1538
#
#
#
# Elastic Compliance Matrix: (Units=1/GPa)
#
#
# Indices 1 2 3 4 5 6 
#
# 1 0.005653 -0.003268 -0.004596 0.000000 0.000000 0.000000
# 2 -0.003268 0.030214 0.000458 0.000000 0.000000 0.000000
# 3 -0.004596 0.000458 0.015706 0.000000 0.000000 0.000000
# 4 0.000000 0.000000 0.000000 0.125196 0.000000 0.000000
# 5 0.000000 0.000000 0.000000 0.000000 0.023689 0.000000
# 6 0.000000 0.000000 0.000000 0.000000 0.000000 0.047273
#
#
# Mechanical properties :
#
#
# Convention : Reuss Voigt Hill
#
# Bulk Modulus (GPa) = 27.20260 64.70270 45.95265
# Shear Modulus (GPa) = 18.19526 32.02403 25.10965
#
# Velocity S-wave (km/s) = 2.94440 3.90621 3.45890
# Velocity P-wave (km/s) = 4.95182 7.15356 6.15199
#
# Compressibility (1/GPa) = 0.03676120
#
# Stress axis : x y z
#
# Youngs Moduli (GPa) = 176.89733 33.09735 63.66807
#
# Poissons Ratio (x) = 0.10817 0.29261
# Poissons Ratio (y) = 0.57812 -0.02916
# Poissons Ratio (z) = 0.81301 -0.01516
#
# Static dielectric constant tensor:
#      x y z
#    x 1.764010 0.000000 0.000000 
#    y 0.000000 1.744150 0.000000 
#    z 0.000000 0.000000 1.787450 
# 
# From -- ./inp_files/18195.got.cif
#   From: 2010.05.17/outbox.cif.g08.bks.cpg/sg42_10_cif.got.tgz:18195.got - 2010.06.03 19:03:34.
