data_PCOD9369980
_publ_section_title
;
Structure prediction by ZEFSAII (Michael W. Deem and Ramdas Pophale) SiO2 
 PCOD9369980
Probable space group: F M M 2
;
_chemical_formula_sum "Si O2"
_cell_formula_units_Z 68
_cell_length_a 21.496890
_cell_length_b 17.706129
_cell_length_c 8.444443
_cell_angle_alpha 90.000000
_cell_angle_beta 90.000000
_cell_angle_gamma 90.000000
_cell_volume 3214.180535
_symmetry_space_group_name_H-M "F M M 2"
_symmetry_group_IT_number 42
_symmetry_cell_setting 'orthorhombic'
loop_
_space_group_symop_operation_xyz
x,y,z
-x,-y,z
-x,y,z
x,-y,z
x,1/2+y,1/2+z
-x,1/2-y,1/2+z
-x,1/2+y,1/2+z
x,1/2-y,1/2+z
1/2+x,y,1/2+z
1/2-x,-y,1/2+z
1/2-x,y,1/2+z
1/2+x,-y,1/2+z
1/2+x,1/2+y,z
1/2-x,1/2-y,z
1/2-x,1/2+y,z
1/2+x,1/2-y,z
loop_
_atom_site_type_symbol
_atom_site_label
_atom_site_fract_x
_atom_site_fract_y
_atom_site_fract_z
Si Si1 0.905664 0.861835 0.714850
Si Si2 0.570524 0.221640 0.544374
Si Si3 0.198952 0.680315 0.710209
Si Si4 0.500000 0.000000 0.241476
Si Si5 0.710512 0.411054 0.530236
O O1 0.929307 0.811888 0.566356
O O2 0.836661 0.888815 0.671325
O O3 0.946735 0.934494 0.738766
O O4 0.914277 0.810959 0.871605
O O5 0.500000 0.195628 0.588310
O O6 0.630157 0.200915 0.651631
O O7 0.250000 0.750000 0.706004
O O8 0.222937 0.615255 0.592556
O O9 0.196477 0.642873 0.882150
O O10 0.706466 0.500000 0.494029
#
# Coordination Sequence:
#
# PCOD9369980 Si02
#       5
#    16  16  16   4  16
#     4  12  25  46  76 105 145 192 243 292 364 430
#     4  12  25  47  75 109 142 192 246 297 357 435
#     4  12  26  46  75 106 140 194 252 299 353 434
#     4  12  24  48  72 110 152 190 230 302 368 444
#     4  12  26  47  71 107 148 192 241 304 368 426
#
# _framework density 21.156247
#
# number of rings (size 3 to 8) (size 9 to 14) (size 15 to 20)
#    0.000    0.000    5.882    4.235    0.000    0.000 
#    6.353    0.000    0.000    1.412    0.000    0.000 
#    0.000    0.000    0.000    0.000    0.000    0.000 
#
# Total GULP energy -94687.870528 kJ/mol
# GULP energy per Si atom -5569.874737 kJ/mol
# Density = 2.110809 g / cm^3
# Si number density = 21.156247 Si / 1000 Ang^3
#
#
#
# Elastic Constant Matrix: (Units=GPa)
#
#
# Indices 1 2 3 4 5 6 
#
# 1 163.3211 44.1253 45.2108 0.0000 0.0000 0.0000
# 2 44.1253 155.0719 66.2241 0.0000 0.0001 0.0000
# 3 45.2108 66.2241 95.2317 0.0000 0.0001 -0.0001
# 4 0.0000 0.0000 0.0000 7.6059 0.0001 -0.0001
# 5 0.0000 0.0001 0.0001 0.0001 8.2986 0.0000
# 6 0.0000 0.0000 -0.0001 -0.0001 0.0000 50.1058
#
#
#
# Elastic Compliance Matrix: (Units=1/GPa)
#
#
# Indices 1 2 3 4 5 6 
#
# 1 0.007123 -0.000829 -0.002805 0.000000 0.000000 0.000000
# 2 -0.000829 0.009269 -0.006052 0.000000 0.000000 0.000000
# 3 -0.002805 -0.006052 0.016041 0.000000 0.000000 0.000000
# 4 0.000000 0.000000 0.000000 0.131476 -0.000001 0.000000
# 5 0.000000 0.000000 0.000000 -0.000001 0.120503 0.000000
# 6 0.000000 0.000000 0.000000 0.000000 0.000000 0.019958
#
#
# Mechanical properties :
#
#
# Convention : Reuss Voigt Hill
#
# Bulk Modulus (GPa) = 76.56512 80.52724 78.54618
# Shear Modulus (GPa) = 15.23939 30.40637 22.82288
#
# Velocity S-wave (km/s) = 2.68680 3.79519 3.28804
# Velocity P-wave (km/s) = 6.77452 7.57300 7.18486
#
# Compressibility (1/GPa) = 0.01306078
#
# Stress axis : x y z
#
# Youngs Moduli (GPa) = 140.38138 107.88531 62.33923
#
# Poissons Ratio (x) = 0.08943 0.17489
# Poissons Ratio (y) = 0.11636 0.37729
# Poissons Ratio (z) = 0.39383 0.65294
#
# Static dielectric constant tensor:
#      x y z
#    x 1.835330 0.000000 0.000000 
#    y 0.000000 1.764390 0.000000 
#    z 0.000000 0.000000 1.800840 
# 
# From -- ./inp_files/3286.got.cif
#   From: 2010.05.17/outbox.cif.g08.bks.cpg/sg42_2_cif.got.tgz:3286.got - 2010.06.03 19:03:34.
