data_PCOD9369299
_publ_section_title
;
Structure prediction by ZEFSAII (Michael W. Deem and Ramdas Pophale) SiO2 
 PCOD9369299
Probable space group: F M M 2
;
_chemical_formula_sum "Si O2"
_cell_formula_units_Z 112
_cell_length_a 13.461671
_cell_length_b 24.086135
_cell_length_c 13.895175
_cell_angle_alpha 90.000000
_cell_angle_beta 90.000000
_cell_angle_gamma 90.000000
_cell_volume 4505.366332
_symmetry_space_group_name_H-M "F M M 2"
_symmetry_group_IT_number 42
_symmetry_cell_setting 'orthorhombic'
loop_
_space_group_symop_operation_xyz
x,y,z
-x,-y,z
-x,y,z
x,-y,z
x,1/2+y,1/2+z
-x,1/2-y,1/2+z
-x,1/2+y,1/2+z
x,1/2-y,1/2+z
1/2+x,y,1/2+z
1/2-x,-y,1/2+z
1/2-x,y,1/2+z
1/2+x,-y,1/2+z
1/2+x,1/2+y,z
1/2-x,1/2-y,z
1/2-x,1/2+y,z
1/2+x,1/2-y,z
loop_
_atom_site_type_symbol
_atom_site_label
_atom_site_fract_x
_atom_site_fract_y
_atom_site_fract_z
Si Si1 0.119402 0.611446 0.561990
Si Si2 0.274564 0.064482 0.746727
Si Si3 0.620657 0.276171 0.159152
Si Si4 0.380638 0.761026 0.866360
Si Si5 0.879909 0.937387 0.450897
Si Si6 0.120717 0.829309 0.554112
Si Si7 0.618345 0.631775 0.847860
O O1 0.167308 0.577222 0.648652
O O2 0.147155 0.675660 0.585076
O O3 0.140260 0.600746 0.449538
O O4 0.000000 0.606892 0.571417
O O5 0.341793 0.074559 0.842663
O O6 0.178971 0.102916 0.763414
O O7 0.245764 0.000000 0.748173
O O8 0.500000 0.274484 0.156053
O O9 0.649609 0.290219 0.267492
O O10 0.653594 0.213388 0.136668
O O11 0.500000 0.761959 0.869840
O O12 0.350391 0.794280 0.959477
O O13 0.354955 0.696299 0.862284
O O14 0.846643 0.891519 0.528865
O O15 0.000000 0.935562 0.447365
O O16 0.849081 0.000000 0.477122
O O17 0.000000 0.832206 0.562089
O O18 0.500000 0.629420 0.830100
#
# Coordination Sequence:
#
# PCOD9369299 Si02
#       7
#    16  16  16  16  16  16  16
#     4  10  20  40  71 102 130 171 226 281 337 404
#     4  11  24  41  64  95 132 171 221 288 346 396
#     4   9  16  29  58  94 126 165 214 267 330 397
#     4   9  16  30  56  88 122 163 210 267 331 392
#     4   9  18  34  57  88 130 176 218 267 331 398
#     4   9  15  28  53  87 125 170 216 261 324 397
#     4  10  22  43  69  93 130 179 228 280 343 412
#
# _framework density 24.859242999999999
#
# number of rings (size 3 to 8) (size 9 to 14) (size 15 to 20)
#    0.000    2.429    1.429    1.286    0.000    4.000 
#    2.571    4.286    0.000    0.857    0.000    2.000 
#    0.000    0.000    0.000    0.000    0.000    0.000 
#
# Total GULP energy -156790.336977 kJ/mol
# GULP energy per Si atom -5599.654892 kJ/mol
# Density = 2.480266 g / cm^3
# Si number density = 24.859243 Si / 1000 Ang^3
#
#
#
# Elastic Constant Matrix: (Units=GPa)
#
#
# Indices 1 2 3 4 5 6 
#
# 1 88.5220 -0.1248 -3.2847 0.0000 0.0000 0.0000
# 2 -0.1248 120.3929 19.3888 0.0000 0.0000 0.0000
# 3 -3.2847 19.3888 87.3851 0.0000 0.0000 0.0000
# 4 0.0000 0.0000 0.0000 40.4937 0.0000 0.0000
# 5 0.0000 0.0000 0.0000 0.0000 35.2555 0.0000
# 6 0.0000 0.0000 0.0000 0.0000 0.0000 26.4420
#
#
#
# Elastic Compliance Matrix: (Units=1/GPa)
#
#
# Indices 1 2 3 4 5 6 
#
# 1 0.011313 -0.000059 0.000438 0.000000 0.000000 0.000000
# 2 -0.000059 0.008614 -0.001914 0.000000 0.000000 0.000000
# 3 0.000438 -0.001914 0.011885 0.000000 0.000000 0.000000
# 4 0.000000 0.000000 0.000000 0.024695 0.000000 0.000000
# 5 0.000000 0.000000 0.000000 0.000000 0.028364 0.000000
# 6 0.000000 0.000000 0.000000 0.000000 0.000000 0.037819
#
#
# Mechanical properties :
#
#
# Convention : Reuss Voigt Hill
#
# Bulk Modulus (GPa) = 34.79045 36.47318 35.63182
# Shear Modulus (GPa) = 36.94420 39.12629 38.03524
#
# Velocity S-wave (km/s) = 3.85922 3.97156 3.91580
# Velocity P-wave (km/s) = 5.82095 5.97786 5.89993
#
# Compressibility (1/GPa) = 0.02874352
#
# Stress axis : x y z
#
# Youngs Moduli (GPa) = 88.39539 116.08687 84.14222
#
# Poissons Ratio (x) = 0.00683 -0.03688
# Poissons Ratio (y) = 0.00520 0.16101
# Poissons Ratio (z) = -0.03874 0.22213
#
# Static dielectric constant tensor:
#      x y z
#    x 2.034260 0.000000 0.000000 
#    y 0.000000 1.930270 0.000000 
#    z 0.000000 0.000000 1.917730 
# 
# From -- ./inp_files/14215.got.cif
#   From: 2010.05.17/outbox.cif.g08.bks.cpg/sg42_8_cif.got.tgz:14215.got - 2010.06.03 19:03:34.
