data_PCOD9369354
_publ_section_title
;
Structure prediction by ZEFSAII (Michael W. Deem and Ramdas Pophale) SiO2 
 PCOD9369354
Probable space group: F M M 2
;
_chemical_formula_sum "Si O2"
_cell_formula_units_Z 96
_cell_length_a 14.892867
_cell_length_b 22.145672
_cell_length_c 14.577865
_cell_angle_alpha 90.000000
_cell_angle_beta 90.000000
_cell_angle_gamma 90.000000
_cell_volume 4807.962796
_symmetry_space_group_name_H-M "F M M 2"
_symmetry_group_IT_number 42
_symmetry_cell_setting 'orthorhombic'
loop_
_space_group_symop_operation_xyz
x,y,z
-x,-y,z
-x,y,z
x,-y,z
x,1/2+y,1/2+z
-x,1/2-y,1/2+z
-x,1/2+y,1/2+z
x,1/2-y,1/2+z
1/2+x,y,1/2+z
1/2-x,-y,1/2+z
1/2-x,y,1/2+z
1/2+x,-y,1/2+z
1/2+x,1/2+y,z
1/2-x,1/2-y,z
1/2-x,1/2+y,z
1/2+x,1/2-y,z
loop_
_atom_site_type_symbol
_atom_site_label
_atom_site_fract_x
_atom_site_fract_y
_atom_site_fract_z
Si Si1 0.105818 0.313755 0.123220
Si Si2 0.606697 0.934946 0.514757
Si Si3 0.255325 0.934473 0.856724
Si Si4 0.808934 0.809217 0.813263
Si Si5 0.392283 0.566811 0.520498
Si Si6 0.108121 0.804075 0.016774
O O1 0.120820 0.310823 0.231068
O O2 0.140155 0.376568 0.080380
O O3 0.000000 0.314340 0.105541
O O4 0.141842 0.253758 0.073006
O O5 0.500000 0.933446 0.492888
O O6 0.667830 0.935945 0.423694
O O7 0.627720 0.870234 0.560346
O O8 0.623603 0.000000 0.562209
O O9 0.246348 0.871687 0.804500
O O10 0.258282 0.000000 0.808559
O O11 0.340665 0.930394 0.924200
O O12 0.750000 0.750000 0.800336
O O13 0.851548 0.804637 0.914565
O O14 0.500000 0.570295 0.508563
O O15 0.372464 0.500000 0.560502
O O16 0.000000 0.799552 0.009958
#
# Coordination Sequence:
#
# PCOD9369354 Si02
#       6
#    16  16  16  16  16  16
#     4  10  21  36  54  77 106 141 182 228 276 324
#     4   8  14  26  47  76 106 135 167 205 257 321
#     4   9  18  33  53  78 107 139 176 218 267 322
#     4  11  22  33  51  79 108 140 178 223 273 329
#     4   9  18  34  56  80 106 141 184 225 267 319
#     4   9  18  34  54  74 102 140 178 219 268 323
#
# _framework density 19.966875999999999
#
# number of rings (size 3 to 8) (size 9 to 14) (size 15 to 20)
#    0.000    2.667    0.000    1.500    0.000    4.667 
#    0.000    0.833    0.000    5.000    0.000    1.167 
#    0.000   13.333    0.000    0.000    0.000    0.000 
#
# Total GULP energy -133640.219380 kJ/mol
# GULP energy per Si atom -5568.342474 kJ/mol
# Density = 1.992143 g / cm^3
# Si number density = 19.966876 Si / 1000 Ang^3
#
#
#
# Elastic Constant Matrix: (Units=GPa)
#
#
# Indices 1 2 3 4 5 6 
#
# 1 43.0470 23.3220 -3.1656 0.0000 0.0000 0.0000
# 2 23.3220 225.2563 41.6499 0.0000 0.0000 0.0000
# 3 -3.1656 41.6499 45.4133 0.0000 0.0000 0.0000
# 4 0.0000 0.0000 0.0000 -7.8649 0.0000 0.0000
# 5 0.0000 0.0000 0.0000 0.0000 -24.3842 0.0000
# 6 0.0000 0.0000 0.0000 0.0000 0.0000 -0.4694
#
#
#
# Elastic Compliance Matrix: (Units=1/GPa)
#
#
# Indices 1 2 3 4 5 6 
#
# 1 0.025543 -0.003581 0.005065 0.000000 0.000000 0.000000
# 2 -0.003581 0.005848 -0.005613 0.000000 0.000000 0.000000
# 3 0.005065 -0.005613 0.027521 0.000000 0.000000 0.000000
# 4 0.000000 0.000000 0.000000 -0.127147 0.000000 0.000000
# 5 0.000000 0.000000 0.000000 0.000000 -0.041010 0.000000
# 6 0.000000 0.000000 0.000000 0.000000 0.000000 -2.130283
#
#
# Mechanical properties :
#
#
# Convention : Reuss Voigt Hill
#
# Bulk Modulus (GPa) = 19.74200 48.59215 34.16708
# Shear Modulus (GPa) = -2.25796 10.25031 3.99617
#
# Velocity S-wave (km/s) = -1.06457 2.26822 1.41624
# Velocity P-wave (km/s) = 2.89789 5.59008 4.45234
#
# Compressibility (1/GPa) = 0.05065343
#
# Stress axis : x y z
#
# Youngs Moduli (GPa) = 39.14956 170.99849 36.33603
#
# Poissons Ratio (x) = 0.61236 -0.18404
# Poissons Ratio (y) = 0.14020 0.20395
# Poissons Ratio (z) = -0.19829 0.95982
#
# Static dielectric constant tensor:
#      x y z
#    x 1.757540 0.000000 0.000000 
#    y 0.000000 1.797830 0.000000 
#    z 0.000000 0.000000 1.645040 
# 
# From -- ./inp_files/13969.got.cif
#   From: 2010.05.17/outbox.cif.g08.bks.cpg/sg42_7_cif.got.tgz:13969.got - 2010.06.03 19:03:34.
