data_PCOD9369035
_publ_section_title
;
Structure prediction by ZEFSAII (Michael W. Deem and Ramdas Pophale) SiO2 
 PCOD9369035
Probable space group: F M M 2
;
_chemical_formula_sum "Si O2"
_cell_formula_units_Z 96
_cell_length_a 15.862735
_cell_length_b 22.471657
_cell_length_c 12.685981
_cell_angle_alpha 90.000000
_cell_angle_beta 90.000000
_cell_angle_gamma 90.000000
_cell_volume 4522.069398
_symmetry_space_group_name_H-M "F M M 2"
_symmetry_group_IT_number 42
_symmetry_cell_setting 'orthorhombic'
loop_
_space_group_symop_operation_xyz
x,y,z
-x,-y,z
-x,y,z
x,-y,z
x,1/2+y,1/2+z
-x,1/2-y,1/2+z
-x,1/2+y,1/2+z
x,1/2-y,1/2+z
1/2+x,y,1/2+z
1/2-x,-y,1/2+z
1/2-x,y,1/2+z
1/2+x,-y,1/2+z
1/2+x,1/2+y,z
1/2-x,1/2-y,z
1/2-x,1/2+y,z
1/2+x,1/2-y,z
loop_
_atom_site_type_symbol
_atom_site_label
_atom_site_fract_x
_atom_site_fract_y
_atom_site_fract_z
Si Si1 0.399118 0.792204 0.626760
Si Si2 0.097731 0.399915 0.761727
Si Si3 0.097566 0.340377 0.149240
Si Si4 0.659079 0.907085 0.536641
Si Si5 0.150677 0.433548 0.985539
Si Si6 0.399890 0.564369 0.807977
O O1 0.500000 0.793303 0.600410
O O2 0.391202 0.829337 0.736185
O O3 0.366367 0.725280 0.632399
O O4 0.351119 0.835333 0.545494
O O5 0.120822 0.427576 0.648237
O O6 0.000000 0.411464 0.785250
O O7 0.149574 0.422138 0.860671
O O8 0.101303 0.381747 0.046226
O O9 0.137080 0.380844 0.241564
O O10 0.000000 0.328882 0.177598
O O11 0.754300 0.927611 0.526098
O O12 0.612090 0.927842 0.432159
O O13 0.117694 0.500000 0.006979
O O14 0.500000 0.563301 0.785456
O O15 0.364162 0.500000 0.775946
#
# Coordination Sequence:
#
# PCOD9369035 Si02
#       6
#    16  16  16  16  16  16
#     4   8  18  41  68  93 118 159 218 266 312 372
#     4   9  21  44  68  94 123 166 222 266 310 376
#     4  10  22  40  63  92 127 165 207 260 316 379
#     4  10  22  41  63  92 125 162 210 266 319 370
#     4  12  26  39  60  94 132 170 207 256 319 379
#     4  10  20  35  59  89 123 166 210 254 311 380
#
# _framework density 21.229217999999999
#
# number of rings (size 3 to 8) (size 9 to 14) (size 15 to 20)
#    1.000    1.167    0.000    2.500    2.333    5.333 
#    0.000    3.333    0.000    0.000    0.000    0.000 
#    0.000    0.000    0.000    0.000    0.000    0.000 
#
# Total GULP energy -133816.036674 kJ/mol
# GULP energy per Si atom -5575.668195 kJ/mol
# Density = 2.118090 g / cm^3
# Si number density = 21.229218 Si / 1000 Ang^3
#
#
#
# Elastic Constant Matrix: (Units=GPa)
#
#
# Indices 1 2 3 4 5 6 
#
# 1 21.9057 14.6715 -5.6046 0.0000 0.0000 0.0000
# 2 14.6715 166.9194 34.7056 0.0000 0.0000 0.0000
# 3 -5.6046 34.7056 88.3187 0.0000 0.0000 0.0000
# 4 0.0000 0.0000 0.0000 23.7597 0.0000 0.0000
# 5 0.0000 0.0000 0.0000 0.0000 -33.0922 0.0000
# 6 0.0000 0.0000 0.0000 0.0000 0.0000 -124.4490
#
#
#
# Elastic Compliance Matrix: (Units=1/GPa)
#
#
# Indices 1 2 3 4 5 6 
#
# 1 0.050781 -0.005590 0.005419 0.000000 0.000000 0.000000
# 2 -0.005590 0.007139 -0.003160 0.000000 0.000000 0.000000
# 3 0.005419 -0.003160 0.012908 0.000000 0.000000 0.000000
# 4 0.000000 0.000000 0.000000 0.042088 0.000000 0.000000
# 5 0.000000 0.000000 0.000000 0.000000 -0.030219 0.000000
# 6 0.000000 0.000000 0.000000 0.000000 0.000000 -0.008035
#
#
# Mechanical properties :
#
#
# Convention : Reuss Voigt Hill
#
# Bulk Modulus (GPa) = 15.58456 40.52097 28.05277
# Shear Modulus (GPa) = 48.67905 -11.19822 18.74041
#
# Velocity S-wave (km/s) = 4.79375 -2.29921 2.97436
# Velocity P-wave (km/s) = 6.16417 3.47568 5.00387
#
# Compressibility (1/GPa) = 0.06416608
#
# Stress axis : x y z
#
# Youngs Moduli (GPa) = 19.69249 140.06929 77.46929
#
# Poissons Ratio (x) = 0.78301 -0.41982
# Poissons Ratio (y) = 0.11008 0.24482
# Poissons Ratio (z) = -0.10672 0.44265
#
# Static dielectric constant tensor:
#      x y z
#    x 1.819540 0.000000 0.000000 
#    y 0.000000 1.836920 0.000000 
#    z 0.000000 0.000000 1.736020 
# 
# From -- ./inp_files/8807.got.cif
#   From: 2010.05.17/outbox.cif.g08.bks.cpg/sg42_5_cif.got.tgz:8807.got - 2010.06.03 19:03:34.
