data_PCOD9369067
_publ_section_title
;
Structure prediction by ZEFSAII (Michael W. Deem and Ramdas Pophale) SiO2 
 PCOD9369067
Probable space group: F M M 2
;
_chemical_formula_sum "Si O2"
_cell_formula_units_Z 80
_cell_length_a 7.673349
_cell_length_b 14.868585
_cell_length_c 31.940167
_cell_angle_alpha 90.000000
_cell_angle_beta 90.000000
_cell_angle_gamma 90.000000
_cell_volume 3644.112482
_symmetry_space_group_name_H-M "F M M 2"
_symmetry_group_IT_number 42
_symmetry_cell_setting 'orthorhombic'
loop_
_space_group_symop_operation_xyz
x,y,z
-x,-y,z
-x,y,z
x,-y,z
x,1/2+y,1/2+z
-x,1/2-y,1/2+z
-x,1/2+y,1/2+z
x,1/2-y,1/2+z
1/2+x,y,1/2+z
1/2-x,-y,1/2+z
1/2-x,y,1/2+z
1/2+x,-y,1/2+z
1/2+x,1/2+y,z
1/2-x,1/2-y,z
1/2-x,1/2+y,z
1/2+x,1/2-y,z
loop_
_atom_site_type_symbol
_atom_site_label
_atom_site_fract_x
_atom_site_fract_y
_atom_site_fract_z
Si Si1 0.293672 0.854819 0.026390
Si Si2 0.209658 0.856859 0.345772
Si Si3 0.703485 0.000000 0.594440
Si Si4 0.290616 0.144817 0.754614
Si Si5 0.214428 0.000000 0.188461
Si Si6 0.209881 0.356938 0.935751
O O1 0.500000 0.862081 0.022922
O O2 0.250000 0.750000 0.031756
O O3 0.242951 0.914049 0.065801
O O4 0.222407 0.888123 0.981083
O O5 0.250000 0.750000 0.345819
O O6 0.274773 0.888153 0.300370
O O7 0.275585 0.891951 0.390759
O O8 0.000000 0.869175 0.346015
O O9 0.781756 0.000000 0.640979
O O10 0.500000 0.000000 0.601433
O O11 0.500000 0.136063 0.756008
O O12 0.250000 0.250000 0.749956
O O13 0.229083 0.086028 0.715702
O O14 0.000000 0.000000 0.187979
O O15 0.250000 0.250000 0.935919
O O16 0.000000 0.369500 0.935285
#
# Coordination Sequence:
#
# PCOD9369067 Si02
#       6
#    16  16   8  16   8  16
#     4  10  20  36  57  81 109 140 176 217 263 315
#     4   8  13  23  43  71 100 130 162 196 239 294
#     4  11  23  39  56  75 103 139 181 227 272 315
#     4   9  17  32  53  76 102 132 166 204 249 302
#     4   9  20  37  54  73  99 131 169 215 262 307
#     4   8  14  25  44  72 103 133 164 200 244 298
#
# _framework density 21.953219000000001
#
# number of rings (size 3 to 8) (size 9 to 14) (size 15 to 20)
#    0.000    3.000    0.000    0.900    0.000    1.600 
#    0.000    5.500    0.000    4.800    0.000    0.000 
#    0.000    0.000    0.000    0.000    0.000    0.000 
#
# Total GULP energy -111466.598250 kJ/mol
# GULP energy per Si atom -5573.329913 kJ/mol
# Density = 2.190325 g / cm^3
# Si number density = 21.953219 Si / 1000 Ang^3
#
#
#
# Elastic Constant Matrix: (Units=GPa)
#
#
# Indices 1 2 3 4 5 6 
#
# 1 43.3484 -3.3352 15.4273 0.0000 0.0000 0.0000
# 2 -3.3352 99.4600 94.1656 0.0000 0.0000 0.0000
# 3 15.4273 94.1656 301.5196 0.0000 0.0000 0.0000
# 4 0.0000 0.0000 0.0000 35.9096 0.0000 0.0000
# 5 0.0000 0.0000 0.0000 0.0000 12.5539 0.0000
# 6 0.0000 0.0000 0.0000 0.0000 0.0000 11.2096
#
#
#
# Elastic Compliance Matrix: (Units=1/GPa)
#
#
# Indices 1 2 3 4 5 6 
#
# 1 0.024033 0.002797 -0.002103 0.000000 0.000000 0.000000
# 2 0.002797 0.014601 -0.004703 0.000000 0.000000 0.000000
# 3 -0.002103 -0.004703 0.004893 0.000000 0.000000 0.000000
# 4 0.000000 0.000000 0.000000 0.027848 0.000000 0.000000
# 5 0.000000 0.000000 0.000000 0.000000 0.079656 0.000000
# 6 0.000000 0.000000 0.000000 0.000000 0.000000 0.089209
#
#
# Mechanical properties :
#
#
# Convention : Reuss Voigt Hill
#
# Bulk Modulus (GPa) = 28.16256 72.98261 50.57259
# Shear Modulus (GPa) = 19.22388 34.47266 26.84827
#
# Velocity S-wave (km/s) = 2.96239 3.96697 3.50090
# Velocity P-wave (km/s) = 4.95553 7.36880 6.27919
#
# Compressibility (1/GPa) = 0.03550813
#
# Stress axis : x y z
#
# Youngs Moduli (GPa) = 41.61013 68.48979 204.37794
#
# Poissons Ratio (x) = -0.19157 0.42984
# Poissons Ratio (y) = -0.11639 0.96118
# Poissons Ratio (z) = 0.08751 0.32211
#
# Static dielectric constant tensor:
#      x y z
#    x 1.864530 0.000000 0.000000 
#    y 0.000000 1.741710 0.000000 
#    z 0.000000 0.000000 1.890740 
# 
# From -- ./inp_files/31285.got.cif
#   From: 2010.05.17/outbox.cif.g08.bks.cpg/sg42_16_cif.got.tgz:31285.got - 2010.06.03 19:03:34.
