data_PCOD9369912
_publ_section_title
;
Structure prediction by ZEFSAII (Michael W. Deem and Ramdas Pophale) SiO2 
 PCOD9369912
Probable space group: F M M 2
;
_chemical_formula_sum "Si O2"
_cell_formula_units_Z 68
_cell_length_a 15.241529
_cell_length_b 21.782776
_cell_length_c 8.645972
_cell_angle_alpha 90.000000
_cell_angle_beta 90.000000
_cell_angle_gamma 90.000000
_cell_volume 2870.487017
_symmetry_space_group_name_H-M "F M M 2"
_symmetry_group_IT_number 42
_symmetry_cell_setting 'orthorhombic'
loop_
_space_group_symop_operation_xyz
x,y,z
-x,-y,z
-x,y,z
x,-y,z
x,1/2+y,1/2+z
-x,1/2-y,1/2+z
-x,1/2+y,1/2+z
x,1/2-y,1/2+z
1/2+x,y,1/2+z
1/2-x,-y,1/2+z
1/2-x,y,1/2+z
1/2+x,-y,1/2+z
1/2+x,1/2+y,z
1/2-x,1/2-y,z
1/2-x,1/2+y,z
1/2+x,1/2-y,z
loop_
_atom_site_type_symbol
_atom_site_label
_atom_site_fract_x
_atom_site_fract_y
_atom_site_fract_z
Si Si1 0.100598 0.432491 0.134190
Si Si2 0.500000 0.000000 0.534008
Si Si3 0.863245 0.388041 0.464834
Si Si4 0.671996 0.835998 0.963484
Si Si5 0.899739 0.225582 0.160518
O O1 0.139117 0.500000 0.110900
O O2 0.140474 0.398878 0.281228
O O3 0.000000 0.439784 0.181434
O O4 0.103303 0.391139 0.983248
O O5 0.578912 0.054662 0.527884
O O6 0.761420 0.372398 0.500916
O O7 0.905581 0.325446 0.526108
O O8 0.656571 0.803513 0.799977
O O9 0.648614 0.784009 0.088303
O O10 0.000000 0.240459 0.210414
#
# Coordination Sequence:
#
# PCOD9369912 Si02
#       5
#    16   4  16  16  16
#     4  11  22  44  70 107 152 202 249 307 390 462
#     4  12  24  52  80 110 154 216 250 314 404 468
#     4  12  24  48  77 107 148 200 261 304 389 464
#     4  12  28  45  77 114 153 198 259 324 377 461
#     4  12  25  49  74 112 157 203 254 322 395 459
#
# _framework density 23.689360000000001
#
# number of rings (size 3 to 8) (size 9 to 14) (size 15 to 20)
#    0.000    0.235    3.529    5.647    1.647    1.882 
#    2.118    0.000    0.000    0.000    0.000    0.000 
#    0.000    0.000    0.000    0.000    0.000    0.000 
#
# Total GULP energy -94638.771982 kJ/mol
# GULP energy per Si atom -5566.986587 kJ/mol
# Density = 2.363544 g / cm^3
# Si number density = 23.689360 Si / 1000 Ang^3
#
#
#
# Elastic Constant Matrix: (Units=GPa)
#
#
# Indices 1 2 3 4 5 6 
#
# 1 157.2204 59.2968 15.4647 0.0000 0.0000 0.0000
# 2 59.2968 211.6765 66.5399 0.0000 0.0000 0.0000
# 3 15.4647 66.5399 75.2911 0.0000 0.0000 0.0000
# 4 0.0000 0.0000 0.0000 1.3475 0.0000 0.0000
# 5 0.0000 0.0000 0.0000 0.0000 21.7336 0.0000
# 6 0.0000 0.0000 0.0000 0.0000 0.0000 51.0981
#
#
#
# Elastic Compliance Matrix: (Units=1/GPa)
#
#
# Indices 1 2 3 4 5 6 
#
# 1 0.007121 -0.002126 0.000416 0.000000 0.000000 0.000000
# 2 -0.002126 0.007176 -0.005905 0.000000 0.000000 0.000000
# 3 0.000416 -0.005905 0.018415 0.000000 0.000000 0.000000
# 4 0.000000 0.000000 0.000000 0.742125 0.000000 0.000000
# 5 0.000000 0.000000 0.000000 0.000000 0.046012 0.000000
# 6 0.000000 0.000000 0.000000 0.000000 0.000000 0.019570
#
#
# Mechanical properties :
#
#
# Convention : Reuss Voigt Hill
#
# Bulk Modulus (GPa) = 57.20034 80.75452 68.97743
# Shear Modulus (GPa) = 5.80398 35.02830 20.41614
#
# Velocity S-wave (km/s) = 1.56696 3.84950 2.93887
# Velocity P-wave (km/s) = 5.24140 7.34310 6.37939
#
# Compressibility (1/GPa) = 0.01748241
#
# Stress axis : x y z
#
# Youngs Moduli (GPa) = 140.42427 139.35467 54.30278
#
# Poissons Ratio (x) = 0.29621 -0.02258
# Poissons Ratio (y) = 0.29848 0.32067
# Poissons Ratio (z) = -0.05839 0.82293
#
# Static dielectric constant tensor:
#      x y z
#    x 2.023410 0.000000 0.000000 
#    y 0.000000 1.891050 0.000000 
#    z 0.000000 0.000000 1.888170 
# 
# From -- ./inp_files/3291.got.cif
#   From: 2010.05.17/outbox.cif.g08.bks.cpg/sg42_2_cif.got.tgz:3291.got - 2010.06.03 19:03:34.
