data_PCOD9369057
_publ_section_title
;
Structure prediction by ZEFSAII (Michael W. Deem and Ramdas Pophale) SiO2 
 PCOD9369057
Probable space group: F M M 2
;
_chemical_formula_sum "Si O2"
_cell_formula_units_Z 104
_cell_length_a 10.030868
_cell_length_b 19.527850
_cell_length_c 28.427410
_cell_angle_alpha 90.000000
_cell_angle_beta 90.000000
_cell_angle_gamma 90.000000
_cell_volume 5568.397619
_symmetry_space_group_name_H-M "F M M 2"
_symmetry_group_IT_number 42
_symmetry_cell_setting 'orthorhombic'
loop_
_space_group_symop_operation_xyz
x,y,z
-x,-y,z
-x,y,z
x,-y,z
x,1/2+y,1/2+z
-x,1/2-y,1/2+z
-x,1/2+y,1/2+z
x,1/2-y,1/2+z
1/2+x,y,1/2+z
1/2-x,-y,1/2+z
1/2-x,y,1/2+z
1/2+x,-y,1/2+z
1/2+x,1/2+y,z
1/2-x,1/2-y,z
1/2-x,1/2+y,z
1/2+x,1/2-y,z
loop_
_atom_site_type_symbol
_atom_site_label
_atom_site_fract_x
_atom_site_fract_y
_atom_site_fract_z
Si Si1 0.145694 0.645031 0.918400
Si Si2 0.341105 0.648941 0.077498
Si Si3 0.750000 0.750000 0.994812
Si Si4 0.848894 0.079546 0.259042
Si Si5 0.660432 0.000000 0.550452
Si Si6 0.841086 0.918186 0.847250
Si Si7 0.358696 0.000000 0.970619
Si Si8 0.656147 0.692004 0.180580
O O1 0.166696 0.702192 0.958772
O O2 0.269292 0.634436 0.883093
O O3 0.139427 0.569863 0.941714
O O4 0.000000 0.657416 0.895745
O O5 0.500000 0.645150 0.081229
O O6 0.291667 0.571157 0.072539
O O7 0.294765 0.677843 0.127444
O O8 0.311836 0.695145 0.031746
O O9 0.737027 0.092098 0.298238
O O10 0.833557 0.125664 0.213173
O O11 0.000000 0.091401 0.278149
O O12 0.841198 0.000000 0.245815
O O13 0.500000 0.000000 0.549629
O O14 0.723084 0.000000 0.499176
O O15 0.000000 0.907371 0.844565
O O16 0.821112 0.000000 0.859788
O O17 0.500000 0.000000 0.998878
O O18 0.500000 0.712237 0.179075
O O19 0.750000 0.750000 0.201511
#
# Coordination Sequence:
#
# PCOD9369057 Si02
#       8
#    16  16   8  16   8  16   8  16
#     4  11  23  38  59  85 117 156 197 243 295 356
#     4  10  21  36  57  85 116 153 197 243 292 344
#     4  12  22  38  58  84 122 158 198 242 298 350
#     4   9  19  37  63  91 119 152 196 247 295 348
#     4  10  20  36  58  81 110 151 197 250 293 339
#     4  10  21  38  63  91 119 153 197 249 302 354
#     4  10  20  36  56  81 110 149 195 238 285 347
#     4  10  21  38  60  88 119 158 196 237 292 353
#
# _framework density 18.676826999999999
#
# number of rings (size 3 to 8) (size 9 to 14) (size 15 to 20)
#    0.000    1.846    3.077    0.923    1.077    3.077 
#    1.385    0.769    0.000    0.000    0.000    0.000 
#    0.000    0.000    0.000    0.000    0.000    0.000 
#
# Total GULP energy -144753.792569 kJ/mol
# GULP energy per Si atom -5567.453560 kJ/mol
# Density = 1.863432 g / cm^3
# Si number density = 18.676827 Si / 1000 Ang^3
#
#
#
# Elastic Constant Matrix: (Units=GPa)
#
#
# Indices 1 2 3 4 5 6 
#
# 1 90.5942 39.8091 50.1979 0.0000 0.0000 0.0000
# 2 39.8091 96.9607 40.9186 0.0000 0.0000 0.0000
# 3 50.1979 40.9186 76.1250 0.0000 0.0000 0.0000
# 4 0.0000 0.0000 0.0000 0.9596 0.0000 0.0000
# 5 0.0000 0.0000 0.0000 0.0000 24.7601 0.0000
# 6 0.0000 0.0000 0.0000 0.0000 0.0000 10.9343
#
#
#
# Elastic Compliance Matrix: (Units=1/GPa)
#
#
# Indices 1 2 3 4 5 6 
#
# 1 0.018084 -0.003094 -0.010262 0.000000 0.000000 0.000000
# 2 -0.003094 0.013869 -0.005414 0.000000 0.000000 0.000000
# 3 -0.010262 -0.005414 0.022813 0.000000 0.000000 0.000000
# 4 0.000000 0.000000 0.000000 1.042117 0.000000 0.000000
# 5 0.000000 0.000000 0.000000 0.000000 0.040388 0.000000
# 6 0.000000 0.000000 0.000000 0.000000 0.000000 0.091455
#
#
# Mechanical properties :
#
#
# Convention : Reuss Voigt Hill
#
# Bulk Modulus (GPa) = 58.05311 58.39236 58.22274
# Shear Modulus (GPa) = 3.93079 16.18108 10.05594
#
# Velocity S-wave (km/s) = 1.45231 2.94661 2.32290
# Velocity P-wave (km/s) = 5.82775 6.55051 6.19967
#
# Compressibility (1/GPa) = 0.01722560
#
# Stress axis : x y z
#
# Youngs Moduli (GPa) = 55.29821 72.10444 43.83420
#
# Poissons Ratio (x) = 0.22310 0.44981
# Poissons Ratio (y) = 0.17110 0.23734
# Poissons Ratio (z) = 0.56744 0.39040
#
# Static dielectric constant tensor:
#      x y z
#    x 1.670720 0.000000 0.000000 
#    y 0.000000 1.764540 0.000000 
#    z 0.000000 0.000000 1.642270 
# 
# From -- ./inp_files/31590.got.cif
#   From: 2010.05.17/outbox.cif.g08.bks.cpg/sg42_16_cif.got.tgz:31590.got - 2010.06.03 19:03:34.
