data_PCOD9369726
_publ_section_title
;
Structure prediction by ZEFSAII (Michael W. Deem and Ramdas Pophale) SiO2 
 PCOD9369726
Probable space group: F M M 2
;
_chemical_formula_sum "Si O2"
_cell_formula_units_Z 116
_cell_length_a 26.324909
_cell_length_b 17.483235
_cell_length_c 11.945299
_cell_angle_alpha 90.000000
_cell_angle_beta 90.000000
_cell_angle_gamma 90.000000
_cell_volume 5497.759007
_symmetry_space_group_name_H-M "F M M 2"
_symmetry_group_IT_number 42
_symmetry_cell_setting 'orthorhombic'
loop_
_space_group_symop_operation_xyz
x,y,z
-x,-y,z
-x,y,z
x,-y,z
x,1/2+y,1/2+z
-x,1/2-y,1/2+z
-x,1/2+y,1/2+z
x,1/2-y,1/2+z
1/2+x,y,1/2+z
1/2-x,-y,1/2+z
1/2-x,y,1/2+z
1/2+x,-y,1/2+z
1/2+x,1/2+y,z
1/2-x,1/2-y,z
1/2-x,1/2+y,z
1/2+x,1/2-y,z
loop_
_atom_site_type_symbol
_atom_site_label
_atom_site_fract_x
_atom_site_fract_y
_atom_site_fract_z
Si Si1 0.443531 0.908907 0.817420
Si Si2 0.859662 0.826922 0.681727
Si Si3 0.088686 0.127536 0.894667
Si Si4 0.817584 0.088057 0.052250
Si Si5 0.160121 0.832781 0.270962
Si Si6 0.500000 0.500000 0.916960
Si Si7 0.943678 0.716659 0.003366
Si Si8 0.222429 0.834447 0.494851
O O1 0.500000 0.897285 0.765361
O O2 0.395291 0.871861 0.757056
O O3 0.443949 0.862416 0.933700
O O4 0.436638 0.000000 0.830179
O O5 0.888078 0.881830 0.769468
O O6 0.841665 0.757633 0.758948
O O7 0.901336 0.791562 0.597360
O O8 0.812064 0.849632 0.604793
O O9 0.068213 0.213550 0.918878
O O10 0.044499 0.066950 0.914965
O O11 0.133849 0.115759 0.983389
O O12 0.809433 0.134792 0.166185
O O13 0.824156 0.000000 0.079370
O O14 0.767432 0.105117 0.982097
O O15 0.184708 0.845983 0.390758
O O16 0.000000 0.728625 0.051467
O O17 0.250000 0.750000 0.496504
#
# Coordination Sequence:
#
# PCOD9369726 Si02
#       8
#    16  16  16  16  16   4  16  16
#     4  10  22  43  67 103 144 183 234 295 359 425
#     4  12  24  44  74 106 142 190 249 297 360 440
#     4  12  25  49  74 109 146 190 247 295 367 445
#     4  12  28  48  72 106 144 186 246 301 364 434
#     4  12  24  45  76 105 144 185 243 305 359 438
#     4  12  28  52  76 108 160 192 232 308 370 438
#     4  11  22  41  71 102 140 191 237 290 358 438
#     4  12  26  47  74 104 140 194 247 301 368 424
#
# _framework density 21.099506999999999
#
# number of rings (size 3 to 8) (size 9 to 14) (size 15 to 20)
#    0.000    0.414    6.897    1.241    4.828    1.655 
#    3.724    0.000    0.000    0.000    0.000    0.000 
#    0.000    0.000    0.000    0.000    0.000    0.000 
#
# Total GULP energy -161754.055962 kJ/mol
# GULP energy per Si atom -5577.726068 kJ/mol
# Density = 2.105148 g / cm^3
# Si number density = 21.099507 Si / 1000 Ang^3
#
#
#
# Elastic Constant Matrix: (Units=GPa)
#
#
# Indices 1 2 3 4 5 6 
#
# 1 125.8465 10.1725 32.2606 0.0000 0.0000 0.0000
# 2 10.1725 49.5106 1.3339 0.0000 0.0000 0.0000
# 3 32.2606 1.3339 64.1744 0.0000 0.0000 0.0000
# 4 0.0000 0.0000 0.0000 -0.2502 0.0000 0.0000
# 5 0.0000 0.0000 0.0000 0.0000 11.5049 0.0000
# 6 0.0000 0.0000 0.0000 0.0000 0.0000 18.9522
#
#
#
# Elastic Compliance Matrix: (Units=1/GPa)
#
#
# Indices 1 2 3 4 5 6 
#
# 1 0.009276 -0.001781 -0.004626 0.000000 0.000000 0.000000
# 2 -0.001781 0.020551 0.000468 0.000000 0.000000 0.000000
# 3 -0.004626 0.000468 0.017898 0.000000 0.000000 0.000000
# 4 0.000000 0.000000 0.000000 -3.996693 0.000000 0.000000
# 5 0.000000 0.000000 0.000000 0.000000 0.086919 0.000000
# 6 0.000000 0.000000 0.000000 0.000000 0.000000 0.052764
#
#
# Mechanical properties :
#
#
# Convention : Reuss Voigt Hill
#
# Bulk Modulus (GPa) = 27.89603 36.34059 32.11831
# Shear Modulus (GPa) = -1.32084 19.09234 8.88575
#
# Velocity S-wave (km/s) = -0.79206 3.01137 2.05438
# Velocity P-wave (km/s) = 3.52326 5.41775 4.56976
#
# Compressibility (1/GPa) = 0.03584739
#
# Stress axis : x y z
#
# Youngs Moduli (GPa) = 107.80443 48.65929 55.87108
#
# Poissons Ratio (x) = 0.08667 0.25846
# Poissons Ratio (y) = 0.19202 -0.02616
# Poissons Ratio (z) = 0.49871 -0.02279
#
# Static dielectric constant tensor:
#      x y z
#    x 1.810050 0.000000 0.000000 
#    y 0.000000 1.742930 0.000000 
#    z 0.000000 0.000000 1.769000 
# 
# From -- ./inp_files/10724.got.cif
#   From: 2010.05.17/outbox.cif.g08.bks.cpg/sg42_6_cif.got.tgz:10724.got - 2010.06.03 19:03:34.
