data_PCOD9369499
_publ_section_title
;
Structure prediction by ZEFSAII (Michael W. Deem and Ramdas Pophale) SiO2 
 PCOD9369499
Probable space group: F M M 2
;
_chemical_formula_sum "Si O2"
_cell_formula_units_Z 80
_cell_length_a 11.583728
_cell_length_b 19.275648
_cell_length_c 14.646266
_cell_angle_alpha 90.000000
_cell_angle_beta 90.000000
_cell_angle_gamma 90.000000
_cell_volume 3270.274858
_symmetry_space_group_name_H-M "F M M 2"
_symmetry_group_IT_number 42
_symmetry_cell_setting 'orthorhombic'
loop_
_space_group_symop_operation_xyz
x,y,z
-x,-y,z
-x,y,z
x,-y,z
x,1/2+y,1/2+z
-x,1/2-y,1/2+z
-x,1/2+y,1/2+z
x,1/2-y,1/2+z
1/2+x,y,1/2+z
1/2-x,-y,1/2+z
1/2-x,y,1/2+z
1/2+x,-y,1/2+z
1/2+x,1/2+y,z
1/2-x,1/2-y,z
1/2-x,1/2+y,z
1/2+x,1/2-y,z
loop_
_atom_site_type_symbol
_atom_site_label
_atom_site_fract_x
_atom_site_fract_y
_atom_site_fract_z
Si Si1 0.376063 0.278205 0.313670
Si Si2 0.624465 0.278431 0.093795
Si Si3 0.720360 0.419666 0.083926
Si Si4 0.185801 0.578056 0.890000
Si Si5 0.125546 0.581809 0.252366
O O1 0.500000 0.247938 0.346119
O O2 0.250000 0.250000 0.344874
O O3 0.375641 0.271613 0.203957
O O4 0.377822 0.358399 0.344253
O O5 0.500000 0.248163 0.062353
O O6 0.750000 0.250000 0.061140
O O7 0.627586 0.360072 0.069351
O O8 0.681047 0.500000 0.094071
O O9 0.787920 0.394548 0.174216
O O10 0.807838 0.418573 0.998596
O O11 0.148164 0.500000 0.862816
O O12 0.315845 0.587112 0.850529
O O13 0.115632 0.500000 0.234110
O O14 0.000000 0.613536 0.245468
#
# Coordination Sequence:
#
# PCOD9369499 Si02
#       5
#    16  16  16  16  16
#     4  10  22  41  64  92 126 168 216 266 324 386
#     4  10  22  41  64  92 126 168 216 266 324 386
#     4  10  21  38  62  95 130 164 211 269 326 387
#     4  10  21  38  62  95 130 164 211 269 326 387
#     4   9  18  34  56  85 124 167 205 249 314 385
#
# _framework density 24.462776999999999
#
# number of rings (size 3 to 8) (size 9 to 14) (size 15 to 20)
#    0.000    2.200    2.000    0.000    0.000    4.800 
#    0.000    8.000    0.000    0.000    0.000    0.000 
#    0.000    0.000    0.000    0.000    0.000    0.000 
#
# Total GULP energy -111591.191168 kJ/mol
# GULP energy per Si atom -5579.559558 kJ/mol
# Density = 2.440710 g / cm^3
# Si number density = 24.462777 Si / 1000 Ang^3
#
#
#
# Elastic Constant Matrix: (Units=GPa)
#
#
# Indices 1 2 3 4 5 6 
#
# 1 194.4047 59.0277 -4.3699 0.0000 0.0000 0.0000
# 2 59.0277 127.1703 8.7514 0.0000 0.0000 0.0000
# 3 -4.3699 8.7514 74.8468 0.0000 0.0000 0.0000
# 4 0.0000 0.0000 0.0000 23.0243 0.0000 0.0000
# 5 0.0000 0.0000 0.0000 0.0000 -8.4635 0.0000
# 6 0.0000 0.0000 0.0000 0.0000 0.0000 15.3141
#
#
#
# Elastic Compliance Matrix: (Units=1/GPa)
#
#
# Indices 1 2 3 4 5 6 
#
# 1 0.006022 -0.002842 0.000684 0.000000 0.000000 0.000000
# 2 -0.002842 0.009269 -0.001250 0.000000 0.000000 0.000000
# 3 0.000684 -0.001250 0.013547 0.000000 0.000000 0.000000
# 4 0.000000 0.000000 0.000000 0.043432 0.000000 0.000000
# 5 0.000000 0.000000 0.000000 0.000000 -0.118154 0.000000
# 6 0.000000 0.000000 0.000000 0.000000 0.000000 0.065299
#
#
# Mechanical properties :
#
#
# Convention : Reuss Voigt Hill
#
# Bulk Modulus (GPa) = 45.41015 58.13781 51.77398
# Shear Modulus (GPa) = 148.93223 28.17580 88.55402
#
# Velocity S-wave (km/s) = 7.81110 3.39747 6.02313
# Velocity P-wave (km/s) = 9.99772 6.26162 8.34153
#
# Compressibility (1/GPa) = 0.02202151
#
# Stress axis : x y z
#
# Youngs Moduli (GPa) = 166.04859 107.88867 73.81886
#
# Poissons Ratio (x) = 0.30666 -0.05049
# Poissons Ratio (y) = 0.47198 0.09225
# Poissons Ratio (z) = -0.11357 0.13483
#
# Static dielectric constant tensor:
#      x y z
#    x 2.053280 0.000000 0.000000 
#    y 0.000000 1.987050 0.000000 
#    z 0.000000 0.000000 1.870450 
# 
# From -- ./inp_files/12817.got.cif
#   From: 2010.05.17/outbox.cif.g08.bks.cpg/sg42_7_cif.got.tgz:12817.got - 2010.06.03 19:03:34.
