data_PCOD9369799
_publ_section_title
;
Structure prediction by ZEFSAII (Michael W. Deem and Ramdas Pophale) SiO2 
 PCOD9369799
Probable space group: F M M 2
;
_chemical_formula_sum "Si O2"
_cell_formula_units_Z 56
_cell_length_a 17.439503
_cell_length_b 16.753490
_cell_length_c 8.063203
_cell_angle_alpha 90.000000
_cell_angle_beta 90.000000
_cell_angle_gamma 90.000000
_cell_volume 2355.846494
_symmetry_space_group_name_H-M "F M M 2"
_symmetry_group_IT_number 42
_symmetry_cell_setting 'orthorhombic'
loop_
_space_group_symop_operation_xyz
x,y,z
-x,-y,z
-x,y,z
x,-y,z
x,1/2+y,1/2+z
-x,1/2-y,1/2+z
-x,1/2+y,1/2+z
x,1/2-y,1/2+z
1/2+x,y,1/2+z
1/2-x,-y,1/2+z
1/2-x,y,1/2+z
1/2+x,-y,1/2+z
1/2+x,1/2+y,z
1/2-x,1/2-y,z
1/2-x,1/2+y,z
1/2+x,1/2-y,z
loop_
_atom_site_type_symbol
_atom_site_label
_atom_site_fract_x
_atom_site_fract_y
_atom_site_fract_z
Si Si1 0.126013 0.000000 0.484581
Si Si2 0.727516 0.000000 0.311730
Si Si3 0.500000 0.315939 0.944057
Si Si4 0.000000 0.365762 0.052544
Si Si5 0.750000 0.250000 0.761754
Si Si6 0.664942 0.151698 0.503985
O O1 0.179753 0.000000 0.321408
O O2 0.072912 0.921641 0.506383
O O3 0.187401 0.000000 0.633934
O O4 0.695536 0.075296 0.411572
O O5 0.500000 0.345772 0.751490
O O6 0.500000 0.219774 0.961891
O O7 0.424650 0.349602 0.034530
O O8 0.719560 0.176943 0.653460
O O9 0.679277 0.276264 0.873871
#
# Coordination Sequence:
#
# PCOD9369799 Si02
#       6
#     8   8   8   8   8  16
#     4  11  26  50  72 101 142 186 230 287 350 412
#     4  12  24  44  72 104 136 188 226 288 342 418
#     4  12  24  44  72 104 136 188 226 288 342 418
#     4  11  26  50  72 101 142 186 230 287 350 412
#     4  10  24  42  64 100 134 176 234 286 332 400
#     4  11  24  41  68  99 137 178 230 280 342 409
#
# _framework density 23.77065
#
# number of rings (size 3 to 8) (size 9 to 14) (size 15 to 20)
#    0.000    0.857    2.857    3.429    8.000    0.571 
#    5.143    0.000    0.000    3.429    0.000    0.000 
#    0.000    0.000    0.000    0.000    0.000    0.000 
#
# Total GULP energy -78411.773765 kJ/mol
# GULP energy per Si atom -5600.840983 kJ/mol
# Density = 2.371655 g / cm^3
# Si number density = 23.770650 Si / 1000 Ang^3
#
#
#
# Elastic Constant Matrix: (Units=GPa)
#
#
# Indices 1 2 3 4 5 6 
#
# 1 177.9767 21.5080 28.2402 0.0000 0.0000 0.0000
# 2 21.5080 90.4179 1.9136 0.0000 0.0000 0.0000
# 3 28.2402 1.9136 44.9162 0.0001 0.0000 0.0000
# 4 0.0000 0.0000 0.0001 27.9852 0.0000 0.0000
# 5 0.0000 0.0000 0.0000 0.0000 22.3189 0.0000
# 6 0.0000 0.0000 0.0000 0.0000 0.0000 29.1091
#
#
#
# Elastic Compliance Matrix: (Units=1/GPa)
#
#
# Indices 1 2 3 4 5 6 
#
# 1 0.006424 -0.001444 -0.003978 0.000000 0.000000 0.000000
# 2 -0.001444 0.011394 0.000422 0.000000 0.000000 0.000000
# 3 -0.003978 0.000422 0.024747 0.000000 0.000000 0.000000
# 4 0.000000 0.000000 0.000000 0.035733 0.000000 0.000000
# 5 0.000000 0.000000 0.000000 0.000000 0.044805 0.000000
# 6 0.000000 0.000000 0.000000 0.000000 0.000000 0.034354
#
#
# Mechanical properties :
#
#
# Convention : Reuss Voigt Hill
#
# Bulk Modulus (GPa) = 30.70614 46.29273 38.49943
# Shear Modulus (GPa) = 28.04088 33.32591 30.68339
#
# Velocity S-wave (km/s) = 3.43832 3.74836 3.59668
# Velocity P-wave (km/s) = 5.35802 6.18471 5.78615
#
# Compressibility (1/GPa) = 0.03256678
#
# Stress axis : x y z
#
# Youngs Moduli (GPa) = 155.65725 87.76317 40.40963
#
# Poissons Ratio (x) = 0.12673 0.16074
# Poissons Ratio (y) = 0.22477 -0.01707
# Poissons Ratio (z) = 0.61916 -0.03708
#
# Static dielectric constant tensor:
#      x y z
#    x 1.889340 0.000000 0.000000 
#    y 0.000000 1.914740 0.000000 
#    z 0.000000 0.000000 1.915120 
# 
# From -- ./inp_files/2609.got.cif
#   From: 2010.05.17/outbox.cif.g08.bks.cpg/sg42_2_cif.got.tgz:2609.got - 2010.06.03 19:03:34.
