data_PCOD9369039
_publ_section_title
;
Structure prediction by ZEFSAII (Michael W. Deem and Ramdas Pophale) SiO2 
 PCOD9369039
Probable space group: F M M 2
;
_chemical_formula_sum "Si O2"
_cell_formula_units_Z 80
_cell_length_a 29.272370
_cell_length_b 8.632196
_cell_length_c 15.748839
_cell_angle_alpha 90.000000
_cell_angle_beta 90.000000
_cell_angle_gamma 90.000000
_cell_volume 3979.492788
_symmetry_space_group_name_H-M "F M M 2"
_symmetry_group_IT_number 42
_symmetry_cell_setting 'orthorhombic'
loop_
_space_group_symop_operation_xyz
x,y,z
-x,-y,z
-x,y,z
x,-y,z
x,1/2+y,1/2+z
-x,1/2-y,1/2+z
-x,1/2+y,1/2+z
x,1/2-y,1/2+z
1/2+x,y,1/2+z
1/2-x,-y,1/2+z
1/2-x,y,1/2+z
1/2+x,-y,1/2+z
1/2+x,1/2+y,z
1/2-x,1/2-y,z
1/2-x,1/2+y,z
1/2+x,1/2-y,z
loop_
_atom_site_type_symbol
_atom_site_label
_atom_site_fract_x
_atom_site_fract_y
_atom_site_fract_z
Si Si1 0.550937 0.314994 0.596340
Si Si2 0.199158 0.815904 0.013418
Si Si3 0.145260 0.681606 0.854632
Si Si4 0.353606 0.815130 0.175894
Si Si5 0.051751 0.183814 0.907437
O O1 0.500000 0.285439 0.631312
O O2 0.554025 0.500000 0.578069
O O3 0.593309 0.276109 0.656033
O O4 0.555290 0.225187 0.507426
O O5 0.250000 0.750000 0.005233
O O6 0.174876 0.739382 0.094680
O O7 0.200065 0.000000 0.024018
O O8 0.170752 0.772102 0.929546
O O9 0.151858 0.500000 0.867978
O O10 0.161743 0.733348 0.762051
O O11 0.091823 0.725025 0.861481
O O12 0.350107 0.000000 0.185788
O O13 0.000000 0.224018 0.880880
O O14 0.058205 0.000000 0.895084
#
# Coordination Sequence:
#
# PCOD9369039 Si02
#       5
#    16  16  16  16  16
#     4   9  18  34  59  90 127 170 213 258 311 373
#     4  12  26  47  72  97 127 164 209 265 326 388
#     4  12  25  42  65  96 132 173 217 264 318 380
#     4  11  23  41  66  98 133 171 214 262 317 380
#     4  10  20  35  59  91 128 171 218 265 315 374
#
# _framework density 20.103065000000001
#
# number of rings (size 3 to 8) (size 9 to 14) (size 15 to 20)
#    0.000    1.200    2.000    4.800    0.000    3.600 
#    0.000    6.000    0.000    0.000    0.000    0.000 
#    0.000    0.000    0.000    0.000    0.000    0.000 
#
# Total GULP energy -111869.191235 kJ/mol
# GULP energy per Si atom -5593.459562 kJ/mol
# Density = 2.005731 g / cm^3
# Si number density = 20.103065 Si / 1000 Ang^3
#
#
#
# Elastic Constant Matrix: (Units=GPa)
#
#
# Indices 1 2 3 4 5 6 
#
# 1 81.3218 10.9633 19.0018 0.0000 0.0000 0.0000
# 2 10.9633 40.9904 -11.1026 0.0000 0.0000 0.0000
# 3 19.0018 -11.1026 75.7520 0.0000 0.0000 0.0000
# 4 0.0000 0.0000 0.0000 32.1698 0.0000 0.0000
# 5 0.0000 0.0000 0.0000 0.0000 -6.9527 0.0000
# 6 0.0000 0.0000 0.0000 0.0000 0.0000 31.1731
#
#
#
# Elastic Compliance Matrix: (Units=1/GPa)
#
#
# Indices 1 2 3 4 5 6 
#
# 1 0.013937 -0.004868 -0.004209 0.000000 0.000000 0.000000
# 2 -0.004868 0.027105 0.005194 0.000000 0.000000 0.000000
# 3 -0.004209 0.005194 0.015018 0.000000 0.000000 0.000000
# 4 0.000000 0.000000 0.000000 0.031085 0.000000 0.000000
# 5 0.000000 0.000000 0.000000 0.000000 -0.143829 0.000000
# 6 0.000000 0.000000 0.000000 0.000000 0.000000 0.032079
#
#
# Mechanical properties :
#
#
# Convention : Reuss Voigt Hill
#
# Bulk Modulus (GPa) = 20.70713 26.19880 23.45297
# Shear Modulus (GPa) = -6738.87931 23.22483 -3357.82724
#
# Velocity S-wave (km/s) = -57.96070 3.40264 -40.91372
# Velocity P-wave (km/s) = 66.85008 5.33833 47.11919
#
# Compressibility (1/GPa) = 0.04829254
#
# Stress axis : x y z
#
# Youngs Moduli (GPa) = 71.75344 36.89417 66.58653
#
# Poissons Ratio (x) = 0.17959 0.28028
# Poissons Ratio (y) = 0.34927 -0.34582
# Poissons Ratio (z) = 0.30203 -0.19161
#
# Static dielectric constant tensor:
#      x y z
#    x 1.717520 0.000000 0.000000 
#    y 0.000000 1.668690 0.000000 
#    z 0.000000 0.000000 1.694740 
# 
# From -- ./inp_files/22429.got.cif
#   From: 2010.05.17/outbox.cif.g08.bks.cpg/sg42_12_cif.got.tgz:22429.got - 2010.06.03 19:03:34.
