data_PCOD9369034
_publ_section_title
;
Structure prediction by ZEFSAII (Michael W. Deem and Ramdas Pophale) SiO2 
 PCOD9369034
Probable space group: F M M 2
;
_chemical_formula_sum "Si O2"
_cell_formula_units_Z 96
_cell_length_a 28.501032
_cell_length_b 8.897992
_cell_length_c 20.894749
_cell_angle_alpha 90.000000
_cell_angle_beta 90.000000
_cell_angle_gamma 90.000000
_cell_volume 5298.949190
_symmetry_space_group_name_H-M "F M M 2"
_symmetry_group_IT_number 42
_symmetry_cell_setting 'orthorhombic'
loop_
_space_group_symop_operation_xyz
x,y,z
-x,-y,z
-x,y,z
x,-y,z
x,1/2+y,1/2+z
-x,1/2-y,1/2+z
-x,1/2+y,1/2+z
x,1/2-y,1/2+z
1/2+x,y,1/2+z
1/2-x,-y,1/2+z
1/2-x,y,1/2+z
1/2+x,-y,1/2+z
1/2+x,1/2+y,z
1/2-x,1/2-y,z
1/2-x,1/2+y,z
1/2+x,1/2-y,z
loop_
_atom_site_type_symbol
_atom_site_label
_atom_site_fract_x
_atom_site_fract_y
_atom_site_fract_z
Si Si1 0.800456 0.179092 0.915270
Si Si2 0.555107 0.680345 0.085276
Si Si3 0.556192 0.324692 0.841890
Si Si4 0.300480 0.679128 0.763560
Si Si5 0.106010 0.179124 0.463698
Si Si6 0.894676 0.820109 0.219412
O O1 0.750000 0.250000 0.930519
O O2 0.809473 0.208585 0.839426
O O3 0.842084 0.252687 0.955371
O O4 0.799494 0.000000 0.924179
O O5 0.500000 0.719690 0.087297
O O6 0.558309 0.500000 0.075130
O O7 0.579877 0.715084 0.152656
O O8 0.581101 0.762913 0.027676
O O9 0.500000 0.316984 0.842076
O O10 0.570593 0.500000 0.844778
O O11 0.576685 0.240344 0.903248
O O12 0.576440 0.251273 0.777824
O O13 0.299504 0.500000 0.754613
O O14 0.250000 0.750000 0.748167
O O15 0.342482 0.753333 0.724199
O O16 0.107973 0.000000 0.462284
O O17 0.893068 0.000000 0.226811
#
# Coordination Sequence:
#
# PCOD9369034 Si02
#       6
#    16  16  16  16  16  16
#     4  10  20  36  60  89 123 158 195 242 299 355
#     4  10  23  43  63  84 118 163 204 247 303 359
#     4  11  23  38  58  85 118 155 197 248 301 353
#     4  10  20  35  59  89 123 159 196 242 298 354
#     4  12  24  38  60  89 120 156 201 249 298 355
#     4  11  22  38  62  90 120 155 199 248 299 356
#
# _framework density 18.116797999999999
#
# number of rings (size 3 to 8) (size 9 to 14) (size 15 to 20)
#    0.000    1.333    1.667    4.500    0.000    7.000 
#    0.000    0.833    0.000    4.000    0.000    0.000 
#    0.000    0.000    0.000    0.000    0.000    0.000 
#
# Total GULP energy -134207.094631 kJ/mol
# GULP energy per Si atom -5591.962276 kJ/mol
# Density = 1.807556 g / cm^3
# Si number density = 18.116798 Si / 1000 Ang^3
#
#
#
# Elastic Constant Matrix: (Units=GPa)
#
#
# Indices 1 2 3 4 5 6 
#
# 1 169.4408 91.1482 89.6386 0.0000 0.0000 0.0000
# 2 91.1482 114.4116 87.4777 0.0000 0.0000 0.0000
# 3 89.6386 87.4777 131.8555 0.0000 0.0000 0.0000
# 4 0.0000 0.0000 0.0000 29.2276 0.0000 0.0000
# 5 0.0000 0.0000 0.0000 0.0000 29.7450 0.0000
# 6 0.0000 0.0000 0.0000 0.0000 0.0000 34.7306
#
#
#
# Elastic Compliance Matrix: (Units=1/GPa)
#
#
# Indices 1 2 3 4 5 6 
#
# 1 0.011025 -0.006195 -0.003385 0.000000 0.000000 0.000000
# 2 -0.006195 0.021219 -0.009866 0.000000 0.000000 0.000000
# 3 -0.003385 -0.009866 0.016431 0.000000 0.000000 0.000000
# 4 0.000000 0.000000 0.000000 0.034214 0.000000 0.000000
# 5 0.000000 0.000000 0.000000 0.000000 0.033619 0.000000
# 6 0.000000 0.000000 0.000000 0.000000 0.000000 0.028793
#
#
# Mechanical properties :
#
#
# Convention : Reuss Voigt Hill
#
# Bulk Modulus (GPa) = 102.22119 105.80411 104.01265
# Shear Modulus (GPa) = 26.67303 28.57020 27.62161
#
# Velocity S-wave (km/s) = 3.84119 3.97545 3.90890
# Velocity P-wave (km/s) = 8.73035 8.92190 8.82664
#
# Compressibility (1/GPa) = 0.00978271
#
# Stress axis : x y z
#
# Youngs Moduli (GPa) = 90.70133 47.12662 60.86147
#
# Poissons Ratio (x) = 0.29196 0.20602
# Poissons Ratio (y) = 0.56192 0.60046
# Poissons Ratio (z) = 0.30703 0.46495
#
# Static dielectric constant tensor:
#      x y z
#    x 1.610660 0.000000 0.000000 
#    y 0.000000 1.601600 0.000000 
#    z 0.000000 0.000000 1.586990 
# 
# From -- ./inp_files/23733.got.cif
#   From: 2010.05.17/outbox.cif.g08.bks.cpg/sg42_12_cif.got.tgz:23733.got - 2010.06.03 19:03:34.
