data_PCOD9369442
_publ_section_title
;
Structure prediction by ZEFSAII (Michael W. Deem and Ramdas Pophale) SiO2 
 PCOD9369442
Probable space group: F M M 2
;
_chemical_formula_sum "Si O2"
_cell_formula_units_Z 80
_cell_length_a 21.649779
_cell_length_b 15.168396
_cell_length_c 10.868395
_cell_angle_alpha 90.000000
_cell_angle_beta 90.000000
_cell_angle_gamma 90.000000
_cell_volume 3569.098548
_symmetry_space_group_name_H-M "F M M 2"
_symmetry_group_IT_number 42
_symmetry_cell_setting 'orthorhombic'
loop_
_space_group_symop_operation_xyz
x,y,z
-x,-y,z
-x,y,z
x,-y,z
x,1/2+y,1/2+z
-x,1/2-y,1/2+z
-x,1/2+y,1/2+z
x,1/2-y,1/2+z
1/2+x,y,1/2+z
1/2-x,-y,1/2+z
1/2-x,y,1/2+z
1/2+x,-y,1/2+z
1/2+x,1/2+y,z
1/2-x,1/2-y,z
1/2-x,1/2+y,z
1/2+x,1/2-y,z
loop_
_atom_site_type_symbol
_atom_site_label
_atom_site_fract_x
_atom_site_fract_y
_atom_site_fract_z
Si Si1 0.408096 0.500000 0.726970
Si Si2 0.307585 0.357297 0.725984
Si Si3 0.226354 0.649262 0.955332
Si Si4 0.500000 0.344718 0.142862
Si Si5 0.500000 0.205198 0.956678
Si Si6 0.500000 0.500000 0.948697
Si Si7 0.886205 0.805372 0.305697
Si Si8 0.500000 0.500000 0.506027
O O1 0.368254 0.413514 0.724307
O O2 0.444146 0.500000 0.853846
O O3 0.444044 0.500000 0.600050
O O4 0.269544 0.386327 0.846444
O O5 0.272739 0.377549 0.597972
O O6 0.335168 0.257328 0.739003
O O7 0.250000 0.750000 0.961267
O O8 0.156944 0.641352 0.901140
O O9 0.434148 0.354036 0.214228
O O10 0.500000 0.243803 0.093213
O O11 0.500000 0.414579 0.034418
O O12 0.561999 0.241439 0.891465
O O13 0.500000 0.097888 0.944676
#
# Coordination Sequence:
#
# PCOD9369442 Si02
#       8
#     8  16  16   8   8   4  16   4
#     4  11  24  40  60  86 125 167 209 264 323 383
#     4  11  23  40  62  92 126 170 216 263 320 382
#     4  10  21  39  63  91 124 163 213 268 318 378
#     4  11  22  39  62  92 126 169 214 264 321 384
#     4  11  22  37  64  92 124 165 213 263 320 389
#     4  11  26  43  62  92 132 171 214 269 322 375
#     4  10  21  37  62  90 121 164 212 262 319 381
#     4  11  22  39  62  92 126 159 206 265 326 379
#
# _framework density 22.414624
#
# number of rings (size 3 to 8) (size 9 to 14) (size 15 to 20)
#    0.000    1.400    0.000    6.600    0.000   10.400 
#    0.000    3.000    0.000    0.000    0.000    0.000 
#    0.000    0.000    0.000    0.000    0.000    0.000 
#
# Total GULP energy -111433.490760 kJ/mol
# GULP energy per Si atom -5571.674538 kJ/mol
# Density = 2.236361 g / cm^3
# Si number density = 22.414624 Si / 1000 Ang^3
#
#
#
# Elastic Constant Matrix: (Units=GPa)
#
#
# Indices 1 2 3 4 5 6 
#
# 1 94.2823 -6.0339 45.4501 0.0000 0.0000 0.0000
# 2 -6.0339 50.8062 28.8434 0.0000 0.0000 0.0000
# 3 45.4501 28.8434 160.7610 0.0000 0.0000 0.0000
# 4 0.0000 0.0000 0.0000 -0.3531 0.0000 0.0000
# 5 0.0000 0.0000 0.0000 0.0000 57.2933 0.0000
# 6 0.0000 0.0000 0.0000 0.0000 0.0000 26.7494
#
#
#
# Elastic Compliance Matrix: (Units=1/GPa)
#
#
# Indices 1 2 3 4 5 6 
#
# 1 0.012983 0.004037 -0.004395 0.000000 0.000000 0.000000
# 2 0.004037 0.023170 -0.005298 0.000000 0.000000 0.000000
# 3 -0.004395 -0.005298 0.008414 0.000000 0.000000 0.000000
# 4 0.000000 0.000000 0.000000 -2.832250 0.000000 0.000000
# 5 0.000000 0.000000 0.000000 0.000000 0.017454 0.000000
# 6 0.000000 0.000000 0.000000 0.000000 0.000000 0.037384
#
#
# Mechanical properties :
#
#
# Convention : Reuss Voigt Hill
#
# Bulk Modulus (GPa) = 30.07120 49.15207 39.61164
# Shear Modulus (GPa) = -1.84471 32.57725 15.36627
#
# Velocity S-wave (km/s) = -0.90818 3.81647 2.62113
# Velocity P-wave (km/s) = 3.51359 6.43404 5.18373
#
# Compressibility (1/GPa) = 0.03325440
#
# Stress axis : x y z
#
# Youngs Moduli (GPa) = 77.02094 43.15898 118.85514
#
# Poissons Ratio (x) = -0.17424 0.52237
# Poissons Ratio (y) = -0.31094 0.62975
# Poissons Ratio (z) = 0.33851 0.22868
#
# Static dielectric constant tensor:
#      x y z
#    x 1.818730 0.000000 0.000000 
#    y 0.000000 3.749870 0.000000 
#    z 0.000000 0.000000 1.901280 
# 
# From -- ./inp_files/9399.got.cif
#   From: 2010.05.17/outbox.cif.g08.bks.cpg/sg42_5_cif.got.tgz:9399.got - 2010.06.03 19:03:34.
