data_PCOD9369052
_publ_section_title
;
Structure prediction by ZEFSAII (Michael W. Deem and Ramdas Pophale) SiO2 
 PCOD9369052
Probable space group: F M M 2
;
_chemical_formula_sum "Si O2"
_cell_formula_units_Z 96
_cell_length_a 24.166794
_cell_length_b 23.381587
_cell_length_c 8.760549
_cell_angle_alpha 90.000000
_cell_angle_beta 90.000000
_cell_angle_gamma 90.000000
_cell_volume 4950.218265
_symmetry_space_group_name_H-M "F M M 2"
_symmetry_group_IT_number 42
_symmetry_cell_setting 'orthorhombic'
loop_
_space_group_symop_operation_xyz
x,y,z
-x,-y,z
-x,y,z
x,-y,z
x,1/2+y,1/2+z
-x,1/2-y,1/2+z
-x,1/2+y,1/2+z
x,1/2-y,1/2+z
1/2+x,y,1/2+z
1/2-x,-y,1/2+z
1/2-x,y,1/2+z
1/2+x,-y,1/2+z
1/2+x,1/2+y,z
1/2-x,1/2-y,z
1/2-x,1/2+y,z
1/2+x,1/2-y,z
loop_
_atom_site_type_symbol
_atom_site_label
_atom_site_fract_x
_atom_site_fract_y
_atom_site_fract_z
Si Si1 0.500000 0.217658 0.226660
Si Si2 0.199512 0.370917 0.514834
Si Si3 0.307385 0.277352 0.271149
Si Si4 0.880051 0.127225 0.445888
Si Si5 0.500000 0.166759 0.884727
Si Si6 0.116024 0.831962 0.779827
Si Si7 0.714610 0.563975 0.315076
O O1 0.500000 0.285208 0.254441
O O2 0.445549 0.190848 0.301510
O O3 0.500000 0.200589 0.047973
O O4 0.206256 0.313994 0.618618
O O5 0.142399 0.362731 0.425251
O O6 0.244337 0.388597 0.387667
O O7 0.204813 0.420816 0.639032
O O8 0.250000 0.250000 0.330044
O O9 0.344016 0.319101 0.379002
O O10 0.346308 0.223142 0.242309
O O11 0.882214 0.130170 0.628033
O O12 0.844498 0.073152 0.394635
O O13 0.942403 0.132364 0.383251
O O14 0.735986 0.500000 0.334730
#
# Coordination Sequence:
#
# PCOD9369052 Si02
#       7
#     8  16  16  16   8  16  16
#     4  10  22  34  58  83 122 166 196 221 290 341
#     4  11  24  37  58  87 118 154 194 243 302 352
#     4  11  21  33  53  84 121 157 188 228 280 359
#     4  10  21  36  57  83 114 152 195 237 291 345
#     4  10  20  36  55  85 118 158 195 237 278 353
#     4  11  21  36  55  87 122 157 193 231 284 361
#     4  11  23  42  62  85 112 151 203 259 307 350
#
# _framework density 19.393084000000002
#
# number of rings (size 3 to 8) (size 9 to 14) (size 15 to 20)
#    0.000    1.333    1.667    5.500    2.333    2.667 
#    0.000    1.250    0.000    0.000    0.000    4.083 
#    0.000    0.000    0.000    0.000    0.000    0.000 
#
# Total GULP energy -133987.995527 kJ/mol
# GULP energy per Si atom -5582.833147 kJ/mol
# Density = 1.934894 g / cm^3
# Si number density = 19.393084 Si / 1000 Ang^3
#
#
#
# Elastic Constant Matrix: (Units=GPa)
#
#
# Indices 1 2 3 4 5 6 
#
# 1 125.9607 17.6720 18.0039 0.0000 0.0001 0.0000
# 2 17.6720 34.0895 11.2638 0.0004 -0.0003 -0.0003
# 3 18.0039 11.2638 63.7607 0.0007 0.0000 -0.0003
# 4 0.0000 0.0004 0.0007 18.2643 -0.0003 -0.0004
# 5 0.0001 -0.0003 0.0000 -0.0003 21.5841 0.0002
# 6 0.0000 -0.0003 -0.0003 -0.0004 0.0002 14.4728
#
#
#
# Elastic Compliance Matrix: (Units=1/GPa)
#
#
# Indices 1 2 3 4 5 6 
#
# 1 0.008746 -0.003949 -0.001772 0.000000 0.000000 0.000000
# 2 -0.003949 0.032936 -0.004703 -0.000001 0.000001 0.000001
# 3 -0.001772 -0.004703 0.017015 -0.000001 0.000000 0.000000
# 4 0.000000 -0.000001 -0.000001 0.054752 0.000001 0.000001
# 5 0.000000 0.000001 0.000000 0.000001 0.046330 -0.000001
# 6 0.000000 0.000001 0.000000 0.000001 -0.000001 0.069095
#
#
# Mechanical properties :
#
#
# Convention : Reuss Voigt Hill
#
# Bulk Modulus (GPa) = 26.42098 35.29891 30.85995
# Shear Modulus (GPa) = 19.05936 22.65565 20.85751
#
# Velocity S-wave (km/s) = 3.13835 3.42165 3.28306
# Velocity P-wave (km/s) = 5.17550 5.81821 5.50624
#
# Compressibility (1/GPa) = 0.03784870
#
# Stress axis : x y z
#
# Youngs Moduli (GPa) = 114.33483 30.36233 58.77199
#
# Poissons Ratio (x) = 0.11989 0.10415
# Poissons Ratio (y) = 0.45145 0.27643
# Poissons Ratio (z) = 0.20261 0.14281
#
# Static dielectric constant tensor:
#      x y z
#    x 1.689860 0.000000 0.000000 
#    y 0.000000 1.661400 0.000000 
#    z 0.000000 0.000000 1.711960 
# 
# From -- ./inp_files/4743.got.cif
#   From: 2010.05.17/outbox.cif.g08.bks.cpg/sg42_3_cif.got.tgz:4743.got - 2010.06.03 19:03:34.
