data_PCOD9369771
_publ_section_title
;
Structure prediction by ZEFSAII (Michael W. Deem and Ramdas Pophale) SiO2 
 PCOD9369771
Probable space group: F M M 2
;
_chemical_formula_sum "Si O2"
_cell_formula_units_Z 96
_cell_length_a 14.858856
_cell_length_b 25.652011
_cell_length_c 11.575657
_cell_angle_alpha 90.000000
_cell_angle_beta 90.000000
_cell_angle_gamma 90.000000
_cell_volume 4412.172069
_symmetry_space_group_name_H-M "F M M 2"
_symmetry_group_IT_number 42
_symmetry_cell_setting 'orthorhombic'
loop_
_space_group_symop_operation_xyz
x,y,z
-x,-y,z
-x,y,z
x,-y,z
x,1/2+y,1/2+z
-x,1/2-y,1/2+z
-x,1/2+y,1/2+z
x,1/2-y,1/2+z
1/2+x,y,1/2+z
1/2-x,-y,1/2+z
1/2-x,y,1/2+z
1/2+x,-y,1/2+z
1/2+x,1/2+y,z
1/2-x,1/2-y,z
1/2-x,1/2+y,z
1/2+x,1/2-y,z
loop_
_atom_site_type_symbol
_atom_site_label
_atom_site_fract_x
_atom_site_fract_y
_atom_site_fract_z
Si Si1 0.500000 0.562506 0.730401
Si Si2 0.500000 0.062845 0.968834
Si Si3 0.869732 0.941194 0.932243
Si Si4 0.000000 0.204777 0.211079
Si Si5 0.312099 0.592430 0.354893
Si Si6 0.157564 0.132552 0.132315
Si Si7 0.000000 0.775672 0.479936
Si Si8 0.705129 0.693863 0.482130
O O1 0.500000 0.500000 0.717685
O O2 0.500000 0.583325 0.600921
O O3 0.585284 0.574990 0.810824
O O4 0.410241 0.081727 0.905108
O O5 0.500000 0.000000 0.967820
O O6 0.762595 0.941500 0.917177
O O7 0.899672 0.000000 0.961231
O O8 0.889414 0.896980 0.026002
O O9 0.087000 0.167970 0.201189
O O10 0.000000 0.233860 0.337488
O O11 0.000000 0.234987 0.087671
O O12 0.310583 0.587177 0.218066
O O13 0.281772 0.651786 0.381313
O O14 0.239599 0.167734 0.087078
O O15 0.097856 0.801792 0.498782
O O16 0.750000 0.750000 0.458985
#
# Coordination Sequence:
#
# PCOD9369771 Si02
#       8
#     8   8  16   8  16  16   8  16
#     4   9  21  42  66  93 134 176 227 287 344 422
#     4  11  24  44  71 101 140 189 237 289 357 428
#     4  10  23  42  67 101 136 178 229 290 359 415
#     4  12  24  47  71 107 143 184 244 294 356 433
#     4  11  24  42  68 104 141 179 233 293 344 428
#     4  11  24  43  71 101 139 180 233 294 347 431
#     4  12  25  47  73 103 145 193 235 292 360 431
#     4  11  24  45  70 102 139 182 231 291 357 414
#
# _framework density 21.757989999999999
#
# number of rings (size 3 to 8) (size 9 to 14) (size 15 to 20)
#    0.000    1.167    3.333    2.000    4.667    3.333 
#    0.000    0.833    0.000    0.000    0.000    0.000 
#    0.000    0.000    0.000    0.000    0.000    0.000 
#
# Total GULP energy -133849.736321 kJ/mol
# GULP energy per Si atom -5577.072347 kJ/mol
# Density = 2.170847 g / cm^3
# Si number density = 21.757990 Si / 1000 Ang^3
#
#
#
# Elastic Constant Matrix: (Units=GPa)
#
#
# Indices 1 2 3 4 5 6 
#
# 1 140.6482 23.6843 32.8721 0.0000 0.0000 0.0000
# 2 23.6843 91.7783 36.4487 0.0000 0.0000 0.0000
# 3 32.8721 36.4487 130.5936 0.0000 0.0000 0.0000
# 4 0.0000 0.0000 0.0000 21.7508 0.0000 0.0000
# 5 0.0000 0.0000 0.0000 0.0000 56.6567 0.0000
# 6 0.0000 0.0000 0.0000 0.0000 0.0000 -57.6698
#
#
#
# Elastic Compliance Matrix: (Units=1/GPa)
#
#
# Indices 1 2 3 4 5 6 
#
# 1 0.007705 -0.001370 -0.001557 0.000000 0.000000 0.000000
# 2 -0.001370 0.012498 -0.003143 0.000000 0.000000 0.000000
# 3 -0.001557 -0.003143 0.008927 0.000000 0.000000 0.000000
# 4 0.000000 0.000000 0.000000 0.045975 0.000000 0.000000
# 5 0.000000 0.000000 0.000000 0.000000 0.017650 0.000000
# 6 0.000000 0.000000 0.000000 0.000000 0.000000 -0.017340
#
#
# Mechanical properties :
#
#
# Convention : Reuss Voigt Hill
#
# Bulk Modulus (GPa) = 58.86369 61.00337 59.93353
# Shear Modulus (GPa) = 53.63813 22.14853 37.89333
#
# Velocity S-wave (km/s) = 4.97048 3.19399 4.17775
# Velocity P-wave (km/s) = 7.74942 6.45757 7.13280
#
# Compressibility (1/GPa) = 0.01698840
#
# Stress axis : x y z
#
# Youngs Moduli (GPa) = 129.79392 80.01497 112.02534
#
# Poissons Ratio (x) = 0.10961 0.17442
# Poissons Ratio (y) = 0.17780 0.35213
# Poissons Ratio (z) = 0.20209 0.25151
#
# Static dielectric constant tensor:
#      x y z
#    x 1.791400 0.000000 0.000000 
#    y 0.000000 1.817350 0.000000 
#    z 0.000000 0.000000 1.821230 
# 
# From -- ./inp_files/8084.got.cif
#   From: 2010.05.17/outbox.cif.g08.bks.cpg/sg42_5_cif.got.tgz:8084.got - 2010.06.03 19:03:34.
