data_PCOD9369125
_publ_section_title
;
Structure prediction by ZEFSAII (Michael W. Deem and Ramdas Pophale) SiO2 
 PCOD9369125
Probable space group: F M M 2
;
_chemical_formula_sum "Si O2"
_cell_formula_units_Z 112
_cell_length_a 14.292534
_cell_length_b 24.538823
_cell_length_c 13.608578
_cell_angle_alpha 90.000000
_cell_angle_beta 90.000000
_cell_angle_gamma 90.000000
_cell_volume 4772.827177
_symmetry_space_group_name_H-M "F M M 2"
_symmetry_group_IT_number 42
_symmetry_cell_setting 'orthorhombic'
loop_
_space_group_symop_operation_xyz
x,y,z
-x,-y,z
-x,y,z
x,-y,z
x,1/2+y,1/2+z
-x,1/2-y,1/2+z
-x,1/2+y,1/2+z
x,1/2-y,1/2+z
1/2+x,y,1/2+z
1/2-x,-y,1/2+z
1/2-x,y,1/2+z
1/2+x,-y,1/2+z
1/2+x,1/2+y,z
1/2-x,1/2-y,z
1/2-x,1/2+y,z
1/2+x,1/2-y,z
loop_
_atom_site_type_symbol
_atom_site_label
_atom_site_fract_x
_atom_site_fract_y
_atom_site_fract_z
Si Si1 0.888516 0.624469 0.763630
Si Si2 0.106502 0.329262 0.440357
Si Si3 0.892083 0.121965 0.490717
Si Si4 0.775064 0.435713 0.159453
Si Si5 0.858548 0.762323 0.574684
Si Si6 0.386687 0.939832 0.362377
Si Si7 0.392699 0.252821 0.286500
O O1 0.876420 0.605978 0.877248
O O2 0.823787 0.590457 0.690801
O O3 0.854264 0.687327 0.765023
O O4 0.000000 0.621816 0.740177
O O5 0.101897 0.295922 0.540430
O O6 0.143888 0.390025 0.432660
O O7 0.153971 0.286567 0.365793
O O8 0.000000 0.334789 0.404454
O O9 0.823787 0.094188 0.568414
O O10 0.880807 0.187621 0.502923
O O11 0.000000 0.108742 0.514781
O O12 0.765578 0.500000 0.140541
O O13 0.842099 0.429331 0.255553
O O14 0.750000 0.750000 0.578620
O O15 0.892823 0.777571 0.682501
O O16 0.500000 0.941564 0.355708
O O17 0.355801 0.000000 0.395951
O O18 0.500000 0.263717 0.318200
#
# Coordination Sequence:
#
# PCOD9369125 Si02
#       7
#    16  16  16  16  16  16  16
#     4  10  23  44  70  98 142 189 232 291 365 442
#     4  10  20  36  60  90 126 173 223 271 332 408
#     4  11  23  44  72 103 138 184 245 305 360 423
#     4  11  24  42  69 101 135 177 234 299 360 426
#     4  12  24  35  61  98 135 176 223 287 350 424
#     4   9  19  36  59  91 133 178 223 279 344 407
#     4  10  20  38  61  88 127 173 218 273 343 413
#
# _framework density 23.466176000000001
#
# number of rings (size 3 to 8) (size 9 to 14) (size 15 to 20)
#    0.000    1.571    1.429    3.429    2.000    3.429 
#    0.000    1.429    0.000    0.857    0.000    2.000 
#    0.000    0.000    0.000    0.000    0.000    0.000 
#
# Total GULP energy -156596.795516 kJ/mol
# GULP energy per Si atom -5592.742697 kJ/mol
# Density = 2.341277 g / cm^3
# Si number density = 23.466176 Si / 1000 Ang^3
#
#
#
# Elastic Constant Matrix: (Units=GPa)
#
#
# Indices 1 2 3 4 5 6 
#
# 1 126.3475 41.4364 38.9040 0.0000 0.0000 0.0000
# 2 41.4364 139.1018 37.6794 0.0000 0.0000 0.0000
# 3 38.9040 37.6794 94.9656 0.0000 0.0000 0.0000
# 4 0.0000 0.0000 0.0000 32.0710 0.0000 0.0000
# 5 0.0000 0.0000 0.0000 0.0000 38.7137 0.0000
# 6 0.0000 0.0000 0.0000 0.0000 0.0000 13.4242
#
#
#
# Elastic Compliance Matrix: (Units=1/GPa)
#
#
# Indices 1 2 3 4 5 6 
#
# 1 0.009527 -0.001995 -0.003111 0.000000 0.000000 0.000000
# 2 -0.001995 0.008472 -0.002544 0.000000 0.000000 0.000000
# 3 -0.003111 -0.002544 0.012814 0.000000 0.000000 0.000000
# 4 0.000000 0.000000 0.000000 0.031181 0.000000 0.000000
# 5 0.000000 0.000000 0.000000 0.000000 0.025831 0.000000
# 6 0.000000 0.000000 0.000000 0.000000 0.000000 0.074492
#
#
# Mechanical properties :
#
#
# Convention : Reuss Voigt Hill
#
# Bulk Modulus (GPa) = 64.46503 66.27271 65.36887
# Shear Modulus (GPa) = 27.35386 33.00146 30.17766
#
# Velocity S-wave (km/s) = 3.41790 3.75419 3.58998
# Velocity P-wave (km/s) = 6.56560 6.86258 6.71573
#
# Compressibility (1/GPa) = 0.01551229
#
# Stress axis : x y z
#
# Youngs Moduli (GPa) = 104.96476 118.02892 78.03853
#
# Poissons Ratio (x) = 0.23549 0.24280
# Poissons Ratio (y) = 0.20943 0.19855
# Poissons Ratio (z) = 0.32657 0.30030
#
# Static dielectric constant tensor:
#      x y z
#    x 1.669120 0.000000 0.000000 
#    y 0.000000 1.897400 0.000000 
#    z 0.000000 0.000000 1.882780 
# 
# From -- ./inp_files/14260.got.cif
#   From: 2010.05.17/outbox.cif.g08.bks.cpg/sg42_8_cif.got.tgz:14260.got - 2010.06.03 19:03:34.
