data_PCOD9369462
_publ_section_title
;
Structure prediction by ZEFSAII (Michael W. Deem and Ramdas Pophale) SiO2 
 PCOD9369462
Probable space group: F M M 2
;
_chemical_formula_sum "Si O2"
_cell_formula_units_Z 96
_cell_length_a 8.747183
_cell_length_b 29.055180
_cell_length_c 20.829716
_cell_angle_alpha 90.000000
_cell_angle_beta 90.000000
_cell_angle_gamma 90.000000
_cell_volume 5293.892663
_symmetry_space_group_name_H-M "F M M 2"
_symmetry_group_IT_number 42
_symmetry_cell_setting 'orthorhombic'
loop_
_space_group_symop_operation_xyz
x,y,z
-x,-y,z
-x,y,z
x,-y,z
x,1/2+y,1/2+z
-x,1/2-y,1/2+z
-x,1/2+y,1/2+z
x,1/2-y,1/2+z
1/2+x,y,1/2+z
1/2-x,-y,1/2+z
1/2-x,y,1/2+z
1/2+x,-y,1/2+z
1/2+x,1/2+y,z
1/2-x,1/2-y,z
1/2-x,1/2+y,z
1/2+x,1/2-y,z
loop_
_atom_site_type_symbol
_atom_site_label
_atom_site_fract_x
_atom_site_fract_y
_atom_site_fract_z
Si Si1 0.182551 0.645968 0.064860
Si Si2 0.815731 0.051609 0.863655
Si Si3 0.818418 0.801297 0.185539
Si Si4 0.317813 0.800919 0.931066
Si Si5 0.815559 0.551816 0.006283
Si Si6 0.316568 0.853047 0.308300
O O1 0.267474 0.671577 0.121901
O O2 0.000000 0.646890 0.078018
O O3 0.208105 0.672160 0.997566
O O4 0.231454 0.593143 0.052927
O O5 0.749756 0.059553 0.934924
O O6 0.770362 0.093502 0.817709
O O7 0.000000 0.052391 0.868241
O O8 0.769064 0.000000 0.843297
O O9 0.750000 0.750000 0.184690
O O10 0.756240 0.828801 0.247012
O O11 0.000000 0.797951 0.188739
O O12 0.500000 0.799052 0.919769
O O13 0.250000 0.750000 0.936116
O O14 0.238280 0.826979 0.872273
O O15 0.771647 0.500000 0.026417
O O16 0.000000 0.553686 0.001710
O O17 0.500000 0.850531 0.303375
#
# Coordination Sequence:
#
# PCOD9369462 Si02
#       6
#    16  16  16  16  16  16
#     4  10  21  38  59  86 118 152 192 236 284 341
#     4   9  18  33  56  87 119 151 188 232 283 337
#     4  12  26  43  62  82 112 153 196 241 293 349
#     4  11  22  36  56  84 115 147 188 240 288 340
#     4   9  17  32  57  88 120 153 188 230 282 337
#     4  11  22  38  60  85 116 152 192 237 286 342
#
# _framework density 18.134104000000001
#
# number of rings (size 3 to 8) (size 9 to 14) (size 15 to 20)
#    0.000    1.667    1.667    3.500    0.000    4.000 
#    0.000    0.833    0.000    5.000    0.000    0.000 
#    0.000    0.000    0.000    0.000    0.000    0.000 
#
# Total GULP energy -134054.384160 kJ/mol
# GULP energy per Si atom -5585.599340 kJ/mol
# Density = 1.809283 g / cm^3
# Si number density = 18.134104 Si / 1000 Ang^3
#
#
#
# Elastic Constant Matrix: (Units=GPa)
#
#
# Indices 1 2 3 4 5 6 
#
# 1 74.1799 66.7496 63.3180 0.0000 0.0000 0.0000
# 2 66.7496 195.9799 84.4027 0.0000 0.0000 0.0000
# 3 63.3180 84.4027 109.8679 0.0000 0.0000 0.0000
# 4 0.0000 0.0000 0.0000 28.9531 0.0000 0.0000
# 5 0.0000 0.0000 0.0000 0.0000 36.2184 0.0000
# 6 0.0000 0.0000 0.0000 0.0000 0.0000 17.0847
#
#
#
# Elastic Compliance Matrix: (Units=1/GPa)
#
#
# Indices 1 2 3 4 5 6 
#
# 1 0.028418 -0.003924 -0.013363 0.000000 0.000000 0.000000
# 2 -0.003924 0.008167 -0.004013 0.000000 0.000000 0.000000
# 3 -0.013363 -0.004013 0.019886 0.000000 0.000000 0.000000
# 4 0.000000 0.000000 0.000000 0.034539 0.000000 0.000000
# 5 0.000000 0.000000 0.000000 0.000000 0.027610 0.000000
# 6 0.000000 0.000000 0.000000 0.000000 0.000000 0.058532
#
#
# Mechanical properties :
#
#
# Convention : Reuss Voigt Hill
#
# Bulk Modulus (GPa) = 72.09109 89.88538 80.98823
# Shear Modulus (GPa) = 22.28407 27.48841 24.88624
#
# Velocity S-wave (km/s) = 3.50930 3.89760 3.70854
# Velocity P-wave (km/s) = 7.50073 8.36240 7.94326
#
# Compressibility (1/GPa) = 0.01387134
#
# Stress axis : x y z
#
# Youngs Moduli (GPa) = 35.18891 122.44043 50.28682
#
# Poissons Ratio (x) = 0.48044 0.67199
# Poissons Ratio (y) = 0.13808 0.20179
# Poissons Ratio (z) = 0.47024 0.49134
#
# Static dielectric constant tensor:
#      x y z
#    x 1.536430 0.000000 0.000000 
#    y 0.000000 1.649410 0.000000 
#    z 0.000000 0.000000 1.576680 
# 
# From -- ./inp_files/23700.got.cif
#   From: 2010.05.17/outbox.cif.g08.bks.cpg/sg42_12_cif.got.tgz:23700.got - 2010.06.03 19:03:34.
