data_PCOD9369626
_publ_section_title
;
Structure prediction by ZEFSAII (Michael W. Deem and Ramdas Pophale) SiO2 
 PCOD9369626
Probable space group: F M M 2
;
_chemical_formula_sum "Si O2"
_cell_formula_units_Z 116
_cell_length_a 30.838808
_cell_length_b 8.203443
_cell_length_c 25.148205
_cell_angle_alpha 90.000000
_cell_angle_beta 90.000000
_cell_angle_gamma 90.000000
_cell_volume 6362.103644
_symmetry_space_group_name_H-M "F M M 2"
_symmetry_group_IT_number 42
_symmetry_cell_setting 'orthorhombic'
loop_
_space_group_symop_operation_xyz
x,y,z
-x,-y,z
-x,y,z
x,-y,z
x,1/2+y,1/2+z
-x,1/2-y,1/2+z
-x,1/2+y,1/2+z
x,1/2-y,1/2+z
1/2+x,y,1/2+z
1/2-x,-y,1/2+z
1/2-x,y,1/2+z
1/2+x,-y,1/2+z
1/2+x,1/2+y,z
1/2-x,1/2-y,z
1/2-x,1/2+y,z
1/2+x,1/2-y,z
loop_
_atom_site_type_symbol
_atom_site_label
_atom_site_fract_x
_atom_site_fract_y
_atom_site_fract_z
Si Si1 0.201099 0.690411 0.661170
Si Si2 0.122702 0.315105 0.833434
Si Si3 0.000000 0.000000 0.730888
Si Si4 0.703242 0.688216 0.779644
Si Si5 0.887174 0.807242 0.624374
Si Si6 0.934256 0.686766 0.727166
Si Si7 0.451686 0.692717 0.910323
Si Si8 0.951258 0.303877 0.031115
O O1 0.198121 0.500000 0.650527
O O2 0.250000 0.750000 0.651073
O O3 0.192675 0.720582 0.724221
O O4 0.164201 0.779224 0.626931
O O5 0.136734 0.500000 0.842978
O O6 0.165806 0.212064 0.822902
O O7 0.096145 0.306475 0.778624
O O8 0.088443 0.265172 0.878380
O O9 0.036583 0.850435 0.730313
O O10 0.706957 0.500000 0.764820
O O11 0.750000 0.750000 0.798468
O O12 0.907054 0.708628 0.673409
O O13 0.913404 0.756247 0.571600
O O14 0.895899 0.000000 0.631668
O O15 0.952686 0.500000 0.726954
O O16 0.500000 0.756420 0.894026
O O17 0.452035 0.500000 0.900407
O O18 0.447207 0.726571 0.972986
O O19 0.949612 0.500000 0.024686
O O20 0.000000 0.264571 0.052153
#
# Coordination Sequence:
#
# PCOD9369626 Si02
#       8
#    16  16   4  16  16  16  16  16
#     4  11  21  35  55  83 116 153 194 240 292 355
#     4  11  23  38  57  83 117 151 195 243 288 349
#     4  12  26  40  56  74 128 160 198 240 300 348
#     4  11  21  35  57  83 115 151 189 233 289 351
#     4  11  21  36  60  85 119 157 194 244 296 349
#     4  11  25  39  56  85 117 160 202 238 292 357
#     4  10  22  38  59  84 112 150 198 245 295 345
#     4   9  20  38  60  83 112 152 198 241 292 347
#
# _framework density 18.232962000000001
#
# number of rings (size 3 to 8) (size 9 to 14) (size 15 to 20)
#    0.000    1.379    2.069    4.759    3.862    1.931 
#    0.000    0.000    0.000    0.828    0.000    1.931 
#    0.000    0.000    0.000    0.000    0.000    0.000 
#
# Total GULP energy -161549.592806 kJ/mol
# GULP energy per Si atom -5570.675614 kJ/mol
# Density = 1.819146 g / cm^3
# Si number density = 18.232962 Si / 1000 Ang^3
#
#
#
# Elastic Constant Matrix: (Units=GPa)
#
#
# Indices 1 2 3 4 5 6 
#
# 1 118.5366 19.2190 37.3558 0.0000 0.0001 0.0000
# 2 19.2190 88.6880 3.3332 0.0000 0.0000 -0.0001
# 3 37.3558 3.3332 48.6220 0.0000 0.0001 0.0000
# 4 0.0000 0.0000 0.0000 20.9962 0.0000 0.0000
# 5 0.0001 0.0000 0.0001 0.0000 16.0692 -0.0001
# 6 0.0000 -0.0001 0.0000 0.0000 -0.0001 28.0943
#
#
#
# Elastic Compliance Matrix: (Units=1/GPa)
#
#
# Indices 1 2 3 4 5 6 
#
# 1 0.011534 -0.002172 -0.008713 0.000000 0.000000 0.000000
# 2 -0.002172 0.011714 0.000866 0.000000 0.000000 0.000000
# 3 -0.008713 0.000866 0.027201 0.000000 0.000000 0.000000
# 4 0.000000 0.000000 0.000000 0.047628 0.000000 0.000000
# 5 0.000000 0.000000 0.000000 0.000000 0.062231 0.000000
# 6 0.000000 0.000000 0.000000 0.000000 0.000000 0.035594
#
#
# Mechanical properties :
#
#
# Convention : Reuss Voigt Hill
#
# Bulk Modulus (GPa) = 32.88261 41.74027 37.31144
# Shear Modulus (GPa) = 22.11638 26.09453 24.10546
#
# Velocity S-wave (km/s) = 3.48658 3.78719 3.63999
# Velocity P-wave (km/s) = 5.85510 6.48585 6.17853
#
# Compressibility (1/GPa) = 0.03041121
#
# Stress axis : x y z
#
# Youngs Moduli (GPa) = 86.69962 85.37066 36.76295
#
# Poissons Ratio (x) = 0.18543 0.32030
# Poissons Ratio (y) = 0.18831 -0.03183
# Poissons Ratio (z) = 0.75538 -0.07391
#
# Static dielectric constant tensor:
#      x y z
#    x 1.654820 0.000000 0.000000 
#    y 0.000000 1.630210 0.000000 
#    z 0.000000 0.000000 1.595510 
# 
# From -- ./inp_files/30913.got.cif
#   From: 2010.05.17/outbox.cif.g08.bks.cpg/sg42_16_cif.got.tgz:30913.got - 2010.06.03 19:03:34.
