data_PCOD9369646
_publ_section_title
;
Structure prediction by ZEFSAII (Michael W. Deem and Ramdas Pophale) SiO2 
 PCOD9369646
Probable space group: F M M 2
;
_chemical_formula_sum "Si O2"
_cell_formula_units_Z 96
_cell_length_a 19.029864
_cell_length_b 21.205096
_cell_length_c 12.202305
_cell_angle_alpha 90.000000
_cell_angle_beta 90.000000
_cell_angle_gamma 90.000000
_cell_volume 4923.997271
_symmetry_space_group_name_H-M "F M M 2"
_symmetry_group_IT_number 42
_symmetry_cell_setting 'orthorhombic'
loop_
_space_group_symop_operation_xyz
x,y,z
-x,-y,z
-x,y,z
x,-y,z
x,1/2+y,1/2+z
-x,1/2-y,1/2+z
-x,1/2+y,1/2+z
x,1/2-y,1/2+z
1/2+x,y,1/2+z
1/2-x,-y,1/2+z
1/2-x,y,1/2+z
1/2+x,-y,1/2+z
1/2+x,1/2+y,z
1/2-x,1/2-y,z
1/2-x,1/2+y,z
1/2+x,1/2-y,z
loop_
_atom_site_type_symbol
_atom_site_label
_atom_site_fract_x
_atom_site_fract_y
_atom_site_fract_z
Si Si1 0.853355 0.700564 0.219670
Si Si2 0.815199 0.075347 0.355963
Si Si3 0.084708 0.000000 0.676872
Si Si4 0.416187 0.000000 0.427871
Si Si5 0.808342 0.167125 0.170964
Si Si6 0.837287 0.123875 0.935793
Si Si7 0.582759 0.121647 0.038507
O O1 0.849482 0.775823 0.229924
O O2 0.774422 0.680469 0.185226
O O3 0.868072 0.663535 0.333036
O O4 0.902224 0.679993 0.118744
O O5 0.822472 0.101666 0.232897
O O6 0.737836 0.095222 0.398571
O O7 0.870753 0.113179 0.430913
O O8 0.824624 0.000000 0.363750
O O9 0.109213 0.000000 0.800761
O O10 0.106367 0.062034 0.613033
O O11 0.000000 0.000000 0.680155
O O12 0.385701 0.934697 0.471076
O O13 0.500000 0.000000 0.432656
O O14 0.825711 0.165921 0.043000
O O15 0.500000 0.116795 0.014571
#
# Coordination Sequence:
#
# PCOD9369646 Si02
#       7
#    16  16   8   8  16  16  16
#     4  10  22  39  63  93 120 161 212 258 306 362
#     4  11  23  38  62  96 126 161 209 254 310 372
#     4   9  18  33  57  89 121 154 204 258 304 345
#     4  11  22  37  59  93 128 164 206 256 317 367
#     4  10  24  39  63  92 127 162 202 257 313 371
#     4  11  22  39  64  92 125 164 207 258 307 370
#     4  11  21  38  63  91 125 164 210 260 304 358
#
# _framework density 19.496355000000001
#
# number of rings (size 3 to 8) (size 9 to 14) (size 15 to 20)
#    0.000    1.500    5.000    0.000    3.500    1.333 
#    0.000    2.500    0.000    0.000    0.000    0.000 
#    0.000    0.000    0.000    0.000    0.000    0.000 
#
# Total GULP energy -133934.272594 kJ/mol
# GULP energy per Si atom -5580.594691 kJ/mol
# Density = 1.945198 g / cm^3
# Si number density = 19.496355 Si / 1000 Ang^3
#
#
#
# Elastic Constant Matrix: (Units=GPa)
#
#
# Indices 1 2 3 4 5 6 
#
# 1 60.7496 20.1678 9.6919 0.0000 0.0000 0.0000
# 2 20.1678 79.3449 20.7958 0.0000 0.0000 0.0000
# 3 9.6919 20.7958 76.8272 0.0000 0.0000 0.0000
# 4 0.0000 0.0000 0.0000 22.8701 0.0000 0.0000
# 5 0.0000 0.0000 0.0000 0.0000 21.2576 0.0000
# 6 0.0000 0.0000 0.0000 0.0000 0.0000 19.8159
#
#
#
# Elastic Compliance Matrix: (Units=1/GPa)
#
#
# Indices 1 2 3 4 5 6 
#
# 1 0.018066 -0.004300 -0.001115 0.000000 0.000000 0.000000
# 2 -0.004300 0.014589 -0.003407 0.000000 0.000000 0.000000
# 3 -0.001115 -0.003407 0.014079 0.000000 0.000000 0.000000
# 4 0.000000 0.000000 0.000000 0.043725 0.000000 0.000000
# 5 0.000000 0.000000 0.000000 0.000000 0.047042 0.000000
# 6 0.000000 0.000000 0.000000 0.000000 0.000000 0.050465
#
#
# Mechanical properties :
#
#
# Convention : Reuss Voigt Hill
#
# Bulk Modulus (GPa) = 34.37467 35.35920 34.86693
# Shear Modulus (GPa) = 23.22273 23.87314 23.54794
#
# Velocity S-wave (km/s) = 3.45502 3.50307 3.47913
# Velocity P-wave (km/s) = 5.79533 5.87688 5.83625
#
# Compressibility (1/GPa) = 0.02909119
#
# Stress axis : x y z
#
# Youngs Moduli (GPa) = 55.35140 68.54498 71.02772
#
# Poissons Ratio (x) = 0.29473 0.07921
# Poissons Ratio (y) = 0.23800 0.24196
# Poissons Ratio (z) = 0.06173 0.23350
#
# Static dielectric constant tensor:
#      x y z
#    x 1.655160 0.000000 0.000000 
#    y 0.000000 1.710660 0.000000 
#    z 0.000000 0.000000 1.667870 
# 
# From -- ./inp_files/9562.got.cif
#   From: 2010.05.17/outbox.cif.g08.bks.cpg/sg42_5_cif.got.tgz:9562.got - 2010.06.03 19:03:34.
