data_PCOD9369191
_publ_section_title
;
Structure prediction by ZEFSAII (Michael W. Deem and Ramdas Pophale) SiO2 
 PCOD9369191
Probable space group: F M M 2
;
_chemical_formula_sum "Si O2"
_cell_formula_units_Z 80
_cell_length_a 18.053979
_cell_length_b 7.659656
_cell_length_c 30.178523
_cell_angle_alpha 90.000000
_cell_angle_beta 90.000000
_cell_angle_gamma 90.000000
_cell_volume 4173.305515
_symmetry_space_group_name_H-M "F M M 2"
_symmetry_group_IT_number 42
_symmetry_cell_setting 'orthorhombic'
loop_
_space_group_symop_operation_xyz
x,y,z
-x,-y,z
-x,y,z
x,-y,z
x,1/2+y,1/2+z
-x,1/2-y,1/2+z
-x,1/2+y,1/2+z
x,1/2-y,1/2+z
1/2+x,y,1/2+z
1/2-x,-y,1/2+z
1/2-x,y,1/2+z
1/2+x,-y,1/2+z
1/2+x,1/2+y,z
1/2-x,1/2-y,z
1/2-x,1/2+y,z
1/2+x,1/2-y,z
loop_
_atom_site_type_symbol
_atom_site_label
_atom_site_fract_x
_atom_site_fract_y
_atom_site_fract_z
Si Si1 0.415236 0.287664 0.773160
Si Si2 0.663011 0.791716 0.365022
Si Si3 0.409999 0.500000 0.526856
Si Si4 0.336375 0.291477 0.683529
Si Si5 0.912782 0.696989 0.592455
Si Si6 0.089228 0.500000 0.924734
O O1 0.500000 0.228381 0.777319
O O2 0.416032 0.500000 0.771586
O O3 0.368059 0.241717 0.816411
O O4 0.378741 0.226842 0.727362
O O5 0.750000 0.750000 0.367098
O O6 0.620611 0.671085 0.400158
O O7 0.651176 0.000000 0.371570
O O8 0.500000 0.500000 0.525704
O O9 0.386664 0.332611 0.555471
O O10 0.386118 0.500000 0.476062
O O11 0.346079 0.500000 0.681089
O O12 0.250000 0.250000 0.687435
O O13 0.369568 0.216477 0.638352
O O14 0.905997 0.500000 0.575944
O O15 0.000000 0.732162 0.601506
O O16 0.000000 0.500000 0.922576
#
# Coordination Sequence:
#
# PCOD9369191 Si02
#       6
#    16  16   8  16  16   8
#     4   9  19  35  58  89 122 164 210 254 307 369
#     4  11  22  41  66  91 132 170 210 260 322 379
#     4   9  20  40  64  89 120 155 201 260 316 366
#     4  11  21  35  56  82 125 165 205 248 306 366
#     4  10  20  37  62  89 118 155 201 253 307 366
#     4  11  24  42  68  99 125 163 217 266 323 388
#
# _framework density 19.169454999999999
#
# number of rings (size 3 to 8) (size 9 to 14) (size 15 to 20)
#    0.000    1.800    2.000    2.400    0.000    2.800 
#    3.600    3.000    0.000    0.000    0.000    0.000 
#    0.000    0.000    0.000    0.000    0.000    0.000 
#
# Total GULP energy -111741.268192 kJ/mol
# GULP energy per Si atom -5587.063410 kJ/mol
# Density = 1.912582 g / cm^3
# Si number density = 19.169455 Si / 1000 Ang^3
#
#
#
# Elastic Constant Matrix: (Units=GPa)
#
#
# Indices 1 2 3 4 5 6 
#
# 1 108.8001 34.3850 63.9862 0.0000 0.0000 0.0000
# 2 34.3850 97.2555 61.4758 0.0000 0.0000 0.0000
# 3 63.9862 61.4758 176.6215 0.0000 0.0000 0.0000
# 4 0.0000 0.0000 0.0000 4.5923 0.0000 0.0000
# 5 0.0000 0.0000 0.0000 0.0000 -4.5142 0.0000
# 6 0.0000 0.0000 0.0000 0.0000 0.0000 17.7392
#
#
#
# Elastic Compliance Matrix: (Units=1/GPa)
#
#
# Indices 1 2 3 4 5 6 
#
# 1 0.011950 -0.001908 -0.003665 0.000000 0.000000 0.000000
# 2 -0.001908 0.013487 -0.004003 0.000000 0.000000 0.000000
# 3 -0.003665 -0.004003 0.008383 0.000000 0.000000 0.000000
# 4 0.000000 0.000000 0.000000 0.217757 0.000000 0.000000
# 5 0.000000 0.000000 0.000000 0.000000 -0.221522 0.000000
# 6 0.000000 0.000000 0.000000 0.000000 0.000000 0.056372
#
#
# Mechanical properties :
#
#
# Convention : Reuss Voigt Hill
#
# Bulk Modulus (GPa) = 68.17917 78.04126 73.11021
# Shear Modulus (GPa) = 45.26156 18.41878 31.84017
#
# Velocity S-wave (km/s) = 4.86442 3.10311 4.07994
# Velocity P-wave (km/s) = 8.19719 7.32384 7.77279
#
# Compressibility (1/GPa) = 0.01466724
#
# Stress axis : x y z
#
# Youngs Moduli (GPa) = 83.68489 74.14408 119.29055
#
# Poissons Ratio (x) = 0.14148 0.43719
# Poissons Ratio (y) = 0.15969 0.47754
# Poissons Ratio (z) = 0.30670 0.29681
#
# Static dielectric constant tensor:
#      x y z
#    x 1.639800 0.000000 0.000000 
#    y 0.000000 1.693650 0.000000 
#    z 0.000000 0.000000 1.628960 
# 
# From -- ./inp_files/31283.got.cif
#   From: 2010.05.17/outbox.cif.g08.bks.cpg/sg42_16_cif.got.tgz:31283.got - 2010.06.03 19:03:34.
