data_PCOD9369834
_publ_section_title
;
Structure prediction by ZEFSAII (Michael W. Deem and Ramdas Pophale) SiO2 
 PCOD9369834
Probable space group: F M M 2
;
_chemical_formula_sum "Si O2"
_cell_formula_units_Z 80
_cell_length_a 21.961289
_cell_length_b 19.403982
_cell_length_c 7.888091
_cell_angle_alpha 90.000000
_cell_angle_beta 90.000000
_cell_angle_gamma 90.000000
_cell_volume 3361.403147
_symmetry_space_group_name_H-M "F M M 2"
_symmetry_group_IT_number 42
_symmetry_cell_setting 'orthorhombic'
loop_
_space_group_symop_operation_xyz
x,y,z
-x,-y,z
-x,y,z
x,-y,z
x,1/2+y,1/2+z
-x,1/2-y,1/2+z
-x,1/2+y,1/2+z
x,1/2-y,1/2+z
1/2+x,y,1/2+z
1/2-x,-y,1/2+z
1/2-x,y,1/2+z
1/2+x,-y,1/2+z
1/2+x,1/2+y,z
1/2-x,1/2-y,z
1/2-x,1/2+y,z
1/2+x,1/2-y,z
loop_
_atom_site_type_symbol
_atom_site_label
_atom_site_fract_x
_atom_site_fract_y
_atom_site_fract_z
Si Si1 0.929343 0.500000 0.851490
Si Si2 0.152615 0.870842 0.294269
Si Si3 0.380158 0.349508 0.814065
Si Si4 0.428563 0.000000 0.262933
Si Si5 0.429042 0.729663 0.486668
Si Si6 0.764288 0.169313 0.600515
O O1 0.892431 0.565714 0.788233
O O2 0.000000 0.500000 0.801030
O O3 0.927069 0.500000 0.057057
O O4 0.111216 0.805582 0.340408
O O5 0.197786 0.870559 0.458126
O O6 0.200377 0.865200 0.143487
O O7 0.395819 0.429971 0.822064
O O8 0.416932 0.316250 0.653012
O O9 0.405299 0.307855 0.975593
O O10 0.310367 0.333715 0.762218
O O11 0.500000 0.000000 0.313250
O O12 0.500000 0.727776 0.448400
O O13 0.750000 0.250000 0.564003
#
# Coordination Sequence:
#
# PCOD9369834 Si02
#       6
#     8  16  16   8  16  16
#     4  11  22  41  65  94 125 166 224 271 318 387
#     4  11  24  37  65  92 126 169 209 268 321 380
#     4  11  24  38  67  94 130 173 216 276 330 387
#     4  11  20  39  63  94 125 166 218 269 318 389
#     4  11  21  38  60  95 125 168 222 269 326 389
#     4  11  22  39  60  92 130 162 213 259 322 386
#
# _framework density 23.799586999999999
#
# number of rings (size 3 to 8) (size 9 to 14) (size 15 to 20)
#    0.000    1.000    6.000    3.000    2.800    1.600 
#    0.000    0.000    0.000    2.400    0.000   14.000 
#    0.000    0.000    0.000    0.000    0.000    0.000 
#
# Total GULP energy -111981.360275 kJ/mol
# GULP energy per Si atom -5599.068014 kJ/mol
# Density = 2.374542 g / cm^3
# Si number density = 23.799587 Si / 1000 Ang^3
#
#
#
# Elastic Constant Matrix: (Units=GPa)
#
#
# Indices 1 2 3 4 5 6 
#
# 1 224.1742 71.0921 22.9713 0.0001 0.0000 0.0004
# 2 71.0921 183.1910 16.8017 -0.0001 -0.0005 -0.0031
# 3 22.9713 16.8017 80.9233 -0.0009 -0.0006 -0.0081
# 4 0.0001 -0.0001 -0.0009 26.1871 -0.0003 -0.0031
# 5 0.0000 -0.0005 -0.0006 -0.0003 1.2566 0.0048
# 6 0.0004 -0.0031 -0.0081 -0.0031 0.0048 -18.9111
#
#
#
# Elastic Compliance Matrix: (Units=1/GPa)
#
#
# Indices 1 2 3 4 5 6 
#
# 1 0.005177 -0.001911 -0.001073 0.000000 -0.000001 0.000001
# 2 -0.001911 0.006270 -0.000759 0.000000 0.000002 -0.000001
# 3 -0.001073 -0.000759 0.012820 0.000000 0.000006 -0.000005
# 4 0.000000 0.000000 0.000000 0.038187 0.000010 -0.000006
# 5 -0.000001 0.000002 0.000006 0.000010 0.795812 0.000204
# 6 0.000001 -0.000001 -0.000005 -0.000006 0.000204 -0.052879
#
#
# Mechanical properties :
#
#
# Convention : Reuss Voigt Hill
#
# Bulk Modulus (GPa) = 59.59281 78.89095 69.24188
# Shear Modulus (GPa) = 6.10900 26.86808 16.48854
#
# Velocity S-wave (km/s) = 1.60388 3.36360 2.63498
# Velocity P-wave (km/s) = 5.34076 6.95019 6.19793
#
# Compressibility (1/GPa) = 0.01678055
#
# Stress axis : x y z
#
# Youngs Moduli (GPa) = 193.17578 159.49292 78.00564
#
# Poissons Ratio (x) = 0.30472 0.08368
# Poissons Ratio (y) = 0.36907 0.05924
# Poissons Ratio (z) = 0.20724 0.12113
#
# Static dielectric constant tensor:
#      x y z
#    x 1.869670 0.000000 0.000000 
#    y 0.000000 1.890640 0.000000 
#    z 0.000000 0.000000 2.056850 
# 
# From -- ./inp_files/9366.got.cif
#   From: 2010.05.17/outbox.cif.g08.bks.cpg/sg42_5_cif.got.tgz:9366.got - 2010.06.03 19:03:34.
