data_PCOD9369953
_publ_section_title
;
Structure prediction by ZEFSAII (Michael W. Deem and Ramdas Pophale) SiO2 
 PCOD9369953
Probable space group: F M M 2
;
_chemical_formula_sum "Si O2"
_cell_formula_units_Z 64
_cell_length_a 10.451317
_cell_length_b 32.360344
_cell_length_c 9.319354
_cell_angle_alpha 90.000000
_cell_angle_beta 90.000000
_cell_angle_gamma 90.000000
_cell_volume 3151.882066
_symmetry_space_group_name_H-M "F M M 2"
_symmetry_group_IT_number 42
_symmetry_cell_setting 'orthorhombic'
loop_
_space_group_symop_operation_xyz
x,y,z
-x,-y,z
-x,y,z
x,-y,z
x,1/2+y,1/2+z
-x,1/2-y,1/2+z
-x,1/2+y,1/2+z
x,1/2-y,1/2+z
1/2+x,y,1/2+z
1/2-x,-y,1/2+z
1/2-x,y,1/2+z
1/2+x,-y,1/2+z
1/2+x,1/2+y,z
1/2-x,1/2-y,z
1/2-x,1/2+y,z
1/2+x,1/2-y,z
loop_
_atom_site_type_symbol
_atom_site_label
_atom_site_fract_x
_atom_site_fract_y
_atom_site_fract_z
Si Si1 0.500000 0.791905 0.268930
Si Si2 0.737701 0.155343 0.385785
Si Si3 0.500000 0.703144 0.420516
Si Si4 0.000000 0.452319 0.677807
Si Si5 0.249155 0.902638 0.634673
Si Si6 0.000000 0.951111 0.523870
O O1 0.375685 0.815989 0.328409
O O2 0.500000 0.746559 0.338044
O O3 0.500000 0.791323 0.094682
O O4 0.873730 0.177951 0.376067
O O5 0.726890 0.139876 0.548537
O O6 0.733701 0.112822 0.296739
O O7 0.126714 0.430637 0.620918
O O8 0.000000 0.448878 0.851102
O O9 0.000000 0.500000 0.638283
O O10 0.124140 0.926958 0.582354
O O11 0.000000 0.000000 0.563572
#
# Coordination Sequence:
#
# PCOD9369953 Si02
#       6
#     8  16   8   8  16   8
#     4  12  28  46  68 101 136 176 220 275 336 397
#     4  12  25  45  72  96 137 174 224 277 327 394
#     4  12  28  47  67 102 137 174 220 275 336 397
#     4  11  24  43  67 100 137 177 222 276 336 396
#     4  12  23  45  70  99 131 180 223 274 331 393
#     4  11  24  44  66  99 142 175 216 282 336 390
#
# _framework density 20.305326000000001
#
# number of rings (size 3 to 8) (size 9 to 14) (size 15 to 20)
#    0.000    0.250    5.000    4.500    3.500    2.000 
#    0.000    1.250    0.000    0.000    0.000    0.000 
#    0.000    0.000    0.000    0.000    0.000    0.000 
#
# Total GULP energy -89513.415178 kJ/mol
# GULP energy per Si atom -5594.588449 kJ/mol
# Density = 2.025911 g / cm^3
# Si number density = 20.305326 Si / 1000 Ang^3
#
#
#
# Elastic Constant Matrix: (Units=GPa)
#
#
# Indices 1 2 3 4 5 6 
#
# 1 210.0589 88.2018 40.9402 0.0000 0.0000 0.0000
# 2 88.2018 121.2086 16.9865 0.0000 0.0000 0.0000
# 3 40.9402 16.9865 55.3198 0.0000 0.0000 0.0000
# 4 0.0000 0.0000 0.0000 39.0034 0.0000 0.0000
# 5 0.0000 0.0000 0.0000 0.0000 28.9762 0.0000
# 6 0.0000 0.0000 0.0000 0.0000 0.0000 93.5190
#
#
#
# Elastic Compliance Matrix: (Units=1/GPa)
#
#
# Indices 1 2 3 4 5 6 
#
# 1 0.007666 -0.004998 -0.004138 0.000000 0.000000 0.000000
# 2 -0.004998 0.011880 0.000051 0.000000 0.000000 0.000000
# 3 -0.004138 0.000051 0.021124 0.000000 0.000000 0.000000
# 4 0.000000 0.000000 0.000000 0.025639 0.000000 0.000000
# 5 0.000000 0.000000 0.000000 0.000000 0.034511 0.000000
# 6 0.000000 0.000000 0.000000 0.000000 0.000000 0.010693
#
#
# Mechanical properties :
#
#
# Convention : Reuss Voigt Hill
#
# Bulk Modulus (GPa) = 44.44728 75.42714 59.93721
# Shear Modulus (GPa) = 36.44743 48.33031 42.38887
#
# Velocity S-wave (km/s) = 4.24130 4.88400 4.57395
# Velocity P-wave (km/s) = 6.77657 8.30853 7.58135
#
# Compressibility (1/GPa) = 0.02249856
#
# Stress axis : x y z
#
# Youngs Moduli (GPa) = 130.44712 84.17262 47.34015
#
# Poissons Ratio (x) = 0.42073 0.19592
# Poissons Ratio (y) = 0.65203 -0.00242
# Poissons Ratio (z) = 0.53985 -0.00431
#
# Static dielectric constant tensor:
#      x y z
#    x 1.679320 0.000000 0.000000 
#    y 0.000000 1.694100 0.000000 
#    z 0.000000 0.000000 1.690200 
# 
# From -- ./inp_files/2257.got.cif
#   From: 2010.05.17/outbox.cif.g08.bks.cpg/sg42_2_cif.got.tgz:2257.got - 2010.06.03 19:03:34.
