data_PCOD9369639
_publ_section_title
;
Structure prediction by ZEFSAII (Michael W. Deem and Ramdas Pophale) SiO2 
 PCOD9369639
Probable space group: F M M 2
;
_chemical_formula_sum "Si O2"
_cell_formula_units_Z 64
_cell_length_a 11.761043
_cell_length_b 21.873534
_cell_length_c 13.028131
_cell_angle_alpha 90.000000
_cell_angle_beta 90.000000
_cell_angle_gamma 90.000000
_cell_volume 3351.559318
_symmetry_space_group_name_H-M "F M M 2"
_symmetry_group_IT_number 42
_symmetry_cell_setting 'orthorhombic'
loop_
_space_group_symop_operation_xyz
x,y,z
-x,-y,z
-x,y,z
x,-y,z
x,1/2+y,1/2+z
-x,1/2-y,1/2+z
-x,1/2+y,1/2+z
x,1/2-y,1/2+z
1/2+x,y,1/2+z
1/2-x,-y,1/2+z
1/2-x,y,1/2+z
1/2+x,-y,1/2+z
1/2+x,1/2+y,z
1/2-x,1/2-y,z
1/2-x,1/2+y,z
1/2+x,1/2-y,z
loop_
_atom_site_type_symbol
_atom_site_label
_atom_site_fract_x
_atom_site_fract_y
_atom_site_fract_z
Si Si1 0.500000 0.000000 0.638060
Si Si2 0.823656 0.500000 0.456309
Si Si3 0.500000 0.500000 0.773054
Si Si4 0.681906 0.123026 0.958464
Si Si5 0.750000 0.750000 0.886367
Si Si6 0.500000 0.746272 0.770162
Si Si7 0.000000 0.876971 0.637232
Si Si8 0.000000 0.380135 0.777292
O O1 0.395541 0.000000 0.560253
O O2 0.500000 0.060873 0.706386
O O3 0.754925 0.562416 0.458203
O O4 0.894898 0.500000 0.351373
O O5 0.500000 0.438358 0.705420
O O6 0.745502 0.187517 0.950689
O O7 0.605573 0.118911 0.855716
O O8 0.606501 0.122919 0.060455
O O9 0.624894 0.746020 0.828729
O O10 0.500000 0.685410 0.702178
O O11 0.500000 0.814417 0.720378
#
# Coordination Sequence:
#
# PCOD9369639 Si02
#       8
#     4   8   4  16   8   8   8   8
#     4  11  24  37  58  88 114 149 202 253 304 360
#     4  11  24  39  58  86 118 157 204 257 309 364
#     4  11  24  41  58  84 126 165 206 261 314 372
#     4  10  22  39  61  88 121 159 201 251 309 369
#     4  10  22  42  64  90 126 168 208 258 314 368
#     4  10  22  40  64  92 124 168 210 252 314 374
#     4  11  23  39  62  93 123 161 209 258 312 375
#     4   9  21  41  60  83 119 157 195 246 306 365
#
# _framework density 19.095589
#
# number of rings (size 3 to 8) (size 9 to 14) (size 15 to 20)
#    0.000    1.750    0.000    3.750    0.000   14.000 
#    0.000    2.500    0.000    0.000    0.000    0.000 
#    0.000    0.000    0.000    0.000    0.000    0.000 
#
# Total GULP energy -89166.070529 kJ/mol
# GULP energy per Si atom -5572.879408 kJ/mol
# Density = 1.905213 g / cm^3
# Si number density = 19.095589 Si / 1000 Ang^3
#
#
#
# Elastic Constant Matrix: (Units=GPa)
#
#
# Indices 1 2 3 4 5 6 
#
# 1 113.7336 91.8379 49.3744 0.0000 0.0000 0.0000
# 2 91.8379 279.8510 109.0647 0.0000 0.0000 0.0000
# 3 49.3744 109.0647 110.5311 0.0000 0.0000 0.0000
# 4 0.0000 0.0000 0.0000 209.2014 0.0000 0.0000
# 5 0.0000 0.0000 0.0000 0.0000 -124.1919 0.0000
# 6 0.0000 0.0000 0.0000 0.0000 0.0000 40.6317
#
#
#
# Elastic Compliance Matrix: (Units=1/GPa)
#
#
# Indices 1 2 3 4 5 6 
#
# 1 0.012363 -0.003095 -0.002469 0.000000 0.000000 0.000000
# 2 -0.003095 0.006581 -0.005111 0.000000 0.000000 0.000000
# 3 -0.002469 -0.005111 0.015193 0.000000 0.000000 0.000000
# 4 0.000000 0.000000 0.000000 0.004780 0.000000 0.000000
# 5 0.000000 0.000000 0.000000 0.000000 -0.008052 0.000000
# 6 0.000000 0.000000 0.000000 0.000000 0.000000 0.024611
#
#
# Mechanical properties :
#
#
# Convention : Reuss Voigt Hill
#
# Bulk Modulus (GPa) = 78.19893 111.62994 94.91444
# Shear Modulus (GPa) = 61.66036 42.05081 51.85558
#
# Velocity S-wave (km/s) = 5.68863 4.69777 5.21678
# Velocity P-wave (km/s) = 9.17537 9.38141 9.27896
#
# Compressibility (1/GPa) = 0.01278790
#
# Stress axis : x y z
#
# Youngs Moduli (GPa) = 80.88325 151.95351 65.81893
#
# Poissons Ratio (x) = 0.47033 0.16248
# Poissons Ratio (y) = 0.25035 0.33640
# Poissons Ratio (z) = 0.19967 0.77664
#
# Static dielectric constant tensor:
#      x y z
#    x 1.719460 0.000000 0.000000 
#    y 0.000000 1.606580 0.000000 
#    z 0.000000 0.000000 1.631940 
# 
# From -- ./inp_files/6813.got.cif
#   From: 2010.05.17/outbox.cif.g08.bks.cpg/sg42_4_cif.got.tgz:6813.got - 2010.06.03 19:03:34.
