data_PCOD9369947
_publ_section_title
;
Structure prediction by ZEFSAII (Michael W. Deem and Ramdas Pophale) SiO2 
 PCOD9369947
Probable space group: F M M 2
;
_chemical_formula_sum "Si O2"
_cell_formula_units_Z 112
_cell_length_a 17.658637
_cell_length_b 14.251080
_cell_length_c 23.883481
_cell_angle_alpha 90.000000
_cell_angle_beta 90.000000
_cell_angle_gamma 90.000000
_cell_volume 6010.389018
_symmetry_space_group_name_H-M "F M M 2"
_symmetry_group_IT_number 42
_symmetry_cell_setting 'orthorhombic'
loop_
_space_group_symop_operation_xyz
x,y,z
-x,-y,z
-x,y,z
x,-y,z
x,1/2+y,1/2+z
-x,1/2-y,1/2+z
-x,1/2+y,1/2+z
x,1/2-y,1/2+z
1/2+x,y,1/2+z
1/2-x,-y,1/2+z
1/2-x,y,1/2+z
1/2+x,-y,1/2+z
1/2+x,1/2+y,z
1/2-x,1/2-y,z
1/2-x,1/2+y,z
1/2+x,1/2-y,z
loop_
_atom_site_type_symbol
_atom_site_label
_atom_site_fract_x
_atom_site_fract_y
_atom_site_fract_z
Si Si1 0.662074 0.759241 0.097300
Si Si2 0.586594 0.600902 0.389055
Si Si3 0.091377 0.888095 0.018303
Si Si4 0.333570 0.713204 0.910177
Si Si5 0.585906 0.388328 0.818562
Si Si6 0.090453 0.108724 0.690711
Si Si7 0.083134 0.105451 0.523557
O O1 0.750000 0.750000 0.109184
O O2 0.624316 0.663496 0.073822
O O3 0.622918 0.814649 0.148183
O O4 0.649310 0.831414 0.046047
O O5 0.500000 0.605810 0.369384
O O6 0.619060 0.500000 0.370725
O O7 0.629023 0.696601 0.379521
O O8 0.584505 0.599372 0.456922
O O9 0.000000 0.879845 0.016898
O O10 0.109934 0.000000 0.015609
O O11 0.125438 0.830794 0.964959
O O12 0.250000 0.750000 0.924335
O O13 0.348846 0.636835 0.862323
O O14 0.500000 0.353643 0.834555
O O15 0.579724 0.500000 0.817038
O O16 0.604031 0.360365 0.754884
O O17 0.000000 0.105145 0.683323
O O18 0.118044 0.000000 0.682820
O O19 0.000000 0.144211 0.539777
O O20 0.088254 0.000000 0.546000
#
# Coordination Sequence:
#
# PCOD9369947 Si02
#       7
#    16  16  16  16  16  16  16
#     4  12  23  34  52  84 118 148 177 227 293 347
#     4   9  18  32  51  74 102 139 182 224 263 313
#     4  11  24  40  56  76 109 156 203 235 267 329
#     4  12  23  35  54  84 115 151 180 225 287 337
#     4   9  19  38  64  89 111 143 190 235 275 328
#     4   9  19  38  65  90 108 138 190 243 282 324
#     4   9  17  31  53  76 100 138 184 228 269 312
#
# _framework density 18.634401
#
# number of rings (size 3 to 8) (size 9 to 14) (size 15 to 20)
#    0.000    1.857    1.429    5.571    0.000    5.143 
#    0.000    0.000    0.000    0.857    0.000    4.000 
#    0.000    0.000    0.000    0.000    0.000    0.000 
#
# Total GULP energy -155947.470633 kJ/mol
# GULP energy per Si atom -5569.552523 kJ/mol
# Density = 1.859199 g / cm^3
# Si number density = 18.634401 Si / 1000 Ang^3
#
#
#
# Elastic Constant Matrix: (Units=GPa)
#
#
# Indices 1 2 3 4 5 6 
#
# 1 64.6405 24.8102 30.4752 0.0000 0.0000 0.0000
# 2 24.8102 86.0524 21.4505 0.0000 0.0000 0.0000
# 3 30.4752 21.4505 76.2714 0.0000 0.0000 0.0000
# 4 0.0000 0.0000 0.0000 21.9402 0.0000 0.0000
# 5 0.0000 0.0000 0.0000 0.0000 58.8995 0.0000
# 6 0.0000 0.0000 0.0000 0.0000 0.0000 3.8206
#
#
#
# Elastic Compliance Matrix: (Units=1/GPa)
#
#
# Indices 1 2 3 4 5 6 
#
# 1 0.020338 -0.004128 -0.006966 0.000000 0.000000 0.000000
# 2 -0.004128 0.013335 -0.002101 0.000000 0.000000 0.000000
# 3 -0.006966 -0.002101 0.016485 0.000000 0.000000 0.000000
# 4 0.000000 0.000000 0.000000 0.045578 0.000000 0.000000
# 5 0.000000 0.000000 0.000000 0.000000 0.016978 0.000000
# 6 0.000000 0.000000 0.000000 0.000000 0.000000 0.261738
#
#
# Mechanical properties :
#
#
# Convention : Reuss Voigt Hill
#
# Bulk Modulus (GPa) = 42.07020 42.27070 42.17045
# Shear Modulus (GPa) = 12.23197 26.94728 19.58963
#
# Velocity S-wave (km/s) = 2.56485 3.80689 3.24583
# Velocity P-wave (km/s) = 5.60329 6.48512 6.06026
#
# Compressibility (1/GPa) = 0.02376980
#
# Stress axis : x y z
#
# Youngs Moduli (GPa) = 49.16805 74.99303 60.66056
#
# Poissons Ratio (x) = 0.30953 0.42254
# Poissons Ratio (y) = 0.20294 0.12745
# Poissons Ratio (z) = 0.34249 0.15756
#
# Static dielectric constant tensor:
#      x y z
#    x 1.569550 0.000000 0.000000 
#    y 0.000000 1.717060 0.000000 
#    z 0.000000 0.000000 1.657140 
# 
# From -- ./inp_files/29516.got.cif
#   From: 2010.05.17/outbox.cif.g08.bks.cpg/sg42_15_cif.got.tgz:29516.got - 2010.06.03 19:03:34.
