data_PCOD9369181
_publ_section_title
;
Structure prediction by ZEFSAII (Michael W. Deem and Ramdas Pophale) SiO2 
 PCOD9369181
Probable space group: F M M 2
;
_chemical_formula_sum "Si O2"
_cell_formula_units_Z 88
_cell_length_a 20.675236
_cell_length_b 14.810392
_cell_length_c 13.890879
_cell_angle_alpha 90.000000
_cell_angle_beta 90.000000
_cell_angle_gamma 90.000000
_cell_volume 4253.503137
_symmetry_space_group_name_H-M "F M M 2"
_symmetry_group_IT_number 42
_symmetry_cell_setting 'orthorhombic'
loop_
_space_group_symop_operation_xyz
x,y,z
-x,-y,z
-x,y,z
x,-y,z
x,1/2+y,1/2+z
-x,1/2-y,1/2+z
-x,1/2+y,1/2+z
x,1/2-y,1/2+z
1/2+x,y,1/2+z
1/2-x,-y,1/2+z
1/2-x,y,1/2+z
1/2+x,-y,1/2+z
1/2+x,1/2+y,z
1/2-x,1/2-y,z
1/2-x,1/2+y,z
1/2+x,1/2-y,z
loop_
_atom_site_type_symbol
_atom_site_label
_atom_site_fract_x
_atom_site_fract_y
_atom_site_fract_z
Si Si1 0.750000 0.750000 0.475310
Si Si2 0.211151 0.099899 0.325375
Si Si3 0.570662 0.319085 0.866130
Si Si4 0.428540 0.635896 0.247175
Si Si5 0.837655 0.395090 0.210075
Si Si6 0.875383 0.770574 0.070859
O O1 0.782489 0.824129 0.406497
O O2 0.802954 0.702974 0.541403
O O3 0.137291 0.095877 0.290122
O O4 0.262954 0.122817 0.240974
O O5 0.229594 0.000000 0.361114
O O6 0.500000 0.363514 0.870514
O O7 0.567047 0.232866 0.797392
O O8 0.623385 0.379904 0.810932
O O9 0.588329 0.276322 0.969108
O O10 0.500000 0.594826 0.258269
O O11 0.411739 0.658330 0.137509
O O12 0.843917 0.500000 0.179642
O O13 0.865059 0.324258 0.129998
#
# Coordination Sequence:
#
# PCOD9369181 Si02
#       6
#     8  16  16  16  16  16
#     4  12  20  38  64  98 130 166 216 274 330 388
#     4  11  22  40  64  91 126 171 219 269 332 394
#     4  10  20  37  61  89 124 168 212 260 323 393
#     4  10  21  39  61  88 126 169 214 264 318 386
#     4  10  22  40  62  94 131 164 215 279 330 384
#     4  11  20  36  65  93 123 167 218 257 325 394
#
# _framework density 20.688828999999998
#
# number of rings (size 3 to 8) (size 9 to 14) (size 15 to 20)
#    0.000    1.455    3.636    2.727    0.000    2.182 
#    0.000    1.818    0.000    2.182    0.000    0.000 
#    0.000    0.000    0.000    0.000    0.000    0.000 
#
# Total GULP energy -122552.744924 kJ/mol
# GULP energy per Si atom -5570.579315 kJ/mol
# Density = 2.064174 g / cm^3
# Si number density = 20.688829 Si / 1000 Ang^3
#
#
#
# Elastic Constant Matrix: (Units=GPa)
#
#
# Indices 1 2 3 4 5 6 
#
# 1 157.0083 24.2633 37.0946 0.0000 0.0000 0.0000
# 2 24.2633 65.6855 18.2160 0.0000 0.0000 0.0000
# 3 37.0946 18.2160 102.7110 0.0000 0.0000 0.0000
# 4 0.0000 0.0000 0.0000 8.5814 0.0000 0.0000
# 5 0.0000 0.0000 0.0000 0.0000 19.5879 0.0000
# 6 0.0000 0.0000 0.0000 0.0000 0.0000 2.1406
#
#
#
# Elastic Compliance Matrix: (Units=1/GPa)
#
#
# Indices 1 2 3 4 5 6 
#
# 1 0.007215 -0.002043 -0.002243 0.000000 0.000000 0.000000
# 2 -0.002043 0.016590 -0.002204 0.000000 0.000000 0.000000
# 3 -0.002243 -0.002204 0.010937 0.000000 0.000000 0.000000
# 4 0.000000 0.000000 0.000000 0.116531 0.000000 0.000000
# 5 0.000000 0.000000 0.000000 0.000000 0.051052 0.000000
# 6 0.000000 0.000000 0.000000 0.000000 0.000000 0.467157
#
#
# Mechanical properties :
#
#
# Convention : Reuss Voigt Hill
#
# Bulk Modulus (GPa) = 45.95465 53.83918 49.89692
# Shear Modulus (GPa) = 7.24935 22.45071 14.85003
#
# Velocity S-wave (km/s) = 1.87393 3.29775 2.68205
# Velocity P-wave (km/s) = 5.19063 6.37025 5.81045
#
# Compressibility (1/GPa) = 0.02176058
#
# Stress axis : x y z
#
# Youngs Moduli (GPa) = 138.60392 60.27718 91.43099
#
# Poissons Ratio (x) = 0.12314 0.20511
# Poissons Ratio (y) = 0.28316 0.20156
# Poissons Ratio (z) = 0.31094 0.13288
#
# Static dielectric constant tensor:
#      x y z
#    x 1.817690 0.000000 0.000000 
#    y 0.000000 1.714680 0.000000 
#    z 0.000000 0.000000 1.742860 
# 
# From -- ./inp_files/9418.got.cif
#   From: 2010.05.17/outbox.cif.g08.bks.cpg/sg42_5_cif.got.tgz:9418.got - 2010.06.03 19:03:34.
