data_PCOD9369903
_publ_section_title
;
Structure prediction by ZEFSAII (Michael W. Deem and Ramdas Pophale) SiO2 
 PCOD9369903
Probable space group: F M M 2
;
_chemical_formula_sum "Si O2"
_cell_formula_units_Z 96
_cell_length_a 17.605339
_cell_length_b 11.938652
_cell_length_c 25.776117
_cell_angle_alpha 90.000000
_cell_angle_beta 90.000000
_cell_angle_gamma 90.000000
_cell_volume 5417.727779
_symmetry_space_group_name_H-M "F M M 2"
_symmetry_group_IT_number 42
_symmetry_cell_setting 'orthorhombic'
loop_
_space_group_symop_operation_xyz
x,y,z
-x,-y,z
-x,y,z
x,-y,z
x,1/2+y,1/2+z
-x,1/2-y,1/2+z
-x,1/2+y,1/2+z
x,1/2-y,1/2+z
1/2+x,y,1/2+z
1/2-x,-y,1/2+z
1/2-x,y,1/2+z
1/2+x,-y,1/2+z
1/2+x,1/2+y,z
1/2-x,1/2-y,z
1/2-x,1/2+y,z
1/2+x,1/2-y,z
loop_
_atom_site_type_symbol
_atom_site_label
_atom_site_fract_x
_atom_site_fract_y
_atom_site_fract_z
Si Si1 0.908770 0.867755 0.537480
Si Si2 0.660572 0.774092 0.137884
Si Si3 0.589579 0.366575 0.418117
Si Si4 0.588312 0.000000 0.308742
Si Si5 0.590845 0.871196 0.725638
Si Si6 0.160409 0.261103 0.322720
Si Si7 0.589178 0.500000 0.684050
O O1 0.867508 0.789809 0.578989
O O2 0.889749 0.840806 0.477759
O O3 0.000000 0.857732 0.543284
O O4 0.890407 0.000000 0.546538
O O5 0.750000 0.750000 0.140295
O O6 0.620147 0.677963 0.171386
O O7 0.632944 0.890145 0.164456
O O8 0.500000 0.341428 0.411438
O O9 0.598573 0.500000 0.411212
O O10 0.635888 0.302099 0.374872
O O11 0.631327 0.111784 0.326000
O O12 0.500000 0.000000 0.325788
O O13 0.588175 0.000000 0.246117
O O14 0.500000 0.865863 0.726437
O O15 0.621567 0.797088 0.772975
O O16 0.614947 0.000000 0.732453
O O17 0.250000 0.250000 0.315528
O O18 0.500000 0.500000 0.666359
#
# Coordination Sequence:
#
# PCOD9369903 Si02
#       7
#    16  16  16   8  16  16   8
#     4   9  18  36  64  90 111 152 210 250 284 350
#     4  12  24  35  61  90 125 152 191 254 305 346
#     4   9  19  38  64  88 114 154 204 248 290 355
#     4  11  24  40  62  89 118 162 210 244 291 362
#     4  11  24  40  60  85 119 161 199 236 292 367
#     4  12  25  37  61  88 125 155 194 253 306 353
#     4  11  22  40  64  85 114 164 212 242 285 360
#
# _framework density 17.719605999999999
#
# number of rings (size 3 to 8) (size 9 to 14) (size 15 to 20)
#    0.000    1.333    2.500    5.000    3.500    2.000 
#    0.000    0.000    1.833    0.000    0.000    0.000 
#    0.000    0.000    0.000    0.000    0.000    0.000 
#
# Total GULP energy -134084.919221 kJ/mol
# GULP energy per Si atom -5586.871634 kJ/mol
# Density = 1.767928 g / cm^3
# Si number density = 17.719606 Si / 1000 Ang^3
#
#
#
# Elastic Constant Matrix: (Units=GPa)
#
#
# Indices 1 2 3 4 5 6 
#
# 1 94.2546 50.2451 38.3337 0.0000 0.0000 0.0000
# 2 50.2451 85.8375 33.6943 0.0000 0.0000 0.0000
# 3 38.3337 33.6943 95.1480 0.0000 0.0000 0.0000
# 4 0.0000 0.0000 0.0000 26.7215 0.0000 0.0000
# 5 0.0000 0.0000 0.0000 0.0000 -107.8471 0.0000
# 6 0.0000 0.0000 0.0000 0.0000 0.0000 20.3176
#
#
#
# Elastic Compliance Matrix: (Units=1/GPa)
#
#
# Indices 1 2 3 4 5 6 
#
# 1 0.016497 -0.008186 -0.003748 0.000000 0.000000 0.000000
# 2 -0.008186 0.017592 -0.002932 0.000000 0.000000 0.000000
# 3 -0.003748 -0.002932 0.013058 0.000000 0.000000 0.000000
# 4 0.000000 0.000000 0.000000 0.037423 0.000000 0.000000
# 5 0.000000 0.000000 0.000000 0.000000 -0.009272 0.000000
# 6 0.000000 0.000000 0.000000 0.000000 0.000000 0.049218
#
#
# Mechanical properties :
#
#
# Convention : Reuss Voigt Hill
#
# Bulk Modulus (GPa) = 57.41525 57.75403 57.58464
# Shear Modulus (GPa) = 31.23957 -1.96380 14.63789
#
# Velocity S-wave (km/s) = 4.20336 -1.05388 2.87729
# Velocity P-wave (km/s) = 7.48532 5.58419 6.60353
#
# Compressibility (1/GPa) = 0.01741698
#
# Stress axis : x y z
#
# Youngs Moduli (GPa) = 60.61571 56.84311 76.58030
#
# Poissons Ratio (x) = 0.46529 0.28701
# Poissons Ratio (y) = 0.49618 0.22453
# Poissons Ratio (z) = 0.22718 0.16667
#
# Static dielectric constant tensor:
#      x y z
#    x 1.583640 0.000000 0.000000 
#    y 0.000000 1.595810 0.000000 
#    z 0.000000 0.000000 1.601320 
# 
# From -- ./inp_files/29857.got.cif
#   From: 2010.05.17/outbox.cif.g08.bks.cpg/sg42_15_cif.got.tgz:29857.got - 2010.06.03 19:03:34.
