data_PCOD9369754
_publ_section_title
;
Structure prediction by ZEFSAII (Michael W. Deem and Ramdas Pophale) SiO2 
 PCOD9369754
Probable space group: F M M 2
;
_chemical_formula_sum "Si O2"
_cell_formula_units_Z 116
_cell_length_a 17.948390
_cell_length_b 22.440532
_cell_length_c 14.496446
_cell_angle_alpha 90.000000
_cell_angle_beta 90.000000
_cell_angle_gamma 90.000000
_cell_volume 5838.754142
_symmetry_space_group_name_H-M "F M M 2"
_symmetry_group_IT_number 42
_symmetry_cell_setting 'orthorhombic'
loop_
_space_group_symop_operation_xyz
x,y,z
-x,-y,z
-x,y,z
x,-y,z
x,1/2+y,1/2+z
-x,1/2-y,1/2+z
-x,1/2+y,1/2+z
x,1/2-y,1/2+z
1/2+x,y,1/2+z
1/2-x,-y,1/2+z
1/2-x,y,1/2+z
1/2+x,-y,1/2+z
1/2+x,1/2+y,z
1/2-x,1/2-y,z
1/2-x,1/2+y,z
1/2+x,1/2-y,z
loop_
_atom_site_type_symbol
_atom_site_label
_atom_site_fract_x
_atom_site_fract_y
_atom_site_fract_z
Si Si1 0.000000 0.500000 0.458920
Si Si2 0.686721 0.134524 0.247558
Si Si3 0.665990 0.678571 0.331542
Si Si4 0.085241 0.236858 0.966159
Si Si5 0.125596 0.398974 0.429320
Si Si6 0.412796 0.430343 0.263773
Si Si7 0.705976 0.930065 0.605547
Si Si8 0.587028 0.258904 0.682061
O O1 0.064847 0.447666 0.456810
O O2 0.747695 0.171922 0.306706
O O3 0.651346 0.091261 0.323993
O O4 0.731377 0.102174 0.166211
O O5 0.626457 0.178913 0.205301
O O6 0.643137 0.719308 0.416766
O O7 0.629380 0.612918 0.334526
O O8 0.626533 0.709772 0.244422
O O9 0.096060 0.168803 0.934767
O O10 0.094911 0.241752 0.075550
O O11 0.000000 0.255242 0.943347
O O12 0.191527 0.404124 0.504479
O O13 0.500000 0.415187 0.255264
O O14 0.406826 0.500000 0.289363
O O15 0.369914 0.423595 0.166270
O O16 0.722329 0.000000 0.598503
O O17 0.500000 0.261875 0.704902
#
# Coordination Sequence:
#
# PCOD9369754 Si02
#       8
#     4  16  16  16  16  16  16  16
#     4  12  28  44  72 108 136 174 236 292 348 404
#     4  11  26  43  65  97 137 181 225 276 352 415
#     4  11  22  41  62  95 131 172 217 277 334 407
#     4  11  23  39  67  96 132 173 223 279 341 407
#     4  12  25  43  70  99 135 176 229 288 343 412
#     4   9  18  33  60  92 126 166 213 269 333 399
#     4  10  23  41  63  94 130 175 224 279 342 414
#     4  11  24  42  65  95 133 176 222 279 341 409
#
# _framework density 19.867251
#
# number of rings (size 3 to 8) (size 9 to 14) (size 15 to 20)
#    0.000    1.241    2.759    3.310    4.828    1.103 
#    0.000    0.000    0.000    0.000    0.000    0.000 
#    0.000    0.000    0.000    0.000    0.000    0.000 
#
# Total GULP energy -161876.426420 kJ/mol
# GULP energy per Si atom -5581.945739 kJ/mol
# Density = 1.982203 g / cm^3
# Si number density = 19.867251 Si / 1000 Ang^3
#
#
#
# Elastic Constant Matrix: (Units=GPa)
#
#
# Indices 1 2 3 4 5 6 
#
# 1 41.9532 8.6294 16.8662 0.0000 0.0000 0.0000
# 2 8.6294 52.2280 4.9131 0.0000 0.0000 0.0000
# 3 16.8662 4.9131 63.5240 0.0000 0.0000 0.0000
# 4 0.0000 0.0000 0.0000 18.0208 0.0000 0.0000
# 5 0.0000 0.0000 0.0000 0.0000 10.5881 0.0000
# 6 0.0000 0.0000 0.0000 0.0000 0.0000 44.0802
#
#
#
# Elastic Compliance Matrix: (Units=1/GPa)
#
#
# Indices 1 2 3 4 5 6 
#
# 1 0.027442 -0.003877 -0.006986 0.000000 0.000000 0.000000
# 2 -0.003877 0.019835 -0.000505 0.000000 0.000000 0.000000
# 3 -0.006986 -0.000505 0.017636 0.000000 0.000000 0.000000
# 4 0.000000 0.000000 0.000000 0.055492 0.000000 0.000000
# 5 0.000000 0.000000 0.000000 0.000000 0.094446 0.000000
# 6 0.000000 0.000000 0.000000 0.000000 0.000000 0.022686
#
#
# Mechanical properties :
#
#
# Convention : Reuss Voigt Hill
#
# Bulk Modulus (GPa) = 23.70950 24.28029 23.99490
# Shear Modulus (GPa) = 18.22614 23.02425 20.62519
#
# Velocity S-wave (km/s) = 3.03214 3.40796 3.22553
# Velocity P-wave (km/s) = 4.92122 5.26625 5.09665
#
# Compressibility (1/GPa) = 0.04217718
#
# Stress axis : x y z
#
# Youngs Moduli (GPa) = 36.44024 50.41632 56.70209
#
# Poissons Ratio (x) = 0.19546 0.39614
# Poissons Ratio (y) = 0.14128 0.02862
# Poissons Ratio (z) = 0.25458 0.02544
#
# Static dielectric constant tensor:
#      x y z
#    x 1.700810 0.000000 0.000000 
#    y 0.000000 1.706060 0.000000 
#    z 0.000000 0.000000 1.699010 
# 
# From -- ./inp_files/15392.got.cif
#   From: 2010.05.17/outbox.cif.g08.bks.cpg/sg42_8_cif.got.tgz:15392.got - 2010.06.03 19:03:34.
