data_PCOD9369027
_publ_section_title
;
Structure prediction by ZEFSAII (Michael W. Deem and Ramdas Pophale) SiO2 
 PCOD9369027
Probable space group: F M M 2
;
_chemical_formula_sum "Si O2"
_cell_formula_units_Z 120
_cell_length_a 14.789496
_cell_length_b 19.627311
_cell_length_c 19.712484
_cell_angle_alpha 90.000000
_cell_angle_beta 90.000000
_cell_angle_gamma 90.000000
_cell_volume 5722.101170
_symmetry_space_group_name_H-M "F M M 2"
_symmetry_group_IT_number 42
_symmetry_cell_setting 'orthorhombic'
loop_
_space_group_symop_operation_xyz
x,y,z
-x,-y,z
-x,y,z
x,-y,z
x,1/2+y,1/2+z
-x,1/2-y,1/2+z
-x,1/2+y,1/2+z
x,1/2-y,1/2+z
1/2+x,y,1/2+z
1/2-x,-y,1/2+z
1/2-x,y,1/2+z
1/2+x,-y,1/2+z
1/2+x,1/2+y,z
1/2-x,1/2-y,z
1/2-x,1/2+y,z
1/2+x,1/2-y,z
loop_
_atom_site_type_symbol
_atom_site_label
_atom_site_fract_x
_atom_site_fract_y
_atom_site_fract_z
Si Si1 0.238962 0.364460 0.307160
Si Si2 0.249054 0.919999 0.658507
Si Si3 0.000000 0.323544 0.960702
Si Si4 0.106307 0.194971 0.129104
Si Si5 0.682324 0.925176 0.445688
Si Si6 0.138859 0.423169 0.035737
Si Si7 0.648807 0.275887 0.978329
Si Si8 0.608008 0.759726 0.780412
O O1 0.232572 0.405304 0.237149
O O2 0.224656 0.412083 0.371598
O O3 0.335580 0.325427 0.306653
O O4 0.161092 0.306463 0.306734
O O5 0.331238 0.871655 0.635456
O O6 0.162041 0.902071 0.612536
O O7 0.268185 0.000000 0.647471
O O8 0.077333 0.373144 0.993993
O O9 0.078795 0.269626 0.938389
O O10 0.130397 0.232751 0.059127
O O11 0.122121 0.237553 0.197984
O O12 0.000000 0.177959 0.126695
O O13 0.764223 0.925084 0.498970
O O14 0.631183 0.855387 0.463180
O O15 0.637775 0.000000 0.448425
O O16 0.103105 0.500000 0.035783
O O17 0.750000 0.250000 0.963567
O O18 0.500000 0.762593 0.791354
#
# Coordination Sequence:
#
# PCOD9369027 Si02
#       8
#    16  16   8  16  16  16  16  16
#     4  10  22  39  64  87 122 169 210 255 319 378
#     4  10  20  38  63  88 119 165 214 262 314 380
#     4  12  23  38  65  98 126 160 212 266 321 378
#     4  10  20  35  58  93 124 157 202 260 321 371
#     4  11  24  45  64  90 132 173 214 263 316 380
#     4  10  22  40  65  95 129 165 208 266 324 382
#     4  12  24  38  63  95 127 162 212 261 311 379
#     4   9  21  37  61  92 125 154 204 267 316 370
#
# _framework density 20.971318
#
# number of rings (size 3 to 8) (size 9 to 14) (size 15 to 20)
#    0.000    1.600    3.333    0.600    7.467    0.267 
#    4.800    0.333    0.000    1.600    0.000    0.000 
#    0.000    0.000    0.000    0.000    0.000    0.000 
#
# Total GULP energy -167134.336863 kJ/mol
# GULP energy per Si atom -5571.144562 kJ/mol
# Density = 2.092359 g / cm^3
# Si number density = 20.971318 Si / 1000 Ang^3
#
#
#
# Elastic Constant Matrix: (Units=GPa)
#
#
# Indices 1 2 3 4 5 6 
#
# 1 90.6894 29.9035 -3.3311 0.0000 0.0000 0.0000
# 2 29.9035 105.5101 15.0967 0.0000 0.0000 0.0000
# 3 -3.3311 15.0967 87.7830 0.0000 0.0000 0.0000
# 4 0.0000 0.0000 0.0000 30.4123 0.0000 0.0000
# 5 0.0000 0.0000 0.0000 0.0000 14.9425 0.0000
# 6 0.0000 0.0000 0.0000 0.0000 0.0000 15.2781
#
#
#
# Elastic Compliance Matrix: (Units=1/GPa)
#
#
# Indices 1 2 3 4 5 6 
#
# 1 0.012264 -0.003632 0.001090 0.000000 0.000000 0.000000
# 2 -0.003632 0.010792 -0.001994 0.000000 0.000000 0.000000
# 3 0.001090 -0.001994 0.011776 0.000000 0.000000 0.000000
# 4 0.000000 0.000000 0.000000 0.032881 0.000000 0.000000
# 5 0.000000 0.000000 0.000000 0.000000 0.066923 0.000000
# 6 0.000000 0.000000 0.000000 0.000000 0.000000 0.065453
#
#
# Mechanical properties :
#
#
# Convention : Reuss Voigt Hill
#
# Bulk Modulus (GPa) = 38.81816 40.81339 39.81578
# Shear Modulus (GPa) = 22.96225 28.28083 25.62154
#
# Velocity S-wave (km/s) = 3.31257 3.67624 3.49913
# Velocity P-wave (km/s) = 5.76031 6.12564 5.94578
#
# Compressibility (1/GPa) = 0.02576114
#
# Stress axis : x y z
#
# Youngs Moduli (GPa) = 81.53787 92.65785 84.91855
#
# Poissons Ratio (x) = 0.33652 -0.09256
# Poissons Ratio (y) = 0.29613 0.16932
# Poissons Ratio (z) = -0.08888 0.18475
#
# Static dielectric constant tensor:
#      x y z
#    x 1.720050 0.000000 0.000000 
#    y 0.000000 1.777100 0.000000 
#    z 0.000000 0.000000 1.817180 
# 
# From -- ./inp_files/25452.got.cif
#   From: 2010.05.17/outbox.cif.g08.bks.cpg/sg42_13_cif.got.tgz:25452.got - 2010.06.03 19:03:34.
