data_PCOD9369164
_publ_section_title
;
Structure prediction by ZEFSAII (Michael W. Deem and Ramdas Pophale) SiO2 
 PCOD9369164
Probable space group: F M M 2
;
_chemical_formula_sum "Si O2"
_cell_formula_units_Z 80
_cell_length_a 7.692318
_cell_length_b 23.489925
_cell_length_c 21.019538
_cell_angle_alpha 90.000000
_cell_angle_beta 90.000000
_cell_angle_gamma 90.000000
_cell_volume 3798.061791
_symmetry_space_group_name_H-M "F M M 2"
_symmetry_group_IT_number 42
_symmetry_cell_setting 'orthorhombic'
loop_
_space_group_symop_operation_xyz
x,y,z
-x,-y,z
-x,y,z
x,-y,z
x,1/2+y,1/2+z
-x,1/2-y,1/2+z
-x,1/2+y,1/2+z
x,1/2-y,1/2+z
1/2+x,y,1/2+z
1/2-x,-y,1/2+z
1/2-x,y,1/2+z
1/2+x,-y,1/2+z
1/2+x,1/2+y,z
1/2-x,1/2-y,z
1/2-x,1/2+y,z
1/2+x,1/2-y,z
loop_
_atom_site_type_symbol
_atom_site_label
_atom_site_fract_x
_atom_site_fract_y
_atom_site_fract_z
Si Si1 0.707797 0.184135 0.330720
Si Si2 0.789968 0.183220 0.574538
Si Si3 0.701957 0.115483 0.952885
Si Si4 0.207471 0.500000 0.740305
Si Si5 0.793353 0.124623 0.703200
Si Si6 0.286071 0.000000 0.888059
O O1 0.500000 0.176615 0.335460
O O2 0.750000 0.250000 0.322582
O O3 0.787498 0.159777 0.395046
O O4 0.775838 0.150027 0.269369
O O5 0.750000 0.250000 0.568357
O O6 0.722611 0.145592 0.515392
O O7 0.724685 0.156826 0.641021
O O8 0.000000 0.178985 0.574099
O O9 0.500000 0.103348 0.967217
O O10 0.774545 0.056399 0.925115
O O11 0.264613 0.557243 0.704974
O O12 0.271162 0.500000 0.814052
O O13 0.000000 0.500000 0.742906
O O14 0.000000 0.135016 0.703978
O O15 0.500000 0.000000 0.886396
#
# Coordination Sequence:
#
# PCOD9369164 Si02
#       6
#    16  16  16   8  16   8
#     4  11  22  35  55  82 113 149 192 239 287 338
#     4  10  22  39  60  84 116 155 192 236 287 340
#     4  10  20  37  60  85 114 150 192 236 285 339
#     4  11  21  36  61  89 117 150 190 239 287 337
#     4  10  22  39  58  84 116 152 191 235 288 341
#     4   9  18  34  57  85 115 146 186 231 281 337
#
# _framework density 21.063376000000002
#
# number of rings (size 3 to 8) (size 9 to 14) (size 15 to 20)
#    0.000    1.800    2.000    2.100    0.000    4.800 
#    0.000    3.500    0.000    0.000    0.000    0.000 
#    0.000    0.000    0.000    0.000    0.000    0.000 
#
# Total GULP energy -111740.784610 kJ/mol
# GULP energy per Si atom -5587.039230 kJ/mol
# Density = 2.101543 g / cm^3
# Si number density = 21.063376 Si / 1000 Ang^3
#
#
#
# Elastic Constant Matrix: (Units=GPa)
#
#
# Indices 1 2 3 4 5 6 
#
# 1 36.7964 -21.1607 -1.1717 0.0000 0.0000 0.0000
# 2 -21.1607 105.1239 21.7164 0.0000 0.0000 0.0000
# 3 -1.1717 21.7164 115.3461 0.0000 0.0000 0.0000
# 4 0.0000 0.0000 0.0000 40.7948 0.0000 0.0000
# 5 0.0000 0.0000 0.0000 0.0000 7.3094 0.0000
# 6 0.0000 0.0000 0.0000 0.0000 0.0000 1.2741
#
#
#
# Elastic Compliance Matrix: (Units=1/GPa)
#
#
# Indices 1 2 3 4 5 6 
#
# 1 0.030822 0.006388 -0.000890 0.000000 0.000000 0.000000
# 2 0.006388 0.011221 -0.002048 0.000000 0.000000 0.000000
# 3 -0.000890 -0.002048 0.009046 0.000000 0.000000 0.000000
# 4 0.000000 0.000000 0.000000 0.024513 0.000000 0.000000
# 5 0.000000 0.000000 0.000000 0.000000 0.136809 0.000000
# 6 0.000000 0.000000 0.000000 0.000000 0.000000 0.784892
#
#
# Mechanical properties :
#
#
# Convention : Reuss Voigt Hill
#
# Bulk Modulus (GPa) = 17.24419 28.44828 22.84624
# Shear Modulus (GPa) = 4.95181 27.06781 16.00981
#
# Velocity S-wave (km/s) = 1.53493 3.58867 2.75994
# Velocity P-wave (km/s) = 3.36837 5.54137 4.58545
#
# Compressibility (1/GPa) = 0.05799054
#
# Stress axis : x y z
#
# Youngs Moduli (GPa) = 32.44455 89.11492 110.54531
#
# Poissons Ratio (x) = -0.56926 0.09834
# Poissons Ratio (y) = -0.20725 0.22637
# Poissons Ratio (z) = 0.02886 0.18249
#
# Static dielectric constant tensor:
#      x y z
#    x 1.795220 0.000000 0.000000 
#    y 0.000000 1.716420 0.000000 
#    z 0.000000 0.000000 1.747140 
# 
# From -- ./inp_files/23473.got.cif
#   From: 2010.05.17/outbox.cif.g08.bks.cpg/sg42_12_cif.got.tgz:23473.got - 2010.06.03 19:03:34.
