data_PCOD9369118
_publ_section_title
;
Structure prediction by ZEFSAII (Michael W. Deem and Ramdas Pophale) SiO2 
 PCOD9369118
Probable space group: F M M 2
;
_chemical_formula_sum "Si O2"
_cell_formula_units_Z 96
_cell_length_a 25.785251
_cell_length_b 8.726698
_cell_length_c 24.147934
_cell_angle_alpha 90.000000
_cell_angle_beta 90.000000
_cell_angle_gamma 90.000000
_cell_volume 5433.770483
_symmetry_space_group_name_H-M "F M M 2"
_symmetry_group_IT_number 42
_symmetry_cell_setting 'orthorhombic'
loop_
_space_group_symop_operation_xyz
x,y,z
-x,-y,z
-x,y,z
x,-y,z
x,1/2+y,1/2+z
-x,1/2-y,1/2+z
-x,1/2+y,1/2+z
x,1/2-y,1/2+z
1/2+x,y,1/2+z
1/2-x,-y,1/2+z
1/2-x,y,1/2+z
1/2+x,-y,1/2+z
1/2+x,1/2+y,z
1/2-x,1/2-y,z
1/2-x,1/2+y,z
1/2+x,1/2-y,z
loop_
_atom_site_type_symbol
_atom_site_label
_atom_site_fract_x
_atom_site_fract_y
_atom_site_fract_z
Si Si1 0.192806 0.183157 0.125000
Si Si2 0.398423 0.183524 0.197275
Si Si3 0.438826 0.815194 0.810671
Si Si4 0.905260 0.315378 0.933373
Si Si5 0.000000 0.318056 0.503315
Si Si6 0.693231 0.684053 0.504684
Si Si7 0.500000 0.315896 0.625932
O O1 0.250000 0.250000 0.136535
O O2 0.151550 0.239132 0.169938
O O3 0.177376 0.248305 0.064471
O O4 0.195108 0.000000 0.122685
O O5 0.410033 0.238773 0.259253
O O6 0.448855 0.226053 0.160605
O O7 0.392799 0.000000 0.195691
O O8 0.500000 0.774379 0.809936
O O9 0.414761 0.769887 0.869831
O O10 0.435430 0.000000 0.805699
O O11 0.910559 0.500000 0.935905
O O12 0.849480 0.275421 0.958859
O O13 0.949761 0.244546 0.971437
O O14 0.000000 0.500000 0.502321
O O15 0.000000 0.259603 0.566091
O O16 0.696154 0.500000 0.509413
O O17 0.750000 0.750000 0.491823
O O18 0.500000 0.500000 0.619135
#
# Coordination Sequence:
#
# PCOD9369118 Si02
#       7
#    16  16  16  16   8  16   8
#     4  11  22  38  60  86 116 151 191 236 288 343
#     4  11  22  38  58  84 115 150 191 236 286 340
#     4  10  20  37  60  82 110 153 197 236 281 337
#     4  10  21  39  59  80 112 155 193 228 282 345
#     4  12  24  33  52  85 115 142 182 238 289 334
#     4  10  20  36  60  86 115 151 190 233 285 341
#     4  10  22  37  54  77 113 152 184 224 283 348
#
# _framework density 17.667290999999999
#
# number of rings (size 3 to 8) (size 9 to 14) (size 15 to 20)
#    0.000    1.500    1.667    5.250    0.000    7.333 
#    0.000    0.833    0.000    2.000    0.000    0.000 
#    0.000    0.000    0.000    0.000    0.000    0.000 
#
# Total GULP energy -134131.167191 kJ/mol
# GULP energy per Si atom -5588.798633 kJ/mol
# Density = 1.762708 g / cm^3
# Si number density = 17.667291 Si / 1000 Ang^3
#
#
#
# Elastic Constant Matrix: (Units=GPa)
#
#
# Indices 1 2 3 4 5 6 
#
# 1 111.1148 50.9473 94.1285 0.0000 0.0000 0.0000
# 2 50.9473 60.0954 57.7810 0.0000 0.0000 0.0000
# 3 94.1285 57.7810 171.4551 0.0000 0.0000 0.0000
# 4 0.0000 0.0000 0.0000 28.5085 0.0000 0.0000
# 5 0.0000 0.0000 0.0000 0.0000 17.1144 0.0000
# 6 0.0000 0.0000 0.0000 0.0000 0.0000 11.4132
#
#
#
# Elastic Compliance Matrix: (Units=1/GPa)
#
#
# Indices 1 2 3 4 5 6 
#
# 1 0.019865 -0.009402 -0.007738 0.000000 0.000000 0.000000
# 2 -0.009402 0.029066 -0.004634 0.000000 0.000000 0.000000
# 3 -0.007738 -0.004634 0.011642 0.000000 0.000000 0.000000
# 4 0.000000 0.000000 0.000000 0.035077 0.000000 0.000000
# 5 0.000000 0.000000 0.000000 0.000000 0.058430 0.000000
# 6 0.000000 0.000000 0.000000 0.000000 0.000000 0.087618
#
#
# Mechanical properties :
#
#
# Convention : Reuss Voigt Hill
#
# Bulk Modulus (GPa) = 58.72998 83.15322 70.94160
# Shear Modulus (GPa) = 17.18682 20.72779 18.95731
#
# Velocity S-wave (km/s) = 3.12237 3.42896 3.27925
# Velocity P-wave (km/s) = 6.80538 7.92751 7.38778
#
# Compressibility (1/GPa) = 0.01702708
#
# Stress axis : x y z
#
# Youngs Moduli (GPa) = 50.33953 34.40441 85.89609
#
# Poissons Ratio (x) = 0.32345 0.66462
# Poissons Ratio (y) = 0.47327 0.39804
# Poissons Ratio (z) = 0.38950 0.15943
#
# Static dielectric constant tensor:
#      x y z
#    x 1.585260 0.000000 0.000000 
#    y 0.000000 1.592640 0.000000 
#    z 0.000000 0.000000 1.576740 
# 
# From -- ./inp_files/28102.got.cif
#   From: 2010.05.17/outbox.cif.g08.bks.cpg/sg42_15_cif.got.tgz:28102.got - 2010.06.03 19:03:34.
