data_PCOD9369833
_publ_section_title
;
Structure prediction by ZEFSAII (Michael W. Deem and Ramdas Pophale) SiO2 
 PCOD9369833
Probable space group: F M M 2
;
_chemical_formula_sum "Si O2"
_cell_formula_units_Z 80
_cell_length_a 15.452758
_cell_length_b 11.930911
_cell_length_c 23.528538
_cell_angle_alpha 90.000000
_cell_angle_beta 90.000000
_cell_angle_gamma 90.000000
_cell_volume 4337.850212
_symmetry_space_group_name_H-M "F M M 2"
_symmetry_group_IT_number 42
_symmetry_cell_setting 'orthorhombic'
loop_
_space_group_symop_operation_xyz
x,y,z
-x,-y,z
-x,y,z
x,-y,z
x,1/2+y,1/2+z
-x,1/2-y,1/2+z
-x,1/2+y,1/2+z
x,1/2-y,1/2+z
1/2+x,y,1/2+z
1/2-x,-y,1/2+z
1/2-x,y,1/2+z
1/2+x,-y,1/2+z
1/2+x,1/2+y,z
1/2-x,1/2-y,z
1/2-x,1/2+y,z
1/2+x,1/2-y,z
loop_
_atom_site_type_symbol
_atom_site_label
_atom_site_fract_x
_atom_site_fract_y
_atom_site_fract_z
Si Si1 0.347518 0.776131 0.524690
Si Si2 0.847252 0.754694 0.802077
Si Si3 0.396298 0.868567 0.916884
Si Si4 0.397486 0.500000 0.830061
Si Si5 0.000000 0.136352 0.101706
Si Si6 0.500000 0.131476 0.737110
Si Si7 0.606623 0.500000 0.959554
O O1 0.250000 0.750000 0.544185
O O2 0.373770 0.680827 0.478869
O O3 0.416988 0.801409 0.574130
O O4 0.355185 0.890626 0.488822
O O5 0.750000 0.750000 0.780835
O O6 0.853523 0.702976 0.866038
O O7 0.870596 0.884909 0.802107
O O8 0.915871 0.687191 0.764903
O O9 0.500000 0.856979 0.909196
O O10 0.373760 0.000000 0.912469
O O11 0.500000 0.500000 0.833422
O O12 0.365148 0.500000 0.894554
O O13 0.000000 0.145624 0.169389
O O14 0.000000 0.000000 0.088735
O O15 0.500000 0.000000 0.750929
O O16 0.500000 0.500000 0.962150
#
# Coordination Sequence:
#
# PCOD9369833 Si02
#       7
#    16  16  16   8   8   8   8
#     4  12  23  37  66  94 128 161 207 262 312 374
#     4  12  25  40  66  97 131 166 210 264 315 384
#     4  11  22  37  60  95 136 172 200 247 322 388
#     4  11  22  38  64  94 130 174 208 251 320 372
#     4  11  24  47  72  88 115 169 225 266 308 372
#     4  11  26  48  69  89 122 169 218 269 323 377
#     4  11  20  38  62  92 128 168 210 245 302 384
#
# _framework density 18.442315000000001
#
# number of rings (size 3 to 8) (size 9 to 14) (size 15 to 20)
#    0.000    0.600    7.000    1.200    4.200    0.800 
#    0.000    0.000    4.400    0.000    0.000    0.000 
#    0.000    0.000    0.000    0.000    0.000    0.000 
#
# Total GULP energy -111749.527391 kJ/mol
# GULP energy per Si atom -5587.476370 kJ/mol
# Density = 1.840034 g / cm^3
# Si number density = 18.442315 Si / 1000 Ang^3
#
#
#
# Elastic Constant Matrix: (Units=GPa)
#
#
# Indices 1 2 3 4 5 6 
#
# 1 151.8521 61.8230 53.4782 0.0000 0.0000 0.0000
# 2 61.8230 149.4058 48.5136 0.0000 0.0000 0.0000
# 3 53.4782 48.5136 95.5515 0.0000 0.0000 0.0000
# 4 0.0000 0.0000 0.0000 31.7228 0.0000 0.0000
# 5 0.0000 0.0000 0.0000 0.0000 -4.9675 0.0000
# 6 0.0000 0.0000 0.0000 0.0000 0.0000 7.7743
#
#
#
# Elastic Compliance Matrix: (Units=1/GPa)
#
#
# Indices 1 2 3 4 5 6 
#
# 1 0.008906 -0.002475 -0.003728 0.000000 0.000000 0.000000
# 2 -0.002475 0.008702 -0.003033 0.000000 0.000000 0.000000
# 3 -0.003728 -0.003033 0.014092 0.000000 0.000000 0.000000
# 4 0.000000 0.000000 0.000000 0.031523 0.000000 0.000000
# 5 0.000000 0.000000 0.000000 0.000000 -0.201309 0.000000
# 6 0.000000 0.000000 0.000000 0.000000 0.000000 0.128628
#
#
# Mechanical properties :
#
#
# Convention : Reuss Voigt Hill
#
# Bulk Modulus (GPa) = 75.59571 80.49323 78.04447
# Shear Modulus (GPa) = 372.48031 22.43889 197.45960
#
# Velocity S-wave (km/s) = 14.22705 3.49192 10.35863
# Velocity P-wave (km/s) = 17.63400 7.74588 13.61904
#
# Compressibility (1/GPa) = 0.01322826
#
# Stress axis : x y z
#
# Youngs Moduli (GPa) = 112.28749 114.91487 70.96200
#
# Poissons Ratio (x) = 0.28437 0.26454
# Poissons Ratio (y) = 0.27787 0.21525
# Poissons Ratio (z) = 0.41860 0.34857
#
# Static dielectric constant tensor:
#      x y z
#    x 1.637230 0.000000 0.000000 
#    y 0.000000 1.616590 0.000000 
#    z 0.000000 0.000000 1.627820 
# 
# From -- ./inp_files/28672.got.cif
#   From: 2010.05.17/outbox.cif.g08.bks.cpg/sg42_15_cif.got.tgz:28672.got - 2010.06.03 19:03:34.
