data_PCOD9369309
_publ_section_title
;
Structure prediction by ZEFSAII (Michael W. Deem and Ramdas Pophale) SiO2 
 PCOD9369309
Probable space group: F M M 2
;
_chemical_formula_sum "Si O2"
_cell_formula_units_Z 88
_cell_length_a 21.755702
_cell_length_b 14.974361
_cell_length_c 11.762937
_cell_angle_alpha 90.000000
_cell_angle_beta 90.000000
_cell_angle_gamma 90.000000
_cell_volume 3832.102979
_symmetry_space_group_name_H-M "F M M 2"
_symmetry_group_IT_number 42
_symmetry_cell_setting 'orthorhombic'
loop_
_space_group_symop_operation_xyz
x,y,z
-x,-y,z
-x,y,z
x,-y,z
x,1/2+y,1/2+z
-x,1/2-y,1/2+z
-x,1/2+y,1/2+z
x,1/2-y,1/2+z
1/2+x,y,1/2+z
1/2-x,-y,1/2+z
1/2-x,y,1/2+z
1/2+x,-y,1/2+z
1/2+x,1/2+y,z
1/2-x,1/2-y,z
1/2-x,1/2+y,z
1/2+x,1/2-y,z
loop_
_atom_site_type_symbol
_atom_site_label
_atom_site_fract_x
_atom_site_fract_y
_atom_site_fract_z
Si Si1 0.572362 0.708878 0.209350
Si Si2 0.642565 0.400090 0.023484
Si Si3 0.245697 0.000000 0.163977
Si Si4 0.225788 0.152489 0.825086
Si Si5 0.072198 0.597882 0.132305
Si Si6 0.142092 0.099425 0.395752
O O1 0.500000 0.693901 0.222551
O O2 0.595999 0.660635 0.094659
O O3 0.584787 0.814135 0.203469
O O4 0.608447 0.666733 0.313635
O O5 0.618055 0.500000 0.993122
O O6 0.670755 0.349466 0.915383
O O7 0.699554 0.423619 0.107254
O O8 0.284669 0.919948 0.227277
O O9 0.250000 0.250000 0.787951
O O10 0.285152 0.112935 0.893355
O O11 0.078827 0.500000 0.186022
O O12 0.000000 0.604800 0.096386
O O13 0.114190 0.601340 0.020426
O O14 0.132040 0.000000 0.346412
#
# Coordination Sequence:
#
# PCOD9369309 Si02
#       6
#    16  16   8  16  16  16
#     4  11  21  37  65  96 123 156 203 256 310 362
#     4  10  21  39  61  88 128 159 199 257 306 361
#     4  10  20  44  57  88 125 164 210 250 304 366
#     4  12  22  38  63  88 126 165 204 255 307 364
#     4   9  20  37  58  89 126 160 203 253 301 361
#     4  11  20  40  63  89 118 162 213 255 294 354
#
# _framework density 22.963892000000001
#
# number of rings (size 3 to 8) (size 9 to 14) (size 15 to 20)
#    0.545    0.909    3.636    2.182    0.000    2.909 
#    3.273    0.000    0.000    2.182    0.000    5.091 
#    0.000    1.455    0.000    0.000    0.000    0.000 
#
# Total GULP energy -122556.813912 kJ/mol
# GULP energy per Si atom -5570.764269 kJ/mol
# Density = 2.291162 g / cm^3
# Si number density = 22.963892 Si / 1000 Ang^3
#
#
#
# Elastic Constant Matrix: (Units=GPa)
#
#
# Indices 1 2 3 4 5 6 
#
# 1 87.2321 35.1815 39.7387 0.0000 0.0000 0.0000
# 2 35.1815 161.8344 33.6179 0.0000 0.0000 0.0000
# 3 39.7387 33.6179 45.9168 0.0000 0.0000 0.0000
# 4 0.0000 0.0000 0.0000 24.9989 0.0000 0.0000
# 5 0.0000 0.0000 0.0000 0.0000 13.2446 0.0000
# 6 0.0000 0.0000 0.0000 0.0000 0.0000 33.0654
#
#
#
# Elastic Compliance Matrix: (Units=1/GPa)
#
#
# Indices 1 2 3 4 5 6 
#
# 1 0.019022 -0.000844 -0.015845 0.000000 0.000000 0.000000
# 2 -0.000844 0.007325 -0.004633 0.000000 0.000000 0.000000
# 3 -0.015845 -0.004633 0.038883 0.000000 0.000000 0.000000
# 4 0.000000 0.000000 0.000000 0.040002 0.000000 0.000000
# 5 0.000000 0.000000 0.000000 0.000000 0.075502 0.000000
# 6 0.000000 0.000000 0.000000 0.000000 0.000000 0.030243
#
#
# Mechanical properties :
#
#
# Convention : Reuss Voigt Hill
#
# Bulk Modulus (GPa) = 44.27211 56.89549 50.58380
# Shear Modulus (GPa) = 19.14613 26.69147 22.91880
#
# Velocity S-wave (km/s) = 2.89060 3.41299 3.16260
# Velocity P-wave (km/s) = 5.51921 6.35304 5.95075
#
# Compressibility (1/GPa) = 0.02258759
#
# Stress axis : x y z
#
# Youngs Moduli (GPa) = 52.57029 136.52005 25.71801
#
# Poissons Ratio (x) = 0.11519 0.40750
# Poissons Ratio (y) = 0.04436 0.11914
# Poissons Ratio (z) = 0.83297 0.63245
#
# Static dielectric constant tensor:
#      x y z
#    x 1.859400 0.000000 0.000000 
#    y 0.000000 1.877830 0.000000 
#    z 0.000000 0.000000 1.867050 
# 
# From -- ./inp_files/16474.got.cif
#   From: 2010.05.17/outbox.cif.g08.bks.cpg/sg42_9_cif.got.tgz:16474.got - 2010.06.03 19:03:34.
