data_PCOD9369635
_publ_section_title
;
Structure prediction by ZEFSAII (Michael W. Deem and Ramdas Pophale) SiO2 
 PCOD9369635
Probable space group: F M M 2
;
_chemical_formula_sum "Si O2"
_cell_formula_units_Z 100
_cell_length_a 30.537495
_cell_length_b 7.584085
_cell_length_c 20.605207
_cell_angle_alpha 90.000000
_cell_angle_beta 90.000000
_cell_angle_gamma 90.000000
_cell_volume 4772.144466
_symmetry_space_group_name_H-M "F M M 2"
_symmetry_group_IT_number 42
_symmetry_cell_setting 'orthorhombic'
loop_
_space_group_symop_operation_xyz
x,y,z
-x,-y,z
-x,y,z
x,-y,z
x,1/2+y,1/2+z
-x,1/2-y,1/2+z
-x,1/2+y,1/2+z
x,1/2-y,1/2+z
1/2+x,y,1/2+z
1/2-x,-y,1/2+z
1/2-x,y,1/2+z
1/2+x,-y,1/2+z
1/2+x,1/2+y,z
1/2-x,1/2-y,z
1/2-x,1/2+y,z
1/2+x,1/2-y,z
loop_
_atom_site_type_symbol
_atom_site_label
_atom_site_fract_x
_atom_site_fract_y
_atom_site_fract_z
Si Si1 0.565932 0.702852 0.371350
Si Si2 0.199369 0.288328 0.547015
Si Si3 0.162248 0.704094 0.411350
Si Si4 0.361637 0.216020 0.664031
Si Si5 0.549009 0.713788 0.220267
Si Si6 0.298473 0.790832 0.778540
Si Si7 0.000000 0.500000 0.415539
O O1 0.550854 0.500000 0.377429
O O2 0.616675 0.707993 0.391289
O O3 0.560280 0.755187 0.295278
O O4 0.537966 0.843907 0.410920
O O5 0.196168 0.500000 0.546475
O O6 0.250000 0.250000 0.561741
O O7 0.185146 0.222797 0.475877
O O8 0.165247 0.223941 0.601308
O O9 0.151735 0.500000 0.423599
O O10 0.193969 0.714041 0.349584
O O11 0.411718 0.273822 0.673812
O O12 0.334560 0.272203 0.727573
O O13 0.361687 0.000000 0.663228
O O14 0.500000 0.778048 0.205599
O O15 0.548161 0.500000 0.216628
O O16 0.250000 0.750000 0.754005
O O17 0.303486 0.000000 0.784368
#
# Coordination Sequence:
#
# PCOD9369635 Si02
#       7
#    16  16  16  16  16  16   4
#     4  11  21  36  60  92 126 165 204 258 311 370
#     4  10  22  39  60  81 117 160 207 254 308 377
#     4  11  22  37  57  85 121 160 204 253 312 375
#     4   9  18  34  56  83 117 151 199 255 307 370
#     4   9  16  30  57  87 116 153 200 244 307 374
#     4  11  21  34  55  84 116 154 197 255 317 376
#     4  12  22  36  60  94 132 160 214 248 314 374
#
# _framework density 20.954939
#
# number of rings (size 3 to 8) (size 9 to 14) (size 15 to 20)
#    0.000    1.760    3.200    2.160    0.000    2.560 
#    0.000    0.800    3.520    0.000    0.000    0.000 
#    0.000    0.000    0.000    0.000    0.000    0.000 
#
# Total GULP energy -139387.997987 kJ/mol
# GULP energy per Si atom -5575.519919 kJ/mol
# Density = 2.090724 g / cm^3
# Si number density = 20.954939 Si / 1000 Ang^3
#
#
#
# Elastic Constant Matrix: (Units=GPa)
#
#
# Indices 1 2 3 4 5 6 
#
# 1 179.7601 4.3152 56.6393 0.0000 0.0000 -0.0001
# 2 4.3152 74.8056 1.4437 -0.0001 0.0000 -0.0001
# 3 56.6393 1.4437 104.9725 0.0000 0.0000 0.0000
# 4 0.0000 -0.0001 0.0000 5.9583 0.0000 -0.0001
# 5 0.0000 0.0000 0.0000 0.0000 15.3488 0.0000
# 6 -0.0001 -0.0001 0.0000 -0.0001 0.0000 19.4812
#
#
#
# Elastic Compliance Matrix: (Units=1/GPa)
#
#
# Indices 1 2 3 4 5 6 
#
# 1 0.006710 -0.000317 -0.003616 0.000000 0.000000 0.000000
# 2 -0.000317 0.013387 -0.000013 0.000000 0.000000 0.000000
# 3 -0.003616 -0.000013 0.011478 0.000000 0.000000 0.000000
# 4 0.000000 0.000000 0.000000 0.167833 0.000000 0.000001
# 5 0.000000 0.000000 0.000000 0.000000 0.065151 0.000000
# 6 0.000000 0.000000 0.000000 0.000001 0.000000 0.051332
#
#
# Mechanical properties :
#
#
# Convention : Reuss Voigt Hill
#
# Bulk Modulus (GPa) = 42.22701 53.81496 48.02098
# Shear Modulus (GPa) = 15.07491 27.96701 21.52096
#
# Velocity S-wave (km/s) = 2.68507 3.65722 3.20818
# Velocity P-wave (km/s) = 5.45966 6.60081 6.05717
#
# Compressibility (1/GPa) = 0.02368153
#
# Stress axis : x y z
#
# Youngs Moduli (GPa) = 149.03237 74.70195 87.12636
#
# Poissons Ratio (x) = 0.02370 0.31506
# Poissons Ratio (y) = 0.04729 0.00112
# Poissons Ratio (z) = 0.53891 0.00096
#
# Static dielectric constant tensor:
#      x y z
#    x 1.749670 0.000000 0.000000 
#    y 0.000000 1.848630 0.000000 
#    z 0.000000 0.000000 1.737220 
# 
# From -- ./inp_files/23997.got.cif
#   From: 2010.05.17/outbox.cif.g08.bks.cpg/sg42_12_cif.got.tgz:23997.got - 2010.06.03 19:03:34.
