data_PCOD9369520
_publ_section_title
;
Structure prediction by ZEFSAII (Michael W. Deem and Ramdas Pophale) SiO2 
 PCOD9369520
Probable space group: F M M 2
;
_chemical_formula_sum "Si O2"
_cell_formula_units_Z 100
_cell_length_a 20.237885
_cell_length_b 7.874118
_cell_length_c 30.227901
_cell_angle_alpha 90.000000
_cell_angle_beta 90.000000
_cell_angle_gamma 90.000000
_cell_volume 4816.982113
_symmetry_space_group_name_H-M "F M M 2"
_symmetry_group_IT_number 42
_symmetry_cell_setting 'orthorhombic'
loop_
_space_group_symop_operation_xyz
x,y,z
-x,-y,z
-x,y,z
x,-y,z
x,1/2+y,1/2+z
-x,1/2-y,1/2+z
-x,1/2+y,1/2+z
x,1/2-y,1/2+z
1/2+x,y,1/2+z
1/2-x,-y,1/2+z
1/2-x,y,1/2+z
1/2+x,-y,1/2+z
1/2+x,1/2+y,z
1/2-x,1/2-y,z
1/2-x,1/2+y,z
1/2+x,1/2-y,z
loop_
_atom_site_type_symbol
_atom_site_label
_atom_site_fract_x
_atom_site_fract_y
_atom_site_fract_z
Si Si1 0.676724 0.799436 0.004290
Si Si2 0.500000 0.000000 0.806898
Si Si3 0.924894 0.297531 0.680383
Si Si4 0.321258 0.703069 0.252175
Si Si5 0.324772 0.203379 0.104414
Si Si6 0.102189 0.301421 0.328922
Si Si7 0.074923 0.797453 0.928879
O O1 0.750000 0.750000 0.988639
O O2 0.667039 0.728847 0.054051
O O3 0.676238 0.000000 0.009052
O O4 0.620710 0.753674 0.969423
O O5 0.556166 0.153197 0.808804
O O6 0.930350 0.500000 0.687452
O O7 0.879947 0.230632 0.720494
O O8 0.881958 0.269608 0.636383
O O9 0.000000 0.230181 0.678629
O O10 0.324249 0.500000 0.254543
O O11 0.250000 0.750000 0.233394
O O12 0.331798 0.784849 0.300237
O O13 0.250000 0.250000 0.118538
O O14 0.329405 0.000000 0.104550
O O15 0.079368 0.500000 0.326138
O O16 0.105426 0.256848 0.380929
O O17 0.000000 0.726349 0.930625
O O18 0.069811 0.000000 0.930583
#
# Coordination Sequence:
#
# PCOD9369520 Si02
#       7
#    16   4  16  16  16  16  16
#     4  10  22  38  60  86 118 159 204 252 308 369
#     4  12  22  40  68  94 128 168 204 272 316 374
#     4  10  23  40  63  92 124 159 202 250 306 369
#     4  11  24  42  65  91 125 165 209 259 314 376
#     4  10  21  39  61  87 118 158 204 251 306 370
#     4  11  24  41  65  95 127 168 216 258 314 380
#     4  10  22  39  60  89 122 158 203 253 304 368
#
# _framework density 20.759886999999999
#
# number of rings (size 3 to 8) (size 9 to 14) (size 15 to 20)
#    0.000    1.600    1.600    2.160    2.240    6.400 
#    0.000    3.200    0.000    0.000    0.000    0.000 
#    0.000    0.000    0.000    0.000    0.000    0.000 
#
# Total GULP energy -139292.954068 kJ/mol
# GULP energy per Si atom -5571.718163 kJ/mol
# Density = 2.071264 g / cm^3
# Si number density = 20.759887 Si / 1000 Ang^3
#
#
#
# Elastic Constant Matrix: (Units=GPa)
#
#
# Indices 1 2 3 4 5 6 
#
# 1 158.7101 16.0229 95.1186 0.0000 0.0000 -0.0001
# 2 16.0229 66.9379 6.2058 0.0001 0.0000 -0.0001
# 3 95.1186 6.2058 118.4382 0.0000 0.0000 0.0000
# 4 0.0000 0.0001 0.0000 10.2749 0.0000 0.0000
# 5 0.0000 0.0000 0.0000 0.0000 59.7388 0.0000
# 6 -0.0001 -0.0001 0.0000 0.0000 0.0000 33.0617
#
#
#
# Elastic Compliance Matrix: (Units=1/GPa)
#
#
# Indices 1 2 3 4 5 6 
#
# 1 0.012424 -0.002059 -0.009870 0.000000 0.000000 0.000000
# 2 -0.002059 0.015353 0.000849 0.000000 0.000000 0.000000
# 3 -0.009870 0.000849 0.016325 0.000000 0.000000 0.000000
# 4 0.000000 0.000000 0.000000 0.097325 0.000000 0.000000
# 5 0.000000 0.000000 0.000000 0.000000 0.016740 0.000000
# 6 0.000000 0.000000 0.000000 0.000000 0.000000 0.030246
#
#
# Mechanical properties :
#
#
# Convention : Reuss Voigt Hill
#
# Bulk Modulus (GPa) = 45.57234 64.30898 54.94066
# Shear Modulus (GPa) = 22.94768 35.73100 29.33934
#
# Velocity S-wave (km/s) = 3.32834 4.15318 3.76343
# Velocity P-wave (km/s) = 6.06385 7.35142 6.73846
#
# Compressibility (1/GPa) = 0.02194313
#
# Stress axis : x y z
#
# Youngs Moduli (GPa) = 80.49022 65.13245 61.25473
#
# Poissons Ratio (x) = 0.13410 0.60457
# Poissons Ratio (y) = 0.16572 -0.05201
# Poissons Ratio (z) = 0.79442 -0.05530
#
# Static dielectric constant tensor:
#      x y z
#    x 1.701110 0.000000 0.000000 
#    y 0.000000 1.747820 0.000000 
#    z 0.000000 0.000000 1.780560 
# 
# From -- ./inp_files/33054.got.cif
#   From: 2010.05.17/outbox.cif.g08.bks.cpg/sg42_17_cif.got.tgz:33054.got - 2010.06.03 19:03:34.
