data_PCOD9369071
_publ_section_title
;
Structure prediction by ZEFSAII (Michael W. Deem and Ramdas Pophale) SiO2 
 PCOD9369071
Probable space group: F M M 2
;
_chemical_formula_sum "Si O2"
_cell_formula_units_Z 96
_cell_length_a 24.230886
_cell_length_b 26.849940
_cell_length_c 7.402623
_cell_angle_alpha 90.000000
_cell_angle_beta 90.000000
_cell_angle_gamma 90.000000
_cell_volume 4816.130499
_symmetry_space_group_name_H-M "F M M 2"
_symmetry_group_IT_number 42
_symmetry_cell_setting 'orthorhombic'
loop_
_space_group_symop_operation_xyz
x,y,z
-x,-y,z
-x,y,z
x,-y,z
x,1/2+y,1/2+z
-x,1/2-y,1/2+z
-x,1/2+y,1/2+z
x,1/2-y,1/2+z
1/2+x,y,1/2+z
1/2-x,-y,1/2+z
1/2-x,y,1/2+z
1/2+x,-y,1/2+z
1/2+x,1/2+y,z
1/2-x,1/2-y,z
1/2-x,1/2+y,z
1/2+x,1/2-y,z
loop_
_atom_site_type_symbol
_atom_site_label
_atom_site_fract_x
_atom_site_fract_y
_atom_site_fract_z
Si Si1 0.327376 0.058152 0.138990
Si Si2 0.060028 0.059792 0.457753
Si Si3 0.110545 0.377324 0.674485
Si Si4 0.206773 0.441369 0.554383
Si Si5 0.065517 0.202576 0.440335
Si Si6 0.935160 0.817088 0.858868
O O1 0.318158 0.060384 0.353435
O O2 0.328298 0.000000 0.087204
O O3 0.386484 0.077138 0.070982
O O4 0.269898 0.077053 0.055593
O O5 0.068186 0.082656 0.259059
O O6 0.000000 0.075918 0.530723
O O7 0.059993 0.000000 0.451596
O O8 0.168486 0.406024 0.674202
O O9 0.101927 0.329855 0.804381
O O10 0.097188 0.357454 0.475345
O O11 0.205505 0.500000 0.614266
O O12 0.073391 0.184479 0.644686
O O13 0.077982 0.261145 0.427474
O O14 0.000000 0.197006 0.392362
O O15 0.000000 0.825132 0.893781
#
# Coordination Sequence:
#
# PCOD9369071 Si02
#       6
#    16  16  16  16  16  16
#     4   9  19  39  63  87 120 164 215 261 299 350
#     4  10  21  37  58  88 129 169 203 249 310 371
#     4  12  22  34  57  91 125 161 203 251 310 362
#     4  10  21  38  62  91 122 162 212 259 298 359
#     4  10  20  36  57  82 119 163 208 262 310 360
#     4  10  20  36  57  83 119 163 212 260 308 365
#
# _framework density 19.933014
#
# number of rings (size 3 to 8) (size 9 to 14) (size 15 to 20)
#    0.000    1.833    1.667    3.000    2.333    2.667 
#    0.000    1.667    0.000    4.000    0.000   14.000 
#    0.000    0.000    0.000    0.000    0.000    0.000 
#
# Total GULP energy -133967.166457 kJ/mol
# GULP energy per Si atom -5581.965269 kJ/mol
# Density = 1.988765 g / cm^3
# Si number density = 19.933014 Si / 1000 Ang^3
#
#
#
# Elastic Constant Matrix: (Units=GPa)
#
#
# Indices 1 2 3 4 5 6 
#
# 1 157.5673 55.7605 51.7119 0.0032 -0.0033 -0.0031
# 2 55.7605 76.4002 21.3217 0.0035 -0.0022 -0.0051
# 3 51.7119 21.3217 69.2802 0.0068 -0.0053 -0.0065
# 4 0.0032 0.0035 0.0068 38.1292 -0.0014 -0.0028
# 5 -0.0033 -0.0022 -0.0053 -0.0014 30.2292 0.0021
# 6 -0.0031 -0.0051 -0.0065 -0.0028 0.0021 11.0399
#
#
#
# Elastic Compliance Matrix: (Units=1/GPa)
#
#
# Indices 1 2 3 4 5 6 
#
# 1 0.010391 -0.005929 -0.005932 0.000001 0.000000 -0.000003
# 2 -0.005929 0.017701 -0.001023 -0.000001 0.000000 0.000006
# 3 -0.005932 -0.001023 0.019176 -0.000003 0.000003 0.000009
# 4 0.000001 -0.000001 -0.000003 0.026227 0.000001 0.000007
# 5 0.000000 0.000000 0.000003 0.000001 0.033081 -0.000006
# 6 -0.000003 0.000006 0.000009 0.000007 -0.000006 0.090580
#
#
# Mechanical properties :
#
#
# Convention : Reuss Voigt Hill
#
# Bulk Modulus (GPa) = 46.50444 62.31510 54.40977
# Shear Modulus (GPa) = 21.73066 27.50989 24.62028
#
# Velocity S-wave (km/s) = 3.30538 3.71902 3.51828
# Velocity P-wave (km/s) = 6.16022 7.05490 6.62269
#
# Compressibility (1/GPa) = 0.02150332
#
# Stress axis : x y z
#
# Youngs Moduli (GPa) = 96.23509 56.49291 52.14776
#
# Poissons Ratio (x) = 0.33493 0.30932
# Poissons Ratio (y) = 0.57054 0.05332
# Poissons Ratio (z) = 0.57083 0.05777
#
# Static dielectric constant tensor:
#      x y z
#    x 1.723680 0.000000 0.000000 
#    y 0.000000 1.701160 0.000000 
#    z 0.000000 0.000000 1.756450 
# 
# From -- ./inp_files/4145.got.cif
#   From: 2010.05.17/outbox.cif.g08.bks.cpg/sg42_3_cif.got.tgz:4145.got - 2010.06.03 19:03:34.
