data_PCOD9369086
_publ_section_title
;
Structure prediction by ZEFSAII (Michael W. Deem and Ramdas Pophale) SiO2 
 PCOD9369086
Probable space group: F M M 2
;
_chemical_formula_sum "Si O2"
_cell_formula_units_Z 116
_cell_length_a 7.977543
_cell_length_b 31.350843
_cell_length_c 25.415588
_cell_angle_alpha 90.000000
_cell_angle_beta 90.000000
_cell_angle_gamma 90.000000
_cell_volume 6356.507133
_symmetry_space_group_name_H-M "F M M 2"
_symmetry_group_IT_number 42
_symmetry_cell_setting 'orthorhombic'
loop_
_space_group_symop_operation_xyz
x,y,z
-x,-y,z
-x,y,z
x,-y,z
x,1/2+y,1/2+z
-x,1/2-y,1/2+z
-x,1/2+y,1/2+z
x,1/2-y,1/2+z
1/2+x,y,1/2+z
1/2-x,-y,1/2+z
1/2-x,y,1/2+z
1/2+x,-y,1/2+z
1/2+x,1/2+y,z
1/2-x,1/2-y,z
1/2-x,1/2+y,z
1/2+x,1/2-y,z
loop_
_atom_site_type_symbol
_atom_site_label
_atom_site_fract_x
_atom_site_fract_y
_atom_site_fract_z
Si Si1 0.200663 0.201798 0.732930
Si Si2 0.196259 0.138069 0.939820
Si Si3 0.694243 0.201100 0.851937
Si Si4 0.704921 0.343988 0.627586
Si Si5 0.695755 0.938062 0.595275
Si Si6 0.195361 0.703928 0.027574
Si Si7 0.200414 0.952845 0.969974
Si Si8 0.500000 0.500000 0.625061
O O1 0.250000 0.250000 0.718153
O O2 0.277869 0.193057 0.790076
O O3 0.252369 0.170588 0.686067
O O4 0.000000 0.200027 0.738806
O O5 0.217217 0.165288 0.886894
O O6 0.265468 0.089659 0.940828
O O7 0.000000 0.134511 0.951737
O O8 0.271537 0.166631 0.986223
O O9 0.500000 0.198558 0.865349
O O10 0.750000 0.250000 0.862405
O O11 0.500000 0.346562 0.625859
O O12 0.780005 0.388929 0.610423
O O13 0.765964 0.309583 0.584327
O O14 0.500000 0.950192 0.606393
O O15 0.721613 0.945220 0.532523
O O16 0.847978 0.963571 0.622248
O O17 0.250000 0.750000 0.007654
O O18 0.000000 0.707626 0.035292
O O19 0.000000 0.955076 0.960236
O O20 0.270497 0.000000 0.957001
#
# Coordination Sequence:
#
# PCOD9369086 Si02
#       8
#    16  16  16  16  16  16  16   4
#     4  10  20  36  58  83 112 148 191 238 285 335
#     4  11  21  35  55  79 111 145 184 233 283 340
#     4  11  22  38  57  80 108 143 190 238 285 341
#     4  10  21  36  54  82 117 150 189 236 284 344
#     4  11  21  35  57  83 115 155 193 237 292 347
#     4  11  22  34  50  75 114 155 188 223 276 340
#     4   9  18  34  55  82 109 143 187 230 280 344
#     4  12  22  36  56  82 120 152 194 248 284 346
#
# _framework density 18.249016999999998
#
# number of rings (size 3 to 8) (size 9 to 14) (size 15 to 20)
#    0.000    1.517    2.759    4.345    0.000    1.655 
#    1.241    0.000    0.000    0.000    1.793    0.000 
#    0.000    0.000    0.000    0.000    0.000    0.000 
#
# Total GULP energy -161521.302903 kJ/mol
# GULP energy per Si atom -5569.700100 kJ/mol
# Density = 1.820748 g / cm^3
# Si number density = 18.249017 Si / 1000 Ang^3
#
#
#
# Elastic Constant Matrix: (Units=GPa)
#
#
# Indices 1 2 3 4 5 6 
#
# 1 46.0113 5.9695 -10.3357 0.0000 0.0000 0.0000
# 2 5.9695 148.8309 43.5230 0.0000 0.0000 0.0000
# 3 -10.3357 43.5230 50.0915 0.0000 0.0000 0.0000
# 4 0.0000 0.0000 0.0000 -18.0377 0.0000 0.0000
# 5 0.0000 0.0000 0.0000 0.0000 19.9323 0.0000
# 6 0.0000 0.0000 0.0000 0.0000 0.0000 18.2407
#
#
#
# Elastic Compliance Matrix: (Units=1/GPa)
#
#
# Indices 1 2 3 4 5 6 
#
# 1 0.023886 -0.003217 0.007723 0.000000 0.000000 0.000000
# 2 -0.003217 0.009441 -0.008867 0.000000 0.000000 0.000000
# 3 0.007723 -0.008867 0.029261 0.000000 0.000000 0.000000
# 4 0.000000 0.000000 0.000000 -0.055440 0.000000 0.000000
# 5 0.000000 0.000000 0.000000 0.000000 0.050170 0.000000
# 6 0.000000 0.000000 0.000000 0.000000 0.000000 0.054823
#
#
# Mechanical properties :
#
#
# Convention : Reuss Voigt Hill
#
# Bulk Modulus (GPa) = 18.56381 35.91637 27.24009
# Shear Modulus (GPa) = 36.01868 17.74552 26.88210
#
# Velocity S-wave (km/s) = 4.44749 3.12173 3.84222
# Velocity P-wave (km/s) = 6.04716 5.71993 5.88582
#
# Compressibility (1/GPa) = 0.05386824
#
# Stress axis : x y z
#
# Youngs Moduli (GPa) = 41.86549 105.92152 34.17509
#
# Poissons Ratio (x) = 0.34071 -0.26395
# Poissons Ratio (y) = 0.13467 0.30302
# Poissons Ratio (z) = -0.32334 0.93917
#
# Static dielectric constant tensor:
#      x y z
#    x 1.657020 0.000000 0.000000 
#    y 0.000000 1.681550 0.000000 
#    z 0.000000 0.000000 1.607450 
# 
# From -- ./inp_files/31978.got.cif
#   From: 2010.05.17/outbox.cif.g08.bks.cpg/sg42_16_cif.got.tgz:31978.got - 2010.06.03 19:03:34.
