data_PCOD9369198
_publ_section_title
;
Structure prediction by ZEFSAII (Michael W. Deem and Ramdas Pophale) SiO2 
 PCOD9369198
Probable space group: F M M 2
;
_chemical_formula_sum "Si O2"
_cell_formula_units_Z 104
_cell_length_a 14.410489
_cell_length_b 18.876760
_cell_length_c 14.856249
_cell_angle_alpha 90.000000
_cell_angle_beta 90.000000
_cell_angle_gamma 90.000000
_cell_volume 4041.246508
_symmetry_space_group_name_H-M "F M M 2"
_symmetry_group_IT_number 42
_symmetry_cell_setting 'orthorhombic'
loop_
_space_group_symop_operation_xyz
x,y,z
-x,-y,z
-x,y,z
x,-y,z
x,1/2+y,1/2+z
-x,1/2-y,1/2+z
-x,1/2+y,1/2+z
x,1/2-y,1/2+z
1/2+x,y,1/2+z
1/2-x,-y,1/2+z
1/2-x,y,1/2+z
1/2+x,-y,1/2+z
1/2+x,1/2+y,z
1/2-x,1/2-y,z
1/2-x,1/2+y,z
1/2+x,1/2-y,z
loop_
_atom_site_type_symbol
_atom_site_label
_atom_site_fract_x
_atom_site_fract_y
_atom_site_fract_z
Si Si1 0.899131 0.094422 0.556210
Si Si2 0.140551 0.738115 0.821047
Si Si3 0.639120 0.745906 0.022592
Si Si4 0.230868 0.500000 0.496053
Si Si5 0.894412 0.901387 0.098782
Si Si6 0.601397 0.614410 0.762550
Si Si7 0.310004 0.080472 0.790172
O O1 0.895488 0.178178 0.549504
O O2 0.813159 0.061061 0.504696
O O3 0.892526 0.080801 0.663069
O O4 0.000000 0.072350 0.522452
O O5 0.250000 0.750000 0.810678
O O6 0.110447 0.764211 0.919260
O O7 0.101322 0.799272 0.756408
O O8 0.132453 0.652028 0.816846
O O9 0.750000 0.750000 0.025156
O O10 0.608298 0.682170 0.084451
O O11 0.150611 0.561115 0.513294
O O12 0.829374 0.921266 0.183014
O O13 0.000000 0.922352 0.116761
O O14 0.500000 0.593853 0.801047
O O15 0.699551 0.592181 0.808207
O O16 0.331263 0.000000 0.823458
#
# Coordination Sequence:
#
# PCOD9369198 Si02
#       7
#    16  16  16   8  16  16  16
#     4  11  22  38  64  96 125 163 211 263 318 374
#     4   9  22  39  62  90 126 171 213 257 314 373
#     4  11  21  42  63  91 126 171 217 264 312 372
#     4  12  22  42  62  92 134 158 202 262 328 386
#     4  12  24  40  67  95 124 164 212 264 318 379
#     4  10  20  37  63  92 123 166 216 262 306 368
#     4  11  21  41  63  98 132 165 204 261 325 386
#
# _framework density 25.734632999999999
#
# number of rings (size 3 to 8) (size 9 to 14) (size 15 to 20)
#    0.000    1.231    3.846    1.846    0.000    4.615 
#    1.385    0.000    0.000    0.000    0.000    0.000 
#    0.000    0.000    0.000    0.000    0.000    0.000 
#
# Total GULP energy -144879.981010 kJ/mol
# GULP energy per Si atom -5572.306962 kJ/mol
# Density = 2.567606 g / cm^3
# Si number density = 25.734633 Si / 1000 Ang^3
#
#
#
# Elastic Constant Matrix: (Units=GPa)
#
#
# Indices 1 2 3 4 5 6 
#
# 1 151.7767 15.1919 12.5470 0.0000 0.0000 0.0000
# 2 15.1919 226.6925 21.3193 0.0000 0.0000 0.0000
# 3 12.5470 21.3193 64.1516 0.0000 0.0000 0.0000
# 4 0.0000 0.0000 0.0000 21.4459 0.0000 0.0000
# 5 0.0000 0.0000 0.0000 0.0000 -11.7830 0.0000
# 6 0.0000 0.0000 0.0000 0.0000 0.0000 -11.0811
#
#
#
# Elastic Compliance Matrix: (Units=1/GPa)
#
#
# Indices 1 2 3 4 5 6 
#
# 1 0.006722 -0.000337 -0.001203 0.000000 0.000000 0.000000
# 2 -0.000337 0.004571 -0.001453 0.000000 0.000000 0.000000
# 3 -0.001203 -0.001453 0.016306 0.000000 0.000000 0.000000
# 4 0.000000 0.000000 0.000000 0.046629 0.000000 0.000000
# 5 0.000000 0.000000 0.000000 0.000000 -0.084868 0.000000
# 6 0.000000 0.000000 0.000000 0.000000 0.000000 -0.090243
#
#
# Mechanical properties :
#
#
# Convention : Reuss Voigt Hill
#
# Bulk Modulus (GPa) = 46.26901 60.08192 53.17547
# Shear Modulus (GPa) = -57.01624 25.95387 -15.53118
#
# Velocity S-wave (km/s) = -4.71206 3.17916 -2.45932
# Velocity P-wave (km/s) = 3.40388 6.07236 3.55578
#
# Compressibility (1/GPa) = 0.02161274
#
# Stress axis : x y z
#
# Youngs Moduli (GPa) = 148.76947 218.79397 61.32672
#
# Poissons Ratio (x) = 0.07381 0.07375
# Poissons Ratio (y) = 0.05019 0.08910
# Poissons Ratio (z) = 0.17890 0.31789
#
# Static dielectric constant tensor:
#      x y z
#    x 2.004210 0.000000 0.000000 
#    y 0.000000 2.001300 0.000000 
#    z 0.000000 0.000000 2.148930 
# 
# From -- ./inp_files/25307.got.cif
#   From: 2010.05.17/outbox.cif.g08.bks.cpg/sg42_13_cif.got.tgz:25307.got - 2010.06.03 19:03:34.
