data_PCOD9369257
_publ_section_title
;
Structure prediction by ZEFSAII (Michael W. Deem and Ramdas Pophale) SiO2 
 PCOD9369257
Probable space group: F M M 2
;
_chemical_formula_sum "Si O2"
_cell_formula_units_Z 104
_cell_length_a 9.726003
_cell_length_b 24.816815
_cell_length_c 19.651247
_cell_angle_alpha 90.000000
_cell_angle_beta 90.000000
_cell_angle_gamma 90.000000
_cell_volume 4743.190383
_symmetry_space_group_name_H-M "F M M 2"
_symmetry_group_IT_number 42
_symmetry_cell_setting 'orthorhombic'
loop_
_space_group_symop_operation_xyz
x,y,z
-x,-y,z
-x,y,z
x,-y,z
x,1/2+y,1/2+z
-x,1/2-y,1/2+z
-x,1/2+y,1/2+z
x,1/2-y,1/2+z
1/2+x,y,1/2+z
1/2-x,-y,1/2+z
1/2-x,y,1/2+z
1/2+x,-y,1/2+z
1/2+x,1/2+y,z
1/2-x,1/2-y,z
1/2-x,1/2+y,z
1/2+x,1/2-y,z
loop_
_atom_site_type_symbol
_atom_site_label
_atom_site_fract_x
_atom_site_fract_y
_atom_site_fract_z
Si Si1 0.839786 0.559699 0.216780
Si Si2 0.657945 0.561309 0.016587
Si Si3 0.339091 0.161989 0.051078
Si Si4 0.247984 0.176705 0.194351
Si Si5 0.160062 0.801401 0.395407
Si Si6 0.346950 0.399914 0.865099
Si Si7 0.000000 0.247026 0.735964
O O1 0.792726 0.500000 0.195789
O O2 0.752813 0.611790 0.195857
O O3 0.839678 0.563759 0.298778
O O4 0.000000 0.566057 0.194923
O O5 0.500000 0.575415 0.036139
O O6 0.685500 0.500000 0.036374
O O7 0.664797 0.566810 0.934637
O O8 0.767221 0.604152 0.042871
O O9 0.500000 0.157524 0.067912
O O10 0.265544 0.190398 0.114132
O O11 0.330552 0.190696 0.977529
O O12 0.380480 0.199813 0.232715
O O13 0.118790 0.206362 0.225158
O O14 0.250000 0.750000 0.376419
O O15 0.229191 0.854725 0.365101
O O16 0.000000 0.793393 0.375834
O O17 0.500000 0.373866 0.867432
#
# Coordination Sequence:
#
# PCOD9369257 Si02
#       7
#    16  16  16  16  16  16   8
#     4  10  20  38  65  91 119 153 199 248 294 355
#     4   9  18  33  54  81 113 150 191 238 289 344
#     4  10  21  34  55  83 116 148 192 236 288 355
#     4  11  22  42  60  93 115 158 198 242 300 349
#     4  10  21  35  53  81 115 151 190 237 289 347
#     4   9  18  36  57  83 110 149 195 235 290 344
#     4  10  24  40  64  82 122 154 200 244 286 358
#
# _framework density 21.926169999999999
#
# number of rings (size 3 to 8) (size 9 to 14) (size 15 to 20)
#    0.000    2.154    1.538    0.923    3.231    3.385 
#    4.154    0.385    0.000    0.923    0.000    0.000 
#    0.000    0.000    0.000    0.000    0.000    0.000 
#
# Total GULP energy -144846.610978 kJ/mol
# GULP energy per Si atom -5571.023499 kJ/mol
# Density = 2.187627 g / cm^3
# Si number density = 21.926170 Si / 1000 Ang^3
#
#
#
# Elastic Constant Matrix: (Units=GPa)
#
#
# Indices 1 2 3 4 5 6 
#
# 1 124.1405 45.9538 6.5841 0.0000 0.0000 0.0000
# 2 45.9538 142.0259 0.4976 0.0000 0.0000 0.0000
# 3 6.5841 0.4976 73.4032 0.0000 0.0000 0.0000
# 4 0.0000 0.0000 0.0000 -21.9414 0.0000 0.0000
# 5 0.0000 0.0000 0.0000 0.0000 10.6770 0.0000
# 6 0.0000 0.0000 0.0000 0.0000 0.0000 45.5133
#
#
#
# Elastic Compliance Matrix: (Units=1/GPa)
#
#
# Indices 1 2 3 4 5 6 
#
# 1 0.009199 -0.002974 -0.000805 0.000000 0.000000 0.000000
# 2 -0.002974 0.008002 0.000212 0.000000 0.000000 0.000000
# 3 -0.000805 0.000212 0.013694 0.000000 0.000000 0.000000
# 4 0.000000 0.000000 0.000000 -0.045576 0.000000 0.000000
# 5 0.000000 0.000000 0.000000 0.000000 0.093659 0.000000
# 6 0.000000 0.000000 0.000000 0.000000 0.000000 0.021972
#
#
# Mechanical properties :
#
#
# Convention : Reuss Voigt Hill
#
# Bulk Modulus (GPa) = 42.08176 49.51562 45.79869
# Shear Modulus (GPa) = 43.10221 25.95207 34.52714
#
# Velocity S-wave (km/s) = 4.43853 3.44410 3.97255
# Velocity P-wave (km/s) = 6.74548 6.20062 6.47878
#
# Compressibility (1/GPa) = 0.02376326
#
# Stress axis : x y z
#
# Youngs Moduli (GPa) = 108.70963 124.96343 73.02387
#
# Poissons Ratio (x) = 0.37158 0.05878
# Poissons Ratio (y) = 0.32325 -0.01552
# Poissons Ratio (z) = 0.08751 -0.02655
#
# Static dielectric constant tensor:
#      x y z
#    x 1.745270 0.000000 0.000000 
#    y 0.000000 2.101190 0.000000 
#    z 0.000000 0.000000 1.893600 
# 
# From -- ./inp_files/28295.got.cif
#   From: 2010.05.17/outbox.cif.g08.bks.cpg/sg42_15_cif.got.tgz:28295.got - 2010.06.03 19:03:34.
