data_PCOD9369025
_publ_section_title
;
Structure prediction by ZEFSAII (Michael W. Deem and Ramdas Pophale) SiO2 
 PCOD9369025
Probable space group: F M M 2
;
_chemical_formula_sum "Si O2"
_cell_formula_units_Z 96
_cell_length_a 8.704377
_cell_length_b 28.846271
_cell_length_c 20.944630
_cell_angle_alpha 90.000000
_cell_angle_beta 90.000000
_cell_angle_gamma 90.000000
_cell_volume 5258.962387
_symmetry_space_group_name_H-M "F M M 2"
_symmetry_group_IT_number 42
_symmetry_cell_setting 'orthorhombic'
loop_
_space_group_symop_operation_xyz
x,y,z
-x,-y,z
-x,y,z
x,-y,z
x,1/2+y,1/2+z
-x,1/2-y,1/2+z
-x,1/2+y,1/2+z
x,1/2-y,1/2+z
1/2+x,y,1/2+z
1/2-x,-y,1/2+z
1/2-x,y,1/2+z
1/2+x,-y,1/2+z
1/2+x,1/2+y,z
1/2-x,1/2-y,z
1/2-x,1/2+y,z
1/2+x,1/2-y,z
loop_
_atom_site_type_symbol
_atom_site_label
_atom_site_fract_x
_atom_site_fract_y
_atom_site_fract_z
Si Si1 0.817080 0.144646 0.902660
Si Si2 0.683424 0.198416 0.780881
Si Si3 0.684693 0.198021 0.024543
Si Si4 0.685112 0.648425 0.656749
Si Si5 0.815321 0.052135 0.712966
Si Si6 0.183273 0.053284 0.355030
O O1 0.750691 0.168727 0.839123
O O2 0.764089 0.091336 0.898656
O O3 0.000000 0.147885 0.902300
O O4 0.749726 0.171017 0.963600
O O5 0.500000 0.199262 0.784818
O O6 0.750000 0.250000 0.785198
O O7 0.736591 0.175911 0.714437
O O8 0.500000 0.199961 0.020467
O O9 0.750000 0.250000 0.026620
O O10 0.727599 0.170490 0.089078
O O11 0.500000 0.652729 0.663587
O O12 0.724876 0.594180 0.665993
O O13 0.738562 0.060140 0.781915
O O14 0.000000 0.053325 0.722113
O O15 0.773925 0.000000 0.691416
O O16 0.000000 0.059483 0.357789
O O17 0.219875 0.000000 0.372017
#
# Coordination Sequence:
#
# PCOD9369025 Si02
#       6
#    16  16  16  16  16  16
#     4  12  24  40  61  86 118 156 201 246 298 357
#     4  12  24  38  59  86 117 151 194 249 301 353
#     4  11  24  42  61  84 118 160 204 248 301 359
#     4  10  21  38  60  88 121 157 198 243 295 355
#     4   9  17  32  57  88 121 157 195 237 289 350
#     4  10  20  35  58  90 123 155 194 243 297 350
#
# _framework density 18.254550999999999
#
# number of rings (size 3 to 8) (size 9 to 14) (size 15 to 20)
#    0.000    1.333    1.667    5.000    0.000    3.667 
#    0.000    0.833    0.000    3.000    0.000    0.000 
#    0.000    0.000    0.000    0.000    0.000    0.000 
#
# Total GULP energy -134143.372125 kJ/mol
# GULP energy per Si atom -5589.307172 kJ/mol
# Density = 1.821300 g / cm^3
# Si number density = 18.254551 Si / 1000 Ang^3
#
#
#
# Elastic Constant Matrix: (Units=GPa)
#
#
# Indices 1 2 3 4 5 6 
#
# 1 81.0466 64.6787 61.9465 0.0000 0.0000 0.0000
# 2 64.6787 165.0245 80.6091 0.0000 0.0000 0.0000
# 3 61.9465 80.6091 127.9208 0.0000 0.0000 0.0000
# 4 0.0000 0.0000 0.0000 33.9837 0.0000 0.0000
# 5 0.0000 0.0000 0.0000 0.0000 18.2831 0.0000
# 6 0.0000 0.0000 0.0000 0.0000 0.0000 27.2427
#
#
#
# Elastic Compliance Matrix: (Units=1/GPa)
#
#
# Indices 1 2 3 4 5 6 
#
# 1 0.022079 -0.004957 -0.007569 0.000000 0.000000 0.000000
# 2 -0.004957 0.009867 -0.003817 0.000000 0.000000 0.000000
# 3 -0.007569 -0.003817 0.013888 0.000000 0.000000 0.000000
# 4 0.000000 0.000000 0.000000 0.029426 0.000000 0.000000
# 5 0.000000 0.000000 0.000000 0.000000 0.054695 0.000000
# 6 0.000000 0.000000 0.000000 0.000000 0.000000 0.036707
#
#
# Mechanical properties :
#
#
# Convention : Reuss Voigt Hill
#
# Bulk Modulus (GPa) = 76.05155 87.60670 81.82912
# Shear Modulus (GPa) = 24.54223 27.01907 25.78065
#
# Velocity S-wave (km/s) = 3.67064 3.85142 3.76212
# Velocity P-wave (km/s) = 7.72768 8.23855 7.98720
#
# Compressibility (1/GPa) = 0.01314898
#
# Stress axis : x y z
#
# Youngs Moduli (GPa) = 45.29200 101.34753 72.00449
#
# Poissons Ratio (x) = 0.50233 0.54497
# Poissons Ratio (y) = 0.22449 0.27488
# Poissons Ratio (z) = 0.34279 0.38689
#
# Static dielectric constant tensor:
#      x y z
#    x 1.610240 0.000000 0.000000 
#    y 0.000000 1.639330 0.000000 
#    z 0.000000 0.000000 1.584780 
# 
# From -- ./inp_files/23704.got.cif
#   From: 2010.05.17/outbox.cif.g08.bks.cpg/sg42_12_cif.got.tgz:23704.got - 2010.06.03 19:03:34.
