data_PCOD9369568
_publ_section_title
;
Structure prediction by ZEFSAII (Michael W. Deem and Ramdas Pophale) SiO2 
 PCOD9369568
Probable space group: F M M 2
;
_chemical_formula_sum "Si O2"
_cell_formula_units_Z 116
_cell_length_a 7.802950
_cell_length_b 31.323015
_cell_length_c 21.581872
_cell_angle_alpha 90.000000
_cell_angle_beta 90.000000
_cell_angle_gamma 90.000000
_cell_volume 5274.866770
_symmetry_space_group_name_H-M "F M M 2"
_symmetry_group_IT_number 42
_symmetry_cell_setting 'orthorhombic'
loop_
_space_group_symop_operation_xyz
x,y,z
-x,-y,z
-x,y,z
x,-y,z
x,1/2+y,1/2+z
-x,1/2-y,1/2+z
-x,1/2+y,1/2+z
x,1/2-y,1/2+z
1/2+x,y,1/2+z
1/2-x,-y,1/2+z
1/2-x,y,1/2+z
1/2+x,-y,1/2+z
1/2+x,1/2+y,z
1/2-x,1/2-y,z
1/2-x,1/2+y,z
1/2+x,1/2-y,z
loop_
_atom_site_type_symbol
_atom_site_label
_atom_site_fract_x
_atom_site_fract_y
_atom_site_fract_z
Si Si1 0.500000 0.500000 0.401356
Si Si2 0.700076 0.148133 0.867946
Si Si3 0.792822 0.300249 0.620900
Si Si4 0.800113 0.950136 0.065995
Si Si5 0.196191 0.048276 0.704720
Si Si6 0.202507 0.356995 0.733780
Si Si7 0.196075 0.065298 0.931167
Si Si8 0.204478 0.799525 0.984841
O O1 0.346590 0.536183 0.405093
O O2 0.500000 0.136502 0.861416
O O3 0.763854 0.160805 0.799806
O O4 0.803036 0.107542 0.891264
O O5 0.715316 0.181363 0.923320
O O6 0.750000 0.250000 0.630474
O O7 0.725119 0.331360 0.674847
O O8 0.734480 0.315412 0.552537
O O9 0.000000 0.302486 0.619302
O O10 0.703178 0.944791 0.130267
O O11 0.000000 0.942730 0.081024
O O12 0.777323 0.000000 0.047648
O O13 0.757682 0.925190 0.003528
O O14 0.273343 0.091606 0.732175
O O15 0.000000 0.046542 0.725327
O O16 0.271322 0.000000 0.716262
O O17 0.000000 0.349470 0.730373
O O18 0.000000 0.048105 0.932523
O O19 0.250000 0.750000 0.986221
O O20 0.000000 0.806109 0.981105
#
# Coordination Sequence:
#
# PCOD9369568 Si02
#       8
#     4  16  16  16  16  16  16  16
#     4  12  22  40  64  90 132 172 226 280 338 406
#     4  11  24  42  62  91 132 175 222 273 329 395
#     4   9  20  40  66  97 128 161 206 261 325 395
#     4   9  18  33  55  82 115 155 206 261 325 383
#     4  10  22  37  57  86 122 165 217 274 325 380
#     4  10  23  43  63  88 127 173 217 263 324 393
#     4  11  23  39  61  92 128 173 221 278 336 396
#     4  10  21  40  67  98 131 166 209 267 333 403
#
# _framework density 21.991076
#
# number of rings (size 3 to 8) (size 9 to 14) (size 15 to 20)
#    0.000    1.931    1.379    1.448    2.897    3.586 
#    1.241    1.379    0.000    0.000    0.000    0.000 
#    0.000    0.000    0.000    0.000    0.000    0.000 
#
# Total GULP energy -161543.767071 kJ/mol
# GULP energy per Si atom -5570.474727 kJ/mol
# Density = 2.194102 g / cm^3
# Si number density = 21.991076 Si / 1000 Ang^3
#
#
#
# Elastic Constant Matrix: (Units=GPa)
#
#
# Indices 1 2 3 4 5 6 
#
# 1 53.8684 3.9106 11.6262 0.0000 0.0000 0.0000
# 2 3.9106 66.9051 62.8624 0.0000 0.0000 0.0000
# 3 11.6262 62.8624 148.6841 0.0000 0.0000 0.0000
# 4 0.0000 0.0000 0.0000 -101.6039 0.0000 0.0000
# 5 0.0000 0.0000 0.0000 0.0000 12.5052 0.0000
# 6 0.0000 0.0000 0.0000 0.0000 0.0000 -2.0863
#
#
#
# Elastic Compliance Matrix: (Units=1/GPa)
#
#
# Indices 1 2 3 4 5 6 
#
# 1 0.018891 0.000471 -0.001676 0.000000 0.000000 0.000000
# 2 0.000471 0.024809 -0.010526 0.000000 0.000000 0.000000
# 3 -0.001676 -0.010526 0.011307 0.000000 0.000000 0.000000
# 4 0.000000 0.000000 0.000000 -0.009842 0.000000 0.000000
# 5 0.000000 0.000000 0.000000 0.000000 0.079967 0.000000
# 6 0.000000 0.000000 0.000000 0.000000 0.000000 -0.479323
#
#
# Mechanical properties :
#
#
# Convention : Reuss Voigt Hill
#
# Bulk Modulus (GPa) = 31.70115 47.36178 39.53147
# Shear Modulus (GPa) = -15.61453 -5.49977 -10.55715
#
# Velocity S-wave (km/s) = -2.66755 -1.58314 -2.19342
# Velocity P-wave (km/s) = 2.22688 4.27104 3.40594
#
# Compressibility (1/GPa) = 0.03154459
#
# Stress axis : x y z
#
# Youngs Moduli (GPa) = 52.93425 40.30830 88.44125
#
# Poissons Ratio (x) = -0.01897 0.14824
# Poissons Ratio (y) = -0.02492 0.93091
# Poissons Ratio (z) = 0.08873 0.42428
#
# Static dielectric constant tensor:
#      x y z
#    x 1.979500 0.000000 0.000000 
#    y 0.000000 1.855470 0.000000 
#    z 0.000000 0.000000 1.869950 
# 
# From -- ./inp_files/28467.got.cif
#   From: 2010.05.17/outbox.cif.g08.bks.cpg/sg42_15_cif.got.tgz:28467.got - 2010.06.03 19:03:34.
