data_PCOD9369304
_publ_section_title
;
Structure prediction by ZEFSAII (Michael W. Deem and Ramdas Pophale) SiO2 
 PCOD9369304
Probable space group: F M M 2
;
_chemical_formula_sum "Si O2"
_cell_formula_units_Z 84
_cell_length_a 25.241645
_cell_length_b 21.452750
_cell_length_c 7.558966
_cell_angle_alpha 90.000000
_cell_angle_beta 90.000000
_cell_angle_gamma 90.000000
_cell_volume 4093.200496
_symmetry_space_group_name_H-M "F M M 2"
_symmetry_group_IT_number 42
_symmetry_cell_setting 'orthorhombic'
loop_
_space_group_symop_operation_xyz
x,y,z
-x,-y,z
-x,y,z
x,-y,z
x,1/2+y,1/2+z
-x,1/2-y,1/2+z
-x,1/2+y,1/2+z
x,1/2-y,1/2+z
1/2+x,y,1/2+z
1/2-x,-y,1/2+z
1/2-x,y,1/2+z
1/2+x,-y,1/2+z
1/2+x,1/2+y,z
1/2-x,1/2-y,z
1/2-x,1/2+y,z
1/2+x,1/2-y,z
loop_
_atom_site_type_symbol
_atom_site_label
_atom_site_fract_x
_atom_site_fract_y
_atom_site_fract_z
Si Si1 0.188176 0.928090 0.213970
Si Si2 0.401515 0.160225 0.166720
Si Si3 0.500000 0.500000 0.233792
Si Si4 0.559747 0.282617 0.029956
Si Si5 0.691678 0.072947 0.292915
Si Si6 0.076006 0.886243 0.317773
O O1 0.247613 0.907642 0.259518
O O2 0.139407 0.892590 0.299508
O O3 0.184902 0.000000 0.272813
O O4 0.181657 0.925903 0.002732
O O5 0.398919 0.226919 0.066082
O O6 0.427076 0.177659 0.355254
O O7 0.348911 0.120631 0.204126
O O8 0.435467 0.120418 0.026238
O O9 0.546047 0.445480 0.240731
O O10 0.500000 0.256887 0.013618
O O11 0.560738 0.327195 0.199843
O O12 0.685536 0.000000 0.233801
#
# Coordination Sequence:
#
# PCOD9369304 Si02
#       6
#    16  16   4  16  16  16
#     4  10  20  41  69 102 146 183 225 280 357 424
#     4  12  26  44  72 100 134 183 242 282 341 420
#     4  12  28  44  70 112 140 186 226 292 356 388
#     4  12  26  46  69  96 135 189 233 281 343 415
#     4  10  22  40  71 107 137 182 228 288 353 415
#     4  12  25  45  70 102 144 178 233 292 339 412
#
# _framework density 20.521837999999999
#
# number of rings (size 3 to 8) (size 9 to 14) (size 15 to 20)
#    0.000    0.762    5.714    1.714    4.000    1.524 
#    0.000    1.905    0.000    0.000    0.000    0.000 
#    0.000    0.000    0.000    0.000    0.000    0.000 
#
# Total GULP energy -117032.623669 kJ/mol
# GULP energy per Si atom -5572.982079 kJ/mol
# Density = 2.047513 g / cm^3
# Si number density = 20.521838 Si / 1000 Ang^3
#
#
#
# Elastic Constant Matrix: (Units=GPa)
#
#
# Indices 1 2 3 4 5 6 
#
# 1 141.2264 61.8455 39.8326 -0.0005 0.0004 -0.0001
# 2 61.8455 90.2794 13.1211 0.0013 -0.0017 -0.0002
# 3 39.8326 13.1211 107.7116 0.0046 -0.0059 -0.0028
# 4 -0.0005 0.0013 0.0046 12.5046 -0.0056 -0.0023
# 5 0.0004 -0.0017 -0.0059 -0.0056 16.8589 0.0031
# 6 -0.0001 -0.0002 -0.0028 -0.0023 0.0031 35.2603
#
#
#
# Elastic Compliance Matrix: (Units=1/GPa)
#
#
# Indices 1 2 3 4 5 6 
#
# 1 0.011127 -0.007151 -0.003244 0.000002 -0.000002 0.000000
# 2 -0.007151 0.015872 0.000711 -0.000002 0.000002 0.000000
# 3 -0.003244 0.000711 0.010397 -0.000004 0.000004 0.000001
# 4 0.000002 -0.000002 -0.000004 0.079971 0.000027 0.000005
# 5 -0.000002 0.000002 0.000004 0.000027 0.059316 -0.000005
# 6 0.000000 0.000000 0.000001 0.000005 -0.000005 0.028360
#
#
# Mechanical properties :
#
#
# Convention : Reuss Voigt Hill
#
# Bulk Modulus (GPa) = 55.46733 63.20176 59.33454
# Shear Modulus (GPa) = 21.69934 27.88598 24.79266
#
# Velocity S-wave (km/s) = 3.25526 3.69025 3.47956
# Velocity P-wave (km/s) = 6.41998 7.00153 6.71705
#
# Compressibility (1/GPa) = 0.01802863
#
# Stress axis : x y z
#
# Youngs Moduli (GPa) = 89.86783 63.00254 96.18131
#
# Poissons Ratio (x) = 0.45055 0.31200
# Poissons Ratio (y) = 0.64268 -0.06839
# Poissons Ratio (z) = 0.29152 -0.04480
#
# Static dielectric constant tensor:
#      x y z
#    x 1.723500 0.000000 0.000000 
#    y 0.000000 1.726720 0.000000 
#    z 0.000000 0.000000 1.771550 
# 
# From -- ./inp_files/4597.got.cif
#   From: 2010.05.17/outbox.cif.g08.bks.cpg/sg42_3_cif.got.tgz:4597.got - 2010.06.03 19:03:34.
