data_PCOD9369479
_publ_section_title
;
Structure prediction by ZEFSAII (Michael W. Deem and Ramdas Pophale) SiO2 
 PCOD9369479
Probable space group: F M M 2
;
_chemical_formula_sum "Si O2"
_cell_formula_units_Z 56
_cell_length_a 15.517275
_cell_length_b 9.658235
_cell_length_c 18.548429
_cell_angle_alpha 90.000000
_cell_angle_beta 90.000000
_cell_angle_gamma 90.000000
_cell_volume 2779.843567
_symmetry_space_group_name_H-M "F M M 2"
_symmetry_group_IT_number 42
_symmetry_cell_setting 'orthorhombic'
loop_
_space_group_symop_operation_xyz
x,y,z
-x,-y,z
-x,y,z
x,-y,z
x,1/2+y,1/2+z
-x,1/2-y,1/2+z
-x,1/2+y,1/2+z
x,1/2-y,1/2+z
1/2+x,y,1/2+z
1/2-x,-y,1/2+z
1/2-x,y,1/2+z
1/2+x,-y,1/2+z
1/2+x,1/2+y,z
1/2-x,1/2-y,z
1/2-x,1/2+y,z
1/2+x,1/2-y,z
loop_
_atom_site_type_symbol
_atom_site_label
_atom_site_fract_x
_atom_site_fract_y
_atom_site_fract_z
Si Si1 0.666530 0.659371 0.840070
Si Si2 0.793531 0.500000 0.610373
Si Si3 0.596731 0.500000 0.966657
Si Si4 0.093739 0.000000 0.606314
Si Si5 0.903856 0.717991 0.695666
O O1 0.687374 0.500000 0.814905
O O2 0.750000 0.750000 0.855869
O O3 0.614939 0.629571 0.913563
O O4 0.616540 0.740376 0.777788
O O5 0.845151 0.500000 0.536082
O O6 0.694443 0.500000 0.583583
O O7 0.828104 0.627920 0.659244
O O8 0.500000 0.500000 0.991672
O O9 0.091509 0.862129 0.653680
O O10 0.000000 0.000000 0.564649
O O11 0.000000 0.654808 0.690302
#
# Coordination Sequence:
#
# PCOD9369479 Si02
#       5
#    16   8   8   8  16
#     4  10  22  39  67  91 126 173 224 260 312 386
#     4  12  24  40  65 101 130 163 218 275 319 370
#     4  10  23  44  66  89 130 181 212 254 330 400
#     4  10  21  38  61  88 128 172 212 255 325 390
#     4  11  22  38  63  97 130 169 216 268 316 378
#
# _framework density 20.145016999999999
#
# number of rings (size 3 to 8) (size 9 to 14) (size 15 to 20)
#    0.857    0.571    1.429    4.714    2.000    2.286 
#    0.000    0.000    0.000    1.714    0.000    0.000 
#    0.000    0.000    0.000    0.000    0.000    0.000 
#
# Total GULP energy -77946.641573 kJ/mol
# GULP energy per Si atom -5567.617255 kJ/mol
# Density = 2.009917 g / cm^3
# Si number density = 20.145017 Si / 1000 Ang^3
#
#
#
# Elastic Constant Matrix: (Units=GPa)
#
#
# Indices 1 2 3 4 5 6 
#
# 1 194.3171 25.7375 52.5495 0.0000 0.0000 0.0000
# 2 25.7375 90.8704 13.9240 0.0000 0.0000 0.0000
# 3 52.5495 13.9240 103.1515 0.0000 0.0000 0.0000
# 4 0.0000 0.0000 0.0000 -26.8267 0.0000 0.0000
# 5 0.0000 0.0000 0.0000 0.0000 1.8084 0.0000
# 6 0.0000 0.0000 0.0000 0.0000 0.0000 49.0288
#
#
#
# Elastic Compliance Matrix: (Units=1/GPa)
#
#
# Indices 1 2 3 4 5 6 
#
# 1 0.006111 -0.001280 -0.002940 0.000000 0.000000 0.000000
# 2 -0.001280 0.011505 -0.000901 0.000000 0.000000 0.000000
# 3 -0.002940 -0.000901 0.011314 0.000000 0.000000 0.000000
# 4 0.000000 0.000000 0.000000 -0.037276 0.000000 0.000000
# 5 0.000000 0.000000 0.000000 0.000000 0.552975 0.000000
# 6 0.000000 0.000000 0.000000 0.000000 0.000000 0.020396
#
#
# Mechanical properties :
#
#
# Convention : Reuss Voigt Hill
#
# Bulk Modulus (GPa) = 53.51202 63.64010 58.57606
# Shear Modulus (GPa) = 8.59849 24.54397 16.57123
#
# Velocity S-wave (km/s) = 2.06823 3.49429 2.87121
# Velocity P-wave (km/s) = 5.68546 6.92385 6.33499
#
# Compressibility (1/GPa) = 0.01868739
#
# Stress axis : x y z
#
# Youngs Moduli (GPa) = 163.64031 86.91616 88.38596
#
# Poissons Ratio (x) = 0.11128 0.25989
# Poissons Ratio (y) = 0.20951 0.07962
# Poissons Ratio (z) = 0.48116 0.07830
#
# Static dielectric constant tensor:
#      x y z
#    x 1.782200 0.000000 0.000000 
#    y 0.000000 1.746000 0.000000 
#    z 0.000000 0.000000 1.680490 
# 
# From -- ./inp_files/19572.got.cif
#   From: 2010.05.17/outbox.cif.g08.bks.cpg/sg42_10_cif.got.tgz:19572.got - 2010.06.03 19:03:34.
