data_PCOD9369392
_publ_section_title
;
Structure prediction by ZEFSAII (Michael W. Deem and Ramdas Pophale) SiO2 
 PCOD9369392
Probable space group: F M M 2
;
_chemical_formula_sum "Si O2"
_cell_formula_units_Z 64
_cell_length_a 16.931418
_cell_length_b 18.320763
_cell_length_c 9.302277
_cell_angle_alpha 90.000000
_cell_angle_beta 90.000000
_cell_angle_gamma 90.000000
_cell_volume 2885.533734
_symmetry_space_group_name_H-M "F M M 2"
_symmetry_group_IT_number 42
_symmetry_cell_setting 'orthorhombic'
loop_
_space_group_symop_operation_xyz
x,y,z
-x,-y,z
-x,y,z
x,-y,z
x,1/2+y,1/2+z
-x,1/2-y,1/2+z
-x,1/2+y,1/2+z
x,1/2-y,1/2+z
1/2+x,y,1/2+z
1/2-x,-y,1/2+z
1/2-x,y,1/2+z
1/2+x,-y,1/2+z
1/2+x,1/2+y,z
1/2-x,1/2-y,z
1/2-x,1/2+y,z
1/2+x,1/2-y,z
loop_
_atom_site_type_symbol
_atom_site_label
_atom_site_fract_x
_atom_site_fract_y
_atom_site_fract_z
Si Si1 0.305359 0.147988 0.165150
Si Si2 0.615913 0.849726 0.659402
Si Si3 0.598613 0.000000 0.110789
Si Si4 0.085342 0.500000 0.791760
Si Si5 0.130685 0.252609 0.412637
O O1 0.211308 0.141221 0.151827
O O2 0.358840 0.074297 0.169893
O O3 0.318290 0.195086 0.309321
O O4 0.331364 0.197414 0.029050
O O5 0.590709 0.930370 0.693164
O O6 0.591672 0.800151 0.795606
O O7 0.587561 0.809734 0.516502
O O8 0.500000 0.000000 0.137043
O O9 0.631476 0.000000 0.942599
O O10 0.000000 0.500000 0.859565
#
# Coordination Sequence:
#
# PCOD9369392 Si02
#       5
#    16  16   8   8  16
#     4  11  20  39  64  93 120 157 202 252 307 359
#     4  11  20  39  64  93 120 157 202 252 307 359
#     4  11  25  43  59  85 128 171 206 246 298 359
#     4  11  25  43  59  85 128 171 206 246 298 359
#     4  10  21  36  65  96 123 148 199 262 307 358
#
# _framework density 22.179607000000001
#
# number of rings (size 3 to 8) (size 9 to 14) (size 15 to 20)
#    0.000    1.250    2.500    6.750    0.000    1.000 
#    0.000   10.000    0.000    0.000    0.000    0.000 
#    0.000    0.000    0.000    0.000    0.000    0.000 
#
# Total GULP energy -89117.004816 kJ/mol
# GULP energy per Si atom -5569.812801 kJ/mol
# Density = 2.212913 g / cm^3
# Si number density = 22.179607 Si / 1000 Ang^3
#
#
#
# Elastic Constant Matrix: (Units=GPa)
#
#
# Indices 1 2 3 4 5 6 
#
# 1 122.0626 43.9493 19.1847 0.0000 0.0000 0.0000
# 2 43.9493 191.1900 56.9584 0.0000 0.0000 0.0000
# 3 19.1847 56.9584 144.6487 0.0000 0.0000 0.0000
# 4 0.0000 0.0000 0.0000 185.4254 0.0000 0.0000
# 5 0.0000 0.0000 0.0000 0.0000 -9.6185 0.0000
# 6 0.0000 0.0000 0.0000 0.0000 0.0000 47.0767
#
#
#
# Elastic Compliance Matrix: (Units=1/GPa)
#
#
# Indices 1 2 3 4 5 6 
#
# 1 0.008955 -0.001931 -0.000427 0.000000 0.000000 0.000000
# 2 -0.001931 0.006342 -0.002241 0.000000 0.000000 0.000000
# 3 -0.000427 -0.002241 0.007852 0.000000 0.000000 0.000000
# 4 0.000000 0.000000 0.000000 0.005393 0.000000 0.000000
# 5 0.000000 0.000000 0.000000 0.000000 -0.103966 0.000000
# 6 0.000000 0.000000 0.000000 0.000000 0.000000 0.021242
#
#
# Mechanical properties :
#
#
# Convention : Reuss Voigt Hill
#
# Bulk Modulus (GPa) = 71.68334 77.56511 74.62422
# Shear Modulus (GPa) = -123.97072 67.09731 -28.43671
#
# Velocity S-wave (km/s) = -7.48434 5.50613 -3.58454
# Velocity P-wave (km/s) = 6.50365 8.68738 4.07266
#
# Compressibility (1/GPa) = 0.01395024
#
# Stress axis : x y z
#
# Youngs Moduli (GPa) = 111.66924 157.67867 127.34847
#
# Poissons Ratio (x) = 0.30451 0.05441
# Poissons Ratio (y) = 0.21566 0.28541
# Poissons Ratio (z) = 0.04771 0.35338
#
# Static dielectric constant tensor:
#      x y z
#    x 1.862970 0.000000 0.000000 
#    y 0.000000 1.756150 0.000000 
#    z 0.000000 0.000000 1.806140 
# 
# From -- ./inp_files/3241.got.cif
#   From: 2010.05.17/outbox.cif.g08.bks.cpg/sg42_2_cif.got.tgz:3241.got - 2010.06.03 19:03:34.
