data_PCOD9369827
_publ_section_title
;
Structure prediction by ZEFSAII (Michael W. Deem and Ramdas Pophale) SiO2 
 PCOD9369827
Probable space group: F M M 2
;
_chemical_formula_sum "Si O2"
_cell_formula_units_Z 96
_cell_length_a 18.098798
_cell_length_b 20.236084
_cell_length_c 12.011685
_cell_angle_alpha 90.000000
_cell_angle_beta 90.000000
_cell_angle_gamma 90.000000
_cell_volume 4399.265177
_symmetry_space_group_name_H-M "F M M 2"
_symmetry_group_IT_number 42
_symmetry_cell_setting 'orthorhombic'
loop_
_space_group_symop_operation_xyz
x,y,z
-x,-y,z
-x,y,z
x,-y,z
x,1/2+y,1/2+z
-x,1/2-y,1/2+z
-x,1/2+y,1/2+z
x,1/2-y,1/2+z
1/2+x,y,1/2+z
1/2-x,-y,1/2+z
1/2-x,y,1/2+z
1/2+x,-y,1/2+z
1/2+x,1/2+y,z
1/2-x,1/2-y,z
1/2-x,1/2+y,z
1/2+x,1/2-y,z
loop_
_atom_site_type_symbol
_atom_site_label
_atom_site_fract_x
_atom_site_fract_y
_atom_site_fract_z
Si Si1 0.647016 0.362605 0.998600
Si Si2 0.081841 0.500000 0.522198
Si Si3 0.697184 0.079580 0.923138
Si Si4 0.353734 0.632151 0.652213
Si Si5 0.189034 0.667688 0.730395
Si Si6 0.417961 0.726325 0.810127
Si Si7 0.084755 0.500000 0.254615
O O1 0.619591 0.431689 0.049047
O O2 0.724166 0.383447 0.941734
O O3 0.596282 0.326541 0.908810
O O4 0.654843 0.319427 0.108969
O O5 0.080776 0.500000 0.387409
O O6 0.000000 0.500000 0.567596
O O7 0.672246 0.101045 0.800217
O O8 0.703320 0.000000 0.935295
O O9 0.649576 0.111618 0.023171
O O10 0.275253 0.660862 0.696407
O O11 0.412651 0.684630 0.695798
O O12 0.371789 0.564015 0.714716
O O13 0.151073 0.723092 0.808144
O O14 0.500000 0.755986 0.821003
O O15 0.000000 0.500000 0.212185
#
# Coordination Sequence:
#
# PCOD9369827 Si02
#       7
#    16   8  16  16  16  16   8
#     4  11  24  42  69 100 134 176 228 285 343 409
#     4  11  20  35  63  99 133 170 220 278 344 411
#     4  11  23  42  71 102 136 174 225 285 348 413
#     4  11  23  42  69 103 135 178 231 283 345 407
#     4  11  27  43  70  98 141 179 234 282 344 419
#     4  12  26  47  69  97 136 183 236 291 347 412
#     4  11  20  37  67 107 142 174 226 286 345 405
#
# _framework density 21.821826999999999
#
# number of rings (size 3 to 8) (size 9 to 14) (size 15 to 20)
#    0.000    0.833    5.000    1.500    4.667    1.333 
#    0.000    0.833    0.000    0.000    0.000    0.000 
#    0.000    0.000    0.000    0.000    0.000    0.000 
#
# Total GULP energy -133873.034767 kJ/mol
# GULP energy per Si atom -5578.043115 kJ/mol
# Density = 2.177216 g / cm^3
# Si number density = 21.821827 Si / 1000 Ang^3
#
#
#
# Elastic Constant Matrix: (Units=GPa)
#
#
# Indices 1 2 3 4 5 6 
#
# 1 70.2760 24.5745 17.2986 0.0000 0.0000 0.0000
# 2 24.5745 78.3450 8.2467 0.0000 0.0000 0.0000
# 3 17.2986 8.2467 105.2644 0.0000 0.0000 0.0000
# 4 0.0000 0.0000 0.0000 27.0936 0.0000 0.0000
# 5 0.0000 0.0000 0.0000 0.0000 13.4142 0.0000
# 6 0.0000 0.0000 0.0000 0.0000 0.0000 5.9378
#
#
#
# Elastic Compliance Matrix: (Units=1/GPa)
#
#
# Indices 1 2 3 4 5 6 
#
# 1 0.016530 -0.004940 -0.002330 0.000000 0.000000 0.000000
# 2 -0.004940 0.014346 -0.000312 0.000000 0.000000 0.000000
# 3 -0.002330 -0.000312 0.009907 0.000000 0.000000 0.000000
# 4 0.000000 0.000000 0.000000 0.036909 0.000000 0.000000
# 5 0.000000 0.000000 0.000000 0.000000 0.074548 0.000000
# 6 0.000000 0.000000 0.000000 0.000000 0.000000 0.168412
#
#
# Mechanical properties :
#
#
# Convention : Reuss Voigt Hill
#
# Bulk Modulus (GPa) = 39.03064 39.34722 39.18893
# Shear Modulus (GPa) = 14.51984 22.87350 18.69667
#
# Velocity S-wave (km/s) = 2.58230 3.24109 2.93027
# Velocity P-wave (km/s) = 5.17841 5.66361 5.42644
#
# Compressibility (1/GPa) = 0.02562090
#
# Stress axis : x y z
#
# Youngs Moduli (GPa) = 60.49450 69.70388 100.93710
#
# Poissons Ratio (x) = 0.34433 0.23513
# Poissons Ratio (y) = 0.29884 0.03151
# Poissons Ratio (z) = 0.14092 0.02176
#
# Static dielectric constant tensor:
#      x y z
#    x 1.834020 0.000000 0.000000 
#    y 0.000000 1.804790 0.000000 
#    z 0.000000 0.000000 1.787910 
# 
# From -- ./inp_files/9573.got.cif
#   From: 2010.05.17/outbox.cif.g08.bks.cpg/sg42_5_cif.got.tgz:9573.got - 2010.06.03 19:03:34.
