data_PCOD9369759
_publ_section_title
;
Structure prediction by ZEFSAII (Michael W. Deem and Ramdas Pophale) SiO2 
 PCOD9369759
Probable space group: F M M 2
;
_chemical_formula_sum "Si O2"
_cell_formula_units_Z 80
_cell_length_a 19.026972
_cell_length_b 11.243842
_cell_length_c 14.545775
_cell_angle_alpha 90.000000
_cell_angle_beta 90.000000
_cell_angle_gamma 90.000000
_cell_volume 3111.868803
_symmetry_space_group_name_H-M "F M M 2"
_symmetry_group_IT_number 42
_symmetry_cell_setting 'orthorhombic'
loop_
_space_group_symop_operation_xyz
x,y,z
-x,-y,z
-x,y,z
x,-y,z
x,1/2+y,1/2+z
-x,1/2-y,1/2+z
-x,1/2+y,1/2+z
x,1/2-y,1/2+z
1/2+x,y,1/2+z
1/2-x,-y,1/2+z
1/2-x,y,1/2+z
1/2+x,-y,1/2+z
1/2+x,1/2+y,z
1/2-x,1/2-y,z
1/2-x,1/2+y,z
1/2+x,1/2-y,z
loop_
_atom_site_type_symbol
_atom_site_label
_atom_site_fract_x
_atom_site_fract_y
_atom_site_fract_z
Si Si1 0.721489 0.128037 0.799340
Si Si2 0.919671 0.762147 0.557130
Si Si3 0.414818 0.000000 0.551763
Si Si4 0.221489 0.371963 0.091710
Si Si5 0.919671 0.262147 0.833920
Si Si6 0.914818 0.500000 0.339287
O O1 0.750000 0.250000 0.843109
O O2 0.750000 0.126737 0.695525
O O3 0.637668 0.144232 0.802312
O O4 0.741080 0.000000 0.840027
O O5 0.896385 0.629695 0.590201
O O6 0.862332 0.855768 0.588738
O O7 0.919881 0.759750 0.445525
O O8 0.000000 0.785647 0.586066
O O9 0.500000 0.000000 0.551276
O O10 0.392275 0.000000 0.445525
O O11 0.241080 0.500000 0.051023
O O12 0.250000 0.250000 0.047941
O O13 0.000000 0.285648 0.804984
O O14 0.896385 0.129695 0.800849
O O15 0.000000 0.500000 0.339774
#
# Coordination Sequence:
#
# PCOD9369759 Si02
#       6
#    16  16   8  16  16   8
#     4  10  23  42  60  84 123 167 208 251 305 369
#     4   9  18  35  63  96 125 156 201 257 311 361
#     4   7  12  26  51  88 128 156 183 235 308 370
#     4  10  23  42  60  84 123 167 208 251 305 369
#     4   9  18  35  63  96 125 156 201 257 311 361
#     4   7  12  26  51  88 128 156 183 235 308 370
#
# _framework density 25.708026
#
# number of rings (size 3 to 8) (size 9 to 14) (size 15 to 20)
#    0.000    3.000    0.000    2.400    2.800    2.400 
#    0.000    6.000    0.000    2.400    0.000    0.000 
#    0.000    0.000    0.000    0.000    0.000    0.000 
#
# Total GULP energy -111836.732187 kJ/mol
# GULP energy per Si atom -5591.836609 kJ/mol
# Density = 2.564951 g / cm^3
# Si number density = 25.708026 Si / 1000 Ang^3
#
#
#
# Elastic Constant Matrix: (Units=GPa)
#
#
# Indices 1 2 3 4 5 6 
#
# 1 143.2065 57.1221 40.3654 0.0000 0.0000 0.0000
# 2 57.1221 215.2810 10.8948 0.0000 0.0000 0.0000
# 3 40.3654 10.8948 104.9966 0.0000 0.0000 0.0000
# 4 0.0000 0.0000 0.0000 -3.3200 0.0000 0.0000
# 5 0.0000 0.0000 0.0000 0.0000 37.4153 0.0000
# 6 0.0000 0.0000 0.0000 0.0000 0.0000 43.0254
#
#
#
# Elastic Compliance Matrix: (Units=1/GPa)
#
#
# Indices 1 2 3 4 5 6 
#
# 1 0.008726 -0.002157 -0.003131 0.000000 0.000000 0.000000
# 2 -0.002157 0.005203 0.000289 0.000000 0.000000 0.000000
# 3 -0.003131 0.000289 0.010698 0.000000 0.000000 0.000000
# 4 0.000000 0.000000 0.000000 -0.301202 0.000000 0.000000
# 5 0.000000 0.000000 0.000000 0.000000 0.026727 0.000000
# 6 0.000000 0.000000 0.000000 0.000000 0.000000 0.023242
#
#
# Mechanical properties :
#
#
# Convention : Reuss Voigt Hill
#
# Bulk Modulus (GPa) = 68.35438 75.58320 71.96879
# Shear Modulus (GPa) = -23.61457 39.09756 7.74150
#
# Velocity S-wave (km/s) = -3.03408 3.90401 1.73720
# Velocity P-wave (km/s) = 3.79108 7.05593 5.66386
#
# Compressibility (1/GPa) = 0.01462964
#
# Stress axis : x y z
#
# Youngs Moduli (GPa) = 114.60405 192.20662 93.47804
#
# Poissons Ratio (x) = 0.41455 0.29266
# Poissons Ratio (y) = 0.24718 -0.02705
# Poissons Ratio (z) = 0.35880 -0.05561
#
# Static dielectric constant tensor:
#      x y z
#    x 2.025140 0.000000 0.000000 
#    y 0.000000 2.051410 0.000000 
#    z 0.000000 0.000000 1.969050 
# 
# From -- ./inp_files/21497.got.cif
#   From: 2010.05.17/outbox.cif.g08.bks.cpg/sg42_11_cif.got.tgz:21497.got - 2010.06.03 19:03:34.
