data_PCOD9369410
_publ_section_title
;
Structure prediction by ZEFSAII (Michael W. Deem and Ramdas Pophale) SiO2 
 PCOD9369410
Probable space group: F M M 2
;
_chemical_formula_sum "Si O2"
_cell_formula_units_Z 104
_cell_length_a 13.477398
_cell_length_b 23.439474
_cell_length_c 17.133249
_cell_angle_alpha 90.000000
_cell_angle_beta 90.000000
_cell_angle_gamma 90.000000
_cell_volume 5412.446815
_symmetry_space_group_name_H-M "F M M 2"
_symmetry_group_IT_number 42
_symmetry_cell_setting 'orthorhombic'
loop_
_space_group_symop_operation_xyz
x,y,z
-x,-y,z
-x,y,z
x,-y,z
x,1/2+y,1/2+z
-x,1/2-y,1/2+z
-x,1/2+y,1/2+z
x,1/2-y,1/2+z
1/2+x,y,1/2+z
1/2-x,-y,1/2+z
1/2-x,y,1/2+z
1/2+x,-y,1/2+z
1/2+x,1/2+y,z
1/2-x,1/2-y,z
1/2-x,1/2+y,z
1/2+x,1/2-y,z
loop_
_atom_site_type_symbol
_atom_site_label
_atom_site_fract_x
_atom_site_fract_y
_atom_site_fract_z
Si Si1 0.615874 0.718144 0.307710
Si Si2 0.883250 0.931806 0.165487
Si Si3 0.756108 0.936513 0.814524
Si Si4 0.616687 0.113335 0.926006
Si Si5 0.250000 0.250000 0.165476
Si Si6 0.760935 0.147215 0.050525
Si Si7 0.117588 0.838565 0.892576
O O1 0.500000 0.711621 0.291661
O O2 0.640175 0.668270 0.369762
O O3 0.670682 0.722796 0.225308
O O4 0.633494 0.778775 0.349050
O O5 0.813329 0.921319 0.240732
O O6 0.829635 0.897288 0.096976
O O7 0.000000 0.915710 0.177030
O O8 0.882100 0.000000 0.151062
O O9 0.678384 0.936396 0.885709
O O10 0.836983 0.889637 0.839863
O O11 0.797993 0.000000 0.802600
O O12 0.500000 0.104794 0.926060
O O13 0.662134 0.122382 0.010984
O O14 0.272996 0.197972 0.107360
O O15 0.827488 0.165161 0.975796
O O16 0.000000 0.847005 0.903521
#
# Coordination Sequence:
#
# PCOD9369410 Si02
#       7
#    16  16  16  16   8  16  16
#     4  10  21  37  58  81 106 145 191 228 271 324
#     4  10  21  38  59  83 112 144 182 230 278 327
#     4  10  21  37  59  84 107 141 189 231 272 324
#     4  10  21  38  58  80 110 146 186 231 274 324
#     4  12  22  34  54  82 116 146 178 228 278 324
#     4  11  22  34  54  83 114 147 181 221 280 337
#     4  10  21  38  58  81 112 147 185 228 272 325
#
# _framework density 19.214970000000001
#
# number of rings (size 3 to 8) (size 9 to 14) (size 15 to 20)
#    0.000    1.692    0.000    5.538    0.000    6.769 
#    0.000    0.769    0.000    0.923    0.000    0.000 
#    0.000    0.000    0.000    0.000    0.000    0.000 
#
# Total GULP energy -145066.630371 kJ/mol
# GULP energy per Si atom -5579.485784 kJ/mol
# Density = 1.917124 g / cm^3
# Si number density = 19.214970 Si / 1000 Ang^3
#
#
#
# Elastic Constant Matrix: (Units=GPa)
#
#
# Indices 1 2 3 4 5 6 
#
# 1 39.1878 5.7680 -12.0566 0.0000 0.0000 0.0000
# 2 5.7680 72.7131 11.7854 0.0000 0.0000 0.0000
# 3 -12.0566 11.7854 72.8786 0.0000 0.0000 0.0000
# 4 0.0000 0.0000 0.0000 15.4377 0.0000 0.0000
# 5 0.0000 0.0000 0.0000 0.0000 18.1226 0.0000
# 6 0.0000 0.0000 0.0000 0.0000 0.0000 22.0154
#
#
#
# Elastic Compliance Matrix: (Units=1/GPa)
#
#
# Indices 1 2 3 4 5 6 
#
# 1 0.027509 -0.002998 0.005036 0.000000 0.000000 0.000000
# 2 -0.002998 0.014450 -0.002833 0.000000 0.000000 0.000000
# 3 0.005036 -0.002833 0.015013 0.000000 0.000000 0.000000
# 4 0.000000 0.000000 0.000000 0.064776 0.000000 0.000000
# 5 0.000000 0.000000 0.000000 0.000000 0.055180 0.000000
# 6 0.000000 0.000000 0.000000 0.000000 0.000000 0.045423
#
#
# Mechanical properties :
#
#
# Convention : Reuss Voigt Hill
#
# Bulk Modulus (GPa) = 18.05692 21.75258 19.90475
# Shear Modulus (GPa) = 20.62701 23.06733 21.84717
#
# Velocity S-wave (km/s) = 3.27996 3.46856 3.37558
# Velocity P-wave (km/s) = 4.87462 5.23321 5.05709
#
# Compressibility (1/GPa) = 0.05538044
#
# Stress axis : x y z
#
# Youngs Moduli (GPa) = 36.35201 69.20579 66.61057
#
# Poissons Ratio (x) = 0.20750 -0.33544
# Poissons Ratio (y) = 0.10900 0.18869
# Poissons Ratio (z) = -0.18306 0.19604
#
# Static dielectric constant tensor:
#      x y z
#    x 1.673340 0.000000 0.000000 
#    y 0.000000 1.711100 0.000000 
#    z 0.000000 0.000000 1.678330 
# 
# From -- ./inp_files/14266.got.cif
#   From: 2010.05.17/outbox.cif.g08.bks.cpg/sg42_8_cif.got.tgz:14266.got - 2010.06.03 19:03:34.
