data_PCOD9369246
_publ_section_title
;
Structure prediction by ZEFSAII (Michael W. Deem and Ramdas Pophale) SiO2 
 PCOD9369246
Probable space group: F M M 2
;
_chemical_formula_sum "Si O2"
_cell_formula_units_Z 88
_cell_length_a 30.945003
_cell_length_b 11.929170
_cell_length_c 13.615422
_cell_angle_alpha 90.000000
_cell_angle_beta 90.000000
_cell_angle_gamma 90.000000
_cell_volume 5026.108543
_symmetry_space_group_name_H-M "F M M 2"
_symmetry_group_IT_number 42
_symmetry_cell_setting 'orthorhombic'
loop_
_space_group_symop_operation_xyz
x,y,z
-x,-y,z
-x,y,z
x,-y,z
x,1/2+y,1/2+z
-x,1/2-y,1/2+z
-x,1/2+y,1/2+z
x,1/2-y,1/2+z
1/2+x,y,1/2+z
1/2-x,-y,1/2+z
1/2-x,y,1/2+z
1/2+x,-y,1/2+z
1/2+x,1/2+y,z
1/2-x,1/2-y,z
1/2-x,1/2+y,z
1/2+x,1/2-y,z
loop_
_atom_site_type_symbol
_atom_site_label
_atom_site_fract_x
_atom_site_fract_y
_atom_site_fract_z
Si Si1 0.773375 0.000000 0.868050
Si Si2 0.658931 0.626134 0.982614
Si Si3 0.178133 0.000000 0.439111
Si Si4 0.175490 0.500000 0.169853
Si Si5 0.613385 0.308060 0.365875
Si Si6 0.874148 0.730871 0.153292
Si Si7 0.949934 0.867126 0.523052
O O1 0.795803 0.104854 0.925885
O O2 0.722575 0.000000 0.880282
O O3 0.788719 0.000000 0.755312
O O4 0.644171 0.500000 0.007025
O O5 0.626841 0.686733 0.907381
O O6 0.657458 0.701428 0.079791
O O7 0.148821 0.106608 0.410855
O O8 0.189047 0.000000 0.555138
O O9 0.147677 0.386983 0.181885
O O10 0.615707 0.302656 0.249479
O O11 0.568181 0.343473 0.413858
O O12 0.917717 0.700184 0.094187
O O13 0.000000 0.837589 0.533912
O O14 0.944843 0.000000 0.542619
#
# Coordination Sequence:
#
# PCOD9369246 Si02
#       7
#     8  16   8   8  16  16  16
#     4  10  24  40  58  88 126 149 212 251 290 361
#     4   9  20  38  54  88 116 159 192 248 296 351
#     4  12  24  40  60  92 114 162 210 246 302 349
#     4  12  20  42  60  88 108 167 208 237 302 352
#     4  11  21  38  62  85 125 158 198 250 307 360
#     4  11  20  37  66  83 122 162 200 245 309 362
#     4  10  20  38  63  92 120 155 207 256 294 366
#
# _framework density 17.508575
#
# number of rings (size 3 to 8) (size 9 to 14) (size 15 to 20)
#    0.545    0.909    7.273    0.000    1.273    2.909 
#    0.000    1.818    0.000    8.727    0.000    0.000 
#    0.000    0.000    0.000    0.000    0.000    0.000 
#
# Total GULP energy -122580.319368 kJ/mol
# GULP energy per Si atom -5571.832699 kJ/mol
# Density = 1.746872 g / cm^3
# Si number density = 17.508575 Si / 1000 Ang^3
#
#
#
# Elastic Constant Matrix: (Units=GPa)
#
#
# Indices 1 2 3 4 5 6 
#
# 1 89.7465 26.6270 30.9991 0.0000 0.0000 0.0000
# 2 26.6270 82.0112 24.0904 0.0000 0.0000 0.0000
# 3 30.9991 24.0904 133.6218 0.0000 0.0000 0.0000
# 4 0.0000 0.0000 0.0000 21.6698 0.0000 0.0000
# 5 0.0000 0.0000 0.0000 0.0000 25.0559 0.0000
# 6 0.0000 0.0000 0.0000 0.0000 0.0000 11.5744
#
#
#
# Elastic Compliance Matrix: (Units=1/GPa)
#
#
# Indices 1 2 3 4 5 6 
#
# 1 0.013011 -0.003524 -0.002383 0.000000 0.000000 0.000000
# 2 -0.003524 0.013830 -0.001676 0.000000 0.000000 0.000000
# 3 -0.002383 -0.001676 0.008339 0.000000 0.000000 0.000000
# 4 0.000000 0.000000 0.000000 0.046147 0.000000 0.000000
# 5 0.000000 0.000000 0.000000 0.000000 0.039911 0.000000
# 6 0.000000 0.000000 0.000000 0.000000 0.000000 0.086398
#
#
# Mechanical properties :
#
#
# Convention : Reuss Voigt Hill
#
# Bulk Modulus (GPa) = 49.96617 52.09028 51.02822
# Shear Modulus (GPa) = 21.78900 26.57088 24.17994
#
# Velocity S-wave (km/s) = 3.53154 3.89986 3.72026
# Velocity P-wave (km/s) = 6.72526 7.07774 6.90375
#
# Compressibility (1/GPa) = 0.02001354
#
# Stress axis : x y z
#
# Youngs Moduli (GPa) = 76.85630 72.30670 119.92152
#
# Poissons Ratio (x) = 0.25484 0.28579
# Poissons Ratio (y) = 0.27087 0.20096
# Poissons Ratio (z) = 0.18316 0.12117
#
# Static dielectric constant tensor:
#      x y z
#    x 1.561550 0.000000 0.000000 
#    y 0.000000 1.613130 0.000000 
#    z 0.000000 0.000000 1.617570 
# 
# From -- ./inp_files/16980.got.cif
#   From: 2010.05.17/outbox.cif.g08.bks.cpg/sg42_9_cif.got.tgz:16980.got - 2010.06.03 19:03:34.
