data_PCOD9369235
_publ_section_title
;
Structure prediction by ZEFSAII (Michael W. Deem and Ramdas Pophale) SiO2 
 PCOD9369235
Probable space group: F M M 2
;
_chemical_formula_sum "Si O2"
_cell_formula_units_Z 128
_cell_length_a 24.974556
_cell_length_b 23.507573
_cell_length_c 11.089461
_cell_angle_alpha 90.000000
_cell_angle_beta 90.000000
_cell_angle_gamma 90.000000
_cell_volume 6510.524947
_symmetry_space_group_name_H-M "F M M 2"
_symmetry_group_IT_number 42
_symmetry_cell_setting 'orthorhombic'
loop_
_space_group_symop_operation_xyz
x,y,z
-x,-y,z
-x,y,z
x,-y,z
x,1/2+y,1/2+z
-x,1/2-y,1/2+z
-x,1/2+y,1/2+z
x,1/2-y,1/2+z
1/2+x,y,1/2+z
1/2-x,-y,1/2+z
1/2-x,y,1/2+z
1/2+x,-y,1/2+z
1/2+x,1/2+y,z
1/2-x,1/2-y,z
1/2-x,1/2+y,z
1/2+x,1/2-y,z
loop_
_atom_site_type_symbol
_atom_site_label
_atom_site_fract_x
_atom_site_fract_y
_atom_site_fract_z
Si Si1 0.884830 0.147912 0.093180
Si Si2 0.938821 0.861233 0.739708
Si Si3 0.938504 0.357730 0.957415
Si Si4 0.253224 0.119259 0.846923
Si Si5 0.436257 0.734404 0.927197
Si Si6 0.138152 0.934094 0.874277
Si Si7 0.738215 0.816461 0.598231
Si Si8 0.129998 0.067119 0.311125
O O1 0.921082 0.200294 0.048910
O O2 0.825359 0.173148 0.100542
O O3 0.894891 0.109755 0.210445
O O4 0.884035 0.102102 0.985860
O O5 0.940441 0.847946 0.599935
O O6 0.897386 0.911513 0.764186
O O7 0.000000 0.875268 0.779096
O O8 0.920589 0.806632 0.817161
O O9 0.914068 0.297901 0.910470
O O10 0.000000 0.366158 0.914778
O O11 0.902440 0.411856 0.927493
O O12 0.200596 0.080571 0.860117
O O13 0.242848 0.157327 0.726644
O O14 0.307485 0.083744 0.824116
O O15 0.258625 0.153632 0.973961
O O16 0.500000 0.758831 0.426131
O O17 0.131083 0.000000 0.894792
O O18 0.750000 0.750000 0.592920
O O19 0.124441 0.000000 0.286271
#
# Coordination Sequence:
#
# PCOD9369235 Si02
#       8
#    16  16  16  16  16  16  16  16
#     4   9  21  38  59  87 117 154 193 251 300 349
#     4   9  20  38  58  89 121 148 196 254 304 356
#     4  10  23  39  59  88 121 158 197 247 307 363
#     4  10  23  39  58  89 119 162 209 246 302 363
#     4   9  19  37  62  88 116 151 197 247 301 365
#     4  10  20  38  62  84 114 160 206 250 294 351
#     4  10  21  38  58  86 122 153 195 251 306 363
#     4  11  24  41  59  86 124 164 204 249 298 360
#
# _framework density 19.660473
#
# number of rings (size 3 to 8) (size 9 to 14) (size 15 to 20)
#    0.000    2.250    0.000    1.125    5.250    1.500 
#    4.500    2.500    0.000    2.250    0.000    0.000 
#    0.000    0.000    0.000    0.000    0.000    0.000 
#
# Total GULP energy -178425.093987 kJ/mol
# GULP energy per Si atom -5575.784187 kJ/mol
# Density = 1.961572 g / cm^3
# Si number density = 19.660473 Si / 1000 Ang^3
#
#
#
# Elastic Constant Matrix: (Units=GPa)
#
#
# Indices 1 2 3 4 5 6 
#
# 1 27.6340 23.1916 0.6751 0.0000 0.0000 0.0000
# 2 23.1916 127.2068 19.5676 0.0001 -0.0001 0.0000
# 3 0.6751 19.5676 72.5753 0.0003 -0.0002 -0.0001
# 4 0.0000 0.0001 0.0003 17.6811 -0.0001 0.0000
# 5 0.0000 -0.0001 -0.0002 -0.0001 24.7884 0.0000
# 6 0.0000 0.0000 -0.0001 0.0000 0.0000 17.7045
#
#
#
# Elastic Compliance Matrix: (Units=1/GPa)
#
#
# Indices 1 2 3 4 5 6 
#
# 1 0.042945 -0.008104 0.001786 0.000000 0.000000 0.000000
# 2 -0.008104 0.009731 -0.002548 0.000000 0.000000 0.000000
# 3 0.001786 -0.002548 0.014449 0.000000 0.000000 0.000000
# 4 0.000000 0.000000 0.000000 0.056558 0.000000 0.000000
# 5 0.000000 0.000000 0.000000 0.000000 0.040342 0.000000
# 6 0.000000 0.000000 0.000000 0.000000 0.000000 0.056483
#
#
# Mechanical properties :
#
#
# Convention : Reuss Voigt Hill
#
# Bulk Modulus (GPa) = 20.24648 34.92054 27.58351
# Shear Modulus (GPa) = 19.63062 24.30024 21.96543
#
# Velocity S-wave (km/s) = 3.16330 3.51949 3.34614
# Velocity P-wave (km/s) = 4.86440 5.85799 5.38417
#
# Compressibility (1/GPa) = 0.04939131
#
# Stress axis : x y z
#
# Youngs Moduli (GPa) = 23.28560 102.76758 69.20794
#
# Poissons Ratio (x) = 0.83284 -0.12357
# Poissons Ratio (y) = 0.18871 0.17635
# Poissons Ratio (z) = -0.04158 0.26187
#
# Static dielectric constant tensor:
#      x y z
#    x 1.687840 0.000000 0.000000 
#    y 0.000000 1.670810 0.000000 
#    z 0.000000 0.000000 1.761750 
# 
# From -- ./inp_files/10368.got.cif
#   From: 2010.05.17/outbox.cif.g08.bks.cpg/sg42_6_cif.got.tgz:10368.got - 2010.06.03 19:03:34.
