data_PCOD9369124
_publ_section_title
;
Structure prediction by ZEFSAII (Michael W. Deem and Ramdas Pophale) SiO2 
 PCOD9369124
Probable space group: F M M 2
;
_chemical_formula_sum "Si O2"
_cell_formula_units_Z 96
_cell_length_a 26.442950
_cell_length_b 16.746757
_cell_length_c 11.227112
_cell_angle_alpha 90.000000
_cell_angle_beta 90.000000
_cell_angle_gamma 90.000000
_cell_volume 4971.743076
_symmetry_space_group_name_H-M "F M M 2"
_symmetry_group_IT_number 42
_symmetry_cell_setting 'orthorhombic'
loop_
_space_group_symop_operation_xyz
x,y,z
-x,-y,z
-x,y,z
x,-y,z
x,1/2+y,1/2+z
-x,1/2-y,1/2+z
-x,1/2+y,1/2+z
x,1/2-y,1/2+z
1/2+x,y,1/2+z
1/2-x,-y,1/2+z
1/2-x,y,1/2+z
1/2+x,-y,1/2+z
1/2+x,1/2+y,z
1/2-x,1/2-y,z
1/2-x,1/2+y,z
1/2+x,1/2-y,z
loop_
_atom_site_type_symbol
_atom_site_label
_atom_site_fract_x
_atom_site_fract_y
_atom_site_fract_z
Si Si1 0.632476 0.648693 0.811710
Si Si2 0.442633 0.088639 0.121741
Si Si3 0.393792 0.305862 0.429639
Si Si4 0.557524 0.593429 0.226360
Si Si5 0.854891 0.589361 0.562779
Si Si6 0.190525 0.242504 0.610402
O O1 0.596918 0.597280 0.727543
O O2 0.599512 0.718807 0.873376
O O3 0.673456 0.692884 0.727190
O O4 0.653702 0.599042 0.921960
O O5 0.500000 0.094690 0.163812
O O6 0.436599 0.000000 0.065616
O O7 0.430741 0.160340 0.031169
O O8 0.405402 0.364977 0.320931
O O9 0.339783 0.297561 0.498622
O O10 0.500000 0.625705 0.228157
O O11 0.554500 0.500000 0.255823
O O12 0.586130 0.598799 0.099906
O O13 0.839479 0.500000 0.601713
O O14 0.828418 0.666121 0.620166
O O15 0.250000 0.250000 0.592658
#
# Coordination Sequence:
#
# PCOD9369124 Si02
#       6
#    16  16  16  16  16  16
#     4  10  21  38  58  84 116 156 196 246 302 354
#     4  10  21  36  55  82 117 156 194 238 292 349
#     4  10  20  37  57  87 114 150 200 244 294 354
#     4  10  20  36  60  89 126 168 202 243 301 364
#     4  10  21  40  61  88 123 157 203 251 295 363
#     4  10  22  42  66  84 118 158 200 255 318 362
#
# _framework density 19.309124000000001
#
# number of rings (size 3 to 8) (size 9 to 14) (size 15 to 20)
#    0.000    2.000    1.667    1.500    0.000    6.000 
#    0.000    9.167    0.000    0.000    0.000    0.000 
#    0.000    0.000    0.000    0.000    0.000    0.000 
#
# Total GULP energy -133628.043389 kJ/mol
# GULP energy per Si atom -5567.835141 kJ/mol
# Density = 1.926518 g / cm^3
# Si number density = 19.309124 Si / 1000 Ang^3
#
#
#
# Elastic Constant Matrix: (Units=GPa)
#
#
# Indices 1 2 3 4 5 6 
#
# 1 117.4336 50.6381 31.1425 0.0000 0.0000 0.0000
# 2 50.6381 77.5419 12.5660 0.0000 0.0000 0.0000
# 3 31.1425 12.5660 76.2078 0.0000 0.0000 0.0000
# 4 0.0000 0.0000 0.0000 26.9500 0.0000 0.0000
# 5 0.0000 0.0000 0.0000 0.0000 5.4235 0.0000
# 6 0.0000 0.0000 0.0000 0.0000 0.0000 17.7163
#
#
#
# Elastic Compliance Matrix: (Units=1/GPa)
#
#
# Indices 1 2 3 4 5 6 
#
# 1 0.012941 -0.007803 -0.004002 0.000000 0.000000 0.000000
# 2 -0.007803 0.017955 0.000228 0.000000 0.000000 0.000000
# 3 -0.004002 0.000228 0.014720 0.000000 0.000000 0.000000
# 4 0.000000 0.000000 0.000000 0.037106 0.000000 0.000000
# 5 0.000000 0.000000 0.000000 0.000000 0.184384 0.000000
# 6 0.000000 0.000000 0.000000 0.000000 0.000000 0.056445
#
#
# Mechanical properties :
#
#
# Convention : Reuss Voigt Hill
#
# Bulk Modulus (GPa) = 44.51820 51.09738 47.80779
# Shear Modulus (GPa) = 14.11666 21.80709 17.96187
#
# Velocity S-wave (km/s) = 2.70680 3.36425 3.05327
# Velocity P-wave (km/s) = 5.73364 6.45067 6.10269
#
# Compressibility (1/GPa) = 0.02246272
#
# Stress axis : x y z
#
# Youngs Moduli (GPa) = 77.27211 55.69546 67.93572
#
# Poissons Ratio (x) = 0.43457 0.27187
# Poissons Ratio (y) = 0.60293 -0.01549
# Poissons Ratio (z) = 0.30923 -0.01270
#
# Static dielectric constant tensor:
#      x y z
#    x 1.661250 0.000000 0.000000 
#    y 0.000000 1.709160 0.000000 
#    z 0.000000 0.000000 1.721410 
# 
# From -- ./inp_files/10148.got.cif
#   From: 2010.05.17/outbox.cif.g08.bks.cpg/sg42_6_cif.got.tgz:10148.got - 2010.06.03 19:03:34.
