data_PCOD9369575
_publ_section_title
;
Structure prediction by ZEFSAII (Michael W. Deem and Ramdas Pophale) SiO2 
 PCOD9369575
Probable space group: F M M 2
;
_chemical_formula_sum "Si O2"
_cell_formula_units_Z 112
_cell_length_a 15.694173
_cell_length_b 28.133629
_cell_length_c 11.801617
_cell_angle_alpha 90.000000
_cell_angle_beta 90.000000
_cell_angle_gamma 90.000000
_cell_volume 5210.815640
_symmetry_space_group_name_H-M "F M M 2"
_symmetry_group_IT_number 42
_symmetry_cell_setting 'orthorhombic'
loop_
_space_group_symop_operation_xyz
x,y,z
-x,-y,z
-x,y,z
x,-y,z
x,1/2+y,1/2+z
-x,1/2-y,1/2+z
-x,1/2+y,1/2+z
x,1/2-y,1/2+z
1/2+x,y,1/2+z
1/2-x,-y,1/2+z
1/2-x,y,1/2+z
1/2+x,-y,1/2+z
1/2+x,1/2+y,z
1/2-x,1/2-y,z
1/2-x,1/2+y,z
1/2+x,1/2-y,z
loop_
_atom_site_type_symbol
_atom_site_label
_atom_site_fract_x
_atom_site_fract_y
_atom_site_fract_z
Si Si1 0.767473 0.554345 0.861760
Si Si2 0.148585 0.123174 0.542362
Si Si3 0.098806 0.309122 0.843183
Si Si4 0.099432 0.053320 0.152380
Si Si5 0.830926 0.848668 0.114587
Si Si6 0.904516 0.106909 0.785053
Si Si7 0.600572 0.293677 0.907875
O O1 0.753535 0.500000 0.893676
O O2 0.833413 0.555122 0.755894
O O3 0.677091 0.577364 0.827589
O O4 0.813795 0.581949 0.962818
O O5 0.105551 0.160949 0.458689
O O6 0.231262 0.146434 0.598872
O O7 0.095223 0.105115 0.648490
O O8 0.146686 0.335856 0.742714
O O9 0.134377 0.256195 0.861514
O O10 0.000000 0.306338 0.808396
O O11 0.123780 0.100821 0.083551
O O12 0.000000 0.057925 0.188116
O O13 0.107616 0.000000 0.101042
O O14 0.862024 0.808877 0.028015
O O15 0.889195 0.161294 0.825309
O O16 0.000000 0.092865 0.826347
O O17 0.500000 0.286343 0.924039
#
# Coordination Sequence:
#
# PCOD9369575 Si02
#       7
#    16  16  16  16  16  16  16
#     4  11  24  45  69  99 140 180 228 284 348 417
#     4  12  24  43  66 104 135 181 226 289 345 408
#     4  11  25  45  69  97 134 185 237 282 341 411
#     4  10  21  40  70 102 133 177 235 292 343 402
#     4  12  23  43  70  98 140 175 230 291 348 414
#     4  11  24  46  69  98 143 184 229 284 346 415
#     4  10  24  44  67  99 136 182 234 287 342 406
#
# _framework density 21.493756000000001
#
# number of rings (size 3 to 8) (size 9 to 14) (size 15 to 20)
#    0.000    1.000    4.286    1.714    2.000    2.571 
#    0.000    0.000    0.000    0.000    0.000    0.000 
#    0.000    0.000    0.000    0.000    0.000    0.000 
#
# Total GULP energy -156546.012613 kJ/mol
# GULP energy per Si atom -5590.929022 kJ/mol
# Density = 2.144484 g / cm^3
# Si number density = 21.493756 Si / 1000 Ang^3
#
#
#
# Elastic Constant Matrix: (Units=GPa)
#
#
# Indices 1 2 3 4 5 6 
#
# 1 89.6050 26.7477 11.8171 0.0000 0.0000 0.0000
# 2 26.7477 101.3215 4.7694 0.0000 0.0000 0.0000
# 3 11.8171 4.7694 54.3856 0.0000 0.0000 0.0000
# 4 0.0000 0.0000 0.0000 13.6573 0.0000 0.0000
# 5 0.0000 0.0000 0.0000 0.0000 97.8449 0.0000
# 6 0.0000 0.0000 0.0000 0.0000 0.0000 28.1963
#
#
#
# Elastic Compliance Matrix: (Units=1/GPa)
#
#
# Indices 1 2 3 4 5 6 
#
# 1 0.012425 -0.003166 -0.002422 0.000000 0.000000 0.000000
# 2 -0.003166 0.010717 -0.000252 0.000000 0.000000 0.000000
# 3 -0.002422 -0.000252 0.018936 0.000000 0.000000 0.000000
# 4 0.000000 0.000000 0.000000 0.073221 0.000000 0.000000
# 5 0.000000 0.000000 0.000000 0.000000 0.010220 0.000000
# 6 0.000000 0.000000 0.000000 0.000000 0.000000 0.035466
#
#
# Mechanical properties :
#
#
# Convention : Reuss Voigt Hill
#
# Bulk Modulus (GPa) = 32.89737 36.88671 34.89204
# Shear Modulus (GPa) = 27.35284 41.40489 34.37887
#
# Velocity S-wave (km/s) = 3.57121 4.39380 4.00369
# Velocity P-wave (km/s) = 5.68714 6.55283 6.13527
#
# Compressibility (1/GPa) = 0.03039756
#
# Stress axis : x y z
#
# Youngs Moduli (GPa) = 80.48576 93.30793 52.81060
#
# Poissons Ratio (x) = 0.29541 0.12791
# Poissons Ratio (y) = 0.25481 0.01331
# Poissons Ratio (z) = 0.19494 0.02351
#
# Static dielectric constant tensor:
#      x y z
#    x 1.721220 0.000000 0.000000 
#    y 0.000000 1.788310 0.000000 
#    z 0.000000 0.000000 1.783960 
# 
# From -- ./inp_files/8115.got.cif
#   From: 2010.05.17/outbox.cif.g08.bks.cpg/sg42_5_cif.got.tgz:8115.got - 2010.06.03 19:03:34.
