data_PCOD9369365
_publ_section_title
;
Structure prediction by ZEFSAII (Michael W. Deem and Ramdas Pophale) SiO2 
 PCOD9369365
Probable space group: F M M 2
;
_chemical_formula_sum "Si O2"
_cell_formula_units_Z 80
_cell_length_a 18.597860
_cell_length_b 8.799788
_cell_length_c 26.261198
_cell_angle_alpha 90.000000
_cell_angle_beta 90.000000
_cell_angle_gamma 90.000000
_cell_volume 4297.834797
_symmetry_space_group_name_H-M "F M M 2"
_symmetry_group_IT_number 42
_symmetry_cell_setting 'orthorhombic'
loop_
_space_group_symop_operation_xyz
x,y,z
-x,-y,z
-x,y,z
x,-y,z
x,1/2+y,1/2+z
-x,1/2-y,1/2+z
-x,1/2+y,1/2+z
x,1/2-y,1/2+z
1/2+x,y,1/2+z
1/2-x,-y,1/2+z
1/2-x,y,1/2+z
1/2+x,-y,1/2+z
1/2+x,1/2+y,z
1/2-x,1/2-y,z
1/2-x,1/2+y,z
1/2+x,1/2-y,z
loop_
_atom_site_type_symbol
_atom_site_label
_atom_site_fract_x
_atom_site_fract_y
_atom_site_fract_z
Si Si1 0.415869 0.316569 0.429040
Si Si2 0.670615 0.683372 0.327535
Si Si3 0.084946 0.818982 0.617809
Si Si4 0.915650 0.182353 0.227165
Si Si5 0.170414 0.181042 0.023836
O O1 0.500000 0.276779 0.428004
O O2 0.410782 0.500000 0.434281
O O3 0.377079 0.273061 0.376372
O O4 0.375916 0.240625 0.476271
O O5 0.674475 0.500000 0.327109
O O6 0.750000 0.750000 0.331564
O O7 0.631996 0.730747 0.275120
O O8 0.104139 0.763135 0.674458
O O9 0.131750 0.737067 0.575218
O O10 0.000000 0.784377 0.610145
O O11 0.094148 0.000000 0.613707
O O12 0.000000 0.213529 0.237599
O O13 0.908555 0.000000 0.220765
O O14 0.250000 0.250000 0.020775
O O15 0.174462 0.000000 0.022952
#
# Coordination Sequence:
#
# PCOD9369365 Si02
#       5
#    16  16  16  16  16
#     4  10  21  39  62  86 114 149 189 233 282 337
#     4  10  21  36  56  83 115 151 188 230 282 337
#     4  10  21  38  60  86 116 150 189 234 284 337
#     4   9  18  35  58  82 110 148 194 237 277 329
#     4  12  25  40  59  84 115 150 189 234 285 339
#
# _framework density 18.614025000000002
#
# number of rings (size 3 to 8) (size 9 to 14) (size 15 to 20)
#    0.000    1.800    0.000    4.200    0.000   10.400 
#    0.000    2.000    0.000    3.600    0.000    0.000 
#    0.000    0.000    0.000    0.000    0.000    0.000 
#
# Total GULP energy -111790.133463 kJ/mol
# GULP energy per Si atom -5589.506673 kJ/mol
# Density = 1.857166 g / cm^3
# Si number density = 18.614025 Si / 1000 Ang^3
#
#
#
# Elastic Constant Matrix: (Units=GPa)
#
#
# Indices 1 2 3 4 5 6 
#
# 1 165.5729 71.2714 130.9209 0.0000 0.0000 0.0000
# 2 71.2714 57.4075 71.4883 0.0000 0.0000 0.0000
# 3 130.9209 71.4883 186.7493 0.0000 0.0000 0.0000
# 4 0.0000 0.0000 0.0000 32.1959 0.0000 0.0000
# 5 0.0000 0.0000 0.0000 0.0000 -76.1881 0.0000
# 6 0.0000 0.0000 0.0000 0.0000 0.0000 32.3055
#
#
#
# Elastic Compliance Matrix: (Units=1/GPa)
#
#
# Indices 1 2 3 4 5 6 
#
# 1 0.016980 -0.011957 -0.007327 0.000000 0.000000 0.000000
# 2 -0.011957 0.041707 -0.007583 0.000000 0.000000 0.000000
# 3 -0.007327 -0.007583 0.013394 0.000000 0.000000 0.000000
# 4 0.000000 0.000000 0.000000 0.031060 0.000000 0.000000
# 5 0.000000 0.000000 0.000000 0.000000 -0.013125 0.000000
# 6 0.000000 0.000000 0.000000 0.000000 0.000000 0.030954
#
#
# Mechanical properties :
#
#
# Convention : Reuss Voigt Hill
#
# Bulk Modulus (GPa) = 54.50344 106.34343 80.42344
# Shear Modulus (GPa) = 27.65212 6.73260 17.19236
#
# Velocity S-wave (km/s) = 3.85847 1.90389 3.04242
# Velocity P-wave (km/s) = 7.01390 7.87959 7.45931
#
# Compressibility (1/GPa) = 0.01834747
#
# Stress axis : x y z
#
# Youngs Moduli (GPa) = 58.89435 23.97690 74.66031
#
# Poissons Ratio (x) = 0.28668 0.54700
# Poissons Ratio (y) = 0.70417 0.56618
# Poissons Ratio (z) = 0.43149 0.18183
#
# Static dielectric constant tensor:
#      x y z
#    x 1.613230 0.000000 0.000000 
#    y 0.000000 1.626650 0.000000 
#    z 0.000000 0.000000 1.615210 
# 
# From -- ./inp_files/31242.got.cif
#   From: 2010.05.17/outbox.cif.g08.bks.cpg/sg42_16_cif.got.tgz:31242.got - 2010.06.03 19:03:34.
