data_PCOD9369444
_publ_section_title
;
Structure prediction by ZEFSAII (Michael W. Deem and Ramdas Pophale) SiO2 
 PCOD9369444
Probable space group: F M M 2
;
_chemical_formula_sum "Si O2"
_cell_formula_units_Z 104
_cell_length_a 18.719683
_cell_length_b 23.511898
_cell_length_c 13.770953
_cell_angle_alpha 90.000000
_cell_angle_beta 90.000000
_cell_angle_gamma 90.000000
_cell_volume 6061.082217
_symmetry_space_group_name_H-M "F M M 2"
_symmetry_group_IT_number 42
_symmetry_cell_setting 'orthorhombic'
loop_
_space_group_symop_operation_xyz
x,y,z
-x,-y,z
-x,y,z
x,-y,z
x,1/2+y,1/2+z
-x,1/2-y,1/2+z
-x,1/2+y,1/2+z
x,1/2-y,1/2+z
1/2+x,y,1/2+z
1/2-x,-y,1/2+z
1/2-x,y,1/2+z
1/2+x,-y,1/2+z
1/2+x,1/2+y,z
1/2-x,1/2-y,z
1/2-x,1/2+y,z
1/2+x,1/2-y,z
loop_
_atom_site_type_symbol
_atom_site_label
_atom_site_fract_x
_atom_site_fract_y
_atom_site_fract_z
Si Si1 0.715424 0.392653 0.855950
Si Si2 0.417033 0.931453 0.233228
Si Si3 0.416018 0.215086 0.903651
Si Si4 0.915955 0.095099 0.510640
Si Si5 0.303884 0.803287 0.736613
Si Si6 0.686584 0.796536 0.510406
Si Si7 0.310377 0.000000 0.920119
O O1 0.638643 0.405868 0.808840
O O2 0.762902 0.358030 0.778072
O O3 0.754640 0.450199 0.884208
O O4 0.707124 0.351693 0.948738
O O5 0.500000 0.919067 0.256579
O O6 0.401269 0.907200 0.125792
O O7 0.409115 0.000000 0.228456
O O8 0.500000 0.221904 0.886831
O O9 0.372019 0.208545 0.804147
O O10 0.404357 0.157565 0.966166
O O11 0.382393 0.267114 0.963209
O O12 0.866411 0.049728 0.458027
O O13 0.000000 0.080856 0.498120
O O14 0.250000 0.750000 0.746605
O O15 0.322618 0.809516 0.623773
O O16 0.750000 0.750000 0.500669
#
# Coordination Sequence:
#
# PCOD9369444 Si02
#       7
#    16  16  16  16  16  16   8
#     4  12  23  39  59  91 118 162 198 249 299 357
#     4  10  22  39  59  89 122 157 200 246 300 353
#     4  11  22  40  62  90 122 157 201 244 298 361
#     4  10  21  37  62  91 123 155 198 256 299 345
#     4  11  23  40  62  85 120 156 197 248 301 357
#     4  11  23  41  61  86 120 156 195 245 303 354
#     4  12  21  34  59  88 124 154 206 236 301 356
#
# _framework density 17.158652
#
# number of rings (size 3 to 8) (size 9 to 14) (size 15 to 20)
#    0.000    1.077    6.154    0.231    6.462    1.231 
#    0.000    0.000    0.000    0.000    0.000    0.000 
#    0.000    0.000    0.000    0.000    0.000    0.000 
#
# Total GULP energy -144740.615336 kJ/mol
# GULP energy per Si atom -5566.946744 kJ/mol
# Density = 1.711960 g / cm^3
# Si number density = 17.158652 Si / 1000 Ang^3
#
#
#
# Elastic Constant Matrix: (Units=GPa)
#
#
# Indices 1 2 3 4 5 6 
#
# 1 104.5869 51.5105 71.4396 0.0000 0.0000 0.0000
# 2 51.5105 123.9237 67.1242 0.0000 0.0000 0.0000
# 3 71.4396 67.1242 139.1176 0.0000 0.0000 0.0000
# 4 0.0000 0.0000 0.0000 16.3129 0.0000 0.0000
# 5 0.0000 0.0000 0.0000 0.0000 24.0878 0.0000
# 6 0.0000 0.0000 0.0000 0.0000 0.0000 22.7379
#
#
#
# Elastic Compliance Matrix: (Units=1/GPa)
#
#
# Indices 1 2 3 4 5 6 
#
# 1 0.015449 -0.002876 -0.006546 0.000000 0.000000 0.000000
# 2 -0.002876 0.011460 -0.004053 0.000000 0.000000 0.000000
# 3 -0.006546 -0.004053 0.012505 0.000000 0.000000 0.000000
# 4 0.000000 0.000000 0.000000 0.061301 0.000000 0.000000
# 5 0.000000 0.000000 0.000000 0.000000 0.041515 0.000000
# 6 0.000000 0.000000 0.000000 0.000000 0.000000 0.043980
#
#
# Mechanical properties :
#
#
# Convention : Reuss Voigt Hill
#
# Bulk Modulus (GPa) = 80.22248 83.08633 81.65440
# Shear Modulus (GPa) = 23.00826 24.46463 23.73644
#
# Velocity S-wave (km/s) = 3.66582 3.78006 3.72338
# Velocity P-wave (km/s) = 8.04814 8.22066 8.13486
#
# Compressibility (1/GPa) = 0.01246533
#
# Stress axis : x y z
#
# Youngs Moduli (GPa) = 64.72888 87.25950 79.96896
#
# Poissons Ratio (x) = 0.25097 0.52345
# Poissons Ratio (y) = 0.18617 0.32408
# Poissons Ratio (z) = 0.42369 0.35362
#
# Static dielectric constant tensor:
#      x y z
#    x 1.576640 0.000000 0.000000 
#    y 0.000000 1.571780 0.000000 
#    z 0.000000 0.000000 1.570100 
# 
# From -- ./inp_files/15252.got.cif
#   From: 2010.05.17/outbox.cif.g08.bks.cpg/sg42_8_cif.got.tgz:15252.got - 2010.06.03 19:03:34.
