data_PCOD9369473
_publ_section_title
;
Structure prediction by ZEFSAII (Michael W. Deem and Ramdas Pophale) SiO2 
 PCOD9369473
Probable space group: F M M 2
;
_chemical_formula_sum "Si O2"
_cell_formula_units_Z 84
_cell_length_a 25.120721
_cell_length_b 7.618997
_cell_length_c 20.994747
_cell_angle_alpha 90.000000
_cell_angle_beta 90.000000
_cell_angle_gamma 90.000000
_cell_volume 4018.283260
_symmetry_space_group_name_H-M "F M M 2"
_symmetry_group_IT_number 42
_symmetry_cell_setting 'orthorhombic'
loop_
_space_group_symop_operation_xyz
x,y,z
-x,-y,z
-x,y,z
x,-y,z
x,1/2+y,1/2+z
-x,1/2-y,1/2+z
-x,1/2+y,1/2+z
x,1/2-y,1/2+z
1/2+x,y,1/2+z
1/2-x,-y,1/2+z
1/2-x,y,1/2+z
1/2+x,-y,1/2+z
1/2+x,1/2+y,z
1/2-x,1/2-y,z
1/2-x,1/2+y,z
1/2+x,1/2-y,z
loop_
_atom_site_type_symbol
_atom_site_label
_atom_site_fract_x
_atom_site_fract_y
_atom_site_fract_z
Si Si1 0.602779 0.296204 0.750000
Si Si2 0.500000 0.810140 0.824819
Si Si3 0.500000 0.208278 0.042795
Si Si4 0.312374 0.290452 0.354754
Si Si5 0.687820 0.710813 0.496711
Si Si6 0.500000 0.000000 0.430208
Si Si7 0.887451 0.289226 0.108598
O O1 0.587507 0.500000 0.741436
O O2 0.552225 0.203870 0.781064
O O3 0.651140 0.286001 0.799700
O O4 0.618769 0.224371 0.680666
O O5 0.500000 0.652869 0.874451
O O6 0.500000 0.000000 0.857561
O O7 0.552758 0.238555 0.084521
O O8 0.500000 0.000000 0.024190
O O9 0.500000 0.344062 0.985112
O O10 0.319231 0.500000 0.353545
O O11 0.250000 0.250000 0.346028
O O12 0.327781 0.224645 0.425839
O O13 0.681732 0.500000 0.494581
O O14 0.750000 0.750000 0.506036
O O15 0.652456 0.780850 0.554496
O O16 0.878090 0.500000 0.110668
#
# Coordination Sequence:
#
# PCOD9369473 Si02
#       7
#    16   8   8  16  16   4  16
#     4  11  22  41  65  93 129 172 215 263 326 393
#     4  12  26  44  65  96 135 170 212 269 325 382
#     4  10  22  44  67  94 133 168 202 263 327 380
#     4  10  21  38  60  89 123 166 215 271 331 384
#     4   9  19  37  58  85 117 158 205 259 322 375
#     4  12  26  44  64 106 124 164 224 260 320 392
#     4   9  20  39  65  90 126 169 205 257 323 382
#
# _framework density 20.904449
#
# number of rings (size 3 to 8) (size 9 to 14) (size 15 to 20)
#    0.000    1.905    0.952    2.000    2.667    3.048 
#    6.857    1.905    0.000    0.000    0.000    0.000 
#    0.000    0.000    0.000    0.000    0.000    0.000 
#
# Total GULP energy -117071.264467 kJ/mol
# GULP energy per Si atom -5574.822117 kJ/mol
# Density = 2.085687 g / cm^3
# Si number density = 20.904449 Si / 1000 Ang^3
#
#
#
# Elastic Constant Matrix: (Units=GPa)
#
#
# Indices 1 2 3 4 5 6 
#
# 1 86.8192 6.8704 95.4679 0.0000 0.0000 0.0000
# 2 6.8704 97.2747 35.1481 0.0001 0.0000 0.0000
# 3 95.4679 35.1481 218.8729 0.0000 0.0000 0.0000
# 4 0.0000 0.0001 0.0000 -36.4884 0.0000 0.0000
# 5 0.0000 0.0000 0.0000 0.0000 -29.7001 0.0000
# 6 0.0000 0.0000 0.0000 0.0000 0.0000 17.1555
#
#
#
# Elastic Compliance Matrix: (Units=1/GPa)
#
#
# Indices 1 2 3 4 5 6 
#
# 1 0.022524 0.002080 -0.010159 0.000000 0.000000 0.000000
# 2 0.002080 0.011105 -0.002691 0.000000 0.000000 0.000000
# 3 -0.010159 -0.002691 0.009432 0.000000 0.000000 0.000000
# 4 0.000000 0.000000 0.000000 -0.027406 0.000000 0.000000
# 5 0.000000 0.000000 0.000000 0.000000 -0.033670 0.000000
# 6 0.000000 0.000000 0.000000 0.000000 0.000000 0.058290
#
#
# Mechanical properties :
#
#
# Convention : Reuss Voigt Hill
#
# Bulk Modulus (GPa) = 46.46245 75.32660 60.89452
# Shear Modulus (GPa) = 72.47575 7.89211 40.18393
#
# Velocity S-wave (km/s) = 5.89451 1.94513 4.38912
# Velocity P-wave (km/s) = 8.28260 6.41535 7.40804
#
# Compressibility (1/GPa) = 0.02152276
#
# Stress axis : x y z
#
# Youngs Moduli (GPa) = 44.39687 90.04597 106.02355
#
# Poissons Ratio (x) = -0.18727 1.07704
# Poissons Ratio (y) = -0.09233 0.28526
# Poissons Ratio (z) = 0.45101 0.24227
#
# Static dielectric constant tensor:
#      x y z
#    x 1.703500 0.000000 0.000000 
#    y 0.000000 1.783280 0.000000 
#    z 0.000000 0.000000 1.745730 
# 
# From -- ./inp_files/26744.got.cif
#   From: 2010.05.17/outbox.cif.g08.bks.cpg/sg42_14_cif.got.tgz:26744.got - 2010.06.03 19:03:34.
