data_PCOD9369643
_publ_section_title
;
Structure prediction by ZEFSAII (Michael W. Deem and Ramdas Pophale) SiO2 
 PCOD9369643
Probable space group: F M M 2
;
_chemical_formula_sum "Si O2"
_cell_formula_units_Z 68
_cell_length_a 12.762888
_cell_length_b 19.833321
_cell_length_c 12.929313
_cell_angle_alpha 90.000000
_cell_angle_beta 90.000000
_cell_angle_gamma 90.000000
_cell_volume 3272.802877
_symmetry_space_group_name_H-M "F M M 2"
_symmetry_group_IT_number 42
_symmetry_cell_setting 'orthorhombic'
loop_
_space_group_symop_operation_xyz
x,y,z
-x,-y,z
-x,y,z
x,-y,z
x,1/2+y,1/2+z
-x,1/2-y,1/2+z
-x,1/2+y,1/2+z
x,1/2-y,1/2+z
1/2+x,y,1/2+z
1/2-x,-y,1/2+z
1/2-x,y,1/2+z
1/2+x,-y,1/2+z
1/2+x,1/2+y,z
1/2-x,1/2-y,z
1/2-x,1/2+y,z
1/2+x,1/2-y,z
loop_
_atom_site_type_symbol
_atom_site_label
_atom_site_fract_x
_atom_site_fract_y
_atom_site_fract_z
Si Si1 0.342329 0.123917 0.744920
Si Si2 0.000000 0.000000 0.285484
Si Si3 0.164162 0.347658 0.510094
Si Si4 0.614726 0.580170 0.805121
Si Si5 0.115258 0.804651 0.447433
O O1 0.408206 0.059295 0.781735
O O2 0.369032 0.138335 0.626433
O O3 0.217577 0.111684 0.753749
O O4 0.369486 0.183494 0.824850
O O5 0.123756 0.400894 0.426537
O O6 0.127209 0.273678 0.474726
O O7 0.290525 0.344754 0.501217
O O8 0.500000 0.604162 0.768215
O O9 0.619374 0.500000 0.791954
O O10 0.000000 0.828615 0.477307
#
# Coordination Sequence:
#
# PCOD9369643 Si02
#       5
#    16   4  16  16  16
#     4  11  24  43  66  94 127 169 213 257 316 379
#     4  12  24  40  70  96 120 174 210 258 304 396
#     4  10  24  39  63  97 125 167 217 259 315 376
#     4  10  22  39  62  93 132 167 209 263 318 372
#     4  10  22  42  62  91 127 168 211 261 316 372
#
# _framework density 20.777297000000001
#
# number of rings (size 3 to 8) (size 9 to 14) (size 15 to 20)
#    0.000    1.647    2.353    0.706    4.941    8.471 
#    0.000    0.000    0.000    0.000    0.000    0.000 
#    0.000    0.000    0.000    0.000    0.000    0.000 
#
# Total GULP energy -94699.482656 kJ/mol
# GULP energy per Si atom -5570.557803 kJ/mol
# Density = 2.073001 g / cm^3
# Si number density = 20.777297 Si / 1000 Ang^3
#
#
#
# Elastic Constant Matrix: (Units=GPa)
#
#
# Indices 1 2 3 4 5 6 
#
# 1 181.8658 14.1402 -3.6693 0.0000 0.0000 0.0000
# 2 14.1402 41.6789 14.4322 0.0000 0.0000 0.0000
# 3 -3.6693 14.4322 80.4280 0.0000 0.0000 0.0000
# 4 0.0000 0.0000 0.0000 1.1970 0.0000 0.0000
# 5 0.0000 0.0000 0.0000 0.0000 -3.7814 0.0000
# 6 0.0000 0.0000 0.0000 0.0000 0.0000 5.9967
#
#
#
# Elastic Compliance Matrix: (Units=1/GPa)
#
#
# Indices 1 2 3 4 5 6 
#
# 1 0.005679 -0.002150 0.000645 0.000000 0.000000 0.000000
# 2 -0.002150 0.026396 -0.004835 0.000000 0.000000 0.000000
# 3 0.000645 -0.004835 0.013330 0.000000 0.000000 0.000000
# 4 0.000000 0.000000 0.000000 0.835445 0.000000 0.000000
# 5 0.000000 0.000000 0.000000 0.000000 -0.264452 0.000000
# 6 0.000000 0.000000 0.000000 0.000000 0.000000 0.166760
#
#
# Mechanical properties :
#
#
# Convention : Reuss Voigt Hill
#
# Bulk Modulus (GPa) = 30.55663 39.30877 34.93270
# Shear Modulus (GPa) = 6.19773 19.28708 12.74241
#
# Velocity S-wave (km/s) = 1.72899 3.05007 2.47915
# Velocity P-wave (km/s) = 4.32719 5.60036 5.00443
#
# Compressibility (1/GPa) = 0.03272612
#
# Stress axis : x y z
#
# Youngs Moduli (GPa) = 176.09583 37.88388 75.01622
#
# Poissons Ratio (x) = 0.08145 -0.04837
# Poissons Ratio (y) = 0.37859 0.36268
# Poissons Ratio (z) = -0.11356 0.18316
#
# Static dielectric constant tensor:
#      x y z
#    x 1.814870 0.000000 0.000000 
#    y 0.000000 1.710490 0.000000 
#    z 0.000000 0.000000 1.726640 
# 
# From -- ./inp_files/7614.got.cif
#   From: 2010.05.17/outbox.cif.g08.bks.cpg/sg42_4_cif.got.tgz:7614.got - 2010.06.03 19:03:34.
