data_PCOD9369831
_publ_section_title
;
Structure prediction by ZEFSAII (Michael W. Deem and Ramdas Pophale) SiO2 
 PCOD9369831
Probable space group: F M M 2
;
_chemical_formula_sum "Si O2"
_cell_formula_units_Z 96
_cell_length_a 13.894892
_cell_length_b 22.796167
_cell_length_c 15.314149
_cell_angle_alpha 90.000000
_cell_angle_beta 90.000000
_cell_angle_gamma 90.000000
_cell_volume 4850.760960
_symmetry_space_group_name_H-M "F M M 2"
_symmetry_group_IT_number 42
_symmetry_cell_setting 'orthorhombic'
loop_
_space_group_symop_operation_xyz
x,y,z
-x,-y,z
-x,y,z
x,-y,z
x,1/2+y,1/2+z
-x,1/2-y,1/2+z
-x,1/2+y,1/2+z
x,1/2-y,1/2+z
1/2+x,y,1/2+z
1/2-x,-y,1/2+z
1/2-x,y,1/2+z
1/2+x,-y,1/2+z
1/2+x,1/2+y,z
1/2-x,1/2-y,z
1/2-x,1/2+y,z
1/2+x,1/2-y,z
loop_
_atom_site_type_symbol
_atom_site_label
_atom_site_fract_x
_atom_site_fract_y
_atom_site_fract_z
Si Si1 0.118029 0.500000 0.830920
Si Si2 0.887024 0.617716 0.525030
Si Si3 0.140159 0.729462 0.905507
Si Si4 0.601326 0.825144 0.262716
Si Si5 0.636050 0.245002 0.595909
Si Si6 0.385481 0.500000 0.123739
Si Si7 0.763909 0.383076 0.863057
O O1 0.131596 0.500000 0.726299
O O2 0.178805 0.556231 0.863483
O O3 0.000000 0.500000 0.848308
O O4 0.885807 0.675644 0.586513
O O5 0.854305 0.560069 0.577607
O O6 0.810616 0.623250 0.445359
O O7 0.000000 0.611553 0.495795
O O8 0.250000 0.750000 0.914253
O O9 0.098789 0.777490 0.840891
O O10 0.151585 0.665475 0.866082
O O11 0.101772 0.729473 0.003140
O O12 0.500000 0.858859 0.263167
O O13 0.604447 0.784688 0.176667
O O14 0.693948 0.865961 0.281458
O O15 0.750000 0.250000 0.600602
O O16 0.500000 0.500000 0.112746
#
# Coordination Sequence:
#
# PCOD9369831 Si02
#       7
#     8  16  16  16  16   8  16
#     4  11  27  46  65  93 119 161 224 273 328 389
#     4  11  21  39  66  95 128 166 215 269 316 377
#     4   9  19  37  57  87 126 167 208 252 313 375
#     4  11  23  36  59  96 133 170 207 254 323 387
#     4  11  20  36  62  93 133 174 213 259 320 381
#     4   9  23  40  60  91 117 157 219 269 315 367
#     4  11  22  42  64  90 126 170 211 267 323 379
#
# _framework density 19.790709
#
# number of rings (size 3 to 8) (size 9 to 14) (size 15 to 20)
#    0.000    1.500    5.000    3.000    4.667    1.333 
#    0.000    1.250    0.000    0.000    0.000    0.000 
#    0.000    0.000    0.000    0.000    0.000    0.000 
#
# Total GULP energy -133660.220651 kJ/mol
# GULP energy per Si atom -5569.175860 kJ/mol
# Density = 1.974566 g / cm^3
# Si number density = 19.790709 Si / 1000 Ang^3
#
#
#
# Elastic Constant Matrix: (Units=GPa)
#
#
# Indices 1 2 3 4 5 6 
#
# 1 119.6209 32.9878 17.6160 0.0000 0.0000 0.0000
# 2 32.9878 125.4750 -4.4679 0.0000 0.0000 0.0000
# 3 17.6160 -4.4679 61.0970 0.0000 0.0000 0.0000
# 4 0.0000 0.0000 0.0000 28.1558 0.0000 0.0000
# 5 0.0000 0.0000 0.0000 0.0000 -7.0370 0.0000
# 6 0.0000 0.0000 0.0000 0.0000 0.0000 28.7803
#
#
#
# Elastic Compliance Matrix: (Units=1/GPa)
#
#
# Indices 1 2 3 4 5 6 
#
# 1 0.009510 -0.002605 -0.002932 0.000000 0.000000 0.000000
# 2 -0.002605 0.008704 0.001387 0.000000 0.000000 0.000000
# 3 -0.002932 0.001387 0.017314 0.000000 0.000000 0.000000
# 4 0.000000 0.000000 0.000000 0.035517 0.000000 0.000000
# 5 0.000000 0.000000 0.000000 0.000000 -0.142105 0.000000
# 6 0.000000 0.000000 0.000000 0.000000 0.000000 0.034746
#
#
# Mechanical properties :
#
#
# Convention : Reuss Voigt Hill
#
# Bulk Modulus (GPa) = 36.72552 44.27386 40.49969
# Shear Modulus (GPa) = -264.00518 27.31694 -118.34412
#
# Velocity S-wave (km/s) = -11.56236 3.71926 -7.74129
# Velocity P-wave (km/s) = 12.63541 6.39245 7.70682
#
# Compressibility (1/GPa) = 0.02722902
#
# Stress axis : x y z
#
# Youngs Moduli (GPa) = 105.15405 114.89138 57.75542
#
# Poissons Ratio (x) = 0.29924 0.16936
# Poissons Ratio (y) = 0.27388 -0.08013
# Poissons Ratio (z) = 0.30836 -0.15941
#
# Static dielectric constant tensor:
#      x y z
#    x 1.811970 0.000000 0.000000 
#    y 0.000000 1.731680 0.000000 
#    z 0.000000 0.000000 1.741090 
# 
# From -- ./inp_files/14050.got.cif
#   From: 2010.05.17/outbox.cif.g08.bks.cpg/sg42_8_cif.got.tgz:14050.got - 2010.06.03 19:03:34.
