data_PCOD9369541
_publ_section_title
;
Structure prediction by ZEFSAII (Michael W. Deem and Ramdas Pophale) SiO2 
 PCOD9369541
Probable space group: F M M 2
;
_chemical_formula_sum "Si O2"
_cell_formula_units_Z 64
_cell_length_a 20.525835
_cell_length_b 17.834533
_cell_length_c 8.561335
_cell_angle_alpha 90.000000
_cell_angle_beta 90.000000
_cell_angle_gamma 90.000000
_cell_volume 3134.036617
_symmetry_space_group_name_H-M "F M M 2"
_symmetry_group_IT_number 42
_symmetry_cell_setting 'orthorhombic'
loop_
_space_group_symop_operation_xyz
x,y,z
-x,-y,z
-x,y,z
x,-y,z
x,1/2+y,1/2+z
-x,1/2-y,1/2+z
-x,1/2+y,1/2+z
x,1/2-y,1/2+z
1/2+x,y,1/2+z
1/2-x,-y,1/2+z
1/2-x,y,1/2+z
1/2+x,-y,1/2+z
1/2+x,1/2+y,z
1/2-x,1/2-y,z
1/2-x,1/2+y,z
1/2+x,1/2-y,z
loop_
_atom_site_type_symbol
_atom_site_label
_atom_site_fract_x
_atom_site_fract_y
_atom_site_fract_z
Si Si1 0.928484 0.139400 0.510450
Si Si2 0.072805 0.204568 0.162646
Si Si3 0.195869 0.583972 0.164536
Si Si4 0.295644 0.674774 0.973783
O O1 0.917770 0.178260 0.341099
O O2 0.930464 0.206334 0.637209
O O3 0.868721 0.088593 0.558941
O O4 0.000000 0.103269 0.506772
O O5 0.135484 0.182705 0.061162
O O6 0.000000 0.176569 0.113000
O O7 0.203499 0.500000 0.226782
O O8 0.255669 0.609592 0.058880
O O9 0.192854 0.646352 0.299332
O O10 0.250000 0.750000 0.977122
#
# Coordination Sequence:
#
# PCOD9369541 Si02
#       4
#    16  16  16  16
#     4  10  21  39  64  96 129 166 212 262 324 384
#     4  10  21  39  67  99 127 161 214 274 319 374
#     4  12  26  42  63  94 135 173 212 267 326 380
#     4  12  24  41  67  97 125 171 222 265 317 382
#
# _framework density 20.420949
#
# number of rings (size 3 to 8) (size 9 to 14) (size 15 to 20)
#    0.000    1.000    2.500    4.500    0.000    3.500 
#    0.000    1.250    0.000    5.250    0.000    0.000 
#    0.000    0.000    0.000    0.000    0.000    0.000 
#
# Total GULP energy -89333.521572 kJ/mol
# GULP energy per Si atom -5583.345098 kJ/mol
# Density = 2.037447 g / cm^3
# Si number density = 20.420949 Si / 1000 Ang^3
#
#
#
# Elastic Constant Matrix: (Units=GPa)
#
#
# Indices 1 2 3 4 5 6 
#
# 1 174.9404 41.5055 54.6284 0.0000 0.0000 0.0000
# 2 41.5055 71.7680 20.8480 -0.0001 0.0000 0.0000
# 3 54.6284 20.8480 86.0614 -0.0002 0.0001 0.0001
# 4 0.0000 -0.0001 -0.0002 19.1461 0.0001 0.0001
# 5 0.0000 0.0000 0.0001 0.0001 32.6218 0.0000
# 6 0.0000 0.0000 0.0001 0.0001 0.0000 0.7525
#
#
#
# Elastic Compliance Matrix: (Units=1/GPa)
#
#
# Indices 1 2 3 4 5 6 
#
# 1 0.007795 -0.003303 -0.004148 0.000000 0.000000 0.000001
# 2 -0.003303 0.016388 -0.001873 0.000000 0.000000 -0.000001
# 3 -0.004148 -0.001873 0.014706 0.000000 0.000000 -0.000002
# 4 0.000000 0.000000 0.000000 0.052230 0.000000 -0.000005
# 5 0.000000 0.000000 0.000000 0.000000 0.030654 0.000002
# 6 0.000001 -0.000001 -0.000002 -0.000005 0.000002 1.328831
#
#
# Mechanical properties :
#
#
# Convention : Reuss Voigt Hill
#
# Bulk Modulus (GPa) = 49.40444 62.97039 56.18741
# Shear Modulus (GPa) = 3.38753 24.88994 14.13874
#
# Velocity S-wave (km/s) = 1.28936 3.49498 2.63414
# Velocity P-wave (km/s) = 5.14414 6.86947 6.06843
#
# Compressibility (1/GPa) = 0.02024110
#
# Stress axis : x y z
#
# Youngs Moduli (GPa) = 128.28403 61.01909 67.99805
#
# Poissons Ratio (x) = 0.20156 0.28205
# Poissons Ratio (y) = 0.42376 0.12737
# Poissons Ratio (z) = 0.53211 0.11430
#
# Static dielectric constant tensor:
#      x y z
#    x 1.777470 0.000000 0.000000 
#    y 0.000000 1.704970 0.000000 
#    z 0.000000 0.000000 1.729270 
# 
# From -- ./inp_files/2694.got.cif
#   From: 2010.05.17/outbox.cif.g08.bks.cpg/sg42_2_cif.got.tgz:2694.got - 2010.06.03 19:03:34.
