data_PCOD9369109
_publ_section_title
;
Structure prediction by ZEFSAII (Michael W. Deem and Ramdas Pophale) SiO2 
 PCOD9369109
Probable space group: F M M 2
;
_chemical_formula_sum "Si O2"
_cell_formula_units_Z 80
_cell_length_a 26.130548
_cell_length_b 8.703006
_cell_length_c 18.499581
_cell_angle_alpha 90.000000
_cell_angle_beta 90.000000
_cell_angle_gamma 90.000000
_cell_volume 4207.069560
_symmetry_space_group_name_H-M "F M M 2"
_symmetry_group_IT_number 42
_symmetry_cell_setting 'orthorhombic'
loop_
_space_group_symop_operation_xyz
x,y,z
-x,-y,z
-x,y,z
x,-y,z
x,1/2+y,1/2+z
-x,1/2-y,1/2+z
-x,1/2+y,1/2+z
x,1/2-y,1/2+z
1/2+x,y,1/2+z
1/2-x,-y,1/2+z
1/2-x,y,1/2+z
1/2+x,-y,1/2+z
1/2+x,1/2+y,z
1/2-x,1/2-y,z
1/2-x,1/2+y,z
1/2+x,1/2-y,z
loop_
_atom_site_type_symbol
_atom_site_label
_atom_site_fract_x
_atom_site_fract_y
_atom_site_fract_z
Si Si1 0.597335 0.184011 0.278790
Si Si2 0.000000 0.182779 0.019262
Si Si3 0.304848 0.184203 0.181684
Si Si4 0.000000 0.816000 0.678785
Si Si5 0.194378 0.683695 0.521767
Si Si6 0.098464 0.682613 0.937650
O O1 0.650022 0.219961 0.237398
O O2 0.550089 0.219982 0.226008
O O3 0.593111 0.271119 0.354096
O O4 0.596019 0.000000 0.292769
O O5 0.000000 0.229071 0.103180
O O6 0.949832 0.251752 0.981332
O O7 0.000000 0.000000 0.010942
O O8 0.250000 0.250000 0.205402
O O9 0.316131 0.256214 0.103137
O O10 0.301504 0.000000 0.173648
O O11 0.000000 0.000000 0.664444
O O12 0.196093 0.500000 0.521725
O O13 0.250000 0.750000 0.501122
O O14 0.149999 0.743968 0.469912
O O15 0.100430 0.500000 0.946074
#
# Coordination Sequence:
#
# PCOD9369109 Si02
#       6
#    16   8  16   8  16  16
#     4  10  22  39  60  87 120 156 195 243 298 355
#     4  12  25  42  65  91 121 157 201 248 297 356
#     4  10  20  36  59  87 120 157 199 245 294 351
#     4  10  21  40  65  89 117 153 195 244 297 354
#     4  11  22  39  63  90 122 159 203 250 298 354
#     4  12  25  41  62  89 123 160 201 248 300 357
#
# _framework density 19.015611
#
# number of rings (size 3 to 8) (size 9 to 14) (size 15 to 20)
#    0.000    1.200    0.000    8.100    0.000    5.600 
#    0.000    2.000    0.000    0.000    0.000    0.000 
#    0.000    0.000    0.000    0.000    0.000    0.000 
#
# Total GULP energy -111905.057843 kJ/mol
# GULP energy per Si atom -5595.252892 kJ/mol
# Density = 1.897233 g / cm^3
# Si number density = 19.015611 Si / 1000 Ang^3
#
#
#
# Elastic Constant Matrix: (Units=GPa)
#
#
# Indices 1 2 3 4 5 6 
#
# 1 132.1248 76.6284 87.3153 0.0000 0.0000 0.0000
# 2 76.6284 140.2763 77.8141 0.0000 0.0000 0.0000
# 3 87.3153 77.8141 112.0247 0.0000 0.0000 0.0000
# 4 0.0000 0.0000 0.0000 39.3231 0.0000 0.0000
# 5 0.0000 0.0000 0.0000 0.0000 106.3260 0.0000
# 6 0.0000 0.0000 0.0000 0.0000 0.0000 26.7560
#
#
#
# Elastic Compliance Matrix: (Units=1/GPa)
#
#
# Indices 1 2 3 4 5 6 
#
# 1 0.016364 -0.003032 -0.010649 0.000000 0.000000 0.000000
# 2 -0.003032 0.012159 -0.006083 0.000000 0.000000 0.000000
# 3 -0.010649 -0.006083 0.021451 0.000000 0.000000 0.000000
# 4 0.000000 0.000000 0.000000 0.025430 0.000000 0.000000
# 5 0.000000 0.000000 0.000000 0.000000 0.009405 0.000000
# 6 0.000000 0.000000 0.000000 0.000000 0.000000 0.037375
#
#
# Mechanical properties :
#
#
# Convention : Reuss Voigt Hill
#
# Bulk Modulus (GPa) = 95.71002 96.43794 96.07398
# Shear Modulus (GPa) = 30.26719 43.99223 37.12971
#
# Velocity S-wave (km/s) = 3.99394 4.81508 4.42361
# Velocity P-wave (km/s) = 8.46820 9.04094 8.75925
#
# Compressibility (1/GPa) = 0.01044823
#
# Stress axis : x y z
#
# Youngs Moduli (GPa) = 61.10799 82.24083 46.61684
#
# Poissons Ratio (x) = 0.24939 0.49640
# Poissons Ratio (y) = 0.18530 0.28355
# Poissons Ratio (z) = 0.65071 0.50024
#
# Static dielectric constant tensor:
#      x y z
#    x 1.639090 0.000000 0.000000 
#    y 0.000000 1.640380 0.000000 
#    z 0.000000 0.000000 1.621240 
# 
# From -- ./inp_files/22453.got.cif
#   From: 2010.05.17/outbox.cif.g08.bks.cpg/sg42_12_cif.got.tgz:22453.got - 2010.06.03 19:03:34.
