data_PCOD9369671
_publ_section_title
;
Structure prediction by ZEFSAII (Michael W. Deem and Ramdas Pophale) SiO2 
 PCOD9369671
Probable space group: F M M 2
;
_chemical_formula_sum "Si O2"
_cell_formula_units_Z 112
_cell_length_a 25.791027
_cell_length_b 21.155579
_cell_length_c 10.495439
_cell_angle_alpha 90.000000
_cell_angle_beta 90.000000
_cell_angle_gamma 90.000000
_cell_volume 5726.564555
_symmetry_space_group_name_H-M "F M M 2"
_symmetry_group_IT_number 42
_symmetry_cell_setting 'orthorhombic'
loop_
_space_group_symop_operation_xyz
x,y,z
-x,-y,z
-x,y,z
x,-y,z
x,1/2+y,1/2+z
-x,1/2-y,1/2+z
-x,1/2+y,1/2+z
x,1/2-y,1/2+z
1/2+x,y,1/2+z
1/2-x,-y,1/2+z
1/2-x,y,1/2+z
1/2+x,-y,1/2+z
1/2+x,1/2+y,z
1/2-x,1/2-y,z
1/2-x,1/2+y,z
1/2+x,1/2-y,z
loop_
_atom_site_type_symbol
_atom_site_label
_atom_site_fract_x
_atom_site_fract_y
_atom_site_fract_z
Si Si1 0.560935 0.296088 0.609640
Si Si2 0.558589 0.926136 0.506687
Si Si3 0.094314 0.071124 0.711199
Si Si4 0.381665 0.755318 0.856824
Si Si5 0.290745 0.429501 0.810145
Si Si6 0.342270 0.358600 0.015400
Si Si7 0.716066 0.813282 0.754619
O O1 0.500000 0.285454 0.622508
O O2 0.573468 0.370220 0.631540
O O3 0.590752 0.258363 0.722258
O O4 0.580663 0.275001 0.471092
O O5 0.500000 0.903885 0.530067
O O6 0.570562 0.923120 0.354582
O O7 0.603607 0.884864 0.570139
O O8 0.562325 0.000000 0.542217
O O9 0.156800 0.074975 0.725579
O O10 0.081262 0.000000 0.665911
O O11 0.356528 0.689283 0.902223
O O12 0.334419 0.804171 0.842471
O O13 0.269409 0.500000 0.796616
O O14 0.311867 0.416959 0.952998
O O15 0.250241 0.374494 0.782976
O O16 0.307084 0.321906 0.114060
O O17 0.750000 0.750000 0.764030
#
# Coordination Sequence:
#
# PCOD9369671 Si02
#       7
#    16  16  16  16  16  16  16
#     4  12  24  42  66  96 131 168 214 266 328 390
#     4   9  17  32  58  91 124 162 206 260 322 375
#     4   9  18  36  61  92 124 156 211 269 311 373
#     4  12  25  43  61  97 128 171 215 267 324 389
#     4  10  22  40  64  95 128 170 219 270 321 381
#     4  11  22  38  63  91 128 162 218 271 317 386
#     4  12  25  42  66  92 128 175 217 268 333 387
#
# _framework density 19.557974000000002
#
# number of rings (size 3 to 8) (size 9 to 14) (size 15 to 20)
#    0.000    1.286    5.714    2.143    2.000    2.571 
#    0.000    2.143    0.000    0.000    0.000    0.000 
#    0.000    0.000    0.000    0.000    0.000    0.000 
#
# Total GULP energy -156350.342812 kJ/mol
# GULP energy per Si atom -5583.940815 kJ/mol
# Density = 1.951346 g / cm^3
# Si number density = 19.557974 Si / 1000 Ang^3
#
#
#
# Elastic Constant Matrix: (Units=GPa)
#
#
# Indices 1 2 3 4 5 6 
#
# 1 132.9121 51.7470 31.3410 0.0000 0.0000 0.0000
# 2 51.7470 101.9658 20.1269 0.0000 0.0000 0.0000
# 3 31.3410 20.1269 46.2531 0.0000 0.0000 0.0000
# 4 0.0000 0.0000 0.0000 11.9581 0.0000 0.0000
# 5 0.0000 0.0000 0.0000 0.0000 24.4404 0.0000
# 6 0.0000 0.0000 0.0000 0.0000 0.0000 27.9071
#
#
#
# Elastic Compliance Matrix: (Units=1/GPa)
#
#
# Indices 1 2 3 4 5 6 
#
# 1 0.010406 -0.004255 -0.005200 0.000000 0.000000 0.000000
# 2 -0.004255 0.012468 -0.002543 0.000000 0.000000 0.000000
# 3 -0.005200 -0.002543 0.026250 0.000000 0.000000 0.000000
# 4 0.000000 0.000000 0.000000 0.083625 0.000000 0.000000
# 5 0.000000 0.000000 0.000000 0.000000 0.040916 0.000000
# 6 0.000000 0.000000 0.000000 0.000000 0.000000 0.035833
#
#
# Mechanical properties :
#
#
# Convention : Reuss Voigt Hill
#
# Bulk Modulus (GPa) = 39.79260 54.17342 46.98301
# Shear Modulus (GPa) = 20.67224 24.72220 22.69722
#
# Velocity S-wave (km/s) = 3.25464 3.55920 3.41032
# Velocity P-wave (km/s) = 5.87484 6.68203 6.29139
#
# Compressibility (1/GPa) = 0.02513030
#
# Stress axis : x y z
#
# Youngs Moduli (GPa) = 96.09427 80.20300 38.09527
#
# Poissons Ratio (x) = 0.34125 0.19809
# Poissons Ratio (y) = 0.40886 0.09686
# Poissons Ratio (z) = 0.49968 0.20392
#
# Static dielectric constant tensor:
#      x y z
#    x 1.705020 0.000000 0.000000 
#    y 0.000000 1.705440 0.000000 
#    z 0.000000 0.000000 1.676850 
# 
# From -- ./inp_files/10244.got.cif
#   From: 2010.05.17/outbox.cif.g08.bks.cpg/sg42_6_cif.got.tgz:10244.got - 2010.06.03 19:03:34.
