data_PCOD9369666
_publ_section_title
;
Structure prediction by ZEFSAII (Michael W. Deem and Ramdas Pophale) SiO2 
 PCOD9369666
Probable space group: F M M 2
;
_chemical_formula_sum "Si O2"
_cell_formula_units_Z 112
_cell_length_a 25.230868
_cell_length_b 16.097566
_cell_length_c 14.603306
_cell_angle_alpha 90.000000
_cell_angle_beta 90.000000
_cell_angle_gamma 90.000000
_cell_volume 5931.213968
_symmetry_space_group_name_H-M "F M M 2"
_symmetry_group_IT_number 42
_symmetry_cell_setting 'orthorhombic'
loop_
_space_group_symop_operation_xyz
x,y,z
-x,-y,z
-x,y,z
x,-y,z
x,1/2+y,1/2+z
-x,1/2-y,1/2+z
-x,1/2+y,1/2+z
x,1/2-y,1/2+z
1/2+x,y,1/2+z
1/2-x,-y,1/2+z
1/2-x,y,1/2+z
1/2+x,-y,1/2+z
1/2+x,1/2+y,z
1/2-x,1/2-y,z
1/2-x,1/2+y,z
1/2+x,1/2-y,z
loop_
_atom_site_type_symbol
_atom_site_label
_atom_site_fract_x
_atom_site_fract_y
_atom_site_fract_z
Si Si1 0.636100 0.737958 0.368620
Si Si2 0.302661 0.093788 0.759196
Si Si3 0.436774 0.681515 0.741840
Si Si4 0.941174 0.000000 0.762809
Si Si5 0.299767 0.092392 0.384572
Si Si6 0.371756 0.657148 0.560524
Si Si7 0.560019 0.500000 0.540991
Si Si8 0.250258 0.849847 0.074282
O O1 0.664264 0.662327 0.315191
O O2 0.580533 0.752775 0.317566
O O3 0.668257 0.824098 0.361136
O O4 0.633071 0.719570 0.476093
O O5 0.246832 0.088770 0.810916
O O6 0.287528 0.124013 0.657656
O O7 0.325820 0.000000 0.758507
O O8 0.500000 0.679974 0.723988
O O9 0.419721 0.590909 0.781071
O O10 0.403320 0.692169 0.648379
O O11 0.943985 0.000000 0.651830
O O12 0.000000 0.000000 0.803391
O O13 0.271783 0.108416 0.482537
O O14 0.325813 0.000000 0.385998
O O15 0.406127 0.581180 0.520441
O O16 0.312517 0.628122 0.588368
O O17 0.500000 0.500000 0.504935
O O18 0.250000 0.750000 0.065109
#
# Coordination Sequence:
#
# PCOD9369666 Si02
#       8
#    16  16  16   8  16  16   8  16
#     4  12  24  40  63  92 124 171 205 258 316 384
#     4  11  24  39  60  88 129 167 207 256 309 377
#     4  10  22  40  63  91 121 155 210 268 317 372
#     4   7  14  34  58  83 112 142 188 263 319 352
#     4  11  23  39  59  91 130 165 208 250 306 381
#     4  11  22  37  65  88 124 161 211 256 323 366
#     4   9  20  36  60  89 118 152 210 275 316 366
#     4  12  21  38  60  89 128 170 206 256 305 372
#
# _framework density 18.883149
#
# number of rings (size 3 to 8) (size 9 to 14) (size 15 to 20)
#    0.000    1.286    2.857    4.714    4.000    1.143 
#    0.000    0.000    0.000    0.000    0.000    0.000 
#    0.000    0.000    0.000    0.000    0.000    0.000 
#
# Total GULP energy -156158.383594 kJ/mol
# GULP energy per Si atom -5577.085128 kJ/mol
# Density = 1.884017 g / cm^3
# Si number density = 18.883149 Si / 1000 Ang^3
#
#
#
# Elastic Constant Matrix: (Units=GPa)
#
#
# Indices 1 2 3 4 5 6 
#
# 1 78.7475 29.1776 5.5120 0.0000 0.0000 0.0000
# 2 29.1776 117.4805 4.4988 0.0000 0.0000 0.0000
# 3 5.5120 4.4988 53.9084 0.0000 0.0000 0.0000
# 4 0.0000 0.0000 0.0000 34.2557 0.0000 0.0000
# 5 0.0000 0.0000 0.0000 0.0000 19.6841 0.0000
# 6 0.0000 0.0000 0.0000 0.0000 0.0000 21.4124
#
#
#
# Elastic Compliance Matrix: (Units=1/GPa)
#
#
# Indices 1 2 3 4 5 6 
#
# 1 0.014056 -0.003447 -0.001150 0.000000 0.000000 0.000000
# 2 -0.003447 0.009385 -0.000431 0.000000 0.000000 0.000000
# 3 -0.001150 -0.000431 0.018703 0.000000 0.000000 0.000000
# 4 0.000000 0.000000 0.000000 0.029192 0.000000 0.000000
# 5 0.000000 0.000000 0.000000 0.000000 0.050802 0.000000
# 6 0.000000 0.000000 0.000000 0.000000 0.000000 0.046702
#
#
# Mechanical properties :
#
#
# Convention : Reuss Voigt Hill
#
# Bulk Modulus (GPa) = 31.16247 36.50149 33.83198
# Shear Modulus (GPa) = 26.37233 29.13362 27.75298
#
# Velocity S-wave (km/s) = 3.74117 3.93216 3.83785
# Velocity P-wave (km/s) = 5.93300 6.32360 6.13141
#
# Compressibility (1/GPa) = 0.03208988
#
# Stress axis : x y z
#
# Youngs Moduli (GPa) = 71.14148 106.55679 53.46598
#
# Poissons Ratio (x) = 0.36731 0.06146
# Poissons Ratio (y) = 0.24523 0.02303
# Poissons Ratio (z) = 0.08178 0.04590
#
# Static dielectric constant tensor:
#      x y z
#    x 1.671330 0.000000 0.000000 
#    y 0.000000 1.712580 0.000000 
#    z 0.000000 0.000000 1.640450 
# 
# From -- ./inp_files/17084.got.cif
#   From: 2010.05.17/outbox.cif.g08.bks.cpg/sg42_9_cif.got.tgz:17084.got - 2010.06.03 19:03:34.
