data_PCOD9369411
_publ_section_title
;
Structure prediction by ZEFSAII (Michael W. Deem and Ramdas Pophale) SiO2 
 PCOD9369411
Probable space group: F M M 2
;
_chemical_formula_sum "Si O2"
_cell_formula_units_Z 116
_cell_length_a 31.218468
_cell_length_b 8.003180
_cell_length_c 25.607520
_cell_angle_alpha 90.000000
_cell_angle_beta 90.000000
_cell_angle_gamma 90.000000
_cell_volume 6397.962529
_symmetry_space_group_name_H-M "F M M 2"
_symmetry_group_IT_number 42
_symmetry_cell_setting 'orthorhombic'
loop_
_space_group_symop_operation_xyz
x,y,z
-x,-y,z
-x,y,z
x,-y,z
x,1/2+y,1/2+z
-x,1/2-y,1/2+z
-x,1/2+y,1/2+z
x,1/2-y,1/2+z
1/2+x,y,1/2+z
1/2-x,-y,1/2+z
1/2-x,y,1/2+z
1/2+x,-y,1/2+z
1/2+x,1/2+y,z
1/2-x,1/2-y,z
1/2-x,1/2+y,z
1/2+x,1/2-y,z
loop_
_atom_site_type_symbol
_atom_site_label
_atom_site_fract_x
_atom_site_fract_y
_atom_site_fract_z
Si Si1 0.000000 0.500000 0.129155
Si Si2 0.060915 0.694373 0.598598
Si Si3 0.702291 0.802341 0.846135
Si Si4 0.654057 0.302761 0.626485
Si Si5 0.637396 0.697014 0.935109
Si Si6 0.298089 0.698952 0.524984
Si Si7 0.547474 0.201340 0.474640
Si Si8 0.798402 0.299701 0.728093
O O1 0.036576 0.347798 0.126367
O O2 0.047596 0.500000 0.608567
O O3 0.110606 0.708482 0.612894
O O4 0.054084 0.726936 0.536632
O O5 0.750000 0.750000 0.864133
O O6 0.664871 0.759000 0.886146
O O7 0.694714 0.735233 0.787381
O O8 0.703877 0.000000 0.841732
O O9 0.646717 0.500000 0.619064
O O10 0.689812 0.250273 0.583986
O O11 0.669994 0.270682 0.684769
O O12 0.632627 0.500000 0.928659
O O13 0.666474 0.729082 0.985973
O O14 0.589523 0.767729 0.944789
O O15 0.300650 0.500000 0.520679
O O16 0.250000 0.750000 0.511247
O O17 0.500000 0.266323 0.460245
O O18 0.546529 0.000000 0.467359
O O19 0.802035 0.500000 0.727746
O O20 0.750000 0.250000 0.713822
#
# Coordination Sequence:
#
# PCOD9369411 Si02
#       8
#     4  16  16  16  16  16  16  16
#     4  12  22  36  56  86 116 152 202 240 288 354
#     4  11  21  36  57  82 118 155 191 242 292 346
#     4  10  21  38  57  80 109 144 190 237 286 342
#     4  11  22  36  55  84 116 149 192 237 285 350
#     4  11  21  34  55  80 110 144 185 232 284 343
#     4  11  23  35  50  74 113 154 187 225 275 341
#     4   9  18  34  55  80 108 146 187 229 284 344
#     4  10  21  37  58  81 109 147 191 241 290 340
#
# _framework density 18.130773000000001
#
# number of rings (size 3 to 8) (size 9 to 14) (size 15 to 20)
#    0.000    1.517    2.759    3.103    0.000    4.414 
#    1.241    0.000    0.000    0.000    1.793    0.000 
#    0.000    0.000    0.000    0.000    0.000    0.000 
#
# Total GULP energy -161553.825224 kJ/mol
# GULP energy per Si atom -5570.821559 kJ/mol
# Density = 1.808951 g / cm^3
# Si number density = 18.130773 Si / 1000 Ang^3
#
#
#
# Elastic Constant Matrix: (Units=GPa)
#
#
# Indices 1 2 3 4 5 6 
#
# 1 148.4028 9.9391 52.2565 0.0000 -0.0001 -0.0001
# 2 9.9391 58.7106 6.2969 -0.0002 -0.0001 -0.0003
# 3 52.2565 6.2969 65.4100 0.0000 0.0000 -0.0001
# 4 0.0000 -0.0002 0.0000 18.9839 0.0000 0.0000
# 5 -0.0001 -0.0001 0.0000 0.0000 49.6024 0.0002
# 6 -0.0001 -0.0003 -0.0001 0.0000 0.0002 13.6179
#
#
#
# Elastic Compliance Matrix: (Units=1/GPa)
#
#
# Indices 1 2 3 4 5 6 
#
# 1 0.009413 -0.000795 -0.007443 0.000000 0.000000 0.000000
# 2 -0.000795 0.017278 -0.001028 0.000000 0.000000 0.000000
# 3 -0.007443 -0.001028 0.021334 0.000000 0.000000 0.000000
# 4 0.000000 0.000000 0.000000 0.052676 0.000000 0.000000
# 5 0.000000 0.000000 0.000000 0.000000 0.020160 0.000000
# 6 0.000000 0.000000 0.000000 0.000000 0.000000 0.073433
#
#
# Mechanical properties :
#
#
# Convention : Reuss Voigt Hill
#
# Bulk Modulus (GPa) = 33.90873 45.50092 39.70483
# Shear Modulus (GPa) = 22.45613 30.04290 26.24951
#
# Velocity S-wave (km/s) = 3.52314 4.07506 3.80911
# Velocity P-wave (km/s) = 5.94079 6.87691 6.42592
#
# Compressibility (1/GPa) = 0.02949093
#
# Stress axis : x y z
#
# Youngs Moduli (GPa) = 106.24015 57.87848 46.87438
#
# Poissons Ratio (x) = 0.04602 0.34890
# Poissons Ratio (y) = 0.08448 0.04819
# Poissons Ratio (z) = 0.79077 0.05950
#
# Static dielectric constant tensor:
#      x y z
#    x 1.628880 0.000000 0.000000 
#    y 0.000000 1.644540 0.000000 
#    z 0.000000 0.000000 1.626740 
# 
# From -- ./inp_files/30898.got.cif
#   From: 2010.05.17/outbox.cif.g08.bks.cpg/sg42_16_cif.got.tgz:30898.got - 2010.06.03 19:03:34.
