data_PCOD9369185
_publ_section_title
;
Structure prediction by ZEFSAII (Michael W. Deem and Ramdas Pophale) SiO2 
 PCOD9369185
Probable space group: F M M 2
;
_chemical_formula_sum "Si O2"
_cell_formula_units_Z 88
_cell_length_a 14.533927
_cell_length_b 13.651131
_cell_length_c 22.724807
_cell_angle_alpha 90.000000
_cell_angle_beta 90.000000
_cell_angle_gamma 90.000000
_cell_volume 4508.704912
_symmetry_space_group_name_H-M "F M M 2"
_symmetry_group_IT_number 42
_symmetry_cell_setting 'orthorhombic'
loop_
_space_group_symop_operation_xyz
x,y,z
-x,-y,z
-x,y,z
x,-y,z
x,1/2+y,1/2+z
-x,1/2-y,1/2+z
-x,1/2+y,1/2+z
x,1/2-y,1/2+z
1/2+x,y,1/2+z
1/2-x,-y,1/2+z
1/2-x,y,1/2+z
1/2+x,-y,1/2+z
1/2+x,1/2+y,z
1/2-x,1/2-y,z
1/2-x,1/2+y,z
1/2+x,1/2-y,z
loop_
_atom_site_type_symbol
_atom_site_label
_atom_site_fract_x
_atom_site_fract_y
_atom_site_fract_z
Si Si1 0.750000 0.750000 0.052580
Si Si2 0.894438 0.385189 0.983540
Si Si3 0.605562 0.385188 0.121621
Si Si4 0.142513 0.773180 0.370758
Si Si5 0.142513 0.726820 0.734403
Si Si6 0.000000 0.889918 0.873858
Si Si7 0.000000 0.110082 0.731302
O O1 0.681904 0.681315 0.090275
O O2 0.818096 0.681315 0.014886
O O3 0.878451 0.500000 0.994062
O O4 0.885278 0.359141 0.914500
O O5 0.000000 0.362139 0.001744
O O6 0.500000 0.362138 0.103417
O O7 0.621548 0.500000 0.111098
O O8 0.614723 0.359142 0.190662
O O9 0.250000 0.750000 0.374119
O O10 0.119130 0.793571 0.302580
O O11 0.087592 0.675604 0.390163
O O12 0.250000 0.750000 0.731042
O O13 0.087591 0.824395 0.714998
O O14 0.000000 0.896959 0.802580
O O15 0.000000 0.000000 0.897693
O O16 0.000000 0.000000 0.707467
#
# Coordination Sequence:
#
# PCOD9369185 Si02
#       7
#     8  16  16  16  16   8   8
#     4  12  24  48  66  84 120 168 212 258 304 364
#     4  11  24  42  66  94 123 159 206 259 312 367
#     4  11  24  42  66  94 123 159 206 259 312 367
#     4  10  20  37  61  93 130 162 197 247 305 369
#     4  10  20  37  61  93 130 162 197 247 305 369
#     4   9  18  34  57  86 123 164 202 239 286 358
#     4   9  18  34  57  86 123 164 202 239 286 358
#
# _framework density 19.517800999999999
#
# number of rings (size 3 to 8) (size 9 to 14) (size 15 to 20)
#    0.000    1.636    3.636    1.091    0.000    2.182 
#    0.000    5.455    0.000    0.000    0.000    0.000 
#    0.000    0.000    0.000    0.000    0.000    0.000 
#
# Total GULP energy -122807.361823 kJ/mol
# GULP energy per Si atom -5582.152810 kJ/mol
# Density = 1.947338 g / cm^3
# Si number density = 19.517801 Si / 1000 Ang^3
#
#
#
# Elastic Constant Matrix: (Units=GPa)
#
#
# Indices 1 2 3 4 5 6 
#
# 1 168.0079 83.6905 44.2357 0.0000 0.0000 0.0000
# 2 83.6905 123.4226 48.9073 0.0000 0.0000 0.0000
# 3 44.2357 48.9073 66.4976 0.0000 0.0000 0.0000
# 4 0.0000 0.0000 0.0000 17.0553 0.0000 0.0000
# 5 0.0000 0.0000 0.0000 0.0000 -113.5502 0.0000
# 6 0.0000 0.0000 0.0000 0.0000 0.0000 27.1360
#
#
#
# Elastic Compliance Matrix: (Units=1/GPa)
#
#
# Indices 1 2 3 4 5 6 
#
# 1 0.009203 -0.005384 -0.002163 0.000000 0.000000 0.000000
# 2 -0.005384 0.014584 -0.007145 0.000000 0.000000 0.000000
# 3 -0.002163 -0.007145 0.021732 0.000000 0.000000 0.000000
# 4 0.000000 0.000000 0.000000 0.058633 0.000000 0.000000
# 5 0.000000 0.000000 0.000000 0.000000 -0.008807 0.000000
# 6 0.000000 0.000000 0.000000 0.000000 0.000000 0.036851
#
#
# Mechanical properties :
#
#
# Convention : Reuss Voigt Hill
#
# Bulk Modulus (GPa) = 61.97095 79.06613 70.51854
# Shear Modulus (GPa) = 29.94772 -1.79880 14.07446
#
# Velocity S-wave (km/s) = 3.92137 -0.96105 2.68826
# Velocity P-wave (km/s) = 7.23345 6.27425 6.77085
#
# Compressibility (1/GPa) = 0.01613659
#
# Stress axis : x y z
#
# Youngs Moduli (GPa) = 108.65686 68.56851 46.01568
#
# Poissons Ratio (x) = 0.36914 0.09952
# Poissons Ratio (y) = 0.58496 0.32878
# Poissons Ratio (z) = 0.23500 0.48991
#
# Static dielectric constant tensor:
#      x y z
#    x 1.678070 0.000000 0.000000 
#    y 0.000000 1.651800 0.000000 
#    z 0.000000 0.000000 1.706110 
# 
# From -- ./inp_files/29332.got.cif
#   From: 2010.05.17/outbox.cif.g08.bks.cpg/sg42_15_cif.got.tgz:29332.got - 2010.06.03 19:03:34.
