data_PCOD9369682
_publ_section_title
;
Structure prediction by ZEFSAII (Michael W. Deem and Ramdas Pophale) SiO2 
 PCOD9369682
Probable space group: F M M 2
;
_chemical_formula_sum "Si O2"
_cell_formula_units_Z 80
_cell_length_a 22.917405
_cell_length_b 16.417692
_cell_length_c 9.926520
_cell_angle_alpha 90.000000
_cell_angle_beta 90.000000
_cell_angle_gamma 90.000000
_cell_volume 3734.862051
_symmetry_space_group_name_H-M "F M M 2"
_symmetry_group_IT_number 42
_symmetry_cell_setting 'orthorhombic'
loop_
_space_group_symop_operation_xyz
x,y,z
-x,-y,z
-x,y,z
x,-y,z
x,1/2+y,1/2+z
-x,1/2-y,1/2+z
-x,1/2+y,1/2+z
x,1/2-y,1/2+z
1/2+x,y,1/2+z
1/2-x,-y,1/2+z
1/2-x,y,1/2+z
1/2+x,-y,1/2+z
1/2+x,1/2+y,z
1/2-x,1/2-y,z
1/2-x,1/2+y,z
1/2+x,1/2-y,z
loop_
_atom_site_type_symbol
_atom_site_label
_atom_site_fract_x
_atom_site_fract_y
_atom_site_fract_z
Si Si1 0.198493 0.689676 0.533870
Si Si2 0.064277 0.116103 0.695270
Si Si3 0.631258 0.743649 0.288576
Si Si4 0.670343 0.000000 0.228540
Si Si5 0.764848 0.000000 0.005740
Si Si6 0.434564 0.409192 0.376439
O O1 0.250000 0.750000 0.485119
O O2 0.179560 0.729975 0.674902
O O3 0.149799 0.707185 0.421227
O O4 0.211468 0.592200 0.545305
O O5 0.076759 0.210200 0.721436
O O6 0.123996 0.073316 0.743825
O O7 0.062776 0.095216 0.537962
O O8 0.000000 0.093597 0.750975
O O9 0.612097 0.654457 0.330147
O O10 0.720154 0.000000 0.344532
O O11 0.702011 0.000000 0.082447
O O12 0.500000 0.390550 0.326997
O O13 0.419343 0.500000 0.333744
#
# Coordination Sequence:
#
# PCOD9369682 Si02
#       6
#    16  16  16   8   8  16
#     4  12  28  47  68 105 142 192 239 301 354 434
#     4  11  22  43  73 105 143 187 238 290 357 435
#     4  12  24  45  70 100 146 178 239 291 361 419
#     4  12  25  46  72 112 137 194 236 300 352 432
#     4  12  30  46  74 104 150 190 244 296 372 416
#     4  10  22  40  67 101 136 183 233 284 351 432
#
# _framework density 21.419801
#
# number of rings (size 3 to 8) (size 9 to 14) (size 15 to 20)
#    0.000    0.600    5.000    2.700    4.200    0.000 
#    0.000    0.000    0.000    0.000    0.000    1.400 
#    0.000    0.000    0.000    0.000    0.000    0.000 
#
# Total GULP energy -111439.179232 kJ/mol
# GULP energy per Si atom -5571.958962 kJ/mol
# Density = 2.137105 g / cm^3
# Si number density = 21.419801 Si / 1000 Ang^3
#
#
#
# Elastic Constant Matrix: (Units=GPa)
#
#
# Indices 1 2 3 4 5 6 
#
# 1 95.2160 33.2079 29.2492 0.0000 0.0000 0.0000
# 2 33.2079 75.7653 9.5352 0.0000 0.0000 0.0000
# 3 29.2492 9.5352 53.5348 0.0000 0.0000 0.0000
# 4 0.0000 0.0000 0.0000 48.0073 0.0000 0.0000
# 5 0.0000 0.0000 0.0000 0.0000 6.7164 0.0000
# 6 0.0000 0.0000 0.0000 0.0000 0.0000 28.1654
#
#
#
# Elastic Compliance Matrix: (Units=1/GPa)
#
#
# Indices 1 2 3 4 5 6 
#
# 1 0.014566 -0.005506 -0.006978 0.000000 0.000000 0.000000
# 2 -0.005506 0.015583 0.000233 0.000000 0.000000 0.000000
# 3 -0.006978 0.000233 0.022450 0.000000 0.000000 0.000000
# 4 0.000000 0.000000 0.000000 0.020830 0.000000 0.000000
# 5 0.000000 0.000000 0.000000 0.000000 0.148888 0.000000
# 6 0.000000 0.000000 0.000000 0.000000 0.000000 0.035505
#
#
# Mechanical properties :
#
#
# Convention : Reuss Voigt Hill
#
# Bulk Modulus (GPa) = 35.59065 40.94452 38.26758
# Shear Modulus (GPa) = 17.14148 26.74607 21.94378
#
# Velocity S-wave (km/s) = 2.83196 3.53747 3.20419
# Velocity P-wave (km/s) = 5.22926 5.98680 5.62081
#
# Compressibility (1/GPa) = 0.02809727
#
# Stress axis : x y z
#
# Youngs Moduli (GPa) = 68.65164 64.17359 44.54283
#
# Poissons Ratio (x) = 0.35336 0.31081
# Poissons Ratio (y) = 0.37801 -0.01038
# Poissons Ratio (z) = 0.47903 -0.01495
#
# Static dielectric constant tensor:
#      x y z
#    x 1.827740 0.000000 0.000000 
#    y 0.000000 1.887790 0.000000 
#    z 0.000000 0.000000 1.745650 
# 
# From -- ./inp_files/10024.got.cif
#   From: 2010.05.17/outbox.cif.g08.bks.cpg/sg42_6_cif.got.tgz:10024.got - 2010.06.03 19:03:34.
