data_PCOD9369909
_publ_section_title
;
Structure prediction by ZEFSAII (Michael W. Deem and Ramdas Pophale) SiO2 
 PCOD9369909
Probable space group: F M M 2
;
_chemical_formula_sum "Si O2"
_cell_formula_units_Z 68
_cell_length_a 16.210007
_cell_length_b 20.433281
_cell_length_c 9.377303
_cell_angle_alpha 90.000000
_cell_angle_beta 90.000000
_cell_angle_gamma 90.000000
_cell_volume 3105.984321
_symmetry_space_group_name_H-M "F M M 2"
_symmetry_group_IT_number 42
_symmetry_cell_setting 'orthorhombic'
loop_
_space_group_symop_operation_xyz
x,y,z
-x,-y,z
-x,y,z
x,-y,z
x,1/2+y,1/2+z
-x,1/2-y,1/2+z
-x,1/2+y,1/2+z
x,1/2-y,1/2+z
1/2+x,y,1/2+z
1/2-x,-y,1/2+z
1/2-x,y,1/2+z
1/2+x,-y,1/2+z
1/2+x,1/2+y,z
1/2-x,1/2-y,z
1/2-x,1/2+y,z
1/2+x,1/2-y,z
loop_
_atom_site_type_symbol
_atom_site_label
_atom_site_fract_x
_atom_site_fract_y
_atom_site_fract_z
Si Si1 0.095387 0.832701 0.732030
Si Si2 0.855471 0.889724 0.143971
Si Si3 0.349451 0.245090 0.496077
Si Si4 0.000000 0.500000 0.641743
Si Si5 0.731009 0.576434 0.861465
O O1 0.113133 0.807910 0.573094
O O2 0.152209 0.892625 0.781332
O O3 0.000000 0.848098 0.752297
O O4 0.122145 0.773663 0.838047
O O5 0.878825 0.818280 0.087289
O O6 0.810424 0.887932 0.296155
O O7 0.927910 0.942319 0.141350
O O8 0.786708 0.912421 0.027687
O O9 0.250000 0.250000 0.501516
O O10 0.739641 0.500000 0.832932
#
# Coordination Sequence:
#
# PCOD9369909 Si02
#       5
#    16  16  16   4  16
#     4  11  25  39  64  95 130 169 220 268 322 385
#     4  11  25  40  70  93 133 168 222 262 330 388
#     4  11  23  42  63  95 130 176 210 266 331 392
#     4  12  24  44  68 102 122 184 222 278 308 400
#     4  11  22  42  65  93 128 171 214 267 324 391
#
# _framework density 21.893219999999999
#
# number of rings (size 3 to 8) (size 9 to 14) (size 15 to 20)
#    0.000    0.941    4.706    1.412   11.529    0.471 
#    0.000    0.000    2.588    1.412    0.000    0.000 
#    0.000    0.000    0.000    0.000    0.000    0.000 
#
# Total GULP energy -94825.343650 kJ/mol
# GULP energy per Si atom -5577.961391 kJ/mol
# Density = 2.184339 g / cm^3
# Si number density = 21.893220 Si / 1000 Ang^3
#
#
#
# Elastic Constant Matrix: (Units=GPa)
#
#
# Indices 1 2 3 4 5 6 
#
# 1 101.7268 2.6621 29.6487 0.0000 0.0000 0.0000
# 2 2.6621 41.6261 3.7623 0.0000 0.0000 0.0000
# 3 29.6487 3.7623 60.1673 0.0000 0.0000 0.0000
# 4 0.0000 0.0000 0.0000 19.3646 0.0000 0.0000
# 5 0.0000 0.0000 0.0000 0.0000 6.9042 0.0000
# 6 0.0000 0.0000 0.0000 0.0000 0.0000 38.9243
#
#
#
# Elastic Compliance Matrix: (Units=1/GPa)
#
#
# Indices 1 2 3 4 5 6 
#
# 1 0.011481 -0.000224 -0.005643 0.000000 0.000000 0.000000
# 2 -0.000224 0.024164 -0.001401 0.000000 0.000000 0.000000
# 3 -0.005643 -0.001401 0.019489 0.000000 0.000000 0.000000
# 4 0.000000 0.000000 0.000000 0.051641 0.000000 0.000000
# 5 0.000000 0.000000 0.000000 0.000000 0.144839 0.000000
# 6 0.000000 0.000000 0.000000 0.000000 0.000000 0.025691
#
#
# Mechanical properties :
#
#
# Convention : Reuss Voigt Hill
#
# Bulk Modulus (GPa) = 24.63190 30.62959 27.63074
# Shear Modulus (GPa) = 16.37341 24.20176 20.28759
#
# Velocity S-wave (km/s) = 2.73770 3.32843 3.04741
# Velocity P-wave (km/s) = 4.61180 5.36583 5.00304
#
# Compressibility (1/GPa) = 0.04059777
#
# Stress axis : x y z
#
# Youngs Moduli (GPa) = 87.10102 41.38331 51.31142
#
# Poissons Ratio (x) = 0.00928 0.28957
# Poissons Ratio (y) = 0.01952 0.07186
# Poissons Ratio (z) = 0.49155 0.05796
#
# Static dielectric constant tensor:
#      x y z
#    x 1.757950 0.000000 0.000000 
#    y 0.000000 1.802840 0.000000 
#    z 0.000000 0.000000 1.825040 
# 
# From -- ./inp_files/3279.got.cif
#   From: 2010.05.17/outbox.cif.g08.bks.cpg/sg42_2_cif.got.tgz:3279.got - 2010.06.03 19:03:34.
