data_PCOD9369428
_publ_section_title
;
Structure prediction by ZEFSAII (Michael W. Deem and Ramdas Pophale) SiO2 
 PCOD9369428
Probable space group: F M M 2
;
_chemical_formula_sum "Si O2"
_cell_formula_units_Z 100
_cell_length_a 25.461056
_cell_length_b 10.631562
_cell_length_c 20.020216
_cell_angle_alpha 90.000000
_cell_angle_beta 90.000000
_cell_angle_gamma 90.000000
_cell_volume 5419.288194
_symmetry_space_group_name_H-M "F M M 2"
_symmetry_group_IT_number 42
_symmetry_cell_setting 'orthorhombic'
loop_
_space_group_symop_operation_xyz
x,y,z
-x,-y,z
-x,y,z
x,-y,z
x,1/2+y,1/2+z
-x,1/2-y,1/2+z
-x,1/2+y,1/2+z
x,1/2-y,1/2+z
1/2+x,y,1/2+z
1/2-x,-y,1/2+z
1/2-x,y,1/2+z
1/2+x,-y,1/2+z
1/2+x,1/2+y,z
1/2-x,1/2-y,z
1/2-x,1/2+y,z
1/2+x,1/2-y,z
loop_
_atom_site_type_symbol
_atom_site_label
_atom_site_fract_x
_atom_site_fract_y
_atom_site_fract_z
Si Si1 0.061485 0.643442 0.587540
Si Si2 0.937511 0.859208 0.330450
Si Si3 0.712427 0.860909 0.412223
Si Si4 0.404785 0.295600 0.708481
Si Si5 0.711214 0.360944 0.751086
Si Si6 0.091345 0.143843 0.935987
Si Si7 0.500000 0.000000 0.223876
O O1 0.079680 0.500000 0.599317
O O2 0.090673 0.742114 0.633919
O O3 0.067223 0.666928 0.508655
O O4 0.000000 0.649982 0.605320
O O5 0.911803 0.818462 0.260923
O O6 0.925203 0.749916 0.383704
O O7 0.000000 0.862024 0.321516
O O8 0.920296 0.000000 0.351073
O O9 0.750000 0.750000 0.435156
O O10 0.706081 0.850720 0.331784
O O11 0.654232 0.852172 0.441594
O O12 0.734105 0.000000 0.426582
O O13 0.347243 0.350527 0.721980
O O14 0.452937 0.390836 0.722081
O O15 0.732861 0.500000 0.736293
O O16 0.750000 0.250000 0.728797
O O17 0.076900 0.000000 0.914157
#
# Coordination Sequence:
#
# PCOD9369428 Si02
#       7
#    16  16  16  16  16  16   4
#     4  10  21  39  59  85 118 163 203 245 304 374
#     4  11  23  36  54  87 121 153 191 251 309 359
#     4   9  18  34  57  83 113 147 194 248 299 357
#     4  12  22  39  62  90 123 160 209 252 311 368
#     4  10  21  37  59  89 122 157 205 252 304 364
#     4  10  21  38  61  84 114 156 201 245 296 365
#     4  12  24  36  66  96 120 168 206 264 312 376
#
# _framework density 18.452607
#
# number of rings (size 3 to 8) (size 9 to 14) (size 15 to 20)
#    0.000    1.600    4.000    0.960    1.120    4.160 
#    1.440    0.800    0.000    1.920    0.000    0.000 
#    0.000    0.000    0.000    0.000    0.000    0.000 
#
# Total GULP energy -139241.862209 kJ/mol
# GULP energy per Si atom -5569.674488 kJ/mol
# Density = 1.841061 g / cm^3
# Si number density = 18.452607 Si / 1000 Ang^3
#
#
#
# Elastic Constant Matrix: (Units=GPa)
#
#
# Indices 1 2 3 4 5 6 
#
# 1 76.1319 41.3762 -1.6666 0.0000 0.0000 0.0000
# 2 41.3762 121.0040 31.1825 0.0000 0.0000 0.0000
# 3 -1.6666 31.1825 35.5320 0.0000 0.0000 0.0000
# 4 0.0000 0.0000 0.0000 10.7258 0.0000 0.0000
# 5 0.0000 0.0000 0.0000 0.0000 21.2004 0.0000
# 6 0.0000 0.0000 0.0000 0.0000 0.0000 27.2134
#
#
#
# Elastic Compliance Matrix: (Units=1/GPa)
#
#
# Indices 1 2 3 4 5 6 
#
# 1 0.017713 -0.008104 0.007942 0.000000 0.000000 0.000000
# 2 -0.008104 0.014387 -0.013006 0.000000 0.000000 0.000000
# 3 0.007942 -0.013006 0.039930 0.000000 0.000000 0.000000
# 4 0.000000 0.000000 0.000000 0.093233 0.000000 0.000000
# 5 0.000000 0.000000 0.000000 0.000000 0.047169 0.000000
# 6 0.000000 0.000000 0.000000 0.000000 0.000000 0.036747
#
#
# Mechanical properties :
#
#
# Convention : Reuss Voigt Hill
#
# Bulk Modulus (GPa) = 21.88376 41.60579 31.74477
# Shear Modulus (GPa) = 17.19726 22.61296 19.90511
#
# Velocity S-wave (km/s) = 3.05613 3.50446 3.28794
# Velocity P-wave (km/s) = 4.93340 6.24270 5.62626
#
# Compressibility (1/GPa) = 0.04569598
#
# Stress axis : x y z
#
# Youngs Moduli (GPa) = 56.45538 69.50868 25.04391
#
# Poissons Ratio (x) = 0.56327 -0.19891
# Poissons Ratio (y) = 0.45749 0.32571
# Poissons Ratio (z) = -0.44839 0.90401
#
# Static dielectric constant tensor:
#      x y z
#    x 1.623430 0.000000 0.000000 
#    y 0.000000 1.672870 0.000000 
#    z 0.000000 0.000000 1.622040 
# 
# From -- ./inp_files/23803.got.cif
#   From: 2010.05.17/outbox.cif.g08.bks.cpg/sg42_12_cif.got.tgz:23803.got - 2010.06.03 19:03:34.
