data_PCOD9369344
_publ_section_title
;
Structure prediction by ZEFSAII (Michael W. Deem and Ramdas Pophale) SiO2 
 PCOD9369344
Probable space group: F M M 2
;
_chemical_formula_sum "Si O2"
_cell_formula_units_Z 84
_cell_length_a 13.277791
_cell_length_b 18.862665
_cell_length_c 14.629551
_cell_angle_alpha 90.000000
_cell_angle_beta 90.000000
_cell_angle_gamma 90.000000
_cell_volume 3664.037226
_symmetry_space_group_name_H-M "F M M 2"
_symmetry_group_IT_number 42
_symmetry_cell_setting 'orthorhombic'
loop_
_space_group_symop_operation_xyz
x,y,z
-x,-y,z
-x,y,z
x,-y,z
x,1/2+y,1/2+z
-x,1/2-y,1/2+z
-x,1/2+y,1/2+z
x,1/2-y,1/2+z
1/2+x,y,1/2+z
1/2-x,-y,1/2+z
1/2-x,y,1/2+z
1/2+x,-y,1/2+z
1/2+x,1/2+y,z
1/2-x,1/2-y,z
1/2-x,1/2+y,z
1/2+x,1/2-y,z
loop_
_atom_site_type_symbol
_atom_site_label
_atom_site_fract_x
_atom_site_fract_y
_atom_site_fract_z
Si Si1 0.113536 0.792989 0.727120
Si Si2 0.886357 0.244920 0.932147
Si Si3 0.500000 0.500000 0.459128
Si Si4 0.312468 0.398337 0.416525
Si Si5 0.811520 0.366979 0.706379
Si Si6 0.885895 0.898718 0.021308
O O1 0.128938 0.797457 0.836976
O O2 0.133407 0.709573 0.712243
O O3 0.196770 0.843765 0.683496
O O4 0.000000 0.811500 0.702076
O O5 0.819606 0.314224 0.939984
O O6 0.000000 0.272909 0.924698
O O7 0.884015 0.187165 0.010970
O O8 0.409381 0.439023 0.454410
O O9 0.315768 0.402167 0.306044
O O10 0.206286 0.423350 0.458423
O O11 0.860270 0.412636 0.626586
O O12 0.000000 0.920141 0.996774
#
# Coordination Sequence:
#
# PCOD9369344 Si02
#       6
#    16  16   4  16  16  16
#     4   9  17  31  52  89 142 177 202 256 327 419
#     4   9  17  34  60  94 138 171 203 267 341 399
#     4  12  28  48  74  84 128 186 248 276 328 380
#     4  11  23  44  65  96 131 183 232 277 324 398
#     4  10  21  35  59  98 136 174 223 263 344 411
#     4  11  23  38  66 105 139 169 210 280 355 413
#
# _framework density 22.925530999999999
#
# number of rings (size 3 to 8) (size 9 to 14) (size 15 to 20)
#    0.000    1.905    2.857    1.143    8.000    0.000 
#    1.714    1.429    0.000    0.000    0.000    0.000 
#    0.000    0.000    0.000    0.000    0.000    0.000 
#
# Total GULP energy -117074.812127 kJ/mol
# GULP energy per Si atom -5574.991054 kJ/mol
# Density = 2.287335 g / cm^3
# Si number density = 22.925531 Si / 1000 Ang^3
#
#
#
# Elastic Constant Matrix: (Units=GPa)
#
#
# Indices 1 2 3 4 5 6 
#
# 1 216.4624 22.9878 22.3400 0.0000 0.0000 0.0000
# 2 22.9878 84.0821 8.3792 0.0000 0.0000 0.0000
# 3 22.3400 8.3792 96.4228 0.0000 0.0000 0.0000
# 4 0.0000 0.0000 0.0000 -28.4499 0.0000 0.0000
# 5 0.0000 0.0000 0.0000 0.0000 26.3674 0.0000
# 6 0.0000 0.0000 0.0000 0.0000 0.0000 8.1988
#
#
#
# Elastic Compliance Matrix: (Units=1/GPa)
#
#
# Indices 1 2 3 4 5 6 
#
# 1 0.004855 -0.001226 -0.001018 0.000000 0.000000 0.000000
# 2 -0.001226 0.012307 -0.000785 0.000000 0.000000 0.000000
# 3 -0.001018 -0.000785 0.010675 0.000000 0.000000 0.000000
# 4 0.000000 0.000000 0.000000 -0.035149 0.000000 0.000000
# 5 0.000000 0.000000 0.000000 0.000000 0.037926 0.000000
# 6 0.000000 0.000000 0.000000 0.000000 0.000000 0.121969
#
#
# Mechanical properties :
#
#
# Convention : Reuss Voigt Hill
#
# Bulk Modulus (GPa) = 45.91888 56.04235 50.98061
# Shear Modulus (GPa) = 30.13864 24.10728 27.12296
#
# Velocity S-wave (km/s) = 3.62972 3.24628 3.44334
# Velocity P-wave (km/s) = 6.13511 6.20883 6.17208
#
# Compressibility (1/GPa) = 0.02177754
#
# Stress axis : x y z
#
# Youngs Moduli (GPa) = 205.97243 81.25746 93.67524
#
# Poissons Ratio (x) = 0.09961 0.09539
# Poissons Ratio (y) = 0.25249 0.07357
# Poissons Ratio (z) = 0.20975 0.06382
#
# Static dielectric constant tensor:
#      x y z
#    x 1.873940 0.000000 0.000000 
#    y 0.000000 1.852550 0.000000 
#    z 0.000000 0.000000 1.891270 
# 
# From -- ./inp_files/13922.got.cif
#   From: 2010.05.17/outbox.cif.g08.bks.cpg/sg42_7_cif.got.tgz:13922.got - 2010.06.03 19:03:34.
