data_PCOD9369345
_publ_section_title
;
Structure prediction by ZEFSAII (Michael W. Deem and Ramdas Pophale) SiO2 
 PCOD9369345
Probable space group: F M M 2
;
_chemical_formula_sum "Si O2"
_cell_formula_units_Z 76
_cell_length_a 24.553775
_cell_length_b 10.575528
_cell_length_c 14.325631
_cell_angle_alpha 90.000000
_cell_angle_beta 90.000000
_cell_angle_gamma 90.000000
_cell_volume 3719.924210
_symmetry_space_group_name_H-M "F M M 2"
_symmetry_group_IT_number 42
_symmetry_cell_setting 'orthorhombic'
loop_
_space_group_symop_operation_xyz
x,y,z
-x,-y,z
-x,y,z
x,-y,z
x,1/2+y,1/2+z
-x,1/2-y,1/2+z
-x,1/2+y,1/2+z
x,1/2-y,1/2+z
1/2+x,y,1/2+z
1/2-x,-y,1/2+z
1/2-x,y,1/2+z
1/2+x,-y,1/2+z
1/2+x,1/2+y,z
1/2-x,1/2-y,z
1/2-x,1/2+y,z
1/2+x,1/2-y,z
loop_
_atom_site_type_symbol
_atom_site_label
_atom_site_fract_x
_atom_site_fract_y
_atom_site_fract_z
Si Si1 0.500000 0.000000 0.109650
Si Si2 0.702463 0.352649 0.250782
Si Si3 0.563734 0.000000 0.289236
Si Si4 0.110820 0.248740 0.380571
Si Si5 0.500000 0.307264 0.442786
Si Si6 0.000000 0.353381 0.604603
Si Si7 0.382019 0.848999 0.587719
O O1 0.552287 0.000000 0.177783
O O2 0.500000 0.114474 0.037933
O O3 0.720350 0.500000 0.252579
O O4 0.750000 0.250000 0.258119
O O5 0.659152 0.326123 0.332635
O O6 0.668084 0.329046 0.156306
O O7 0.595614 0.122631 0.325564
O O8 0.500000 0.000000 0.321952
O O9 0.123989 0.282484 0.488066
O O10 0.054129 0.172349 0.384982
O O11 0.500000 0.167999 0.491461
O O12 0.060113 0.307171 0.634156
O O13 0.000000 0.500000 0.628852
O O14 0.386451 0.000000 0.570934
#
# Coordination Sequence:
#
# PCOD9369345 Si02
#       7
#     4  16   8  16   8   8  16
#     4  10  24  36  58 100 156 180 224 252 332 398
#     4  11  28  49  67  93 128 176 236 296 356 408
#     4  10  22  38  64 106 142 188 218 260 322 420
#     4  11  22  40  70  98 137 177 227 270 339 409
#     4  10  21  35  61  96 141 174 210 263 326 397
#     4   8  16  30  59  93 125 159 197 239 307 391
#     4   9  19  38  65  98 132 169 215 269 330 412
#
# _framework density 20.430523999999998
#
# number of rings (size 3 to 8) (size 9 to 14) (size 15 to 20)
#    0.316    1.684    2.105    0.000   10.316    1.684 
#    0.000    4.211    0.000    0.000    0.000    0.000 
#    0.000    0.000    0.000    0.000    0.000    0.000 
#
# Total GULP energy -105979.341397 kJ/mol
# GULP energy per Si atom -5577.860074 kJ/mol
# Density = 2.038402 g / cm^3
# Si number density = 20.430524 Si / 1000 Ang^3
#
#
#
# Elastic Constant Matrix: (Units=GPa)
#
#
# Indices 1 2 3 4 5 6 
#
# 1 133.1867 59.4867 47.2423 0.0000 0.0000 0.0000
# 2 59.4867 98.0491 42.3127 0.0000 0.0000 0.0000
# 3 47.2423 42.3127 100.8330 0.0000 0.0000 0.0000
# 4 0.0000 0.0000 0.0000 28.3652 0.0000 0.0000
# 5 0.0000 0.0000 0.0000 0.0000 11.6375 0.0000
# 6 0.0000 0.0000 0.0000 0.0000 0.0000 21.0589
#
#
#
# Elastic Compliance Matrix: (Units=1/GPa)
#
#
# Indices 1 2 3 4 5 6 
#
# 1 0.010934 -0.005401 -0.002856 0.000000 0.000000 0.000000
# 2 -0.005401 0.015122 -0.003815 0.000000 0.000000 0.000000
# 3 -0.002856 -0.003815 0.012857 0.000000 0.000000 0.000000
# 4 0.000000 0.000000 0.000000 0.035254 0.000000 0.000000
# 5 0.000000 0.000000 0.000000 0.000000 0.085929 0.000000
# 6 0.000000 0.000000 0.000000 0.000000 0.000000 0.047486
#
#
# Mechanical properties :
#
#
# Convention : Reuss Voigt Hill
#
# Bulk Modulus (GPa) = 67.71606 70.01694 68.86650
# Shear Modulus (GPa) = 21.12829 24.41412 22.77120
#
# Velocity S-wave (km/s) = 3.21931 3.46060 3.34214
# Velocity P-wave (km/s) = 6.85822 7.09315 6.97668
#
# Compressibility (1/GPa) = 0.01476755
#
# Stress axis : x y z
#
# Youngs Moduli (GPa) = 91.46083 66.12799 77.78086
#
# Poissons Ratio (x) = 0.35715 0.22216
# Poissons Ratio (y) = 0.49397 0.29676
# Poissons Ratio (z) = 0.26124 0.25230
#
# Static dielectric constant tensor:
#      x y z
#    x 1.751010 0.000000 0.000000 
#    y 0.000000 1.922130 0.000000 
#    z 0.000000 0.000000 1.730900 
# 
# From -- ./inp_files/16400.got.cif
#   From: 2010.05.17/outbox.cif.g08.bks.cpg/sg42_9_cif.got.tgz:16400.got - 2010.06.03 19:03:34.
