data_PCOD9369801
_publ_section_title
;
Structure prediction by ZEFSAII (Michael W. Deem and Ramdas Pophale) SiO2 
 PCOD9369801
Probable space group: F M M 2
;
_chemical_formula_sum "Si O2"
_cell_formula_units_Z 88
_cell_length_a 21.237432
_cell_length_b 23.200232
_cell_length_c 8.820829
_cell_angle_alpha 90.000000
_cell_angle_beta 90.000000
_cell_angle_gamma 90.000000
_cell_volume 4346.140202
_symmetry_space_group_name_H-M "F M M 2"
_symmetry_group_IT_number 42
_symmetry_cell_setting 'orthorhombic'
loop_
_space_group_symop_operation_xyz
x,y,z
-x,-y,z
-x,y,z
x,-y,z
x,1/2+y,1/2+z
-x,1/2-y,1/2+z
-x,1/2+y,1/2+z
x,1/2-y,1/2+z
1/2+x,y,1/2+z
1/2-x,-y,1/2+z
1/2-x,y,1/2+z
1/2+x,-y,1/2+z
1/2+x,1/2+y,z
1/2-x,1/2-y,z
1/2-x,1/2+y,z
1/2+x,1/2-y,z
loop_
_atom_site_type_symbol
_atom_site_label
_atom_site_fract_x
_atom_site_fract_y
_atom_site_fract_z
Si Si1 0.500000 0.000000 0.560241
Si Si2 0.000000 0.000000 0.576659
Si Si3 0.612218 0.500000 0.815893
Si Si4 0.227414 0.816488 0.518785
Si Si5 0.606944 0.688230 0.308974
Si Si6 0.669628 0.124641 0.319142
Si Si7 0.500000 0.094481 0.820447
Si Si8 0.928765 0.698153 0.475371
O O1 0.436194 0.000000 0.459387
O O2 0.500000 0.945012 0.670981
O O3 0.062873 0.000000 0.677273
O O4 0.000000 0.054829 0.467816
O O5 0.655783 0.556876 0.810334
O O6 0.250000 0.750000 0.541920
O O7 0.174198 0.816723 0.387944
O O8 0.283411 0.856027 0.453510
O O9 0.197232 0.845216 0.668269
O O10 0.562774 0.632882 0.324047
O O11 0.573338 0.740845 0.393299
O O12 0.609686 0.701991 0.131242
O O13 0.602939 0.153219 0.362367
O O14 0.000000 0.682257 0.514033
#
# Coordination Sequence:
#
# PCOD9369801 Si02
#       8
#     4   4   8  16  16  16   8  16
#     4  10  24  46  76  98 146 190 242 288 368 428
#     4  10  24  42  68  98 142 178 242 280 368 416
#     4  11  26  48  70 104 134 193 240 302 346 429
#     4  12  26  47  71 106 144 193 240 294 362 434
#     4  12  24  41  69 104 147 183 234 285 363 426
#     4  12  27  46  74 100 145 191 245 294 358 423
#     4  11  22  44  70 106 140 189 230 304 348 435
#     4  12  24  42  66 109 144 183 227 291 359 433
#
# _framework density 20.247852000000002
#
# number of rings (size 3 to 8) (size 9 to 14) (size 15 to 20)
#    0.000    0.364    3.636    4.909    2.545    0.727 
#    1.636    1.818    0.000    0.000    0.000    0.000 
#    0.000    0.000    0.000    0.000    0.000    0.000 
#
# Total GULP energy -123115.881669 kJ/mol
# GULP energy per Si atom -5596.176439 kJ/mol
# Density = 2.020177 g / cm^3
# Si number density = 20.247852 Si / 1000 Ang^3
#
#
#
# Elastic Constant Matrix: (Units=GPa)
#
#
# Indices 1 2 3 4 5 6 
#
# 1 113.2231 62.9543 50.3602 -0.0001 0.0001 0.0000
# 2 62.9543 191.3472 78.7699 -0.0002 0.0000 0.0000
# 3 50.3602 78.7699 146.4725 -0.0003 0.0002 0.0001
# 4 -0.0001 -0.0002 -0.0003 -17.3979 0.0001 0.0001
# 5 0.0001 0.0000 0.0002 0.0001 32.7532 0.0000
# 6 0.0000 0.0000 0.0001 0.0001 0.0000 31.0230
#
#
#
# Elastic Compliance Matrix: (Units=1/GPa)
#
#
# Indices 1 2 3 4 5 6 
#
# 1 0.011459 -0.002759 -0.002456 0.000000 0.000000 0.000000
# 2 -0.002759 0.007376 -0.003018 0.000000 0.000000 0.000000
# 3 -0.002456 -0.003018 0.009295 0.000000 0.000000 0.000000
# 4 0.000000 0.000000 0.000000 -0.057478 0.000000 0.000000
# 5 0.000000 0.000000 0.000000 0.000000 0.030531 0.000000
# 6 0.000000 0.000000 0.000000 0.000000 0.000000 0.032234
#
#
# Mechanical properties :
#
#
# Convention : Reuss Voigt Hill
#
# Bulk Modulus (GPa) = 85.73885 92.80129 89.27007
# Shear Modulus (GPa) = 92.98681 26.53955 59.76318
#
# Velocity S-wave (km/s) = 6.78410 3.62433 5.43874
# Velocity P-wave (km/s) = 10.18832 7.96533 9.14463
#
# Compressibility (1/GPa) = 0.01166332
#
# Stress axis : x y z
#
# Youngs Moduli (GPa) = 87.27141 135.56967 107.58704
#
# Poissons Ratio (x) = 0.37402 0.26423
# Poissons Ratio (y) = 0.24077 0.32473
# Poissons Ratio (z) = 0.21434 0.40918
#
# Static dielectric constant tensor:
#      x y z
#    x 1.733270 0.000000 0.000000 
#    y 0.000000 1.696370 0.000000 
#    z 0.000000 0.000000 1.710700 
# 
# From -- ./inp_files/4104.got.cif
#   From: 2010.05.17/outbox.cif.g08.bks.cpg/sg42_3_cif.got.tgz:4104.got - 2010.06.03 19:03:34.
