data_PCOD9369197
_publ_section_title
;
Structure prediction by ZEFSAII (Michael W. Deem and Ramdas Pophale) SiO2 
 PCOD9369197
Probable space group: F M M 2
;
_chemical_formula_sum "Si O2"
_cell_formula_units_Z 80
_cell_length_a 16.698536
_cell_length_b 11.902816
_cell_length_c 20.711731
_cell_angle_alpha 90.000000
_cell_angle_beta 90.000000
_cell_angle_gamma 90.000000
_cell_volume 4116.655399
_symmetry_space_group_name_H-M "F M M 2"
_symmetry_group_IT_number 42
_symmetry_cell_setting 'orthorhombic'
loop_
_space_group_symop_operation_xyz
x,y,z
-x,-y,z
-x,y,z
x,-y,z
x,1/2+y,1/2+z
-x,1/2-y,1/2+z
-x,1/2+y,1/2+z
x,1/2-y,1/2+z
1/2+x,y,1/2+z
1/2-x,-y,1/2+z
1/2-x,y,1/2+z
1/2+x,-y,1/2+z
1/2+x,1/2+y,z
1/2-x,1/2-y,z
1/2-x,1/2+y,z
1/2+x,1/2-y,z
loop_
_atom_site_type_symbol
_atom_site_label
_atom_site_fract_x
_atom_site_fract_y
_atom_site_fract_z
Si Si1 0.655182 0.244243 0.949930
Si Si2 0.402708 0.500000 0.284802
Si Si3 0.596816 0.373213 0.824468
Si Si4 0.403215 0.870146 0.575806
Si Si5 0.403752 0.000000 0.933538
Si Si6 0.402350 0.724217 0.209237
O O1 0.750000 0.250000 0.946506
O O2 0.621198 0.290215 0.882055
O O3 0.627056 0.116719 0.962380
O O4 0.625344 0.322906 0.007798
O O5 0.500000 0.500000 0.285563
O O6 0.376383 0.500000 0.358651
O O7 0.378325 0.611399 0.247226
O O8 0.500000 0.375043 0.823770
O O9 0.625704 0.500000 0.836481
O O10 0.624081 0.326503 0.754741
O O11 0.500000 0.869657 0.575968
O O12 0.375696 0.792157 0.635593
O O13 0.378386 0.000000 0.585755
O O14 0.500000 0.000000 0.935618
O O15 0.500000 0.727680 0.207906
#
# Coordination Sequence:
#
# PCOD9369197 Si02
#       6
#    16   8  16  16   8  16
#     4  12  26  39  58  85 126 160 203 253 306 358
#     4   9  14  28  57  88 110 132 187 256 295 340
#     4  10  20  37  63  90 119 153 195 248 305 364
#     4  10  20  37  63  88 115 155 203 247 294 360
#     4  11  22  40  65  88 117 162 211 258 306 364
#     4   9  16  31  58  91 114 141 193 253 297 351
#
# _framework density 19.433252
#
# number of rings (size 3 to 8) (size 9 to 14) (size 15 to 20)
#    0.000    1.800    3.000    2.400    2.800    1.600 
#    1.800    1.000    0.000    2.400    0.000    0.000 
#    0.000    0.000    0.000    0.000    0.000    0.000 
#
# Total GULP energy -111626.848504 kJ/mol
# GULP energy per Si atom -5581.342425 kJ/mol
# Density = 1.938902 g / cm^3
# Si number density = 19.433252 Si / 1000 Ang^3
#
#
#
# Elastic Constant Matrix: (Units=GPa)
#
#
# Indices 1 2 3 4 5 6 
#
# 1 26.8324 22.4845 11.0838 0.0000 0.0000 0.0000
# 2 22.4845 109.2505 28.0087 0.0000 0.0000 0.0000
# 3 11.0838 28.0087 110.2118 0.0000 0.0000 0.0000
# 4 0.0000 0.0000 0.0000 113.2345 0.0000 0.0000
# 5 0.0000 0.0000 0.0000 0.0000 -4.5031 0.0000
# 6 0.0000 0.0000 0.0000 0.0000 0.0000 7.3447
#
#
#
# Elastic Compliance Matrix: (Units=1/GPa)
#
#
# Indices 1 2 3 4 5 6 
#
# 1 0.045599 -0.008781 -0.002354 0.000000 0.000000 0.000000
# 2 -0.008781 0.011482 -0.002035 0.000000 0.000000 0.000000
# 3 -0.002354 -0.002035 0.009827 0.000000 0.000000 0.000000
# 4 0.000000 0.000000 0.000000 0.008831 0.000000 0.000000
# 5 0.000000 0.000000 0.000000 0.000000 -0.222069 0.000000
# 6 0.000000 0.000000 0.000000 0.000000 0.000000 0.136153
#
#
# Mechanical properties :
#
#
# Convention : Reuss Voigt Hill
#
# Bulk Modulus (GPa) = 24.64990 41.04985 32.84987
# Shear Modulus (GPa) = 168.42870 35.52974 101.97922
#
# Velocity S-wave (km/s) = 9.31979 4.28050 7.25194
# Velocity P-wave (km/s) = 11.33681 6.75275 9.33067
#
# Compressibility (1/GPa) = 0.04056812
#
# Stress axis : x y z
#
# Youngs Moduli (GPa) = 21.93034 87.09160 101.75681
#
# Poissons Ratio (x) = 0.76475 0.23956
# Poissons Ratio (y) = 0.19257 0.20707
# Poissons Ratio (z) = 0.05163 0.17723
#
# Static dielectric constant tensor:
#      x y z
#    x 1.665490 0.000000 0.000000 
#    y 0.000000 1.663710 0.000000 
#    z 0.000000 0.000000 1.669600 
# 
# From -- ./inp_files/24262.got.cif
#   From: 2010.05.17/outbox.cif.g08.bks.cpg/sg42_13_cif.got.tgz:24262.got - 2010.06.03 19:03:34.
