data_PCOD9369501
_publ_section_title
;
Structure prediction by ZEFSAII (Michael W. Deem and Ramdas Pophale) SiO2 
 PCOD9369501
Probable space group: F M M 2
;
_chemical_formula_sum "Si O2"
_cell_formula_units_Z 88
_cell_length_a 20.577763
_cell_length_b 14.810919
_cell_length_c 15.213213
_cell_angle_alpha 90.000000
_cell_angle_beta 90.000000
_cell_angle_gamma 90.000000
_cell_volume 4636.615831
_symmetry_space_group_name_H-M "F M M 2"
_symmetry_group_IT_number 42
_symmetry_cell_setting 'orthorhombic'
loop_
_space_group_symop_operation_xyz
x,y,z
-x,-y,z
-x,y,z
x,-y,z
x,1/2+y,1/2+z
-x,1/2-y,1/2+z
-x,1/2+y,1/2+z
x,1/2-y,1/2+z
1/2+x,y,1/2+z
1/2-x,-y,1/2+z
1/2-x,y,1/2+z
1/2+x,-y,1/2+z
1/2+x,1/2+y,z
1/2-x,1/2-y,z
1/2-x,1/2+y,z
1/2+x,1/2-y,z
loop_
_atom_site_type_symbol
_atom_site_label
_atom_site_fract_x
_atom_site_fract_y
_atom_site_fract_z
Si Si1 0.426615 0.896587 0.567070
Si Si2 0.815962 0.200093 0.352466
Si Si3 0.195570 0.684467 0.646245
Si Si4 0.074583 0.841035 0.868504
Si Si5 0.732688 0.000000 0.112601
Si Si6 0.722187 0.000000 0.900663
Si Si7 0.147700 0.000000 0.776942
O O1 0.500000 0.875731 0.596698
O O2 0.373554 0.826264 0.600498
O O3 0.425824 0.892238 0.461803
O O4 0.411432 0.000000 0.594159
O O5 0.750000 0.250000 0.385090
O O6 0.815159 0.209911 0.247061
O O7 0.879727 0.254037 0.381457
O O8 0.812644 0.094431 0.376289
O O9 0.250000 0.750000 0.605991
O O10 0.228125 0.587276 0.641780
O O11 0.107340 0.910234 0.800250
O O12 0.000000 0.819275 0.845502
O O13 0.669431 0.000000 0.175240
O O14 0.729284 0.000000 0.006678
O O15 0.789338 0.000000 0.843192
#
# Coordination Sequence:
#
# PCOD9369501 Si02
#       7
#    16  16  16  16   8   8   8
#     4  10  21  38  63  93 122 158 206 256 308 363
#     4  11  23  41  62  91 125 161 205 252 309 370
#     4  11  22  38  60  92 125 158 204 253 307 368
#     4  11  23  40  64  92 125 164 206 255 312 366
#     4  12  24  37  60  96 124 157 205 253 314 369
#     4  12  24  39  64  95 124 163 200 258 314 362
#     4  12  19  42  66  93 127 156 207 265 307 361
#
# _framework density 18.97936
#
# number of rings (size 3 to 8) (size 9 to 14) (size 15 to 20)
#    0.000    0.909    5.455    2.455    2.545    0.727 
#    0.000    0.455    0.000    1.091    0.000    0.000 
#    0.000    0.000    0.000    0.000    0.000    0.000 
#
# Total GULP energy -122812.010066 kJ/mol
# GULP energy per Si atom -5582.364094 kJ/mol
# Density = 1.893616 g / cm^3
# Si number density = 18.979360 Si / 1000 Ang^3
#
#
#
# Elastic Constant Matrix: (Units=GPa)
#
#
# Indices 1 2 3 4 5 6 
#
# 1 151.4939 72.6286 26.9173 0.0000 0.0000 0.0000
# 2 72.6286 119.6271 -8.9965 0.0000 0.0000 0.0000
# 3 26.9173 -8.9965 64.1984 0.0000 0.0000 0.0000
# 4 0.0000 0.0000 0.0000 18.5656 0.0000 0.0000
# 5 0.0000 0.0000 0.0000 0.0000 28.0799 0.0000
# 6 0.0000 0.0000 0.0000 0.0000 0.0000 28.4359
#
#
#
# Elastic Compliance Matrix: (Units=1/GPa)
#
#
# Indices 1 2 3 4 5 6 
#
# 1 0.011002 -0.007101 -0.005608 0.000000 0.000000 0.000000
# 2 -0.007101 0.013032 0.004804 0.000000 0.000000 0.000000
# 3 -0.005608 0.004804 0.018601 0.000000 0.000000 0.000000
# 4 0.000000 0.000000 0.000000 0.053863 0.000000 0.000000
# 5 0.000000 0.000000 0.000000 0.000000 0.035613 0.000000
# 6 0.000000 0.000000 0.000000 0.000000 0.000000 0.035167
#
#
# Mechanical properties :
#
#
# Convention : Reuss Voigt Hill
#
# Bulk Modulus (GPa) = 37.28032 57.37981 47.33006
# Shear Modulus (GPa) = 26.03762 31.33427 28.68595
#
# Velocity S-wave (km/s) = 3.70792 4.06762 3.89193
# Velocity P-wave (km/s) = 6.16578 7.23595 6.72220
#
# Compressibility (1/GPa) = 0.02682380
#
# Stress axis : x y z
#
# Youngs Moduli (GPa) = 90.89430 76.73485 53.75987
#
# Poissons Ratio (x) = 0.54491 0.30149
# Poissons Ratio (y) = 0.64546 -0.25824
# Poissons Ratio (z) = 0.50974 -0.36861
#
# Static dielectric constant tensor:
#      x y z
#    x 1.677360 0.000000 0.000000 
#    y 0.000000 1.652180 0.000000 
#    z 0.000000 0.000000 1.679190 
# 
# From -- ./inp_files/13934.got.cif
#   From: 2010.05.17/outbox.cif.g08.bks.cpg/sg42_7_cif.got.tgz:13934.got - 2010.06.03 19:03:34.
