data_PCOD9369772
_publ_section_title
;
Structure prediction by ZEFSAII (Michael W. Deem and Ramdas Pophale) SiO2 
 PCOD9369772
Probable space group: F M M 2
;
_chemical_formula_sum "Si O2"
_cell_formula_units_Z 88
_cell_length_a 16.976106
_cell_length_b 16.108888
_cell_length_c 13.132156
_cell_angle_alpha 90.000000
_cell_angle_beta 90.000000
_cell_angle_gamma 90.000000
_cell_volume 3591.200671
_symmetry_space_group_name_H-M "F M M 2"
_symmetry_group_IT_number 42
_symmetry_cell_setting 'orthorhombic'
loop_
_space_group_symop_operation_xyz
x,y,z
-x,-y,z
-x,y,z
x,-y,z
x,1/2+y,1/2+z
-x,1/2-y,1/2+z
-x,1/2+y,1/2+z
x,1/2-y,1/2+z
1/2+x,y,1/2+z
1/2-x,-y,1/2+z
1/2-x,y,1/2+z
1/2+x,-y,1/2+z
1/2+x,1/2+y,z
1/2-x,1/2-y,z
1/2-x,1/2+y,z
1/2+x,1/2-y,z
loop_
_atom_site_type_symbol
_atom_site_label
_atom_site_fract_x
_atom_site_fract_y
_atom_site_fract_z
Si Si1 0.200925 0.833834 0.630270
Si Si2 0.407004 0.289589 0.059954
Si Si3 0.126308 0.500000 0.392670
Si Si4 0.787944 0.000000 0.089191
Si Si5 0.809585 0.000000 0.328369
Si Si6 0.088356 0.144238 0.280991
Si Si7 0.369611 0.173015 0.342430
O O1 0.250000 0.750000 0.610390
O O2 0.115347 0.804659 0.590717
O O3 0.233507 0.917419 0.581342
O O4 0.195655 0.838654 0.754017
O O5 0.500000 0.297179 0.035896
O O6 0.391131 0.345001 0.160699
O O7 0.355148 0.315007 0.962532
O O8 0.136266 0.500000 0.514739
O O9 0.220588 0.500000 0.366883
O O10 0.090344 0.417150 0.345948
O O11 0.811716 0.000000 0.206285
O O12 0.856020 0.085642 0.348246
O O13 0.090105 0.240073 0.316029
O O14 0.000000 0.111420 0.287047
#
# Coordination Sequence:
#
# PCOD9369772 Si02
#       7
#    16  16   8   8   8  16  16
#     4  11  23  41  67  96 137 175 219 285 343 399
#     4  10  23  42  67  96 129 180 230 275 337 406
#     4  12  26  37  66 100 130 179 220 276 347 406
#     4  12  24  43  60 101 134 170 219 281 344 413
#     4  12  23  42  64  99 135 169 229 275 345 407
#     4  10  23  42  67  94 132 179 226 284 335 397
#     4  11  22  41  65  95 134 172 223 273 335 408
#
# _framework density 24.504338000000001
#
# number of rings (size 3 to 8) (size 9 to 14) (size 15 to 20)
#    0.000    1.091    1.818    5.182    2.545    1.455 
#    0.000    3.182    0.000    6.545    0.000    0.000 
#    0.000    0.000    0.000    0.000    0.000    0.000 
#
# Total GULP energy -122750.137127 kJ/mol
# GULP energy per Si atom -5579.551688 kJ/mol
# Density = 2.444857 g / cm^3
# Si number density = 24.504338 Si / 1000 Ang^3
#
#
#
# Elastic Constant Matrix: (Units=GPa)
#
#
# Indices 1 2 3 4 5 6 
#
# 1 79.2045 36.9013 12.5127 0.0000 0.0000 0.0000
# 2 36.9013 176.7716 27.3324 0.0000 0.0000 0.0000
# 3 12.5127 27.3324 102.7079 0.0000 0.0000 0.0000
# 4 0.0000 0.0000 0.0000 32.1739 0.0000 0.0000
# 5 0.0000 0.0000 0.0000 0.0000 9.9389 0.0000
# 6 0.0000 0.0000 0.0000 0.0000 0.0000 -5.0693
#
#
#
# Elastic Compliance Matrix: (Units=1/GPa)
#
#
# Indices 1 2 3 4 5 6 
#
# 1 0.014078 -0.002788 -0.000973 0.000000 0.000000 0.000000
# 2 -0.002788 0.006452 -0.001377 0.000000 0.000000 0.000000
# 3 -0.000973 -0.001377 0.010221 0.000000 0.000000 0.000000
# 4 0.000000 0.000000 0.000000 0.031081 0.000000 0.000000
# 5 0.000000 0.000000 0.000000 0.000000 0.100615 0.000000
# 6 0.000000 0.000000 0.000000 0.000000 0.000000 -0.197266
#
#
# Mechanical properties :
#
#
# Convention : Reuss Voigt Hill
#
# Bulk Modulus (GPa) = 48.84185 56.90854 52.87520
# Shear Modulus (GPa) = -282.23528 26.20453 -128.01537
#
# Velocity S-wave (km/s) = -10.74373 3.27369 -7.23570
# Velocity P-wave (km/s) = 11.57275 6.12892 6.94135
#
# Compressibility (1/GPa) = 0.02047424
#
# Stress axis : x y z
#
# Youngs Moduli (GPa) = 71.03082 154.98915 97.83377
#
# Poissons Ratio (x) = 0.43218 0.09520
# Poissons Ratio (y) = 0.19806 0.13475
# Poissons Ratio (z) = 0.06912 0.21347
#
# Static dielectric constant tensor:
#      x y z
#    x 2.030980 0.000000 0.000000 
#    y 0.000000 2.015750 0.000000 
#    z 0.000000 0.000000 1.983080 
# 
# From -- ./inp_files/15806.got.cif
#   From: 2010.05.17/outbox.cif.g08.bks.cpg/sg42_8_cif.got.tgz:15806.got - 2010.06.03 19:03:34.
