data_PCOD9369101
_publ_section_title
;
Structure prediction by ZEFSAII (Michael W. Deem and Ramdas Pophale) SiO2 
 PCOD9369101
Probable space group: F M M 2
;
_chemical_formula_sum "Si O2"
_cell_formula_units_Z 64
_cell_length_a 26.371290
_cell_length_b 13.285252
_cell_length_c 8.088561
_cell_angle_alpha 90.000000
_cell_angle_beta 90.000000
_cell_angle_gamma 90.000000
_cell_volume 2833.821144
_symmetry_space_group_name_H-M "F M M 2"
_symmetry_group_IT_number 42
_symmetry_cell_setting 'orthorhombic'
loop_
_space_group_symop_operation_xyz
x,y,z
-x,-y,z
-x,y,z
x,-y,z
x,1/2+y,1/2+z
-x,1/2-y,1/2+z
-x,1/2+y,1/2+z
x,1/2-y,1/2+z
1/2+x,y,1/2+z
1/2-x,-y,1/2+z
1/2-x,y,1/2+z
1/2+x,-y,1/2+z
1/2+x,1/2+y,z
1/2-x,1/2-y,z
1/2-x,1/2+y,z
1/2+x,1/2-y,z
loop_
_atom_site_type_symbol
_atom_site_label
_atom_site_fract_x
_atom_site_fract_y
_atom_site_fract_z
Si Si1 0.395287 0.617827 0.219540
Si Si2 0.193007 0.287733 0.913128
Si Si3 0.347196 0.387077 0.744629
Si Si4 0.059374 0.812936 0.568548
O O1 0.398840 0.500000 0.175601
O O2 0.337161 0.645928 0.275789
O O3 0.421495 0.698228 0.097133
O O4 0.425797 0.642255 0.390340
O O5 0.250000 0.250000 0.884896
O O6 0.163943 0.182095 0.899536
O O7 0.183918 0.342780 0.086939
O O8 0.332150 0.500000 0.773950
O O9 0.405628 0.375610 0.694503
O O10 0.000000 0.819857 0.597942
#
# Coordination Sequence:
#
# PCOD9369101 Si02
#       4
#    16  16  16  16
#     4  10  22  40  60  84 116 152 190 234 284 338
#     4  10  20  38  59  83 115 147 188 237 279 333
#     4  10  22  38  56  82 114 148 188 232 282 338
#     4  10  20  36  59  85 113 147 190 235 279 335
#
# _framework density 22.584347000000001
#
# number of rings (size 3 to 8) (size 9 to 14) (size 15 to 20)
#    0.000    2.000    0.000    4.500    0.000    5.500 
#    0.000   22.500    0.000   12.000    0.000    0.000 
#    0.000    0.000    0.000    0.000    0.000    0.000 
#
# Total GULP energy -89322.441310 kJ/mol
# GULP energy per Si atom -5582.652582 kJ/mol
# Density = 2.253294 g / cm^3
# Si number density = 22.584347 Si / 1000 Ang^3
#
#
#
# Elastic Constant Matrix: (Units=GPa)
#
#
# Indices 1 2 3 4 5 6 
#
# 1 142.8396 -29.5727 -2.8627 0.0000 0.0000 0.0000
# 2 -29.5727 146.5656 -8.9057 0.0000 0.0000 0.0000
# 3 -2.8627 -8.9057 42.3209 0.0000 0.0000 0.0000
# 4 0.0000 0.0000 0.0000 11.8788 0.0000 0.0000
# 5 0.0000 0.0000 0.0000 0.0000 7.7085 0.0000
# 6 0.0000 0.0000 0.0000 0.0000 0.0000 2.6366
#
#
#
# Elastic Compliance Matrix: (Units=1/GPa)
#
#
# Indices 1 2 3 4 5 6 
#
# 1 0.007334 0.001529 0.000818 0.000000 0.000000 0.000000
# 2 0.001529 0.007230 0.001625 0.000000 0.000000 0.000000
# 3 0.000818 0.001625 0.024026 0.000000 0.000000 0.000000
# 4 0.000000 0.000000 0.000000 0.084183 0.000000 0.000000
# 5 0.000000 0.000000 0.000000 0.000000 0.129727 0.000000
# 6 0.000000 0.000000 0.000000 0.000000 0.000000 0.379277
#
#
# Mechanical properties :
#
#
# Convention : Reuss Voigt Hill
#
# Bulk Modulus (GPa) = 21.48918 27.67155 24.58036
# Shear Modulus (GPa) = 7.82051 29.31592 18.56822
#
# Velocity S-wave (km/s) = 1.86288 3.60677 2.87046
# Velocity P-wave (km/s) = 3.76335 5.44281 4.67905
#
# Compressibility (1/GPa) = 0.04653505
#
# Stress axis : x y z
#
# Youngs Moduli (GPa) = 136.35301 138.30833 41.62114
#
# Poissons Ratio (x) = -0.21154 -0.03404
# Poissons Ratio (y) = -0.20855 -0.06763
# Poissons Ratio (z) = -0.11153 -0.22474
#
# Static dielectric constant tensor:
#      x y z
#    x 1.866520 0.000000 0.000000 
#    y 0.000000 1.820510 0.000000 
#    z 0.000000 0.000000 1.903990 
# 
# From -- ./inp_files/5438.got.cif
#   From: 2010.05.17/outbox.cif.g08.bks.cpg/sg42_3_cif.got.tgz:5438.got - 2010.06.03 19:03:34.
