data_PCOD9369255
_publ_section_title
;
Structure prediction by ZEFSAII (Michael W. Deem and Ramdas Pophale) SiO2 
 PCOD9369255
Probable space group: F M M 2
;
_chemical_formula_sum "Si O2"
_cell_formula_units_Z 80
_cell_length_a 15.822552
_cell_length_b 18.067465
_cell_length_c 12.159627
_cell_angle_alpha 90.000000
_cell_angle_beta 90.000000
_cell_angle_gamma 90.000000
_cell_volume 3476.113968
_symmetry_space_group_name_H-M "F M M 2"
_symmetry_group_IT_number 42
_symmetry_cell_setting 'orthorhombic'
loop_
_space_group_symop_operation_xyz
x,y,z
-x,-y,z
-x,y,z
x,-y,z
x,1/2+y,1/2+z
-x,1/2-y,1/2+z
-x,1/2+y,1/2+z
x,1/2-y,1/2+z
1/2+x,y,1/2+z
1/2-x,-y,1/2+z
1/2-x,y,1/2+z
1/2+x,-y,1/2+z
1/2+x,1/2+y,z
1/2-x,1/2-y,z
1/2-x,1/2+y,z
1/2+x,1/2-y,z
loop_
_atom_site_type_symbol
_atom_site_label
_atom_site_fract_x
_atom_site_fract_y
_atom_site_fract_z
Si Si1 0.278271 0.500000 0.899750
Si Si2 0.696702 0.500000 0.145745
Si Si3 0.134528 0.819161 0.636972
Si Si4 0.831579 0.656543 0.683209
Si Si5 0.594736 0.133311 0.370801
Si Si6 0.097047 0.196604 0.399927
O O1 0.235829 0.500000 0.773482
O O2 0.337140 0.427577 0.898614
O O3 0.246251 0.500000 0.031178
O O4 0.643531 0.424089 0.142225
O O5 0.119245 0.730652 0.649008
O O6 0.234642 0.832316 0.648438
O O7 0.093136 0.860203 0.738406
O O8 0.103994 0.840447 0.517695
O O9 0.840847 0.658673 0.814554
O O10 0.500000 0.117744 0.411358
O O11 0.620433 0.216386 0.407331
O O12 0.000000 0.193282 0.361030
#
# Coordination Sequence:
#
# PCOD9369255 Si02
#       6
#     8   8  16  16  16  16
#     4  12  25  42  62  98 129 179 217 272 325 398
#     4  12  26  42  64  94 136 173 219 272 328 388
#     4  10  20  38  64  96 123 168 218 271 323 390
#     4  10  23  38  62  93 129 164 218 270 320 385
#     4  10  21  40  64  94 129 167 217 270 327 393
#     4  10  22  41  66  94 130 170 216 274 333 389
#
# _framework density 23.014203999999999
#
# number of rings (size 3 to 8) (size 9 to 14) (size 15 to 20)
#    0.000    1.600    2.000    2.100    2.800    7.200 
#    0.000    2.500    0.000    0.000    0.000    0.000 
#    0.000    0.000    0.000    0.000    0.000    0.000 
#
# Total GULP energy -111580.307013 kJ/mol
# GULP energy per Si atom -5579.015351 kJ/mol
# Density = 2.296182 g / cm^3
# Si number density = 23.014204 Si / 1000 Ang^3
#
#
#
# Elastic Constant Matrix: (Units=GPa)
#
#
# Indices 1 2 3 4 5 6 
#
# 1 50.8549 21.8509 5.6149 0.0000 0.0000 0.0000
# 2 21.8509 97.3833 0.7047 0.0000 0.0000 0.0000
# 3 5.6149 0.7047 155.1192 0.0000 0.0000 0.0000
# 4 0.0000 0.0000 0.0000 -16.1342 0.0000 0.0000
# 5 0.0000 0.0000 0.0000 0.0000 -113.9636 0.0000
# 6 0.0000 0.0000 0.0000 0.0000 0.0000 13.9937
#
#
#
# Elastic Compliance Matrix: (Units=1/GPa)
#
#
# Indices 1 2 3 4 5 6 
#
# 1 0.021853 -0.004898 -0.000769 0.000000 0.000000 0.000000
# 2 -0.004898 0.011367 0.000126 0.000000 0.000000 0.000000
# 3 -0.000769 0.000126 0.006474 0.000000 0.000000 0.000000
# 4 0.000000 0.000000 0.000000 -0.061980 0.000000 0.000000
# 5 0.000000 0.000000 0.000000 0.000000 -0.008775 0.000000
# 6 0.000000 0.000000 0.000000 0.000000 0.000000 0.071461
#
#
# Mechanical properties :
#
#
# Convention : Reuss Voigt Hill
#
# Bulk Modulus (GPa) = 34.95052 39.96648 37.45850
# Shear Modulus (GPa) = 81.94177 -4.87503 38.53337
#
# Velocity S-wave (km/s) = 5.97345 -1.45701 4.09630
# Velocity P-wave (km/s) = 7.92437 3.81749 6.21968
#
# Compressibility (1/GPa) = 0.02861188
#
# Stress axis : x y z
#
# Youngs Moduli (GPa) = 45.76005 87.97574 154.46607
#
# Poissons Ratio (x) = 0.43089 0.11875
# Poissons Ratio (y) = 0.22413 -0.01941
# Poissons Ratio (z) = 0.03518 -0.01105
#
# Static dielectric constant tensor:
#      x y z
#    x 2.178340 0.000000 0.000000 
#    y 0.000000 1.879120 0.000000 
#    z 0.000000 0.000000 1.977310 
# 
# From -- ./inp_files/8613.got.cif
#   From: 2010.05.17/outbox.cif.g08.bks.cpg/sg42_5_cif.got.tgz:8613.got - 2010.06.03 19:03:34.
