data_PCOD9369550
_publ_section_title
;
Structure prediction by ZEFSAII (Michael W. Deem and Ramdas Pophale) SiO2 
 PCOD9369550
Probable space group: F M M 2
;
_chemical_formula_sum "Si O2"
_cell_formula_units_Z 64
_cell_length_a 9.425195
_cell_length_b 13.595295
_cell_length_c 21.965813
_cell_angle_alpha 90.000000
_cell_angle_beta 90.000000
_cell_angle_gamma 90.000000
_cell_volume 2814.662078
_symmetry_space_group_name_H-M "F M M 2"
_symmetry_group_IT_number 42
_symmetry_cell_setting 'orthorhombic'
loop_
_space_group_symop_operation_xyz
x,y,z
-x,-y,z
-x,y,z
x,-y,z
x,1/2+y,1/2+z
-x,1/2-y,1/2+z
-x,1/2+y,1/2+z
x,1/2-y,1/2+z
1/2+x,y,1/2+z
1/2-x,-y,1/2+z
1/2-x,y,1/2+z
1/2+x,-y,1/2+z
1/2+x,1/2+y,z
1/2-x,1/2-y,z
1/2-x,1/2+y,z
1/2+x,1/2-y,z
loop_
_atom_site_type_symbol
_atom_site_label
_atom_site_fract_x
_atom_site_fract_y
_atom_site_fract_z
Si Si1 0.000000 0.399536 0.307950
Si Si2 0.000000 0.882002 0.190299
Si Si3 0.750000 0.750000 0.631161
Si Si4 0.000000 0.190527 0.316993
Si Si5 0.737063 0.889763 0.898323
Si Si6 0.166531 0.117396 0.033523
O O1 0.000000 0.292715 0.279803
O O2 0.867348 0.400451 0.352602
O O3 0.000000 0.500000 0.269662
O O4 0.864691 0.813514 0.169948
O O5 0.000000 0.888116 0.263430
O O6 0.000000 0.000000 0.169098
O O7 0.721072 0.664815 0.580314
O O8 0.870747 0.178851 0.362959
O O9 0.673970 0.000000 0.905484
O O10 0.791649 0.858651 0.964357
O O11 0.000000 0.147685 0.045281
O O12 0.168771 0.000000 0.038973
#
# Coordination Sequence:
#
# PCOD9369550 Si02
#       6
#     8   8   8   8  16  16
#     4  10  22  39  62  99 142 183 237 286 356 455
#     4  12  30  56  77 107 155 201 261 324 369 443
#     4  12  26  46  80 106 140 210 256 302 386 440
#     4  12  26  43  69 104 147 194 244 302 383 434
#     4  10  21  39  67 103 145 190 234 299 377 447
#     4  10  21  42  71 107 151 192 241 310 381 451
#
# _framework density 22.738077000000001
#
# number of rings (size 3 to 8) (size 9 to 14) (size 15 to 20)
#    0.000    1.250    2.500    2.625    7.000    1.000 
#    0.000    5.000    0.000    0.000    0.000    0.000 
#    0.000    0.000    0.000    0.000    0.000    0.000 
#
# Total GULP energy -89069.502364 kJ/mol
# GULP energy per Si atom -5566.843898 kJ/mol
# Density = 2.268632 g / cm^3
# Si number density = 22.738077 Si / 1000 Ang^3
#
#
#
# Elastic Constant Matrix: (Units=GPa)
#
#
# Indices 1 2 3 4 5 6 
#
# 1 108.4110 47.1462 15.8827 0.0000 0.0000 0.0000
# 2 47.1462 172.8034 27.2600 0.0000 0.0000 0.0000
# 3 15.8827 27.2600 90.7579 0.0000 0.0000 0.0000
# 4 0.0000 0.0000 0.0000 33.6812 0.0000 0.0000
# 5 0.0000 0.0000 0.0000 0.0000 13.4176 0.0000
# 6 0.0000 0.0000 0.0000 0.0000 0.0000 23.3180
#
#
#
# Elastic Compliance Matrix: (Units=1/GPa)
#
#
# Indices 1 2 3 4 5 6 
#
# 1 0.010557 -0.002718 -0.001031 0.000000 0.000000 0.000000
# 2 -0.002718 0.006774 -0.001559 0.000000 0.000000 0.000000
# 3 -0.001031 -0.001559 0.011667 0.000000 0.000000 0.000000
# 4 0.000000 0.000000 0.000000 0.029690 0.000000 0.000000
# 5 0.000000 0.000000 0.000000 0.000000 0.074529 0.000000
# 6 0.000000 0.000000 0.000000 0.000000 0.000000 0.042885
#
#
# Mechanical properties :
#
#
# Convention : Reuss Voigt Hill
#
# Bulk Modulus (GPa) = 54.39956 61.39446 57.89701
# Shear Modulus (GPa) = 25.92733 32.86225 29.39479
#
# Velocity S-wave (km/s) = 3.38044 3.80577 3.59939
# Velocity P-wave (km/s) = 6.26202 6.80964 6.54156
#
# Compressibility (1/GPa) = 0.01838250
#
# Stress axis : x y z
#
# Youngs Moduli (GPa) = 94.72314 147.61600 85.71108
#
# Poissons Ratio (x) = 0.40116 0.08839
# Poissons Ratio (y) = 0.25742 0.13364
# Poissons Ratio (z) = 0.09768 0.23016
#
# Static dielectric constant tensor:
#      x y z
#    x 1.841510 0.000000 0.000000 
#    y 0.000000 2.009980 0.000000 
#    z 0.000000 0.000000 1.809130 
# 
# From -- ./inp_files/27593.got.cif
#   From: 2010.05.17/outbox.cif.g08.bks.cpg/sg42_14_cif.got.tgz:27593.got - 2010.06.03 19:03:34.
