data_PCOD9369524
_publ_section_title
;
Structure prediction by ZEFSAII (Michael W. Deem and Ramdas Pophale) SiO2 
 PCOD9369524
Probable space group: F M M 2
;
_chemical_formula_sum "Si O2"
_cell_formula_units_Z 116
_cell_length_a 23.011177
_cell_length_b 17.819503
_cell_length_c 14.557778
_cell_angle_alpha 90.000000
_cell_angle_beta 90.000000
_cell_angle_gamma 90.000000
_cell_volume 5969.383933
_symmetry_space_group_name_H-M "F M M 2"
_symmetry_group_IT_number 42
_symmetry_cell_setting 'orthorhombic'
loop_
_space_group_symop_operation_xyz
x,y,z
-x,-y,z
-x,y,z
x,-y,z
x,1/2+y,1/2+z
-x,1/2-y,1/2+z
-x,1/2+y,1/2+z
x,1/2-y,1/2+z
1/2+x,y,1/2+z
1/2-x,-y,1/2+z
1/2-x,y,1/2+z
1/2+x,-y,1/2+z
1/2+x,1/2+y,z
1/2-x,1/2-y,z
1/2-x,1/2+y,z
1/2+x,1/2-y,z
loop_
_atom_site_type_symbol
_atom_site_label
_atom_site_fract_x
_atom_site_fract_y
_atom_site_fract_z
Si Si1 0.675414 0.658860 0.900590
Si Si2 0.000000 0.000000 0.541158
Si Si3 0.753912 0.340991 0.733268
Si Si4 0.132263 0.812706 0.329058
Si Si5 0.735052 0.087037 0.037550
Si Si6 0.567508 0.288144 0.681706
Si Si7 0.899696 0.375353 0.010296
Si Si8 0.934082 0.087431 0.837149
O O1 0.702766 0.637082 0.802356
O O2 0.662048 0.746719 0.890122
O O3 0.614337 0.616204 0.907720
O O4 0.723178 0.637211 0.974228
O O5 0.051385 0.065362 0.538836
O O6 0.750000 0.250000 0.719010
O O7 0.814657 0.357601 0.784119
O O8 0.746397 0.384910 0.640120
O O9 0.098861 0.773853 0.244538
O O10 0.092356 0.854300 0.402887
O O11 0.666741 0.096517 0.016615
O O12 0.750699 0.000000 0.025127
O O13 0.500000 0.269256 0.669873
O O14 0.594729 0.306796 0.583010
O O15 0.571224 0.363032 0.745012
O O16 0.000000 0.098653 0.871465
O O17 0.926261 0.000000 0.816291
#
# Coordination Sequence:
#
# PCOD9369524 Si02
#       8
#    16   4  16  16  16  16  16  16
#     4  10  21  39  61  92 124 159 212 265 316 380
#     4  12  28  44  64 100 132 174 220 264 328 388
#     4  10  22  40  63  90 123 166 211 267 325 382
#     4  10  23  42  65  94 125 172 215 267 330 385
#     4  12  25  38  63  94 130 171 213 267 332 396
#     4  10  22  37  62  95 123 165 216 267 324 382
#     4  12  24  43  66  92 132 169 219 269 323 397
#     4   9  18  33  57  86 124 164 201 253 317 379
#
# _framework density 19.432490999999999
#
# number of rings (size 3 to 8) (size 9 to 14) (size 15 to 20)
#    0.000    1.517    2.759    2.897    5.793    2.207 
#    1.241    0.000    0.000    0.000    0.000    0.000 
#    0.000    0.000    0.000    0.000    0.000    0.000 
#
# Total GULP energy -161670.057133 kJ/mol
# GULP energy per Si atom -5574.829556 kJ/mol
# Density = 1.938826 g / cm^3
# Si number density = 19.432491 Si / 1000 Ang^3
#
#
#
# Elastic Constant Matrix: (Units=GPa)
#
#
# Indices 1 2 3 4 5 6 
#
# 1 105.1259 10.9426 24.4699 0.0000 0.0000 0.0000
# 2 10.9426 15.4576 6.5589 0.0000 0.0000 0.0000
# 3 24.4699 6.5589 70.6017 0.0000 0.0000 0.0000
# 4 0.0000 0.0000 0.0000 -1.8187 0.0000 0.0000
# 5 0.0000 0.0000 0.0000 0.0000 16.2636 0.0000
# 6 0.0000 0.0000 0.0000 0.0000 0.0000 3140.0665
#
#
#
# Elastic Compliance Matrix: (Units=1/GPa)
#
#
# Indices 1 2 3 4 5 6 
#
# 1 0.010919 -0.006375 -0.003192 0.000000 0.000000 0.000000
# 2 -0.006375 0.071070 -0.004393 0.000000 0.000000 0.000000
# 3 -0.003192 -0.004393 0.015678 0.000000 0.000000 0.000000
# 4 0.000000 0.000000 0.000000 -0.549854 0.000000 0.000000
# 5 0.000000 0.000000 0.000000 0.000000 0.061487 0.000000
# 6 0.000000 0.000000 0.000000 0.000000 0.000000 0.000318
#
#
# Mechanical properties :
#
#
# Convention : Reuss Voigt Hill
#
# Bulk Modulus (GPa) = 14.33752 30.56978 22.45365
# Shear Modulus (GPa) = -14.74004 640.84986 313.05491
#
# Velocity S-wave (km/s) = -2.75712 18.17962 12.70624
# Velocity P-wave (km/s) = 1.65575 21.36423 15.06135
#
# Compressibility (1/GPa) = 0.06974709
#
# Stress axis : x y z
#
# Youngs Moduli (GPa) = 91.58320 14.07063 63.78184
#
# Poissons Ratio (x) = 0.08970 0.20360
# Poissons Ratio (y) = 0.58386 0.28018
# Poissons Ratio (z) = 0.29235 0.06181
#
# Static dielectric constant tensor:
#      x y z
#    x 1.724940 0.000000 0.000000 
#    y 0.000000 1.704250 0.000000 
#    z 0.000000 0.000000 1.686390 
# 
# From -- ./inp_files/15406.got.cif
#   From: 2010.05.17/outbox.cif.g08.bks.cpg/sg42_8_cif.got.tgz:15406.got - 2010.06.03 19:03:34.
