data_PCOD9369781
_publ_section_title
;
Structure prediction by ZEFSAII (Michael W. Deem and Ramdas Pophale) SiO2 
 PCOD9369781
Probable space group: F M M 2
;
_chemical_formula_sum "Si O2"
_cell_formula_units_Z 72
_cell_length_a 17.646228
_cell_length_b 22.333388
_cell_length_c 8.465928
_cell_angle_alpha 90.000000
_cell_angle_beta 90.000000
_cell_angle_gamma 90.000000
_cell_volume 3336.422704
_symmetry_space_group_name_H-M "F M M 2"
_symmetry_group_IT_number 42
_symmetry_cell_setting 'orthorhombic'
loop_
_space_group_symop_operation_xyz
x,y,z
-x,-y,z
-x,y,z
x,-y,z
x,1/2+y,1/2+z
-x,1/2-y,1/2+z
-x,1/2+y,1/2+z
x,1/2-y,1/2+z
1/2+x,y,1/2+z
1/2-x,-y,1/2+z
1/2-x,y,1/2+z
1/2+x,-y,1/2+z
1/2+x,1/2+y,z
1/2-x,1/2-y,z
1/2-x,1/2+y,z
1/2+x,1/2-y,z
loop_
_atom_site_type_symbol
_atom_site_label
_atom_site_fract_x
_atom_site_fract_y
_atom_site_fract_z
Si Si1 0.000000 0.158128 0.371650
Si Si2 0.359595 0.568994 0.376640
Si Si3 0.799333 0.068611 0.733752
Si Si4 0.154482 0.816243 0.899500
Si Si5 0.500000 0.270455 0.050895
Si Si6 0.250000 0.750000 0.644589
O O1 0.926506 0.116278 0.360569
O O2 0.000000 0.198688 0.529257
O O3 0.000000 0.205013 0.228012
O O4 0.385463 0.500000 0.354846
O O5 0.289975 0.580705 0.258378
O O6 0.325362 0.573572 0.553225
O O7 0.843197 0.116034 0.840813
O O8 0.811806 0.000000 0.785789
O O9 0.183134 0.775946 0.752526
O O10 0.216719 0.801637 0.033453
O O11 0.074630 0.795620 0.965655
#
# Coordination Sequence:
#
# PCOD9369781 Si02
#       6
#     8  16  16  16   8   8
#     4  12  29  48  67 101 140 185 224 283 347 411
#     4  10  24  47  75 101 136 179 228 283 343 406
#     4  10  23  43  73 104 133 176 229 284 333 402
#     4  11  24  44  65 100 136 181 225 283 333 407
#     4  12  30  44  65 101 143 181 224 281 345 399
#     4  10  24  40  72  94 134 182 232 272 340 398
#
# _framework density 21.579999000000001
#
# number of rings (size 3 to 8) (size 9 to 14) (size 15 to 20)
#    0.000    1.333    0.000    3.000   18.667    0.000 
#    0.000    2.778    0.000    0.000    0.000    0.000 
#    0.000    0.000    0.000    0.000    0.000    0.000 
#
# Total GULP energy -100829.429003 kJ/mol
# GULP energy per Si atom -5601.634945 kJ/mol
# Density = 2.153088 g / cm^3
# Si number density = 21.579999 Si / 1000 Ang^3
#
#
#
# Elastic Constant Matrix: (Units=GPa)
#
#
# Indices 1 2 3 4 5 6 
#
# 1 80.8474 33.1468 17.9662 0.0000 0.0000 0.0000
# 2 33.1468 121.0261 34.8382 0.0000 0.0000 0.0000
# 3 17.9662 34.8382 86.6727 0.0000 0.0000 0.0000
# 4 0.0000 0.0000 0.0000 32.9647 0.0000 0.0000
# 5 0.0000 0.0000 0.0000 0.0000 0.7758 0.0000
# 6 0.0000 0.0000 0.0000 0.0000 0.0000 36.5456
#
#
#
# Elastic Compliance Matrix: (Units=1/GPa)
#
#
# Indices 1 2 3 4 5 6 
#
# 1 0.014116 -0.003419 -0.001552 0.000000 0.000000 0.000000
# 2 -0.003419 0.010172 -0.003380 0.000000 0.000000 0.000000
# 3 -0.001552 -0.003380 0.013218 0.000000 0.000001 0.000000
# 4 0.000000 0.000000 0.000000 0.030336 0.000000 0.000000
# 5 0.000000 0.000000 0.000001 0.000000 1.289044 0.000000
# 6 0.000000 0.000000 0.000000 0.000000 0.000000 0.027363
#
#
# Mechanical properties :
#
#
# Convention : Reuss Voigt Hill
#
# Bulk Modulus (GPa) = 48.06791 51.16097 49.61444
# Shear Modulus (GPa) = 3.55143 27.56353 15.55748
#
# Velocity S-wave (km/s) = 1.28424 3.57777 2.68791
# Velocity P-wave (km/s) = 4.95194 6.38955 5.71612
#
# Compressibility (1/GPa) = 0.02080390
#
# Stress axis : x y z
#
# Youngs Moduli (GPa) = 70.84307 98.30794 75.65531
#
# Poissons Ratio (x) = 0.33615 0.11739
# Poissons Ratio (y) = 0.24224 0.25571
# Poissons Ratio (z) = 0.10992 0.33227
#
# Static dielectric constant tensor:
#      x y z
#    x 1.741130 0.000000 0.000000 
#    y 0.000000 1.789920 0.000000 
#    z 0.000000 0.000000 1.802460 
# 
# From -- ./inp_files/3395.got.cif
#   From: 2010.05.17/outbox.cif.g08.bks.cpg/sg42_2_cif.got.tgz:3395.got - 2010.06.03 19:03:34.
