data_PCOD9369215
_publ_section_title
;
Structure prediction by ZEFSAII (Michael W. Deem and Ramdas Pophale) SiO2 
 PCOD9369215
Probable space group: F M M 2
;
_chemical_formula_sum "Si O2"
_cell_formula_units_Z 96
_cell_length_a 19.672431
_cell_length_b 24.094425
_cell_length_c 11.045349
_cell_angle_alpha 90.000000
_cell_angle_beta 90.000000
_cell_angle_gamma 90.000000
_cell_volume 5235.450287
_symmetry_space_group_name_H-M "F M M 2"
_symmetry_group_IT_number 42
_symmetry_cell_setting 'orthorhombic'
loop_
_space_group_symop_operation_xyz
x,y,z
-x,-y,z
-x,y,z
x,-y,z
x,1/2+y,1/2+z
-x,1/2-y,1/2+z
-x,1/2+y,1/2+z
x,1/2-y,1/2+z
1/2+x,y,1/2+z
1/2-x,-y,1/2+z
1/2-x,y,1/2+z
1/2+x,-y,1/2+z
1/2+x,1/2+y,z
1/2-x,1/2-y,z
1/2-x,1/2+y,z
1/2+x,1/2-y,z
loop_
_atom_site_type_symbol
_atom_site_label
_atom_site_fract_x
_atom_site_fract_y
_atom_site_fract_z
Si Si1 0.922649 0.316288 0.427450
Si Si2 0.922649 0.683712 0.936318
Si Si3 0.285485 0.659567 0.549910
Si Si4 0.214515 0.340433 0.313859
Si Si5 0.077551 0.378910 0.681884
Si Si6 0.218816 0.064639 0.181884
O O1 0.913499 0.250000 0.431883
O O2 0.865030 0.341453 0.342183
O O3 0.914399 0.341380 0.561958
O O4 0.000000 0.327540 0.387563
O O5 0.914399 0.658620 0.801810
O O6 0.000000 0.672461 0.976205
O O7 0.865030 0.658547 0.021585
O O8 0.250000 0.684933 0.431884
O O9 0.273489 0.686734 0.681884
O O10 0.252523 0.598785 0.570973
O O11 0.247477 0.401215 0.292795
O O12 0.138290 0.423026 0.681884
O O13 0.000000 0.400976 0.681884
O O14 0.233061 0.000000 0.181884
#
# Coordination Sequence:
#
# PCOD9369215 Si02
#       6
#    16  16  16  16  16  16
#     4  10  21  37  59  85 120 160 191 230 289 351
#     4  10  21  37  59  85 120 160 191 230 289 351
#     4  10  21  39  58  87 116 152 193 245 289 338
#     4  10  21  39  58  87 116 152 193 245 289 338
#     4  10  20  38  57  84 120 151 198 246 284 346
#     4  10  22  40  62  83 113 152 198 245 302 342
#
# _framework density 18.336531999999998
#
# number of rings (size 3 to 8) (size 9 to 14) (size 15 to 20)
#    1.000    1.000    3.333    0.000    2.333    2.333 
#    0.000    3.333    0.000    2.000    0.000    0.000 
#    0.000    0.000    0.000    0.000    0.000    0.000 
#
# Total GULP energy -133637.399445 kJ/mol
# GULP energy per Si atom -5568.224977 kJ/mol
# Density = 1.829480 g / cm^3
# Si number density = 18.336532 Si / 1000 Ang^3
#
#
#
# Elastic Constant Matrix: (Units=GPa)
#
#
# Indices 1 2 3 4 5 6 
#
# 1 137.3910 52.7953 50.7965 0.0000 0.0000 0.0000
# 2 52.7953 75.5043 18.6480 0.0000 0.0000 0.0000
# 3 50.7965 18.6480 130.2924 0.0000 0.0000 0.0000
# 4 0.0000 0.0000 0.0000 -24.8140 0.0000 0.0000
# 5 0.0000 0.0000 0.0000 0.0000 39.2005 0.0000
# 6 0.0000 0.0000 0.0000 0.0000 0.0000 1.0915
#
#
#
# Elastic Compliance Matrix: (Units=1/GPa)
#
#
# Indices 1 2 3 4 5 6 
#
# 1 0.011219 -0.007013 -0.003370 0.000000 0.000000 0.000000
# 2 -0.007013 0.018113 0.000142 0.000000 0.000000 0.000000
# 3 -0.003370 0.000142 0.008969 0.000000 0.000000 0.000000
# 4 0.000000 0.000000 0.000000 -0.040300 0.000000 0.000000
# 5 0.000000 0.000000 0.000000 0.000000 0.025510 0.000000
# 6 0.000000 0.000000 0.000000 0.000000 0.000000 0.916144
#
#
# Mechanical properties :
#
#
# Convention : Reuss Voigt Hill
#
# Bulk Modulus (GPa) = 56.12245 65.29635 60.70940
# Shear Modulus (GPa) = 5.17557 17.82546 11.50052
#
# Velocity S-wave (km/s) = 1.68187 3.12128 2.50710
# Velocity P-wave (km/s) = 5.86898 6.97690 6.44678
#
# Compressibility (1/GPa) = 0.01781818
#
# Stress axis : x y z
#
# Youngs Moduli (GPa) = 89.13210 55.20979 111.49807
#
# Poissons Ratio (x) = 0.38716 0.37579
# Poissons Ratio (y) = 0.62504 -0.01579
# Poissons Ratio (z) = 0.30041 -0.00782
#
# Static dielectric constant tensor:
#      x y z
#    x 1.664500 0.000000 0.000000 
#    y 0.000000 1.579150 0.000000 
#    z 0.000000 0.000000 1.665490 
# 
# From -- ./inp_files/8789.got.cif
#   From: 2010.05.17/outbox.cif.g08.bks.cpg/sg42_5_cif.got.tgz:8789.got - 2010.06.03 19:03:34.
