data_PCOD9369369
_publ_section_title
;
Structure prediction by ZEFSAII (Michael W. Deem and Ramdas Pophale) SiO2 
 PCOD9369369
Probable space group: F M M 2
;
_chemical_formula_sum "Si O2"
_cell_formula_units_Z 80
_cell_length_a 24.618202
_cell_length_b 22.937744
_cell_length_c 5.633048
_cell_angle_alpha 90.000000
_cell_angle_beta 90.000000
_cell_angle_gamma 90.000000
_cell_volume 3180.903429
_symmetry_space_group_name_H-M "F M M 2"
_symmetry_group_IT_number 42
_symmetry_cell_setting 'orthorhombic'
loop_
_space_group_symop_operation_xyz
x,y,z
-x,-y,z
-x,y,z
x,-y,z
x,1/2+y,1/2+z
-x,1/2-y,1/2+z
-x,1/2+y,1/2+z
x,1/2-y,1/2+z
1/2+x,y,1/2+z
1/2-x,-y,1/2+z
1/2-x,y,1/2+z
1/2+x,-y,1/2+z
1/2+x,1/2+y,z
1/2-x,1/2-y,z
1/2-x,1/2+y,z
1/2+x,1/2-y,z
loop_
_atom_site_type_symbol
_atom_site_label
_atom_site_fract_x
_atom_site_fract_y
_atom_site_fract_z
Si Si1 0.438840 0.438069 0.384910
Si Si2 0.220733 0.570075 0.521520
Si Si3 0.334313 0.734993 0.608053
Si Si4 0.560643 0.181642 0.590761
Si Si5 0.125852 0.881501 0.742867
O O1 0.500000 0.439658 0.485362
O O2 0.432148 0.500000 0.249111
O O3 0.436093 0.376468 0.251366
O O4 0.393474 0.434541 0.586092
O O5 0.215139 0.500000 0.519647
O O6 0.244219 0.585258 0.782201
O O7 0.163216 0.599650 0.462168
O O8 0.308333 0.757006 0.366389
O O9 0.391089 0.772162 0.632642
O O10 0.343107 0.666290 0.588076
O O11 0.500000 0.206446 0.610311
O O12 0.573444 0.153670 0.335008
#
# Coordination Sequence:
#
# PCOD9369369 Si02
#       5
#    16  16  16  16  16
#     4  10  21  36  56  90 132 171 215 265 325 395
#     4  10  24  44  69  99 129 167 221 284 345 406
#     4  10  21  37  60  91 126 169 217 266 310 378
#     4  10  22  38  59  93 135 179 222 267 319 395
#     4  11  22  39  65  92 128 169 225 272 340 389
#
# _framework density 25.150089000000001
#
# number of rings (size 3 to 8) (size 9 to 14) (size 15 to 20)
#    0.000    1.800    2.000    1.200    2.800    5.600 
#    0.000    2.000    0.000   14.400    0.000    0.000 
#    0.000    0.000    0.000    0.000    0.000    0.000 
#
# Total GULP energy -111663.390643 kJ/mol
# GULP energy per Si atom -5583.169532 kJ/mol
# Density = 2.509285 g / cm^3
# Si number density = 25.150089 Si / 1000 Ang^3
#
#
#
# Elastic Constant Matrix: (Units=GPa)
#
#
# Indices 1 2 3 4 5 6 
#
# 1 123.0816 40.5511 25.3976 -0.0045 -0.0054 -0.0013
# 2 40.5511 116.1165 26.1806 -0.0403 0.0233 -0.0030
# 3 25.3976 26.1806 117.9278 -0.0023 -0.0347 0.0275
# 4 -0.0045 -0.0403 -0.0023 35.0381 0.0061 -0.0242
# 5 -0.0054 0.0233 -0.0347 0.0061 18.3652 0.0168
# 6 -0.0013 -0.0030 0.0275 -0.0242 0.0168 -5.9242
#
#
#
# Elastic Compliance Matrix: (Units=1/GPa)
#
#
# Indices 1 2 3 4 5 6 
#
# 1 0.009384 -0.002970 -0.001362 -0.000002 0.000004 -0.000007
# 2 -0.002970 0.010006 -0.001582 0.000011 -0.000017 -0.000012
# 3 -0.001362 -0.001582 0.009124 -0.000001 0.000019 0.000044
# 4 -0.000002 0.000011 -0.000001 0.028540 -0.000009 -0.000116
# 5 0.000004 -0.000017 0.000019 -0.000009 0.054451 0.000154
# 6 -0.000007 -0.000012 0.000044 -0.000116 0.000154 -0.168799
#
#
# Mechanical properties :
#
#
# Convention : Reuss Voigt Hill
#
# Bulk Modulus (GPa) = 59.92604 60.15384 60.03994
# Shear Modulus (GPa) = -125.30215 27.16226 -49.06994
#
# Velocity S-wave (km/s) = -7.06611 3.28991 -4.42190
# Velocity P-wave (km/s) = 6.53407 6.19687 1.46508
#
# Compressibility (1/GPa) = 0.01668724
#
# Stress axis : x y z
#
# Youngs Moduli (GPa) = 106.56151 99.94049 109.59923
#
# Poissons Ratio (x) = 0.29685 0.14923
# Poissons Ratio (y) = 0.31651 0.17335
# Poissons Ratio (z) = 0.14510 0.15807
#
# Static dielectric constant tensor:
#      x y z
#    x 2.013670 0.000000 -0.000020 
#    y 0.000000 1.930480 -0.000050 
#    z -0.000020 -0.000050 2.041460 
# 
# From -- ./inp_files/1218.got.cif
#   From: 2010.05.17/outbox.cif.g08.bks.cpg/sg42_1_cif.got.tgz:1218.got - 2010.06.03 19:03:34.
