data_PCOD9369805
_publ_section_title
;
Structure prediction by ZEFSAII (Michael W. Deem and Ramdas Pophale) SiO2 
 PCOD9369805
Probable space group: F M M 2
;
_chemical_formula_sum "Si O2"
_cell_formula_units_Z 84
_cell_length_a 12.855824
_cell_length_b 15.952978
_cell_length_c 20.334885
_cell_angle_alpha 90.000000
_cell_angle_beta 90.000000
_cell_angle_gamma 90.000000
_cell_volume 4170.454671
_symmetry_space_group_name_H-M "F M M 2"
_symmetry_group_IT_number 42
_symmetry_cell_setting 'orthorhombic'
loop_
_space_group_symop_operation_xyz
x,y,z
-x,-y,z
-x,y,z
x,-y,z
x,1/2+y,1/2+z
-x,1/2-y,1/2+z
-x,1/2+y,1/2+z
x,1/2-y,1/2+z
1/2+x,y,1/2+z
1/2-x,-y,1/2+z
1/2-x,y,1/2+z
1/2+x,-y,1/2+z
1/2+x,1/2+y,z
1/2-x,1/2-y,z
1/2-x,1/2+y,z
1/2+x,1/2-y,z
loop_
_atom_site_type_symbol
_atom_site_label
_atom_site_fract_x
_atom_site_fract_y
_atom_site_fract_z
Si Si1 0.382031 0.500000 0.970201
Si Si2 0.615936 0.098457 0.219636
Si Si3 0.274787 0.348464 0.446363
Si Si4 0.375314 0.403672 0.578913
Si Si5 0.700717 0.842654 0.801341
Si Si6 0.500000 0.903370 0.728361
Si Si7 0.000000 0.500000 0.599948
O O1 0.500000 0.500000 0.941573
O O2 0.319793 0.584294 0.951253
O O3 0.403956 0.500000 0.049216
O O4 0.500000 0.131903 0.235754
O O5 0.657002 0.134074 0.149690
O O6 0.700987 0.105356 0.275572
O O7 0.604111 0.000000 0.206144
O O8 0.250000 0.250000 0.444060
O O9 0.339409 0.360534 0.512650
O O10 0.328555 0.365811 0.376048
O O11 0.500000 0.403538 0.581730
O O12 0.339185 0.500000 0.573312
O O13 0.750000 0.750000 0.798976
O O14 0.602619 0.857414 0.754374
O O15 0.500000 0.921033 0.649757
O O16 0.500000 0.000000 0.754913
#
# Coordination Sequence:
#
# PCOD9369805 Si02
#       7
#     8  16  16  16  16   8   4
#     4  10  24  45  68  95 138 181 220 272 352 402
#     4   9  20  38  63  92 123 164 218 271 330 399
#     4  11  25  42  63  97 133 177 226 278 330 408
#     4   9  19  37  63  91 122 161 211 277 331 390
#     4  11  26  42  62  96 137 174 224 278 337 402
#     4  10  24  44  71  93 135 180 220 279 340 400
#     4   8  24  46  68 100 136 172 228 278 338 418
#
# _framework density 20.141689
#
# number of rings (size 3 to 8) (size 9 to 14) (size 15 to 20)
#    0.571    1.524    0.952    1.714    8.000    2.286 
#    3.429    0.000    0.000    0.000    0.000    0.000 
#    0.000    0.000    0.000    0.000    0.000    0.000 
#
# Total GULP energy -116938.977812 kJ/mol
# GULP energy per Si atom -5568.522753 kJ/mol
# Density = 2.009585 g / cm^3
# Si number density = 20.141689 Si / 1000 Ang^3
#
#
#
# Elastic Constant Matrix: (Units=GPa)
#
#
# Indices 1 2 3 4 5 6 
#
# 1 61.6630 21.6396 1.2156 0.0000 0.0000 0.0000
# 2 21.6396 72.5838 14.5219 0.0000 0.0000 0.0000
# 3 1.2156 14.5219 66.8080 0.0000 0.0000 0.0000
# 4 0.0000 0.0000 0.0000 53.8422 0.0000 0.0000
# 5 0.0000 0.0000 0.0000 0.0000 15.6527 0.0000
# 6 0.0000 0.0000 0.0000 0.0000 0.0000 14.6888
#
#
#
# Elastic Compliance Matrix: (Units=1/GPa)
#
#
# Indices 1 2 3 4 5 6 
#
# 1 0.018162 -0.005592 0.000885 0.000000 0.000000 0.000000
# 2 -0.005592 0.016125 -0.003403 0.000000 0.000000 0.000000
# 3 0.000885 -0.003403 0.015692 0.000000 0.000000 0.000000
# 4 0.000000 0.000000 0.000000 0.018573 0.000000 0.000000
# 5 0.000000 0.000000 0.000000 0.000000 0.063887 0.000000
# 6 0.000000 0.000000 0.000000 0.000000 0.000000 0.068079
#
#
# Mechanical properties :
#
#
# Convention : Reuss Voigt Hill
#
# Bulk Modulus (GPa) = 29.62174 30.64543 30.13359
# Shear Modulus (GPa) = 21.93068 27.74858 24.83963
#
# Velocity S-wave (km/s) = 3.30331 3.71572 3.51557
# Velocity P-wave (km/s) = 5.41181 5.80144 5.61001
#
# Compressibility (1/GPa) = 0.03375898
#
# Stress axis : x y z
#
# Youngs Moduli (GPa) = 55.05979 62.01485 63.72697
#
# Poissons Ratio (x) = 0.34677 -0.05640
# Poissons Ratio (y) = 0.30788 0.21689
# Poissons Ratio (z) = -0.04873 0.21106
#
# Static dielectric constant tensor:
#      x y z
#    x 1.722760 0.000000 0.000000 
#    y 0.000000 1.649950 0.000000 
#    z 0.000000 0.000000 1.756320 
# 
# From -- ./inp_files/25037.got.cif
#   From: 2010.05.17/outbox.cif.g08.bks.cpg/sg42_13_cif.got.tgz:25037.got - 2010.06.03 19:03:34.
