data_PCOD9369526
_publ_section_title
;
Structure prediction by ZEFSAII (Michael W. Deem and Ramdas Pophale) SiO2 
 PCOD9369526
Probable space group: F M M 2
;
_chemical_formula_sum "Si O2"
_cell_formula_units_Z 96
_cell_length_a 28.018817
_cell_length_b 7.900961
_cell_length_c 23.488288
_cell_angle_alpha 90.000000
_cell_angle_beta 90.000000
_cell_angle_gamma 90.000000
_cell_volume 5199.733388
_symmetry_space_group_name_H-M "F M M 2"
_symmetry_group_IT_number 42
_symmetry_cell_setting 'orthorhombic'
loop_
_space_group_symop_operation_xyz
x,y,z
-x,-y,z
-x,y,z
x,-y,z
x,1/2+y,1/2+z
-x,1/2-y,1/2+z
-x,1/2+y,1/2+z
x,1/2-y,1/2+z
1/2+x,y,1/2+z
1/2-x,-y,1/2+z
1/2-x,y,1/2+z
1/2+x,-y,1/2+z
1/2+x,1/2+y,z
1/2-x,1/2-y,z
1/2-x,1/2+y,z
1/2+x,1/2-y,z
loop_
_atom_site_type_symbol
_atom_site_label
_atom_site_fract_x
_atom_site_fract_y
_atom_site_fract_z
Si Si1 0.804087 0.202273 0.871670
Si Si2 0.943733 0.296905 0.183621
Si Si3 0.304036 0.797755 0.501016
Si Si4 0.556261 0.500000 0.502852
Si Si5 0.601694 0.202109 0.307186
Si Si6 0.102980 0.695985 0.567779
Si Si7 0.056484 0.000000 0.377032
O O1 0.750000 0.250000 0.856751
O O2 0.814132 0.268108 0.936364
O O3 0.843887 0.248071 0.824962
O O4 0.805780 0.000000 0.875292
O O5 0.944216 0.500000 0.174106
O O6 0.916573 0.267039 0.243143
O O7 0.913148 0.214572 0.133066
O O8 0.000000 0.242953 0.184972
O O9 0.250000 0.750000 0.515934
O O10 0.343431 0.751999 0.548217
O O11 0.305515 0.000000 0.497346
O O12 0.500000 0.500000 0.499045
O O13 0.570998 0.330209 0.534757
O O14 0.577789 0.500000 0.440058
O O15 0.571653 0.328643 0.345865
O O16 0.594862 0.000000 0.318473
O O17 0.095940 0.500000 0.550715
O O18 0.000000 0.000000 0.379993
#
# Coordination Sequence:
#
# PCOD9369526 Si02
#       7
#    16  16  16   8  16  16   8
#     4   9  18  34  57  85 116 152 194 241 298 359
#     4  10  21  39  62  85 115 159 209 252 296 354
#     4   9  19  34  56  86 115 151 196 241 298 361
#     4  11  24  40  58  88 123 156 199 249 309 370
#     4  10  22  40  60  86 122 159 198 249 301 355
#     4  11  23  39  60  87 120 158 201 251 301 355
#     4  11  24  38  60  90 119 156 201 249 307 370
#
# _framework density 18.462485000000001
#
# number of rings (size 3 to 8) (size 9 to 14) (size 15 to 20)
#    0.000    2.000    0.833    2.000    3.500    4.333 
#    0.000    2.500    0.000    4.000    0.000    0.000 
#    0.000    0.000    0.000    0.000    0.000    0.000 
#
# Total GULP energy -133761.220033 kJ/mol
# GULP energy per Si atom -5573.384168 kJ/mol
# Density = 1.842046 g / cm^3
# Si number density = 18.462485 Si / 1000 Ang^3
#
#
#
# Elastic Constant Matrix: (Units=GPa)
#
#
# Indices 1 2 3 4 5 6 
#
# 1 153.9107 31.8906 76.3561 0.0000 0.0000 0.0001
# 2 31.8906 62.2164 54.8434 0.0000 0.0001 0.0001
# 3 76.3561 54.8434 127.5305 0.0000 0.0000 0.0001
# 4 0.0000 0.0000 0.0000 11.7484 0.0000 0.0000
# 5 0.0000 0.0001 0.0000 0.0000 31.6553 0.0000
# 6 0.0001 0.0001 0.0001 0.0000 0.0000 -8.3936
#
#
#
# Elastic Compliance Matrix: (Units=1/GPa)
#
#
# Indices 1 2 3 4 5 6 
#
# 1 0.009245 0.000226 -0.005632 0.000000 0.000000 0.000000
# 2 0.000226 0.025891 -0.011270 0.000000 0.000000 0.000000
# 3 -0.005632 -0.011270 0.016060 0.000000 0.000000 0.000000
# 4 0.000000 0.000000 0.000000 0.085118 0.000000 0.000000
# 5 0.000000 0.000000 0.000000 0.000000 0.031590 0.000000
# 6 0.000000 0.000000 0.000000 0.000000 0.000000 -0.119138
#
#
# Mechanical properties :
#
#
# Convention : Reuss Voigt Hill
#
# Bulk Modulus (GPa) = 56.04075 74.42643 65.23359
# Shear Modulus (GPa) = 56.77617 19.03985 37.90801
#
# Velocity S-wave (km/s) = 5.55148 3.21483 4.53619
# Velocity P-wave (km/s) = 8.45646 7.36070 7.92753
#
# Compressibility (1/GPa) = 0.01784416
#
# Stress axis : x y z
#
# Youngs Moduli (GPa) = 108.17096 38.62322 62.26670
#
# Poissons Ratio (x) = -0.00874 0.35071
# Poissons Ratio (y) = -0.02448 0.70173
# Poissons Ratio (z) = 0.60925 0.43527
#
# Static dielectric constant tensor:
#      x y z
#    x 1.644600 0.000000 0.000000 
#    y 0.000000 1.625450 0.000000 
#    z 0.000000 0.000000 1.650680 
# 
# From -- ./inp_files/30634.got.cif
#   From: 2010.05.17/outbox.cif.g08.bks.cpg/sg42_16_cif.got.tgz:30634.got - 2010.06.03 19:03:34.
