data_PCOD9369506
_publ_section_title
;
Structure prediction by ZEFSAII (Michael W. Deem and Ramdas Pophale) SiO2 
 PCOD9369506
Probable space group: F M M 2
;
_chemical_formula_sum "Si O2"
_cell_formula_units_Z 64
_cell_length_a 18.084372
_cell_length_b 7.639373
_cell_length_c 24.344487
_cell_angle_alpha 90.000000
_cell_angle_beta 90.000000
_cell_angle_gamma 90.000000
_cell_volume 3363.270319
_symmetry_space_group_name_H-M "F M M 2"
_symmetry_group_IT_number 42
_symmetry_cell_setting 'orthorhombic'
loop_
_space_group_symop_operation_xyz
x,y,z
-x,-y,z
-x,y,z
x,-y,z
x,1/2+y,1/2+z
-x,1/2-y,1/2+z
-x,1/2+y,1/2+z
x,1/2-y,1/2+z
1/2+x,y,1/2+z
1/2-x,-y,1/2+z
1/2-x,y,1/2+z
1/2+x,-y,1/2+z
1/2+x,1/2+y,z
1/2-x,1/2-y,z
1/2-x,1/2+y,z
1/2+x,1/2-y,z
loop_
_atom_site_type_symbol
_atom_site_label
_atom_site_fract_x
_atom_site_fract_y
_atom_site_fract_z
Si Si1 0.587750 0.500000 0.521500
Si Si2 0.664328 0.698034 0.090439
Si Si3 0.836967 0.207961 0.818368
Si Si4 0.585701 0.711252 0.702836
Si Si5 0.087939 0.500000 0.891253
O O1 0.500000 0.500000 0.531836
O O2 0.623824 0.331920 0.550161
O O3 0.600807 0.500000 0.456448
O O4 0.658776 0.500000 0.070116
O O5 0.750000 0.750000 0.095647
O O6 0.626468 0.712178 0.150068
O O7 0.750000 0.250000 0.817216
O O8 0.872797 0.253736 0.759370
O O9 0.875912 0.329428 0.863396
O O10 0.847820 0.000000 0.827866
O O11 0.500000 0.765687 0.705147
O O12 0.587501 0.500000 0.696892
O O13 0.000000 0.500000 0.881319
#
# Coordination Sequence:
#
# PCOD9369506 Si02
#       5
#     8  16  16  16   8
#     4  11  26  48  67  94 135 171 219 278 326 390
#     4  12  24  42  67  99 130 174 218 270 329 387
#     4  11  23  42  66 100 132 172 218 271 326 387
#     4  10  21  38  64  97 139 173 208 267 328 395
#     4  11  26  46  69  94 131 177 219 272 330 390
#
# _framework density 19.029098000000001
#
# number of rings (size 3 to 8) (size 9 to 14) (size 15 to 20)
#    0.000    1.000    3.750    2.250    1.750    7.500 
#    0.000    2.500    0.000    0.000    0.000    0.000 
#    0.000    0.000    0.000    0.000    0.000    0.000 
#
# Total GULP energy -89519.025122 kJ/mol
# GULP energy per Si atom -5594.939070 kJ/mol
# Density = 1.898579 g / cm^3
# Si number density = 19.029098 Si / 1000 Ang^3
#
#
#
# Elastic Constant Matrix: (Units=GPa)
#
#
# Indices 1 2 3 4 5 6 
#
# 1 181.1405 77.8836 112.6027 0.0000 0.0000 0.0000
# 2 77.8836 153.5223 82.4163 0.0000 0.0000 0.0000
# 3 112.6027 82.4163 133.5797 0.0000 0.0000 0.0000
# 4 0.0000 0.0000 0.0000 8.3281 0.0000 0.0000
# 5 0.0000 0.0000 0.0000 0.0000 123.9137 0.0000
# 6 0.0000 0.0000 0.0000 0.0000 0.0000 15.2368
#
#
#
# Elastic Compliance Matrix: (Units=1/GPa)
#
#
# Indices 1 2 3 4 5 6 
#
# 1 0.011692 -0.000958 -0.009265 0.000000 0.000000 0.000000
# 2 -0.000958 0.009818 -0.005250 0.000000 0.000000 0.000000
# 3 -0.009265 -0.005250 0.018535 0.000000 0.000000 0.000000
# 4 0.000000 0.000000 0.000000 0.120075 0.000000 0.000000
# 5 0.000000 0.000000 0.000000 0.000000 0.008070 0.000000
# 6 0.000000 0.000000 0.000000 0.000000 0.000000 0.065631
#
#
# Mechanical properties :
#
#
# Convention : Reuss Voigt Hill
#
# Bulk Modulus (GPa) = 109.89454 112.67196 111.28325
# Shear Modulus (GPa) = 18.67066 42.51838 30.59452
#
# Velocity S-wave (km/s) = 3.13575 4.73206 4.01406
# Velocity P-wave (km/s) = 8.42536 9.44433 8.94936
#
# Compressibility (1/GPa) = 0.00909963
#
# Stress axis : x y z
#
# Youngs Moduli (GPa) = 85.53174 101.85267 53.95101
#
# Poissons Ratio (x) = 0.09754 0.49984
# Poissons Ratio (y) = 0.08191 0.28326
# Poissons Ratio (z) = 0.79243 0.53476
#
# Static dielectric constant tensor:
#      x y z
#    x 1.629420 0.000000 0.000000 
#    y 0.000000 1.667240 0.000000 
#    z 0.000000 0.000000 1.617470 
# 
# From -- ./inp_files/23196.got.cif
#   From: 2010.05.17/outbox.cif.g08.bks.cpg/sg42_12_cif.got.tgz:23196.got - 2010.06.03 19:03:34.
