data_PCOD9369489
_publ_section_title
;
Structure prediction by ZEFSAII (Michael W. Deem and Ramdas Pophale) SiO2 
 PCOD9369489
Probable space group: F M M 2
;
_chemical_formula_sum "Si O2"
_cell_formula_units_Z 64
_cell_length_a 14.929107
_cell_length_b 8.667109
_cell_length_c 25.390065
_cell_angle_alpha 90.000000
_cell_angle_beta 90.000000
_cell_angle_gamma 90.000000
_cell_volume 3285.276309
_symmetry_space_group_name_H-M "F M M 2"
_symmetry_group_IT_number 42
_symmetry_cell_setting 'orthorhombic'
loop_
_space_group_symop_operation_xyz
x,y,z
-x,-y,z
-x,y,z
x,-y,z
x,1/2+y,1/2+z
-x,1/2-y,1/2+z
-x,1/2+y,1/2+z
x,1/2-y,1/2+z
1/2+x,y,1/2+z
1/2-x,-y,1/2+z
1/2-x,y,1/2+z
1/2+x,-y,1/2+z
1/2+x,1/2+y,z
1/2-x,1/2-y,z
1/2-x,1/2+y,z
1/2+x,1/2-y,z
loop_
_atom_site_type_symbol
_atom_site_label
_atom_site_fract_x
_atom_site_fract_y
_atom_site_fract_z
Si Si1 0.149487 0.684893 0.493460
Si Si2 0.500000 0.184621 0.918046
Si Si3 0.500000 0.814469 0.795537
Si Si4 0.850965 0.184229 0.719660
Si Si5 0.851227 0.814820 0.110280
O O1 0.152650 0.500000 0.489998
O O2 0.250000 0.750000 0.489114
O O3 0.086084 0.751742 0.448787
O O4 0.112269 0.723198 0.552244
O O5 0.500000 0.230174 0.856847
O O6 0.500000 0.000000 0.920663
O O7 0.413567 0.748402 0.765567
O O8 0.500000 0.000000 0.791734
O O9 0.750000 0.250000 0.724463
O O10 0.889566 0.240791 0.663173
O O11 0.847939 0.000000 0.720401
O O12 0.750000 0.750000 0.108561
O O13 0.851041 0.000000 0.116150
#
# Coordination Sequence:
#
# PCOD9369489 Si02
#       5
#    16   8   8  16  16
#     4  10  21  38  62  89 120 155 191 235 289 344
#     4  11  25  42  61  84 113 152 200 247 290 339
#     4  11  25  44  61  82 113 152 200 249 290 339
#     4  11  22  38  62  90 119 154 191 236 291 346
#     4   9  17  32  56  87 120 153 188 231 283 343
#
# _framework density 19.480858999999999
#
# number of rings (size 3 to 8) (size 9 to 14) (size 15 to 20)
#    0.000    1.750    0.000    6.000    0.000    7.000 
#    0.000    1.250    0.000    0.000    0.000    0.000 
#    0.000    0.000    0.000    0.000    0.000    0.000 
#
# Total GULP energy -89383.491306 kJ/mol
# GULP energy per Si atom -5586.468207 kJ/mol
# Density = 1.943652 g / cm^3
# Si number density = 19.480859 Si / 1000 Ang^3
#
#
#
# Elastic Constant Matrix: (Units=GPa)
#
#
# Indices 1 2 3 4 5 6 
#
# 1 116.1111 44.3640 91.7844 0.0000 0.0000 0.0000
# 2 44.3640 112.3451 89.3868 0.0000 0.0000 0.0000
# 3 91.7844 89.3868 227.0453 0.0000 0.0000 0.0000
# 4 0.0000 0.0000 0.0000 32.2596 0.0000 0.0000
# 5 0.0000 0.0000 0.0000 0.0000 38.4821 0.0000
# 6 0.0000 0.0000 0.0000 0.0000 0.0000 23.9720
#
#
#
# Elastic Compliance Matrix: (Units=1/GPa)
#
#
# Indices 1 2 3 4 5 6 
#
# 1 0.012799 -0.001365 -0.004637 0.000000 0.000000 0.000000
# 2 -0.001365 0.013107 -0.004608 0.000000 0.000000 0.000000
# 3 -0.004637 -0.004608 0.008093 0.000000 0.000000 0.000000
# 4 0.000000 0.000000 0.000000 0.030999 0.000000 0.000000
# 5 0.000000 0.000000 0.000000 0.000000 0.025986 0.000000
# 6 0.000000 0.000000 0.000000 0.000000 0.000000 0.041715
#
#
# Mechanical properties :
#
#
# Convention : Reuss Voigt Hill
#
# Bulk Modulus (GPa) = 78.25365 100.73022 89.49193
# Shear Modulus (GPa) = 31.60978 34.27383 32.94180
#
# Velocity S-wave (km/s) = 4.03253 4.19902 4.11662
# Velocity P-wave (km/s) = 7.87010 8.67920 8.28453
#
# Compressibility (1/GPa) = 0.01277896
#
# Stress axis : x y z
#
# Youngs Moduli (GPa) = 78.12901 76.29676 123.56235
#
# Poissons Ratio (x) = 0.10415 0.57293
# Poissons Ratio (y) = 0.10666 0.56940
# Poissons Ratio (z) = 0.36227 0.35159
#
# Static dielectric constant tensor:
#      x y z
#    x 1.572510 0.000000 0.000000 
#    y 0.000000 1.646730 0.000000 
#    z 0.000000 0.000000 1.693660 
# 
# From -- ./inp_files/23186.got.cif
#   From: 2010.05.17/outbox.cif.g08.bks.cpg/sg42_12_cif.got.tgz:23186.got - 2010.06.03 19:03:34.
