data_PCOD9369911
_publ_section_title
;
Structure prediction by ZEFSAII (Michael W. Deem and Ramdas Pophale) SiO2 
 PCOD9369911
Probable space group: F M M 2
;
_chemical_formula_sum "Si O2"
_cell_formula_units_Z 80
_cell_length_a 17.496550
_cell_length_b 11.567952
_cell_length_c 20.144315
_cell_angle_alpha 90.000000
_cell_angle_beta 90.000000
_cell_angle_gamma 90.000000
_cell_volume 4077.194259
_symmetry_space_group_name_H-M "F M M 2"
_symmetry_group_IT_number 42
_symmetry_cell_setting 'orthorhombic'
loop_
_space_group_symop_operation_xyz
x,y,z
-x,-y,z
-x,y,z
x,-y,z
x,1/2+y,1/2+z
-x,1/2-y,1/2+z
-x,1/2+y,1/2+z
x,1/2-y,1/2+z
1/2+x,y,1/2+z
1/2-x,-y,1/2+z
1/2-x,y,1/2+z
1/2+x,-y,1/2+z
1/2+x,1/2+y,z
1/2-x,1/2-y,z
1/2-x,1/2+y,z
1/2+x,1/2-y,z
loop_
_atom_site_type_symbol
_atom_site_label
_atom_site_fract_x
_atom_site_fract_y
_atom_site_fract_z
Si Si1 0.340363 0.229824 0.913290
Si Si2 0.659418 0.746782 0.171322
Si Si3 0.591268 0.135223 0.044030
Si Si4 0.090032 0.500000 0.848615
Si Si5 0.088964 0.000000 0.188752
Si Si6 0.588953 0.136537 0.298908
O O1 0.250000 0.250000 0.910729
O O2 0.381233 0.330478 0.871632
O O3 0.367849 0.112672 0.876550
O O4 0.368844 0.213468 0.988278
O O5 0.750000 0.750000 0.163414
O O6 0.619333 0.825877 0.116129
O O7 0.629121 0.616395 0.164469
O O8 0.636210 0.794634 0.243625
O O9 0.500000 0.147195 0.039204
O O10 0.610179 0.000000 0.032501
O O11 0.092693 0.500000 0.769043
O O12 0.000000 0.500000 0.868942
O O13 0.000000 0.000000 0.169562
O O14 0.500000 0.170683 0.292821
O O15 0.595660 0.000000 0.287229
#
# Coordination Sequence:
#
# PCOD9369911 Si02
#       6
#    16  16  16   8   8  16
#     4  12  25  41  68 100 133 166 222 280 328 380
#     4  12  26  42  67  99 135 170 222 280 333 387
#     4  11  24  45  71  93 128 180 227 267 328 408
#     4  11  22  42  71  96 130 179 228 267 319 403
#     4  11  24  42  69  98 134 179 224 271 327 393
#     4  11  24  42  67  97 135 175 215 265 331 399
#
# _framework density 19.621337
#
# number of rings (size 3 to 8) (size 9 to 14) (size 15 to 20)
#    0.000    0.600    3.000    5.400    4.200    1.600 
#    1.800    0.000    0.000    0.000    0.000    0.000 
#    0.000    0.000    0.000    0.000    0.000    0.000 
#
# Total GULP energy -111931.681247 kJ/mol
# GULP energy per Si atom -5596.584062 kJ/mol
# Density = 1.957668 g / cm^3
# Si number density = 19.621337 Si / 1000 Ang^3
#
#
#
# Elastic Constant Matrix: (Units=GPa)
#
#
# Indices 1 2 3 4 5 6 
#
# 1 132.1862 54.5552 17.0515 0.0000 0.0000 0.0000
# 2 54.5552 73.1477 16.6142 0.0000 0.0000 0.0000
# 3 17.0515 16.6142 72.2343 0.0000 0.0000 0.0000
# 4 0.0000 0.0000 0.0000 20.7114 0.0000 0.0000
# 5 0.0000 0.0000 0.0000 0.0000 -349.8350 0.0000
# 6 0.0000 0.0000 0.0000 0.0000 0.0000 19.0400
#
#
#
# Elastic Compliance Matrix: (Units=1/GPa)
#
#
# Indices 1 2 3 4 5 6 
#
# 1 0.010967 -0.008010 -0.000747 0.000000 0.000000 0.000000
# 2 -0.008010 0.020275 -0.002772 0.000000 0.000000 0.000000
# 3 -0.000747 -0.002772 0.014658 0.000000 0.000000 0.000000
# 4 0.000000 0.000000 0.000000 0.048283 0.000000 0.000000
# 5 0.000000 0.000000 0.000000 0.000000 -0.002858 0.000000
# 6 0.000000 0.000000 0.000000 0.000000 0.000000 0.052521
#
#
# Mechanical properties :
#
#
# Convention : Reuss Voigt Hill
#
# Bulk Modulus (GPa) = 43.77972 50.44558 47.11265
# Shear Modulus (GPa) = 28.65051 -49.39357 -10.37153
#
# Velocity S-wave (km/s) = 3.82536 -5.02275 -2.30159
# Velocity P-wave (km/s) = 6.47085 2.80571 4.12310
#
# Compressibility (1/GPa) = 0.02284162
#
# Stress axis : x y z
#
# Youngs Moduli (GPa) = 91.18039 49.32235 68.22336
#
# Poissons Ratio (x) = 0.39508 0.05093
# Poissons Ratio (y) = 0.73036 0.18915
# Poissons Ratio (z) = 0.06807 0.13674
#
# Static dielectric constant tensor:
#      x y z
#    x 1.748110 0.000000 0.000000 
#    y 0.000000 1.678030 0.000000 
#    z 0.000000 0.000000 1.665070 
# 
# From -- ./inp_files/24276.got.cif
#   From: 2010.05.17/outbox.cif.g08.bks.cpg/sg42_13_cif.got.tgz:24276.got - 2010.06.03 19:03:34.
