data_PCOD9369551
_publ_section_title
;
Structure prediction by ZEFSAII (Michael W. Deem and Ramdas Pophale) SiO2 
 PCOD9369551
Probable space group: F M M 2
;
_chemical_formula_sum "Si O2"
_cell_formula_units_Z 56
_cell_length_a 16.495467
_cell_length_b 10.027464
_cell_length_c 14.066211
_cell_angle_alpha 90.000000
_cell_angle_beta 90.000000
_cell_angle_gamma 90.000000
_cell_volume 2326.659630
_symmetry_space_group_name_H-M "F M M 2"
_symmetry_group_IT_number 42
_symmetry_cell_setting 'orthorhombic'
loop_
_space_group_symop_operation_xyz
x,y,z
-x,-y,z
-x,y,z
x,-y,z
x,1/2+y,1/2+z
-x,1/2-y,1/2+z
-x,1/2+y,1/2+z
x,1/2-y,1/2+z
1/2+x,y,1/2+z
1/2-x,-y,1/2+z
1/2-x,y,1/2+z
1/2+x,-y,1/2+z
1/2+x,1/2+y,z
1/2-x,1/2-y,z
1/2-x,1/2+y,z
1/2+x,1/2-y,z
loop_
_atom_site_type_symbol
_atom_site_label
_atom_site_fract_x
_atom_site_fract_y
_atom_site_fract_z
Si Si1 0.412098 0.348928 0.047820
Si Si2 0.862493 0.500000 0.263934
Si Si3 0.411820 0.774062 0.841961
Si Si4 0.707220 0.500000 0.378714
Si Si5 0.263010 0.500000 0.093575
O O1 0.500000 0.318546 0.096319
O O2 0.420977 0.500000 0.010632
O O3 0.325749 0.372076 0.100315
O O4 0.406617 0.260634 0.954481
O O5 0.907474 0.639973 0.279393
O O6 0.799118 0.500000 0.349319
O O7 0.806862 0.500000 0.171048
O O8 0.500000 0.837253 0.826035
O O9 0.337956 0.874478 0.832133
O O10 0.715293 0.500000 0.492876
#
# Coordination Sequence:
#
# PCOD9369551 Si02
#       5
#    16   8  16   8   8
#     4   8  15  35  66  94 125 174 222 267 335 411
#     4  12  23  41  72 104 131 181 235 285 342 403
#     4  11  22  44  70  96 134 186 230 276 344 417
#     4  12  25  44  65 102 142 176 228 294 344 392
#     4  10  21  39  68 104 135 167 235 293 335 393
#
# _framework density 24.068842
#
# number of rings (size 3 to 8) (size 9 to 14) (size 15 to 20)
#    0.857    0.857    4.286    1.714    0.000    0.000 
#   10.286    5.714    0.000    0.000    0.000    0.000 
#    0.000    0.000    0.000    0.000    0.000    0.000 
#
# Total GULP energy -78002.425322 kJ/mol
# GULP energy per Si atom -5571.601809 kJ/mol
# Density = 2.401406 g / cm^3
# Si number density = 24.068842 Si / 1000 Ang^3
#
#
#
# Elastic Constant Matrix: (Units=GPa)
#
#
# Indices 1 2 3 4 5 6 
#
# 1 149.1942 39.8494 29.0005 0.0000 0.0000 0.0000
# 2 39.8494 75.6838 7.7469 0.0000 0.0000 0.0000
# 3 29.0005 7.7469 118.9797 0.0000 0.0000 0.0000
# 4 0.0000 0.0000 0.0000 4.9419 0.0000 0.0000
# 5 0.0000 0.0000 0.0000 0.0000 23.7292 0.0000
# 6 0.0000 0.0000 0.0000 0.0000 0.0000 40.1986
#
#
#
# Elastic Compliance Matrix: (Units=1/GPa)
#
#
# Indices 1 2 3 4 5 6 
#
# 1 0.008133 -0.004107 -0.001715 0.000000 0.000000 0.000000
# 2 -0.004107 0.015375 0.000000 0.000000 0.000000 0.000000
# 3 -0.001715 0.000000 0.008823 0.000000 0.000000 0.000000
# 4 0.000000 0.000000 0.000000 0.202353 0.000000 0.000000
# 5 0.000000 0.000000 0.000000 0.000000 0.042142 0.000000
# 6 0.000000 0.000000 0.000000 0.000000 0.000000 0.024876
#
#
# Mechanical properties :
#
#
# Convention : Reuss Voigt Hill
#
# Bulk Modulus (GPa) = 48.33859 55.22794 51.78326
# Shear Modulus (GPa) = 15.61321 31.59132 23.60227
#
# Velocity S-wave (km/s) = 2.54970 3.62683 3.13487
# Velocity P-wave (km/s) = 5.36610 6.36664 5.88767
#
# Compressibility (1/GPa) = 0.02068741
#
# Stress axis : x y z
#
# Youngs Moduli (GPa) = 122.95738 65.04006 113.34258
#
# Poissons Ratio (x) = 0.26710 0.19438
# Poissons Ratio (y) = 0.50494 0.00001
# Poissons Ratio (z) = 0.21087 0.00001
#
# Static dielectric constant tensor:
#      x y z
#    x 1.939600 0.000000 0.000000 
#    y 0.000000 1.898540 0.000000 
#    z 0.000000 0.000000 1.966890 
# 
# From -- ./inp_files/12546.got.cif
#   From: 2010.05.17/outbox.cif.g08.bks.cpg/sg42_7_cif.got.tgz:12546.got - 2010.06.03 19:03:34.
