data_PCOD9369803
_publ_section_title
;
Structure prediction by ZEFSAII (Michael W. Deem and Ramdas Pophale) SiO2 
 PCOD9369803
Probable space group: F M M 2
;
_chemical_formula_sum "Si O2"
_cell_formula_units_Z 88
_cell_length_a 22.707536
_cell_length_b 22.893121
_cell_length_c 7.384340
_cell_angle_alpha 90.000000
_cell_angle_beta 90.000000
_cell_angle_gamma 90.000000
_cell_volume 3838.722338
_symmetry_space_group_name_H-M "F M M 2"
_symmetry_group_IT_number 42
_symmetry_cell_setting 'orthorhombic'
loop_
_space_group_symop_operation_xyz
x,y,z
-x,-y,z
-x,y,z
x,-y,z
x,1/2+y,1/2+z
-x,1/2-y,1/2+z
-x,1/2+y,1/2+z
x,1/2-y,1/2+z
1/2+x,y,1/2+z
1/2-x,-y,1/2+z
1/2-x,y,1/2+z
1/2+x,-y,1/2+z
1/2+x,1/2+y,z
1/2-x,1/2-y,z
1/2-x,1/2+y,z
1/2+x,1/2-y,z
loop_
_atom_site_type_symbol
_atom_site_label
_atom_site_fract_x
_atom_site_fract_y
_atom_site_fract_z
Si Si1 0.655138 0.500000 0.970600
Si Si2 0.696441 0.369419 0.521993
Si Si3 0.250000 0.250000 0.619349
Si Si4 0.629043 0.303186 0.220828
Si Si5 0.000000 0.153986 0.730058
Si Si6 0.274369 0.500000 0.589544
Si Si7 0.500000 0.270144 0.368362
Si Si8 0.118880 0.620735 0.370717
O O1 0.686938 0.500000 0.771607
O O2 0.620896 0.559854 0.976127
O O3 0.704836 0.500000 0.121960
O O4 0.741894 0.314276 0.525360
O O5 0.649583 0.350379 0.370239
O O6 0.716721 0.436447 0.493197
O O7 0.669983 0.371956 0.723716
O O8 0.314922 0.241434 0.712032
O O9 0.564086 0.280797 0.275332
O O10 0.622957 0.329840 0.021768
O O11 0.000000 0.190900 0.546925
O O12 0.059672 0.119846 0.753491
O O13 0.000000 0.200817 0.893560
#
# Coordination Sequence:
#
# PCOD9369803 Si02
#       8
#     8  16   8  16   8   8   8  16
#     4  10  24  43  70 101 139 191 246 303 373 447
#     4  11  26  45  67 108 146 192 244 310 366 449
#     4  12  28  42  72 112 154 188 244 316 376 436
#     4  12  27  45  74 108 149 193 245 305 380 444
#     4  12  24  47  71 101 147 188 253 305 372 451
#     4  10  24  44  68  97 145 196 242 299 381 449
#     4  12  26  48  75 105 147 201 243 303 378 461
#     4  11  25  45  71 103 141 191 242 306 368 444
#
# _framework density 22.924292999999999
#
# number of rings (size 3 to 8) (size 9 to 14) (size 15 to 20)
#    0.000    0.727    1.818    4.364   15.273    0.364 
#    0.000    0.000    0.000    1.636    0.000    0.000 
#    0.000    0.000    0.000    0.000    0.000    0.000 
#
# Total GULP energy -122813.988881 kJ/mol
# GULP energy per Si atom -5582.454040 kJ/mol
# Density = 2.287212 g / cm^3
# Si number density = 22.924293 Si / 1000 Ang^3
#
#
#
# Elastic Constant Matrix: (Units=GPa)
#
#
# Indices 1 2 3 4 5 6 
#
# 1 140.3696 58.9189 25.1000 -0.0030 0.0007 0.0004
# 2 58.9189 142.1151 19.9806 0.0008 0.0001 0.0000
# 3 25.1000 19.9806 68.6848 -0.0128 0.0103 -0.0053
# 4 -0.0030 0.0008 -0.0128 23.5961 0.0030 0.0002
# 5 0.0007 0.0001 0.0103 0.0030 29.6665 -0.0015
# 6 0.0004 0.0000 -0.0053 0.0002 -0.0015 20.4898
#
#
#
# Elastic Compliance Matrix: (Units=1/GPa)
#
#
# Indices 1 2 3 4 5 6 
#
# 1 0.008957 -0.003392 -0.002286 0.000000 0.000001 -0.000001
# 2 -0.003392 0.008621 -0.001268 -0.000001 0.000001 0.000000
# 3 -0.002286 -0.001268 0.015764 0.000008 -0.000005 0.000004
# 4 0.000000 -0.000001 0.000008 0.042380 -0.000004 0.000000
# 5 0.000001 0.000001 -0.000005 -0.000004 0.033708 0.000002
# 6 -0.000001 0.000000 0.000004 0.000000 0.000002 0.048805
#
#
# Mechanical properties :
#
#
# Convention : Reuss Voigt Hill
#
# Bulk Modulus (GPa) = 51.41854 62.12982 56.77418
# Shear Modulus (GPa) = 27.99395 31.22848 29.61122
#
# Velocity S-wave (km/s) = 3.49828 3.69486 3.59792
# Velocity P-wave (km/s) = 6.22862 6.73526 6.48689
#
# Compressibility (1/GPa) = 0.01944824
#
# Stress axis : x y z
#
# Youngs Moduli (GPa) = 111.64986 115.99475 63.43654
#
# Poissons Ratio (x) = 0.39343 0.14504
# Poissons Ratio (y) = 0.37870 0.08046
# Poissons Ratio (z) = 0.25527 0.14713
#
# Static dielectric constant tensor:
#      x y z
#    x 1.878830 0.000000 0.000000 
#    y 0.000000 1.869540 0.000000 
#    z 0.000000 0.000000 1.905420 
# 
# From -- ./inp_files/4666.got.cif
#   From: 2010.05.17/outbox.cif.g08.bks.cpg/sg42_3_cif.got.tgz:4666.got - 2010.06.03 19:03:34.
