data_PCOD9369361
_publ_section_title
;
Structure prediction by ZEFSAII (Michael W. Deem and Ramdas Pophale) SiO2 
 PCOD9369361
Probable space group: F M M 2
;
_chemical_formula_sum "Si O2"
_cell_formula_units_Z 116
_cell_length_a 8.102014
_cell_length_b 30.987155
_cell_length_c 25.450451
_cell_angle_alpha 90.000000
_cell_angle_beta 90.000000
_cell_angle_gamma 90.000000
_cell_volume 6389.548582
_symmetry_space_group_name_H-M "F M M 2"
_symmetry_group_IT_number 42
_symmetry_cell_setting 'orthorhombic'
loop_
_space_group_symop_operation_xyz
x,y,z
-x,-y,z
-x,y,z
x,-y,z
x,1/2+y,1/2+z
-x,1/2-y,1/2+z
-x,1/2+y,1/2+z
x,1/2-y,1/2+z
1/2+x,y,1/2+z
1/2-x,-y,1/2+z
1/2-x,y,1/2+z
1/2+x,-y,1/2+z
1/2+x,1/2+y,z
1/2-x,1/2-y,z
1/2-x,1/2+y,z
1/2+x,1/2-y,z
loop_
_atom_site_type_symbol
_atom_site_label
_atom_site_fract_x
_atom_site_fract_y
_atom_site_fract_z
Si Si1 0.303445 0.360089 0.108670
Si Si2 0.693541 0.297848 0.517013
Si Si3 0.000000 0.000000 0.300000
Si Si4 0.308227 0.701082 0.899916
Si Si5 0.697717 0.702212 0.200904
Si Si6 0.192691 0.061080 0.771327
Si Si7 0.303569 0.451753 0.646284
Si Si8 0.306856 0.846634 0.801488
O O1 0.500000 0.355168 0.105517
O O2 0.242307 0.334366 0.160483
O O3 0.265289 0.410655 0.115232
O O4 0.229106 0.334842 0.059218
O O5 0.500000 0.294864 0.506515
O O6 0.750000 0.250000 0.535527
O O7 0.779722 0.307587 0.461493
O O8 0.848579 0.963339 0.297436
O O9 0.500000 0.697650 0.887625
O O10 0.250000 0.750000 0.890855
O O11 0.214538 0.669696 0.860468
O O12 0.500000 0.701505 0.199324
O O13 0.750000 0.750000 0.185477
O O14 0.749475 0.689870 0.259891
O O15 0.223131 0.055552 0.708644
O O16 0.207566 0.110453 0.788566
O O17 0.000000 0.047426 0.780953
O O18 0.500000 0.452163 0.637982
O O19 0.238922 0.500000 0.633170
O O20 0.500000 0.855182 0.791055
#
# Coordination Sequence:
#
# PCOD9369361 Si02
#       8
#    16  16   4  16  16  16  16  16
#     4  11  22  36  56  83 115 152 193 236 291 351
#     4  11  22  39  60  84 113 150 195 245 295 349
#     4  12  22  36  60  82 120 160 194 256 296 354
#     4  11  22  38  59  85 114 152 199 249 293 347
#     4  10  22  34  50  76 114 157 193 228 281 348
#     4  11  22  36  57  86 118 157 200 244 300 360
#     4  10  21  36  55  83 115 151 196 243 290 348
#     4  11  21  37  56  84 119 157 197 241 295 353
#
# _framework density 18.154648000000002
#
# number of rings (size 3 to 8) (size 9 to 14) (size 15 to 20)
#    0.000    1.241    2.759    5.172    0.966    4.690 
#    0.000    0.000    0.000    0.000    1.793    0.000 
#    0.000    0.000    0.000    0.000    0.000    0.000 
#
# Total GULP energy -161602.394375 kJ/mol
# GULP energy per Si atom -5572.496358 kJ/mol
# Density = 1.811333 g / cm^3
# Si number density = 18.154648 Si / 1000 Ang^3
#
#
#
# Elastic Constant Matrix: (Units=GPa)
#
#
# Indices 1 2 3 4 5 6 
#
# 1 70.1223 10.8233 1.5740 0.0000 0.0000 0.0000
# 2 10.8233 123.9866 40.5707 0.0000 0.0000 0.0000
# 3 1.5740 40.5707 52.3280 0.0000 0.0000 0.0000
# 4 0.0000 0.0000 0.0000 155.4595 0.0000 0.0000
# 5 0.0000 0.0000 0.0000 0.0000 18.2395 0.0000
# 6 0.0000 0.0000 0.0000 0.0000 0.0000 25.6919
#
#
#
# Elastic Compliance Matrix: (Units=1/GPa)
#
#
# Indices 1 2 3 4 5 6 
#
# 1 0.014476 -0.001502 0.000729 0.000000 0.000000 0.000000
# 2 -0.001502 0.010963 -0.008455 0.000000 0.000000 0.000000
# 3 0.000729 -0.008455 0.025643 0.000000 0.000000 0.000000
# 4 0.000000 0.000000 0.000000 0.006433 0.000000 0.000000
# 5 0.000000 0.000000 0.000000 0.000000 0.054826 0.000000
# 6 0.000000 0.000000 0.000000 0.000000 0.000000 0.038923
#
#
# Mechanical properties :
#
#
# Convention : Reuss Voigt Hill
#
# Bulk Modulus (GPa) = 30.64912 39.15255 34.90083
# Shear Modulus (GPa) = 27.68627 52.77611 40.23119
#
# Velocity S-wave (km/s) = 3.90939 5.39754 4.71258
# Velocity P-wave (km/s) = 6.10710 7.77544 6.99122
#
# Compressibility (1/GPa) = 0.03262737
#
# Stress axis : x y z
#
# Youngs Moduli (GPa) = 69.07840 91.21568 38.99662
#
# Poissons Ratio (x) = 0.13704 -0.02844
# Poissons Ratio (y) = 0.10378 0.32970
# Poissons Ratio (z) = -0.05038 0.77119
#
# Static dielectric constant tensor:
#      x y z
#    x 1.649190 0.000000 0.000000 
#    y 0.000000 1.538350 0.000000 
#    z 0.000000 0.000000 1.608810 
# 
# From -- ./inp_files/31986.got.cif
#   From: 2010.05.17/outbox.cif.g08.bks.cpg/sg42_16_cif.got.tgz:31986.got - 2010.06.03 19:03:34.
