data_PCOD9369935
_publ_section_title
;
Structure prediction by ZEFSAII (Michael W. Deem and Ramdas Pophale) SiO2 
 PCOD9369935
Probable space group: F M M 2
;
_chemical_formula_sum "Si O2"
_cell_formula_units_Z 112
_cell_length_a 15.160558
_cell_length_b 28.368591
_cell_length_c 11.921833
_cell_angle_alpha 90.000000
_cell_angle_beta 90.000000
_cell_angle_gamma 90.000000
_cell_volume 5127.385681
_symmetry_space_group_name_H-M "F M M 2"
_symmetry_group_IT_number 42
_symmetry_cell_setting 'orthorhombic'
loop_
_space_group_symop_operation_xyz
x,y,z
-x,-y,z
-x,y,z
x,-y,z
x,1/2+y,1/2+z
-x,1/2-y,1/2+z
-x,1/2+y,1/2+z
x,1/2-y,1/2+z
1/2+x,y,1/2+z
1/2-x,-y,1/2+z
1/2-x,y,1/2+z
1/2+x,-y,1/2+z
1/2+x,1/2+y,z
1/2-x,1/2-y,z
1/2-x,1/2+y,z
1/2+x,1/2-y,z
loop_
_atom_site_type_symbol
_atom_site_label
_atom_site_fract_x
_atom_site_fract_y
_atom_site_fract_z
Si Si1 0.900437 0.886909 0.286370
Si Si2 0.152481 0.200532 0.662590
Si Si3 0.895290 0.947643 0.920196
Si Si4 0.602326 0.844192 0.375955
Si Si5 0.902837 0.393878 0.053226
Si Si6 0.270493 0.446243 0.138477
Si Si7 0.141605 0.805702 0.120802
O O1 0.891458 0.886662 0.419948
O O2 0.823511 0.918210 0.233076
O O3 0.890573 0.836414 0.225996
O O4 0.000000 0.904698 0.260166
O O5 0.155015 0.190854 0.795838
O O6 0.100610 0.157329 0.609308
O O7 0.114125 0.251366 0.632211
O O8 0.252387 0.195824 0.620239
O O9 0.873500 0.899134 0.855866
O O10 0.000000 0.943890 0.947339
O O11 0.882622 0.000000 0.868905
O O12 0.835691 0.945717 0.030902
O O13 0.500000 0.838554 0.346899
O O14 0.613006 0.830942 0.506114
O O15 0.821504 0.423363 0.101512
O O16 0.000000 0.415306 0.073885
O O17 0.257596 0.500000 0.172456
#
# Coordination Sequence:
#
# PCOD9369935 Si02
#       7
#    16  16  16  16  16  16  16
#     4  11  24  44  71 103 139 180 229 288 349 416
#     4  11  26  43  67  99 137 183 234 283 346 412
#     4   9  18  35  63  99 133 169 222 287 347 400
#     4  11  23  41  66  96 136 178 226 291 347 409
#     4  11  26  46  68  99 144 186 227 281 347 420
#     4  11  23  42  70 100 134 178 229 284 344 411
#     4  11  25  41  69  99 134 178 235 287 343 409
#
# _framework density 21.843489999999999
#
# number of rings (size 3 to 8) (size 9 to 14) (size 15 to 20)
#    0.000    1.286    2.857    1.286    6.000    5.143 
#    0.000    3.571    0.000    1.714    0.000    2.000 
#    0.000    0.000    0.000    0.000    0.000    0.000 
#
# Total GULP energy -156608.562539 kJ/mol
# GULP energy per Si atom -5593.162948 kJ/mol
# Density = 2.179377 g / cm^3
# Si number density = 21.843490 Si / 1000 Ang^3
#
#
#
# Elastic Constant Matrix: (Units=GPa)
#
#
# Indices 1 2 3 4 5 6 
#
# 1 127.2550 43.1134 46.9802 0.0000 0.0000 0.0000
# 2 43.1134 138.8856 25.2669 0.0000 0.0000 0.0000
# 3 46.9802 25.2669 67.7831 0.0000 0.0000 0.0000
# 4 0.0000 0.0000 0.0000 -11.5325 0.0000 0.0000
# 5 0.0000 0.0000 0.0000 0.0000 26.5811 0.0000
# 6 0.0000 0.0000 0.0000 0.0000 0.0000 10.4967
#
#
#
# Elastic Compliance Matrix: (Units=1/GPa)
#
#
# Indices 1 2 3 4 5 6 
#
# 1 0.011157 -0.002206 -0.006910 0.000000 0.000000 0.000000
# 2 -0.002206 0.008160 -0.001513 0.000000 0.000000 0.000000
# 3 -0.006910 -0.001513 0.020106 0.000000 0.000000 0.000000
# 4 0.000000 0.000000 0.000000 -0.086711 0.000000 0.000000
# 5 0.000000 0.000000 0.000000 0.000000 0.037621 0.000000
# 6 0.000000 0.000000 0.000000 0.000000 0.000000 0.095268
#
#
# Mechanical properties :
#
#
# Convention : Reuss Voigt Hill
#
# Bulk Modulus (GPa) = 55.05126 62.73830 58.89478
# Shear Modulus (GPa) = 44.28147 19.67994 31.98070
#
# Velocity S-wave (km/s) = 4.50735 3.00484 3.83049
# Velocity P-wave (km/s) = 7.23502 6.38928 6.82526
#
# Compressibility (1/GPa) = 0.01816489
#
# Stress axis : x y z
#
# Youngs Moduli (GPa) = 89.63079 122.54562 49.73534
#
# Poissons Ratio (x) = 0.27036 0.34369
# Poissons Ratio (y) = 0.19774 0.07524
# Poissons Ratio (z) = 0.61939 0.18538
#
# Static dielectric constant tensor:
#      x y z
#    x 1.837410 0.000000 0.000000 
#    y 0.000000 1.799360 0.000000 
#    z 0.000000 0.000000 1.771530 
# 
# From -- ./inp_files/8107.got.cif
#   From: 2010.05.17/outbox.cif.g08.bks.cpg/sg42_5_cif.got.tgz:8107.got - 2010.06.03 19:03:34.
