data_PCOD9369204
_publ_section_title
;
Structure prediction by ZEFSAII (Michael W. Deem and Ramdas Pophale) SiO2 
 PCOD9369204
Probable space group: F M M 2
;
_chemical_formula_sum "Si O2"
_cell_formula_units_Z 112
_cell_length_a 16.447631
_cell_length_b 21.970459
_cell_length_c 14.331101
_cell_angle_alpha 90.000000
_cell_angle_beta 90.000000
_cell_angle_gamma 90.000000
_cell_volume 5178.715356
_symmetry_space_group_name_H-M "F M M 2"
_symmetry_group_IT_number 42
_symmetry_cell_setting 'orthorhombic'
loop_
_space_group_symop_operation_xyz
x,y,z
-x,-y,z
-x,y,z
x,-y,z
x,1/2+y,1/2+z
-x,1/2-y,1/2+z
-x,1/2+y,1/2+z
x,1/2-y,1/2+z
1/2+x,y,1/2+z
1/2-x,-y,1/2+z
1/2-x,y,1/2+z
1/2+x,-y,1/2+z
1/2+x,1/2+y,z
1/2-x,1/2-y,z
1/2-x,1/2+y,z
1/2+x,1/2-y,z
loop_
_atom_site_type_symbol
_atom_site_label
_atom_site_fract_x
_atom_site_fract_y
_atom_site_fract_z
Si Si1 0.379058 0.137724 0.619300
Si Si2 0.590386 0.570082 0.930405
Si Si3 0.207812 0.338945 0.331467
Si Si4 0.656960 0.432676 0.280924
Si Si5 0.094985 0.729497 0.178931
Si Si6 0.288888 0.330033 0.529407
Si Si7 0.588137 0.069668 0.981694
O O1 0.411826 0.113470 0.521031
O O2 0.388670 0.079942 0.685848
O O3 0.412172 0.197656 0.670304
O O4 0.287289 0.157359 0.594228
O O5 0.500000 0.567283 0.890672
O O6 0.616643 0.500000 0.950177
O O7 0.648930 0.606181 0.862083
O O8 0.280975 0.376264 0.284522
O O9 0.154103 0.294294 0.264391
O O10 0.250342 0.313958 0.427535
O O11 0.695289 0.500000 0.282774
O O12 0.599033 0.429128 0.370207
O O13 0.144873 0.711202 0.083885
O O14 0.000000 0.706660 0.185076
O O15 0.336784 0.392880 0.518297
O O16 0.500000 0.095434 0.007560
O O17 0.591869 0.000000 0.012424
#
# Coordination Sequence:
#
# PCOD9369204 Si02
#       7
#    16  16  16  16  16  16  16
#     4  11  23  41  63  92 131 175 228 277 332 410
#     4  10  21  40  65  96 135 176 225 289 355 415
#     4  10  22  42  68  97 133 175 225 279 340 412
#     4  10  20  37  64  94 125 167 220 273 331 403
#     4  12  25  45  68  98 138 179 228 285 340 405
#     4  10  22  42  66  92 130 176 229 275 337 406
#     4   9  19  37  61  94 133 168 212 276 343 405
#
# _framework density 21.626985000000001
#
# number of rings (size 3 to 8) (size 9 to 14) (size 15 to 20)
#    0.000    1.714    1.429    2.571    0.000    5.143 
#   18.000    1.429    0.000    2.571    0.000    0.000 
#    0.000    0.000    0.000    0.000    0.000    0.000 
#
# Total GULP energy -155959.053350 kJ/mol
# GULP energy per Si atom -5569.966191 kJ/mol
# Density = 2.157776 g / cm^3
# Si number density = 21.626985 Si / 1000 Ang^3
#
#
#
# Elastic Constant Matrix: (Units=GPa)
#
#
# Indices 1 2 3 4 5 6 
#
# 1 129.9694 43.3834 27.1732 0.0000 0.0000 0.0000
# 2 43.3834 108.6734 31.8569 0.0000 0.0000 0.0000
# 3 27.1732 31.8569 78.0836 0.0000 0.0000 0.0000
# 4 0.0000 0.0000 0.0000 46.4842 0.0000 0.0000
# 5 0.0000 0.0000 0.0000 0.0000 -26.2436 0.0000
# 6 0.0000 0.0000 0.0000 0.0000 0.0000 53.4710
#
#
#
# Elastic Compliance Matrix: (Units=1/GPa)
#
#
# Indices 1 2 3 4 5 6 
#
# 1 0.009123 -0.003080 -0.001918 0.000000 0.000000 0.000000
# 2 -0.003080 0.011492 -0.003617 0.000000 0.000000 0.000000
# 3 -0.001918 -0.003617 0.014950 0.000000 0.000000 0.000000
# 4 0.000000 0.000000 0.000000 0.021513 0.000000 0.000000
# 5 0.000000 0.000000 0.000000 0.000000 -0.038104 0.000000
# 6 0.000000 0.000000 0.000000 0.000000 0.000000 0.018702
#
#
# Mechanical properties :
#
#
# Convention : Reuss Voigt Hill
#
# Bulk Modulus (GPa) = 54.54001 57.95039 56.24520
# Shear Modulus (GPa) = 81.94608 29.02985 55.48797
#
# Velocity S-wave (km/s) = 6.16222 3.66771 5.07075
# Velocity P-wave (km/s) = 8.71228 6.69251 7.76832
#
# Compressibility (1/GPa) = 0.01833516
#
# Stress axis : x y z
#
# Youngs Moduli (GPa) = 109.61066 87.02075 66.88995
#
# Poissons Ratio (x) = 0.26800 0.12832
# Poissons Ratio (y) = 0.33757 0.24192
# Poissons Ratio (z) = 0.21028 0.31472
#
# Static dielectric constant tensor:
#      x y z
#    x 1.849080 0.000000 0.000000 
#    y 0.000000 1.769560 0.000000 
#    z 0.000000 0.000000 1.821410 
# 
# From -- ./inp_files/14220.got.cif
#   From: 2010.05.17/outbox.cif.g08.bks.cpg/sg42_8_cif.got.tgz:14220.got - 2010.06.03 19:03:34.
