data_PCOD9369798
_publ_section_title
;
Structure prediction by ZEFSAII (Michael W. Deem and Ramdas Pophale) SiO2 
 PCOD9369798
Probable space group: F M M 2
;
_chemical_formula_sum "Si O2"
_cell_formula_units_Z 120
_cell_length_a 25.500433
_cell_length_b 20.845772
_cell_length_c 9.979955
_cell_angle_alpha 90.000000
_cell_angle_beta 90.000000
_cell_angle_gamma 90.000000
_cell_volume 5305.106677
_symmetry_space_group_name_H-M "F M M 2"
_symmetry_group_IT_number 42
_symmetry_cell_setting 'orthorhombic'
loop_
_space_group_symop_operation_xyz
x,y,z
-x,-y,z
-x,y,z
x,-y,z
x,1/2+y,1/2+z
-x,1/2-y,1/2+z
-x,1/2+y,1/2+z
x,1/2-y,1/2+z
1/2+x,y,1/2+z
1/2-x,-y,1/2+z
1/2-x,y,1/2+z
1/2+x,-y,1/2+z
1/2+x,1/2+y,z
1/2-x,1/2-y,z
1/2-x,1/2+y,z
1/2+x,1/2-y,z
loop_
_atom_site_type_symbol
_atom_site_label
_atom_site_fract_x
_atom_site_fract_y
_atom_site_fract_z
Si Si1 0.941352 0.263107 0.069810
Si Si2 0.156187 0.380907 0.156542
Si Si3 0.063107 0.830267 0.302042
Si Si4 0.767824 0.609677 0.793062
Si Si5 0.609143 0.163690 0.401882
Si Si6 0.865734 0.075240 0.139728
Si Si7 0.695202 0.226897 0.962533
Si Si8 0.184510 0.500000 0.985044
O O1 0.918994 0.229385 0.205233
O O2 0.938882 0.201514 0.968090
O O3 0.000000 0.280688 0.108955
O O4 0.926071 0.316473 0.958175
O O5 0.207619 0.392466 0.250348
O O6 0.107998 0.362528 0.252141
O O7 0.169090 0.317189 0.073859
O O8 0.152433 0.443062 0.065424
O O9 0.097852 0.888879 0.248775
O O10 0.000000 0.838675 0.284968
O O11 0.805164 0.591426 0.669090
O O12 0.787367 0.679244 0.843081
O O13 0.782150 0.556770 0.904460
O O14 0.619655 0.103355 0.497114
O O15 0.657441 0.214686 0.422002
O O16 0.872759 0.000000 0.153353
O O17 0.750000 0.250000 0.021577
#
# Coordination Sequence:
#
# PCOD9369798 Si02
#       8
#    16  16  16  16  16  16  16   8
#     4   9  19  37  61  90 120 149 189 240 304 366
#     4  11  25  37  60  81 117 156 200 244 289 357
#     4   9  19  38  63  91 119 150 190 243 302 367
#     4  11  22  40  57  78 115 154 197 248 285 348
#     4  11  24  37  60  87 117 151 196 244 301 356
#     4  11  24  38  59  83 114 155 198 242 293 347
#     4  11  23  37  56  84 115 150 191 243 300 342
#     4  10  24  42  56  80 109 164 205 244 290 342
#
# _framework density 22.619716
#
# number of rings (size 3 to 8) (size 9 to 14) (size 15 to 20)
#    0.000    1.600    2.000    2.000   10.267    0.267 
#    0.000    0.000    0.000    0.000    0.000    0.933 
#    0.000    5.333    0.000    0.000    0.000    0.000 
#
# Total GULP energy -167073.311180 kJ/mol
# GULP energy per Si atom -5569.110373 kJ/mol
# Density = 2.256823 g / cm^3
# Si number density = 22.619716 Si / 1000 Ang^3
#
#
#
# Elastic Constant Matrix: (Units=GPa)
#
#
# Indices 1 2 3 4 5 6 
#
# 1 53.7890 3.5765 -10.7234 0.0000 0.0000 0.0000
# 2 3.5765 64.6142 5.0429 0.0000 0.0000 0.0000
# 3 -10.7234 5.0429 49.6286 0.0000 0.0000 0.0000
# 4 0.0000 0.0000 0.0000 22.8753 0.0000 0.0000
# 5 0.0000 0.0000 0.0000 0.0000 29.1487 0.0000
# 6 0.0000 0.0000 0.0000 0.0000 0.0000 7.4723
#
#
#
# Elastic Compliance Matrix: (Units=1/GPa)
#
#
# Indices 1 2 3 4 5 6 
#
# 1 0.019557 -0.001424 0.004370 0.000000 0.000000 0.000000
# 2 -0.001424 0.015704 -0.001903 0.000000 0.000000 0.000000
# 3 0.004370 -0.001903 0.021287 0.000000 0.000000 0.000000
# 4 0.000000 0.000000 0.000000 0.043715 0.000000 0.000000
# 5 0.000000 0.000000 0.000000 0.000000 0.034307 0.000000
# 6 0.000000 0.000000 0.000000 0.000000 0.000000 0.133828
#
#
# Mechanical properties :
#
#
# Convention : Reuss Voigt Hill
#
# Bulk Modulus (GPa) = 17.05456 18.20263 17.62859
# Shear Modulus (GPa) = 17.49130 23.24164 20.36647
#
# Velocity S-wave (km/s) = 2.78380 3.20893 3.00390
# Velocity P-wave (km/s) = 4.22951 4.66845 4.45439
#
# Compressibility (1/GPa) = 0.05863535
#
# Stress axis : x y z
#
# Youngs Moduli (GPa) = 51.13228 63.67878 46.97616
#
# Poissons Ratio (x) = 0.09065 -0.20530
# Poissons Ratio (y) = 0.07279 0.08941
# Poissons Ratio (z) = -0.22347 0.12120
#
# Static dielectric constant tensor:
#      x y z
#    x 1.980430 0.000000 0.000000 
#    y 0.000000 1.825720 0.000000 
#    z 0.000000 0.000000 1.940490 
# 
# From -- ./inp_files/10785.got.cif
#   From: 2010.05.17/outbox.cif.g08.bks.cpg/sg42_6_cif.got.tgz:10785.got - 2010.06.03 19:03:34.
