data_PCOD9369155
_publ_section_title
;
Structure prediction by ZEFSAII (Michael W. Deem and Ramdas Pophale) SiO2 
 PCOD9369155
Probable space group: F M M 2
;
_chemical_formula_sum "Si O2"
_cell_formula_units_Z 96
_cell_length_a 8.645219
_cell_length_b 24.209616
_cell_length_c 25.615631
_cell_angle_alpha 90.000000
_cell_angle_beta 90.000000
_cell_angle_gamma 90.000000
_cell_volume 5361.285793
_symmetry_space_group_name_H-M "F M M 2"
_symmetry_group_IT_number 42
_symmetry_cell_setting 'orthorhombic'
loop_
_space_group_symop_operation_xyz
x,y,z
-x,-y,z
-x,y,z
x,-y,z
x,1/2+y,1/2+z
-x,1/2-y,1/2+z
-x,1/2+y,1/2+z
x,1/2-y,1/2+z
1/2+x,y,1/2+z
1/2-x,-y,1/2+z
1/2-x,y,1/2+z
1/2+x,-y,1/2+z
1/2+x,1/2+y,z
1/2-x,1/2-y,z
1/2-x,1/2+y,z
1/2+x,1/2-y,z
loop_
_atom_site_type_symbol
_atom_site_label
_atom_site_fract_x
_atom_site_fract_y
_atom_site_fract_z
Si Si1 0.313255 0.618538 0.721240
Si Si2 0.315052 0.189992 0.013585
Si Si3 0.184566 0.000000 0.384303
Si Si4 0.686645 0.000000 0.266594
Si Si5 0.315569 0.309519 0.129784
Si Si6 0.686058 0.311498 0.822999
Si Si7 0.686205 0.615477 0.922937
O O1 0.500000 0.621563 0.715787
O O2 0.272463 0.555577 0.735441
O O3 0.236136 0.643591 0.669997
O O4 0.266714 0.656115 0.770747
O O5 0.500000 0.191793 0.013414
O O6 0.250000 0.250000 0.996680
O O7 0.254399 0.180797 0.072345
O O8 0.253124 0.143546 0.974656
O O9 0.250847 0.054602 0.411779
O O10 0.239215 0.000000 0.323924
O O11 0.000000 0.000000 0.386467
O O12 0.500000 0.000000 0.274144
O O13 0.500000 0.306014 0.126211
O O14 0.250000 0.250000 0.148116
O O15 0.500000 0.309274 0.823075
O O16 0.750000 0.250000 0.824167
O O17 0.733658 0.346316 0.873734
O O18 0.500000 0.614267 0.925283
#
# Coordination Sequence:
#
# PCOD9369155 Si02
#       7
#    16  16   8   8  16  16  16
#     4  10  20  37  59  85 114 153 197 241 292 349
#     4  11  22  39  62  90 120 155 197 244 297 357
#     4  12  24  38  59  88 119 156 200 246 294 352
#     4  10  20  40  63  82 115 160 200 238 292 352
#     4  11  22  38  60  87 118 156 196 242 296 353
#     4  10  21  34  54  82 116 150 187 233 291 349
#     4  11  22  40  61  84 116 158 200 244 293 350
#
# _framework density 17.906153
#
# number of rings (size 3 to 8) (size 9 to 14) (size 15 to 20)
#    0.000    1.333    1.667    6.250    0.000    5.333 
#    0.000    0.833    0.000    1.000    0.000    0.000 
#    0.000    0.000    0.000    0.000    0.000    0.000 
#
# Total GULP energy -134175.216313 kJ/mol
# GULP energy per Si atom -5590.634013 kJ/mol
# Density = 1.786540 g / cm^3
# Si number density = 17.906153 Si / 1000 Ang^3
#
#
#
# Elastic Constant Matrix: (Units=GPa)
#
#
# Indices 1 2 3 4 5 6 
#
# 1 103.4110 65.4949 52.3496 0.0000 0.0000 0.0000
# 2 65.4949 188.0800 89.1492 0.0000 0.0000 0.0000
# 3 52.3496 89.1492 99.3001 0.0000 0.0000 0.0000
# 4 0.0000 0.0000 0.0000 21.7224 0.0000 0.0000
# 5 0.0000 0.0000 0.0000 0.0000 28.6165 0.0000
# 6 0.0000 0.0000 0.0000 0.0000 0.0000 29.2195
#
#
#
# Elastic Compliance Matrix: (Units=1/GPa)
#
#
# Indices 1 2 3 4 5 6 
#
# 1 0.013765 -0.002357 -0.005141 0.000000 0.000000 0.000000
# 2 -0.002357 0.009659 -0.007429 0.000000 0.000000 0.000000
# 3 -0.005141 -0.007429 0.019451 0.000000 0.000000 0.000000
# 4 0.000000 0.000000 0.000000 0.046035 0.000000 0.000000
# 5 0.000000 0.000000 0.000000 0.000000 0.034945 0.000000
# 6 0.000000 0.000000 0.000000 0.000000 0.000000 0.034224
#
#
# Mechanical properties :
#
#
# Convention : Reuss Voigt Hill
#
# Bulk Modulus (GPa) = 76.79965 89.41982 83.10974
# Shear Modulus (GPa) = 26.00468 28.16484 27.08476
#
# Velocity S-wave (km/s) = 3.81501 3.97030 3.89343
# Velocity P-wave (km/s) = 7.89867 8.42996 8.16863
#
# Compressibility (1/GPa) = 0.01302089
#
# Stress axis : x y z
#
# Youngs Moduli (GPa) = 72.64650 103.53127 51.41228
#
# Poissons Ratio (x) = 0.24398 0.26432
# Poissons Ratio (y) = 0.17120 0.38195
# Poissons Ratio (z) = 0.37349 0.76915
#
# Static dielectric constant tensor:
#      x y z
#    x 1.601950 0.000000 0.000000 
#    y 0.000000 1.589460 0.000000 
#    z 0.000000 0.000000 1.591720 
# 
# From -- ./inp_files/28067.got.cif
#   From: 2010.05.17/outbox.cif.g08.bks.cpg/sg42_15_cif.got.tgz:28067.got - 2010.06.03 19:03:34.
