data_PCOD9369389
_publ_section_title
;
Structure prediction by ZEFSAII (Michael W. Deem and Ramdas Pophale) SiO2 
 PCOD9369389
Probable space group: F M M 2
;
_chemical_formula_sum "Si O2"
_cell_formula_units_Z 88
_cell_length_a 20.895962
_cell_length_b 15.913756
_cell_length_c 12.651839
_cell_angle_alpha 90.000000
_cell_angle_beta 90.000000
_cell_angle_gamma 90.000000
_cell_volume 4207.157023
_symmetry_space_group_name_H-M "F M M 2"
_symmetry_group_IT_number 42
_symmetry_cell_setting 'orthorhombic'
loop_
_space_group_symop_operation_xyz
x,y,z
-x,-y,z
-x,y,z
x,-y,z
x,1/2+y,1/2+z
-x,1/2-y,1/2+z
-x,1/2+y,1/2+z
x,1/2-y,1/2+z
1/2+x,y,1/2+z
1/2-x,-y,1/2+z
1/2-x,y,1/2+z
1/2+x,-y,1/2+z
1/2+x,1/2+y,z
1/2-x,1/2-y,z
1/2-x,1/2+y,z
1/2+x,1/2-y,z
loop_
_atom_site_type_symbol
_atom_site_label
_atom_site_fract_x
_atom_site_fract_y
_atom_site_fract_z
Si Si1 0.172810 0.095943 0.320850
Si Si2 0.427812 0.368755 0.144536
Si Si3 0.929252 0.099826 0.493186
Si Si4 0.250000 0.250000 0.237635
Si Si5 0.116151 0.811258 0.694199
Si Si6 0.076444 0.902417 0.898881
O O1 0.126460 0.092049 0.218386
O O2 0.125863 0.127721 0.413671
O O3 0.224904 0.168258 0.301376
O O4 0.196005 0.000000 0.341896
O O5 0.500000 0.401672 0.162422
O O6 0.426001 0.271050 0.175079
O O7 0.412005 0.379307 0.020997
O O8 0.908868 0.120579 0.611846
O O9 0.000000 0.135887 0.470333
O O10 0.932927 0.000000 0.479065
O O11 0.188867 0.282688 0.172877
O O12 0.110718 0.844646 0.813086
O O13 0.000000 0.894308 0.881324
O O14 0.093882 0.000000 0.882987
#
# Coordination Sequence:
#
# PCOD9369389 Si02
#       6
#    16  16  16   8  16  16
#     4  10  22  42  64  92 126 168 216 264 318 379
#     4  10  21  36  61  94 127 164 206 262 328 387
#     4  10  21  38  66  99 128 161 205 266 332 386
#     4  10  26  44  62  86 126 178 224 260 298 376
#     4  11  23  40  60  90 126 170 214 261 314 378
#     4  10  21  38  62  93 126 161 207 266 329 387
#
# _framework density 20.916736
#
# number of rings (size 3 to 8) (size 9 to 14) (size 15 to 20)
#    0.000    1.818    0.000    3.273    5.091    5.455 
#    3.273    0.000    0.000    0.000    0.000    0.000 
#    0.000    0.000    0.000    0.000    0.000    0.000 
#
# Total GULP energy -122855.856717 kJ/mol
# GULP energy per Si atom -5584.357124 kJ/mol
# Density = 2.086913 g / cm^3
# Si number density = 20.916736 Si / 1000 Ang^3
#
#
#
# Elastic Constant Matrix: (Units=GPa)
#
#
# Indices 1 2 3 4 5 6 
#
# 1 87.2308 29.9955 14.0604 0.0000 0.0000 0.0000
# 2 29.9955 76.2466 23.5994 0.0000 0.0000 0.0000
# 3 14.0604 23.5994 65.7435 0.0000 0.0000 0.0000
# 4 0.0000 0.0000 0.0000 29.1581 0.0000 0.0000
# 5 0.0000 0.0000 0.0000 0.0000 -513.3504 0.0000
# 6 0.0000 0.0000 0.0000 0.0000 0.0000 0.6036
#
#
#
# Elastic Compliance Matrix: (Units=1/GPa)
#
#
# Indices 1 2 3 4 5 6 
#
# 1 0.013326 -0.004905 -0.001089 0.000000 0.000000 0.000000
# 2 -0.004905 0.016560 -0.004895 0.000000 0.000000 0.000000
# 3 -0.001089 -0.004895 0.017201 0.000000 0.000000 0.000000
# 4 0.000000 0.000000 0.000000 0.034296 0.000000 0.000000
# 5 0.000000 0.000000 0.000000 0.000000 -0.001948 0.000000
# 6 0.000000 0.000000 0.000000 0.000000 0.000000 1.656705
#
#
# Mechanical properties :
#
#
# Convention : Reuss Voigt Hill
#
# Bulk Modulus (GPa) = 39.51424 40.50350 40.00887
# Shear Modulus (GPa) = 2.83069 -85.94671 -41.55801
#
# Velocity S-wave (km/s) = 1.16458 -6.41710 -4.46222
# Velocity P-wave (km/s) = 4.55418 5.95813 2.71650
#
# Compressibility (1/GPa) = 0.02530733
#
# Stress axis : x y z
#
# Youngs Moduli (GPa) = 75.04015 60.38525 58.13665
#
# Poissons Ratio (x) = 0.29622 0.06332
# Poissons Ratio (y) = 0.36810 0.28460
# Poissons Ratio (z) = 0.08173 0.29561
#
# Static dielectric constant tensor:
#      x y z
#    x 1.811520 0.000000 0.000000 
#    y 0.000000 1.766070 0.000000 
#    z 0.000000 0.000000 1.723590 
# 
# From -- ./inp_files/8689.got.cif
#   From: 2010.05.17/outbox.cif.g08.bks.cpg/sg42_5_cif.got.tgz:8689.got - 2010.06.03 19:03:34.
