data_PCOD9369452
_publ_section_title
;
Structure prediction by ZEFSAII (Michael W. Deem and Ramdas Pophale) SiO2 
 PCOD9369452
Probable space group: F M M 2
;
_chemical_formula_sum "Si O2"
_cell_formula_units_Z 80
_cell_length_a 8.949110
_cell_length_b 26.968906
_cell_length_c 18.140616
_cell_angle_alpha 90.000000
_cell_angle_beta 90.000000
_cell_angle_gamma 90.000000
_cell_volume 4378.196064
_symmetry_space_group_name_H-M "F M M 2"
_symmetry_group_IT_number 42
_symmetry_cell_setting 'orthorhombic'
loop_
_space_group_symop_operation_xyz
x,y,z
-x,-y,z
-x,y,z
x,-y,z
x,1/2+y,1/2+z
-x,1/2-y,1/2+z
-x,1/2+y,1/2+z
x,1/2-y,1/2+z
1/2+x,y,1/2+z
1/2-x,-y,1/2+z
1/2-x,y,1/2+z
1/2+x,-y,1/2+z
1/2+x,1/2+y,z
1/2-x,1/2-y,z
1/2-x,1/2+y,z
1/2+x,1/2-y,z
loop_
_atom_site_type_symbol
_atom_site_label
_atom_site_fract_x
_atom_site_fract_y
_atom_site_fract_z
Si Si1 0.678823 0.405601 0.898630
Si Si2 0.329168 0.799459 0.722443
Si Si3 0.824902 0.500000 0.633906
Si Si4 0.326406 0.301252 0.402226
Si Si5 0.320627 0.094013 0.738002
Si Si6 0.822893 0.500000 0.978637
O O1 0.500000 0.406225 0.903114
O O2 0.741217 0.351709 0.923424
O O3 0.733562 0.412556 0.814264
O O4 0.749608 0.450840 0.943663
O O5 0.500000 0.796358 0.699347
O O6 0.250000 0.750000 0.695996
O O7 0.322854 0.799798 0.812232
O O8 0.270747 0.853844 0.701909
O O9 0.800751 0.548146 0.684229
O O10 0.717791 0.500000 0.564443
O O11 0.000000 0.500000 0.609922
O O12 0.500000 0.303336 0.424007
O O13 0.250000 0.250000 0.427515
O O14 0.500000 0.098319 0.754437
O O15 0.000000 0.500000 0.965140
#
# Coordination Sequence:
#
# PCOD9369452 Si02
#       6
#    16  16   8  16  16   8
#     4  11  21  34  55  82 109 139 179 221 262 314
#     4   8  14  24  41  69 102 134 165 199 244 297
#     4  10  21  38  57  75  99 133 173 218 269 320
#     4   9  16  28  47  75 109 141 173 212 262 311
#     4   9  18  33  54  79 107 137 170 213 264 313
#     4  12  25  40  55  73 103 139 177 224 275 322
#
# _framework density 18.272365000000001
#
# number of rings (size 3 to 8) (size 9 to 14) (size 15 to 20)
#    0.000    2.400    0.000    5.100    0.000    6.400 
#    0.000    0.000    0.000    1.200    0.000    5.600 
#    0.000    0.000    0.000    0.000    0.000    0.000 
#
# Total GULP energy -111535.034294 kJ/mol
# GULP energy per Si atom -5576.751715 kJ/mol
# Density = 1.823078 g / cm^3
# Si number density = 18.272365 Si / 1000 Ang^3
#
#
#
# Elastic Constant Matrix: (Units=GPa)
#
#
# Indices 1 2 3 4 5 6 
#
# 1 136.3836 92.8275 37.8082 0.0000 0.0000 0.0000
# 2 92.8275 200.9308 45.7642 0.0000 0.0000 0.0000
# 3 37.8082 45.7642 26.6430 0.0000 0.0000 0.0000
# 4 0.0000 0.0000 0.0000 -8.2178 0.0000 0.0000
# 5 0.0000 0.0000 0.0000 0.0000 19.9208 0.0000
# 6 0.0000 0.0000 0.0000 0.0000 0.0000 32.6785
#
#
#
# Elastic Compliance Matrix: (Units=1/GPa)
#
#
# Indices 1 2 3 4 5 6 
#
# 1 0.013093 -0.002985 -0.013453 0.000000 0.000000 0.000000
# 2 -0.002985 0.008856 -0.010975 0.000000 0.000000 0.000000
# 3 -0.013453 -0.010975 0.075477 0.000000 0.000000 0.000000
# 4 0.000000 0.000000 0.000000 -0.121688 0.000000 0.000000
# 5 0.000000 0.000000 0.000000 0.000000 0.050199 0.000000
# 6 0.000000 0.000000 0.000000 0.000000 0.000000 0.030601
#
#
# Mechanical properties :
#
#
# Convention : Reuss Voigt Hill
#
# Bulk Modulus (GPa) = 23.47491 79.63971 51.55731
# Shear Modulus (GPa) = 39.81986 21.38012 30.59999
#
# Velocity S-wave (km/s) = 4.67330 3.42435 4.09670
# Velocity P-wave (km/s) = 6.48033 7.70158 7.11720
#
# Compressibility (1/GPa) = 0.04259867
#
# Stress axis : x y z
#
# Youngs Moduli (GPa) = 76.37445 112.92341 13.24905
#
# Poissons Ratio (x) = 0.33705 0.17825
# Poissons Ratio (y) = 0.22796 0.14541
# Poissons Ratio (z) = 1.02750 1.23938
#
# Static dielectric constant tensor:
#      x y z
#    x 1.621680 0.000000 0.000000 
#    y 0.000000 1.655360 0.000000 
#    z 0.000000 0.000000 1.597390 
# 
# From -- ./inp_files/18235.got.cif
#   From: 2010.05.17/outbox.cif.g08.bks.cpg/sg42_10_cif.got.tgz:18235.got - 2010.06.03 19:03:34.
