data_PCOD9369854
_publ_section_title
;
Structure prediction by ZEFSAII (Michael W. Deem and Ramdas Pophale) SiO2 
 PCOD9369854
Probable space group: F M M 2
;
_chemical_formula_sum "Si O2"
_cell_formula_units_Z 80
_cell_length_a 11.102957
_cell_length_b 15.897194
_cell_length_c 22.787698
_cell_angle_alpha 90.000000
_cell_angle_beta 90.000000
_cell_angle_gamma 90.000000
_cell_volume 4022.162265
_symmetry_space_group_name_H-M "F M M 2"
_symmetry_group_IT_number 42
_symmetry_cell_setting 'orthorhombic'
loop_
_space_group_symop_operation_xyz
x,y,z
-x,-y,z
-x,y,z
x,-y,z
x,1/2+y,1/2+z
-x,1/2-y,1/2+z
-x,1/2+y,1/2+z
x,1/2-y,1/2+z
1/2+x,y,1/2+z
1/2-x,-y,1/2+z
1/2-x,y,1/2+z
1/2+x,-y,1/2+z
1/2+x,1/2+y,z
1/2-x,1/2-y,z
1/2-x,1/2+y,z
1/2+x,1/2-y,z
loop_
_atom_site_type_symbol
_atom_site_label
_atom_site_fract_x
_atom_site_fract_y
_atom_site_fract_z
Si Si1 0.500000 0.822792 0.564930
Si Si2 0.362133 0.896535 0.937753
Si Si3 0.000000 0.638730 0.117821
Si Si4 0.299841 0.902509 0.342543
Si Si5 0.000000 0.406073 0.443034
Si Si6 0.500000 0.896565 0.253795
Si Si7 0.250332 0.597005 0.558477
O O1 0.500000 0.729817 0.588887
O O2 0.500000 0.839219 0.494740
O O3 0.370163 0.860970 0.583812
O O4 0.500000 0.873849 0.947893
O O5 0.317635 0.864972 0.873938
O O6 0.355617 0.000000 0.937085
O O7 0.286041 0.867332 0.994168
O O8 0.000000 0.634928 0.187883
O O9 0.126349 0.599983 0.095627
O O10 0.388489 0.902208 0.398805
O O11 0.380219 0.868301 0.289433
O O12 0.273177 0.000000 0.326952
O O13 0.000000 0.500000 0.469871
O O14 0.500000 0.000000 0.254954
O O15 0.219435 0.500000 0.550161
#
# Coordination Sequence:
#
# PCOD9369854 Si02
#       7
#     8  16   8  16   8   8  16
#     4  12  23  35  56  92 127 163 197 255 320 369
#     4   9  15  25  49  89 126 149 185 252 322 364
#     4  12  25  39  54  88 131 169 207 251 308 371
#     4   8  14  26  51  87 114 142 198 264 301 336
#     4   9  14  26  51  85 119 145 189 249 300 356
#     4   9  18  34  57  81 111 161 219 257 288 364
#     4  11  21  37  61  89 122 166 210 252 302 373
#
# _framework density 19.889797000000002
#
# number of rings (size 3 to 8) (size 9 to 14) (size 15 to 20)
#    0.000    2.200    3.000    3.600    0.000    0.000 
#    0.000    0.000    2.200    0.000   20.800    0.000 
#    0.000    0.000    0.000    0.400    0.000    0.000 
#
# Total GULP energy -111387.529283 kJ/mol
# GULP energy per Si atom -5569.376464 kJ/mol
# Density = 1.984453 g / cm^3
# Si number density = 19.889797 Si / 1000 Ang^3
#
#
#
# Elastic Constant Matrix: (Units=GPa)
#
#
# Indices 1 2 3 4 5 6 
#
# 1 121.4631 18.3119 24.5748 0.0000 0.0000 0.0000
# 2 18.3119 42.1073 16.6690 0.0000 0.0000 0.0000
# 3 24.5748 16.6690 111.9459 0.0000 0.0000 0.0000
# 4 0.0000 0.0000 0.0000 9.7761 0.0000 0.0000
# 5 0.0000 0.0000 0.0000 0.0000 26.6017 0.0000
# 6 0.0000 0.0000 0.0000 0.0000 0.0000 15.2798
#
#
#
# Elastic Compliance Matrix: (Units=1/GPa)
#
#
# Indices 1 2 3 4 5 6 
#
# 1 0.009037 -0.003342 -0.001486 0.000000 0.000000 0.000000
# 2 -0.003342 0.026472 -0.003208 0.000000 0.000000 0.000000
# 3 -0.001486 -0.003208 0.009737 0.000000 0.000000 0.000000
# 4 0.000000 0.000000 0.000000 0.102291 0.000000 0.000000
# 5 0.000000 0.000000 0.000000 0.000000 0.037592 0.000000
# 6 0.000000 0.000000 0.000000 0.000000 0.000000 0.065446
#
#
# Mechanical properties :
#
#
# Convention : Reuss Voigt Hill
#
# Bulk Modulus (GPa) = 34.27733 43.84754 39.06243
# Shear Modulus (GPa) = 18.09155 24.72889 21.41022
#
# Velocity S-wave (km/s) = 3.01921 3.52986 3.28448
# Velocity P-wave (km/s) = 5.42450 6.22144 5.83659
#
# Compressibility (1/GPa) = 0.02917380
#
# Stress axis : x y z
#
# Youngs Moduli (GPa) = 110.65009 37.77550 102.70233
#
# Poissons Ratio (x) = 0.12624 0.15265
# Poissons Ratio (y) = 0.36978 0.32948
# Poissons Ratio (z) = 0.16446 0.12119
#
# Static dielectric constant tensor:
#      x y z
#    x 1.852650 0.000000 0.000000 
#    y 0.000000 1.717360 0.000000 
#    z 0.000000 0.000000 1.675590 
# 
# From -- ./inp_files/28681.got.cif
#   From: 2010.05.17/outbox.cif.g08.bks.cpg/sg42_15_cif.got.tgz:28681.got - 2010.06.03 19:03:34.
