data_PCOD9369094
_publ_section_title
;
Structure prediction by ZEFSAII (Michael W. Deem and Ramdas Pophale) SiO2 
 PCOD9369094
Probable space group: F M M 2
;
_chemical_formula_sum "Si O2"
_cell_formula_units_Z 112
_cell_length_a 16.060718
_cell_length_b 24.828825
_cell_length_c 12.963472
_cell_angle_alpha 90.000000
_cell_angle_beta 90.000000
_cell_angle_gamma 90.000000
_cell_volume 5169.427611
_symmetry_space_group_name_H-M "F M M 2"
_symmetry_group_IT_number 42
_symmetry_cell_setting 'orthorhombic'
loop_
_space_group_symop_operation_xyz
x,y,z
-x,-y,z
-x,y,z
x,-y,z
x,1/2+y,1/2+z
-x,1/2-y,1/2+z
-x,1/2+y,1/2+z
x,1/2-y,1/2+z
1/2+x,y,1/2+z
1/2-x,-y,1/2+z
1/2-x,y,1/2+z
1/2+x,-y,1/2+z
1/2+x,1/2+y,z
1/2-x,1/2-y,z
1/2-x,1/2+y,z
1/2+x,1/2-y,z
loop_
_atom_site_type_symbol
_atom_site_label
_atom_site_fract_x
_atom_site_fract_y
_atom_site_fract_z
Si Si1 0.158478 0.275296 0.349570
Si Si2 0.000000 0.935951 0.622439
Si Si3 0.651801 0.938468 0.962644
Si Si4 0.095962 0.831365 0.050597
Si Si5 0.595962 0.831365 0.927665
Si Si6 0.841522 0.724704 0.128693
Si Si7 0.348199 0.061532 0.515618
Si Si8 0.500000 0.435951 0.855823
O O1 0.250000 0.250000 0.355620
O O2 0.142270 0.313442 0.445635
O O3 0.102667 0.221793 0.358547
O O4 0.146791 0.302291 0.239131
O O5 0.914402 0.926995 0.556387
O O6 0.000000 0.912044 0.739131
O O7 0.000000 0.000000 0.634876
O O8 0.633883 0.887480 0.888707
O O9 0.750000 0.936750 0.989131
O O10 0.634145 0.000000 0.927070
O O11 0.133883 0.887480 0.089556
O O12 0.000000 0.839579 0.027207
O O13 0.102667 0.778207 0.119715
O O14 0.500000 0.839579 0.951056
O O15 0.642270 0.813442 0.032628
O O16 0.750000 0.750000 0.122643
O O17 0.414402 0.073005 0.421875
O O18 0.365855 0.000000 0.551193
O O19 0.500000 0.500000 0.843387
#
# Coordination Sequence:
#
# PCOD9369094 Si02
#       8
#    16   8  16  16  16  16  16   8
#     4  10  21  37  57  81 111 148 193 242 292 351
#     4   9  18  34  56  85 117 149 195 251 297 344
#     4  10  20  36  58  85 118 157 195 238 298 362
#     4  11  21  35  57  83 115 152 191 241 291 353
#     4  11  21  35  57  83 115 152 191 241 291 353
#     4  10  21  37  57  81 111 148 193 242 292 351
#     4  10  20  36  58  85 118 157 195 238 298 362
#     4   9  18  34  56  85 117 149 195 251 297 344
#
# _framework density 21.665841
#
# number of rings (size 3 to 8) (size 9 to 14) (size 15 to 20)
#    0.000    1.857    1.429    5.143    0.000    3.429 
#    0.000    1.429    0.000    2.571    0.000    2.000 
#    0.000    0.000    0.000    0.000    0.000    0.000 
#
# Total GULP energy -155989.838370 kJ/mol
# GULP energy per Si atom -5571.065656 kJ/mol
# Density = 2.161653 g / cm^3
# Si number density = 21.665841 Si / 1000 Ang^3
#
#
#
# Elastic Constant Matrix: (Units=GPa)
#
#
# Indices 1 2 3 4 5 6 
#
# 1 123.5542 18.2954 15.4357 0.0000 0.0000 0.0000
# 2 18.2954 116.9843 -8.5733 0.0000 0.0000 0.0000
# 3 15.4357 -8.5733 52.6216 0.0000 0.0000 0.0000
# 4 0.0000 0.0000 0.0000 -3.8132 0.0000 0.0000
# 5 0.0000 0.0000 0.0000 0.0000 14.7990 0.0000
# 6 0.0000 0.0000 0.0000 0.0000 0.0000 39.7620
#
#
#
# Elastic Compliance Matrix: (Units=1/GPa)
#
#
# Indices 1 2 3 4 5 6 
#
# 1 0.008675 -0.001562 -0.002799 0.000000 0.000000 0.000000
# 2 -0.001562 0.008933 0.001913 0.000000 0.000000 0.000000
# 3 -0.002799 0.001913 0.020136 0.000000 0.000000 0.000000
# 4 0.000000 0.000000 0.000000 -0.262245 0.000000 0.000000
# 5 0.000000 0.000000 0.000000 0.000000 0.067572 0.000000
# 6 0.000000 0.000000 0.000000 0.000000 0.000000 0.025150
#
#
# Mechanical properties :
#
#
# Convention : Reuss Voigt Hill
#
# Bulk Modulus (GPa) = 30.44233 38.16397 34.30315
# Shear Modulus (GPa) = -43.12757 28.01637 -7.55560
#
# Velocity S-wave (km/s) = -4.46643 3.59989 -1.86947
# Velocity P-wave (km/s) = 3.53798 5.91033 3.34773
#
# Compressibility (1/GPa) = 0.03284900
#
# Stress axis : x y z
#
# Youngs Moduli (GPa) = 115.27974 111.94915 49.66129
#
# Poissons Ratio (x) = 0.17484 0.13900
# Poissons Ratio (y) = 0.18004 -0.09502
# Poissons Ratio (z) = 0.32267 -0.21421
#
# Static dielectric constant tensor:
#      x y z
#    x 1.815650 0.000000 0.000000 
#    y 0.000000 1.870310 0.000000 
#    z 0.000000 0.000000 1.824770 
# 
# From -- ./inp_files/14456.got.cif
#   From: 2010.05.17/outbox.cif.g08.bks.cpg/sg42_8_cif.got.tgz:14456.got - 2010.06.03 19:03:34.
