data_PCOD9369769
_publ_section_title
;
Structure prediction by ZEFSAII (Michael W. Deem and Ramdas Pophale) SiO2 
 PCOD9369769
Probable space group: F M M 2
;
_chemical_formula_sum "Si O2"
_cell_formula_units_Z 96
_cell_length_a 25.198378
_cell_length_b 20.811067
_cell_length_c 9.194068
_cell_angle_alpha 90.000000
_cell_angle_beta 90.000000
_cell_angle_gamma 90.000000
_cell_volume 4821.416451
_symmetry_space_group_name_H-M "F M M 2"
_symmetry_group_IT_number 42
_symmetry_cell_setting 'orthorhombic'
loop_
_space_group_symop_operation_xyz
x,y,z
-x,-y,z
-x,y,z
x,-y,z
x,1/2+y,1/2+z
-x,1/2-y,1/2+z
-x,1/2+y,1/2+z
x,1/2-y,1/2+z
1/2+x,y,1/2+z
1/2-x,-y,1/2+z
1/2-x,y,1/2+z
1/2+x,-y,1/2+z
1/2+x,1/2+y,z
1/2-x,1/2-y,z
1/2-x,1/2+y,z
1/2+x,1/2-y,z
loop_
_atom_site_type_symbol
_atom_site_label
_atom_site_fract_x
_atom_site_fract_y
_atom_site_fract_z
Si Si1 0.238048 0.390346 0.893350
Si Si2 0.360203 0.572857 0.926760
Si Si3 0.898925 0.194778 0.747815
Si Si4 0.871094 0.428280 0.769674
Si Si5 0.561220 0.817354 0.924391
Si Si6 0.282138 0.693574 0.654205
O O1 0.296166 0.421475 0.907991
O O2 0.190654 0.427675 0.816646
O O3 0.249139 0.328329 0.793751
O O4 0.216709 0.367632 0.049139
O O5 0.375856 0.500000 0.887600
O O6 0.388478 0.627688 0.831652
O O7 0.372819 0.583900 0.096706
O O8 0.930872 0.186104 0.598307
O O9 0.922766 0.249207 0.852012
O O10 0.840164 0.216021 0.697090
O O11 0.892587 0.500000 0.798468
O O12 0.901688 0.372803 0.856322
O O13 0.500000 0.830818 0.890104
O O14 0.250000 0.750000 0.579081
#
# Coordination Sequence:
#
# PCOD9369769 Si02
#       6
#    16  16  16  16  16  16
#     4  11  20  37  57  94 133 177 210 254 310 384
#     4  10  23  42  65  97 137 178 213 254 320 397
#     4  11  25  42  67  97 130 168 216 270 328 388
#     4  11  23  42  65  94 133 173 218 266 321 388
#     4  12  26  46  69  95 125 166 223 283 340 384
#     4  11  22  33  58  92 137 170 211 251 312 387
#
# _framework density 19.911161
#
# number of rings (size 3 to 8) (size 9 to 14) (size 15 to 20)
#    0.000    1.000    3.333    3.500    4.667    1.000 
#    0.000    0.833    0.000    3.500    0.000    0.000 
#    0.000    0.000    0.000    0.000    0.000    0.000 
#
# Total GULP energy -134090.839166 kJ/mol
# GULP energy per Si atom -5587.118299 kJ/mol
# Density = 1.986584 g / cm^3
# Si number density = 19.911161 Si / 1000 Ang^3
#
#
#
# Elastic Constant Matrix: (Units=GPa)
#
#
# Indices 1 2 3 4 5 6 
#
# 1 77.1248 39.7068 23.1447 0.0001 0.0000 0.0000
# 2 39.7068 115.9511 55.2595 0.0003 0.0001 0.0000
# 3 23.1447 55.2595 107.1149 0.0007 0.0002 -0.0001
# 4 0.0001 0.0003 0.0007 22.8439 0.0001 -0.0001
# 5 0.0000 0.0001 0.0002 0.0001 14.8688 0.0000
# 6 0.0000 0.0000 -0.0001 -0.0001 0.0000 7.6884
#
#
#
# Elastic Compliance Matrix: (Units=1/GPa)
#
#
# Indices 1 2 3 4 5 6 
#
# 1 0.015796 -0.005016 -0.000825 0.000000 0.000000 0.000000
# 2 -0.005016 0.013029 -0.005638 0.000000 0.000000 0.000000
# 3 -0.000825 -0.005638 0.012423 0.000000 0.000000 0.000000
# 4 0.000000 0.000000 0.000000 0.043775 0.000000 0.000000
# 5 0.000000 0.000000 0.000000 0.000000 0.067255 0.000000
# 6 0.000000 0.000000 0.000000 0.000000 0.000000 0.130066
#
#
# Mechanical properties :
#
#
# Convention : Reuss Voigt Hill
#
# Bulk Modulus (GPa) = 54.67640 59.60143 57.13892
# Shear Modulus (GPa) = 16.05664 21.21888 18.63776
#
# Velocity S-wave (km/s) = 2.84282 3.26801 3.06281
# Velocity P-wave (km/s) = 6.18832 6.65121 6.42393
#
# Compressibility (1/GPa) = 0.01828943
#
# Stress axis : x y z
#
# Youngs Moduli (GPa) = 63.30686 76.75353 80.49906
#
# Poissons Ratio (x) = 0.38499 0.06645
# Poissons Ratio (y) = 0.31754 0.45382
# Poissons Ratio (z) = 0.05226 0.43270
#
# Static dielectric constant tensor:
#      x y z
#    x 1.671430 0.000000 0.000000 
#    y 0.000000 1.725320 0.000000 
#    z 0.000000 0.000000 1.706450 
# 
# From -- ./inp_files/4153.got.cif
#   From: 2010.05.17/outbox.cif.g08.bks.cpg/sg42_3_cif.got.tgz:4153.got - 2010.06.03 19:03:34.
