data_PCOD9369998
_publ_section_title
;
Structure prediction by ZEFSAII (Michael W. Deem and Ramdas Pophale) SiO2 
 PCOD9369998
Probable space group: F M M 2
;
_chemical_formula_sum "Si O2"
_cell_formula_units_Z 32
_cell_length_a 24.000000
_cell_length_b 24.000000
_cell_length_c 12.000000
_cell_angle_alpha 90.000000
_cell_angle_beta 90.000000
_cell_angle_gamma 90.000000
_cell_volume 6912.000000
_symmetry_space_group_name_H-M "F M M 2"
_symmetry_group_IT_number 42
_symmetry_cell_setting 'orthorhombic'
loop_
_space_group_symop_operation_xyz
x,y,z
-x,-y,z
-x,y,z
x,-y,z
x,1/2+y,1/2+z
-x,1/2-y,1/2+z
-x,1/2+y,1/2+z
x,1/2-y,1/2+z
1/2+x,y,1/2+z
1/2-x,-y,1/2+z
1/2-x,y,1/2+z
1/2+x,-y,1/2+z
1/2+x,1/2+y,z
1/2-x,1/2-y,z
1/2-x,1/2+y,z
1/2+x,1/2-y,z
loop_
_atom_site_type_symbol
_atom_site_label
_atom_site_fract_x
_atom_site_fract_y
_atom_site_fract_z
Si Si1 0.564139 0.664772 0.788610
Si Si2 0.061313 0.269486 0.630880
Si Si3 0.651393 0.560759 0.420275
Si Si4 0.274611 0.844107 0.575110
Si Si5 0.782101 0.062760 0.888469
Si Si6 0.336988 0.109097 0.160545
Si Si7 0.859110 0.165793 0.276308
Si Si8 0.355246 0.730999 0.942067
O O1 0.500000 0.645082 0.813729
O O2 0.556826 0.722836 0.724729
O O3 0.602793 0.628906 0.705053
O O4 0.606724 0.680991 0.888898
O O5 0.089647 0.320882 0.694018
O O6 0.103890 0.247326 0.538547
O O7 0.000000 0.281095 0.584095
O O8 0.626496 0.500000 0.394994
O O9 0.715304 0.560376 0.378144
O O10 0.653560 0.569708 0.553697
O O11 0.627312 0.614561 0.357627
O O12 0.289169 0.896846 0.495371
O O13 0.209043 0.846811 0.609417
O O14 0.308287 0.845006 0.691173
O O15 0.299988 0.793627 0.500744
O O16 0.807894 0.083792 0.771614
O O17 0.802617 0.000000 0.911064
O O18 0.845479 0.220647 0.351344
#
# Coordination Sequence:
#
# PCOD9369998 Si02
#       8
#    16  16  16  16  16  16  16  16
#     4  10  20  35  57  83 114 156 199 240 282 340
#     4   9  19  35  56  83 115 154 201 243 287 353
#     4  10  21  36  57  84 116 155 198 249 301 363
#     4  10  21  37  57  86 122 154 195 245 314 364
#     4  10  20  36  60  85 114 156 204 249 297 362
#     4  11  20  37  58  86 119 157 198 248 298 365
#     4  10  20  36  57  87 120 155 195 245 306 367
#     4  10  19  36  58  86 119 159 196 242 302 361
#
# _framework density 4.6296299999999997
#
# number of rings (size 3 to 8) (size 9 to 14) (size 15 to 20)
#    0.000    2.000    2.500    1.500    0.000    1.500 
#    0.000   22.500    0.000    2.625    0.000    0.000 
#    0.000    0.000    0.000    0.000    0.000    0.000 
#
# Total GULP energy -178210.611467 kJ/mol
# GULP energy per Si atom -5569.081608 kJ/mol
# Density = 0.461909 g / cm^3
# Si number density = 4.629630 Si / 1000 Ang^3
#
#
#
# Elastic Constant Matrix: (Units=GPa)
#
#
# Indices 1 2 3 4 5 6 
#
# 1 81.1800 27.5381 16.0562 0.0000 0.0000 0.0000
# 2 27.5381 63.8523 25.8465 0.0000 0.0000 0.0000
# 3 16.0562 25.8465 90.3900 0.0000 0.0000 0.0000
# 4 0.0000 0.0000 0.0000 19.6658 0.0000 0.0000
# 5 0.0000 0.0000 0.0000 0.0000 19.2044 0.0000
# 6 0.0000 0.0000 0.0000 0.0000 0.0000 9.3982
#
#
#
# Elastic Compliance Matrix: (Units=1/GPa)
#
#
# Indices 1 2 3 4 5 6 
#
# 1 0.014492 -0.005890 -0.000890 0.000000 0.000000 0.000000
# 2 -0.005890 0.020105 -0.004703 0.000000 0.000000 0.000000
# 3 -0.000890 -0.004703 0.012566 0.000000 0.000000 0.000000
# 4 0.000000 0.000000 0.000000 0.050850 0.000000 0.000000
# 5 0.000000 0.000000 0.000000 0.000000 0.052071 0.000000
# 6 0.000000 0.000000 0.000000 0.000000 0.000000 0.106404
#
#
# Mechanical properties :
#
#
# Convention : Reuss Voigt Hill
#
# Bulk Modulus (GPa) = 41.32597 41.58932 41.45764
# Shear Modulus (GPa) = 17.39013 20.71909 19.05461
#
# Velocity S-wave (km/s) = 3.06774 3.34852 3.21120
# Velocity P-wave (km/s) = 5.90868 6.12022 6.01538
#
# Compressibility (1/GPa) = 0.02419786
#
# Stress axis : x y z
#
# Youngs Moduli (GPa) = 69.00183 49.73910 79.57995
#
# Poissons Ratio (x) = 0.29296 0.07084
# Poissons Ratio (y) = 0.40642 0.37423
# Poissons Ratio (z) = 0.06142 0.23390
#
# Static dielectric constant tensor:
#      x y z
#    x 1.678040 0.000000 0.000000 
#    y 0.000000 1.696860 0.000000 
#    z 0.000000 0.000000 1.652820 
# 
# From -- ./inp_files/10343.got.cif
#   From: 2010.05.17/outbox.ucp.g08.bks.cvg/sg42_6_cif.got.tgz:10343.got - 2010.06.11 16:29:10.
