data_PCOD9369604
_publ_section_title
;
Structure prediction by ZEFSAII (Michael W. Deem and Ramdas Pophale) SiO2 
 PCOD9369604
Probable space group: F M M 2
;
_chemical_formula_sum "Si O2"
_cell_formula_units_Z 60
_cell_length_a 9.757176
_cell_length_b 14.481618
_cell_length_c 20.749679
_cell_angle_alpha 90.000000
_cell_angle_beta 90.000000
_cell_angle_gamma 90.000000
_cell_volume 2931.923326
_symmetry_space_group_name_H-M "F M M 2"
_symmetry_group_IT_number 42
_symmetry_cell_setting 'orthorhombic'
loop_
_space_group_symop_operation_xyz
x,y,z
-x,-y,z
-x,y,z
x,-y,z
x,1/2+y,1/2+z
-x,1/2-y,1/2+z
-x,1/2+y,1/2+z
x,1/2-y,1/2+z
1/2+x,y,1/2+z
1/2-x,-y,1/2+z
1/2-x,y,1/2+z
1/2+x,-y,1/2+z
1/2+x,1/2+y,z
1/2-x,1/2-y,z
1/2-x,1/2+y,z
1/2+x,1/2-y,z
loop_
_atom_site_type_symbol
_atom_site_label
_atom_site_fract_x
_atom_site_fract_y
_atom_site_fract_z
Si Si1 0.761435 0.397520 0.516090
Si Si2 0.336149 0.341478 0.656672
Si Si3 0.000000 0.000000 0.868824
Si Si4 0.341489 0.000000 0.246486
Si Si5 0.500000 0.602590 0.423120
Si Si6 0.000000 0.692152 0.446012
O O1 0.827325 0.500000 0.513711
O O2 0.701650 0.383153 0.587131
O O3 0.635292 0.399442 0.466950
O O4 0.869221 0.320594 0.492952
O O5 0.500000 0.325309 0.660090
O O6 0.250000 0.250000 0.662827
O O7 0.285448 0.409085 0.713647
O O8 0.135166 0.000000 0.822536
O O9 0.000000 0.098282 0.903879
O O10 0.500000 0.000000 0.222111
O O11 0.500000 0.500000 0.387735
O O12 0.500000 0.713179 0.403835
#
# Coordination Sequence:
#
# PCOD9369604 Si02
#       6
#    16  16   4   8   8   8
#     4  11  21  36  58  93 132 162 200 252 320 382
#     4  11  21  37  62  95 125 162 202 256 318 377
#     4  10  22  42  70  84 118 174 226 260 306 364
#     4   8  20  41  64  83 112 165 218 246 307 377
#     4  10  22  35  58  86 132 168 195 246 320 389
#     4  12  22  40  59  97 127 163 216 259 304 375
#
# _framework density 20.464382000000001
#
# number of rings (size 3 to 8) (size 9 to 14) (size 15 to 20)
#    0.400    1.067    4.000    2.400    1.867    0.000 
#    0.000    3.333    0.000    0.000    0.000    0.000 
#    0.000    0.000    0.000    0.000    0.000    0.000 
#
# Total GULP energy -83535.782007 kJ/mol
# GULP energy per Si atom -5569.052134 kJ/mol
# Density = 2.041780 g / cm^3
# Si number density = 20.464382 Si / 1000 Ang^3
#
#
#
# Elastic Constant Matrix: (Units=GPa)
#
#
# Indices 1 2 3 4 5 6 
#
# 1 84.8202 21.0347 2.6229 0.0000 0.0000 0.0000
# 2 21.0347 171.4917 28.2283 0.0000 0.0000 0.0000
# 3 2.6229 28.2283 50.6772 0.0000 0.0000 0.0000
# 4 0.0000 0.0000 0.0000 12.0815 0.0000 0.0000
# 5 0.0000 0.0000 0.0000 0.0000 79.8541 0.0000
# 6 0.0000 0.0000 0.0000 0.0000 0.0000 18.8046
#
#
#
# Elastic Compliance Matrix: (Units=1/GPa)
#
#
# Indices 1 2 3 4 5 6 
#
# 1 0.012162 -0.001528 0.000222 0.000000 0.000000 0.000000
# 2 -0.001528 0.006612 -0.003604 0.000000 0.000000 0.000000
# 3 0.000222 -0.003604 0.021729 0.000000 0.000000 0.000000
# 4 0.000000 0.000000 0.000000 0.082771 0.000000 0.000000
# 5 0.000000 0.000000 0.000000 0.000000 0.012523 0.000000
# 6 0.000000 0.000000 0.000000 0.000000 0.000000 0.053178
#
#
# Mechanical properties :
#
#
# Convention : Reuss Voigt Hill
#
# Bulk Modulus (GPa) = 32.59269 45.64011 39.11640
# Shear Modulus (GPa) = 23.92085 39.15492 31.53788
#
# Velocity S-wave (km/s) = 3.42263 4.37890 3.92996
# Velocity P-wave (km/s) = 5.61964 6.92221 6.30465
#
# Compressibility (1/GPa) = 0.03068173
#
# Stress axis : x y z
#
# Youngs Moduli (GPa) = 82.22485 151.24372 46.02216
#
# Poissons Ratio (x) = 0.23114 -0.01021
# Poissons Ratio (y) = 0.12566 0.16586
# Poissons Ratio (z) = -0.01824 0.54506
#
# Static dielectric constant tensor:
#      x y z
#    x 1.729330 0.000000 0.000000 
#    y 0.000000 1.832420 0.000000 
#    z 0.000000 0.000000 1.718020 
# 
# From -- ./inp_files/24142.got.cif
#   From: 2010.05.17/outbox.cif.g08.bks.cpg/sg42_13_cif.got.tgz:24142.got - 2010.06.03 19:03:34.
