data_PCOD9369587
_publ_section_title
;
Structure prediction by ZEFSAII (Michael W. Deem and Ramdas Pophale) SiO2 
 PCOD9369587
Probable space group: F M M 2
;
_chemical_formula_sum "Si O2"
_cell_formula_units_Z 80
_cell_length_a 24.378239
_cell_length_b 16.926782
_cell_length_c 7.214464
_cell_angle_alpha 90.000000
_cell_angle_beta 90.000000
_cell_angle_gamma 90.000000
_cell_volume 2977.013486
_symmetry_space_group_name_H-M "F M M 2"
_symmetry_group_IT_number 42
_symmetry_cell_setting 'orthorhombic'
loop_
_space_group_symop_operation_xyz
x,y,z
-x,-y,z
-x,y,z
x,-y,z
x,1/2+y,1/2+z
-x,1/2-y,1/2+z
-x,1/2+y,1/2+z
x,1/2-y,1/2+z
1/2+x,y,1/2+z
1/2-x,-y,1/2+z
1/2-x,y,1/2+z
1/2+x,-y,1/2+z
1/2+x,1/2+y,z
1/2-x,1/2-y,z
1/2-x,1/2+y,z
1/2+x,1/2-y,z
loop_
_atom_site_type_symbol
_atom_site_label
_atom_site_fract_x
_atom_site_fract_y
_atom_site_fract_z
Si Si1 0.208493 0.176129 0.674140
Si Si2 0.874061 0.226205 0.932264
Si Si3 0.259018 0.000000 0.043452
Si Si4 0.847848 0.000000 0.210351
Si Si5 0.936524 0.413428 0.284525
Si Si6 0.935377 0.626132 0.842559
O O1 0.250000 0.250000 0.672124
O O2 0.156382 0.207442 0.556673
O O3 0.226976 0.087828 0.627873
O O4 0.181504 0.179298 0.874994
O O5 0.913982 0.151648 0.923747
O O6 0.912337 0.285719 0.808670
O O7 0.192616 0.000000 0.033505
O O8 0.299466 0.000000 0.866394
O O9 0.889327 0.928645 0.250178
O O10 0.910628 0.500000 0.306953
O O11 0.000000 0.419649 0.327045
O O12 0.933916 0.391967 0.065223
O O13 0.000000 0.616184 0.790423
#
# Coordination Sequence:
#
# PCOD9369587 Si02
#       6
#    16  16   8   8  16  16
#     4  12  28  48  70 108 145 200 249 318 370 454
#     4  12  23  43  71 102 149 182 254 300 372 441
#     4  12  28  50  78 102 156 202 258 304 390 444
#     4  12  23  46  74 116 137 202 250 304 364 450
#     4  10  21  41  71 104 142 192 242 296 371 461
#     4  11  22  43  75 110 150 194 246 304 377 457
#
# _framework density 26.87257
#
# number of rings (size 3 to 8) (size 9 to 14) (size 15 to 20)
#    0.000    0.600    5.000    2.700    4.200    0.000 
#    1.800    0.000    0.000    0.000    0.000    1.400 
#    0.000    0.000    0.000    0.000    0.000    0.000 
#
# Total GULP energy -111485.630422 kJ/mol
# GULP energy per Si atom -5574.281521 kJ/mol
# Density = 2.681141 g / cm^3
# Si number density = 26.872570 Si / 1000 Ang^3
#
#
#
# Elastic Constant Matrix: (Units=GPa)
#
#
# Indices 1 2 3 4 5 6 
#
# 1 240.4652 110.3735 45.0571 0.0000 0.0000 0.0000
# 2 110.3735 253.2120 49.1222 0.0000 0.0000 0.0000
# 3 45.0571 49.1222 32.5825 -0.0001 0.0000 0.0000
# 4 0.0000 0.0000 -0.0001 -16.2812 0.0000 0.0000
# 5 0.0000 0.0000 0.0000 0.0000 43.6837 0.0000
# 6 0.0000 0.0000 0.0000 0.0000 0.0000 56.4240
#
#
#
# Elastic Compliance Matrix: (Units=1/GPa)
#
#
# Indices 1 2 3 4 5 6 
#
# 1 0.005949 -0.001409 -0.006102 0.000000 0.000000 0.000000
# 2 -0.001409 0.005916 -0.006970 0.000000 0.000000 0.000000
# 3 -0.006102 -0.006970 0.049637 0.000000 0.000000 0.000000
# 4 0.000000 0.000000 0.000000 -0.061420 0.000000 0.000000
# 5 0.000000 0.000000 0.000000 0.000000 0.022892 0.000000
# 6 0.000000 0.000000 0.000000 0.000000 0.000000 0.017723
#
#
# Mechanical properties :
#
#
# Convention : Reuss Voigt Hill
#
# Bulk Modulus (GPa) = 30.73154 103.92949 67.33051
# Shear Modulus (GPa) = 62.10929 38.21242 50.16085
#
# Velocity S-wave (km/s) = 4.81276 3.77501 4.32513
# Velocity P-wave (km/s) = 6.50726 7.59999 7.07475
#
# Compressibility (1/GPa) = 0.03253986
#
# Stress axis : x y z
#
# Youngs Moduli (GPa) = 168.10179 169.04214 20.14641
#
# Poissons Ratio (x) = 0.23824 0.12292
# Poissons Ratio (y) = 0.23691 0.14041
# Poissons Ratio (z) = 1.02568 1.17817
#
# Static dielectric constant tensor:
#      x y z
#    x 2.056390 0.000000 0.000000 
#    y 0.000000 2.297060 0.000000 
#    z 0.000000 0.000000 2.652650 
# 
# From -- ./inp_files/5129.got.cif
#   From: 2010.05.17/outbox.cif.g08.bks.cpg/sg42_3_cif.got.tgz:5129.got - 2010.06.03 19:03:34.
