data_PCOD9369443
_publ_section_title
;
Structure prediction by ZEFSAII (Michael W. Deem and Ramdas Pophale) SiO2 
 PCOD9369443
Probable space group: F M M 2
;
_chemical_formula_sum "Si O2"
_cell_formula_units_Z 116
_cell_length_a 15.652496
_cell_length_b 17.549327
_cell_length_c 23.237995
_cell_angle_alpha 90.000000
_cell_angle_beta 90.000000
_cell_angle_gamma 90.000000
_cell_volume 6383.262755
_symmetry_space_group_name_H-M "F M M 2"
_symmetry_group_IT_number 42
_symmetry_cell_setting 'orthorhombic'
loop_
_space_group_symop_operation_xyz
x,y,z
-x,-y,z
-x,y,z
x,-y,z
x,1/2+y,1/2+z
-x,1/2-y,1/2+z
-x,1/2+y,1/2+z
x,1/2-y,1/2+z
1/2+x,y,1/2+z
1/2-x,-y,1/2+z
1/2-x,y,1/2+z
1/2+x,-y,1/2+z
1/2+x,1/2+y,z
1/2-x,1/2-y,z
1/2-x,1/2+y,z
1/2+x,1/2-y,z
loop_
_atom_site_type_symbol
_atom_site_label
_atom_site_fract_x
_atom_site_fract_y
_atom_site_fract_z
Si Si1 0.500000 0.500000 0.197361
Si Si2 0.837184 0.113612 0.195055
Si Si3 0.178787 0.913085 0.627766
Si Si4 0.272395 0.584543 0.320139
Si Si5 0.400449 0.684770 0.391669
Si Si6 0.601003 0.912103 0.004276
Si Si7 0.400794 0.717001 0.707702
Si Si8 0.096877 0.343243 0.338293
O O1 0.424376 0.566363 0.197732
O O2 0.779443 0.092522 0.140474
O O3 0.782022 0.092094 0.251572
O O4 0.853326 0.203762 0.196824
O O5 0.153912 0.897575 0.561947
O O6 0.135319 0.851380 0.669191
O O7 0.150346 0.000000 0.640706
O O8 0.300466 0.500000 0.337014
O O9 0.336264 0.645324 0.347553
O O10 0.175877 0.599599 0.340303
O O11 0.500000 0.666741 0.377312
O O12 0.382141 0.647809 0.453580
O O13 0.391786 0.775424 0.384599
O O14 0.500000 0.907203 0.018383
O O15 0.617032 0.000000 0.985251
O O16 0.500000 0.727755 0.693434
O O17 0.395929 0.695636 0.775162
O O18 0.000000 0.374073 0.343364
#
# Coordination Sequence:
#
# PCOD9369443 Si02
#       8
#     4  16  16  16  16  16  16  16
#     4  12  24  40  60  84 128 168 208 264 320 374
#     4  12  23  38  56  88 124 164 207 255 311 373
#     4  11  22  38  61  90 123 162 203 260 308 374
#     4  12  23  35  57  87 122 159 204 252 303 368
#     4  10  21  37  62  91 119 153 198 253 316 365
#     4   9  19  38  61  90 125 159 201 260 315 362
#     4  11  22  36  57  83 122 164 204 248 308 366
#     4  10  22  38  56  82 120 164 200 250 302 366
#
# _framework density 18.172523999999999
#
# number of rings (size 3 to 8) (size 9 to 14) (size 15 to 20)
#    0.000    1.241    4.828    1.655    0.966    1.931 
#    0.000    4.138    0.000    0.000    1.793    0.000 
#    0.000    0.000    0.000    0.000    0.000    0.000 
#
# Total GULP energy -161632.762187 kJ/mol
# GULP energy per Si atom -5573.543524 kJ/mol
# Density = 1.813116 g / cm^3
# Si number density = 18.172524 Si / 1000 Ang^3
#
#
#
# Elastic Constant Matrix: (Units=GPa)
#
#
# Indices 1 2 3 4 5 6 
#
# 1 63.5619 9.2693 25.7845 0.0000 0.0000 0.0000
# 2 9.2693 58.8895 11.1661 0.0000 0.0000 0.0000
# 3 25.7845 11.1661 64.1354 0.0000 0.0000 0.0000
# 4 0.0000 0.0000 0.0000 27.0423 0.0000 0.0000
# 5 0.0000 0.0000 0.0000 0.0000 25.0029 0.0000
# 6 0.0000 0.0000 0.0000 0.0000 0.0000 34.1008
#
#
#
# Elastic Compliance Matrix: (Units=1/GPa)
#
#
# Indices 1 2 3 4 5 6 
#
# 1 0.018941 -0.001590 -0.007338 0.000000 0.000000 0.000000
# 2 -0.001590 0.017694 -0.002441 0.000000 0.000000 0.000000
# 3 -0.007338 -0.002441 0.018967 0.000000 0.000000 0.000000
# 4 0.000000 0.000000 0.000000 0.036979 0.000000 0.000000
# 5 0.000000 0.000000 0.000000 0.000000 0.039995 0.000000
# 6 0.000000 0.000000 0.000000 0.000000 0.000000 0.029325
#
#
# Mechanical properties :
#
#
# Convention : Reuss Voigt Hill
#
# Bulk Modulus (GPa) = 30.42877 31.00295 30.71586
# Shear Modulus (GPa) = 25.56292 26.58699 26.07495
#
# Velocity S-wave (km/s) = 3.75464 3.82911 3.79206
# Velocity P-wave (km/s) = 5.96466 6.05366 6.00933
#
# Compressibility (1/GPa) = 0.03286363
#
# Stress axis : x y z
#
# Youngs Moduli (GPa) = 52.79440 56.51588 52.72244
#
# Poissons Ratio (x) = 0.08986 0.38689
# Poissons Ratio (y) = 0.08394 0.12871
# Poissons Ratio (z) = 0.38742 0.13797
#
# Static dielectric constant tensor:
#      x y z
#    x 1.636300 0.000000 0.000000 
#    y 0.000000 1.622470 0.000000 
#    z 0.000000 0.000000 1.604730 
# 
# From -- ./inp_files/29622.got.cif
#   From: 2010.05.17/outbox.cif.g08.bks.cpg/sg42_15_cif.got.tgz:29622.got - 2010.06.03 19:03:34.
