data_PCOD9369564
_publ_section_title
;
Structure prediction by ZEFSAII (Michael W. Deem and Ramdas Pophale) SiO2 
 PCOD9369564
Probable space group: F M M 2
;
_chemical_formula_sum "Si O2"
_cell_formula_units_Z 88
_cell_length_a 31.096414
_cell_length_b 16.906189
_cell_length_c 8.955826
_cell_angle_alpha 90.000000
_cell_angle_beta 90.000000
_cell_angle_gamma 90.000000
_cell_volume 4708.273434
_symmetry_space_group_name_H-M "F M M 2"
_symmetry_group_IT_number 42
_symmetry_cell_setting 'orthorhombic'
loop_
_space_group_symop_operation_xyz
x,y,z
-x,-y,z
-x,y,z
x,-y,z
x,1/2+y,1/2+z
-x,1/2-y,1/2+z
-x,1/2+y,1/2+z
x,1/2-y,1/2+z
1/2+x,y,1/2+z
1/2-x,-y,1/2+z
1/2-x,y,1/2+z
1/2+x,-y,1/2+z
1/2+x,1/2+y,z
1/2-x,1/2-y,z
1/2-x,1/2+y,z
1/2+x,1/2-y,z
loop_
_atom_site_type_symbol
_atom_site_label
_atom_site_fract_x
_atom_site_fract_y
_atom_site_fract_z
Si Si1 0.219946 0.905389 0.076800
Si Si2 0.879441 0.500000 0.935614
Si Si3 0.852101 0.194381 0.942100
Si Si4 0.549366 0.139762 0.935678
Si Si5 0.306320 0.363312 0.410740
Si Si6 0.412946 0.756679 0.191990
O O1 0.209833 0.871947 0.240563
O O2 0.219952 0.000000 0.083149
O O3 0.182070 0.874371 0.968675
O O4 0.265564 0.875690 0.017269
O O5 0.916950 0.431043 0.928698
O O6 0.841859 0.430394 0.937495
O O7 0.826854 0.277425 0.934115
O O8 0.880767 0.190752 0.793394
O O9 0.883995 0.202198 0.083160
O O10 0.500000 0.114480 0.926853
O O11 0.560527 0.201048 0.802761
O O12 0.558295 0.188099 0.088098
#
# Coordination Sequence:
#
# PCOD9369564 Si02
#       6
#    16   8  16  16  16  16
#     4  12  25  40  62  94 126 170 219 267 300 359
#     4  12  21  42  64  88 128 166 208 264 311 380
#     4  11  22  42  63  93 125 175 207 254 311 382
#     4  11  23  41  68  96 121 159 209 265 325 383
#     4  12  25  42  62  89 133 170 220 256 313 367
#     4  10  21  40  66  90 125 160 206 250 317 376
#
# _framework density 18.690503
#
# number of rings (size 3 to 8) (size 9 to 14) (size 15 to 20)
#    0.000    0.727    7.273    1.364    2.545    1.455 
#    4.909    0.000    0.000    0.000    0.000    6.364 
#    0.000    0.000    0.000    0.000    0.000    0.000 
#
# Total GULP energy -122485.512069 kJ/mol
# GULP energy per Si atom -5567.523276 kJ/mol
# Density = 1.864796 g / cm^3
# Si number density = 18.690503 Si / 1000 Ang^3
#
#
#
# Elastic Constant Matrix: (Units=GPa)
#
#
# Indices 1 2 3 4 5 6 
#
# 1 131.7756 -5.6261 28.2588 0.0000 0.0000 0.0000
# 2 -5.6261 27.1887 11.9942 0.0000 0.0000 0.0000
# 3 28.2588 11.9942 71.1804 0.0000 0.0000 0.0000
# 4 0.0000 0.0000 0.0000 3.0112 0.0000 0.0000
# 5 0.0000 0.0000 0.0000 0.0000 14.5449 0.0000
# 6 0.0000 0.0000 0.0000 0.0000 0.0000 6.3025
#
#
#
# Elastic Compliance Matrix: (Units=1/GPa)
#
#
# Indices 1 2 3 4 5 6 
#
# 1 0.008601 0.003550 -0.004013 0.000000 0.000000 0.000000
# 2 0.003550 0.041199 -0.008352 0.000000 0.000000 0.000000
# 3 -0.004013 -0.008352 0.017049 0.000000 0.000000 0.000000
# 4 0.000000 0.000000 0.000000 0.332088 0.000000 0.000000
# 5 0.000000 0.000000 0.000000 0.000000 0.068753 0.000000
# 6 0.000000 0.000000 0.000000 0.000000 0.000000 0.158668
#
#
# Mechanical properties :
#
#
# Convention : Reuss Voigt Hill
#
# Bulk Modulus (GPa) = 20.31692 33.26652 26.79172
# Shear Modulus (GPa) = 7.57125 17.80623 12.68874
#
# Velocity S-wave (km/s) = 2.01486 3.08991 2.60837
# Velocity P-wave (km/s) = 4.03815 5.52878 4.84118
#
# Compressibility (1/GPa) = 0.04922006
#
# Stress axis : x y z
#
# Youngs Moduli (GPa) = 116.26928 24.27256 58.65403
#
# Poissons Ratio (x) = -0.08617 0.23536
# Poissons Ratio (y) = -0.41274 0.48985
# Poissons Ratio (z) = 0.46655 0.20271
#
# Static dielectric constant tensor:
#      x y z
#    x 1.634850 0.000000 0.000000 
#    y 0.000000 1.602760 0.000000 
#    z 0.000000 0.000000 1.682770 
# 
# From -- ./inp_files/3621.got.cif
#   From: 2010.05.17/outbox.cif.g08.bks.cpg/sg42_2_cif.got.tgz:3621.got - 2010.06.03 19:03:34.
