data_PCOD9369003
_publ_section_title
;
Structure prediction by ZEFSAII (Michael W. Deem and Ramdas Pophale) SiO2 
 PCOD9369003
Probable space group: F M M 2
;
_chemical_formula_sum "Si O2"
_cell_formula_units_Z 112
_cell_length_a 17.170100
_cell_length_b 23.778771
_cell_length_c 13.969896
_cell_angle_alpha 90.000000
_cell_angle_beta 90.000000
_cell_angle_gamma 90.000000
_cell_volume 5703.683285
_symmetry_space_group_name_H-M "F M M 2"
_symmetry_group_IT_number 42
_symmetry_cell_setting 'orthorhombic'
loop_
_space_group_symop_operation_xyz
x,y,z
-x,-y,z
-x,y,z
x,-y,z
x,1/2+y,1/2+z
-x,1/2-y,1/2+z
-x,1/2+y,1/2+z
x,1/2-y,1/2+z
1/2+x,y,1/2+z
1/2-x,-y,1/2+z
1/2-x,y,1/2+z
1/2+x,-y,1/2+z
1/2+x,1/2+y,z
1/2-x,1/2-y,z
1/2-x,1/2+y,z
1/2+x,1/2-y,z
loop_
_atom_site_type_symbol
_atom_site_label
_atom_site_fract_x
_atom_site_fract_y
_atom_site_fract_z
Si Si1 0.091533 0.159255 0.462070
Si Si2 0.340669 0.763989 0.357362
Si Si3 0.592635 0.830516 0.182423
Si Si4 0.410367 0.635482 0.974437
Si Si5 0.906259 0.564581 0.654495
Si Si6 0.678752 0.434821 0.354608
Si Si7 0.360035 0.934746 0.301808
O O1 0.111249 0.209649 0.389886
O O2 0.108375 0.178148 0.570737
O O3 0.145402 0.107030 0.433242
O O4 0.000000 0.144407 0.456249
O O5 0.250000 0.750000 0.358695
O O6 0.366039 0.787136 0.253862
O O7 0.360627 0.813657 0.432220
O O8 0.500000 0.826121 0.198512
O O9 0.619158 0.892632 0.216057
O O10 0.500000 0.654299 0.985970
O O11 0.407558 0.586954 0.893777
O O12 0.381713 0.608203 0.072894
O O13 0.885803 0.500000 0.627554
O O14 0.867869 0.576406 0.756300
O O15 0.000000 0.567361 0.662084
O O16 0.666298 0.500000 0.381124
O O17 0.769670 0.427287 0.331313
O O18 0.374254 0.000000 0.280406
#
# Coordination Sequence:
#
# PCOD9369003 Si02
#       7
#    16  16  16  16  16  16  16
#     4  11  23  39  61  85 112 152 194 234 287 344
#     4  11  23  40  61  84 113 148 187 238 292 342
#     4  10  23  41  59  84 116 148 191 240 281 337
#     4  10  20  36  59  86 115 146 188 240 285 333
#     4   9  18  34  58  87 117 152 193 235 280 330
#     4  10  22  38  56  84 121 155 191 236 282 335
#     4  10  20  35  57  84 116 154 190 231 286 338
#
# _framework density 19.636434000000001
#
# number of rings (size 3 to 8) (size 9 to 14) (size 15 to 20)
#    0.000    1.857    0.000    5.143    0.000    7.143 
#    0.000    5.714    0.000    0.000    0.000    0.000 
#    0.000    0.000    0.000    0.000    0.000    0.000 
#
# Total GULP energy -156471.556130 kJ/mol
# GULP energy per Si atom -5588.269862 kJ/mol
# Density = 1.959174 g / cm^3
# Si number density = 19.636434 Si / 1000 Ang^3
#
#
#
# Elastic Constant Matrix: (Units=GPa)
#
#
# Indices 1 2 3 4 5 6 
#
# 1 73.7589 41.8647 40.2694 0.0000 0.0000 0.0000
# 2 41.8647 79.5873 44.7721 0.0000 0.0000 0.0000
# 3 40.2694 44.7721 71.2457 0.0000 0.0000 0.0000
# 4 0.0000 0.0000 0.0000 20.4772 0.0000 0.0000
# 5 0.0000 0.0000 0.0000 0.0000-1875.4475 0.0000
# 6 0.0000 0.0000 0.0000 0.0000 0.0000 35.1893
#
#
#
# Elastic Compliance Matrix: (Units=1/GPa)
#
#
# Indices 1 2 3 4 5 6 
#
# 1 0.021897 -0.007047 -0.007948 0.000000 0.000000 0.000000
# 2 -0.007047 0.021704 -0.009656 0.000000 0.000000 0.000000
# 3 -0.007948 -0.009656 0.024596 0.000000 0.000000 0.000000
# 4 0.000000 0.000000 0.000000 0.048835 0.000000 0.000000
# 5 0.000000 0.000000 0.000000 0.000000 -0.000533 0.000000
# 6 0.000000 0.000000 0.000000 0.000000 0.000000 0.028418
#
#
# Mechanical properties :
#
#
# Convention : Reuss Voigt Hill
#
# Bulk Modulus (GPa) = 52.92439 53.15604 53.04022
# Shear Modulus (GPa) = 24.93565 -357.44383 -166.25409
#
# Velocity S-wave (km/s) = 3.56738 -13.50652 -9.21140
# Velocity P-wave (km/s) = 6.63166 14.70054 9.27704
#
# Compressibility (1/GPa) = 0.01889488
#
# Stress axis : x y z
#
# Youngs Moduli (GPa) = 45.66881 46.07517 40.65661
#
# Poissons Ratio (x) = 0.32469 0.32314
# Poissons Ratio (y) = 0.32183 0.39258
# Poissons Ratio (z) = 0.36298 0.44490
#
# Static dielectric constant tensor:
#      x y z
#    x 1.923870 0.000000 0.000000 
#    y 0.000000 1.690970 0.000000 
#    z 0.000000 0.000000 1.663690 
# 
# From -- ./inp_files/14270.got.cif
#   From: 2010.05.17/outbox.cif.g08.bks.cpg/sg42_8_cif.got.tgz:14270.got - 2010.06.03 19:03:34.
