data_PCOD9369758
_publ_section_title
;
Structure prediction by ZEFSAII (Michael W. Deem and Ramdas Pophale) SiO2 
 PCOD9369758
Probable space group: F M M 2
;
_chemical_formula_sum "Si O2"
_cell_formula_units_Z 116
_cell_length_a 17.470788
_cell_length_b 16.946149
_cell_length_c 16.969640
_cell_angle_alpha 90.000000
_cell_angle_beta 90.000000
_cell_angle_gamma 90.000000
_cell_volume 5024.075342
_symmetry_space_group_name_H-M "F M M 2"
_symmetry_group_IT_number 42
_symmetry_cell_setting 'orthorhombic'
loop_
_space_group_symop_operation_xyz
x,y,z
-x,-y,z
-x,y,z
x,-y,z
x,1/2+y,1/2+z
-x,1/2-y,1/2+z
-x,1/2+y,1/2+z
x,1/2-y,1/2+z
1/2+x,y,1/2+z
1/2-x,-y,1/2+z
1/2-x,y,1/2+z
1/2+x,-y,1/2+z
1/2+x,1/2+y,z
1/2-x,1/2-y,z
1/2-x,1/2+y,z
1/2+x,1/2-y,z
loop_
_atom_site_type_symbol
_atom_site_label
_atom_site_fract_x
_atom_site_fract_y
_atom_site_fract_z
Si Si1 0.301050 0.409964 0.883880
Si Si2 0.177908 0.810738 0.314802
Si Si3 0.914729 0.807979 0.470211
Si Si4 0.844267 0.911263 0.172230
Si Si5 0.091478 0.905763 0.732403
Si Si6 0.000000 0.500000 0.451819
Si Si7 0.605674 0.365705 0.009859
Si Si8 0.698587 0.167603 0.105487
O O1 0.298095 0.500000 0.906040
O O2 0.221236 0.387995 0.845369
O O3 0.363602 0.395162 0.814847
O O4 0.314220 0.360182 0.963199
O O5 0.250000 0.750000 0.306633
O O6 0.116447 0.791695 0.381871
O O7 0.142809 0.840339 0.233202
O O8 0.922714 0.722215 0.509618
O O9 0.848606 0.845985 0.524740
O O10 0.000000 0.845242 0.469606
O O11 0.897332 0.900704 0.096384
O O12 0.760415 0.896801 0.134260
O O13 0.851297 0.000000 0.203629
O O14 0.132047 0.845540 0.671771
O O15 0.000000 0.892589 0.740112
O O16 0.100870 0.000000 0.711430
O O17 0.063901 0.430021 0.456882
O O18 0.750000 0.250000 0.104813
#
# Coordination Sequence:
#
# PCOD9369758 Si02
#       8
#    16  16  16  16  16   4  16  16
#     4  11  22  39  68 102 137 180 233 293 357 426
#     4  12  25  45  71 103 141 183 240 292 354 440
#     4  12  27  47  69 103 146 189 239 303 370 431
#     4  12  25  45  71 105 139 184 244 292 354 426
#     4  10  23  41  67 106 147 186 232 302 374 438
#     4  12  24  44  68 100 144 180 234 300 364 428
#     4  12  24  41  70  99 134 185 233 291 351 427
#     4  12  23  42  73 103 137 190 245 298 358 432
#
# _framework density 23.088826000000001
#
# number of rings (size 3 to 8) (size 9 to 14) (size 15 to 20)
#    0.000    0.414    6.207    2.897    0.966    0.000 
#    1.241    2.069    0.000    4.552    0.000    0.000 
#    0.000    0.000    0.000    0.000    0.000    0.000 
#
# Total GULP energy -161545.763468 kJ/mol
# GULP energy per Si atom -5570.543568 kJ/mol
# Density = 2.303627 g / cm^3
# Si number density = 23.088826 Si / 1000 Ang^3
#
#
#
# Elastic Constant Matrix: (Units=GPa)
#
#
# Indices 1 2 3 4 5 6 
#
# 1 92.5929 17.6243 12.2902 0.0000 0.0000 0.0000
# 2 17.6243 56.8432 22.5068 0.0000 0.0000 0.0000
# 3 12.2902 22.5068 101.7393 0.0000 0.0000 0.0000
# 4 0.0000 0.0000 0.0000 26.4439 0.0000 0.0000
# 5 0.0000 0.0000 0.0000 0.0000 -68.4393 0.0000
# 6 0.0000 0.0000 0.0000 0.0000 0.0000 55.2035
#
#
#
# Elastic Compliance Matrix: (Units=1/GPa)
#
#
# Indices 1 2 3 4 5 6 
#
# 1 0.011517 -0.003310 -0.000659 0.000000 0.000000 0.000000
# 2 -0.003310 0.020232 -0.004076 0.000000 0.000000 0.000000
# 3 -0.000659 -0.004076 0.010810 0.000000 0.000000 0.000000
# 4 0.000000 0.000000 0.000000 0.037816 0.000000 0.000000
# 5 0.000000 0.000000 0.000000 0.000000 -0.014611 0.000000
# 6 0.000000 0.000000 0.000000 0.000000 0.000000 0.018115
#
#
# Mechanical properties :
#
#
# Convention : Reuss Voigt Hill
#
# Bulk Modulus (GPa) = 37.77855 39.55757 38.66806
# Shear Modulus (GPa) = 45.95881 15.89188 30.92535
#
# Velocity S-wave (km/s) = 4.46637 2.62638 3.66376
# Velocity P-wave (km/s) = 6.55711 5.13489 5.88909
#
# Compressibility (1/GPa) = 0.02647004
#
# Stress axis : x y z
#
# Youngs Moduli (GPa) = 86.82447 49.42568 92.50393
#
# Poissons Ratio (x) = 0.16360 0.06097
# Poissons Ratio (y) = 0.28739 0.37704
# Poissons Ratio (z) = 0.05722 0.20146
#
# Static dielectric constant tensor:
#      x y z
#    x 2.087540 0.000000 0.000000 
#    y 0.000000 1.842040 0.000000 
#    z 0.000000 0.000000 1.939160 
# 
# From -- ./inp_files/20971.got.cif
#   From: 2010.05.17/outbox.cif.g08.bks.cpg/sg42_11_cif.got.tgz:20971.got - 2010.06.03 19:03:34.
