data_PCOD9369236
_publ_section_title
;
Structure prediction by ZEFSAII (Michael W. Deem and Ramdas Pophale) SiO2 
 PCOD9369236
Probable space group: F M M 2
;
_chemical_formula_sum "Si O2"
_cell_formula_units_Z 100
_cell_length_a 7.851770
_cell_length_b 21.388762
_cell_length_c 30.134988
_cell_angle_alpha 90.000000
_cell_angle_beta 90.000000
_cell_angle_gamma 90.000000
_cell_volume 5060.859030
_symmetry_space_group_name_H-M "F M M 2"
_symmetry_group_IT_number 42
_symmetry_cell_setting 'orthorhombic'
loop_
_space_group_symop_operation_xyz
x,y,z
-x,-y,z
-x,y,z
x,-y,z
x,1/2+y,1/2+z
-x,1/2-y,1/2+z
-x,1/2+y,1/2+z
x,1/2-y,1/2+z
1/2+x,y,1/2+z
1/2-x,-y,1/2+z
1/2-x,y,1/2+z
1/2+x,-y,1/2+z
1/2+x,1/2+y,z
1/2-x,1/2-y,z
1/2-x,1/2+y,z
1/2+x,1/2-y,z
loop_
_atom_site_type_symbol
_atom_site_label
_atom_site_fract_x
_atom_site_fract_y
_atom_site_fract_z
Si Si1 0.202451 0.430158 0.623790
Si Si2 0.797721 0.820364 0.556868
Si Si3 0.295242 0.178768 0.955681
Si Si4 0.202233 0.930645 0.725074
Si Si5 0.698226 0.603713 0.871754
Si Si6 0.201565 0.179413 0.786182
Si Si7 0.000000 0.000000 0.362472
O O1 0.261555 0.500000 0.609419
O O2 0.243035 0.375084 0.589794
O O3 0.275415 0.418516 0.672838
O O4 0.000000 0.432525 0.628600
O O5 0.750000 0.750000 0.571390
O O6 0.733126 0.830097 0.506467
O O7 0.000000 0.822157 0.554395
O O8 0.500000 0.171331 0.954320
O O9 0.250000 0.250000 0.943421
O O10 0.214162 0.131090 0.921161
O O11 0.276237 0.874627 0.754371
O O12 0.000000 0.934257 0.733820
O O13 0.274697 0.000000 0.735168
O O14 0.500000 0.582880 0.864055
O O15 0.734788 0.659225 0.836643
O O16 0.846678 0.553689 0.864131
O O17 0.250000 0.250000 0.776213
O O18 0.000000 0.177102 0.779842
#
# Coordination Sequence:
#
# PCOD9369236 Si02
#       7
#    16  16  16  16  16  16   4
#     4  10  21  38  57  85 119 156 202 250 305 370
#     4  10  21  37  61  88 119 157 203 252 304 364
#     4  10  20  38  62  91 122 160 208 256 310 375
#     4   9  19  38  61  82 114 158 204 250 308 370
#     4  11  24  43  65  92 129 168 210 258 310 368
#     4  10  23  39  61  92 122 158 205 253 305 366
#     4  12  26  44  64  94 128 168 212 260 308 382
#
# _framework density 19.75949
#
# number of rings (size 3 to 8) (size 9 to 14) (size 15 to 20)
#    0.000    1.920    0.800    2.160    2.240    5.440 
#    1.440    1.600    0.000    0.000    0.000    0.000 
#    0.000    0.000    0.000    0.000    0.000    0.000 
#
# Total GULP energy -139247.096779 kJ/mol
# GULP energy per Si atom -5569.883871 kJ/mol
# Density = 1.971452 g / cm^3
# Si number density = 19.759490 Si / 1000 Ang^3
#
#
#
# Elastic Constant Matrix: (Units=GPa)
#
#
# Indices 1 2 3 4 5 6 
#
# 1 73.8929 28.9529 10.8925 0.0000 0.0000 0.0000
# 2 28.9529 157.2344 79.3531 0.0000 0.0000 0.0000
# 3 10.8925 79.3531 74.7186 0.0000 0.0000 0.0000
# 4 0.0000 0.0000 0.0000 178.3537 0.0000 0.0000
# 5 0.0000 0.0000 0.0000 0.0000 14.2269 0.0000
# 6 0.0000 0.0000 0.0000 0.0000 0.0000 32.7394
#
#
#
# Elastic Compliance Matrix: (Units=1/GPa)
#
#
# Indices 1 2 3 4 5 6 
#
# 1 0.014671 -0.003496 0.001574 0.000000 0.000000 0.000000
# 2 -0.003496 0.014539 -0.014931 0.000000 0.000000 0.000000
# 3 0.001574 -0.014931 0.029012 0.000000 0.000000 0.000000
# 4 0.000000 0.000000 0.000000 0.005607 0.000000 0.000000
# 5 0.000000 0.000000 0.000000 0.000000 0.070289 0.000000
# 6 0.000000 0.000000 0.000000 0.000000 0.000000 0.030544
#
#
# Mechanical properties :
#
#
# Convention : Reuss Voigt Hill
#
# Bulk Modulus (GPa) = 40.79116 60.47143 50.63130
# Shear Modulus (GPa) = 24.20831 57.50714 40.85772
#
# Velocity S-wave (km/s) = 3.50401 5.40062 4.55219
# Velocity P-wave (km/s) = 6.08765 8.34021 7.30132
#
# Compressibility (1/GPa) = 0.02451511
#
# Stress axis : x y z
#
# Youngs Moduli (GPa) = 68.16252 68.77928 34.46881
#
# Poissons Ratio (x) = 0.24044 -0.05425
# Poissons Ratio (y) = 0.23828 0.51467
# Poissons Ratio (z) = -0.10728 1.02698
#
# Static dielectric constant tensor:
#      x y z
#    x 1.709840 0.000000 0.000000 
#    y 0.000000 1.638810 0.000000 
#    z 0.000000 0.000000 1.702360 
# 
# From -- ./inp_files/31508.got.cif
#   From: 2010.05.17/outbox.cif.g08.bks.cpg/sg42_16_cif.got.tgz:31508.got - 2010.06.03 19:03:34.
