data_PCOD9369722
_publ_section_title
;
Structure prediction by ZEFSAII (Michael W. Deem and Ramdas Pophale) SiO2 
 PCOD9369722
Probable space group: F M M 2
;
_chemical_formula_sum "Si O2"
_cell_formula_units_Z 64
_cell_length_a 18.102476
_cell_length_b 29.872926
_cell_length_c 5.053294
_cell_angle_alpha 90.000000
_cell_angle_beta 90.000000
_cell_angle_gamma 90.000000
_cell_volume 2732.689635
_symmetry_space_group_name_H-M "F M M 2"
_symmetry_group_IT_number 42
_symmetry_cell_setting 'orthorhombic'
loop_
_space_group_symop_operation_xyz
x,y,z
-x,-y,z
-x,y,z
x,-y,z
x,1/2+y,1/2+z
-x,1/2-y,1/2+z
-x,1/2+y,1/2+z
x,1/2-y,1/2+z
1/2+x,y,1/2+z
1/2-x,-y,1/2+z
1/2-x,y,1/2+z
1/2+x,-y,1/2+z
1/2+x,1/2+y,z
1/2-x,1/2-y,z
1/2-x,1/2+y,z
1/2+x,1/2-y,z
loop_
_atom_site_type_symbol
_atom_site_label
_atom_site_fract_x
_atom_site_fract_y
_atom_site_fract_z
Si Si1 0.586001 0.637869 0.000000
Si Si2 0.196598 0.099033 0.652878
Si Si3 0.089780 0.223371 0.332286
Si Si4 0.583698 0.049569 0.860859
O O1 0.500000 0.645630 0.933590
O O2 0.591880 0.590239 0.153016
O O3 0.634855 0.635119 0.737479
O O4 0.612043 0.676864 0.196649
O O5 0.248003 0.101174 0.397827
O O6 0.144487 0.056616 0.587399
O O7 0.113187 0.261850 0.123485
O O8 0.000000 0.222194 0.340482
O O9 0.500000 0.053301 0.969065
O O10 0.591540 0.000000 0.742646
#
# Coordination Sequence:
#
# PCOD9369722 Si02
#       4
#    16  16  16  16
#     4  10  22  42  72 102 136 177 225 282 342 396
#     4  12  25  44  65  95 133 177 222 273 332 400
#     4   9  19  34  60  99 134 166 215 277 336 395
#     4  10  23  44  69  99 135 179 230 280 336 401
#
# _framework density 23.420151000000001
#
# number of rings (size 3 to 8) (size 9 to 14) (size 15 to 20)
#    0.000    1.750    2.500    0.750    3.500    2.000 
#    0.000    2.500    0.000    4.500    0.000    0.000 
#    0.000    0.000    0.000    0.000    0.000    0.000 
#
# Total GULP energy -89341.706252 kJ/mol
# GULP energy per Si atom -5583.856641 kJ/mol
# Density = 2.336685 g / cm^3
# Si number density = 23.420151 Si / 1000 Ang^3
#
#
#
# Elastic Constant Matrix: (Units=GPa)
#
#
# Indices 1 2 3 4 5 6 
#
# 1 106.3630 17.8055 46.1887 -0.0017 -0.0319 -0.0076
# 2 17.8055 123.6976 16.1025 0.0000 -0.0052 -0.0024
# 3 46.1887 16.1025 126.5565 0.0049 -0.0452 -0.0095
# 4 -0.0017 0.0000 0.0049 33.7731 -0.0035 0.0029
# 5 -0.0319 -0.0052 -0.0452 -0.0035 34.4281 0.0062
# 6 -0.0076 -0.0024 -0.0095 0.0029 0.0062 6.9120
#
#
#
# Elastic Compliance Matrix: (Units=1/GPa)
#
#
# Indices 1 2 3 4 5 6 
#
# 1 0.011320 -0.001110 -0.003990 0.000001 0.000005 0.000006
# 2 -0.001110 0.008329 -0.000655 0.000000 -0.000001 0.000001
# 3 -0.003990 -0.000655 0.009441 -0.000002 0.000009 0.000008
# 4 0.000001 0.000000 -0.000002 0.029609 0.000003 -0.000012
# 5 0.000005 -0.000001 0.000009 0.000003 0.029046 -0.000026
# 6 0.000006 0.000001 0.000008 -0.000012 -0.000026 0.144676
#
#
# Mechanical properties :
#
#
# Convention : Reuss Voigt Hill
#
# Bulk Modulus (GPa) = 56.88006 57.42338 57.15172
# Shear Modulus (GPa) = 20.01664 33.45734 26.73699
#
# Velocity S-wave (km/s) = 2.92666 3.78374 3.38246
# Velocity P-wave (km/s) = 5.97996 6.60765 6.30162
#
# Compressibility (1/GPa) = 0.01758085
#
# Stress axis : x y z
#
# Youngs Moduli (GPa) = 88.33610 120.05902 105.91844
#
# Poissons Ratio (x) = 0.13327 0.42265
# Poissons Ratio (y) = 0.09806 0.06934
# Poissons Ratio (z) = 0.35249 0.07860
#
# Static dielectric constant tensor:
#      x y z
#    x 1.903920 0.000010 0.000010 
#    y 0.000010 1.923610 -0.000010 
#    z 0.000010 -0.000010 1.921860 
# 
# From -- ./inp_files/578.got.cif
#   From: 2010.05.17/outbox.cif.g08.bks.cpg/sg42_1_cif.got.tgz:578.got - 2010.06.03 19:03:34.
