data_PCOD9369720
_publ_section_title
;
Structure prediction by ZEFSAII (Michael W. Deem and Ramdas Pophale) SiO2 
 PCOD9369720
Probable space group: F M M 2
;
_chemical_formula_sum "Si O2"
_cell_formula_units_Z 72
_cell_length_a 8.695581
_cell_length_b 14.822888
_cell_length_c 24.218608
_cell_angle_alpha 90.000000
_cell_angle_beta 90.000000
_cell_angle_gamma 90.000000
_cell_volume 3121.624135
_symmetry_space_group_name_H-M "F M M 2"
_symmetry_group_IT_number 42
_symmetry_cell_setting 'orthorhombic'
loop_
_space_group_symop_operation_xyz
x,y,z
-x,-y,z
-x,y,z
x,-y,z
x,1/2+y,1/2+z
-x,1/2-y,1/2+z
-x,1/2+y,1/2+z
x,1/2-y,1/2+z
1/2+x,y,1/2+z
1/2-x,-y,1/2+z
1/2-x,y,1/2+z
1/2+x,-y,1/2+z
1/2+x,1/2+y,z
1/2-x,1/2-y,z
1/2-x,1/2+y,z
1/2+x,1/2-y,z
loop_
_atom_site_type_symbol
_atom_site_label
_atom_site_fract_x
_atom_site_fract_y
_atom_site_fract_z
Si Si1 0.680498 0.847929 0.636290
Si Si2 0.180662 0.100811 0.527085
Si Si3 0.673299 0.894575 0.860081
Si Si4 0.750000 0.250000 0.452398
Si Si5 0.330526 0.391859 0.749055
O O1 0.500000 0.854342 0.625806
O O2 0.750000 0.750000 0.626964
O O3 0.774190 0.904037 0.591100
O O4 0.715952 0.870004 0.699767
O O5 0.293659 0.171951 0.497099
O O6 0.000000 0.129675 0.521082
O O7 0.192675 0.000000 0.503606
O O8 0.500000 0.897690 0.838066
O O9 0.675437 0.821616 0.909258
O O10 0.781325 0.863032 0.810152
O O11 0.712165 0.000000 0.875109
O O12 0.500000 0.355634 0.734959
O O13 0.337414 0.500000 0.751871
#
# Coordination Sequence:
#
# PCOD9369720 Si02
#       5
#    16  16  16   8  16
#     4  12  25  42  68 101 138 178 225 280 340 409
#     4  11  25  46  71 100 138 183 229 282 344 407
#     4  10  23  44  69  99 137 183 232 281 339 406
#     4  12  24  40  70 100 134 176 236 288 336 400
#     4  10  22  42  68  99 136 177 223 277 338 405
#
# _framework density 23.064917000000001
#
# number of rings (size 3 to 8) (size 9 to 14) (size 15 to 20)
#    0.000    1.111    1.111    4.667    1.556    8.889 
#    0.000    0.000    0.000    8.000    0.000    0.000 
#    0.000    0.000    0.000    0.000    0.000    0.000 
#
# Total GULP energy -100313.835413 kJ/mol
# GULP energy per Si atom -5572.990856 kJ/mol
# Density = 2.301242 g / cm^3
# Si number density = 23.064917 Si / 1000 Ang^3
#
#
#
# Elastic Constant Matrix: (Units=GPa)
#
#
# Indices 1 2 3 4 5 6 
#
# 1 82.1926 25.0622 31.1966 0.0000 0.0000 0.0000
# 2 25.0622 126.9098 26.7747 0.0000 0.0000 0.0000
# 3 31.1966 26.7747 117.8927 0.0000 0.0000 0.0000
# 4 0.0000 0.0000 0.0000 39.9558 0.0000 0.0000
# 5 0.0000 0.0000 0.0000 0.0000 2.2806 0.0000
# 6 0.0000 0.0000 0.0000 0.0000 0.0000 13.4786
#
#
#
# Elastic Compliance Matrix: (Units=1/GPa)
#
#
# Indices 1 2 3 4 5 6 
#
# 1 0.014033 -0.002088 -0.003239 0.000000 0.000000 0.000000
# 2 -0.002088 0.008587 -0.001398 0.000000 0.000000 0.000000
# 3 -0.003239 -0.001398 0.009657 0.000000 0.000000 0.000000
# 4 0.000000 0.000000 0.000000 0.025028 0.000000 0.000000
# 5 0.000000 0.000000 0.000000 0.000000 0.438483 0.000000
# 6 0.000000 0.000000 0.000000 0.000000 0.000000 0.074192
#
#
# Mechanical properties :
#
#
# Convention : Reuss Voigt Hill
#
# Bulk Modulus (GPa) = 53.11513 54.78468 53.94991
# Shear Modulus (GPa) = 8.47883 27.40710 17.94296
#
# Velocity S-wave (km/s) = 1.91939 3.45085 2.79217
# Velocity P-wave (km/s) = 5.29061 6.29935 5.81689
#
# Compressibility (1/GPa) = 0.01882703
#
# Stress axis : x y z
#
# Youngs Moduli (GPa) = 71.26270 116.45801 103.55340
#
# Poissons Ratio (x) = 0.24314 0.33542
# Poissons Ratio (y) = 0.14878 0.14474
# Poissons Ratio (z) = 0.23083 0.16277
#
# Static dielectric constant tensor:
#      x y z
#    x 1.819310 0.000000 0.000000 
#    y 0.000000 1.919550 0.000000 
#    z 0.000000 0.000000 1.878350 
# 
# From -- ./inp_files/31066.got.cif
#   From: 2010.05.17/outbox.cif.g08.bks.cpg/sg42_16_cif.got.tgz:31066.got - 2010.06.03 19:03:34.
