data_PCOD9369899
_publ_section_title
;
Structure prediction by ZEFSAII (Michael W. Deem and Ramdas Pophale) SiO2 
 PCOD9369899
Probable space group: F M M 2
;
_chemical_formula_sum "Si O2"
_cell_formula_units_Z 60
_cell_length_a 14.928036
_cell_length_b 10.348923
_cell_length_c 18.496715
_cell_angle_alpha 90.000000
_cell_angle_beta 90.000000
_cell_angle_gamma 90.000000
_cell_volume 2857.540763
_symmetry_space_group_name_H-M "F M M 2"
_symmetry_group_IT_number 42
_symmetry_cell_setting 'orthorhombic'
loop_
_space_group_symop_operation_xyz
x,y,z
-x,-y,z
-x,y,z
x,-y,z
x,1/2+y,1/2+z
-x,1/2-y,1/2+z
-x,1/2+y,1/2+z
x,1/2-y,1/2+z
1/2+x,y,1/2+z
1/2-x,-y,1/2+z
1/2-x,y,1/2+z
1/2+x,-y,1/2+z
1/2+x,1/2+y,z
1/2-x,1/2-y,z
1/2-x,1/2+y,z
1/2+x,1/2-y,z
loop_
_atom_site_type_symbol
_atom_site_label
_atom_site_fract_x
_atom_site_fract_y
_atom_site_fract_z
Si Si1 0.181874 0.000000 0.673151
Si Si2 0.000000 0.782598 0.264355
Si Si3 0.149960 0.500000 0.783333
Si Si4 0.899996 0.000000 0.433673
Si Si5 0.500000 0.000000 0.266863
Si Si6 0.344346 0.707050 0.546997
Si Si7 0.000000 0.353419 0.610586
O O1 0.178163 0.877785 0.618618
O O2 0.268711 0.000000 0.726002
O O3 0.092100 0.000000 0.720990
O O4 0.000000 0.757025 0.178343
O O5 0.087948 0.871737 0.274854
O O6 0.000000 0.643558 0.303666
O O7 0.171506 0.500000 0.868941
O O8 0.891021 0.880022 0.487045
O O9 0.000000 0.000000 0.401257
O O10 0.250000 0.750000 0.516645
O O11 0.410488 0.822451 0.567183
O O12 0.000000 0.500000 0.636916
#
# Coordination Sequence:
#
# PCOD9369899 Si02
#       7
#     8   8   8   8   4  16   8
#     4  11  23  41  70 101 131 177 225 291 337 401
#     4  11  22  39  65 100 132 175 223 284 343 392
#     4  11  24  45  71  96 136 185 230 278 339 420
#     4  11  23  49  72  90 135 191 224 266 345 422
#     4  12  24  40  62 104 138 174 224 284 342 390
#     4  11  24  41  67 102 134 171 230 283 339 404
#     4  12  22  38  67 100 137 172 224 293 341 392
#
# _framework density 20.997074000000001
#
# number of rings (size 3 to 8) (size 9 to 14) (size 15 to 20)
#    0.000    0.800    6.667    1.600    5.600    0.000 
#    4.800    0.000    5.867    0.000    0.000    0.000 
#    0.000    0.000    0.000    0.000    0.000    0.000 
#
# Total GULP energy -83719.083920 kJ/mol
# GULP energy per Si atom -5581.272261 kJ/mol
# Density = 2.094928 g / cm^3
# Si number density = 20.997074 Si / 1000 Ang^3
#
#
#
# Elastic Constant Matrix: (Units=GPa)
#
#
# Indices 1 2 3 4 5 6 
#
# 1 118.9522 33.1213 25.5121 0.0000 0.0000 0.0000
# 2 33.1213 109.4847 6.5837 0.0000 0.0000 0.0000
# 3 25.5121 6.5837 82.0993 0.0000 0.0000 0.0000
# 4 0.0000 0.0000 0.0000 2.3994 0.0000 0.0000
# 5 0.0000 0.0000 0.0000 0.0000 28.5193 0.0000
# 6 0.0000 0.0000 0.0000 0.0000 0.0000 9.2860
#
#
#
# Elastic Compliance Matrix: (Units=1/GPa)
#
#
# Indices 1 2 3 4 5 6 
#
# 1 0.009788 -0.002792 -0.002818 0.000000 0.000000 0.000000
# 2 -0.002792 0.009974 0.000068 0.000000 0.000000 0.000000
# 3 -0.002818 0.000068 0.013051 0.000000 0.000000 0.000000
# 4 0.000000 0.000000 0.000000 0.416774 0.000000 0.000000
# 5 0.000000 0.000000 0.000000 0.000000 0.035064 0.000000
# 6 0.000000 0.000000 0.000000 0.000000 0.000000 0.107689
#
#
# Mechanical properties :
#
#
# Convention : Reuss Voigt Hill
#
# Bulk Modulus (GPa) = 46.02066 48.99669 47.50867
# Shear Modulus (GPa) = 8.18777 24.39556 16.29166
#
# Velocity S-wave (km/s) = 1.97685 3.41230 2.78852
# Velocity P-wave (km/s) = 5.21304 6.23784 5.74833
#
# Compressibility (1/GPa) = 0.02172937
#
# Stress axis : x y z
#
# Youngs Moduli (GPa) = 102.16143 100.25878 76.62493
#
# Poissons Ratio (x) = 0.27990 0.21592
# Poissons Ratio (y) = 0.28521 -0.00519
# Poissons Ratio (z) = 0.28788 -0.00679
#
# Static dielectric constant tensor:
#      x y z
#    x 1.734810 0.000000 0.000000 
#    y 0.000000 1.793150 0.000000 
#    z 0.000000 0.000000 1.734590 
# 
# From -- ./inp_files/18638.got.cif
#   From: 2010.05.17/outbox.cif.g08.bks.cpg/sg42_10_cif.got.tgz:18638.got - 2010.06.03 19:03:34.
