data_PCOD9369630
_publ_section_title
;
Structure prediction by ZEFSAII (Michael W. Deem and Ramdas Pophale) SiO2 
 PCOD9369630
Probable space group: F M M 2
;
_chemical_formula_sum "Si O2"
_cell_formula_units_Z 80
_cell_length_a 10.950172
_cell_length_b 19.361606
_cell_length_c 16.955586
_cell_angle_alpha 90.000000
_cell_angle_beta 90.000000
_cell_angle_gamma 90.000000
_cell_volume 3594.803229
_symmetry_space_group_name_H-M "F M M 2"
_symmetry_group_IT_number 42
_symmetry_cell_setting 'orthorhombic'
loop_
_space_group_symop_operation_xyz
x,y,z
-x,-y,z
-x,y,z
x,-y,z
x,1/2+y,1/2+z
-x,1/2-y,1/2+z
-x,1/2+y,1/2+z
x,1/2-y,1/2+z
1/2+x,y,1/2+z
1/2-x,-y,1/2+z
1/2-x,y,1/2+z
1/2+x,-y,1/2+z
1/2+x,1/2+y,z
1/2-x,1/2-y,z
1/2-x,1/2+y,z
1/2+x,1/2-y,z
loop_
_atom_site_type_symbol
_atom_site_label
_atom_site_fract_x
_atom_site_fract_y
_atom_site_fract_z
Si Si1 0.273401 0.919137 0.934730
Si Si2 0.273072 0.081045 0.756069
Si Si3 0.366024 0.206434 0.026490
Si Si4 0.866999 0.792598 0.716826
Si Si5 0.500000 0.916074 0.650398
Si Si6 0.500000 0.083818 0.470559
O O1 0.319729 0.911738 0.845503
O O2 0.280421 0.000000 0.957105
O O3 0.343434 0.870743 0.995245
O O4 0.129961 0.897853 0.933617
O O5 0.157200 0.128934 0.742397
O O6 0.378039 0.105084 0.695713
O O7 0.247619 0.000000 0.743363
O O8 0.500000 0.230718 0.999392
O O9 0.250000 0.250000 0.997647
O O10 0.365499 0.209130 0.121493
O O11 0.750000 0.750000 0.746584
O O12 0.000000 0.767683 0.743591
O O13 0.500000 0.891130 0.561114
O O14 0.500000 0.000000 0.650552
O O15 0.500000 0.000000 0.472031
#
# Coordination Sequence:
#
# PCOD9369630 Si02
#       6
#    16  16  16  16   8   8
#     4  10  22  38  61  93 128 161 202 259 319 375
#     4  10  22  38  61  93 128 161 202 259 319 375
#     4  10  23  42  64  90 122 164 210 259 315 376
#     4  10  23  42  64  90 122 164 210 259 315 376
#     4   9  18  34  58  87 119 163 210 249 303 375
#     4   9  18  34  58  87 119 163 210 249 303 375
#
# _framework density 22.254348
#
# number of rings (size 3 to 8) (size 9 to 14) (size 15 to 20)
#    0.000    2.200    0.000    1.200    5.600    4.000 
#    0.000    4.000    0.000    0.000    0.000    0.000 
#    0.000    0.000    0.000    0.000    0.000    0.000 
#
# Total GULP energy -111780.273211 kJ/mol
# GULP energy per Si atom -5589.013661 kJ/mol
# Density = 2.220370 g / cm^3
# Si number density = 22.254348 Si / 1000 Ang^3
#
#
#
# Elastic Constant Matrix: (Units=GPa)
#
#
# Indices 1 2 3 4 5 6 
#
# 1 137.0039 46.2926 17.5618 0.0000 0.0000 0.0000
# 2 46.2926 71.1161 1.5681 0.0000 0.0000 0.0000
# 3 17.5618 1.5681 30.1874 0.0000 0.0000 0.0000
# 4 0.0000 0.0000 0.0000 20.3355 0.0000 0.0000
# 5 0.0000 0.0000 0.0000 0.0000 14.4868 0.0000
# 6 0.0000 0.0000 0.0000 0.0000 0.0000 31.5641
#
#
#
# Elastic Compliance Matrix: (Units=1/GPa)
#
#
# Indices 1 2 3 4 5 6 
#
# 1 0.010225 -0.006532 -0.005609 0.000000 0.000000 0.000000
# 2 -0.006532 0.018251 0.002852 0.000000 0.000000 0.000000
# 3 -0.005609 0.002852 0.036242 0.000000 0.000000 0.000000
# 4 0.000000 0.000000 0.000000 0.049175 0.000000 0.000000
# 5 0.000000 0.000000 0.000000 0.000000 0.069028 0.000000
# 6 0.000000 0.000000 0.000000 0.000000 0.000000 0.031682
#
#
# Mechanical properties :
#
#
# Convention : Reuss Voigt Hill
#
# Bulk Modulus (GPa) = 21.67378 41.01692 31.34535
# Shear Modulus (GPa) = 20.11577 24.80296 22.45936
#
# Velocity S-wave (km/s) = 3.00976 3.34207 3.18026
# Velocity P-wave (km/s) = 4.67316 5.77612 5.25367
#
# Compressibility (1/GPa) = 0.04613869
#
# Stress axis : x y z
#
# Youngs Moduli (GPa) = 97.79602 54.79188 27.59265
#
# Poissons Ratio (x) = 0.35793 0.15478
# Poissons Ratio (y) = 0.63885 -0.07870
# Poissons Ratio (z) = 0.54857 -0.15628
#
# Static dielectric constant tensor:
#      x y z
#    x 1.903300 0.000000 0.000000 
#    y 0.000000 1.838790 0.000000 
#    z 0.000000 0.000000 1.771750 
# 
# From -- ./inp_files/18951.got.cif
#   From: 2010.05.17/outbox.cif.g08.bks.cpg/sg42_10_cif.got.tgz:18951.got - 2010.06.03 19:03:34.
