data_PCOD9369610
_publ_section_title
;
Structure prediction by ZEFSAII (Michael W. Deem and Ramdas Pophale) SiO2 
 PCOD9369610
Probable space group: F M M 2
;
_chemical_formula_sum "Si O2"
_cell_formula_units_Z 96
_cell_length_a 22.099401
_cell_length_b 22.639718
_cell_length_c 10.036533
_cell_angle_alpha 90.000000
_cell_angle_beta 90.000000
_cell_angle_gamma 90.000000
_cell_volume 5021.520410
_symmetry_space_group_name_H-M "F M M 2"
_symmetry_group_IT_number 42
_symmetry_cell_setting 'orthorhombic'
loop_
_space_group_symop_operation_xyz
x,y,z
-x,-y,z
-x,y,z
x,-y,z
x,1/2+y,1/2+z
-x,1/2-y,1/2+z
-x,1/2+y,1/2+z
x,1/2-y,1/2+z
1/2+x,y,1/2+z
1/2-x,-y,1/2+z
1/2-x,y,1/2+z
1/2+x,-y,1/2+z
1/2+x,1/2+y,z
1/2-x,1/2-y,z
1/2-x,1/2+y,z
1/2+x,1/2-y,z
loop_
_atom_site_type_symbol
_atom_site_label
_atom_site_fract_x
_atom_site_fract_y
_atom_site_fract_z
Si Si1 0.431784 0.932250 0.250000
Si Si2 0.317347 0.151353 0.256773
Si Si3 0.767020 0.679519 0.529779
Si Si4 0.429774 0.436640 0.428496
Si Si5 0.569315 0.808824 0.893591
Si Si6 0.621950 0.235679 0.640122
O O1 0.500000 0.911734 0.290214
O O2 0.375086 0.890483 0.282162
O O3 0.424055 0.000000 0.297748
O O4 0.431929 0.934958 0.089092
O O5 0.278751 0.142872 0.122015
O O6 0.274091 0.153308 0.383731
O O7 0.342163 0.217210 0.230854
O O8 0.750000 0.750000 0.520143
O O9 0.832975 0.683644 0.597943
O O10 0.500000 0.436751 0.381470
O O11 0.402559 0.500000 0.388176
O O12 0.401788 0.374201 0.389091
O O13 0.500000 0.814614 0.938368
O O14 0.571632 0.785037 0.743586
O O15 0.600496 0.768597 0.006186
#
# Coordination Sequence:
#
# PCOD9369610 Si02
#       6
#    16  16  16  16  16  16
#     4   9  18  34  58  87 114 146 195 251 304 357
#     4  11  21  36  59  82 115 153 197 239 292 354
#     4  10  22  37  56  82 112 155 197 237 288 349
#     4   8  15  29  50  76 108 149 195 238 282 342
#     4  11  21  33  53  85 123 157 196 249 306 366
#     4  11  21  35  53  83 120 154 194 242 298 357
#
# _framework density 19.117716000000001
#
# number of rings (size 3 to 8) (size 9 to 14) (size 15 to 20)
#    0.000    2.000    3.333    3.000    2.333    0.667 
#    0.000    0.833    0.000    2.000    0.000    2.333 
#    0.000    2.667    0.000    0.000    0.000    0.000 
#
# Total GULP energy -133610.393210 kJ/mol
# GULP energy per Si atom -5567.099717 kJ/mol
# Density = 1.907420 g / cm^3
# Si number density = 19.117716 Si / 1000 Ang^3
#
#
#
# Elastic Constant Matrix: (Units=GPa)
#
#
# Indices 1 2 3 4 5 6 
#
# 1 75.5403 21.1148 34.5020 0.0000 0.0000 0.0000
# 2 21.1148 53.4492 27.7214 0.0000 0.0000 0.0000
# 3 34.5020 27.7214 87.7270 0.0000 0.0000 0.0000
# 4 0.0000 0.0000 0.0000 -1.7212 0.0000 0.0000
# 5 0.0000 0.0000 0.0000 0.0000 28.1602 0.0000
# 6 0.0000 0.0000 0.0000 0.0000 0.0000 21.7252
#
#
#
# Elastic Compliance Matrix: (Units=1/GPa)
#
#
# Indices 1 2 3 4 5 6 
#
# 1 0.016768 -0.003832 -0.005384 0.000000 0.000000 0.000000
# 2 -0.003832 0.023252 -0.005841 0.000000 0.000000 0.000000
# 3 -0.005384 -0.005841 0.015362 0.000000 0.000000 0.000000
# 4 0.000000 0.000000 0.000000 -0.580989 0.000000 0.000000
# 5 0.000000 0.000000 0.000000 0.000000 0.035511 0.000000
# 6 0.000000 0.000000 0.000000 0.000000 0.000000 0.046030
#
#
# Mechanical properties :
#
#
# Convention : Reuss Voigt Hill
#
# Bulk Modulus (GPa) = 39.57288 42.59922 41.08605
# Shear Modulus (GPa) = -12.32955 18.52472 3.09759
#
# Velocity S-wave (km/s) = -2.54230 3.11622 1.27428
# Velocity P-wave (km/s) = 3.48236 5.93959 4.86855
#
# Compressibility (1/GPa) = 0.02526983
#
# Stress axis : x y z
#
# Youngs Moduli (GPa) = 59.63734 43.00640 65.09558
#
# Poissons Ratio (x) = 0.16479 0.35046
# Poissons Ratio (y) = 0.22852 0.38020
# Poissons Ratio (z) = 0.32108 0.25119
#
# Static dielectric constant tensor:
#      x y z
#    x 1.717520 0.000000 0.000000 
#    y 0.000000 1.713930 0.000000 
#    z 0.000000 0.000000 1.661210 
# 
# From -- ./inp_files/4711.got.cif
#   From: 2010.05.17/outbox.cif.g08.bks.cpg/sg42_3_cif.got.tgz:4711.got - 2010.06.03 19:03:34.
