data_PCOD9369572
_publ_section_title
;
Structure prediction by ZEFSAII (Michael W. Deem and Ramdas Pophale) SiO2 
 PCOD9369572
Probable space group: F M M 2
;
_chemical_formula_sum "Si O2"
_cell_formula_units_Z 104
_cell_length_a 27.812162
_cell_length_b 15.121532
_cell_length_c 10.842608
_cell_angle_alpha 90.000000
_cell_angle_beta 90.000000
_cell_angle_gamma 90.000000
_cell_volume 4559.994302
_symmetry_space_group_name_H-M "F M M 2"
_symmetry_group_IT_number 42
_symmetry_cell_setting 'orthorhombic'
loop_
_space_group_symop_operation_xyz
x,y,z
-x,-y,z
-x,y,z
x,-y,z
x,1/2+y,1/2+z
-x,1/2-y,1/2+z
-x,1/2+y,1/2+z
x,1/2-y,1/2+z
1/2+x,y,1/2+z
1/2-x,-y,1/2+z
1/2-x,y,1/2+z
1/2+x,-y,1/2+z
1/2+x,1/2+y,z
1/2-x,1/2-y,z
1/2-x,1/2+y,z
1/2+x,1/2-y,z
loop_
_atom_site_type_symbol
_atom_site_label
_atom_site_fract_x
_atom_site_fract_y
_atom_site_fract_z
Si Si1 0.944686 0.148830 0.552120
Si Si2 0.117523 0.648818 0.820664
Si Si3 0.711496 0.402052 0.616904
Si Si4 0.444560 0.637645 0.085677
Si Si5 0.893933 0.500000 0.412169
Si Si6 0.625166 0.651470 0.752504
Si Si7 0.769054 0.649344 0.851226
O O1 0.912974 0.117978 0.437501
O O2 0.941649 0.256647 0.560144
O O3 0.921210 0.115717 0.679107
O O4 0.000000 0.124133 0.539109
O O5 0.092425 0.615437 0.695989
O O6 0.114070 0.755283 0.811965
O O7 0.173960 0.633065 0.834321
O O8 0.691088 0.500000 0.598531
O O9 0.666985 0.337794 0.649666
O O10 0.744360 0.399275 0.737462
O O11 0.739832 0.377572 0.493042
O O12 0.500000 0.620120 0.120598
O O13 0.428330 0.578042 0.972031
O O14 0.860224 0.421972 0.349703
O O15 0.750000 0.750000 0.839612
#
# Coordination Sequence:
#
# PCOD9369572 Si02
#       7
#    16  16  16  16   8  16  16
#     4  10  21  40  68  98 131 178 230 277 330 405
#     4  11  22  44  68  98 134 180 234 282 335 414
#     4  12  26  47  68 103 141 178 224 289 359 421
#     4  10  23  40  65  99 139 181 224 277 343 411
#     4  12  23  42  66 102 140 176 220 284 351 414
#     4  11  23  40  70  99 137 177 223 281 344 416
#     4  12  26  45  75 101 133 183 239 290 344 416
#
# _framework density 22.807046
#
# number of rings (size 3 to 8) (size 9 to 14) (size 15 to 20)
#    0.000    0.923    5.385    1.615    0.000    3.077 
#    5.538    0.769    0.000    0.000    0.000    0.000 
#    0.000    0.000    0.000    0.000    0.000    0.000 
#
# Total GULP energy -144830.706638 kJ/mol
# GULP energy per Si atom -5570.411794 kJ/mol
# Density = 2.275514 g / cm^3
# Si number density = 22.807046 Si / 1000 Ang^3
#
#
#
# Elastic Constant Matrix: (Units=GPa)
#
#
# Indices 1 2 3 4 5 6 
#
# 1 129.0186 -18.3176 53.5372 0.0000 0.0000 0.0000
# 2 -18.3176 50.1194 6.9412 0.0000 0.0000 0.0000
# 3 53.5372 6.9412 92.5551 0.0000 0.0000 0.0000
# 4 0.0000 0.0000 0.0000 3.6588 0.0000 0.0000
# 5 0.0000 0.0000 0.0000 0.0000 42.5543 0.0000
# 6 0.0000 0.0000 0.0000 0.0000 0.0000 6.6473
#
#
#
# Elastic Compliance Matrix: (Units=1/GPa)
#
#
# Indices 1 2 3 4 5 6 
#
# 1 0.011364 0.005117 -0.006957 0.000000 0.000000 0.000000
# 2 0.005117 0.022466 -0.004645 0.000000 0.000000 0.000000
# 3 -0.006957 -0.004645 0.015177 0.000000 0.000000 0.000000
# 4 0.000000 0.000000 0.000000 0.273313 0.000000 0.000000
# 5 0.000000 0.000000 0.000000 0.000000 0.023499 0.000000
# 6 0.000000 0.000000 0.000000 0.000000 0.000000 0.150438
#
#
# Mechanical properties :
#
#
# Convention : Reuss Voigt Hill
#
# Bulk Modulus (GPa) = 27.74916 39.55718 33.65317
# Shear Modulus (GPa) = 9.59253 25.87423 17.73338
#
# Velocity S-wave (km/s) = 2.05307 3.37186 2.79146
# Velocity P-wave (km/s) = 4.22060 5.70449 5.01770
#
# Compressibility (1/GPa) = 0.03603712
#
# Stress axis : x y z
#
# Youngs Moduli (GPa) = 87.99511 44.51221 65.88905
#
# Poissons Ratio (x) = -0.22777 0.45841
# Poissons Ratio (y) = -0.45027 0.30603
# Poissons Ratio (z) = 0.61220 0.20674
#
# Static dielectric constant tensor:
#      x y z
#    x 1.839810 0.000000 0.000000 
#    y 0.000000 1.612820 0.000000 
#    z 0.000000 0.000000 1.894230 
# 
# From -- ./inp_files/10683.got.cif
#   From: 2010.05.17/outbox.cif.g08.bks.cpg/sg42_6_cif.got.tgz:10683.got - 2010.06.03 19:03:34.
