data_PCOD9369401
_publ_section_title
;
Structure prediction by ZEFSAII (Michael W. Deem and Ramdas Pophale) SiO2 
 PCOD9369401
Probable space group: F M M 2
;
_chemical_formula_sum "Si O2"
_cell_formula_units_Z 96
_cell_length_a 8.627065
_cell_length_b 19.028301
_cell_length_c 31.775311
_cell_angle_alpha 90.000000
_cell_angle_beta 90.000000
_cell_angle_gamma 90.000000
_cell_volume 5216.183882
_symmetry_space_group_name_H-M "F M M 2"
_symmetry_group_IT_number 42
_symmetry_cell_setting 'orthorhombic'
loop_
_space_group_symop_operation_xyz
x,y,z
-x,-y,z
-x,y,z
x,-y,z
x,1/2+y,1/2+z
-x,1/2-y,1/2+z
-x,1/2+y,1/2+z
x,1/2-y,1/2+z
1/2+x,y,1/2+z
1/2-x,-y,1/2+z
1/2-x,y,1/2+z
1/2+x,-y,1/2+z
1/2+x,1/2+y,z
1/2-x,1/2-y,z
1/2-x,1/2+y,z
1/2+x,1/2-y,z
loop_
_atom_site_type_symbol
_atom_site_label
_atom_site_fract_x
_atom_site_fract_y
_atom_site_fract_z
Si Si1 0.314999 0.917620 0.709710
Si Si2 0.315634 0.828869 0.286609
Si Si3 0.312727 0.828293 0.039028
Si Si4 0.185649 0.417316 0.119132
Si Si5 0.187169 0.671369 0.944617
Si Si6 0.312196 0.581351 0.364420
O O1 0.500000 0.913520 0.714320
O O2 0.236471 0.869042 0.744411
O O3 0.266274 0.895930 0.662621
O O4 0.269225 0.000000 0.715215
O O5 0.500000 0.825819 0.288796
O O6 0.250000 0.750000 0.287560
O O7 0.251472 0.873582 0.325787
O O8 0.500000 0.827453 0.039608
O O9 0.250000 0.750000 0.044841
O O10 0.260796 0.876025 0.077823
O O11 0.265270 0.851240 0.991859
O O12 0.214589 0.500000 0.113116
O O13 0.000000 0.407598 0.123834
O O14 0.250000 0.750000 0.937133
O O15 0.236500 0.618423 0.908007
O O16 0.000000 0.674693 0.943849
O O17 0.500000 0.582631 0.362635
O O18 0.263232 0.500000 0.362168
#
# Coordination Sequence:
#
# PCOD9369401 Si02
#       6
#    16  16  16  16  16  16
#     4  10  21  38  59  82 110 143 179 221 270 323
#     4  12  25  40  59  82 109 141 179 222 269 322
#     4   9  18  32  51  76 106 141 180 222 267 315
#     4   9  18  33  53  77 106 141 181 223 266 315
#     4   9  18  33  53  77 106 142 181 221 267 317
#     4  10  21  37  57  82 112 144 179 221 269 321
#
# _framework density 18.404259
#
# number of rings (size 3 to 8) (size 9 to 14) (size 15 to 20)
#    0.000    2.167    0.000    3.000    0.000    7.333 
#    0.000    5.000    0.000    0.000    0.000    7.000 
#    0.000    0.000    0.000    0.000    0.000    0.000 
#
# Total GULP energy -133988.805003 kJ/mol
# GULP energy per Si atom -5582.866875 kJ/mol
# Density = 1.836237 g / cm^3
# Si number density = 18.404259 Si / 1000 Ang^3
#
#
#
# Elastic Constant Matrix: (Units=GPa)
#
#
# Indices 1 2 3 4 5 6 
#
# 1 29.6509 37.8363 44.4273 0.0000 0.0000 0.0000
# 2 37.8363 124.3589 112.7581 0.0000 0.0000 0.0000
# 3 44.4273 112.7581 178.5673 0.0000 0.0000 0.0000
# 4 0.0000 0.0000 0.0000 42.0619 0.0000 0.0000
# 5 0.0000 0.0000 0.0000 0.0000 27.2129 0.0000
# 6 0.0000 0.0000 0.0000 0.0000 0.0000 26.5881
#
#
#
# Elastic Compliance Matrix: (Units=1/GPa)
#
#
# Indices 1 2 3 4 5 6 
#
# 1 0.059534 -0.010956 -0.007894 0.000000 0.000000 0.000000
# 2 -0.010956 0.020828 -0.010427 0.000000 0.000000 0.000000
# 3 -0.007894 -0.010427 0.014148 0.000000 0.000000 0.000000
# 4 0.000000 0.000000 0.000000 0.023775 0.000000 0.000000
# 5 0.000000 0.000000 0.000000 0.000000 0.036747 0.000000
# 6 0.000000 0.000000 0.000000 0.000000 0.000000 0.037611
#
#
# Mechanical properties :
#
#
# Convention : Reuss Voigt Hill
#
# Bulk Modulus (GPa) = 27.81023 80.29116 54.05069
# Shear Modulus (GPa) = 18.99833 28.34294 23.67064
#
# Velocity S-wave (km/s) = 3.21640 3.92857 3.59018
# Velocity P-wave (km/s) = 5.37933 8.01868 6.82775
#
# Compressibility (1/GPa) = 0.03595800
#
# Stress axis : x y z
#
# Youngs Moduli (GPa) = 16.79720 48.01125 70.68117
#
# Poissons Ratio (x) = 0.52600 0.55794
# Poissons Ratio (y) = 0.18403 0.73696
# Poissons Ratio (z) = 0.13259 0.50059
#
# Static dielectric constant tensor:
#      x y z
#    x 1.627240 0.000000 0.000000 
#    y 0.000000 1.600760 0.000000 
#    z 0.000000 0.000000 1.632000 
# 
# From -- ./inp_files/31454.got.cif
#   From: 2010.05.17/outbox.cif.g08.bks.cpg/sg42_16_cif.got.tgz:31454.got - 2010.06.03 19:03:34.
