data_PCOD9369658
_publ_section_title
;
Structure prediction by ZEFSAII (Michael W. Deem and Ramdas Pophale) SiO2 
 PCOD9369658
Probable space group: F M M 2
;
_chemical_formula_sum "Si O2"
_cell_formula_units_Z 96
_cell_length_a 18.401715
_cell_length_b 9.038132
_cell_length_c 31.892536
_cell_angle_alpha 90.000000
_cell_angle_beta 90.000000
_cell_angle_gamma 90.000000
_cell_volume 5304.275030
_symmetry_space_group_name_H-M "F M M 2"
_symmetry_group_IT_number 42
_symmetry_cell_setting 'orthorhombic'
loop_
_space_group_symop_operation_xyz
x,y,z
-x,-y,z
-x,y,z
x,-y,z
x,1/2+y,1/2+z
-x,1/2-y,1/2+z
-x,1/2+y,1/2+z
x,1/2-y,1/2+z
1/2+x,y,1/2+z
1/2-x,-y,1/2+z
1/2-x,y,1/2+z
1/2+x,-y,1/2+z
1/2+x,1/2+y,z
1/2-x,1/2-y,z
1/2-x,1/2+y,z
1/2+x,1/2-y,z
loop_
_atom_site_type_symbol
_atom_site_label
_atom_site_fract_x
_atom_site_fract_y
_atom_site_fract_z
Si Si1 0.828756 0.176985 0.370060
Si Si2 0.085499 0.676364 0.784426
Si Si3 0.411665 0.171066 0.539902
Si Si4 0.413997 0.821359 0.446603
Si Si5 0.670989 0.322193 0.708465
Si Si6 0.915713 0.177588 0.625230
O O1 0.750000 0.250000 0.365896
O O2 0.875685 0.209888 0.328480
O O3 0.869058 0.242982 0.410482
O O4 0.822219 0.000000 0.373858
O O5 0.093924 0.500000 0.776679
O O6 0.122897 0.765561 0.747111
O O7 0.000000 0.709242 0.786908
O O8 0.500000 0.175168 0.539136
O O9 0.389415 0.224077 0.493601
O O10 0.388502 0.260137 0.580830
O O11 0.390038 0.000000 0.544465
O O12 0.500000 0.787820 0.442118
O O13 0.406629 0.000000 0.444054
O O14 0.676384 0.500000 0.709533
O O15 0.750000 0.250000 0.711290
O O16 0.632102 0.277128 0.664946
O O17 0.000000 0.225358 0.631172
O O18 0.915517 0.000000 0.623292
#
# Coordination Sequence:
#
# PCOD9369658 Si02
#       6
#    16  16  16  16  16  16
#     4  11  23  38  56  80 111 145 181 221 268 322
#     4  10  22  40  61  85 110 137 175 222 269 321
#     4   8  15  29  51  79 108 138 175 220 268 317
#     4   9  18  34  56  82 111 143 182 226 270 319
#     4  11  23  38  56  80 111 146 183 222 268 321
#     4   9  18  33  53  78 107 139 179 225 269 317
#
# _framework density 18.098607999999999
#
# number of rings (size 3 to 8) (size 9 to 14) (size 15 to 20)
#    0.000    2.333    0.000    3.500    0.000    6.667 
#    0.000    4.167    0.000    2.000    0.000    0.000 
#    0.000    0.000    0.000    0.000    0.000    0.000 
#
# Total GULP energy -133948.121974 kJ/mol
# GULP energy per Si atom -5581.171749 kJ/mol
# Density = 1.805741 g / cm^3
# Si number density = 18.098608 Si / 1000 Ang^3
#
#
#
# Elastic Constant Matrix: (Units=GPa)
#
#
# Indices 1 2 3 4 5 6 
#
# 1 112.6702 53.8785 90.3669 0.0000 0.0000 0.0000
# 2 53.8785 43.6145 72.0967 0.0000 0.0000 0.0000
# 3 90.3669 72.0967 189.5264 0.0000 0.0000 0.0000
# 4 0.0000 0.0000 0.0000 35.8277 0.0000 0.0000
# 5 0.0000 0.0000 0.0000 0.0000 -17.9413 0.0000
# 6 0.0000 0.0000 0.0000 0.0000 0.0000 20.1618
#
#
#
# Elastic Compliance Matrix: (Units=1/GPa)
#
#
# Indices 1 2 3 4 5 6 
#
# 1 0.021698 -0.026139 -0.000402 0.000000 0.000000 0.000000
# 2 -0.026139 0.093263 -0.023014 0.000000 0.000000 0.000000
# 3 -0.000402 -0.023014 0.014223 0.000000 0.000000 0.000000
# 4 0.000000 0.000000 0.000000 0.027911 0.000000 0.000000
# 5 0.000000 0.000000 0.000000 0.000000 -0.055737 0.000000
# 6 0.000000 0.000000 0.000000 0.000000 0.000000 0.049599
#
#
# Mechanical properties :
#
#
# Convention : Reuss Voigt Hill
#
# Bulk Modulus (GPa) = 33.25375 86.49949 59.87662
# Shear Modulus (GPa) = 19.22407 16.24091 17.73249
#
# Velocity S-wave (km/s) = 3.26265 2.99884 3.13352
# Velocity P-wave (km/s) = 5.71023 7.73873 6.80054
#
# Compressibility (1/GPa) = 0.03007180
#
# Stress axis : x y z
#
# Youngs Moduli (GPa) = 46.08794 10.72241 70.31034
#
# Poissons Ratio (x) = 0.28028 0.02826
# Poissons Ratio (y) = 1.20471 1.61813
# Poissons Ratio (z) = 0.01853 0.24677
#
# Static dielectric constant tensor:
#      x y z
#    x 1.599790 0.000000 0.000000 
#    y 0.000000 1.604570 0.000000 
#    z 0.000000 0.000000 1.609590 
# 
# From -- ./inp_files/31451.got.cif
#   From: 2010.05.17/outbox.cif.g08.bks.cpg/sg42_16_cif.got.tgz:31451.got - 2010.06.03 19:03:34.
