data_PCOD9369534
_publ_section_title
;
Structure prediction by ZEFSAII (Michael W. Deem and Ramdas Pophale) SiO2 
 PCOD9369534
Probable space group: F M M 2
;
_chemical_formula_sum "Si O2"
_cell_formula_units_Z 80
_cell_length_a 16.691434
_cell_length_b 11.349170
_cell_length_c 20.253398
_cell_angle_alpha 90.000000
_cell_angle_beta 90.000000
_cell_angle_gamma 90.000000
_cell_volume 3836.680617
_symmetry_space_group_name_H-M "F M M 2"
_symmetry_group_IT_number 42
_symmetry_cell_setting 'orthorhombic'
loop_
_space_group_symop_operation_xyz
x,y,z
-x,-y,z
-x,y,z
x,-y,z
x,1/2+y,1/2+z
-x,1/2-y,1/2+z
-x,1/2+y,1/2+z
x,1/2-y,1/2+z
1/2+x,y,1/2+z
1/2-x,-y,1/2+z
1/2-x,y,1/2+z
1/2+x,-y,1/2+z
1/2+x,1/2+y,z
1/2-x,1/2-y,z
1/2-x,1/2+y,z
1/2+x,1/2-y,z
loop_
_atom_site_type_symbol
_atom_site_label
_atom_site_fract_x
_atom_site_fract_y
_atom_site_fract_z
Si Si1 0.905402 0.000000 0.157851
Si Si2 0.597391 0.241639 0.318536
Si Si3 0.905964 0.500000 0.815920
Si Si4 0.311426 0.137835 0.434692
Si Si5 0.657408 0.785353 0.575369
Si Si6 0.095550 0.130115 0.682068
O O1 0.900973 0.000000 0.236536
O O2 0.863477 0.888629 0.125761
O O3 0.000000 0.000000 0.141026
O O4 0.500000 0.241212 0.320517
O O5 0.626642 0.373578 0.337525
O O6 0.633648 0.150715 0.370249
O O7 0.623018 0.209968 0.243771
O O8 0.000000 0.500000 0.834041
O O9 0.250000 0.250000 0.430657
O O10 0.360178 0.168951 0.501902
O O11 0.282323 0.000000 0.440268
O O12 0.750000 0.750000 0.576614
O O13 0.612704 0.676096 0.608742
O O14 0.000000 0.125859 0.688997
O O15 0.129970 0.000000 0.690772
#
# Coordination Sequence:
#
# PCOD9369534 Si02
#       6
#     8  16   8  16  16  16
#     4  11  20  40  69  94 123 164 219 270 314 380
#     4  10  21  40  65  94 126 165 214 268 322 381
#     4   9  18  36  63  92 126 164 207 266 329 376
#     4  11  26  45  64  90 127 173 212 261 326 387
#     4  11  24  40  63  91 127 164 211 263 326 382
#     4  10  21  39  63  92 127 165 207 264 324 383
#
# _framework density 20.851358000000001
#
# number of rings (size 3 to 8) (size 9 to 14) (size 15 to 20)
#    0.000    1.600    3.000    1.200    2.800    4.400 
#    0.000    0.000    0.000    0.000    0.000    0.000 
#    0.000    0.000    0.000    0.000    0.000    0.000 
#
# Total GULP energy -111468.870887 kJ/mol
# GULP energy per Si atom -5573.443544 kJ/mol
# Density = 2.080390 g / cm^3
# Si number density = 20.851358 Si / 1000 Ang^3
#
#
#
# Elastic Constant Matrix: (Units=GPa)
#
#
# Indices 1 2 3 4 5 6 
#
# 1 13.4430 18.1593 18.8065 0.0000 0.0000 0.0000
# 2 18.1593 137.1935 41.2085 0.0000 0.0000 0.0000
# 3 18.8065 41.2085 84.5051 0.0000 0.0000 0.0000
# 4 0.0000 0.0000 0.0000 7.9621 0.0000 0.0000
# 5 0.0000 0.0000 0.0000 0.0000 34.7833 0.0000
# 6 0.0000 0.0000 0.0000 0.0000 0.0000 28.1803
#
#
#
# Elastic Compliance Matrix: (Units=1/GPa)
#
#
# Indices 1 2 3 4 5 6 
#
# 1 0.116718 -0.008959 -0.021607 0.000000 0.000000 0.000000
# 2 -0.008959 0.009228 -0.002506 0.000000 0.000000 0.000000
# 3 -0.021607 -0.002506 0.017864 0.000000 0.000000 0.000000
# 4 0.000000 0.000000 0.000000 0.125594 0.000000 0.000000
# 5 0.000000 0.000000 0.000000 0.000000 0.028749 0.000000
# 6 0.000000 0.000000 0.000000 0.000000 0.000000 0.035486
#
#
# Mechanical properties :
#
#
# Convention : Reuss Voigt Hill
#
# Bulk Modulus (GPa) = 12.87561 43.49891 28.18726
# Shear Modulus (GPa) = 11.74616 24.64965 18.19790
#
# Velocity S-wave (km/s) = 2.37603 3.44199 2.95743
# Velocity P-wave (km/s) = 3.70347 6.05831 5.02090
#
# Compressibility (1/GPa) = 0.07766623
#
# Stress axis : x y z
#
# Youngs Moduli (GPa) = 8.56767 108.37150 55.97811
#
# Poissons Ratio (x) = 0.97091 1.20950
# Poissons Ratio (y) = 0.07676 0.14028
# Poissons Ratio (z) = 0.18512 0.27157
#
# Static dielectric constant tensor:
#      x y z
#    x 1.721920 0.000000 0.000000 
#    y 0.000000 1.824840 0.000000 
#    z 0.000000 0.000000 1.717220 
# 
# From -- ./inp_files/21492.got.cif
#   From: 2010.05.17/outbox.cif.g08.bks.cpg/sg42_11_cif.got.tgz:21492.got - 2010.06.03 19:03:34.
