data_PCOD9369956
_publ_section_title
;
Structure prediction by ZEFSAII (Michael W. Deem and Ramdas Pophale) SiO2 
 PCOD9369956
Probable space group: F M M 2
;
_chemical_formula_sum "Si O2"
_cell_formula_units_Z 112
_cell_length_a 15.219429
_cell_length_b 14.427637
_cell_length_c 25.960102
_cell_angle_alpha 90.000000
_cell_angle_beta 90.000000
_cell_angle_gamma 90.000000
_cell_volume 5700.329502
_symmetry_space_group_name_H-M "F M M 2"
_symmetry_group_IT_number 42
_symmetry_cell_setting 'orthorhombic'
loop_
_space_group_symop_operation_xyz
x,y,z
-x,-y,z
-x,y,z
x,-y,z
x,1/2+y,1/2+z
-x,1/2-y,1/2+z
-x,1/2+y,1/2+z
x,1/2-y,1/2+z
1/2+x,y,1/2+z
1/2-x,-y,1/2+z
1/2-x,y,1/2+z
1/2+x,-y,1/2+z
1/2+x,1/2+y,z
1/2-x,1/2-y,z
1/2-x,1/2+y,z
1/2+x,1/2-y,z
loop_
_atom_site_type_symbol
_atom_site_label
_atom_site_fract_x
_atom_site_fract_y
_atom_site_fract_z
Si Si1 0.000000 0.389286 0.573491
Si Si2 0.395611 0.604486 0.810565
Si Si3 0.659169 0.788590 0.515051
Si Si4 0.000000 0.390421 0.697627
Si Si5 0.602251 0.889357 0.422358
Si Si6 0.604622 0.402252 0.507886
Si Si7 0.894328 0.101305 0.628865
Si Si8 0.352983 0.239621 0.217219
O O1 0.914298 0.333064 0.552611
O O2 0.000000 0.500000 0.557260
O O3 0.000000 0.387985 0.635208
O O4 0.500000 0.595638 0.817823
O O5 0.360559 0.500000 0.800945
O O6 0.365181 0.642640 0.866124
O O7 0.383088 0.671393 0.762678
O O8 0.750000 0.750000 0.538550
O O9 0.665184 0.862197 0.469224
O O10 0.627100 0.696324 0.485290
O O11 0.085770 0.331317 0.715635
O O12 0.000000 0.500000 0.712652
O O13 0.500000 0.858944 0.433187
O O14 0.598694 0.000000 0.418796
O O15 0.500000 0.408014 0.506590
O O16 0.640658 0.500000 0.487773
O O17 0.628898 0.394606 0.568652
O O18 0.863254 0.185460 0.663184
O O19 0.000000 0.102509 0.631448
O O20 0.864200 0.000000 0.648590
O O21 0.250000 0.250000 0.225317
#
# Coordination Sequence:
#
# PCOD9369956 Si02
#       8
#     8  16  16   8  16  16  16  16
#     4  11  24  44  64  83 119 169 216 258 302 357
#     4   9  18  36  65  94 114 141 195 261 308 351
#     4  12  23  35  60  91 120 158 204 249 300 361
#     4  11  26  44  58  83 129 173 204 246 308 375
#     4   9  18  36  63  92 119 151 197 251 305 359
#     4   9  18  33  52  76 110 151 188 233 289 342
#     4   9  17  32  56  80 104 138 190 250 296 327
#     4  12  23  36  60  88 118 159 203 245 304 375
#
# _framework density 19.647988000000002
#
# number of rings (size 3 to 8) (size 9 to 14) (size 15 to 20)
#    0.000    1.857    2.857    3.429    0.000    6.286 
#    0.000    2.857    0.000    0.857    0.000    0.000 
#    0.000    0.000    0.000    0.000    0.000    0.000 
#
# Total GULP energy -155923.608004 kJ/mol
# GULP energy per Si atom -5568.700286 kJ/mol
# Density = 1.960327 g / cm^3
# Si number density = 19.647988 Si / 1000 Ang^3
#
#
#
# Elastic Constant Matrix: (Units=GPa)
#
#
# Indices 1 2 3 4 5 6 
#
# 1 80.9572 37.1181 9.2482 0.0000 0.0000 0.0000
# 2 37.1181 99.1862 3.6569 0.0000 0.0000 0.0000
# 3 9.2482 3.6569 39.2684 0.0000 0.0000 0.0000
# 4 0.0000 0.0000 0.0000 32.3438 0.0000 0.0000
# 5 0.0000 0.0000 0.0000 0.0000 -15.6980 0.0000
# 6 0.0000 0.0000 0.0000 0.0000 0.0000 13.6381
#
#
#
# Elastic Compliance Matrix: (Units=1/GPa)
#
#
# Indices 1 2 3 4 5 6 
#
# 1 0.015272 -0.005602 -0.003075 0.000000 0.000000 0.000000
# 2 -0.005602 0.012172 0.000186 0.000000 0.000000 0.000000
# 3 -0.003075 0.000186 0.026173 0.000000 0.000000 0.000000
# 4 0.000000 0.000000 0.000000 0.030918 0.000000 0.000000
# 5 0.000000 0.000000 0.000000 0.000000 -0.063702 0.000000
# 6 0.000000 0.000000 0.000000 0.000000 0.000000 0.073324
#
#
# Mechanical properties :
#
#
# Convention : Reuss Voigt Hill
#
# Bulk Modulus (GPa) = 27.29698 35.49532 31.39615
# Shear Modulus (GPa) = 40.53539 17.34935 28.94237
#
# Velocity S-wave (km/s) = 4.54704 2.97477 3.84219
# Velocity P-wave (km/s) = 6.44132 5.46844 5.97472
#
# Compressibility (1/GPa) = 0.03663408
#
# Stress axis : x y z
#
# Youngs Moduli (GPa) = 65.48001 82.15900 38.20776
#
# Poissons Ratio (x) = 0.46023 0.11749
# Poissons Ratio (y) = 0.36680 -0.00710
# Poissons Ratio (z) = 0.20135 -0.01527
#
# Static dielectric constant tensor:
#      x y z
#    x 1.752480 0.000000 0.000000 
#    y 0.000000 1.724160 0.000000 
#    z 0.000000 0.000000 1.687060 
# 
# From -- ./inp_files/32637.got.cif
#   From: 2010.05.17/outbox.cif.g08.bks.cpg/sg42_17_cif.got.tgz:32637.got - 2010.06.03 19:03:34.
