data_PCOD9369767
_publ_section_title
;
Structure prediction by ZEFSAII (Michael W. Deem and Ramdas Pophale) SiO2 
 PCOD9369767
Probable space group: F M M 2
;
_chemical_formula_sum "Si O2"
_cell_formula_units_Z 72
_cell_length_a 14.705722
_cell_length_b 10.061179
_cell_length_c 23.144817
_cell_angle_alpha 90.000000
_cell_angle_beta 90.000000
_cell_angle_gamma 90.000000
_cell_volume 3424.435406
_symmetry_space_group_name_H-M "F M M 2"
_symmetry_group_IT_number 42
_symmetry_cell_setting 'orthorhombic'
loop_
_space_group_symop_operation_xyz
x,y,z
-x,-y,z
-x,y,z
x,-y,z
x,1/2+y,1/2+z
-x,1/2-y,1/2+z
-x,1/2+y,1/2+z
x,1/2-y,1/2+z
1/2+x,y,1/2+z
1/2-x,-y,1/2+z
1/2-x,y,1/2+z
1/2+x,-y,1/2+z
1/2+x,1/2+y,z
1/2-x,1/2-y,z
1/2-x,1/2+y,z
1/2+x,1/2-y,z
loop_
_atom_site_type_symbol
_atom_site_label
_atom_site_fract_x
_atom_site_fract_y
_atom_site_fract_z
Si Si1 0.891175 0.145995 0.008620
Si Si2 0.098994 0.647319 0.782895
Si Si3 0.161533 0.341682 0.375619
Si Si4 0.893182 0.847441 0.607702
Si Si5 0.250000 0.250000 0.699724
O O1 0.862603 0.255059 0.054648
O O2 0.000000 0.140622 0.013059
O O3 0.853422 0.000000 0.023572
O O4 0.870461 0.172266 0.941712
O O5 0.105312 0.500000 0.810879
O O6 0.100269 0.768071 0.828251
O O7 0.184493 0.663093 0.740605
O O8 0.000000 0.651366 0.752706
O O9 0.172243 0.500000 0.364189
O O10 0.250000 0.250000 0.371189
O O11 0.822679 0.826067 0.659716
O O12 0.000000 0.817054 0.622605
O O13 0.891143 0.000000 0.589393
#
# Coordination Sequence:
#
# PCOD9369767 Si02
#       5
#    16  16  16  16   8
#     4   9  20  40  64  92 127 167 209 257 320 385
#     4  11  25  44  67  96 130 171 219 271 326 385
#     4  11  23  40  65  97 132 169 211 263 325 390
#     4  10  23  42  65  95 129 169 219 268 317 376
#     4  12  24  42  66  94 128 174 216 272 322 386
#
# _framework density 21.025362999999999
#
# number of rings (size 3 to 8) (size 9 to 14) (size 15 to 20)
#    0.000    1.556    1.111    2.667    1.556    5.778 
#    0.000    4.444    0.000    0.000    0.000    0.000 
#    0.000    0.000    0.000    0.000    0.000    0.000 
#
# Total GULP energy -100418.476465 kJ/mol
# GULP energy per Si atom -5578.804248 kJ/mol
# Density = 2.097751 g / cm^3
# Si number density = 21.025363 Si / 1000 Ang^3
#
#
#
# Elastic Constant Matrix: (Units=GPa)
#
#
# Indices 1 2 3 4 5 6 
#
# 1 125.6385 52.9053 44.1073 0.0000 0.0000 0.0000
# 2 52.9053 163.9087 83.4016 0.0000 0.0000 0.0000
# 3 44.1073 83.4016 103.2194 0.0000 0.0000 0.0000
# 4 0.0000 0.0000 0.0000 -33.7453 0.0000 0.0000
# 5 0.0000 0.0000 0.0000 0.0000 35.0155 0.0000
# 6 0.0000 0.0000 0.0000 0.0000 0.0000 13.0938
#
#
#
# Elastic Compliance Matrix: (Units=1/GPa)
#
#
# Indices 1 2 3 4 5 6 
#
# 1 0.009643 -0.001725 -0.002727 0.000000 0.000000 0.000000
# 2 -0.001725 0.010669 -0.007884 0.000000 0.000000 0.000000
# 3 -0.002727 -0.007884 0.017223 0.000000 0.000000 0.000000
# 4 0.000000 0.000000 0.000000 -0.029634 0.000000 0.000000
# 5 0.000000 0.000000 0.000000 0.000000 0.028559 0.000000
# 6 0.000000 0.000000 0.000000 0.000000 0.000000 0.076372
#
#
# Mechanical properties :
#
#
# Convention : Reuss Voigt Hill
#
# Bulk Modulus (GPa) = 77.73245 83.73276 80.73261
# Shear Modulus (GPa) = 35.26307 17.02963 26.14635
#
# Velocity S-wave (km/s) = 4.09977 2.84906 3.53024
# Velocity P-wave (km/s) = 7.71115 7.12278 7.42280
#
# Compressibility (1/GPa) = 0.01286464
#
# Stress axis : x y z
#
# Youngs Moduli (GPa) = 103.70198 93.72821 58.06105
#
# Poissons Ratio (x) = 0.16168 0.15832
# Poissons Ratio (y) = 0.17889 0.45773
# Poissons Ratio (z) = 0.28277 0.73891
#
# Static dielectric constant tensor:
#      x y z
#    x 1.834650 0.000000 0.000000 
#    y 0.000000 1.754370 0.000000 
#    z 0.000000 0.000000 1.756110 
# 
# From -- ./inp_files/31054.got.cif
#   From: 2010.05.17/outbox.cif.g08.bks.cpg/sg42_16_cif.got.tgz:31054.got - 2010.06.03 19:03:34.
