data_PCOD9369110
_publ_section_title
;
Structure prediction by ZEFSAII (Michael W. Deem and Ramdas Pophale) SiO2 
 PCOD9369110
Probable space group: F M M 2
;
_chemical_formula_sum "Si O2"
_cell_formula_units_Z 112
_cell_length_a 14.524956
_cell_length_b 24.001617
_cell_length_c 13.712072
_cell_angle_alpha 90.000000
_cell_angle_beta 90.000000
_cell_angle_gamma 90.000000
_cell_volume 4780.335873
_symmetry_space_group_name_H-M "F M M 2"
_symmetry_group_IT_number 42
_symmetry_cell_setting 'orthorhombic'
loop_
_space_group_symop_operation_xyz
x,y,z
-x,-y,z
-x,y,z
x,-y,z
x,1/2+y,1/2+z
-x,1/2-y,1/2+z
-x,1/2+y,1/2+z
x,1/2-y,1/2+z
1/2+x,y,1/2+z
1/2-x,-y,1/2+z
1/2-x,y,1/2+z
1/2+x,-y,1/2+z
1/2+x,1/2+y,z
1/2-x,1/2-y,z
1/2-x,1/2+y,z
1/2+x,1/2-y,z
loop_
_atom_site_type_symbol
_atom_site_label
_atom_site_fract_x
_atom_site_fract_y
_atom_site_fract_z
Si Si1 0.862916 0.872478 0.202080
Si Si2 0.894993 0.560276 0.090683
Si Si3 0.393218 0.435785 0.006081
Si Si4 0.857438 0.738917 0.611045
Si Si5 0.607975 0.142791 0.918772
Si Si6 0.852702 0.654737 0.208573
Si Si7 0.311263 0.174824 0.419952
O O1 0.889759 0.916368 0.119581
O O2 0.898598 0.810245 0.176358
O O3 0.889008 0.886079 0.312183
O O4 0.753680 0.862426 0.192164
O O5 0.848880 0.500000 0.098051
O O6 0.896572 0.594899 0.190631
O O7 0.000000 0.552464 0.062676
O O8 0.862502 0.600655 0.004812
O O9 0.500000 0.431513 0.974981
O O10 0.363726 0.500000 0.994553
O O11 0.335183 0.389000 0.949286
O O12 0.750000 0.750000 0.637347
O O13 0.893754 0.800472 0.632382
O O14 0.855717 0.712930 0.503493
O O15 0.500000 0.161614 0.932022
O O16 0.699857 0.182386 0.914647
O O17 0.855436 0.682464 0.314151
#
# Coordination Sequence:
#
# PCOD9369110 Si02
#       7
#    16  16  16  16  16  16  16
#     4   9  19  35  58  88 121 155 194 240 294 354
#     4  10  22  39  57  80 115 158 205 255 300 350
#     4  10  21  38  61  89 122 159 199 247 301 355
#     4   9  18  35  60  86 117 156 192 237 295 352
#     4  10  20  36  59  87 121 160 201 245 294 349
#     4  10  21  37  60  87 116 158 201 243 300 359
#     4  10  22  38  60  90 121 156 200 246 298 358
#
# _framework density 23.429317000000001
#
# number of rings (size 3 to 8) (size 9 to 14) (size 15 to 20)
#    0.000    2.286    0.000    3.000    0.000    8.000 
#    0.000    9.286    0.000   22.286    0.000    0.000 
#    0.000    0.000    0.000    0.000    0.000    0.000 
#
# Total GULP energy -156116.649029 kJ/mol
# GULP energy per Si atom -5575.594608 kJ/mol
# Density = 2.337599 g / cm^3
# Si number density = 23.429317 Si / 1000 Ang^3
#
#
#
# Elastic Constant Matrix: (Units=GPa)
#
#
# Indices 1 2 3 4 5 6 
#
# 1 83.8709 0.6537 23.7905 0.0000 0.0000 0.0000
# 2 0.6537 119.9864 39.5156 0.0000 0.0000 0.0000
# 3 23.7905 39.5156 94.5588 0.0000 0.0000 0.0000
# 4 0.0000 0.0000 0.0000 14.1057 0.0000 0.0000
# 5 0.0000 0.0000 0.0000 0.0000 7.1255 0.0000
# 6 0.0000 0.0000 0.0000 0.0000 0.0000 38.8497
#
#
#
# Elastic Compliance Matrix: (Units=1/GPa)
#
#
# Indices 1 2 3 4 5 6 
#
# 1 0.012978 0.001165 -0.003752 0.000000 0.000000 0.000000
# 2 0.001165 0.009769 -0.004375 0.000000 0.000000 0.000000
# 3 -0.003752 -0.004375 0.013348 0.000000 0.000000 0.000000
# 4 0.000000 0.000000 0.000000 0.070893 0.000000 0.000000
# 5 0.000000 0.000000 0.000000 0.000000 0.140340 0.000000
# 6 0.000000 0.000000 0.000000 0.000000 0.000000 0.025740
#
#
# Mechanical properties :
#
#
# Convention : Reuss Voigt Hill
#
# Bulk Modulus (GPa) = 45.10610 47.37063 46.23836
# Shear Modulus (GPa) = 16.98461 27.64661 22.31561
#
# Velocity S-wave (km/s) = 2.69537 3.43884 3.08955
# Velocity P-wave (km/s) = 5.38335 6.00249 5.70133
#
# Compressibility (1/GPa) = 0.02216995
#
# Stress axis : x y z
#
# Youngs Moduli (GPa) = 77.05164 102.36538 74.91798
#
# Poissons Ratio (x) = -0.11925 0.28110
# Poissons Ratio (y) = -0.08976 0.32780
# Poissons Ratio (z) = 0.28911 0.44790
#
# Static dielectric constant tensor:
#      x y z
#    x 1.971470 0.000000 0.000000 
#    y 0.000000 1.984400 0.000000 
#    z 0.000000 0.000000 1.883510 
# 
# From -- ./inp_files/14224.got.cif
#   From: 2010.05.17/outbox.cif.g08.bks.cpg/sg42_8_cif.got.tgz:14224.got - 2010.06.03 19:03:34.
