data_PCOD9369323
_publ_section_title
;
Structure prediction by ZEFSAII (Michael W. Deem and Ramdas Pophale) SiO2 
 PCOD9369323
Probable space group: F M M 2
;
_chemical_formula_sum "Si O2"
_cell_formula_units_Z 80
_cell_length_a 7.593917
_cell_length_b 27.108169
_cell_length_c 20.742584
_cell_angle_alpha 90.000000
_cell_angle_beta 90.000000
_cell_angle_gamma 90.000000
_cell_volume 4270.009960
_symmetry_space_group_name_H-M "F M M 2"
_symmetry_group_IT_number 42
_symmetry_cell_setting 'orthorhombic'
loop_
_space_group_symop_operation_xyz
x,y,z
-x,-y,z
-x,y,z
x,-y,z
x,1/2+y,1/2+z
-x,1/2-y,1/2+z
-x,1/2+y,1/2+z
x,1/2-y,1/2+z
1/2+x,y,1/2+z
1/2-x,-y,1/2+z
1/2-x,y,1/2+z
1/2+x,-y,1/2+z
1/2+x,1/2+y,z
1/2-x,1/2-y,z
1/2-x,1/2+y,z
1/2+x,1/2-y,z
loop_
_atom_site_type_symbol
_atom_site_label
_atom_site_fract_x
_atom_site_fract_y
_atom_site_fract_z
Si Si1 0.709417 0.191372 0.401940
Si Si2 0.796038 0.629921 0.776281
Si Si3 0.713776 0.368035 0.031603
Si Si4 0.500000 0.558650 0.736047
Si Si5 0.000000 0.441173 0.080212
Si Si6 0.709167 0.306946 0.155987
O O1 0.500000 0.187711 0.395990
O O2 0.750000 0.250000 0.404677
O O3 0.786637 0.162423 0.340850
O O4 0.759700 0.161197 0.466269
O O5 0.669089 0.583067 0.770686
O O6 0.726298 0.664999 0.718896
O O7 0.000000 0.616126 0.765231
O O8 0.500000 0.376409 0.032561
O O9 0.767091 0.332108 0.090245
O O10 0.828998 0.416457 0.046349
O O11 0.500000 0.500000 0.743105
O O12 0.500000 0.568873 0.658112
O O13 0.000000 0.500000 0.072440
O O14 0.500000 0.312113 0.157310
O O15 0.750000 0.250000 0.157880
#
# Coordination Sequence:
#
# PCOD9369323 Si02
#       6
#    16  16  16   8   8  16
#     4  11  23  39  63  95 134 175 209 251 314 381
#     4  11  23  41  62  91 129 164 208 261 310 377
#     4  10  23  41  60  91 130 162 206 260 307 374
#     4  11  24  44  69  94 120 161 214 271 325 371
#     4  11  24  42  71  94 116 163 212 267 325 371
#     4  10  21  34  56  88 121 160 200 244 304 365
#
# _framework density 18.735319
#
# number of rings (size 3 to 8) (size 9 to 14) (size 15 to 20)
#    0.000    1.400    3.000    1.800    5.600    2.400 
#    0.000    3.000    0.000    0.000    0.000    0.000 
#    0.000    0.000    0.000    0.000    0.000    0.000 
#
# Total GULP energy -111621.550579 kJ/mol
# GULP energy per Si atom -5581.077529 kJ/mol
# Density = 1.869268 g / cm^3
# Si number density = 18.735319 Si / 1000 Ang^3
#
#
#
# Elastic Constant Matrix: (Units=GPa)
#
#
# Indices 1 2 3 4 5 6 
#
# 1 95.4839 56.2571 36.5504 0.0000 0.0000 0.0000
# 2 56.2571 154.3472 64.9179 0.0000 0.0000 0.0000
# 3 36.5504 64.9179 135.8395 0.0000 0.0000 0.0000
# 4 0.0000 0.0000 0.0000 29.5107 0.0000 0.0000
# 5 0.0000 0.0000 0.0000 0.0000 26.3227 0.0000
# 6 0.0000 0.0000 0.0000 0.0000 0.0000 27.9201
#
#
#
# Elastic Compliance Matrix: (Units=1/GPa)
#
#
# Indices 1 2 3 4 5 6 
#
# 1 0.013615 -0.004282 -0.001617 0.000000 0.000000 0.000000
# 2 -0.004282 0.009456 -0.003367 0.000000 0.000000 0.000000
# 3 -0.001617 -0.003367 0.009406 0.000000 0.000000 0.000000
# 4 0.000000 0.000000 0.000000 0.033886 0.000000 0.000000
# 5 0.000000 0.000000 0.000000 0.000000 0.037990 0.000000
# 6 0.000000 0.000000 0.000000 0.000000 0.000000 0.035817
#
#
# Mechanical properties :
#
#
# Convention : Reuss Voigt Hill
#
# Bulk Modulus (GPa) = 71.71250 77.90239 74.80744
# Shear Modulus (GPa) = 30.60934 31.94705 31.27819
#
# Velocity S-wave (km/s) = 4.04639 4.13386 4.09036
# Velocity P-wave (km/s) = 7.75827 8.02844 7.89451
#
# Compressibility (1/GPa) = 0.01394457
#
# Stress axis : x y z
#
# Youngs Moduli (GPa) = 73.44850 105.75543 106.31967
#
# Poissons Ratio (x) = 0.45289 0.17190
# Poissons Ratio (y) = 0.31454 0.35794
# Poissons Ratio (z) = 0.11875 0.35604
#
# Static dielectric constant tensor:
#      x y z
#    x 1.629160 0.000000 0.000000 
#    y 0.000000 1.565300 0.000000 
#    z 0.000000 0.000000 1.665700 
# 
# From -- ./inp_files/23453.got.cif
#   From: 2010.05.17/outbox.cif.g08.bks.cpg/sg42_12_cif.got.tgz:23453.got - 2010.06.03 19:03:34.
