data_PCOD9369560
_publ_section_title
;
Structure prediction by ZEFSAII (Michael W. Deem and Ramdas Pophale) SiO2 
 PCOD9369560
Probable space group: F M M 2
;
_chemical_formula_sum "Si O2"
_cell_formula_units_Z 72
_cell_length_a 17.308446
_cell_length_b 22.207782
_cell_length_c 8.183363
_cell_angle_alpha 90.000000
_cell_angle_beta 90.000000
_cell_angle_gamma 90.000000
_cell_volume 3145.539037
_symmetry_space_group_name_H-M "F M M 2"
_symmetry_group_IT_number 42
_symmetry_cell_setting 'orthorhombic'
loop_
_space_group_symop_operation_xyz
x,y,z
-x,-y,z
-x,y,z
x,-y,z
x,1/2+y,1/2+z
-x,1/2-y,1/2+z
-x,1/2+y,1/2+z
x,1/2-y,1/2+z
1/2+x,y,1/2+z
1/2-x,-y,1/2+z
1/2-x,y,1/2+z
1/2+x,-y,1/2+z
1/2+x,1/2+y,z
1/2-x,1/2-y,z
1/2-x,1/2+y,z
1/2+x,1/2-y,z
loop_
_atom_site_type_symbol
_atom_site_label
_atom_site_fract_x
_atom_site_fract_y
_atom_site_fract_z
Si Si1 0.500000 0.887872 0.641840
Si Si2 0.000000 0.731092 0.419545
Si Si3 0.663214 0.430785 0.164474
Si Si4 0.500000 0.368496 0.527283
Si Si5 0.367718 0.322120 0.714775
Si Si6 0.728569 0.857499 0.944926
O O1 0.500000 0.821556 0.557777
O O2 0.579677 0.918653 0.585159
O O3 0.500000 0.894136 0.842499
O O4 0.000000 0.796918 0.492001
O O5 0.074482 0.722748 0.304191
O O6 0.669094 0.500000 0.212418
O O7 0.669716 0.385187 0.315768
O O8 0.736155 0.410942 0.055653
O O9 0.424095 0.375273 0.642872
O O10 0.315317 0.308734 0.555879
O O11 0.303426 0.335692 0.849150
#
# Coordination Sequence:
#
# PCOD9369560 Si02
#       6
#     8   8  16   8  16  16
#     4  12  21  40  62  90 128 158 207 262 302 368
#     4  11  23  42  65  87 119 166 212 250 311 376
#     4  11  22  38  63  92 125 167 208 250 311 371
#     4  11  23  42  65  87 119 166 212 250 311 376
#     4  10  21  41  63  89 121 162 202 252 314 362
#     4  10  21  40  65  86 126 164 201 256 307 366
#
# _framework density 22.889558000000001
#
# number of rings (size 3 to 8) (size 9 to 14) (size 15 to 20)
#    0.000    1.333    4.444    2.333    0.000    0.000 
#    0.000    3.333    0.000    2.667    0.000    0.000 
#    0.000    0.000    0.000    0.000    0.000    0.000 
#
# Total GULP energy -100387.536332 kJ/mol
# GULP energy per Si atom -5577.085352 kJ/mol
# Density = 2.283746 g / cm^3
# Si number density = 22.889558 Si / 1000 Ang^3
#
#
#
# Elastic Constant Matrix: (Units=GPa)
#
#
# Indices 1 2 3 4 5 6 
#
# 1 157.6651 10.3683 28.8518 0.0000 0.0000 0.0000
# 2 10.3683 43.4463 8.0898 0.0000 0.0000 0.0000
# 3 28.8518 8.0898 75.0902 0.0000 0.0000 0.0000
# 4 0.0000 0.0000 0.0000 10.7513 0.0000 0.0000
# 5 0.0000 0.0000 0.0000 0.0000 52.8472 0.0000
# 6 0.0000 0.0000 0.0000 0.0000 0.0000 2.9126
#
#
#
# Elastic Compliance Matrix: (Units=1/GPa)
#
#
# Indices 1 2 3 4 5 6 
#
# 1 0.006880 -0.001173 -0.002517 0.000000 0.000000 0.000000
# 2 -0.001173 0.023688 -0.002101 0.000000 0.000000 0.000000
# 3 -0.002517 -0.002101 0.014511 0.000000 0.000000 0.000000
# 4 0.000000 0.000000 0.000000 0.093012 0.000000 0.000000
# 5 0.000000 0.000000 0.000000 0.000000 0.018922 0.000000
# 6 0.000000 0.000000 0.000000 0.000000 0.000000 0.343342
#
#
# Mechanical properties :
#
#
# Convention : Reuss Voigt Hill
#
# Bulk Modulus (GPa) = 29.85432 41.20238 35.52835
# Shear Modulus (GPa) = 9.55832 28.56164 19.05998
#
# Velocity S-wave (km/s) = 2.04571 3.53626 2.88877
# Velocity P-wave (km/s) = 4.31868 5.89178 5.16546
#
# Compressibility (1/GPa) = 0.03349599
#
# Stress axis : x y z
#
# Youngs Moduli (GPa) = 145.34137 42.21513 68.91375
#
# Poissons Ratio (x) = 0.04953 0.17347
# Poissons Ratio (y) = 0.17052 0.14480
# Poissons Ratio (z) = 0.36586 0.08870
#
# Static dielectric constant tensor:
#      x y z
#    x 1.911740 0.000000 0.000000 
#    y 0.000000 1.809430 0.000000 
#    z 0.000000 0.000000 1.941380 
# 
# From -- ./inp_files/2865.got.cif
#   From: 2010.05.17/outbox.cif.g08.bks.cpg/sg42_2_cif.got.tgz:2865.got - 2010.06.03 19:03:34.
