data_PCOD9369594
_publ_section_title
;
Structure prediction by ZEFSAII (Michael W. Deem and Ramdas Pophale) SiO2 
 PCOD9369594
Probable space group: F M M 2
;
_chemical_formula_sum "Si O2"
_cell_formula_units_Z 84
_cell_length_a 18.093351
_cell_length_b 14.588374
_cell_length_c 14.697689
_cell_angle_alpha 90.000000
_cell_angle_beta 90.000000
_cell_angle_gamma 90.000000
_cell_volume 3879.492804
_symmetry_space_group_name_H-M "F M M 2"
_symmetry_group_IT_number 42
_symmetry_cell_setting 'orthorhombic'
loop_
_space_group_symop_operation_xyz
x,y,z
-x,-y,z
-x,y,z
x,-y,z
x,1/2+y,1/2+z
-x,1/2-y,1/2+z
-x,1/2+y,1/2+z
x,1/2-y,1/2+z
1/2+x,y,1/2+z
1/2-x,-y,1/2+z
1/2-x,y,1/2+z
1/2+x,-y,1/2+z
1/2+x,1/2+y,z
1/2-x,1/2-y,z
1/2-x,1/2+y,z
1/2+x,1/2-y,z
loop_
_atom_site_type_symbol
_atom_site_label
_atom_site_fract_x
_atom_site_fract_y
_atom_site_fract_z
Si Si1 0.000000 0.500000 0.842820
Si Si2 0.921778 0.351969 0.258830
Si Si3 0.863649 0.795433 0.576565
Si Si4 0.387994 0.829567 0.863977
Si Si5 0.293651 0.892590 0.564022
Si Si6 0.229990 0.898531 0.849476
O O1 0.064724 0.580440 0.845595
O O2 0.920479 0.255045 0.309772
O O3 0.843483 0.392889 0.289907
O O4 0.000000 0.397760 0.282496
O O5 0.917443 0.336080 0.151277
O O6 0.887798 0.810170 0.472572
O O7 0.786906 0.852085 0.588006
O O8 0.849588 0.687067 0.595864
O O9 0.301336 0.835630 0.834547
O O10 0.295528 0.888025 0.454060
O O11 0.303538 0.000000 0.591036
O O12 0.261373 0.000000 0.839664
#
# Coordination Sequence:
#
# PCOD9369594 Si02
#       6
#     4  16  16  16  16  16
#     4  12  24  44  76 104 128 182 232 292 348 400
#     4  12  26  42  64  97 140 182 223 280 345 407
#     4  10  23  41  64  98 137 178 225 283 348 408
#     4  11  23  46  69  97 139 174 227 288 342 414
#     4   9  19  40  67  95 128 172 232 283 334 408
#     4  10  21  42  68  94 129 176 223 272 338 411
#
# _framework density 21.652315999999999
#
# number of rings (size 3 to 8) (size 9 to 14) (size 15 to 20)
#    0.000    1.524    3.810    0.571    8.000    1.143 
#    1.714    0.000    0.000    0.000    0.000    0.000 
#    0.000    0.000    0.000    0.000    0.000    0.000 
#
# Total GULP energy -116945.488115 kJ/mol
# GULP energy per Si atom -5568.832767 kJ/mol
# Density = 2.160303 g / cm^3
# Si number density = 21.652316 Si / 1000 Ang^3
#
#
#
# Elastic Constant Matrix: (Units=GPa)
#
#
# Indices 1 2 3 4 5 6 
#
# 1 128.5710 14.4789 36.2014 0.0000 0.0000 0.0000
# 2 14.4789 104.3931 -5.4027 0.0000 0.0000 0.0000
# 3 36.2014 -5.4027 55.1689 0.0000 0.0000 0.0000
# 4 0.0000 0.0000 0.0000 -30.3882 0.0000 0.0000
# 5 0.0000 0.0000 0.0000 0.0000 -58.6123 0.0000
# 6 0.0000 0.0000 0.0000 0.0000 0.0000 27.0855
#
#
#
# Elastic Compliance Matrix: (Units=1/GPa)
#
#
# Indices 1 2 3 4 5 6 
#
# 1 0.009834 -0.001707 -0.006620 0.000000 0.000000 0.000000
# 2 -0.001707 0.009924 0.002092 0.000000 0.000000 0.000000
# 3 -0.006620 0.002092 0.022675 0.000000 0.000000 0.000000
# 4 0.000000 0.000000 0.000000 -0.032908 0.000000 0.000000
# 5 0.000000 0.000000 0.000000 0.000000 -0.017061 0.000000
# 6 0.000000 0.000000 0.000000 0.000000 0.000000 0.036920
#
#
# Mechanical properties :
#
#
# Convention : Reuss Voigt Hill
#
# Bulk Modulus (GPa) = 33.37419 42.07646 37.72533
# Shear Modulus (GPa) = 96.44655 3.80738 50.12696
#
# Velocity S-wave (km/s) = 6.68132 1.32749 4.81675
# Velocity P-wave (km/s) = 8.65836 4.67168 6.95671
#
# Compressibility (1/GPa) = 0.02996327
#
# Stress axis : x y z
#
# Youngs Moduli (GPa) = 101.68804 100.76457 44.10125
#
# Poissons Ratio (x) = 0.17196 0.29196
# Poissons Ratio (y) = 0.17354 -0.09225
# Poissons Ratio (z) = 0.67319 -0.21077
#
# Static dielectric constant tensor:
#      x y z
#    x 1.791200 0.000000 0.000000 
#    y 0.000000 1.792180 0.000000 
#    z 0.000000 0.000000 1.784750 
# 
# From -- ./inp_files/15766.got.cif
#   From: 2010.05.17/outbox.cif.g08.bks.cpg/sg42_8_cif.got.tgz:15766.got - 2010.06.03 19:03:34.
