data_PCOD9369233
_publ_section_title
;
Structure prediction by ZEFSAII (Michael W. Deem and Ramdas Pophale) SiO2 
 PCOD9369233
Probable space group: F M M 2
;
_chemical_formula_sum "Si O2"
_cell_formula_units_Z 96
_cell_length_a 18.440691
_cell_length_b 23.395607
_cell_length_c 11.600102
_cell_angle_alpha 90.000000
_cell_angle_beta 90.000000
_cell_angle_gamma 90.000000
_cell_volume 5004.645456
_symmetry_space_group_name_H-M "F M M 2"
_symmetry_group_IT_number 42
_symmetry_cell_setting 'orthorhombic'
loop_
_space_group_symop_operation_xyz
x,y,z
-x,-y,z
-x,y,z
x,-y,z
x,1/2+y,1/2+z
-x,1/2-y,1/2+z
-x,1/2+y,1/2+z
x,1/2-y,1/2+z
1/2+x,y,1/2+z
1/2-x,-y,1/2+z
1/2-x,y,1/2+z
1/2+x,-y,1/2+z
1/2+x,1/2+y,z
1/2-x,1/2-y,z
1/2-x,1/2+y,z
1/2+x,1/2-y,z
loop_
_atom_site_type_symbol
_atom_site_label
_atom_site_fract_x
_atom_site_fract_y
_atom_site_fract_z
Si Si1 0.696026 0.067934 0.092860
Si Si2 0.079839 0.158557 0.013231
Si Si3 0.675245 0.654867 0.788075
Si Si4 0.586407 0.236860 0.733856
Si Si5 0.134601 0.935004 0.156921
Si Si6 0.661910 0.356222 0.368089
O O1 0.668348 0.097504 0.211278
O O2 0.783707 0.069837 0.104762
O O3 0.676635 0.000000 0.079356
O O4 0.671728 0.110664 0.989409
O O5 0.100930 0.200130 0.118227
O O6 0.081242 0.096958 0.072073
O O7 0.000000 0.174755 0.972120
O O8 0.134244 0.154802 0.908880
O O9 0.636703 0.707643 0.724903
O O10 0.759524 0.662803 0.819100
O O11 0.500000 0.248231 0.737987
O O12 0.610560 0.198764 0.845411
O O13 0.133983 0.903796 0.279111
O O14 0.116476 0.000000 0.171764
#
# Coordination Sequence:
#
# PCOD9369233 Si02
#       6
#    16  16  16  16  16  16
#     4  10  21  37  61  91 124 158 198 252 307 359
#     4  10  21  38  58  86 123 161 204 250 306 365
#     4  11  22  38  60  92 123 157 207 252 304 367
#     4  10  23  41  61  86 121 162 205 254 309 367
#     4   9  18  34  57  84 117 156 200 246 297 354
#     4  10  20  38  61  91 118 159 203 250 301 362
#
# _framework density 19.182176999999999
#
# number of rings (size 3 to 8) (size 9 to 14) (size 15 to 20)
#    0.000    2.000    1.667    1.500    2.333    1.667 
#    0.000    0.833    0.000    5.000    0.000    0.000 
#    0.000    0.000    0.000    0.000    0.000    0.000 
#
# Total GULP energy -133772.176150 kJ/mol
# GULP energy per Si atom -5573.840673 kJ/mol
# Density = 1.913852 g / cm^3
# Si number density = 19.182177 Si / 1000 Ang^3
#
#
#
# Elastic Constant Matrix: (Units=GPa)
#
#
# Indices 1 2 3 4 5 6 
#
# 1 55.1833 37.2746 24.1910 0.0000 0.0000 0.0000
# 2 37.2746 106.6785 18.7200 0.0000 0.0000 0.0000
# 3 24.1910 18.7200 57.2138 0.0000 0.0000 0.0000
# 4 0.0000 0.0000 0.0000 22.7327 0.0000 0.0000
# 5 0.0000 0.0000 0.0000 0.0000 10.2102 0.0000
# 6 0.0000 0.0000 0.0000 0.0000 0.0000 3.5350
#
#
#
# Elastic Compliance Matrix: (Units=1/GPa)
#
#
# Indices 1 2 3 4 5 6 
#
# 1 0.027486 -0.008025 -0.008996 0.000000 0.000000 0.000000
# 2 -0.008025 0.012288 -0.000627 0.000000 0.000000 0.000000
# 3 -0.008996 -0.000627 0.021487 0.000000 0.000000 0.000000
# 4 0.000000 0.000000 0.000000 0.043990 0.000000 0.000000
# 5 0.000000 0.000000 0.000000 0.000000 0.097941 0.000000
# 6 0.000000 0.000000 0.000000 0.000000 0.000000 0.282882
#
#
# Mechanical properties :
#
#
# Convention : Reuss Voigt Hill
#
# Bulk Modulus (GPa) = 38.51426 42.16076 40.33751
# Shear Modulus (GPa) = 9.43352 16.55492 12.99422
#
# Velocity S-wave (km/s) = 2.22003 2.94094 2.60554
# Velocity P-wave (km/s) = 5.16654 5.79301 5.48872
#
# Compressibility (1/GPa) = 0.02596441
#
# Stress axis : x y z
#
# Youngs Moduli (GPa) = 36.38256 81.37920 46.53959
#
# Poissons Ratio (x) = 0.65309 0.41865
# Poissons Ratio (y) = 0.29198 0.02920
# Poissons Ratio (z) = 0.32728 0.05106
#
# Static dielectric constant tensor:
#      x y z
#    x 1.654120 0.000000 0.000000 
#    y 0.000000 1.691000 0.000000 
#    z 0.000000 0.000000 1.689310 
# 
# From -- ./inp_files/8790.got.cif
#   From: 2010.05.17/outbox.cif.g08.bks.cpg/sg42_5_cif.got.tgz:8790.got - 2010.06.03 19:03:34.
