data_PCOD9369398
_publ_section_title
;
Structure prediction by ZEFSAII (Michael W. Deem and Ramdas Pophale) SiO2 
 PCOD9369398
Probable space group: F M M 2
;
_chemical_formula_sum "Si O2"
_cell_formula_units_Z 116
_cell_length_a 9.821923
_cell_length_b 26.308542
_cell_length_c 25.741107
_cell_angle_alpha 90.000000
_cell_angle_beta 90.000000
_cell_angle_gamma 90.000000
_cell_volume 6651.514244
_symmetry_space_group_name_H-M "F M M 2"
_symmetry_group_IT_number 42
_symmetry_cell_setting 'orthorhombic'
loop_
_space_group_symop_operation_xyz
x,y,z
-x,-y,z
-x,y,z
x,-y,z
x,1/2+y,1/2+z
-x,1/2-y,1/2+z
-x,1/2+y,1/2+z
x,1/2-y,1/2+z
1/2+x,y,1/2+z
1/2-x,-y,1/2+z
1/2-x,y,1/2+z
1/2+x,-y,1/2+z
1/2+x,1/2+y,z
1/2-x,1/2-y,z
1/2-x,1/2+y,z
1/2+x,1/2-y,z
loop_
_atom_site_type_symbol
_atom_site_label
_atom_site_fract_x
_atom_site_fract_y
_atom_site_fract_z
Si Si1 0.000000 0.500000 0.849216
Si Si2 0.844858 0.794711 0.197357
Si Si3 0.841077 0.094685 0.154185
Si Si4 0.850993 0.439628 0.245283
Si Si5 0.842019 0.297681 0.819092
Si Si6 0.230864 0.909174 0.352321
Si Si7 0.345688 0.938599 0.462018
Si Si8 0.842644 0.561450 0.057536
O O1 0.881707 0.545699 0.849722
O O2 0.750000 0.750000 0.178474
O O3 0.835943 0.845033 0.163320
O O4 0.809805 0.806954 0.257654
O O5 0.000000 0.776842 0.197511
O O6 0.770144 0.072381 0.205655
O O7 0.750093 0.078690 0.105523
O O8 0.000000 0.079170 0.149508
O O9 0.854258 0.500000 0.251301
O O10 0.823722 0.416478 0.301500
O O11 0.000000 0.422924 0.224819
O O12 0.750000 0.250000 0.836362
O O13 0.823563 0.351464 0.847851
O O14 0.000000 0.282874 0.822542
O O15 0.310627 0.916489 0.405932
O O16 0.500000 0.925357 0.478167
O O17 0.233848 0.922915 0.504601
O O18 0.339068 0.000000 0.458022
O O19 0.845276 0.500000 0.058328
O O20 0.000000 0.578736 0.060329
#
# Coordination Sequence:
#
# PCOD9369398 Si02
#       8
#     4  16  16  16  16  16  16  16
#     4  12  24  32  62  92 124 160 194 254 308 358
#     4   9  19  35  54  78 107 143 188 236 283 339
#     4  11  22  36  56  80 111 147 187 232 288 349
#     4  11  23  35  50  78 117 152 187 231 287 349
#     4  10  21  37  56  81 117 157 203 243 287 351
#     4  12  22  36  59  87 122 156 198 241 303 356
#     4  10  21  37  58  83 115 151 194 240 291 352
#     4  10  22  38  57  81 113 150 194 238 286 349
#
# _framework density 17.439637999999999
#
# number of rings (size 3 to 8) (size 9 to 14) (size 15 to 20)
#    0.000    1.517    3.448    1.655    1.931    6.069 
#    0.000    0.000    0.000    0.828    0.000    3.862 
#    0.000    0.000    0.000    0.000    0.000    0.000 
#
# Total GULP energy -161503.619404 kJ/mol
# GULP energy per Si atom -5569.090324 kJ/mol
# Density = 1.739994 g / cm^3
# Si number density = 17.439638 Si / 1000 Ang^3
#
#
#
# Elastic Constant Matrix: (Units=GPa)
#
#
# Indices 1 2 3 4 5 6 
#
# 1 140.4048 47.2916 57.3992 0.0000 0.0000 0.0000
# 2 47.2916 78.5863 14.1092 0.0000 0.0000 0.0000
# 3 57.3992 14.1092 99.2546 0.0000 0.0000 0.0000
# 4 0.0000 0.0000 0.0000 69.5976 0.0000 0.0000
# 5 0.0000 0.0000 0.0000 0.0000 46.9406 0.0000
# 6 0.0000 0.0000 0.0000 0.0000 0.0000 28.5296
#
#
#
# Elastic Compliance Matrix: (Units=1/GPa)
#
#
# Indices 1 2 3 4 5 6 
#
# 1 0.011466 -0.005859 -0.005798 0.000000 0.000000 0.000000
# 2 -0.005859 0.016052 0.001106 0.000000 0.000000 0.000000
# 3 -0.005798 0.001106 0.013271 0.000000 0.000000 0.000000
# 4 0.000000 0.000000 0.000000 0.014368 0.000000 0.000000
# 5 0.000000 0.000000 0.000000 0.000000 0.021304 0.000000
# 6 0.000000 0.000000 0.000000 0.000000 0.000000 0.035051
#
#
# Mechanical properties :
#
#
# Convention : Reuss Voigt Hill
#
# Bulk Modulus (GPa) = 50.79282 61.76062 56.27672
# Shear Modulus (GPa) = 35.92584 42.30995 39.11789
#
# Velocity S-wave (km/s) = 4.54366 4.93087 4.74122
# Velocity P-wave (km/s) = 7.53091 8.24068 7.89377
#
# Compressibility (1/GPa) = 0.01968782
#
# Stress axis : x y z
#
# Youngs Moduli (GPa) = 87.21436 62.29724 75.35349
#
# Poissons Ratio (x) = 0.36500 0.43690
# Poissons Ratio (y) = 0.51099 -0.08338
# Poissons Ratio (z) = 0.50566 -0.06893
#
# Static dielectric constant tensor:
#      x y z
#    x 1.597620 0.000000 0.000000 
#    y 0.000000 1.564370 0.000000 
#    z 0.000000 0.000000 1.583960 
# 
# From -- ./inp_files/28348.got.cif
#   From: 2010.05.17/outbox.cif.g08.bks.cpg/sg42_15_cif.got.tgz:28348.got - 2010.06.03 19:03:34.
