data_PCOD9369941
_publ_section_title
;
Structure prediction by ZEFSAII (Michael W. Deem and Ramdas Pophale) SiO2 
 PCOD9369941
Probable space group: F M M 2
;
_chemical_formula_sum "Si O2"
_cell_formula_units_Z 88
_cell_length_a 22.585489
_cell_length_b 13.809232
_cell_length_c 15.215949
_cell_angle_alpha 90.000000
_cell_angle_beta 90.000000
_cell_angle_gamma 90.000000
_cell_volume 4745.675819
_symmetry_space_group_name_H-M "F M M 2"
_symmetry_group_IT_number 42
_symmetry_cell_setting 'orthorhombic'
loop_
_space_group_symop_operation_xyz
x,y,z
-x,-y,z
-x,y,z
x,-y,z
x,1/2+y,1/2+z
-x,1/2-y,1/2+z
-x,1/2+y,1/2+z
x,1/2-y,1/2+z
1/2+x,y,1/2+z
1/2-x,-y,1/2+z
1/2-x,y,1/2+z
1/2+x,-y,1/2+z
1/2+x,1/2+y,z
1/2-x,1/2-y,z
1/2-x,1/2+y,z
1/2+x,1/2-y,z
loop_
_atom_site_type_symbol
_atom_site_label
_atom_site_fract_x
_atom_site_fract_y
_atom_site_fract_z
Si Si1 0.500000 0.384135 0.591820
Si Si2 0.000000 0.883914 0.382737
Si Si3 0.317104 0.288230 0.979127
Si Si4 0.294083 0.500000 0.353322
Si Si5 0.872411 0.187329 0.648564
Si Si6 0.704684 0.000000 0.196752
Si Si7 0.719349 0.500000 0.023760
Si Si8 0.626223 0.311748 0.319148
O O1 0.500000 0.500000 0.602439
O O2 0.500000 0.363729 0.487255
O O3 0.559577 0.341906 0.633595
O O4 0.059075 0.840822 0.340333
O O5 0.000000 0.000000 0.371827
O O6 0.250000 0.250000 0.968097
O O7 0.315291 0.400966 0.004567
O O8 0.351857 0.267335 0.889695
O O9 0.346047 0.226382 0.057322
O O10 0.236287 0.500000 0.291258
O O11 0.273993 0.500000 0.454620
O O12 0.332675 0.594583 0.333348
O O13 0.867299 0.269377 0.722302
O O14 0.835044 0.094597 0.680345
O O15 0.755568 0.000000 0.122150
#
# Coordination Sequence:
#
# PCOD9369941 Si02
#       8
#     8   8  16   8  16   8   8  16
#     4  11  23  44  72  95 124 170 229 279 325 386
#     4  11  23  44  72  95 124 170 229 279 325 386
#     4  12  24  41  65  97 133 173 212 267 337 390
#     4  12  24  39  64  99 130 174 217 262 321 403
#     4  12  25  42  67  95 133 174 219 273 331 388
#     4  12  24  39  64  99 130 174 217 262 321 403
#     4  12  24  40  62  92 142 166 214 262 324 400
#     4  12  25  42  67  95 133 174 219 273 331 388
#
# _framework density 18.543195999999998
#
# number of rings (size 3 to 8) (size 9 to 14) (size 15 to 20)
#    0.000    0.182    7.273    2.727    0.000    0.000 
#    0.000    0.000    0.000    1.091    0.000    0.000 
#    0.000    0.000    0.000    0.000    0.000    0.000 
#
# Total GULP energy -123132.239298 kJ/mol
# GULP energy per Si atom -5596.919968 kJ/mol
# Density = 1.850099 g / cm^3
# Si number density = 18.543196 Si / 1000 Ang^3
#
#
#
# Elastic Constant Matrix: (Units=GPa)
#
#
# Indices 1 2 3 4 5 6 
#
# 1 85.4238 6.8412 -6.2316 0.0000 0.0000 0.0000
# 2 6.8412 67.1307 -25.3177 0.0000 0.0000 0.0000
# 3 -6.2316 -25.3177 50.7309 0.0000 0.0000 0.0000
# 4 0.0000 0.0000 0.0000 31.5781 0.0000 0.0000
# 5 0.0000 0.0000 0.0000 0.0000 30.1938 0.0000
# 6 0.0000 0.0000 0.0000 0.0000 0.0000 35.9567
#
#
#
# Elastic Compliance Matrix: (Units=1/GPa)
#
#
# Indices 1 2 3 4 5 6 
#
# 1 0.011848 -0.000811 0.001051 0.000000 0.000000 0.000000
# 2 -0.000811 0.018406 0.009086 0.000000 0.000000 0.000000
# 3 0.001051 0.009086 0.024375 0.000000 0.000000 0.000000
# 4 0.000000 0.000000 0.000000 0.031667 0.000000 0.000000
# 5 0.000000 0.000000 0.000000 0.000000 0.033119 0.000000
# 6 0.000000 0.000000 0.000000 0.000000 0.000000 0.027811
#
#
# Mechanical properties :
#
#
# Convention : Reuss Voigt Hill
#
# Bulk Modulus (GPa) = 13.64644 17.09655 15.37150
# Shear Modulus (GPa) = 32.67910 34.74529 33.71219
#
# Velocity S-wave (km/s) = 4.20256 4.33338 4.26847
# Velocity P-wave (km/s) = 5.56093 5.85469 5.70970
#
# Compressibility (1/GPa) = 0.07327919
#
# Stress axis : x y z
#
# Youngs Moduli (GPa) = 84.40281 54.33120 41.02517
#
# Poissons Ratio (x) = 0.04407 -0.04310
# Poissons Ratio (y) = 0.06847 -0.37275
# Poissons Ratio (z) = -0.08867 -0.49365
#
# Static dielectric constant tensor:
#      x y z
#    x 1.607520 0.000000 0.000000 
#    y 0.000000 1.624840 0.000000 
#    z 0.000000 0.000000 1.605500 
# 
# From -- ./inp_files/7891.got.cif
#   From: 2010.05.17/outbox.cif.g08.bks.cpg/sg42_4_cif.got.tgz:7891.got - 2010.06.03 19:03:34.
