data_PCOD9369653
_publ_section_title
;
Structure prediction by ZEFSAII (Michael W. Deem and Ramdas Pophale) SiO2 
 PCOD9369653
Probable space group: F M M 2
;
_chemical_formula_sum "Si O2"
_cell_formula_units_Z 88
_cell_length_a 12.828888
_cell_length_b 29.554487
_cell_length_c 13.566182
_cell_angle_alpha 90.000000
_cell_angle_beta 90.000000
_cell_angle_gamma 90.000000
_cell_volume 5143.634234
_symmetry_space_group_name_H-M "F M M 2"
_symmetry_group_IT_number 42
_symmetry_cell_setting 'orthorhombic'
loop_
_space_group_symop_operation_xyz
x,y,z
-x,-y,z
-x,y,z
x,-y,z
x,1/2+y,1/2+z
-x,1/2-y,1/2+z
-x,1/2+y,1/2+z
x,1/2-y,1/2+z
1/2+x,y,1/2+z
1/2-x,-y,1/2+z
1/2-x,y,1/2+z
1/2+x,-y,1/2+z
1/2+x,1/2+y,z
1/2-x,1/2-y,z
1/2-x,1/2+y,z
1/2+x,1/2-y,z
loop_
_atom_site_type_symbol
_atom_site_label
_atom_site_fract_x
_atom_site_fract_y
_atom_site_fract_z
Si Si1 0.287541 0.615761 0.702010
Si Si2 0.000000 0.852147 0.796965
Si Si3 0.000000 0.248655 0.291885
Si Si4 0.000000 0.201237 0.988070
Si Si5 0.377206 0.551076 0.543926
Si Si6 0.620279 0.052841 0.808271
Si Si7 0.327523 0.708866 0.154885
O O1 0.394921 0.623428 0.762168
O O2 0.316418 0.589001 0.602832
O O3 0.203804 0.585296 0.759148
O O4 0.236297 0.663976 0.679352
O O5 0.000000 0.841582 0.913997
O O6 0.000000 0.800743 0.752360
O O7 0.099627 0.223206 0.247402
O O8 0.000000 0.256892 0.409681
O O9 0.098651 0.202063 0.060152
O O10 0.500000 0.554588 0.568310
O O11 0.342925 0.500000 0.570686
O O12 0.368837 0.555861 0.426482
O O13 0.500000 0.064797 0.783225
O O14 0.636026 0.000000 0.781408
O O15 0.250000 0.750000 0.135501
#
# Coordination Sequence:
#
# PCOD9369653 Si02
#       7
#    16   8   8   8  16  16  16
#     4  12  22  36  63  90 120 152 200 241 297 343
#     4  10  22  40  55  86 122 152 191 249 281 346
#     4   9  21  44  51  78 122 157 187 248 290 340
#     4   9  23  40  59  78 119 153 202 243 291 342
#     4   9  19  38  60  86 117 153 196 238 289 352
#     4   9  21  41  61  86 119 154 195 244 296 349
#     4  11  22  38  60  85 114 159 197 239 291 348
#
# _framework density 17.108525
#
# number of rings (size 3 to 8) (size 9 to 14) (size 15 to 20)
#    0.545    1.455    2.727    1.636    5.091    2.182 
#    0.000    0.000    0.000    0.000    0.000    0.000 
#    0.000    0.000    0.000    0.000    0.000    0.000 
#
# Total GULP energy -122646.982701 kJ/mol
# GULP energy per Si atom -5574.862850 kJ/mol
# Density = 1.706959 g / cm^3
# Si number density = 17.108525 Si / 1000 Ang^3
#
#
#
# Elastic Constant Matrix: (Units=GPa)
#
#
# Indices 1 2 3 4 5 6 
#
# 1 146.5582 83.3209 60.6237 0.0000 0.0000 0.0000
# 2 83.3209 114.2326 38.2230 0.0000 0.0000 0.0000
# 3 60.6237 38.2230 74.4624 0.0000 0.0000 0.0000
# 4 0.0000 0.0000 0.0000 16.4958 0.0000 0.0000
# 5 0.0000 0.0000 0.0000 0.0000 22.8967 0.0000
# 6 0.0000 0.0000 0.0000 0.0000 0.0000 46.5074
#
#
#
# Elastic Compliance Matrix: (Units=1/GPa)
#
#
# Indices 1 2 3 4 5 6 
#
# 1 0.014620 -0.008066 -0.007762 0.000000 0.000000 0.000000
# 2 -0.008066 0.015020 -0.001143 0.000000 0.000000 0.000000
# 3 -0.007762 -0.001143 0.020336 0.000000 0.000000 0.000000
# 4 0.000000 0.000000 0.000000 0.060622 0.000000 0.000000
# 5 0.000000 0.000000 0.000000 0.000000 0.043674 0.000000
# 6 0.000000 0.000000 0.000000 0.000000 0.000000 0.021502
#
#
# Mechanical properties :
#
#
# Convention : Reuss Voigt Hill
#
# Bulk Modulus (GPa) = 62.37136 77.73204 70.05170
# Shear Modulus (GPa) = 23.24920 27.38569 25.31745
#
# Velocity S-wave (km/s) = 3.69036 4.00522 3.85101
# Velocity P-wave (km/s) = 7.39552 8.18061 7.79795
#
# Compressibility (1/GPa) = 0.01603300
#
# Stress axis : x y z
#
# Youngs Moduli (GPa) = 68.39940 66.57742 49.17424
#
# Poissons Ratio (x) = 0.53705 0.38170
# Poissons Ratio (y) = 0.55174 0.05619
# Poissons Ratio (z) = 0.53093 0.07608
#
# Static dielectric constant tensor:
#      x y z
#    x 1.567630 0.000000 0.000000 
#    y 0.000000 1.569270 0.000000 
#    z 0.000000 0.000000 1.559460 
# 
# From -- ./inp_files/12937.got.cif
#   From: 2010.05.17/outbox.cif.g08.bks.cpg/sg42_7_cif.got.tgz:12937.got - 2010.06.03 19:03:34.
