data_PCOD9369855
_publ_section_title
;
Structure prediction by ZEFSAII (Michael W. Deem and Ramdas Pophale) SiO2 
 PCOD9369855
Probable space group: F M M 2
;
_chemical_formula_sum "Si O2"
_cell_formula_units_Z 96
_cell_length_a 8.675984
_cell_length_b 28.982655
_cell_length_c 20.880238
_cell_angle_alpha 90.000000
_cell_angle_beta 90.000000
_cell_angle_gamma 90.000000
_cell_volume 5250.399552
_symmetry_space_group_name_H-M "F M M 2"
_symmetry_group_IT_number 42
_symmetry_cell_setting 'orthorhombic'
loop_
_space_group_symop_operation_xyz
x,y,z
-x,-y,z
-x,y,z
x,-y,z
x,1/2+y,1/2+z
-x,1/2-y,1/2+z
-x,1/2+y,1/2+z
x,1/2-y,1/2+z
1/2+x,y,1/2+z
1/2-x,-y,1/2+z
1/2-x,y,1/2+z
1/2+x,-y,1/2+z
1/2+x,1/2+y,z
1/2-x,1/2-y,z
1/2-x,1/2+y,z
1/2+x,1/2-y,z
loop_
_atom_site_type_symbol
_atom_site_label
_atom_site_fract_x
_atom_site_fract_y
_atom_site_fract_z
Si Si1 0.185283 0.147460 0.804040
Si Si2 0.683241 0.198306 0.928290
Si Si3 0.814382 0.052804 0.600965
Si Si4 0.816668 0.855756 0.048961
Si Si5 0.187377 0.551469 0.250125
Si Si6 0.315255 0.301306 0.179733
O O1 0.254792 0.171540 0.866119
O O2 0.236544 0.094308 0.793476
O O3 0.239103 0.174706 0.740996
O O4 0.000000 0.148616 0.808121
O O5 0.500000 0.201138 0.925600
O O6 0.750000 0.250000 0.929996
O O7 0.735496 0.170358 0.990936
O O8 0.737629 0.091713 0.557949
O O9 0.768212 0.059456 0.675743
O O10 0.000000 0.057477 0.598061
O O11 0.775485 0.000000 0.583638
O O12 0.779345 0.829863 0.115546
O O13 0.000000 0.853836 0.039315
O O14 0.239522 0.500000 0.268982
O O15 0.000000 0.550987 0.250617
O O16 0.500000 0.300128 0.187802
O O17 0.250000 0.250000 0.173202
#
# Coordination Sequence:
#
# PCOD9369855 Si02
#       6
#    16  16  16  16  16  16
#     4  11  21  37  62  88 118 154 196 241 293 352
#     4  12  26  44  63  83 116 157 201 247 301 360
#     4   9  17  33  59  90 122 157 197 241 294 350
#     4  11  23  39  60  88 120 155 199 245 296 354
#     4   8  15  30  56  89 120 152 191 235 286 343
#     4  11  23  37  56  84 116 148 191 245 295 349
#
# _framework density 18.284322
#
# number of rings (size 3 to 8) (size 9 to 14) (size 15 to 20)
#    0.000    1.667    1.667    5.000    0.000    3.667 
#    0.000    0.833    0.000    5.000    0.000    0.000 
#    0.000    0.000    0.000    0.000    0.000    0.000 
#
# Total GULP energy -134081.448968 kJ/mol
# GULP energy per Si atom -5586.727040 kJ/mol
# Density = 1.824271 g / cm^3
# Si number density = 18.284322 Si / 1000 Ang^3
#
#
#
# Elastic Constant Matrix: (Units=GPa)
#
#
# Indices 1 2 3 4 5 6 
#
# 1 76.7286 61.4129 67.3700 0.0000 0.0000 0.0000
# 2 61.4129 181.7279 85.0119 0.0000 0.0000 0.0000
# 3 67.3700 85.0119 125.3260 0.0000 0.0000 0.0000
# 4 0.0000 0.0000 0.0000 28.7623 0.0000 0.0000
# 5 0.0000 0.0000 0.0000 0.0000 23.5946 0.0000
# 6 0.0000 0.0000 0.0000 0.0000 0.0000 20.2505
#
#
#
# Elastic Compliance Matrix: (Units=1/GPa)
#
#
# Indices 1 2 3 4 5 6 
#
# 1 0.025959 -0.003288 -0.011724 0.000000 0.000000 0.000000
# 2 -0.003288 0.008477 -0.003983 0.000000 0.000000 0.000000
# 3 -0.011724 -0.003983 0.016983 0.000000 0.000000 0.000000
# 4 0.000000 0.000000 0.000000 0.034768 0.000000 0.000000
# 5 0.000000 0.000000 0.000000 0.000000 0.042383 0.000000
# 6 0.000000 0.000000 0.000000 0.000000 0.000000 0.049381
#
#
# Mechanical properties :
#
#
# Convention : Reuss Voigt Hill
#
# Bulk Modulus (GPa) = 74.46330 90.15243 82.30786
# Shear Modulus (GPa) = 22.68439 25.85399 24.26919
#
# Velocity S-wave (km/s) = 3.52610 3.76440 3.64720
# Velocity P-wave (km/s) = 7.57572 8.26481 7.92776
#
# Compressibility (1/GPa) = 0.01342944
#
# Stress axis : x y z
#
# Youngs Moduli (GPa) = 38.52294 117.96703 58.88242
#
# Poissons Ratio (x) = 0.38787 0.69033
# Poissons Ratio (y) = 0.12666 0.23451
# Poissons Ratio (z) = 0.45164 0.46982
#
# Static dielectric constant tensor:
#      x y z
#    x 1.612610 0.000000 0.000000 
#    y 0.000000 1.643170 0.000000 
#    z 0.000000 0.000000 1.595450 
# 
# From -- ./inp_files/23689.got.cif
#   From: 2010.05.17/outbox.cif.g08.bks.cpg/sg42_12_cif.got.tgz:23689.got - 2010.06.03 19:03:34.
