data_PCOD9369058
_publ_section_title
;
Structure prediction by ZEFSAII (Michael W. Deem and Ramdas Pophale) SiO2 
 PCOD9369058
Probable space group: F M M 2
;
_chemical_formula_sum "Si O2"
_cell_formula_units_Z 96
_cell_length_a 24.323753
_cell_length_b 13.999773
_cell_length_c 14.650733
_cell_angle_alpha 90.000000
_cell_angle_beta 90.000000
_cell_angle_gamma 90.000000
_cell_volume 4988.970457
_symmetry_space_group_name_H-M "F M M 2"
_symmetry_group_IT_number 42
_symmetry_cell_setting 'orthorhombic'
loop_
_space_group_symop_operation_xyz
x,y,z
-x,-y,z
-x,y,z
x,-y,z
x,1/2+y,1/2+z
-x,1/2-y,1/2+z
-x,1/2+y,1/2+z
x,1/2-y,1/2+z
1/2+x,y,1/2+z
1/2-x,-y,1/2+z
1/2-x,y,1/2+z
1/2+x,-y,1/2+z
1/2+x,1/2+y,z
1/2-x,1/2-y,z
1/2-x,1/2+y,z
1/2+x,1/2-y,z
loop_
_atom_site_type_symbol
_atom_site_label
_atom_site_fract_x
_atom_site_fract_y
_atom_site_fract_z
Si Si1 0.781820 0.884728 0.641330
Si Si2 0.170405 0.385960 0.952954
Si Si3 0.109527 0.207128 0.720907
Si Si4 0.326864 0.113686 0.748955
Si Si5 0.434195 0.608268 0.904563
Si Si6 0.563661 0.214484 0.022917
O O1 0.792177 0.853106 0.537211
O O2 0.831606 0.841162 0.699360
O O3 0.722232 0.860847 0.680326
O O4 0.786381 0.000000 0.646013
O O5 0.168381 0.500000 0.957559
O O6 0.191165 0.361605 0.852416
O O7 0.108960 0.347671 0.970044
O O8 0.121009 0.319692 0.731555
O O9 0.086583 0.159528 0.812436
O O10 0.072976 0.195309 0.630169
O O11 0.337545 0.000000 0.743241
O O12 0.500000 0.602446 0.897544
O O13 0.412315 0.500000 0.913022
O O14 0.422868 0.677115 0.990788
O O15 0.500000 0.195247 0.999002
#
# Coordination Sequence:
#
# PCOD9369058 Si02
#       6
#    16  16  16  16  16  16
#     4   9  19  35  55  82 114 147 188 237 285 338
#     4   9  18  36  59  83 114 148 188 237 286 342
#     4  11  20  36  58  85 113 151 194 241 287 348
#     4  10  20  36  56  82 116 152 189 233 288 345
#     4  10  21  38  59  84 116 153 194 242 296 354
#     4  10  21  37  58  84 115 148 189 242 296 349
#
# _framework density 19.242446000000001
#
# number of rings (size 3 to 8) (size 9 to 14) (size 15 to 20)
#    0.000    2.167    1.667    1.500    0.000    1.667 
#    3.000    1.667    0.000    1.500    0.000    0.000 
#    0.000    0.000    0.000    0.000    0.000    0.000 
#
# Total GULP energy -133844.867769 kJ/mol
# GULP energy per Si atom -5576.869490 kJ/mol
# Density = 1.919865 g / cm^3
# Si number density = 19.242446 Si / 1000 Ang^3
#
#
#
# Elastic Constant Matrix: (Units=GPa)
#
#
# Indices 1 2 3 4 5 6 
#
# 1 35.5759 8.2576 14.0580 0.0000 0.0000 0.0000
# 2 8.2576 16.3893 8.1736 0.0000 0.0000 0.0000
# 3 14.0580 8.1736 48.8279 0.0000 0.0000 0.0000
# 4 0.0000 0.0000 0.0000 25.2835 0.0000 0.0000
# 5 0.0000 0.0000 0.0000 0.0000 17.8964 0.0000
# 6 0.0000 0.0000 0.0000 0.0000 0.0000 29.4590
#
#
#
# Elastic Compliance Matrix: (Units=1/GPa)
#
#
# Indices 1 2 3 4 5 6 
#
# 1 0.034238 -0.013458 -0.007605 0.000000 0.000000 0.000000
# 2 -0.013458 0.071863 -0.008155 0.000000 0.000000 0.000000
# 3 -0.007605 -0.008155 0.024035 0.000000 0.000000 0.000000
# 4 0.000000 0.000000 0.000000 0.039552 0.000000 0.000000
# 5 0.000000 0.000000 0.000000 0.000000 0.055877 0.000000
# 6 0.000000 0.000000 0.000000 0.000000 0.000000 0.033945
#
#
# Mechanical properties :
#
#
# Convention : Reuss Voigt Hill
#
# Bulk Modulus (GPa) = 13.94687 17.97462 15.96074
# Shear Modulus (GPa) = 14.62650 19.21468 16.92059
#
# Velocity S-wave (km/s) = 2.76001 3.16342 2.96858
# Velocity P-wave (km/s) = 4.17380 4.76491 4.47912
#
# Compressibility (1/GPa) = 0.07170069
#
# Stress axis : x y z
#
# Youngs Moduli (GPa) = 29.20758 13.91530 41.60657
#
# Poissons Ratio (x) = 0.18727 0.31640
# Poissons Ratio (y) = 0.39307 0.33930
# Poissons Ratio (z) = 0.22211 0.11348
#
# Static dielectric constant tensor:
#      x y z
#    x 1.641320 0.000000 0.000000 
#    y 0.000000 1.697180 0.000000 
#    z 0.000000 0.000000 1.682200 
# 
# From -- ./inp_files/13973.got.cif
#   From: 2010.05.17/outbox.cif.g08.bks.cpg/sg42_7_cif.got.tgz:13973.got - 2010.06.03 19:03:34.
