data_PCOD9369169
_publ_section_title
;
Structure prediction by ZEFSAII (Michael W. Deem and Ramdas Pophale) SiO2 
 PCOD9369169
Probable space group: F M M 2
;
_chemical_formula_sum "Si O2"
_cell_formula_units_Z 96
_cell_length_a 17.048238
_cell_length_b 25.775008
_cell_length_c 11.352544
_cell_angle_alpha 90.000000
_cell_angle_beta 90.000000
_cell_angle_gamma 90.000000
_cell_volume 4988.517525
_symmetry_space_group_name_H-M "F M M 2"
_symmetry_group_IT_number 42
_symmetry_cell_setting 'orthorhombic'
loop_
_space_group_symop_operation_xyz
x,y,z
-x,-y,z
-x,y,z
x,-y,z
x,1/2+y,1/2+z
-x,1/2-y,1/2+z
-x,1/2+y,1/2+z
x,1/2-y,1/2+z
1/2+x,y,1/2+z
1/2-x,-y,1/2+z
1/2-x,y,1/2+z
1/2+x,-y,1/2+z
1/2+x,1/2+y,z
1/2-x,1/2-y,z
1/2-x,1/2+y,z
1/2+x,1/2-y,z
loop_
_atom_site_type_symbol
_atom_site_label
_atom_site_fract_x
_atom_site_fract_y
_atom_site_fract_z
Si Si1 0.914259 0.172137 0.681200
Si Si2 0.735344 0.940508 0.794394
Si Si3 0.088159 0.583552 0.373227
Si Si4 0.664033 0.224436 0.750690
Si Si5 0.336745 0.126954 0.589464
Si Si6 0.190656 0.150791 0.459627
O O1 0.912707 0.135093 0.793722
O O2 0.894078 0.229100 0.725844
O O3 0.855405 0.152538 0.581355
O O4 0.000000 0.170703 0.626614
O O5 0.828607 0.941002 0.828675
O O6 0.714201 0.913093 0.669579
O O7 0.689494 0.903328 0.887305
O O8 0.708711 0.000000 0.795392
O O9 0.100104 0.596745 0.511284
O O10 0.000000 0.560133 0.356558
O O11 0.750000 0.250000 0.724821
O O12 0.640897 0.174812 0.671841
O O13 0.666828 0.199473 0.880107
O O14 0.281514 0.154191 0.492750
#
# Coordination Sequence:
#
# PCOD9369169 Si02
#       6
#    16  16  16  16  16  16
#     4  11  23  38  57  86 125 165 200 247 309 370
#     4  10  21  40  67  91 115 157 211 258 306 365
#     4  10  22  40  59  89 127 156 195 255 313 363
#     4  11  21  33  57  85 117 161 205 244 299 359
#     4  10  20  37  60  89 119 158 204 251 299 363
#     4  10  21  38  57  88 121 158 204 254 300 357
#
# _framework density 19.244195000000001
#
# number of rings (size 3 to 8) (size 9 to 14) (size 15 to 20)
#    0.000    1.667    3.333    2.000    4.667    4.333 
#    0.000    2.500    0.000    1.500    0.000    0.000 
#    0.000    0.000    0.000    0.000    0.000    0.000 
#
# Total GULP energy -133626.319406 kJ/mol
# GULP energy per Si atom -5567.763309 kJ/mol
# Density = 1.920039 g / cm^3
# Si number density = 19.244195 Si / 1000 Ang^3
#
#
#
# Elastic Constant Matrix: (Units=GPa)
#
#
# Indices 1 2 3 4 5 6 
#
# 1 66.8192 26.2016 19.2701 0.0000 0.0000 0.0000
# 2 26.2016 122.2778 38.1007 0.0000 0.0000 0.0000
# 3 19.2701 38.1007 91.0493 0.0000 0.0000 0.0000
# 4 0.0000 0.0000 0.0000 3.0652 0.0000 0.0000
# 5 0.0000 0.0000 0.0000 0.0000 131.6739 0.0000
# 6 0.0000 0.0000 0.0000 0.0000 0.0000 4.2516
#
#
#
# Elastic Compliance Matrix: (Units=1/GPa)
#
#
# Indices 1 2 3 4 5 6 
#
# 1 0.016765 -0.002860 -0.002352 0.000000 0.000000 0.000000
# 2 -0.002860 0.009892 -0.003534 0.000000 0.000000 0.000000
# 3 -0.002352 -0.003534 0.012960 0.000000 0.000000 0.000000
# 4 0.000000 0.000000 0.000000 0.326240 0.000000 0.000000
# 5 0.000000 0.000000 0.000000 0.000000 0.007595 0.000000
# 6 0.000000 0.000000 0.000000 0.000000 0.000000 0.235205
#
#
# Mechanical properties :
#
#
# Convention : Reuss Voigt Hill
#
# Bulk Modulus (GPa) = 45.19565 49.69900 47.44732
# Shear Modulus (GPa) = 7.89237 40.90307 24.39772
#
# Velocity S-wave (km/s) = 2.02733 4.61529 3.56448
# Velocity P-wave (km/s) = 5.38669 7.36768 6.45365
#
# Compressibility (1/GPa) = 0.02212603
#
# Stress axis : x y z
#
# Youngs Moduli (GPa) = 59.64697 101.09060 77.16225
#
# Poissons Ratio (x) = 0.28909 0.18145
# Poissons Ratio (y) = 0.17057 0.27271
# Poissons Ratio (z) = 0.14027 0.35728
#
# Static dielectric constant tensor:
#      x y z
#    x 1.661760 0.000000 0.000000 
#    y 0.000000 1.654190 0.000000 
#    z 0.000000 0.000000 1.697080 
# 
# From -- ./inp_files/8804.got.cif
#   From: 2010.05.17/outbox.cif.g08.bks.cpg/sg42_5_cif.got.tgz:8804.got - 2010.06.03 19:03:34.
