data_PCOD9369558
_publ_section_title
;
Structure prediction by ZEFSAII (Michael W. Deem and Ramdas Pophale) SiO2 
 PCOD9369558
Probable space group: F M M 2
;
_chemical_formula_sum "Si O2"
_cell_formula_units_Z 88
_cell_length_a 15.549952
_cell_length_b 24.062222
_cell_length_c 11.366291
_cell_angle_alpha 90.000000
_cell_angle_beta 90.000000
_cell_angle_gamma 90.000000
_cell_volume 4252.884152
_symmetry_space_group_name_H-M "F M M 2"
_symmetry_group_IT_number 42
_symmetry_cell_setting 'orthorhombic'
loop_
_space_group_symop_operation_xyz
x,y,z
-x,-y,z
-x,y,z
x,-y,z
x,1/2+y,1/2+z
-x,1/2-y,1/2+z
-x,1/2+y,1/2+z
x,1/2-y,1/2+z
1/2+x,y,1/2+z
1/2-x,-y,1/2+z
1/2-x,y,1/2+z
1/2+x,-y,1/2+z
1/2+x,1/2+y,z
1/2-x,1/2-y,z
1/2-x,1/2+y,z
1/2+x,1/2-y,z
loop_
_atom_site_type_symbol
_atom_site_label
_atom_site_fract_x
_atom_site_fract_y
_atom_site_fract_z
Si Si1 0.399110 0.500000 0.783231
Si Si2 0.651365 0.231306 0.137490
Si Si3 0.902588 0.109101 0.663535
Si Si4 0.158431 0.281540 0.875188
Si Si5 0.901530 0.500000 0.729780
Si Si6 0.795526 0.000000 0.998935
Si Si7 0.342162 0.588861 0.414044
O O1 0.500000 0.500000 0.753320
O O2 0.362414 0.556685 0.729953
O O3 0.380487 0.500000 0.919476
O O4 0.750000 0.250000 0.125759
O O5 0.647409 0.166534 0.172241
O O6 0.614491 0.264391 0.250848
O O7 0.615653 0.234339 0.002492
O O8 0.903349 0.092313 0.527350
O O9 0.000000 0.118787 0.706018
O O10 0.250000 0.250000 0.873035
O O11 0.174751 0.347640 0.878343
O O12 0.828881 0.500000 0.630364
O O13 0.884860 0.553595 0.811126
O O14 0.000000 0.500000 0.687012
O O15 0.739382 0.946358 0.961661
#
# Coordination Sequence:
#
# PCOD9369558 Si02
#       7
#     8  16  16  16   8   8  16
#     4  10  22  38  59  87 127 163 198 255 323 386
#     4   9  19  35  59  86 118 157 208 256 316 366
#     4  10  21  40  64  89 122 165 211 258 319 388
#     4   9  19  35  57  87 119 158 200 265 313 367
#     4  11  24  43  62  92 133 172 210 267 335 394
#     4  11  25  35  62  93 132 159 214 258 325 390
#     4  10  23  38  63  94 123 166 215 265 318 387
#
# _framework density 20.691842000000001
#
# number of rings (size 3 to 8) (size 9 to 14) (size 15 to 20)
#    0.000    2.182    0.000    1.909   10.182    5.091 
#    0.000    4.545    0.000    0.000    0.000    0.000 
#    0.000    0.000    0.000    0.000    0.000    0.000 
#
# Total GULP energy -122632.119689 kJ/mol
# GULP energy per Si atom -5574.187259 kJ/mol
# Density = 2.064475 g / cm^3
# Si number density = 20.691842 Si / 1000 Ang^3
#
#
#
# Elastic Constant Matrix: (Units=GPa)
#
#
# Indices 1 2 3 4 5 6 
#
# 1 58.3591 31.8309 11.4820 0.0000 0.0000 0.0000
# 2 31.8309 151.3966 55.1449 0.0000 0.0000 0.0000
# 3 11.4820 55.1449 136.3436 0.0000 0.0000 0.0000
# 4 0.0000 0.0000 0.0000 2.7183 0.0000 0.0000
# 5 0.0000 0.0000 0.0000 0.0000 23.1297 0.0000
# 6 0.0000 0.0000 0.0000 0.0000 0.0000 5.4748
#
#
#
# Elastic Compliance Matrix: (Units=1/GPa)
#
#
# Indices 1 2 3 4 5 6 
#
# 1 0.019355 -0.004076 0.000019 0.000000 0.000000 0.000000
# 2 -0.004076 0.008605 -0.003137 0.000000 0.000000 0.000000
# 3 0.000019 -0.003137 0.008602 0.000000 0.000000 0.000000
# 4 0.000000 0.000000 0.000000 0.367878 0.000000 0.000000
# 5 0.000000 0.000000 0.000000 0.000000 0.043234 0.000000
# 6 0.000000 0.000000 0.000000 0.000000 0.000000 0.182654
#
#
# Mechanical properties :
#
#
# Convention : Reuss Voigt Hill
#
# Bulk Modulus (GPa) = 45.10120 60.33498 52.71809
# Shear Modulus (GPa) = 7.66745 22.77400 15.22073
#
# Velocity S-wave (km/s) = 1.92707 3.32117 2.71512
# Velocity P-wave (km/s) = 5.17642 6.62790 5.94661
#
# Compressibility (1/GPa) = 0.02217236
#
# Stress axis : x y z
#
# Youngs Moduli (GPa) = 51.66663 116.21436 116.25735
#
# Poissons Ratio (x) = 0.47370 -0.00217
# Poissons Ratio (y) = 0.21060 0.36470
# Poissons Ratio (z) = -0.00096 0.36456
#
# Static dielectric constant tensor:
#      x y z
#    x 1.742220 0.000000 0.000000 
#    y 0.000000 1.717790 0.000000 
#    z 0.000000 0.000000 1.796300 
# 
# From -- ./inp_files/7865.got.cif
#   From: 2010.05.17/outbox.cif.g08.bks.cpg/sg42_4_cif.got.tgz:7865.got - 2010.06.03 19:03:34.
