data_PCOD9369141
_publ_section_title
;
Structure prediction by ZEFSAII (Michael W. Deem and Ramdas Pophale) SiO2 
 PCOD9369141
Probable space group: F M M 2
;
_chemical_formula_sum "Si O2"
_cell_formula_units_Z 64
_cell_length_a 22.751238
_cell_length_b 24.651822
_cell_length_c 5.263310
_cell_angle_alpha 90.000000
_cell_angle_beta 90.000000
_cell_angle_gamma 90.000000
_cell_volume 2951.977254
_symmetry_space_group_name_H-M "F M M 2"
_symmetry_group_IT_number 42
_symmetry_cell_setting 'orthorhombic'
loop_
_space_group_symop_operation_xyz
x,y,z
-x,-y,z
-x,y,z
x,-y,z
x,1/2+y,1/2+z
-x,1/2-y,1/2+z
-x,1/2+y,1/2+z
x,1/2-y,1/2+z
1/2+x,y,1/2+z
1/2-x,-y,1/2+z
1/2-x,y,1/2+z
1/2+x,-y,1/2+z
1/2+x,1/2+y,z
1/2-x,1/2-y,z
1/2-x,1/2+y,z
1/2+x,1/2-y,z
loop_
_atom_site_type_symbol
_atom_site_label
_atom_site_fract_x
_atom_site_fract_y
_atom_site_fract_z
Si Si1 0.638022 0.393005 0.109370
Si Si2 0.565814 0.381978 0.619145
Si Si3 0.288777 0.500000 0.189293
Si Si4 0.816609 0.774291 0.122479
Si Si5 0.000000 0.781729 0.790044
O O1 0.591675 0.382377 0.336718
O O2 0.673629 0.445342 0.195042
O O3 0.678082 0.338683 0.086534
O O4 0.608046 0.405222 0.837224
O O5 0.500000 0.407091 0.619427
O O6 0.554006 0.320910 0.718269
O O7 0.246001 0.500000 0.426950
O O8 0.844688 0.756951 0.387214
O O9 0.750000 0.750000 0.138725
O O10 0.000000 0.733650 0.584924
#
# Coordination Sequence:
#
# PCOD9369141 Si02
#       5
#    16  16   8  16   8
#     4  12  24  46  71 100 140 185 235 278 365 405
#     4  10  24  42  68 100 143 175 229 291 332 426
#     4  12  30  48  77  98 139 186 236 304 346 422
#     4  10  23  38  63  95 134 173 229 277 342 403
#     4  10  20  36  64  97 148 181 228 270 342 398
#
# _framework density 21.680385000000001
#
# number of rings (size 3 to 8) (size 9 to 14) (size 15 to 20)
#    0.750    0.500    0.000    5.250    7.000    6.000 
#    0.000    3.750    0.000    0.000    0.000    0.000 
#    0.000    0.000    0.000    0.000    0.000    0.000 
#
# Total GULP energy -89351.785347 kJ/mol
# GULP energy per Si atom -5584.486584 kJ/mol
# Density = 2.163104 g / cm^3
# Si number density = 21.680385 Si / 1000 Ang^3
#
#
#
# Elastic Constant Matrix: (Units=GPa)
#
#
# Indices 1 2 3 4 5 6 
#
# 1 69.1054 21.5191 3.7319 0.0313 0.0461 -0.0263
# 2 21.5191 94.7306 -17.9624 0.0220 0.0726 -0.0122
# 3 3.7319 -17.9624 104.9645 0.0559 0.0271 0.0319
# 4 0.0313 0.0220 0.0559 30.0816 -0.0217 -0.0180
# 5 0.0461 0.0726 0.0271 -0.0217 116.6241 -0.0537
# 6 -0.0263 -0.0122 0.0319 -0.0180 -0.0537 23.7986
#
#
#
# Elastic Compliance Matrix: (Units=1/GPa)
#
#
# Indices 1 2 3 4 5 6 
#
# 1 0.015719 -0.003800 -0.001209 -0.000011 -0.000004 0.000017
# 2 -0.003800 0.011829 0.002159 -0.000009 -0.000006 -0.000001
# 3 -0.001209 0.002159 0.009940 -0.000019 -0.000003 -0.000014
# 4 -0.000011 -0.000009 -0.000019 0.033243 0.000006 0.000025
# 5 -0.000004 -0.000006 -0.000003 0.000006 0.008575 0.000019
# 6 0.000017 -0.000001 -0.000014 0.000025 0.000019 0.042019
#
#
# Mechanical properties :
#
#
# Convention : Reuss Voigt Hill
#
# Bulk Modulus (GPa) = 31.45839 31.48642 31.47241
# Shear Modulus (GPa) = 36.33179 51.53499 43.93339
#
# Velocity S-wave (km/s) = 4.09808 4.88077 4.50645
# Velocity P-wave (km/s) = 6.07733 6.80567 6.45178
#
# Compressibility (1/GPa) = 0.03178802
#
# Stress axis : x y z
#
# Youngs Moduli (GPa) = 63.61612 84.53838 100.60794
#
# Poissons Ratio (x) = 0.32125 0.12165
# Poissons Ratio (y) = 0.24175 -0.21725
# Poissons Ratio (z) = 0.07692 -0.18255
#
# Static dielectric constant tensor:
#      x y z
#    x 0.929630 0.000520 0.000250 
#    y 0.000520 1.775810 -0.000010 
#    z 0.000250 -0.000010 1.803200 
# 
# From -- ./inp_files/895.got.cif
#   From: 2010.05.17/outbox.cif.g08.bks.cpg/sg42_1_cif.got.tgz:895.got - 2010.06.03 19:03:34.
