data_PCOD9369677
_publ_section_title
;
Structure prediction by ZEFSAII (Michael W. Deem and Ramdas Pophale) SiO2 
 PCOD9369677
Probable space group: F M M 2
;
_chemical_formula_sum "Si O2"
_cell_formula_units_Z 80
_cell_length_a 17.065658
_cell_length_b 19.042373
_cell_length_c 11.916180
_cell_angle_alpha 90.000000
_cell_angle_beta 90.000000
_cell_angle_gamma 90.000000
_cell_volume 3872.408464
_symmetry_space_group_name_H-M "F M M 2"
_symmetry_group_IT_number 42
_symmetry_cell_setting 'orthorhombic'
loop_
_space_group_symop_operation_xyz
x,y,z
-x,-y,z
-x,y,z
x,-y,z
x,1/2+y,1/2+z
-x,1/2-y,1/2+z
-x,1/2+y,1/2+z
x,1/2-y,1/2+z
1/2+x,y,1/2+z
1/2-x,-y,1/2+z
1/2-x,y,1/2+z
1/2+x,-y,1/2+z
1/2+x,1/2+y,z
1/2-x,1/2-y,z
1/2-x,1/2+y,z
1/2+x,1/2-y,z
loop_
_atom_site_type_symbol
_atom_site_label
_atom_site_fract_x
_atom_site_fract_y
_atom_site_fract_z
Si Si1 0.200813 0.184589 0.297050
Si Si2 0.905853 0.077780 0.648100
Si Si3 0.909774 0.357672 0.606076
Si Si4 0.409772 0.794115 0.996450
Si Si5 0.328108 0.580717 0.889297
O O1 0.250000 0.250000 0.246920
O O2 0.152086 0.139569 0.207217
O O3 0.139689 0.217094 0.385010
O O4 0.257700 0.134307 0.367675
O O5 0.877943 0.140545 0.568821
O O6 0.879551 0.087403 0.776029
O O7 0.000000 0.079394 0.645260
O O8 0.879327 0.000000 0.611025
O O9 0.909415 0.275800 0.570275
O O10 0.878124 0.399796 0.498765
O O11 0.000000 0.376977 0.633862
O O12 0.500000 0.809078 0.965247
O O13 0.301594 0.500000 0.897473
#
# Coordination Sequence:
#
# PCOD9369677 Si02
#       5
#    16  16  16  16  16
#     4  12  25  41  66  96 134 170 214 272 333 383
#     4   9  19  38  64  93 127 168 215 266 319 382
#     4  11  25  44  68  96 132 177 220 266 322 392
#     4  10  22  40  65  96 130 171 218 266 322 393
#     4  11  25  42  66  96 131 171 216 267 326 388
#
# _framework density 20.658978000000001
#
# number of rings (size 3 to 8) (size 9 to 14) (size 15 to 20)
#    0.000    1.400    2.000    2.400    5.600    2.800 
#    0.000    0.000    0.000    3.600    0.000    0.000 
#    0.000    0.000    0.000    0.000    0.000    0.000 
#
# Total GULP energy -111771.437198 kJ/mol
# GULP energy per Si atom -5588.571860 kJ/mol
# Density = 2.061196 g / cm^3
# Si number density = 20.658978 Si / 1000 Ang^3
#
#
#
# Elastic Constant Matrix: (Units=GPa)
#
#
# Indices 1 2 3 4 5 6 
#
# 1 75.5388 21.9521 26.5300 0.0000 0.0000 0.0000
# 2 21.9521 64.4983 0.6647 0.0000 0.0000 0.0000
# 3 26.5300 0.6647 49.5820 0.0000 0.0000 0.0000
# 4 0.0000 0.0000 0.0000 37.0973 0.0000 0.0000
# 5 0.0000 0.0000 0.0000 0.0000 41.5857 0.0000
# 6 0.0000 0.0000 0.0000 0.0000 0.0000 -11.7986
#
#
#
# Elastic Compliance Matrix: (Units=1/GPa)
#
#
# Indices 1 2 3 4 5 6 
#
# 1 0.018481 -0.006189 -0.009805 0.000000 0.000000 0.000000
# 2 -0.006189 0.017579 0.003076 0.000000 0.000000 0.000000
# 3 -0.009805 0.003076 0.025374 0.000000 0.000000 0.000000
# 4 0.000000 0.000000 0.000000 0.026956 0.000000 0.000000
# 5 0.000000 0.000000 0.000000 0.000000 0.024047 0.000000
# 6 0.000000 0.000000 0.000000 0.000000 0.000000 -0.084756
#
#
# Mechanical properties :
#
#
# Convention : Reuss Voigt Hill
#
# Bulk Modulus (GPa) = 28.09263 31.99031 30.04147
# Shear Modulus (GPa) = 76.47237 22.74170 49.60704
#
# Velocity S-wave (km/s) = 6.09072 3.32145 4.90555
# Velocity P-wave (km/s) = 7.94294 5.49799 6.83075
#
# Compressibility (1/GPa) = 0.03559652
#
# Stress axis : x y z
#
# Youngs Moduli (GPa) = 54.11095 56.88617 39.41038
#
# Poissons Ratio (x) = 0.35206 0.38644
# Poissons Ratio (y) = 0.33488 -0.12122
# Poissons Ratio (z) = 0.53058 -0.17497
#
# Static dielectric constant tensor:
#      x y z
#    x 1.751040 0.000000 0.000000 
#    y 0.000000 1.742370 0.000000 
#    z 0.000000 0.000000 1.710090 
# 
# From -- ./inp_files/7767.got.cif
#   From: 2010.05.17/outbox.cif.g08.bks.cpg/sg42_4_cif.got.tgz:7767.got - 2010.06.03 19:03:34.
