data_PCOD9369207
_publ_section_title
;
Structure prediction by ZEFSAII (Michael W. Deem and Ramdas Pophale) SiO2 
 PCOD9369207
Probable space group: F M M 2
;
_chemical_formula_sum "Si O2"
_cell_formula_units_Z 72
_cell_length_a 9.830789
_cell_length_b 15.334923
_cell_length_c 23.877420
_cell_angle_alpha 90.000000
_cell_angle_beta 90.000000
_cell_angle_gamma 90.000000
_cell_volume 3599.625943
_symmetry_space_group_name_H-M "F M M 2"
_symmetry_group_IT_number 42
_symmetry_cell_setting 'orthorhombic'
loop_
_space_group_symop_operation_xyz
x,y,z
-x,-y,z
-x,y,z
x,-y,z
x,1/2+y,1/2+z
-x,1/2-y,1/2+z
-x,1/2+y,1/2+z
x,1/2-y,1/2+z
1/2+x,y,1/2+z
1/2-x,-y,1/2+z
1/2-x,y,1/2+z
1/2+x,-y,1/2+z
1/2+x,1/2+y,z
1/2-x,1/2-y,z
1/2-x,1/2+y,z
1/2+x,1/2-y,z
loop_
_atom_site_type_symbol
_atom_site_label
_atom_site_fract_x
_atom_site_fract_y
_atom_site_fract_z
Si Si1 0.500000 0.093010 0.254861
Si Si2 0.654624 0.604432 0.067874
Si Si3 0.500000 0.706737 0.862117
Si Si4 0.655445 0.674411 0.664653
Si Si5 0.500000 0.597773 0.392789
Si Si6 0.797148 0.897845 0.940005
O O1 0.500000 0.168074 0.300139
O O2 0.627890 0.103494 0.212923
O O3 0.500000 0.000000 0.283683
O O4 0.500000 0.625217 0.085276
O O5 0.669203 0.500000 0.068671
O O6 0.766220 0.642533 0.109708
O O7 0.672860 0.631429 0.003332
O O8 0.500000 0.811413 0.859091
O O9 0.626833 0.665198 0.896489
O O10 0.500000 0.702325 0.651418
O O11 0.750000 0.750000 0.688590
O O12 0.500000 0.500000 0.365401
O O13 0.363376 0.602396 0.429210
O O14 0.841525 0.000000 0.933743
#
# Coordination Sequence:
#
# PCOD9369207 Si02
#       6
#     8  16   8  16   8  16
#     4  10  24  43  70  94 121 169 228 275 325 393
#     4  10  20  37  64  96 134 173 215 273 333 394
#     4  12  22  42  68  93 129 173 219 270 326 391
#     4  10  23  40  63  92 129 168 225 272 328 386
#     4  10  24  39  58  93 136 174 211 265 325 396
#     4  10  21  39  63  97 135 173 217 265 330 393
#
# _framework density 20.002078000000001
#
# number of rings (size 3 to 8) (size 9 to 14) (size 15 to 20)
#    0.667    1.111    1.111    3.000    1.556    3.556 
#    0.000    0.000    2.444    1.333    0.000    0.000 
#    0.000    0.000    0.000    0.000    0.000    0.000 
#
# Total GULP energy -100343.366447 kJ/mol
# GULP energy per Si atom -5574.631469 kJ/mol
# Density = 1.995655 g / cm^3
# Si number density = 20.002078 Si / 1000 Ang^3
#
#
#
# Elastic Constant Matrix: (Units=GPa)
#
#
# Indices 1 2 3 4 5 6 
#
# 1 144.1442 26.1132 23.5325 0.0000 0.0000 0.0000
# 2 26.1132 114.1980 37.1225 0.0000 0.0000 0.0000
# 3 23.5325 37.1225 81.6614 0.0000 0.0000 0.0000
# 4 0.0000 0.0000 0.0000 96.2145 0.0000 0.0000
# 5 0.0000 0.0000 0.0000 0.0000 13.4669 0.0000
# 6 0.0000 0.0000 0.0000 0.0000 0.0000 16.9166
#
#
#
# Elastic Compliance Matrix: (Units=1/GPa)
#
#
# Indices 1 2 3 4 5 6 
#
# 1 0.007412 -0.001174 -0.001602 0.000000 0.000000 0.000000
# 2 -0.001174 0.010461 -0.004417 0.000000 0.000000 0.000000
# 3 -0.001602 -0.004417 0.014715 0.000000 0.000000 0.000000
# 4 0.000000 0.000000 0.000000 0.010393 0.000000 0.000000
# 5 0.000000 0.000000 0.000000 0.000000 0.074256 0.000000
# 6 0.000000 0.000000 0.000000 0.000000 0.000000 0.059113
#
#
# Mechanical properties :
#
#
# Convention : Reuss Voigt Hill
#
# Bulk Modulus (GPa) = 54.94051 57.06000 56.00026
# Shear Modulus (GPa) = 25.40583 42.20196 33.80389
#
# Velocity S-wave (km/s) = 3.56780 4.59832 4.11544
# Velocity P-wave (km/s) = 6.67078 7.53537 7.11621
#
# Compressibility (1/GPa) = 0.01820151
#
# Stress axis : x y z
#
# Youngs Moduli (GPa) = 134.92098 95.59240 67.95596
#
# Poissons Ratio (x) = 0.11222 0.10888
# Poissons Ratio (y) = 0.15840 0.30018
# Poissons Ratio (z) = 0.21617 0.42225
#
# Static dielectric constant tensor:
#      x y z
#    x 1.707770 0.000000 0.000000 
#    y 0.000000 1.568190 0.000000 
#    z 0.000000 0.000000 1.673710 
# 
# From -- ./inp_files/31160.got.cif
#   From: 2010.05.17/outbox.cif.g08.bks.cpg/sg42_16_cif.got.tgz:31160.got - 2010.06.03 19:03:34.
