data_PCOD9369494
_publ_section_title
;
Structure prediction by ZEFSAII (Michael W. Deem and Ramdas Pophale) SiO2 
 PCOD9369494
Probable space group: F M M 2
;
_chemical_formula_sum "Si O2"
_cell_formula_units_Z 88
_cell_length_a 9.379747
_cell_length_b 15.862504
_cell_length_c 27.752082
_cell_angle_alpha 90.000000
_cell_angle_beta 90.000000
_cell_angle_gamma 90.000000
_cell_volume 4129.128885
_symmetry_space_group_name_H-M "F M M 2"
_symmetry_group_IT_number 42
_symmetry_cell_setting 'orthorhombic'
loop_
_space_group_symop_operation_xyz
x,y,z
-x,-y,z
-x,y,z
x,-y,z
x,1/2+y,1/2+z
-x,1/2-y,1/2+z
-x,1/2+y,1/2+z
x,1/2-y,1/2+z
1/2+x,y,1/2+z
1/2-x,-y,1/2+z
1/2-x,y,1/2+z
1/2+x,-y,1/2+z
1/2+x,1/2+y,z
1/2-x,1/2-y,z
1/2-x,1/2+y,z
1/2+x,1/2-y,z
loop_
_atom_site_type_symbol
_atom_site_label
_atom_site_fract_x
_atom_site_fract_y
_atom_site_fract_z
Si Si1 0.662789 0.101860 0.456730
Si Si2 0.158969 0.902447 0.547376
Si Si3 0.659265 0.326991 0.116003
Si Si4 0.170851 0.338512 0.862955
Si Si5 0.838011 0.405821 0.276477
Si Si6 0.250000 0.250000 0.710688
O O1 0.500000 0.133716 0.451252
O O2 0.736324 0.132303 0.506165
O O3 0.763844 0.128031 0.412782
O O4 0.654327 0.000000 0.457300
O O5 0.238250 0.900620 0.598876
O O6 0.000000 0.864940 0.549259
O O7 0.142647 0.000000 0.534168
O O8 0.500000 0.337794 0.098236
O O9 0.750000 0.250000 0.093479
O O10 0.655507 0.302558 0.172193
O O11 0.250000 0.250000 0.853763
O O12 0.223867 0.396565 0.819019
O O13 0.000000 0.330991 0.864282
O O14 0.822532 0.500000 0.253910
O O15 0.819940 0.323958 0.242273
O O16 0.000000 0.402100 0.296278
#
# Coordination Sequence:
#
# PCOD9369494 Si02
#       6
#    16  16  16  16  16   8
#     4  10  21  39  63  92 129 170 213 263 322 388
#     4  10  21  38  62  92 127 167 214 266 322 387
#     4  10  22  39  61  88 121 161 206 261 322 382
#     4  12  25  41  64  94 132 172 218 272 326 389
#     4  11  24  44  71 100 134 177 222 272 335 400
#     4  10  24  42  70  96 134 174 218 278 332 398
#
# _framework density 21.312000000000001
#
# number of rings (size 3 to 8) (size 9 to 14) (size 15 to 20)
#    0.545    0.909    0.909    4.364    0.000    6.909 
#    0.000    5.455    0.000    0.000    0.000    0.000 
#    0.000    0.000    0.000    0.000    0.000    0.000 
#
# Total GULP energy -122546.029718 kJ/mol
# GULP energy per Si atom -5570.274078 kJ/mol
# Density = 2.126349 g / cm^3
# Si number density = 21.312000 Si / 1000 Ang^3
#
#
#
# Elastic Constant Matrix: (Units=GPa)
#
#
# Indices 1 2 3 4 5 6 
#
# 1 218.0376 33.9662 59.0489 0.0000 0.0000 0.0000
# 2 33.9662 74.6592 28.7423 0.0000 0.0000 0.0000
# 3 59.0489 28.7423 95.8513 0.0000 0.0000 0.0000
# 4 0.0000 0.0000 0.0000 33.5723 0.0000 0.0000
# 5 0.0000 0.0000 0.0000 0.0000 283.1323 0.0000
# 6 0.0000 0.0000 0.0000 0.0000 0.0000 23.3292
#
#
#
# Elastic Compliance Matrix: (Units=1/GPa)
#
#
# Indices 1 2 3 4 5 6 
#
# 1 0.005629 -0.001386 -0.003052 0.000000 0.000000 0.000000
# 2 -0.001386 0.015483 -0.003789 0.000000 0.000000 0.000000
# 3 -0.003052 -0.003789 0.013449 0.000000 0.000000 0.000000
# 4 0.000000 0.000000 0.000000 0.029786 0.000000 0.000000
# 5 0.000000 0.000000 0.000000 0.000000 0.003532 0.000000
# 6 0.000000 0.000000 0.000000 0.000000 0.000000 0.042865
#
#
# Mechanical properties :
#
#
# Convention : Reuss Voigt Hill
#
# Bulk Modulus (GPa) = 55.22606 70.22920 62.72763
# Shear Modulus (GPa) = 37.52779 85.79281 61.66030
#
# Velocity S-wave (km/s) = 4.20083 6.35162 5.38470
# Velocity P-wave (km/s) = 7.03553 9.31746 8.25572
#
# Compressibility (1/GPa) = 0.01810739
#
# Stress axis : x y z
#
# Youngs Moduli (GPa) = 177.65750 64.58513 74.35349
#
# Poissons Ratio (x) = 0.08951 0.22693
# Poissons Ratio (y) = 0.24621 0.28174
# Poissons Ratio (z) = 0.54222 0.24472
#
# Static dielectric constant tensor:
#      x y z
#    x 1.705350 0.000000 0.000000 
#    y 0.000000 2.046920 0.000000 
#    z 0.000000 0.000000 1.782970 
# 
# From -- ./inp_files/33707.got.cif
#   From: 2010.05.17/outbox.cif.g08.bks.cpg/sg42_17_cif.got.tgz:33707.got - 2010.06.03 19:03:34.
