data_PCOD9369129
_publ_section_title
;
Structure prediction by ZEFSAII (Michael W. Deem and Ramdas Pophale) SiO2 
 PCOD9369129
Probable space group: F M M 2
;
_chemical_formula_sum "Si O2"
_cell_formula_units_Z 96
_cell_length_a 29.120921
_cell_length_b 17.406805
_cell_length_c 9.074959
_cell_angle_alpha 90.000000
_cell_angle_beta 90.000000
_cell_angle_gamma 90.000000
_cell_volume 4600.116621
_symmetry_space_group_name_H-M "F M M 2"
_symmetry_group_IT_number 42
_symmetry_cell_setting 'orthorhombic'
loop_
_space_group_symop_operation_xyz
x,y,z
-x,-y,z
-x,y,z
x,-y,z
x,1/2+y,1/2+z
-x,1/2-y,1/2+z
-x,1/2+y,1/2+z
x,1/2-y,1/2+z
1/2+x,y,1/2+z
1/2-x,-y,1/2+z
1/2-x,y,1/2+z
1/2+x,-y,1/2+z
1/2+x,1/2+y,z
1/2-x,1/2-y,z
1/2-x,1/2+y,z
1/2+x,1/2-y,z
loop_
_atom_site_type_symbol
_atom_site_label
_atom_site_fract_x
_atom_site_fract_y
_atom_site_fract_z
Si Si1 0.409130 0.276013 0.943830
Si Si2 0.591194 0.913582 0.232582
Si Si3 0.370335 0.660719 0.245651
Si Si4 0.304556 0.592734 0.737676
Si Si5 0.285540 0.406739 0.074742
Si Si6 0.449909 0.116988 0.924212
O O1 0.422872 0.350044 0.850133
O O2 0.367214 0.229330 0.865091
O O3 0.447218 0.209784 0.939628
O O4 0.395534 0.301575 0.105600
O O5 0.643540 0.891141 0.188676
O O6 0.592508 0.000000 0.295211
O O7 0.560762 0.912849 0.086977
O O8 0.323823 0.624289 0.187283
O O9 0.406502 0.601038 0.318532
O O10 0.300736 0.500000 0.738420
O O11 0.264400 0.620209 0.630013
O O12 0.296756 0.617303 0.907190
O O13 0.286976 0.500000 0.077412
O O14 0.500000 0.093211 0.871656
#
# Coordination Sequence:
#
# PCOD9369129 Si02
#       6
#    16  16  16  16  16  16
#     4  10  20  39  63  90 125 163 214 254 324 390
#     4  11  22  40  67  95 131 168 215 272 319 377
#     4  10  21  38  63  87 126 167 214 261 315 386
#     4   9  20  35  58  92 126 166 209 255 322 385
#     4  10  20  36  61  91 124 166 214 259 314 385
#     4  10  23  42  64  90 122 168 215 262 326 389
#
# _framework density 20.869036999999999
#
# number of rings (size 3 to 8) (size 9 to 14) (size 15 to 20)
#    1.000    1.000    3.333    0.000    2.333    3.667 
#    0.000    0.833    3.667    0.000    0.000    0.000 
#    0.000    0.000    0.000    0.000    0.000    0.000 
#
# Total GULP energy -133787.421111 kJ/mol
# GULP energy per Si atom -5574.475880 kJ/mol
# Density = 2.082154 g / cm^3
# Si number density = 20.869037 Si / 1000 Ang^3
#
#
#
# Elastic Constant Matrix: (Units=GPa)
#
#
# Indices 1 2 3 4 5 6 
#
# 1 60.9169 9.1949 -3.2552 0.0000 0.0000 0.0000
# 2 9.1949 70.5281 4.7450 0.0000 0.0000 0.0000
# 3 -3.2552 4.7450 55.2748 0.0000 0.0000 0.0000
# 4 0.0000 0.0000 0.0000 20.4648 0.0000 0.0000
# 5 0.0000 0.0000 0.0000 0.0000 21.5379 0.0000
# 6 0.0000 0.0000 0.0000 0.0000 0.0000 60.8360
#
#
#
# Elastic Compliance Matrix: (Units=1/GPa)
#
#
# Indices 1 2 3 4 5 6 
#
# 1 0.016822 -0.002273 0.001186 0.000000 0.000000 0.000000
# 2 -0.002273 0.014568 -0.001384 0.000000 0.000000 0.000000
# 3 0.001186 -0.001384 0.018280 0.000000 0.000000 0.000000
# 4 0.000000 0.000000 0.000000 0.048864 0.000000 0.000000
# 5 0.000000 0.000000 0.000000 0.000000 0.046430 0.000000
# 6 0.000000 0.000000 0.000000 0.000000 0.000000 0.016438
#
#
# Mechanical properties :
#
#
# Convention : Reuss Voigt Hill
#
# Bulk Modulus (GPa) = 22.35764 23.12102 22.73933
# Shear Modulus (GPa) = 27.58551 32.30342 29.94446
#
# Velocity S-wave (km/s) = 3.63965 3.93862 3.79208
# Velocity P-wave (km/s) = 5.32910 5.63798 5.48571
#
# Compressibility (1/GPa) = 0.04472743
#
# Stress axis : x y z
#
# Youngs Moduli (GPa) = 59.44511 68.64257 54.70425
#
# Poissons Ratio (x) = 0.15602 -0.06487
# Poissons Ratio (y) = 0.13511 0.07574
# Poissons Ratio (z) = -0.07049 0.09503
#
# Static dielectric constant tensor:
#      x y z
#    x 1.746910 0.000000 0.000000 
#    y 0.000000 1.773380 0.000000 
#    z 0.000000 0.000000 1.723970 
# 
# From -- ./inp_files/5182.got.cif
#   From: 2010.05.17/outbox.cif.g08.bks.cpg/sg42_3_cif.got.tgz:5182.got - 2010.06.03 19:03:34.
