data_PCOD9369586
_publ_section_title
;
Structure prediction by ZEFSAII (Michael W. Deem and Ramdas Pophale) SiO2 
 PCOD9369586
Probable space group: F M M 2
;
_chemical_formula_sum "Si O2"
_cell_formula_units_Z 68
_cell_length_a 19.068342
_cell_length_b 14.001853
_cell_length_c 13.137036
_cell_angle_alpha 90.000000
_cell_angle_beta 90.000000
_cell_angle_gamma 90.000000
_cell_volume 3507.485114
_symmetry_space_group_name_H-M "F M M 2"
_symmetry_group_IT_number 42
_symmetry_cell_setting 'orthorhombic'
loop_
_space_group_symop_operation_xyz
x,y,z
-x,-y,z
-x,y,z
x,-y,z
x,1/2+y,1/2+z
-x,1/2-y,1/2+z
-x,1/2+y,1/2+z
x,1/2-y,1/2+z
1/2+x,y,1/2+z
1/2-x,-y,1/2+z
1/2-x,y,1/2+z
1/2+x,-y,1/2+z
1/2+x,1/2+y,z
1/2-x,1/2-y,z
1/2-x,1/2+y,z
1/2+x,1/2-y,z
loop_
_atom_site_type_symbol
_atom_site_label
_atom_site_fract_x
_atom_site_fract_y
_atom_site_fract_z
Si Si1 0.344909 0.386080 0.511620
Si Si2 0.922350 0.500000 0.669186
Si Si3 0.750000 0.750000 0.641980
Si Si4 0.368937 0.319140 0.288191
Si Si5 0.000000 0.000000 0.967611
Si Si6 0.000000 0.612013 0.084890
Si Si7 0.000000 0.320666 0.315074
O O1 0.341649 0.500000 0.529653
O O2 0.281900 0.333234 0.570422
O O3 0.339578 0.362664 0.392446
O O4 0.424185 0.351382 0.544422
O O5 0.889814 0.405465 0.713960
O O6 0.000000 0.500000 0.715056
O O7 0.934646 0.500000 0.547521
O O8 0.687028 0.766346 0.719873
O O9 0.432623 0.248651 0.316850
O O10 0.000000 0.903949 0.900079
O O11 0.000000 0.628193 0.205332
O O12 0.000000 0.500000 0.058469
#
# Coordination Sequence:
#
# PCOD9369586 Si02
#       7
#    16   8   8  16   4   8   8
#     4  11  25  45  71 100 132 184 231 282 342 407
#     4  10  24  46  66 104 136 176 226 295 345 393
#     4  12  28  44  64 102 144 186 226 278 342 410
#     4  12  25  45  70  99 139 181 231 281 344 414
#     4  10  26  40  72 114 134 174 222 300 350 398
#     4  10  21  41  69  97 133 168 226 283 330 398
#     4  12  22  42  73 103 136 172 227 289 340 405
#
# _framework density 19.38711
#
# number of rings (size 3 to 8) (size 9 to 14) (size 15 to 20)
#    0.353    0.471    5.294    1.412    4.941    1.882 
#    0.000    0.000    0.000    0.000    0.000    0.000 
#    0.000    0.000    0.000    0.000    0.000    0.000 
#
# Total GULP energy -94786.302179 kJ/mol
# GULP energy per Si atom -5575.664834 kJ/mol
# Density = 1.934298 g / cm^3
# Si number density = 19.387110 Si / 1000 Ang^3
#
#
#
# Elastic Constant Matrix: (Units=GPa)
#
#
# Indices 1 2 3 4 5 6 
#
# 1 77.1895 52.5410 42.5837 0.0000 0.0000 0.0000
# 2 52.5410 107.5993 55.5499 0.0000 0.0000 0.0000
# 3 42.5837 55.5499 150.7107 0.0000 0.0000 0.0000
# 4 0.0000 0.0000 0.0000 40.1673 0.0000 0.0000
# 5 0.0000 0.0000 0.0000 0.0000 -9.7786 0.0000
# 6 0.0000 0.0000 0.0000 0.0000 0.0000 36.9642
#
#
#
# Elastic Compliance Matrix: (Units=1/GPa)
#
#
# Indices 1 2 3 4 5 6 
#
# 1 0.020171 -0.008531 -0.002555 0.000000 0.000000 0.000000
# 2 -0.008531 0.015085 -0.003150 0.000000 0.000000 0.000000
# 3 -0.002555 -0.003150 0.008518 0.000000 0.000000 0.000000
# 4 0.000000 0.000000 0.000000 0.024896 0.000000 0.000000
# 5 0.000000 0.000000 0.000000 0.000000 -0.102264 0.000000
# 6 0.000000 0.000000 0.000000 0.000000 0.000000 0.027053
#
#
# Mechanical properties :
#
#
# Convention : Reuss Voigt Hill
#
# Bulk Modulus (GPa) = 65.34421 70.76096 68.05258
# Shear Modulus (GPa) = 184.96076 25.79224 105.37650
#
# Velocity S-wave (km/s) = 9.77809 3.65140 7.38051
# Velocity P-wave (km/s) = 12.69880 7.37259 10.38303
#
# Compressibility (1/GPa) = 0.01530358
#
# Stress axis : x y z
#
# Youngs Moduli (GPa) = 49.57539 66.28915 117.39499
#
# Poissons Ratio (x) = 0.56548 0.29997
# Poissons Ratio (y) = 0.42290 0.36979
# Poissons Ratio (z) = 0.12668 0.20881
#
# Static dielectric constant tensor:
#      x y z
#    x 1.652080 0.000000 0.000000 
#    y 0.000000 1.642270 0.000000 
#    z 0.000000 0.000000 1.649460 
# 
# From -- ./inp_files/9294.got.cif
#   From: 2010.05.17/outbox.cif.g08.bks.cpg/sg42_5_cif.got.tgz:9294.got - 2010.06.03 19:03:34.
