data_PCOD9369212
_publ_section_title
;
Structure prediction by ZEFSAII (Michael W. Deem and Ramdas Pophale) SiO2 
 PCOD9369212
Probable space group: F M M 2
;
_chemical_formula_sum "Si O2"
_cell_formula_units_Z 68
_cell_length_a 17.399568
_cell_length_b 30.785142
_cell_length_c 4.952129
_cell_angle_alpha 90.000000
_cell_angle_beta 90.000000
_cell_angle_gamma 90.000000
_cell_volume 2652.598844
_symmetry_space_group_name_H-M "F M M 2"
_symmetry_group_IT_number 42
_symmetry_cell_setting 'orthorhombic'
loop_
_space_group_symop_operation_xyz
x,y,z
-x,-y,z
-x,y,z
x,-y,z
x,1/2+y,1/2+z
-x,1/2-y,1/2+z
-x,1/2+y,1/2+z
x,1/2-y,1/2+z
1/2+x,y,1/2+z
1/2-x,-y,1/2+z
1/2-x,y,1/2+z
1/2+x,-y,1/2+z
1/2+x,1/2+y,z
1/2-x,1/2-y,z
1/2-x,1/2+y,z
1/2+x,1/2-y,z
loop_
_atom_site_type_symbol
_atom_site_label
_atom_site_fract_x
_atom_site_fract_y
_atom_site_fract_z
Si Si1 0.000000 0.500000 0.220701
Si Si2 0.194230 0.095300 0.805828
Si Si3 0.906586 0.724337 0.590961
Si Si4 0.798134 0.000000 0.875768
Si Si5 0.913131 0.357155 0.926271
Si Si6 0.500000 0.566559 0.219594
O O1 0.000000 0.537651 0.458440
O O2 0.000000 0.537295 0.983084
O O3 0.264759 0.099248 0.592220
O O4 0.133917 0.128919 0.686911
O O5 0.163719 0.045095 0.791741
O O6 0.882924 0.763884 0.789233
O O7 0.880136 0.680745 0.739456
O O8 0.000000 0.722188 0.587049
O O9 0.720442 0.000000 0.693010
O O10 0.000000 0.343943 0.013599
O O11 0.928286 0.400260 0.746366
#
# Coordination Sequence:
#
# PCOD9369212 Si02
#       6
#     4  16  16   8  16   8
#     4  10  20  38  50  84 124 158 180 234 310 342
#     4  10  21  38  59  83 115 156 198 242 292 348
#     4   9  18  33  56  85 115 149 189 243 299 353
#     4   8  16  32  52  74 103 145 192 230 270 336
#     4   9  21  41  60  93 118 154 202 252 296 359
#     4   9  22  36  56  81 120 153 192 238 288 349
#
# _framework density 25.635237
#
# number of rings (size 3 to 8) (size 9 to 14) (size 15 to 20)
#    0.706    2.118    0.000    0.000    0.000    7.529 
#    0.000    9.412    0.000    4.235    0.000    0.000 
#    0.000    0.000    0.000    0.000    0.000    0.000 
#
# Total GULP energy -94883.280923 kJ/mol
# GULP energy per Si atom -5581.369466 kJ/mol
# Density = 2.557689 g / cm^3
# Si number density = 25.635237 Si / 1000 Ang^3
#
#
#
# Elastic Constant Matrix: (Units=GPa)
#
#
# Indices 1 2 3 4 5 6 
#
# 1 61.2658 1.8083 10.4461 -0.0009 0.0138 0.0041
# 2 1.8083 125.8457 36.0295 -0.0015 0.0041 0.0009
# 3 10.4461 36.0295 147.1039 -0.0037 -0.0119 -0.0012
# 4 -0.0009 -0.0015 -0.0037 48.3339 0.0013 -0.0018
# 5 0.0138 0.0041 -0.0119 0.0013 23.2708 -0.0060
# 6 0.0041 0.0009 -0.0012 -0.0018 -0.0060 31.1188
#
#
#
# Elastic Compliance Matrix: (Units=1/GPa)
#
#
# Indices 1 2 3 4 5 6 
#
# 1 0.016524 0.000106 -0.001199 0.000000 -0.000010 -0.000002
# 2 0.000106 0.008546 -0.002101 0.000000 -0.000003 0.000000
# 3 -0.001199 -0.002101 0.007398 0.000000 0.000005 0.000000
# 4 0.000000 0.000000 0.000000 0.020689 -0.000001 0.000001
# 5 -0.000010 -0.000003 0.000005 -0.000001 0.042972 0.000008
# 6 -0.000002 0.000000 0.000000 0.000001 0.000008 0.032135
#
#
# Mechanical properties :
#
#
# Convention : Reuss Voigt Hill
#
# Bulk Modulus (GPa) = 38.34464 47.86480 43.10472
# Shear Modulus (GPa) = 34.88081 39.60680 37.24381
#
# Velocity S-wave (km/s) = 3.69271 3.93493 3.81574
# Velocity P-wave (km/s) = 5.75949 6.27351 6.02199
#
# Compressibility (1/GPa) = 0.02607927
#
# Stress axis : x y z
#
# Youngs Moduli (GPa) = 60.51920 117.01187 135.17912
#
# Poissons Ratio (x) = -0.01240 0.16212
# Poissons Ratio (y) = -0.00641 0.28397
# Poissons Ratio (z) = 0.07258 0.24581
#
# Static dielectric constant tensor:
#      x y z
#    x 2.115040 -0.000010 0.000000 
#    y -0.000010 2.073020 0.000010 
#    z 0.000000 0.000010 1.973460 
# 
# From -- ./inp_files/978.got.cif
#   From: 2010.05.17/outbox.cif.g08.bks.cpg/sg42_1_cif.got.tgz:978.got - 2010.06.03 19:03:34.
