data_PCOD9369602
_publ_section_title
;
Structure prediction by ZEFSAII (Michael W. Deem and Ramdas Pophale) SiO2 
 PCOD9369602
Probable space group: F M M 2
;
_chemical_formula_sum "Si O2"
_cell_formula_units_Z 68
_cell_length_a 15.659460
_cell_length_b 7.963900
_cell_length_c 28.077598
_cell_angle_alpha 90.000000
_cell_angle_beta 90.000000
_cell_angle_gamma 90.000000
_cell_volume 3501.567733
_symmetry_space_group_name_H-M "F M M 2"
_symmetry_group_IT_number 42
_symmetry_cell_setting 'orthorhombic'
loop_
_space_group_symop_operation_xyz
x,y,z
-x,-y,z
-x,y,z
x,-y,z
x,1/2+y,1/2+z
-x,1/2-y,1/2+z
-x,1/2+y,1/2+z
x,1/2-y,1/2+z
1/2+x,y,1/2+z
1/2-x,-y,1/2+z
1/2-x,y,1/2+z
1/2+x,-y,1/2+z
1/2+x,1/2+y,z
1/2-x,1/2-y,z
1/2-x,1/2+y,z
1/2+x,1/2-y,z
loop_
_atom_site_type_symbol
_atom_site_label
_atom_site_fract_x
_atom_site_fract_y
_atom_site_fract_z
Si Si1 0.158502 0.801653 0.455310
Si Si2 0.500000 0.500000 0.097586
Si Si3 0.500000 0.795235 0.022071
Si Si4 0.104866 0.192503 0.749757
Si Si5 0.596365 0.799668 0.354064
Si Si6 0.598787 0.500000 0.189560
O O1 0.250000 0.750000 0.474850
O O2 0.081875 0.750594 0.489762
O O3 0.147456 0.734470 0.401820
O O4 0.154148 0.000000 0.451456
O O5 0.500000 0.670502 0.066924
O O6 0.582063 0.500000 0.133145
O O7 0.500000 0.000000 0.031645
O O8 0.129981 0.256986 0.802632
O O9 0.134934 0.327836 0.710987
O O10 0.000000 0.184238 0.750169
O O11 0.133761 0.000000 0.741750
O O12 0.500000 0.731603 0.361127
O O13 0.590389 0.000000 0.348901
O O14 0.500000 0.500000 0.208092
#
# Coordination Sequence:
#
# PCOD9369602 Si02
#       6
#    16   4   8  16  16   8
#     4  11  23  37  56  84 117 159 199 239 289 351
#     4  10  22  34  60  78 114 150 190 254 308 344
#     4  10  24  42  57  83 119 151 196 254 300 347
#     4   8  14  25  43  72 116 143 176 223 276 333
#     4   9  17  29  50  80 114 157 185 222 280 335
#     4   8  16  28  44  81 101 138 186 230 287 337
#
# _framework density 19.419872999999999
#
# number of rings (size 3 to 8) (size 9 to 14) (size 15 to 20)
#    0.353    2.353    1.176    2.118    4.941    0.941 
#    0.000    0.000    0.000    0.000    0.000    1.647 
#    0.000    0.000    0.000    0.000    0.000    0.000 
#
# Total GULP energy -94684.642311 kJ/mol
# GULP energy per Si atom -5569.684842 kJ/mol
# Density = 1.937567 g / cm^3
# Si number density = 19.419873 Si / 1000 Ang^3
#
#
#
# Elastic Constant Matrix: (Units=GPa)
#
#
# Indices 1 2 3 4 5 6 
#
# 1 67.6172 16.8383 37.7705 0.0000 0.0000 0.0000
# 2 16.8383 77.2227 67.3597 0.0000 0.0000 0.0000
# 3 37.7705 67.3597 136.7235 0.0000 0.0000 0.0000
# 4 0.0000 0.0000 0.0000 41.0345 0.0000 0.0000
# 5 0.0000 0.0000 0.0000 0.0000 -7.8485 0.0000
# 6 0.0000 0.0000 0.0000 0.0000 0.0000 14.4310
#
#
#
# Elastic Compliance Matrix: (Units=1/GPa)
#
#
# Indices 1 2 3 4 5 6 
#
# 1 0.017510 0.000704 -0.005184 0.000000 0.000000 0.000000
# 2 0.000704 0.022737 -0.011396 0.000000 0.000000 0.000000
# 3 -0.005184 -0.011396 0.014361 0.000000 0.000000 0.000000
# 4 0.000000 0.000000 0.000000 0.024370 0.000000 0.000000
# 5 0.000000 0.000000 0.000000 0.000000 -0.127412 0.000000
# 6 0.000000 0.000000 0.000000 0.000000 0.000000 0.069295
#
#
# Mechanical properties :
#
#
# Convention : Reuss Voigt Hill
#
# Bulk Modulus (GPa) = 43.75498 58.38895 51.07196
# Shear Modulus (GPa) = 83.01496 20.16306 51.58901
#
# Velocity S-wave (km/s) = 6.54524 3.22571 5.15972
# Velocity P-wave (km/s) = 8.92750 6.63367 7.86466
#
# Compressibility (1/GPa) = 0.02285454
#
# Stress axis : x y z
#
# Youngs Moduli (GPa) = 57.11175 43.98174 69.63470
#
# Poissons Ratio (x) = -0.03096 0.36098
# Poissons Ratio (y) = -0.04020 0.79357
# Poissons Ratio (z) = 0.29606 0.50122
#
# Static dielectric constant tensor:
#      x y z
#    x 1.719900 0.000000 0.000000 
#    y 0.000000 1.697530 0.000000 
#    z 0.000000 0.000000 1.684640 
# 
# From -- ./inp_files/31235.got.cif
#   From: 2010.05.17/outbox.cif.g08.bks.cpg/sg42_16_cif.got.tgz:31235.got - 2010.06.03 19:03:34.
