data_PCOD9369806
_publ_section_title
;
Structure prediction by ZEFSAII (Michael W. Deem and Ramdas Pophale) SiO2 
 PCOD9369806
Probable space group: F M M 2
;
_chemical_formula_sum "Si O2"
_cell_formula_units_Z 72
_cell_length_a 14.258747
_cell_length_b 27.939540
_cell_length_c 9.070196
_cell_angle_alpha 90.000000
_cell_angle_beta 90.000000
_cell_angle_gamma 90.000000
_cell_volume 3613.410371
_symmetry_space_group_name_H-M "F M M 2"
_symmetry_group_IT_number 42
_symmetry_cell_setting 'orthorhombic'
loop_
_space_group_symop_operation_xyz
x,y,z
-x,-y,z
-x,y,z
x,-y,z
x,1/2+y,1/2+z
-x,1/2-y,1/2+z
-x,1/2+y,1/2+z
x,1/2-y,1/2+z
1/2+x,y,1/2+z
1/2-x,-y,1/2+z
1/2-x,y,1/2+z
1/2+x,-y,1/2+z
1/2+x,1/2+y,z
1/2-x,1/2-y,z
1/2-x,1/2+y,z
1/2+x,1/2-y,z
loop_
_atom_site_type_symbol
_atom_site_label
_atom_site_fract_x
_atom_site_fract_y
_atom_site_fract_z
Si Si1 0.250000 0.250000 0.442621
Si Si2 0.662563 0.403327 0.619508
Si Si3 0.808674 0.055923 0.929455
Si Si4 0.614792 0.796290 0.193232
Si Si5 0.000000 0.943391 0.091589
Si Si6 0.500000 0.556654 0.419918
O O1 0.322019 0.221157 0.333369
O O2 0.325151 0.276514 0.551737
O O3 0.749305 0.403054 0.509053
O O4 0.624912 0.353464 0.679620
O O5 0.586803 0.427484 0.515851
O O6 0.691959 0.436393 0.755761
O O7 0.910617 0.065600 0.993377
O O8 0.782131 0.000000 0.961917
O O9 0.500000 0.784626 0.196428
O O10 0.000000 0.921493 0.255130
O O11 0.000000 0.000000 0.117329
O O12 0.500000 0.500000 0.410191
#
# Coordination Sequence:
#
# PCOD9369806 Si02
#       6
#     8  16  16  16   8   8
#     4  10  24  44  74  98 132 180 212 274 360 426
#     4  12  23  38  62  91 127 165 217 273 320 390
#     4  11  22  38  58  87 126 175 219 268 322 379
#     4  11  23  45  69 102 136 169 224 277 346 413
#     4   9  21  37  55  79 114 161 219 261 311 375
#     4  11  21  37  57  85 122 169 211 257 315 373
#
# _framework density 19.925775000000002
#
# number of rings (size 3 to 8) (size 9 to 14) (size 15 to 20)
#    0.000    1.111    1.111    6.000    0.000    2.667 
#    0.000    0.000    2.444    0.000    0.000    0.000 
#    0.000    0.000    0.000    0.000    0.000    0.000 
#
# Total GULP energy -100242.403958 kJ/mol
# GULP energy per Si atom -5569.022442 kJ/mol
# Density = 1.988042 g / cm^3
# Si number density = 19.925775 Si / 1000 Ang^3
#
#
#
# Elastic Constant Matrix: (Units=GPa)
#
#
# Indices 1 2 3 4 5 6 
#
# 1 123.0844 21.3579 20.6860 0.0000 0.0000 0.0000
# 2 21.3579 49.9968 11.3259 0.0000 0.0000 0.0000
# 3 20.6860 11.3259 115.8208 0.0000 0.0000 0.0000
# 4 0.0000 0.0000 0.0000 18.9254 0.0000 0.0000
# 5 0.0000 0.0000 0.0000 0.0000 31.0298 0.0000
# 6 0.0000 0.0000 0.0000 0.0000 0.0000 27.2830
#
#
#
# Elastic Compliance Matrix: (Units=1/GPa)
#
#
# Indices 1 2 3 4 5 6 
#
# 1 0.008949 -0.003539 -0.001252 0.000000 0.000000 0.000000
# 2 -0.003539 0.021854 -0.001505 0.000000 0.000000 0.000000
# 3 -0.001252 -0.001505 0.009005 0.000000 0.000000 0.000000
# 4 0.000000 0.000000 0.000000 0.052839 0.000000 0.000000
# 5 0.000000 0.000000 0.000000 0.000000 0.032227 0.000000
# 6 0.000000 0.000000 0.000000 0.000000 0.000000 0.036653
#
#
# Mechanical properties :
#
#
# Convention : Reuss Voigt Hill
#
# Bulk Modulus (GPa) = 36.74421 43.96017 40.35219
# Shear Modulus (GPa) = 27.29383 31.14979 29.22181
#
# Velocity S-wave (km/s) = 3.70506 3.95814 3.83369
# Velocity P-wave (km/s) = 6.06497 6.55736 6.31597
#
# Compressibility (1/GPa) = 0.02721517
#
# Stress axis : x y z
#
# Youngs Moduli (GPa) = 111.74305 45.75799 111.05123
#
# Poissons Ratio (x) = 0.16195 0.13906
# Poissons Ratio (y) = 0.39549 0.16713
# Poissons Ratio (z) = 0.13993 0.06886
#
# Static dielectric constant tensor:
#      x y z
#    x 1.649280 0.000000 0.000000 
#    y 0.000000 1.691350 0.000000 
#    z 0.000000 0.000000 1.715890 
# 
# From -- ./inp_files/2874.got.cif
#   From: 2010.05.17/outbox.cif.g08.bks.cpg/sg42_2_cif.got.tgz:2874.got - 2010.06.03 19:03:34.
