data_PCOD9369972
_publ_section_title
;
Structure prediction by ZEFSAII (Michael W. Deem and Ramdas Pophale) SiO2 
 PCOD9369972
Probable space group: F M M 2
;
_chemical_formula_sum "Si O2"
_cell_formula_units_Z 112
_cell_length_a 13.602666
_cell_length_b 30.796644
_cell_length_c 14.122222
_cell_angle_alpha 90.000000
_cell_angle_beta 90.000000
_cell_angle_gamma 90.000000
_cell_volume 5916.031279
_symmetry_space_group_name_H-M "F M M 2"
_symmetry_group_IT_number 42
_symmetry_cell_setting 'orthorhombic'
loop_
_space_group_symop_operation_xyz
x,y,z
-x,-y,z
-x,y,z
x,-y,z
x,1/2+y,1/2+z
-x,1/2-y,1/2+z
-x,1/2+y,1/2+z
x,1/2-y,1/2+z
1/2+x,y,1/2+z
1/2-x,-y,1/2+z
1/2-x,y,1/2+z
1/2+x,-y,1/2+z
1/2+x,1/2+y,z
1/2-x,1/2-y,z
1/2-x,1/2+y,z
1/2+x,1/2-y,z
loop_
_atom_site_type_symbol
_atom_site_label
_atom_site_fract_x
_atom_site_fract_y
_atom_site_fract_z
Si Si1 0.619073 0.729502 0.933080
Si Si2 0.381968 0.818464 0.029069
Si Si3 0.114170 0.552021 0.438852
Si Si4 0.118032 0.681536 0.628020
Si Si5 0.885830 0.552021 0.218236
Si Si6 0.750000 0.393889 0.578544
Si Si7 0.880927 0.770498 0.724009
O O1 0.500000 0.730067 0.930965
O O2 0.653222 0.716709 0.828544
O O3 0.647671 0.778789 0.960362
O O4 0.641639 0.698740 0.021617
O O5 0.500000 0.824166 0.021536
O O6 0.323192 0.862725 0.019239
O O7 0.358361 0.801260 0.135471
O O8 0.123812 0.500000 0.450027
O O9 0.133878 0.562258 0.328544
O O10 0.185245 0.577264 0.508459
O O11 0.000000 0.563462 0.457792
O O12 0.176808 0.637275 0.637849
O O13 0.147671 0.721211 0.696727
O O14 0.000000 0.675834 0.635553
O O15 0.876189 0.500000 0.207062
O O16 0.814755 0.577264 0.148629
O O17 0.000000 0.563462 0.199296
O O18 0.000000 0.769933 0.726123
#
# Coordination Sequence:
#
# PCOD9369972 Si02
#       7
#    16  16  16  16  16  16  16
#     4   8  15  31  50  64  93 145 190 221 257 303
#     4   9  19  32  46  72 105 136 178 225 266 312
#     4   9  20  40  62  82 107 141 179 217 263 327
#     4   9  19  32  46  72 105 136 178 225 266 312
#     4   9  20  40  62  82 107 141 179 217 263 327
#     4  12  21  31  54  86 112 136 172 227 281 324
#     4   8  15  31  50  64  93 145 190 221 257 303
#
# _framework density 18.931609999999999
#
# number of rings (size 3 to 8) (size 9 to 14) (size 15 to 20)
#    0.000    2.857    0.000    3.857    0.000    4.571 
#    0.000    4.286    0.000    2.571    0.000   10.000 
#    0.000    0.000    0.000    0.000    0.000    0.000 
#
# Total GULP energy -156355.365214 kJ/mol
# GULP energy per Si atom -5584.120186 kJ/mol
# Density = 1.888852 g / cm^3
# Si number density = 18.931610 Si / 1000 Ang^3
#
#
#
# Elastic Constant Matrix: (Units=GPa)
#
#
# Indices 1 2 3 4 5 6 
#
# 1 92.0705 53.0050 32.9284 0.0000 0.0000 0.0000
# 2 53.0050 69.7860 44.9959 0.0000 0.0000 0.0000
# 3 32.9284 44.9959 96.3810 0.0000 0.0000 0.0000
# 4 0.0000 0.0000 0.0000 5.3556 0.0000 0.0000
# 5 0.0000 0.0000 0.0000 0.0000 29.9945 0.0000
# 6 0.0000 0.0000 0.0000 0.0000 0.0000 43.1822
#
#
#
# Elastic Compliance Matrix: (Units=1/GPa)
#
#
# Indices 1 2 3 4 5 6 
#
# 1 0.019309 -0.014897 0.000358 0.000000 0.000000 0.000000
# 2 -0.014897 0.031993 -0.009847 0.000000 0.000000 0.000000
# 3 0.000358 -0.009847 0.014850 0.000000 0.000000 0.000000
# 4 0.000000 0.000000 0.000000 0.186719 0.000000 0.000000
# 5 0.000000 0.000000 0.000000 0.000000 0.033339 0.000000
# 6 0.000000 0.000000 0.000000 0.000000 0.000000 0.023158
#
#
# Mechanical properties :
#
#
# Convention : Reuss Voigt Hill
#
# Bulk Modulus (GPa) = 57.53387 57.78846 57.66117
# Shear Modulus (GPa) = 13.73875 24.19368 18.96622
#
# Velocity S-wave (km/s) = 2.69681 3.57872 3.16860
# Velocity P-wave (km/s) = 6.33667 6.90416 6.62650
#
# Compressibility (1/GPa) = 0.01738107
#
# Stress axis : x y z
#
# Youngs Moduli (GPa) = 51.78816 31.25692 67.33900
#
# Poissons Ratio (x) = 0.46563 -0.02408
# Poissons Ratio (y) = 0.77148 0.66306
# Poissons Ratio (z) = -0.01852 0.30777
#
# Static dielectric constant tensor:
#      x y z
#    x 1.715600 0.000000 0.000000 
#    y 0.000000 1.639490 0.000000 
#    z 0.000000 0.000000 1.640780 
# 
# From -- ./inp_files/14498.got.cif
#   From: 2010.05.17/outbox.cif.g08.bks.cpg/sg42_8_cif.got.tgz:14498.got - 2010.06.03 19:03:34.
