data_PCOD9369649
_publ_section_title
;
Structure prediction by ZEFSAII (Michael W. Deem and Ramdas Pophale) SiO2 
 PCOD9369649
Probable space group: F M M 2
;
_chemical_formula_sum "Si O2"
_cell_formula_units_Z 116
_cell_length_a 28.242631
_cell_length_b 23.071032
_cell_length_c 6.871294
_cell_angle_alpha 90.000000
_cell_angle_beta 90.000000
_cell_angle_gamma 90.000000
_cell_volume 4477.243394
_symmetry_space_group_name_H-M "F M M 2"
_symmetry_group_IT_number 42
_symmetry_cell_setting 'orthorhombic'
loop_
_space_group_symop_operation_xyz
x,y,z
-x,-y,z
-x,y,z
x,-y,z
x,1/2+y,1/2+z
-x,1/2-y,1/2+z
-x,1/2+y,1/2+z
x,1/2-y,1/2+z
1/2+x,y,1/2+z
1/2-x,-y,1/2+z
1/2-x,y,1/2+z
1/2+x,-y,1/2+z
1/2+x,1/2+y,z
1/2-x,1/2-y,z
1/2-x,1/2+y,z
1/2+x,1/2-y,z
loop_
_atom_site_type_symbol
_atom_site_label
_atom_site_fract_x
_atom_site_fract_y
_atom_site_fract_z
Si Si1 0.447209 0.269699 0.821260
Si Si2 0.374949 0.250581 0.569420
Si Si3 0.322152 0.434326 0.786466
Si Si4 0.279470 0.434951 0.215262
Si Si5 0.568792 0.595400 0.780969
Si Si6 0.500000 0.000000 0.440844
Si Si7 0.444803 0.932493 0.831190
Si Si8 0.356262 0.648472 0.309175
O O1 0.500000 0.244063 0.822449
O O2 0.386787 0.262301 0.819269
O O3 0.448848 0.339440 0.813973
O O4 0.435277 0.251513 0.070909
O O5 0.356311 0.313527 0.505958
O O6 0.347090 0.191708 0.626889
O O7 0.328553 0.500000 0.707418
O O8 0.273060 0.409207 0.699673
O O9 0.374461 0.408188 0.789504
O O10 0.305651 0.437731 0.010051
O O11 0.273849 0.500000 0.292731
O O12 0.316794 0.398811 0.335657
O O13 0.541841 0.550638 0.918945
O O14 0.555413 0.575162 0.564274
O O15 0.500000 0.925309 0.774345
O O16 0.431529 0.000000 0.792282
O O17 0.406775 0.883403 0.769311
#
# Coordination Sequence:
#
# PCOD9369649 Si02
#       8
#    16  16  16  16  16   4  16  16
#     4  11  21  36  58  86 119 165 219 268 321 387
#     4  10  24  39  60  88 122 172 221 280 329 385
#     4  10  22  39  65  99 140 170 220 270 335 402
#     4  10  23  43  68 102 132 171 215 276 345 405
#     4  12  20  36  61  96 135 176 218 272 323 408
#     4  12  20  36  60  96 142 180 216 260 338 408
#     4  11  21  36  61  98 139 177 225 276 345 414
#     4  11  23  43  65  92 132 169 228 276 340 403
#
# _framework density 25.908799999999999
#
# number of rings (size 3 to 8) (size 9 to 14) (size 15 to 20)
#    0.000    1.241    4.138    1.655    1.931    2.759 
#    0.000    0.000    0.000   14.069    0.000    0.000 
#    0.000    0.000    0.000    0.000    0.000    0.000 
#
# Total GULP energy -161686.580972 kJ/mol
# GULP energy per Si atom -5575.399344 kJ/mol
# Density = 2.584983 g / cm^3
# Si number density = 25.908800 Si / 1000 Ang^3
#
#
#
# Elastic Constant Matrix: (Units=GPa)
#
#
# Indices 1 2 3 4 5 6 
#
# 1 170.1194 42.9031 33.6969 0.0033 -0.0046 -0.0057
# 2 42.9031 129.6607 41.2054 0.0152 -0.0202 -0.0378
# 3 33.6969 41.2054 138.5763 0.0249 -0.0242 -0.0454
# 4 0.0033 0.0152 0.0249 26.3731 -0.0130 -0.0256
# 5 -0.0046 -0.0202 -0.0242 -0.0130 45.6292 0.0245
# 6 -0.0057 -0.0378 -0.0454 -0.0256 0.0245 -3.1083
#
#
#
# Elastic Compliance Matrix: (Units=1/GPa)
#
#
# Indices 1 2 3 4 5 6 
#
# 1 0.006548 -0.001834 -0.001047 0.000001 -0.000001 0.000026
# 2 -0.001834 0.009031 -0.002239 -0.000003 0.000003 -0.000074
# 3 -0.001047 -0.002239 0.008137 -0.000006 0.000003 -0.000090
# 4 0.000001 -0.000003 -0.000006 0.037917 0.000011 -0.000312
# 5 -0.000001 0.000003 0.000003 0.000011 0.021916 0.000173
# 6 0.000026 -0.000074 -0.000090 -0.000312 0.000173 -0.321716
#
#
# Mechanical properties :
#
#
# Convention : Reuss Voigt Hill
#
# Bulk Modulus (GPa) = 74.21091 74.88524 74.54808
# Shear Modulus (GPa) = -22.37787 35.14888 6.38550
#
# Velocity S-wave (km/s) = -2.94209 3.68725 1.57161
# Velocity P-wave (km/s) = 4.14296 6.86250 5.66825
#
# Compressibility (1/GPa) = 0.01347511
#
# Stress axis : x y z
#
# Youngs Moduli (GPa) = 152.71570 110.73061 122.90036
#
# Poissons Ratio (x) = 0.20308 0.12867
# Poissons Ratio (y) = 0.28008 0.27522
# Poissons Ratio (z) = 0.15988 0.24797
#
# Static dielectric constant tensor:
#      x y z
#    x 1.969960 0.000000 0.000010 
#    y 0.000000 1.954050 0.000000 
#    z 0.000010 0.000000 2.473160 
# 
# From -- ./inp_files/5312.got.cif
#   From: 2010.05.17/outbox.cif.g08.bks.cpg/sg42_3_cif.got.tgz:5312.got - 2010.06.03 19:03:34.
