data_PCOD9369076
_publ_section_title
;
Structure prediction by ZEFSAII (Michael W. Deem and Ramdas Pophale) SiO2 
 PCOD9369076
Probable space group: F M M 2
;
_chemical_formula_sum "Si O2"
_cell_formula_units_Z 96
_cell_length_a 33.541343
_cell_length_b 11.723189
_cell_length_c 13.787575
_cell_angle_alpha 90.000000
_cell_angle_beta 90.000000
_cell_angle_gamma 90.000000
_cell_volume 5421.433093
_symmetry_space_group_name_H-M "F M M 2"
_symmetry_group_IT_number 42
_symmetry_cell_setting 'orthorhombic'
loop_
_space_group_symop_operation_xyz
x,y,z
-x,-y,z
-x,y,z
x,-y,z
x,1/2+y,1/2+z
-x,1/2-y,1/2+z
-x,1/2+y,1/2+z
x,1/2-y,1/2+z
1/2+x,y,1/2+z
1/2-x,-y,1/2+z
1/2-x,y,1/2+z
1/2+x,-y,1/2+z
1/2+x,1/2+y,z
1/2-x,1/2-y,z
1/2-x,1/2+y,z
1/2+x,1/2-y,z
loop_
_atom_site_type_symbol
_atom_site_label
_atom_site_fract_x
_atom_site_fract_y
_atom_site_fract_z
Si Si1 0.385487 0.223002 0.540940
Si Si2 0.454290 0.637274 0.178204
Si Si3 0.303567 0.000000 0.302811
Si Si4 0.831986 0.500000 0.512047
Si Si5 0.394666 0.364708 0.347186
Si Si6 0.256124 0.000000 0.624291
Si Si7 0.750000 0.750000 0.629021
Si Si8 0.333362 0.768706 0.219895
O O1 0.426077 0.187751 0.595005
O O2 0.360122 0.110481 0.512745
O O3 0.393998 0.298922 0.447983
O O4 0.357927 0.284919 0.620809
O O5 0.500000 0.675609 0.173755
O O6 0.453442 0.500000 0.168497
O O7 0.433140 0.663839 0.280840
O O8 0.264379 0.000000 0.232113
O O9 0.328138 0.887748 0.274384
O O10 0.302216 0.000000 0.419430
O O11 0.803609 0.500000 0.606360
O O12 0.393163 0.500000 0.360802
O O13 0.357168 0.321418 0.284193
O O14 0.243092 0.124860 0.580174
O O15 0.710974 0.770280 0.693170
#
# Coordination Sequence:
#
# PCOD9369076 Si02
#       8
#    16  16   8   8  16   8   8  16
#     4  11  21  36  62  89 114 158 193 244 294 355
#     4   9  19  37  61  88 119 152 193 240 292 356
#     4  10  22  40  58  85 114 155 200 255 295 344
#     4  12  20  40  65  84 115 159 206 241 302 354
#     4  10  22  37  58  89 118 155 197 236 295 357
#     4  10  22  38  58  81 119 154 198 254 304 346
#     4  10  20  36  58  76 112 156 192 246 294 350
#     4  10  21  37  58  82 118 152 196 244 299 341
#
# _framework density 17.707495000000002
#
# number of rings (size 3 to 8) (size 9 to 14) (size 15 to 20)
#    0.000    1.833    4.167    0.000    3.500    0.667 
#    0.000   10.833    0.000    0.000    0.000    0.000 
#    0.000    0.000    0.000    0.000    0.000    0.000 
#
# Total GULP energy -133711.211334 kJ/mol
# GULP energy per Si atom -5571.300472 kJ/mol
# Density = 1.766719 g / cm^3
# Si number density = 17.707495 Si / 1000 Ang^3
#
#
#
# Elastic Constant Matrix: (Units=GPa)
#
#
# Indices 1 2 3 4 5 6 
#
# 1 146.7871 33.9047 67.4663 0.0000 0.0000 0.0000
# 2 33.9047 102.2695 42.6659 0.0000 0.0000 0.0000
# 3 67.4663 42.6659 121.1170 0.0000 0.0000 0.0000
# 4 0.0000 0.0000 0.0000 26.9136 0.0000 0.0000
# 5 0.0000 0.0000 0.0000 0.0000 12.8636 0.0000
# 6 0.0000 0.0000 0.0000 0.0000 0.0000 21.2578
#
#
#
# Elastic Compliance Matrix: (Units=1/GPa)
#
#
# Indices 1 2 3 4 5 6 
#
# 1 0.009257 -0.001076 -0.004777 0.000000 0.000000 0.000000
# 2 -0.001076 0.011588 -0.003483 0.000000 0.000000 0.000000
# 3 -0.004777 -0.003483 0.012145 0.000000 0.000000 0.000000
# 4 0.000000 0.000000 0.000000 0.037156 0.000000 0.000000
# 5 0.000000 0.000000 0.000000 0.000000 0.077739 0.000000
# 6 0.000000 0.000000 0.000000 0.000000 0.000000 0.047042
#
#
# Mechanical properties :
#
#
# Convention : Reuss Voigt Hill
#
# Bulk Modulus (GPa) = 69.84607 73.13859 71.49233
# Shear Modulus (GPa) = 22.89694 27.28278 25.08986
#
# Velocity S-wave (km/s) = 3.59982 3.92949 3.76827
# Velocity P-wave (km/s) = 7.53713 7.87282 7.70680
#
# Compressibility (1/GPa) = 0.01431720
#
# Stress axis : x y z
#
# Youngs Moduli (GPa) = 108.02786 86.29840 82.34151
#
# Poissons Ratio (x) = 0.09284 0.39338
# Poissons Ratio (y) = 0.11621 0.28678
# Poissons Ratio (z) = 0.51610 0.30056
#
# Static dielectric constant tensor:
#      x y z
#    x 1.591280 0.000000 0.000000 
#    y 0.000000 1.638450 0.000000 
#    z 0.000000 0.000000 1.595450 
# 
# From -- ./inp_files/13209.got.cif
#   From: 2010.05.17/outbox.cif.g08.bks.cpg/sg42_7_cif.got.tgz:13209.got - 2010.06.03 19:03:34.
