data_PCOD9369234
_publ_section_title
;
Structure prediction by ZEFSAII (Michael W. Deem and Ramdas Pophale) SiO2 
 PCOD9369234
Probable space group: F M M 2
;
_chemical_formula_sum "Si O2"
_cell_formula_units_Z 80
_cell_length_a 31.046412
_cell_length_b 7.665645
_cell_length_c 16.817903
_cell_angle_alpha 90.000000
_cell_angle_beta 90.000000
_cell_angle_gamma 90.000000
_cell_volume 4002.505734
_symmetry_space_group_name_H-M "F M M 2"
_symmetry_group_IT_number 42
_symmetry_cell_setting 'orthorhombic'
loop_
_space_group_symop_operation_xyz
x,y,z
-x,-y,z
-x,y,z
x,-y,z
x,1/2+y,1/2+z
-x,1/2-y,1/2+z
-x,1/2+y,1/2+z
x,1/2-y,1/2+z
1/2+x,y,1/2+z
1/2-x,-y,1/2+z
1/2-x,y,1/2+z
1/2+x,-y,1/2+z
1/2+x,1/2+y,z
1/2-x,1/2-y,z
1/2-x,1/2+y,z
1/2+x,1/2-y,z
loop_
_atom_site_type_symbol
_atom_site_label
_atom_site_fract_x
_atom_site_fract_y
_atom_site_fract_z
Si Si1 0.450928 0.000000 0.507368
Si Si2 0.203347 0.208189 0.071720
Si Si3 0.204162 0.291659 0.754381
Si Si4 0.109991 0.702640 0.074136
Si Si5 0.111276 0.704314 0.760476
Si Si6 0.951549 0.000000 0.818220
O O1 0.424108 0.829902 0.533476
O O2 0.500000 0.000000 0.539638
O O3 0.453418 0.000000 0.412816
O O4 0.250000 0.250000 0.034691
O O5 0.205756 0.278212 0.163302
O O6 0.158404 0.280058 0.038315
O O7 0.198979 0.000000 0.073708
O O8 0.201299 0.500000 0.748661
O O9 0.250000 0.250000 0.793191
O O10 0.158692 0.236028 0.791052
O O11 0.097400 0.500000 0.073377
O O12 0.113270 0.770615 0.165088
O O13 0.104465 0.500000 0.778605
O O14 0.074438 0.829630 0.791432
O O15 0.000000 0.000000 0.785407
#
# Coordination Sequence:
#
# PCOD9369234 Si02
#       6
#     8  16  16  16  16   8
#     4  11  26  46  62  85 121 157 201 254 307 369
#     4   9  15  26  47  84 125 156 191 242 293 344
#     4   8  15  24  45  81 119 152 184 232 288 336
#     4  11  20  37  63  93 123 157 202 251 301 353
#     4  10  20  38  61  93 125 152 198 253 298 349
#     4  11  26  44  64  87 115 161 203 242 311 369
#
# _framework density 19.987479
#
# number of rings (size 3 to 8) (size 9 to 14) (size 15 to 20)
#    0.000    2.200    3.000    1.800    1.400    4.800 
#    0.000    2.000    0.000    1.200    0.000    0.000 
#    0.000    0.000    0.000    0.000    0.000    0.000 
#
# Total GULP energy -111503.860618 kJ/mol
# GULP energy per Si atom -5575.193031 kJ/mol
# Density = 1.994199 g / cm^3
# Si number density = 19.987479 Si / 1000 Ang^3
#
#
#
# Elastic Constant Matrix: (Units=GPa)
#
#
# Indices 1 2 3 4 5 6 
#
# 1 218.1783 74.8348 23.9897 0.0000 0.0000 0.0000
# 2 74.8348 129.4843 2.9798 0.0000 0.0000 0.0000
# 3 23.9897 2.9798 13.7660 0.0000 0.0000 0.0000
# 4 0.0000 0.0000 0.0000 4.9975 0.0000 0.0000
# 5 0.0000 0.0000 0.0000 0.0000 127.4156 0.0000
# 6 0.0000 0.0000 0.0000 0.0000 0.0000 42.7638
#
#
#
# Elastic Compliance Matrix: (Units=1/GPa)
#
#
# Indices 1 2 3 4 5 6 
#
# 1 0.007208 -0.003896 -0.011718 0.000000 0.000000 0.000000
# 2 -0.003896 0.009868 0.004654 0.000000 0.000000 0.000000
# 3 -0.011718 0.004654 0.092057 0.000000 0.000000 0.000000
# 4 0.000000 0.000000 0.000000 0.200102 0.000000 0.000000
# 5 0.000000 0.000000 0.000000 0.000000 0.007848 0.000000
# 6 0.000000 0.000000 0.000000 0.000000 0.000000 0.023384
#
#
# Mechanical properties :
#
#
# Convention : Reuss Voigt Hill
#
# Bulk Modulus (GPa) = 11.46636 62.78189 37.12412
# Shear Modulus (GPa) = 12.77272 52.34366 32.55819
#
# Velocity S-wave (km/s) = 2.53066 5.12299 4.04038
# Velocity P-wave (km/s) = 3.77997 8.15305 6.35454
#
# Compressibility (1/GPa) = 0.08721163
#
# Stress axis : x y z
#
# Youngs Moduli (GPa) = 138.72813 101.34054 10.86285
#
# Poissons Ratio (x) = 0.39486 0.12730
# Poissons Ratio (y) = 0.54053 -0.05056
# Poissons Ratio (z) = 1.62567 -0.47165
#
# Static dielectric constant tensor:
#      x y z
#    x 1.774590 0.000000 0.000000 
#    y 0.000000 1.684500 0.000000 
#    z 0.000000 0.000000 1.699170 
# 
# From -- ./inp_files/22728.got.cif
#   From: 2010.05.17/outbox.cif.g08.bks.cpg/sg42_12_cif.got.tgz:22728.got - 2010.06.03 19:03:34.
