data_PCOD9369830
_publ_section_title
;
Structure prediction by ZEFSAII (Michael W. Deem and Ramdas Pophale) SiO2 
 PCOD9369830
Probable space group: F M M 2
;
_chemical_formula_sum "Si O2"
_cell_formula_units_Z 96
_cell_length_a 14.321565
_cell_length_b 22.247667
_cell_length_c 15.686812
_cell_angle_alpha 90.000000
_cell_angle_beta 90.000000
_cell_angle_gamma 90.000000
_cell_volume 4998.154143
_symmetry_space_group_name_H-M "F M M 2"
_symmetry_group_IT_number 42
_symmetry_cell_setting 'orthorhombic'
loop_
_space_group_symop_operation_xyz
x,y,z
-x,-y,z
-x,y,z
x,-y,z
x,1/2+y,1/2+z
-x,1/2-y,1/2+z
-x,1/2+y,1/2+z
x,1/2-y,1/2+z
1/2+x,y,1/2+z
1/2-x,-y,1/2+z
1/2-x,y,1/2+z
1/2+x,-y,1/2+z
1/2+x,1/2+y,z
1/2-x,1/2-y,z
1/2-x,1/2+y,z
1/2+x,1/2-y,z
loop_
_atom_site_type_symbol
_atom_site_label
_atom_site_fract_x
_atom_site_fract_y
_atom_site_fract_z
Si Si1 0.360811 0.754745 0.764050
Si Si2 0.249664 0.385973 0.477371
Si Si3 0.663996 0.297469 0.590832
Si Si4 0.111383 0.000000 0.209826
Si Si5 0.384301 0.000000 0.507684
Si Si6 0.902734 0.713920 0.449298
Si Si7 0.890249 0.113157 0.317530
O O1 0.250000 0.750000 0.776432
O O2 0.385748 0.715389 0.680991
O O3 0.404029 0.732180 0.851500
O O4 0.383076 0.825483 0.762704
O O5 0.300982 0.364164 0.565417
O O6 0.178086 0.442167 0.478740
O O7 0.184219 0.328904 0.460392
O O8 0.326049 0.388427 0.401920
O O9 0.750000 0.250000 0.598061
O O10 0.608078 0.271607 0.510006
O O11 0.125992 0.000000 0.109762
O O12 0.144750 0.059408 0.257476
O O13 0.000000 0.000000 0.221168
O O14 0.500000 0.000000 0.488972
O O15 0.000000 0.682772 0.473369
O O16 0.000000 0.105622 0.340177
#
# Coordination Sequence:
#
# PCOD9369830 Si02
#       7
#    16  16  16   8   8  16  16
#     4  11  20  36  59  88 125 165 203 252 318 379
#     4  11  22  41  60  89 126 165 210 261 311 379
#     4   9  21  35  56  84 120 165 201 250 312 368
#     4   9  23  40  60  91 117 153 211 262 316 370
#     4  11  25  42  63  93 123 163 214 262 321 380
#     4  11  21  36  57  87 127 164 202 251 312 380
#     4  11  22  40  64  90 123 164 211 266 314 370
#
# _framework density 19.207090000000001
#
# number of rings (size 3 to 8) (size 9 to 14) (size 15 to 20)
#    0.000    1.500    3.333    2.000    7.000    1.333 
#    0.000    0.000    0.000    0.000    0.000    2.333 
#    0.000    0.000    0.000    0.000    0.000    0.000 
#
# Total GULP energy -133647.780351 kJ/mol
# GULP energy per Si atom -5568.657515 kJ/mol
# Density = 1.916337 g / cm^3
# Si number density = 19.207090 Si / 1000 Ang^3
#
#
#
# Elastic Constant Matrix: (Units=GPa)
#
#
# Indices 1 2 3 4 5 6 
#
# 1 111.3957 16.0420 29.4163 0.0000 0.0000 0.0000
# 2 16.0420 86.2817 19.2949 0.0000 0.0000 0.0000
# 3 29.4163 19.2949 101.6381 0.0000 0.0000 0.0000
# 4 0.0000 0.0000 0.0000 27.3634 0.0000 0.0000
# 5 0.0000 0.0000 0.0000 0.0000 33.9758 0.0000
# 6 0.0000 0.0000 0.0000 0.0000 0.0000 -130.8709
#
#
#
# Elastic Compliance Matrix: (Units=1/GPa)
#
#
# Indices 1 2 3 4 5 6 
#
# 1 0.009847 -0.001246 -0.002613 0.000000 0.000000 0.000000
# 2 -0.001246 0.012262 -0.001967 0.000000 0.000000 0.000000
# 3 -0.002613 -0.001967 0.010969 0.000000 0.000000 0.000000
# 4 0.000000 0.000000 0.000000 0.036545 0.000000 0.000000
# 5 0.000000 0.000000 0.000000 0.000000 0.029433 0.000000
# 6 0.000000 0.000000 0.000000 0.000000 0.000000 -0.007641
#
#
# Mechanical properties :
#
#
# Convention : Reuss Voigt Hill
#
# Bulk Modulus (GPa) = 46.67758 47.64688 47.16223
# Shear Modulus (GPa) = 45.36888 1.73116 23.55002
#
# Velocity S-wave (km/s) = 4.86541 0.95040 3.50539
# Velocity P-wave (km/s) = 7.47783 5.10540 6.40246
#
# Compressibility (1/GPa) = 0.02142356
#
# Stress axis : x y z
#
# Youngs Moduli (GPa) = 101.55822 81.55574 91.16967
#
# Poissons Ratio (x) = 0.10165 0.23825
# Poissons Ratio (y) = 0.12658 0.17933
# Poissons Ratio (z) = 0.26539 0.16042
#
# Static dielectric constant tensor:
#      x y z
#    x 1.514740 0.000000 0.000000 
#    y 0.000000 1.688670 0.000000 
#    z 0.000000 0.000000 1.707590 
# 
# From -- ./inp_files/14028.got.cif
#   From: 2010.05.17/outbox.cif.g08.bks.cpg/sg42_8_cif.got.tgz:14028.got - 2010.06.03 19:03:34.
