data_PCOD9369920
_publ_section_title
;
Structure prediction by ZEFSAII (Michael W. Deem and Ramdas Pophale) SiO2 
 PCOD9369920
Probable space group: F M M 2
;
_chemical_formula_sum "Si O2"
_cell_formula_units_Z 80
_cell_length_a 7.554261
_cell_length_b 31.831581
_cell_length_c 14.860795
_cell_angle_alpha 90.000000
_cell_angle_beta 90.000000
_cell_angle_gamma 90.000000
_cell_volume 3573.487263
_symmetry_space_group_name_H-M "F M M 2"
_symmetry_group_IT_number 42
_symmetry_cell_setting 'orthorhombic'
loop_
_space_group_symop_operation_xyz
x,y,z
-x,-y,z
-x,y,z
x,-y,z
x,1/2+y,1/2+z
-x,1/2-y,1/2+z
-x,1/2+y,1/2+z
x,1/2-y,1/2+z
1/2+x,y,1/2+z
1/2-x,-y,1/2+z
1/2-x,y,1/2+z
1/2+x,-y,1/2+z
1/2+x,1/2+y,z
1/2-x,1/2-y,z
1/2-x,1/2+y,z
1/2+x,1/2-y,z
loop_
_atom_site_type_symbol
_atom_site_label
_atom_site_fract_x
_atom_site_fract_y
_atom_site_fract_z
Si Si1 0.289776 0.545115 0.064380
Si Si2 0.789744 0.455167 0.782988
Si Si3 0.217810 0.636038 0.782083
Si Si4 0.288421 0.135243 0.576449
Si Si5 0.291947 0.201053 0.926543
O O1 0.500000 0.544067 0.044187
O O2 0.214470 0.500000 0.033456
O O3 0.273511 0.545723 0.173780
O O4 0.217683 0.590805 0.036677
O O5 0.714091 0.500000 0.814185
O O6 0.721328 0.410159 0.815167
O O7 0.000000 0.455932 0.801819
O O8 0.274384 0.641111 0.678646
O O9 0.283724 0.673666 0.844216
O O10 0.000000 0.635262 0.782266
O O11 0.500000 0.129987 0.581693
O O12 0.253261 0.175418 0.516088
O O13 0.500000 0.198604 0.915788
O O14 0.250000 0.250000 0.928647
#
# Coordination Sequence:
#
# PCOD9369920 Si02
#       5
#    16  16  16  16  16
#     4   7  10  19  41  73 103 130 162 197 231 276
#     4   7   9  17  38  68  98 127 159 193 230 277
#     4   8  16  31  51  74 101 132 165 202 243 292
#     4   9  17  33  56  79 103 133 169 206 245 291
#     4  11  23  38  53  72  99 129 166 213 263 308
#
# _framework density 22.387094999999999
#
# number of rings (size 3 to 8) (size 9 to 14) (size 15 to 20)
#    0.000    3.600    0.000    4.200    0.000    0.800 
#    0.000    5.000    0.000    1.800    0.000    0.000 
#    0.000    3.200    0.000    0.000    0.000    0.000 
#
# Total GULP energy -111474.250196 kJ/mol
# GULP energy per Si atom -5573.712510 kJ/mol
# Density = 2.233614 g / cm^3
# Si number density = 22.387095 Si / 1000 Ang^3
#
#
#
# Elastic Constant Matrix: (Units=GPa)
#
#
# Indices 1 2 3 4 5 6 
#
# 1 53.7990 8.3869 1.9184 0.0000 0.0000 0.0000
# 2 8.3869 257.7600 96.9779 0.0000 0.0000 0.0000
# 3 1.9184 96.9779 93.4728 0.0000 0.0000 0.0000
# 4 0.0000 0.0000 0.0000 45.4487 0.0000 0.0000
# 5 0.0000 0.0000 0.0000 0.0000 3.2659 0.0000
# 6 0.0000 0.0000 0.0000 0.0000 0.0000 -60.1871
#
#
#
# Elastic Compliance Matrix: (Units=1/GPa)
#
#
# Indices 1 2 3 4 5 6 
#
# 1 0.018692 -0.000761 0.000406 0.000000 0.000000 0.000000
# 2 -0.000761 0.006394 -0.006619 0.000000 0.000000 0.000000
# 3 0.000406 -0.006619 0.017557 0.000000 0.000000 0.000000
# 4 0.000000 0.000000 0.000000 0.022003 0.000000 0.000000
# 5 0.000000 0.000000 0.000000 0.000000 0.306197 0.000000
# 6 0.000000 0.000000 0.000000 0.000000 0.000000 -0.016615
#
#
# Mechanical properties :
#
#
# Convention : Reuss Voigt Hill
#
# Bulk Modulus (GPa) = 34.84846 68.84423 51.84634
# Shear Modulus (GPa) = 13.23660 17.55541 15.39600
#
# Velocity S-wave (km/s) = 2.43422 2.80335 2.62528
# Velocity P-wave (km/s) = 4.84775 6.42626 5.69199
#
# Compressibility (1/GPa) = 0.02869568
#
# Stress axis : x y z
#
# Youngs Moduli (GPa) = 53.49923 156.38442 56.95788
#
# Poissons Ratio (x) = 0.11898 -0.02311
# Poissons Ratio (y) = 0.04070 0.37699
# Poissons Ratio (z) = -0.02171 1.03506
#
# Static dielectric constant tensor:
#      x y z
#    x 1.835810 0.000000 0.000000 
#    y 0.000000 1.784340 0.000000 
#    z 0.000000 0.000000 1.891450 
# 
# From -- ./inp_files/13001.got.cif
#   From: 2010.05.17/outbox.cif.g08.bks.cpg/sg42_7_cif.got.tgz:13001.got - 2010.06.03 19:03:34.
