data_PCOD9369995
_publ_section_title
;
Structure prediction by ZEFSAII (Michael W. Deem and Ramdas Pophale) SiO2 
 PCOD9369995
Probable space group: F M M 2
;
_chemical_formula_sum "Si O2"
_cell_formula_units_Z 32
_cell_length_a 21.000000
_cell_length_b 18.000000
_cell_length_c 21.000000
_cell_angle_alpha 90.000000
_cell_angle_beta 90.000000
_cell_angle_gamma 90.000000
_cell_volume 7938.000000
_symmetry_space_group_name_H-M "F M M 2"
_symmetry_group_IT_number 42
_symmetry_cell_setting 'orthorhombic'
loop_
_space_group_symop_operation_xyz
x,y,z
-x,-y,z
-x,y,z
x,-y,z
x,1/2+y,1/2+z
-x,1/2-y,1/2+z
-x,1/2+y,1/2+z
x,1/2-y,1/2+z
1/2+x,y,1/2+z
1/2-x,-y,1/2+z
1/2-x,y,1/2+z
1/2+x,-y,1/2+z
1/2+x,1/2+y,z
1/2-x,1/2-y,z
1/2-x,1/2+y,z
1/2+x,1/2-y,z
loop_
_atom_site_type_symbol
_atom_site_label
_atom_site_fract_x
_atom_site_fract_y
_atom_site_fract_z
Si Si1 0.573904 0.181536 0.569720
Si Si2 0.071575 0.589449 0.439850
Si Si3 0.072210 0.355087 0.036092
Si Si4 0.290548 0.089709 0.997621
Si Si5 0.718416 0.332293 0.116568
Si Si6 0.208930 0.409578 0.231769
Si Si7 0.704041 0.909981 0.377198
Si Si8 0.070340 0.089077 0.681292
O O1 0.500000 0.172464 0.596725
O O2 0.577700 0.126776 0.509108
O O3 0.576498 0.266303 0.544711
O O4 0.640644 0.170163 0.609060
O O5 0.074743 0.500000 0.446079
O O6 0.132153 0.613086 0.397411
O O7 0.000000 0.607573 0.415133
O O8 0.075679 0.389499 0.107134
O O9 0.000000 0.372599 0.011287
O O10 0.135610 0.383804 0.000436
O O11 0.254017 0.111801 0.932360
O O12 0.289376 0.000000 0.003235
O O13 0.250672 0.124771 0.056457
O O14 0.750000 0.250000 0.116197
O O15 0.743431 0.373059 0.180604
O O16 0.212675 0.500000 0.226495
O O17 0.220993 0.387358 0.305200
O O18 0.135712 0.386646 0.215016
O O19 0.703406 0.000000 0.376598
O O20 0.000000 0.116467 0.703680
O O21 0.069220 0.000000 0.686992
#
# Coordination Sequence:
#
# PCOD9369995 Si02
#       8
#    16  16  16  16  16  16  16  16
#     4  10  20  33  51  76 107 139 173 217 265 310
#     4   9  17  30  49  73 102 137 177 217 263 319
#     4  10  19  32  51  77 107 135 168 214 269 321
#     4  11  20  33  55  80 105 138 175 217 263 313
#     4  12  21  34  54  79 106 138 178 217 261 313
#     4  10  20  34  51  74 104 139 176 219 263 311
#     4   9  19  33  50  74 105 137 173 217 266 309
#     4   9  16  27  46  73 103 133 166 205 260 323
#
# _framework density 4.0312419999999998
#
# number of rings (size 3 to 8) (size 9 to 14) (size 15 to 20)
#    0.000    2.000    3.750    0.750    0.000    1.750 
#    0.000    4.375    0.000    0.750    0.000    1.750 
#    0.000    0.000    0.000    0.000    0.000    0.000 
#
# Total GULP energy -178242.560692 kJ/mol
# GULP energy per Si atom -5570.080022 kJ/mol
# Density = 0.402207 g / cm^3
# Si number density = 4.031242 Si / 1000 Ang^3
#
#
#
# Elastic Constant Matrix: (Units=GPa)
#
#
# Indices 1 2 3 4 5 6 
#
# 1 174.4736 35.0548 74.4272 0.0000 0.0000 0.0000
# 2 35.0548 35.0351 21.7845 0.0000 0.0000 0.0000
# 3 74.4272 21.7845 108.7384 0.0000 0.0000 0.0000
# 4 0.0000 0.0000 0.0000 3.5750 0.0000 0.0000
# 5 0.0000 0.0000 0.0000 0.0000 26.0980 0.0000
# 6 0.0000 0.0000 0.0000 0.0000 0.0000 28.4238
#
#
#
# Elastic Compliance Matrix: (Units=1/GPa)
#
#
# Indices 1 2 3 4 5 6 
#
# 1 0.009066 -0.005954 -0.005013 0.000000 0.000000 0.000000
# 2 -0.005954 0.036515 -0.003240 0.000000 0.000000 0.000000
# 3 -0.005013 -0.003240 0.013276 0.000000 0.000000 0.000000
# 4 0.000000 0.000000 0.000000 0.279721 0.000000 0.000000
# 5 0.000000 0.000000 0.000000 0.000000 0.038317 0.000000
# 6 0.000000 0.000000 0.000000 0.000000 0.000000 0.035182
#
#
# Mechanical properties :
#
#
# Convention : Reuss Voigt Hill
#
# Bulk Modulus (GPa) = 32.84720 64.53112 48.68916
# Shear Modulus (GPa) = 11.09536 24.08472 17.59004
#
# Velocity S-wave (km/s) = 2.62598 3.86894 3.30640
# Velocity P-wave (km/s) = 5.44142 7.75013 6.69603
#
# Compressibility (1/GPa) = 0.03044399
#
# Stress axis : x y z
#
# Youngs Moduli (GPa) = 110.30066 27.38598 75.32227
#
# Poissons Ratio (x) = 0.16307 0.37755
# Poissons Ratio (y) = 0.65679 0.24402
# Poissons Ratio (z) = 0.55288 0.08872
#
# Static dielectric constant tensor:
#      x y z
#    x 1.579900 0.000000 0.000000 
#    y 0.000000 1.541310 0.000000 
#    z 0.000000 0.000000 1.528320 
# 
# From -- ./inp_files/26620.got.cif
#   From: 2010.05.17/outbox.ucp.g08.bks.cvg/sg42_14_cif.got.tgz:26620.got - 2010.06.11 16:29:10.
