data_PCOD9369945
_publ_section_title
;
Structure prediction by ZEFSAII (Michael W. Deem and Ramdas Pophale) SiO2 
 PCOD9369945
Probable space group: F M M 2
;
_chemical_formula_sum "Si O2"
_cell_formula_units_Z 72
_cell_length_a 18.361122
_cell_length_b 23.846261
_cell_length_c 8.546968
_cell_angle_alpha 90.000000
_cell_angle_beta 90.000000
_cell_angle_gamma 90.000000
_cell_volume 3742.239575
_symmetry_space_group_name_H-M "F M M 2"
_symmetry_group_IT_number 42
_symmetry_cell_setting 'orthorhombic'
loop_
_space_group_symop_operation_xyz
x,y,z
-x,-y,z
-x,y,z
x,-y,z
x,1/2+y,1/2+z
-x,1/2-y,1/2+z
-x,1/2+y,1/2+z
x,1/2-y,1/2+z
1/2+x,y,1/2+z
1/2-x,-y,1/2+z
1/2-x,y,1/2+z
1/2+x,-y,1/2+z
1/2+x,1/2+y,z
1/2-x,1/2-y,z
1/2-x,1/2+y,z
1/2+x,1/2-y,z
loop_
_atom_site_type_symbol
_atom_site_label
_atom_site_fract_x
_atom_site_fract_y
_atom_site_fract_z
Si Si1 0.000000 0.659374 0.458820
Si Si2 0.654184 0.287136 0.018887
Si Si3 0.701855 0.176380 0.870502
Si Si4 0.000000 0.935208 0.698056
Si Si5 0.872287 0.438176 0.948110
Si Si6 0.500000 0.940088 0.697101
O O1 0.072943 0.695538 0.473862
O O2 0.000000 0.617154 0.313193
O O3 0.000000 0.615705 0.600299
O O4 0.664978 0.220902 0.989932
O O5 0.712357 0.314716 0.899182
O O6 0.676084 0.306951 0.194716
O O7 0.680083 0.113770 0.918131
O O8 0.926858 0.930463 0.593878
O O9 0.000000 0.000000 0.757417
O O10 0.837074 0.500000 0.960594
O O11 0.928611 0.439506 0.804002
O O12 0.500000 0.000000 0.610586
#
# Coordination Sequence:
#
# PCOD9369945 Si02
#       6
#     8  16  16   8  16   8
#     4  12  23  38  62 103 119 167 213 266 304 382
#     4  11  26  40  69  90 133 167 207 259 330 358
#     4  11  23  46  62  94 128 172 206 262 315 388
#     4   9  21  36  60  95 133 170 206 266 320 366
#     4   9  19  39  66  88 124 173 211 253 314 378
#     4   9  17  36  60  88 125 165 203 256 312 370
#
# _framework density 19.239815
#
# number of rings (size 3 to 8) (size 9 to 14) (size 15 to 20)
#    0.000    1.778    2.222    4.333    6.222    2.667 
#    0.000    3.333    0.000    0.000    0.000    0.000 
#    0.000    0.000    0.000    0.000    0.000    0.000 
#
# Total GULP energy -100398.914234 kJ/mol
# GULP energy per Si atom -5577.717457 kJ/mol
# Density = 1.919602 g / cm^3
# Si number density = 19.239815 Si / 1000 Ang^3
#
#
#
# Elastic Constant Matrix: (Units=GPa)
#
#
# Indices 1 2 3 4 5 6 
#
# 1 124.8628 77.7184 31.0953 0.0000 0.0000 0.0000
# 2 77.7184 142.3005 32.4691 0.0000 0.0000 0.0000
# 3 31.0953 32.4691 86.5091 0.0000 0.0000 0.0000
# 4 0.0000 0.0000 0.0000 32.4162 0.0000 0.0000
# 5 0.0000 0.0000 0.0000 0.0000 41.8312 0.0000
# 6 0.0000 0.0000 0.0000 0.0000 0.0000 38.2025
#
#
#
# Elastic Compliance Matrix: (Units=1/GPa)
#
#
# Indices 1 2 3 4 5 6 
#
# 1 0.012475 -0.006333 -0.002107 0.000000 0.000000 0.000000
# 2 -0.006333 0.010900 -0.001815 0.000000 0.000000 0.000000
# 3 -0.002107 -0.001815 0.012998 0.000000 0.000000 0.000000
# 4 0.000000 0.000000 0.000000 0.030849 0.000000 0.000000
# 5 0.000000 0.000000 0.000000 0.000000 0.023906 0.000000
# 6 0.000000 0.000000 0.000000 0.000000 0.000000 0.026176
#
#
# Mechanical properties :
#
#
# Convention : Reuss Voigt Hill
#
# Bulk Modulus (GPa) = 63.03671 70.69312 66.86491
# Shear Modulus (GPa) = 34.94021 36.64928 35.79474
#
# Velocity S-wave (km/s) = 4.26612 4.36921 4.31797
# Velocity P-wave (km/s) = 7.55653 7.89153 7.72585
#
# Compressibility (1/GPa) = 0.01586377
#
# Stress axis : x y z
#
# Youngs Moduli (GPa) = 80.15917 91.74260 76.93411
#
# Poissons Ratio (x) = 0.58097 0.16213
# Poissons Ratio (y) = 0.50761 0.13963
# Poissons Ratio (z) = 0.16893 0.16650
#
# Static dielectric constant tensor:
#      x y z
#    x 1.652890 0.000000 0.000000 
#    y 0.000000 1.685810 0.000000 
#    z 0.000000 0.000000 1.712530 
# 
# From -- ./inp_files/2883.got.cif
#   From: 2010.05.17/outbox.cif.g08.bks.cpg/sg42_2_cif.got.tgz:2883.got - 2010.06.03 19:03:34.
