data_PCOD9369811
_publ_section_title
;
Structure prediction by ZEFSAII (Michael W. Deem and Ramdas Pophale) SiO2 
 PCOD9369811
Probable space group: F M M 2
;
_chemical_formula_sum "Si O2"
_cell_formula_units_Z 80
_cell_length_a 15.808130
_cell_length_b 8.690021
_cell_length_c 29.400593
_cell_angle_alpha 90.000000
_cell_angle_beta 90.000000
_cell_angle_gamma 90.000000
_cell_volume 4038.847123
_symmetry_space_group_name_H-M "F M M 2"
_symmetry_group_IT_number 42
_symmetry_cell_setting 'orthorhombic'
loop_
_space_group_symop_operation_xyz
x,y,z
-x,-y,z
-x,y,z
x,-y,z
x,1/2+y,1/2+z
-x,1/2-y,1/2+z
-x,1/2+y,1/2+z
x,1/2-y,1/2+z
1/2+x,y,1/2+z
1/2-x,-y,1/2+z
1/2-x,y,1/2+z
1/2+x,-y,1/2+z
1/2+x,1/2+y,z
1/2-x,1/2-y,z
1/2-x,1/2+y,z
1/2+x,1/2-y,z
loop_
_atom_site_type_symbol
_atom_site_label
_atom_site_fract_x
_atom_site_fract_y
_atom_site_fract_z
Si Si1 0.000000 0.685734 0.951500
Si Si2 0.843838 0.816797 0.695463
Si Si3 0.162804 0.683582 0.011874
Si Si4 0.598110 0.676414 0.103680
Si Si5 0.845587 0.315556 0.792643
Si Si6 0.000000 0.316451 0.350729
O O1 0.000000 0.500000 0.944658
O O2 0.000000 0.769004 0.903383
O O3 0.083003 0.725798 0.980703
O O4 0.750000 0.750000 0.688387
O O5 0.893403 0.768427 0.650512
O O6 0.873992 0.740161 0.742354
O O7 0.841958 0.000000 0.700903
O O8 0.167038 0.500000 0.014594
O O9 0.250000 0.750000 0.992948
O O10 0.149031 0.750057 0.062342
O O11 0.500000 0.676797 0.090010
O O12 0.625489 0.500000 0.111282
O O13 0.841866 0.500000 0.794174
O O14 0.750000 0.250000 0.799989
O O15 0.915583 0.252741 0.827386
O O16 0.000000 0.500000 0.345126
#
# Coordination Sequence:
#
# PCOD9369811 Si02
#       6
#     8  16  16  16  16   8
#     4  10  24  46  67  92 127 164 208 265 321 381
#     4  11  22  38  60  88 126 167 213 259 310 373
#     4  11  23  42  67  94 127 166 210 258 317 376
#     4  11  23  38  59  89 127 168 214 261 312 372
#     4  11  23  43  68  96 132 170 215 266 319 380
#     4  12  26  44  69  98 129 168 212 263 325 387
#
# _framework density 19.807631000000001
#
# number of rings (size 3 to 8) (size 9 to 14) (size 15 to 20)
#    0.000    1.000    1.000    7.500    1.400    3.600 
#    0.000    2.000    0.000    0.000    0.000    0.000 
#    0.000    0.000    0.000    0.000    0.000    0.000 
#
# Total GULP energy -111873.057636 kJ/mol
# GULP energy per Si atom -5593.652882 kJ/mol
# Density = 1.976255 g / cm^3
# Si number density = 19.807631 Si / 1000 Ang^3
#
#
#
# Elastic Constant Matrix: (Units=GPa)
#
#
# Indices 1 2 3 4 5 6 
#
# 1 122.1196 64.3858 68.6770 0.0000 0.0000 0.0000
# 2 64.3858 164.0664 69.0903 0.0000 0.0000 0.0000
# 3 68.6770 69.0903 119.2527 0.0000 0.0000 0.0000
# 4 0.0000 0.0000 0.0000 36.5855 0.0000 0.0000
# 5 0.0000 0.0000 0.0000 0.0000 -10.8521 0.0000
# 6 0.0000 0.0000 0.0000 0.0000 0.0000 26.8964
#
#
#
# Elastic Compliance Matrix: (Units=1/GPa)
#
#
# Indices 1 2 3 4 5 6 
#
# 1 0.012871 -0.002552 -0.005934 0.000000 0.000000 0.000000
# 2 -0.002552 0.008568 -0.003494 0.000000 0.000000 0.000000
# 3 -0.005934 -0.003494 0.013827 0.000000 0.000000 0.000000
# 4 0.000000 0.000000 0.000000 0.027333 0.000000 0.000000
# 5 0.000000 0.000000 0.000000 0.000000 -0.092148 0.000000
# 6 0.000000 0.000000 0.000000 0.000000 0.000000 0.037180
#
#
# Mechanical properties :
#
#
# Convention : Reuss Voigt Hill
#
# Bulk Modulus (GPa) = 88.44838 89.97167 89.21003
# Shear Modulus (GPa) = 141.39731 24.07832 82.73782
#
# Velocity S-wave (km/s) = 8.45815 3.49034 6.47004
# Velocity P-wave (km/s) = 11.83797 7.85905 10.04744
#
# Compressibility (1/GPa) = 0.01130603
#
# Stress axis : x y z
#
# Youngs Moduli (GPa) = 77.69118 116.71077 72.32132
#
# Poissons Ratio (x) = 0.29790 0.42914
# Poissons Ratio (y) = 0.19830 0.25270
# Poissons Ratio (z) = 0.46101 0.40780
#
# Static dielectric constant tensor:
#      x y z
#    x 1.714520 0.000000 0.000000 
#    y 0.000000 1.673910 0.000000 
#    z 0.000000 0.000000 1.671030 
# 
# From -- ./inp_files/32776.got.cif
#   From: 2010.05.17/outbox.cif.g08.bks.cpg/sg42_17_cif.got.tgz:32776.got - 2010.06.03 19:03:34.
