data_PCOD9369385
_publ_section_title
;
Structure prediction by ZEFSAII (Michael W. Deem and Ramdas Pophale) SiO2 
 PCOD9369385
Probable space group: F M M 2
;
_chemical_formula_sum "Si O2"
_cell_formula_units_Z 80
_cell_length_a 13.798805
_cell_length_b 18.083301
_cell_length_c 14.889206
_cell_angle_alpha 90.000000
_cell_angle_beta 90.000000
_cell_angle_gamma 90.000000
_cell_volume 3715.272965
_symmetry_space_group_name_H-M "F M M 2"
_symmetry_group_IT_number 42
_symmetry_cell_setting 'orthorhombic'
loop_
_space_group_symop_operation_xyz
x,y,z
-x,-y,z
-x,y,z
x,-y,z
x,1/2+y,1/2+z
-x,1/2-y,1/2+z
-x,1/2+y,1/2+z
x,1/2-y,1/2+z
1/2+x,y,1/2+z
1/2-x,-y,1/2+z
1/2-x,y,1/2+z
1/2+x,-y,1/2+z
1/2+x,1/2+y,z
1/2-x,1/2-y,z
1/2-x,1/2+y,z
1/2+x,1/2-y,z
loop_
_atom_site_type_symbol
_atom_site_label
_atom_site_fract_x
_atom_site_fract_y
_atom_site_fract_z
Si Si1 0.280494 0.420177 0.806420
Si Si2 0.888988 0.279385 0.643429
Si Si3 0.206465 0.628412 0.104163
Si Si4 0.886630 0.769945 0.844549
Si Si5 0.385018 0.882992 0.926282
O O1 0.321769 0.500000 0.834370
O O2 0.291466 0.413378 0.698938
O O3 0.329678 0.346644 0.847734
O O4 0.169988 0.416766 0.840844
O O5 0.870183 0.195518 0.613789
O O6 0.811899 0.333186 0.597417
O O7 0.865831 0.271625 0.749852
O O8 0.000000 0.301223 0.630481
O O9 0.170640 0.588999 0.014652
O O10 0.869783 0.706433 0.917726
O O11 0.000000 0.787919 0.844238
O O12 0.500000 0.896754 0.927443
#
# Coordination Sequence:
#
# PCOD9369385 Si02
#       5
#    16  16  16  16  16
#     4  11  24  41  61  91 136 178 212 260 326 396
#     4   9  17  33  58  91 123 156 203 267 327 372
#     4  10  21  36  60  92 126 168 213 267 325 383
#     4   9  19  38  64  92 124 163 213 270 324 378
#     4  11  23  41  67  98 127 165 223 279 326 381
#
# _framework density 21.532738999999999
#
# number of rings (size 3 to 8) (size 9 to 14) (size 15 to 20)
#    0.000    2.000    2.000    1.200    5.600    2.400 
#    0.000    0.000    0.000    0.000    0.000    2.800 
#    0.000    0.000    0.000    0.000    0.000    0.000 
#
# Total GULP energy -111635.608052 kJ/mol
# GULP energy per Si atom -5581.780403 kJ/mol
# Density = 2.148373 g / cm^3
# Si number density = 21.532739 Si / 1000 Ang^3
#
#
#
# Elastic Constant Matrix: (Units=GPa)
#
#
# Indices 1 2 3 4 5 6 
#
# 1 133.7952 46.2865 37.5213 0.0000 0.0000 0.0000
# 2 46.2865 99.0593 23.8400 0.0000 0.0000 0.0000
# 3 37.5213 23.8400 119.3461 0.0000 0.0000 0.0000
# 4 0.0000 0.0000 0.0000 -6.8102 0.0000 0.0000
# 5 0.0000 0.0000 0.0000 0.0000 27.8872 0.0000
# 6 0.0000 0.0000 0.0000 0.0000 0.0000 1.7091
#
#
#
# Elastic Compliance Matrix: (Units=1/GPa)
#
#
# Indices 1 2 3 4 5 6 
#
# 1 0.009430 -0.003879 -0.002190 0.000000 0.000000 0.000000
# 2 -0.003879 0.012201 -0.001218 0.000000 0.000000 0.000000
# 3 -0.002190 -0.001218 0.009311 0.000000 0.000000 0.000000
# 4 0.000000 0.000000 0.000000 -0.146839 0.000000 0.000000
# 5 0.000000 0.000000 0.000000 0.000000 0.035859 0.000000
# 6 0.000000 0.000000 0.000000 0.000000 0.000000 0.585095
#
#
# Mechanical properties :
#
#
# Convention : Reuss Voigt Hill
#
# Bulk Modulus (GPa) = 61.09442 63.05515 62.07479
# Shear Modulus (GPa) = 9.52224 20.86076 15.19150
#
# Velocity S-wave (km/s) = 2.10519 3.11592 2.65902
# Velocity P-wave (km/s) = 5.86033 6.50325 6.19014
#
# Compressibility (1/GPa) = 0.01636811
#
# Stress axis : x y z
#
# Youngs Moduli (GPa) = 106.04106 81.96279 107.40371
#
# Poissons Ratio (x) = 0.31797 0.23520
# Poissons Ratio (y) = 0.41137 0.13076
# Poissons Ratio (z) = 0.23222 0.09979
#
# Static dielectric constant tensor:
#      x y z
#    x 1.757950 0.000000 0.000000 
#    y 0.000000 1.845620 0.000000 
#    z 0.000000 0.000000 1.876280 
# 
# From -- ./inp_files/13823.got.cif
#   From: 2010.05.17/outbox.cif.g08.bks.cpg/sg42_7_cif.got.tgz:13823.got - 2010.06.03 19:03:34.
