data_PCOD9369277
_publ_section_title
;
Structure prediction by ZEFSAII (Michael W. Deem and Ramdas Pophale) SiO2 
 PCOD9369277
Probable space group: F M M 2
;
_chemical_formula_sum "Si O2"
_cell_formula_units_Z 96
_cell_length_a 24.010192
_cell_length_b 13.576978
_cell_length_c 14.102281
_cell_angle_alpha 90.000000
_cell_angle_beta 90.000000
_cell_angle_gamma 90.000000
_cell_volume 4597.144038
_symmetry_space_group_name_H-M "F M M 2"
_symmetry_group_IT_number 42
_symmetry_cell_setting 'orthorhombic'
loop_
_space_group_symop_operation_xyz
x,y,z
-x,-y,z
-x,y,z
x,-y,z
x,1/2+y,1/2+z
-x,1/2-y,1/2+z
-x,1/2+y,1/2+z
x,1/2-y,1/2+z
1/2+x,y,1/2+z
1/2-x,-y,1/2+z
1/2-x,y,1/2+z
1/2+x,-y,1/2+z
1/2+x,1/2+y,z
1/2-x,1/2-y,z
1/2-x,1/2+y,z
1/2+x,1/2-y,z
loop_
_atom_site_type_symbol
_atom_site_label
_atom_site_fract_x
_atom_site_fract_y
_atom_site_fract_z
Si Si1 0.173999 0.882383 0.523650
Si Si2 0.061909 0.702490 0.940690
Si Si3 0.605219 0.616426 0.036771
Si Si4 0.216110 0.619393 0.425649
Si Si5 0.842083 0.882192 0.732736
Si Si6 0.934988 0.775434 0.222658
O O1 0.113100 0.844344 0.496659
O O2 0.222839 0.845252 0.455298
O O3 0.187683 0.859993 0.633009
O O4 0.172179 0.000000 0.515693
O O5 0.068560 0.682124 0.829156
O O6 0.000000 0.670314 0.969968
O O7 0.068419 0.818696 0.964321
O O8 0.595283 0.500000 0.029016
O O9 0.591265 0.655506 0.141659
O O10 0.668993 0.637206 0.005425
O O11 0.220096 0.500000 0.418763
O O12 0.192122 0.652478 0.324469
O O13 0.900256 0.825154 0.726837
O O14 0.850160 0.000000 0.739809
O O15 0.000000 0.760459 0.200581
#
# Coordination Sequence:
#
# PCOD9369277 Si02
#       6
#    16  16  16  16  16  16
#     4  10  22  40  65  95 129 168 209 268 336 392
#     4  11  24  41  62  93 131 169 218 269 323 397
#     4  11  23  42  66  93 131 177 220 268 327 389
#     4   9  20  40  65  95 129 166 217 269 322 395
#     4  10  20  39  64  93 128 168 216 272 329 389
#     4  11  24  41  61  94 131 167 221 276 322 386
#
# _framework density 20.882532000000001
#
# number of rings (size 3 to 8) (size 9 to 14) (size 15 to 20)
#    0.000    1.667    3.333    0.500    0.000    4.667 
#    0.000   10.000    0.000    0.000    0.000    0.000 
#    0.000    0.000    0.000    0.000    0.000    0.000 
#
# Total GULP energy -134065.584980 kJ/mol
# GULP energy per Si atom -5586.066041 kJ/mol
# Density = 2.083500 g / cm^3
# Si number density = 20.882532 Si / 1000 Ang^3
#
#
#
# Elastic Constant Matrix: (Units=GPa)
#
#
# Indices 1 2 3 4 5 6 
#
# 1 160.7351 40.4518 84.3158 0.0000 0.0000 0.0000
# 2 40.4518 50.3565 47.6909 0.0000 0.0000 0.0000
# 3 84.3158 47.6909 162.3787 0.0000 0.0000 0.0000
# 4 0.0000 0.0000 0.0000 28.5411 0.0000 0.0000
# 5 0.0000 0.0000 0.0000 0.0000 23.9701 0.0000
# 6 0.0000 0.0000 0.0000 0.0000 0.0000 23.2082
#
#
#
# Elastic Compliance Matrix: (Units=1/GPa)
#
#
# Indices 1 2 3 4 5 6 
#
# 1 0.009076 -0.003917 -0.003562 0.000000 0.000000 0.000000
# 2 -0.003917 0.029201 -0.006543 0.000000 0.000000 0.000000
# 3 -0.003562 -0.006543 0.009930 0.000000 0.000000 0.000000
# 4 0.000000 0.000000 0.000000 0.035037 0.000000 0.000000
# 5 0.000000 0.000000 0.000000 0.000000 0.041719 0.000000
# 6 0.000000 0.000000 0.000000 0.000000 0.000000 0.043088
#
#
# Mechanical properties :
#
#
# Convention : Reuss Voigt Hill
#
# Bulk Modulus (GPa) = 49.59533 79.82081 64.70807
# Shear Modulus (GPa) = 24.65295 28.54465 26.59880
#
# Velocity S-wave (km/s) = 3.43965 3.70119 3.57281
# Velocity P-wave (km/s) = 6.29096 7.52142 6.93354
#
# Compressibility (1/GPa) = 0.02016319
#
# Stress axis : x y z
#
# Youngs Moduli (GPa) = 110.18292 34.24515 100.70811
#
# Poissons Ratio (x) = 0.13414 0.35874
# Poissons Ratio (y) = 0.43159 0.65888
# Poissons Ratio (z) = 0.39250 0.22405
#
# Static dielectric constant tensor:
#      x y z
#    x 1.723350 0.000000 0.000000 
#    y 0.000000 1.780230 0.000000 
#    z 0.000000 0.000000 1.762070 
# 
# From -- ./inp_files/15844.got.cif
#   From: 2010.05.17/outbox.cif.g08.bks.cpg/sg42_8_cif.got.tgz:15844.got - 2010.06.03 19:03:34.
