data_PCOD9369932
_publ_section_title
;
Structure prediction by ZEFSAII (Michael W. Deem and Ramdas Pophale) SiO2 
 PCOD9369932
Probable space group: F M M 2
;
_chemical_formula_sum "Si O2"
_cell_formula_units_Z 80
_cell_length_a 7.622509
_cell_length_b 17.336942
_cell_length_c 31.161944
_cell_angle_alpha 90.000000
_cell_angle_beta 90.000000
_cell_angle_gamma 90.000000
_cell_volume 4118.081950
_symmetry_space_group_name_H-M "F M M 2"
_symmetry_group_IT_number 42
_symmetry_cell_setting 'orthorhombic'
loop_
_space_group_symop_operation_xyz
x,y,z
-x,-y,z
-x,y,z
x,-y,z
x,1/2+y,1/2+z
-x,1/2-y,1/2+z
-x,1/2+y,1/2+z
x,1/2-y,1/2+z
1/2+x,y,1/2+z
1/2-x,-y,1/2+z
1/2-x,y,1/2+z
1/2+x,-y,1/2+z
1/2+x,1/2+y,z
1/2-x,1/2-y,z
1/2-x,1/2+y,z
1/2+x,1/2-y,z
loop_
_atom_site_type_symbol
_atom_site_label
_atom_site_fract_x
_atom_site_fract_y
_atom_site_fract_z
Si Si1 0.709781 0.087949 0.760110
Si Si2 0.000000 0.091849 0.608972
Si Si3 0.000000 0.905825 0.511060
Si Si4 0.709855 0.588058 0.852693
Si Si5 0.797740 0.594429 0.445624
Si Si6 0.209150 0.839950 0.169968
O O1 0.500000 0.083735 0.758004
O O2 0.752290 0.124337 0.806459
O O3 0.766204 0.131734 0.717416
O O4 0.780624 0.000000 0.759093
O O5 0.000000 0.121328 0.559991
O O6 0.827956 0.118541 0.634683
O O7 0.000000 0.000000 0.607592
O O8 0.170100 0.881855 0.483740
O O9 0.000000 0.000000 0.511742
O O10 0.500000 0.583389 0.856574
O O11 0.780724 0.500000 0.849848
O O12 0.768010 0.621357 0.898468
O O13 0.795746 0.500000 0.443497
O O14 0.000000 0.617472 0.452336
O O15 0.250000 0.750000 0.166811
O O16 0.000000 0.854028 0.164809
#
# Coordination Sequence:
#
# PCOD9369932 Si02
#       6
#    16   8   8  16  16  16
#     4   9  18  30  48  78 112 146 186 231 281 335
#     4  11  24  40  62  91 117 151 197 246 301 349
#     4   9  18  30  48  75 106 141 181 226 286 339
#     4   8  14  23  39  68 105 145 181 217 273 334
#     4   8  14  25  41  66 106 145 176 220 278 336
#     4  11  23  41  61  83 117 154 199 243 295 353
#
# _framework density 19.42652
#
# number of rings (size 3 to 8) (size 9 to 14) (size 15 to 20)
#    0.000    2.800    1.000    1.800    2.800    2.000 
#    0.000    2.000    0.000    0.000    0.000    1.400 
#    0.000    0.000    0.000    0.000    0.000    0.000 
#
# Total GULP energy -111448.838134 kJ/mol
# GULP energy per Si atom -5572.441907 kJ/mol
# Density = 1.938230 g / cm^3
# Si number density = 19.426520 Si / 1000 Ang^3
#
#
#
# Elastic Constant Matrix: (Units=GPa)
#
#
# Indices 1 2 3 4 5 6 
#
# 1 101.4944 12.6523 80.6321 0.0000 0.0000 0.0000
# 2 12.6523 27.4355 31.0135 0.0000 0.0000 0.0000
# 3 80.6321 31.0135 224.3106 0.0000 0.0000 0.0000
# 4 0.0000 0.0000 0.0000 -10.3742 0.0000 0.0000
# 5 0.0000 0.0000 0.0000 0.0000 34.6989 0.0000
# 6 0.0000 0.0000 0.0000 0.0000 0.0000 9.3918
#
#
#
# Elastic Compliance Matrix: (Units=1/GPa)
#
#
# Indices 1 2 3 4 5 6 
#
# 1 0.013810 -0.000897 -0.004840 0.000000 0.000000 0.000000
# 2 -0.000897 0.043260 -0.005659 0.000000 0.000000 0.000000
# 3 -0.004840 -0.005659 0.006980 0.000000 0.000000 0.000000
# 4 0.000000 0.000000 0.000000 -0.096393 0.000000 0.000000
# 5 0.000000 0.000000 0.000000 0.000000 0.028819 0.000000
# 6 0.000000 0.000000 0.000000 0.000000 0.000000 0.106475
#
#
# Mechanical properties :
#
#
# Convention : Reuss Voigt Hill
#
# Bulk Modulus (GPa) = 24.23789 66.87071 45.55430
# Shear Modulus (GPa) = 35.84346 22.00615 28.92480
#
# Velocity S-wave (km/s) = 4.30010 3.36934 3.86286
# Velocity P-wave (km/s) = 6.09576 7.04512 6.58756
#
# Compressibility (1/GPa) = 0.04125772
#
# Stress axis : x y z
#
# Youngs Moduli (GPa) = 72.41209 23.11631 143.25979
#
# Poissons Ratio (x) = 0.02074 0.69339
# Poissons Ratio (y) = 0.06497 0.81065
# Poissons Ratio (z) = 0.35048 0.13081
#
# Static dielectric constant tensor:
#      x y z
#    x 1.689380 0.000000 0.000000 
#    y 0.000000 1.661320 0.000000 
#    z 0.000000 0.000000 1.712460 
# 
# From -- ./inp_files/31322.got.cif
#   From: 2010.05.17/outbox.cif.g08.bks.cpg/sg42_16_cif.got.tgz:31322.got - 2010.06.03 19:03:34.
