data_PCOD9369562
_publ_section_title
;
Structure prediction by ZEFSAII (Michael W. Deem and Ramdas Pophale) SiO2 
 PCOD9369562
Probable space group: F M M 2
;
_chemical_formula_sum "Si O2"
_cell_formula_units_Z 96
_cell_length_a 14.573291
_cell_length_b 18.661864
_cell_length_c 17.826471
_cell_angle_alpha 90.000000
_cell_angle_beta 90.000000
_cell_angle_gamma 90.000000
_cell_volume 4848.172169
_symmetry_space_group_name_H-M "F M M 2"
_symmetry_group_IT_number 42
_symmetry_cell_setting 'orthorhombic'
loop_
_space_group_symop_operation_xyz
x,y,z
-x,-y,z
-x,y,z
x,-y,z
x,1/2+y,1/2+z
-x,1/2-y,1/2+z
-x,1/2+y,1/2+z
x,1/2-y,1/2+z
1/2+x,y,1/2+z
1/2-x,-y,1/2+z
1/2-x,y,1/2+z
1/2+x,-y,1/2+z
1/2+x,1/2+y,z
1/2-x,1/2-y,z
1/2-x,1/2+y,z
1/2+x,1/2-y,z
loop_
_atom_site_type_symbol
_atom_site_label
_atom_site_fract_x
_atom_site_fract_y
_atom_site_fract_z
Si Si1 0.392810 0.850885 0.206240
Si Si2 0.774584 0.171589 0.988332
Si Si3 0.395003 0.083712 0.770697
Si Si4 0.709656 0.915274 0.348210
Si Si5 0.104831 0.917062 0.547428
Si Si6 0.609558 0.697070 0.138655
O O1 0.500000 0.844071 0.226427
O O2 0.337781 0.879135 0.276807
O O3 0.385619 0.905699 0.136869
O O4 0.362554 0.773486 0.174392
O O5 0.750000 0.250000 0.958082
O O6 0.819865 0.123628 0.924105
O O7 0.680627 0.132372 0.010768
O O8 0.835729 0.181534 0.062706
O O9 0.500000 0.096950 0.795514
O O10 0.318949 0.094949 0.834268
O O11 0.375543 0.135102 0.700231
O O12 0.388292 0.000000 0.747905
O O13 0.690881 0.000000 0.350306
O O14 0.000000 0.896695 0.528171
O O15 0.118957 0.000000 0.527517
O O16 0.500000 0.701001 0.123346
#
# Coordination Sequence:
#
# PCOD9369562 Si02
#       6
#    16  16  16  16  16  16
#     4  10  21  40  65  91 120 158 211 267 318 372
#     4  12  25  39  60  92 131 171 208 256 319 389
#     4   9  20  39  63  90 121 163 213 261 311 372
#     4  11  25  40  60  93 130 165 205 254 316 384
#     4  10  21  40  67  94 123 165 218 270 313 364
#     4  10  22  41  64  91 123 163 213 266 317 375
#
# _framework density 19.801276999999999
#
# number of rings (size 3 to 8) (size 9 to 14) (size 15 to 20)
#    0.000    1.667    1.667    2.000    2.333    5.000 
#    0.000    1.667    0.000    0.000    0.000    0.000 
#    0.000    0.000    0.000    0.000    0.000    0.000 
#
# Total GULP energy -134158.916518 kJ/mol
# GULP energy per Si atom -5589.954855 kJ/mol
# Density = 1.975621 g / cm^3
# Si number density = 19.801277 Si / 1000 Ang^3
#
#
#
# Elastic Constant Matrix: (Units=GPa)
#
#
# Indices 1 2 3 4 5 6 
#
# 1 64.8829 49.7015 41.3653 0.0000 0.0000 0.0000
# 2 49.7015 107.3799 57.1772 0.0000 0.0000 0.0000
# 3 41.3653 57.1772 87.3532 0.0000 0.0000 0.0000
# 4 0.0000 0.0000 0.0000 22.7350 0.0000 0.0000
# 5 0.0000 0.0000 0.0000 0.0000 5.9477 0.0000
# 6 0.0000 0.0000 0.0000 0.0000 0.0000 28.3810
#
#
#
# Elastic Compliance Matrix: (Units=1/GPa)
#
#
# Indices 1 2 3 4 5 6 
#
# 1 0.026332 -0.008517 -0.006895 0.000000 0.000000 0.000000
# 2 -0.008517 0.017050 -0.007127 0.000000 0.000000 0.000000
# 3 -0.006895 -0.007127 0.019378 0.000000 0.000000 0.000000
# 4 0.000000 0.000000 0.000000 0.043985 0.000000 0.000000
# 5 0.000000 0.000000 0.000000 0.000000 0.168132 0.000000
# 6 0.000000 0.000000 0.000000 0.000000 0.000000 0.035235
#
#
# Mechanical properties :
#
#
# Convention : Reuss Voigt Hill
#
# Bulk Modulus (GPa) = 56.55227 61.78932 59.17080
# Shear Modulus (GPa) = 13.84730 18.83753 16.34242
#
# Velocity S-wave (km/s) = 2.64732 3.08771 2.87596
# Velocity P-wave (km/s) = 6.16168 6.63207 6.40120
#
# Compressibility (1/GPa) = 0.01768276
#
# Stress axis : x y z
#
# Youngs Moduli (GPa) = 37.97676 58.65238 51.60606
#
# Poissons Ratio (x) = 0.49952 0.35580
# Poissons Ratio (y) = 0.32344 0.36779
# Poissons Ratio (z) = 0.26184 0.41801
#
# Static dielectric constant tensor:
#      x y z
#    x 1.716030 0.000000 0.000000 
#    y 0.000000 1.680130 0.000000 
#    z 0.000000 0.000000 1.664270 
# 
# From -- ./inp_files/13974.got.cif
#   From: 2010.05.17/outbox.cif.g08.bks.cpg/sg42_7_cif.got.tgz:13974.got - 2010.06.03 19:03:34.
