data_PCOD9369170
_publ_section_title
;
Structure prediction by ZEFSAII (Michael W. Deem and Ramdas Pophale) SiO2 
 PCOD9369170
Probable space group: F M M 2
;
_chemical_formula_sum "Si O2"
_cell_formula_units_Z 80
_cell_length_a 7.655405
_cell_length_b 17.987306
_cell_length_c 30.243820
_cell_angle_alpha 90.000000
_cell_angle_beta 90.000000
_cell_angle_gamma 90.000000
_cell_volume 4164.577410
_symmetry_space_group_name_H-M "F M M 2"
_symmetry_group_IT_number 42
_symmetry_cell_setting 'orthorhombic'
loop_
_space_group_symop_operation_xyz
x,y,z
-x,-y,z
-x,y,z
x,-y,z
x,1/2+y,1/2+z
-x,1/2-y,1/2+z
-x,1/2+y,1/2+z
x,1/2-y,1/2+z
1/2+x,y,1/2+z
1/2-x,-y,1/2+z
1/2-x,y,1/2+z
1/2+x,-y,1/2+z
1/2+x,1/2+y,z
1/2-x,1/2-y,z
1/2-x,1/2+y,z
1/2+x,1/2-y,z
loop_
_atom_site_type_symbol
_atom_site_label
_atom_site_fract_x
_atom_site_fract_y
_atom_site_fract_z
Si Si1 0.000000 0.910643 0.772841
Si Si2 0.790831 0.836934 0.011669
Si Si3 0.699103 0.163517 0.829960
Si Si4 0.000000 0.909773 0.671167
Si Si5 0.212359 0.586550 0.421384
Si Si6 0.795376 0.589530 0.603065
O O1 0.831869 0.879824 0.798431
O O2 0.000000 0.885235 0.721840
O O3 0.000000 0.000000 0.774556
O O4 0.750000 0.750000 0.010150
O O5 0.730952 0.873363 0.057555
O O6 0.000000 0.846523 0.011674
O O7 0.726441 0.877613 0.967463
O O8 0.500000 0.155355 0.815055
O O9 0.750000 0.250000 0.830867
O O10 0.718108 0.130583 0.879211
O O11 0.171100 0.887372 0.643373
O O12 0.000000 0.000000 0.672143
O O13 0.260682 0.500000 0.419102
O O14 0.000000 0.590811 0.419788
O O15 0.784966 0.500000 0.598202
O O16 0.000000 0.608255 0.610324
#
# Coordination Sequence:
#
# PCOD9369170 Si02
#       6
#     8  16  16   8  16  16
#     4  11  24  44  68  97 129 163 211 272 323 384
#     4  10  21  34  54  82 121 164 203 244 306 364
#     4  12  24  42  67  92 129 170 211 258 325 382
#     4   9  20  38  64  91 116 153 201 254 316 366
#     4  10  20  37  60  89 125 165 208 257 308 369
#     4   9  18  36  60  85 116 154 200 252 301 360
#
# _framework density 19.209631999999999
#
# number of rings (size 3 to 8) (size 9 to 14) (size 15 to 20)
#    0.000    1.800    2.000    1.800    1.400    7.200 
#    0.000    3.000    0.000    0.000    0.000    0.000 
#    0.000    0.000    0.000    0.000    0.000    0.000 
#
# Total GULP energy -111753.965009 kJ/mol
# GULP energy per Si atom -5587.698250 kJ/mol
# Density = 1.916591 g / cm^3
# Si number density = 19.209632 Si / 1000 Ang^3
#
#
#
# Elastic Constant Matrix: (Units=GPa)
#
#
# Indices 1 2 3 4 5 6 
#
# 1 117.0855 41.3734 74.5232 0.0000 0.0000 0.0000
# 2 41.3734 98.1048 63.6673 0.0000 0.0000 0.0000
# 3 74.5232 63.6673 185.6131 0.0000 0.0000 0.0000
# 4 0.0000 0.0000 0.0000 -32.8777 0.0000 0.0000
# 5 0.0000 0.0000 0.0000 0.0000 -1.2503 0.0000
# 6 0.0000 0.0000 0.0000 0.0000 0.0000 25.7866
#
#
#
# Elastic Compliance Matrix: (Units=1/GPa)
#
#
# Indices 1 2 3 4 5 6 
#
# 1 0.011921 -0.002471 -0.003938 0.000000 0.000000 0.000000
# 2 -0.002471 0.013624 -0.003681 0.000000 0.000000 0.000000
# 3 -0.003938 -0.003681 0.008231 0.000000 0.000000 0.000000
# 4 0.000000 0.000000 0.000000 -0.030416 0.000000 0.000000
# 5 0.000000 0.000000 0.000000 0.000000 -0.799808 0.000000
# 6 0.000000 0.000000 0.000000 0.000000 0.000000 0.038780
#
#
# Mechanical properties :
#
#
# Convention : Reuss Voigt Hill
#
# Bulk Modulus (GPa) = 73.55723 84.43679 78.99701
# Shear Modulus (GPa) = -6.82171 13.08103 3.12966
#
# Velocity S-wave (km/s) = -1.88651 2.61236 1.27779
# Velocity P-wave (km/s) = 5.79912 7.29041 6.58710
#
# Compressibility (1/GPa) = 0.01359486
#
# Stress axis : x y z
#
# Youngs Moduli (GPa) = 83.88673 73.39815 121.48483
#
# Poissons Ratio (x) = 0.18139 0.47847
# Poissons Ratio (y) = 0.20731 0.44719
# Poissons Ratio (z) = 0.33039 0.27018
#
# Static dielectric constant tensor:
#      x y z
#    x 1.683020 0.000000 0.000000 
#    y 0.000000 1.649780 0.000000 
#    z 0.000000 0.000000 1.643160 
# 
# From -- ./inp_files/31299.got.cif
#   From: 2010.05.17/outbox.cif.g08.bks.cpg/sg42_16_cif.got.tgz:31299.got - 2010.06.03 19:03:34.
