data_PCOD9369712
_publ_section_title
;
Structure prediction by ZEFSAII (Michael W. Deem and Ramdas Pophale) SiO2 
 PCOD9369712
Probable space group: F M M 2
;
_chemical_formula_sum "Si O2"
_cell_formula_units_Z 100
_cell_length_a 8.783033
_cell_length_b 23.647161
_cell_length_c 25.744176
_cell_angle_alpha 90.000000
_cell_angle_beta 90.000000
_cell_angle_gamma 90.000000
_cell_volume 5346.905623
_symmetry_space_group_name_H-M "F M M 2"
_symmetry_group_IT_number 42
_symmetry_cell_setting 'orthorhombic'
loop_
_space_group_symop_operation_xyz
x,y,z
-x,-y,z
-x,y,z
x,-y,z
x,1/2+y,1/2+z
-x,1/2-y,1/2+z
-x,1/2+y,1/2+z
x,1/2-y,1/2+z
1/2+x,y,1/2+z
1/2-x,-y,1/2+z
1/2-x,y,1/2+z
1/2+x,-y,1/2+z
1/2+x,1/2+y,z
1/2-x,1/2-y,z
1/2-x,1/2+y,z
1/2+x,1/2-y,z
loop_
_atom_site_type_symbol
_atom_site_label
_atom_site_fract_x
_atom_site_fract_y
_atom_site_fract_z
Si Si1 0.682310 0.500000 0.328650
Si Si2 0.816991 0.881422 0.808176
Si Si3 0.831704 0.616699 0.614251
Si Si4 0.317610 0.812520 0.205859
Si Si5 0.317077 0.811705 0.410201
Si Si6 0.317041 0.617223 0.502096
Si Si7 0.684599 0.000000 0.949010
Si Si8 0.500000 0.000000 0.627450
O O1 0.500000 0.500000 0.327556
O O2 0.743363 0.442903 0.303082
O O3 0.734841 0.500000 0.389110
O O4 0.773175 0.840531 0.760976
O O5 0.771865 0.853432 0.863050
O O6 0.000000 0.887306 0.808003
O O7 0.744015 0.647264 0.660451
O O8 0.743560 0.622343 0.560225
O O9 0.000000 0.643876 0.608717
O O10 0.869462 0.550902 0.625707
O O11 0.500000 0.809601 0.203756
O O12 0.250000 0.750000 0.201178
O O13 0.500000 0.809363 0.412201
O O14 0.250000 0.750000 0.399910
O O15 0.251203 0.836077 0.463668
O O16 0.500000 0.619793 0.500914
O O17 0.266204 0.556420 0.478739
O O18 0.500000 0.000000 0.948429
#
# Coordination Sequence:
#
# PCOD9369712 Si02
#       8
#     8  16  16  16  16  16   8   4
#     4  11  21  37  62  94 129 168 211 261 316 380
#     4  10  23  42  62  92 128 166 213 262 323 382
#     4  10  22  42  64  95 128 167 214 264 324 385
#     4  11  24  44  69  95 126 170 219 270 325 386
#     4  11  23  39  59  88 125 170 213 264 319 378
#     4  11  21  38  63  93 128 164 209 260 315 376
#     4   9  19  34  57  90 126 159 201 247 305 366
#     4   8  22  42  68  92 134 162 214 262 326 386
#
# _framework density 18.702406
#
# number of rings (size 3 to 8) (size 9 to 14) (size 15 to 20)
#    0.480    1.120    1.600    3.120    0.000    3.200 
#    1.440    5.200    0.000    0.000    0.000    0.000 
#    0.000    0.000    0.000    0.000    0.000    0.000 
#
# Total GULP energy -139350.290619 kJ/mol
# GULP energy per Si atom -5574.011625 kJ/mol
# Density = 1.865984 g / cm^3
# Si number density = 18.702406 Si / 1000 Ang^3
#
#
#
# Elastic Constant Matrix: (Units=GPa)
#
#
# Indices 1 2 3 4 5 6 
#
# 1 61.3105 44.6766 36.4433 0.0000 0.0000 0.0000
# 2 44.6766 143.2156 61.0154 0.0000 0.0000 0.0000
# 3 36.4433 61.0154 104.2996 0.0000 0.0000 0.0000
# 4 0.0000 0.0000 0.0000 12.6033 0.0000 0.0000
# 5 0.0000 0.0000 0.0000 0.0000 26.9157 0.0000
# 6 0.0000 0.0000 0.0000 0.0000 0.0000 31.6524
#
#
#
# Elastic Compliance Matrix: (Units=1/GPa)
#
#
# Indices 1 2 3 4 5 6 
#
# 1 0.022987 -0.004994 -0.005111 0.000000 0.000000 0.000000
# 2 -0.004994 0.010385 -0.004331 0.000000 0.000000 0.000000
# 3 -0.005111 -0.004331 0.013907 0.000000 0.000000 0.000000
# 4 0.000000 0.000000 0.000000 0.079345 0.000000 0.000000
# 5 0.000000 0.000000 0.000000 0.000000 0.037153 0.000000
# 6 0.000000 0.000000 0.000000 0.000000 0.000000 0.031593
#
#
# Mechanical properties :
#
#
# Convention : Reuss Voigt Hill
#
# Bulk Modulus (GPa) = 54.31964 65.89957 60.10961
# Shear Modulus (GPa) = 21.70367 25.34697 23.52532
#
# Velocity S-wave (km/s) = 3.41027 3.68540 3.55050
# Velocity P-wave (km/s) = 6.67936 7.30903 7.00128
#
# Compressibility (1/GPa) = 0.01840955
#
# Stress axis : x y z
#
# Youngs Moduli (GPa) = 43.50296 96.29071 71.90698
#
# Poissons Ratio (x) = 0.48083 0.36749
# Poissons Ratio (y) = 0.21723 0.31140
# Poissons Ratio (z) = 0.22233 0.41699
#
# Static dielectric constant tensor:
#      x y z
#    x 1.633670 0.000000 0.000000 
#    y 0.000000 1.624780 0.000000 
#    z 0.000000 0.000000 1.631860 
# 
# From -- ./inp_files/31597.got.cif
#   From: 2010.05.17/outbox.cif.g08.bks.cpg/sg42_16_cif.got.tgz:31597.got - 2010.06.03 19:03:34.
