data_PCOD9369203
_publ_section_title
;
Structure prediction by ZEFSAII (Michael W. Deem and Ramdas Pophale) SiO2 
 PCOD9369203
Probable space group: F M M 2
;
_chemical_formula_sum "Si O2"
_cell_formula_units_Z 128
_cell_length_a 22.576954
_cell_length_b 23.349713
_cell_length_c 11.188498
_cell_angle_alpha 90.000000
_cell_angle_beta 90.000000
_cell_angle_gamma 90.000000
_cell_volume 5898.188982
_symmetry_space_group_name_H-M "F M M 2"
_symmetry_group_IT_number 42
_symmetry_cell_setting 'orthorhombic'
loop_
_space_group_symop_operation_xyz
x,y,z
-x,-y,z
-x,y,z
x,-y,z
x,1/2+y,1/2+z
-x,1/2-y,1/2+z
-x,1/2+y,1/2+z
x,1/2-y,1/2+z
1/2+x,y,1/2+z
1/2-x,-y,1/2+z
1/2-x,y,1/2+z
1/2+x,-y,1/2+z
1/2+x,1/2+y,z
1/2-x,1/2-y,z
1/2-x,1/2+y,z
1/2+x,1/2-y,z
loop_
_atom_site_type_symbol
_atom_site_label
_atom_site_fract_x
_atom_site_fract_y
_atom_site_fract_z
Si Si1 0.566975 0.436029 0.531540
Si Si2 0.233366 0.814046 0.359380
Si Si3 0.122981 0.068242 0.128495
Si Si4 0.565686 0.769231 0.032919
Si Si5 0.251876 0.124716 0.113578
Si Si6 0.374358 0.139937 0.187716
Si Si7 0.929151 0.355384 0.436025
Si Si8 0.398297 0.351665 0.340770
O O1 0.500000 0.434963 0.484542
O O2 0.585744 0.500000 0.550024
O O3 0.570434 0.399978 0.651375
O O4 0.605242 0.402922 0.435659
O O5 0.250000 0.750000 0.388943
O O6 0.255534 0.830656 0.226115
O O7 0.250217 0.851164 0.477753
O O8 0.164031 0.820753 0.337635
O O9 0.193336 0.085703 0.131192
O O10 0.090951 0.112381 0.221065
O O11 0.116241 0.000000 0.151716
O O12 0.093718 0.088359 0.004671
O O13 0.500000 0.774321 0.088871
O O14 0.614879 0.802134 0.111148
O O15 0.578923 0.702852 0.013226
O O16 0.562691 0.803361 0.906060
O O17 0.318454 0.102735 0.140557
O O18 0.384631 0.152580 0.324991
O O19 0.000000 0.358069 0.409540
#
# Coordination Sequence:
#
# PCOD9369203 Si02
#       8
#    16  16  16  16  16  16  16  16
#     4  10  20  37  64  93 120 158 217 282 335 391
#     4  11  23  39  62  97 134 177 223 284 348 424
#     4  11  27  47  65  96 140 186 235 283 341 420
#     4  10  22  40  67 101 137 171 220 289 351 416
#     4  11  24  41  66  97 135 186 234 285 354 411
#     4  11  22  41  67  96 134 179 229 280 351 419
#     4  11  26  44  69 103 141 186 233 286 360 432
#     4  10  21  41  65  92 127 172 223 275 336 405
#
# _framework density 21.701574999999998
#
# number of rings (size 3 to 8) (size 9 to 14) (size 15 to 20)
#    0.000    1.375    2.500    3.750    5.250    3.250 
#    0.000    3.125    0.000    0.000    0.000    0.000 
#    0.000    0.000    0.000    0.000    0.000    0.000 
#
# Total GULP energy -178161.324755 kJ/mol
# GULP energy per Si atom -5567.541399 kJ/mol
# Density = 2.165218 g / cm^3
# Si number density = 21.701575 Si / 1000 Ang^3
#
#
#
# Elastic Constant Matrix: (Units=GPa)
#
#
# Indices 1 2 3 4 5 6 
#
# 1 41.2936 3.9418 2.9321 0.0000 0.0000 0.0000
# 2 3.9418 98.5851 17.7267 0.0000 0.0000 0.0000
# 3 2.9321 17.7267 61.0664 0.0000 0.0000 0.0000
# 4 0.0000 0.0000 0.0000 8.5303 0.0000 0.0000
# 5 0.0000 0.0000 0.0000 0.0000 24.9700 0.0000
# 6 0.0000 0.0000 0.0000 0.0000 0.0000 24.8547
#
#
#
# Elastic Compliance Matrix: (Units=1/GPa)
#
#
# Indices 1 2 3 4 5 6 
#
# 1 0.024360 -0.000806 -0.000936 0.000000 0.000000 0.000000
# 2 -0.000806 0.010729 -0.003076 0.000000 0.000000 0.000000
# 3 -0.000936 -0.003076 0.017313 0.000000 0.000000 0.000000
# 4 0.000000 0.000000 0.000000 0.117229 0.000000 0.000000
# 5 0.000000 0.000000 0.000000 0.000000 0.040048 0.000000
# 6 0.000000 0.000000 0.000000 0.000000 0.000000 0.040234
#
#
# Mechanical properties :
#
#
# Convention : Reuss Voigt Hill
#
# Bulk Modulus (GPa) = 23.38203 27.79402 25.58803
# Shear Modulus (GPa) = 18.26130 23.42732 20.84431
#
# Velocity S-wave (km/s) = 2.90396 3.28917 3.10255
# Velocity P-wave (km/s) = 4.69486 5.22112 4.96497
#
# Compressibility (1/GPa) = 0.04276788
#
# Stress axis : x y z
#
# Youngs Moduli (GPa) = 41.05063 93.20716 57.75875
#
# Poissons Ratio (x) = 0.07510 0.05405
# Poissons Ratio (y) = 0.03308 0.17765
# Poissons Ratio (z) = 0.03841 0.28668
#
# Static dielectric constant tensor:
#      x y z
#    x 2.078860 0.000000 0.000000 
#    y 0.000000 1.768370 0.000000 
#    z 0.000000 0.000000 1.965950 
# 
# From -- ./inp_files/10361.got.cif
#   From: 2010.05.17/outbox.cif.g08.bks.cpg/sg42_6_cif.got.tgz:10361.got - 2010.06.03 19:03:34.
