data_PCOD9369329
_publ_section_title
;
Structure prediction by ZEFSAII (Michael W. Deem and Ramdas Pophale) SiO2 
 PCOD9369329
Probable space group: F M M 2
;
_chemical_formula_sum "Si O2"
_cell_formula_units_Z 72
_cell_length_a 7.264481
_cell_length_b 15.047088
_cell_length_c 25.532989
_cell_angle_alpha 90.000000
_cell_angle_beta 90.000000
_cell_angle_gamma 90.000000
_cell_volume 2790.992768
_symmetry_space_group_name_H-M "F M M 2"
_symmetry_group_IT_number 42
_symmetry_cell_setting 'orthorhombic'
loop_
_space_group_symop_operation_xyz
x,y,z
-x,-y,z
-x,y,z
x,-y,z
x,1/2+y,1/2+z
-x,1/2-y,1/2+z
-x,1/2+y,1/2+z
x,1/2-y,1/2+z
1/2+x,y,1/2+z
1/2-x,-y,1/2+z
1/2-x,y,1/2+z
1/2+x,-y,1/2+z
1/2+x,1/2+y,z
1/2-x,1/2-y,z
1/2-x,1/2+y,z
1/2+x,1/2-y,z
loop_
_atom_site_type_symbol
_atom_site_label
_atom_site_fract_x
_atom_site_fract_y
_atom_site_fract_z
Si Si1 0.281493 0.144061 0.883550
Si Si2 0.775473 0.400690 0.112536
Si Si3 0.218507 0.644061 0.996747
Si Si4 0.775474 0.400690 0.767761
Si Si5 0.250000 0.250000 0.190148
O O1 0.500000 0.127004 0.884148
O O2 0.250000 0.250000 0.881722
O O3 0.216500 0.106835 0.828332
O O4 0.209363 0.112629 0.940149
O O5 0.733570 0.500000 0.130709
O O6 0.716501 0.393165 0.051965
O O7 0.688388 0.323883 0.147491
O O8 0.000000 0.387848 0.115171
O O9 0.250000 0.750000 0.998575
O O10 0.000000 0.627004 0.996149
O O11 0.733573 0.500000 0.749589
O O12 0.688388 0.323883 0.732806
O O13 0.000000 0.387847 0.765126
#
# Coordination Sequence:
#
# PCOD9369329 Si02
#       5
#    16  16  16  16   8
#     4   9  17  32  55  80 106 138 175 218 269 319
#     4  10  21  35  53  79 106 137 181 224 263 315
#     4   9  17  32  55  80 106 138 175 218 269 319
#     4  10  21  35  53  79 106 137 181 224 263 315
#     4  12  20  36  54  72 104 148 176 218 270 314
#
# _framework density 25.797272
#
# number of rings (size 3 to 8) (size 9 to 14) (size 15 to 20)
#    0.000    2.222    2.222    1.333    0.000    0.889 
#    0.000    4.444    0.000    4.000    0.000    6.222 
#    0.000    0.000    0.000    0.000    0.000    0.000 
#
# Total GULP energy -100391.105033 kJ/mol
# GULP energy per Si atom -5577.283613 kJ/mol
# Density = 2.573856 g / cm^3
# Si number density = 25.797272 Si / 1000 Ang^3
#
#
#
# Elastic Constant Matrix: (Units=GPa)
#
#
# Indices 1 2 3 4 5 6 
#
# 1 134.7595 19.7793 23.8739 0.0000 0.0000 0.0000
# 2 19.7793 206.6796 101.3262 0.0000 0.0000 0.0000
# 3 23.8739 101.3262 282.3284 0.0000 0.0000 0.0000
# 4 0.0000 0.0000 0.0000 2216.5020 0.0000 0.0000
# 5 0.0000 0.0000 0.0000 0.0000 -430.0837 0.0000
# 6 0.0000 0.0000 0.0000 0.0000 0.0000 -16.9761
#
#
#
# Elastic Compliance Matrix: (Units=1/GPa)
#
#
# Indices 1 2 3 4 5 6 
#
# 1 0.007576 -0.000499 -0.000462 0.000000 0.000000 0.000000
# 2 -0.000499 0.005904 -0.002077 0.000000 0.000000 0.000000
# 3 -0.000462 -0.002077 0.004326 0.000000 0.000000 0.000000
# 4 0.000000 0.000000 0.000000 0.000451 0.000000 0.000000
# 5 0.000000 0.000000 0.000000 0.000000 -0.002325 0.000000
# 6 0.000000 0.000000 0.000000 0.000000 0.000000 -0.058906
#
#
# Mechanical properties :
#
#
# Convention : Reuss Voigt Hill
#
# Bulk Modulus (GPa) = 85.23701 101.52512 93.38107
# Shear Modulus (GPa) = -151.56533 385.80766 117.12116
#
# Velocity S-wave (km/s) = -7.67333 12.24248 6.74531
# Velocity P-wave (km/s) = 6.73750 15.46862 9.84592
#
# Compressibility (1/GPa) = 0.01173199
#
# Stress axis : x y z
#
# Youngs Moduli (GPa) = 132.00269 169.36728 231.13983
#
# Poissons Ratio (x) = 0.08446 0.10670
# Poissons Ratio (y) = 0.06583 0.48005
# Poissons Ratio (z) = 0.06094 0.35175
#
# Static dielectric constant tensor:
#      x y z
#    x 2.269900 0.000000 0.000000 
#    y 0.000000 1.890570 0.000000 
#    z 0.000000 0.000000 2.000510 
# 
# From -- ./inp_files/2815.got.cif
#   From: 2010.05.17/outbox.cif.g08.bks.cpg/sg42_2_cif.got.tgz:2815.got - 2010.06.03 19:03:34.
