data_PCOD9369842
_publ_section_title
;
Structure prediction by ZEFSAII (Michael W. Deem and Ramdas Pophale) SiO2 
 PCOD9369842
Probable space group: F M M 2
;
_chemical_formula_sum "Si O2"
_cell_formula_units_Z 96
_cell_length_a 19.141815
_cell_length_b 8.745360
_cell_length_c 32.676592
_cell_angle_alpha 90.000000
_cell_angle_beta 90.000000
_cell_angle_gamma 90.000000
_cell_volume 5470.128920
_symmetry_space_group_name_H-M "F M M 2"
_symmetry_group_IT_number 42
_symmetry_cell_setting 'orthorhombic'
loop_
_space_group_symop_operation_xyz
x,y,z
-x,-y,z
-x,y,z
x,-y,z
x,1/2+y,1/2+z
-x,1/2-y,1/2+z
-x,1/2+y,1/2+z
x,1/2-y,1/2+z
1/2+x,y,1/2+z
1/2-x,-y,1/2+z
1/2-x,y,1/2+z
1/2+x,-y,1/2+z
1/2+x,1/2+y,z
1/2-x,1/2-y,z
1/2-x,1/2+y,z
1/2+x,1/2-y,z
loop_
_atom_site_type_symbol
_atom_site_label
_atom_site_fract_x
_atom_site_fract_y
_atom_site_fract_z
Si Si1 0.917535 0.315039 0.092760
Si Si2 0.171327 0.183505 0.750589
Si Si3 0.672042 0.315456 0.840675
Si Si4 0.828374 0.682276 0.666616
Si Si5 0.919498 0.316059 0.417112
Si Si6 0.915183 0.822055 0.502137
O O1 0.911036 0.500000 0.094640
O O2 0.873642 0.238925 0.128518
O O3 0.000000 0.279397 0.096923
O O4 0.893137 0.266100 0.047127
O O5 0.250000 0.250000 0.751915
O O6 0.141613 0.222378 0.795516
O O7 0.140100 0.255366 0.709513
O O8 0.173330 0.000000 0.746341
O O9 0.676398 0.500000 0.842240
O O10 0.750000 0.250000 0.843775
O O11 0.625669 0.261570 0.878669
O O12 0.824251 0.500000 0.668042
O O13 0.750000 0.750000 0.662927
O O14 0.919890 0.500000 0.416380
O O15 0.891790 0.263733 0.461362
O O16 0.000000 0.263593 0.413226
O O17 0.000000 0.813628 0.502919
O O18 0.896167 0.000000 0.498486
#
# Coordination Sequence:
#
# PCOD9369842 Si02
#       6
#    16  16  16  16  16  16
#     4   9  18  34  54  74  98 128 162 200 243 291
#     4   9  16  29  48  68  92 124 162 197 234 284
#     4   9  18  31  48  70  94 123 159 196 235 280
#     4  11  21  33  51  74 100 128 162 202 243 290
#     4   9  17  30  48  70  96 124 156 194 233 276
#     4   8  15  29  49  71  94 123 158 192 230 281
#
# _framework density 17.549861
#
# number of rings (size 3 to 8) (size 9 to 14) (size 15 to 20)
#    0.000    2.833    0.000    4.000    0.000    2.333 
#    0.000    3.333    0.000    5.000    0.000    0.000 
#    0.000    0.000    0.000    0.000    0.000    0.000 
#
# Total GULP energy -133659.356888 kJ/mol
# GULP energy per Si atom -5569.139870 kJ/mol
# Density = 1.750992 g / cm^3
# Si number density = 17.549861 Si / 1000 Ang^3
#
#
#
# Elastic Constant Matrix: (Units=GPa)
#
#
# Indices 1 2 3 4 5 6 
#
# 1 36.7188 22.8910 63.2661 0.0000 0.0000 0.0000
# 2 22.8910 48.4392 56.5688 0.0000 0.0000 0.0000
# 3 63.2661 56.5688 221.7004 0.0000 0.0000 0.0000
# 4 0.0000 0.0000 0.0000 31.5129 0.0000 0.0000
# 5 0.0000 0.0000 0.0000 0.0000 33.1423 0.0000
# 6 0.0000 0.0000 0.0000 0.0000 0.0000 18.4248
#
#
#
# Elastic Compliance Matrix: (Units=1/GPa)
#
#
# Indices 1 2 3 4 5 6 
#
# 1 0.057718 -0.011454 -0.013548 0.000000 0.000000 0.000000
# 2 -0.011454 0.031680 -0.004815 0.000000 0.000000 0.000000
# 3 -0.013548 -0.004815 0.009605 0.000000 0.000000 0.000000
# 4 0.000000 0.000000 0.000000 0.031733 0.000000 0.000000
# 5 0.000000 0.000000 0.000000 0.000000 0.030173 0.000000
# 6 0.000000 0.000000 0.000000 0.000000 0.000000 0.054275
#
#
# Mechanical properties :
#
#
# Convention : Reuss Voigt Hill
#
# Bulk Modulus (GPa) = 25.40031 65.81222 45.60627
# Shear Modulus (GPa) = 17.36465 27.55818 22.46141
#
# Velocity S-wave (km/s) = 3.14896 3.96697 3.58140
# Velocity P-wave (km/s) = 5.26554 7.65272 6.56848
#
# Compressibility (1/GPa) = 0.03936960
#
# Stress axis : x y z
#
# Youngs Moduli (GPa) = 17.32563 31.56544 104.10788
#
# Poissons Ratio (x) = 0.36154 1.41049
# Poissons Ratio (y) = 0.19844 0.50128
# Poissons Ratio (z) = 0.23473 0.15199
#
# Static dielectric constant tensor:
#      x y z
#    x 1.580170 0.000000 0.000000 
#    y 0.000000 1.592940 0.000000 
#    z 0.000000 0.000000 1.644610 
# 
# From -- ./inp_files/28055.got.cif
#   From: 2010.05.17/outbox.cif.g08.bks.cpg/sg42_15_cif.got.tgz:28055.got - 2010.06.03 19:03:34.
