data_PCOD9369287
_publ_section_title
;
Structure prediction by ZEFSAII (Michael W. Deem and Ramdas Pophale) SiO2 
 PCOD9369287
Probable space group: F M M 2
;
_chemical_formula_sum "Si O2"
_cell_formula_units_Z 116
_cell_length_a 15.962273
_cell_length_b 26.230444
_cell_length_c 12.883271
_cell_angle_alpha 90.000000
_cell_angle_beta 90.000000
_cell_angle_gamma 90.000000
_cell_volume 5394.193463
_symmetry_space_group_name_H-M "F M M 2"
_symmetry_group_IT_number 42
_symmetry_cell_setting 'orthorhombic'
loop_
_space_group_symop_operation_xyz
x,y,z
-x,-y,z
-x,y,z
x,-y,z
x,1/2+y,1/2+z
-x,1/2-y,1/2+z
-x,1/2+y,1/2+z
x,1/2-y,1/2+z
1/2+x,y,1/2+z
1/2-x,-y,1/2+z
1/2-x,y,1/2+z
1/2+x,-y,1/2+z
1/2+x,1/2+y,z
1/2-x,1/2-y,z
1/2-x,1/2+y,z
1/2+x,1/2-y,z
loop_
_atom_site_type_symbol
_atom_site_label
_atom_site_fract_x
_atom_site_fract_y
_atom_site_fract_z
Si Si1 0.094379 0.055251 0.197640
Si Si2 0.500000 0.500000 0.527612
Si Si3 0.676791 0.058962 0.379658
Si Si4 0.659243 0.325622 0.527463
Si Si5 0.346582 0.866412 0.557176
Si Si6 0.900170 0.352833 0.255480
Si Si7 0.094419 0.277237 0.442410
Si Si8 0.126762 0.426891 0.929606
O O1 0.146178 0.104315 0.164517
O O2 0.088564 0.055993 0.321072
O O3 0.000000 0.059264 0.155562
O O4 0.130827 0.000000 0.166197
O O5 0.574729 0.456180 0.517355
O O6 0.633129 0.088369 0.475366
O O7 0.652242 0.095924 0.283667
O O8 0.774767 0.060370 0.413160
O O9 0.652704 0.000000 0.364296
O O10 0.755024 0.343495 0.538952
O O11 0.619071 0.331585 0.641404
O O12 0.648984 0.270292 0.478286
O O13 0.618762 0.367369 0.451814
O O14 0.405547 0.818971 0.534505
O O15 0.877165 0.309777 0.341777
O O16 0.000000 0.362999 0.266358
O O17 0.000000 0.259054 0.423021
#
# Coordination Sequence:
#
# PCOD9369287 Si02
#       8
#    16   4  16  16  16  16  16  16
#     4  11  20  35  58  90 125 163 205 254 303 359
#     4  12  20  40  56  88 130 166 208 260 290 356
#     4  10  20  40  60  86 123 163 203 249 305 361
#     4  11  24  41  64  90 122 162 203 248 307 373
#     4  10  22  38  61  91 120 156 205 251 307 359
#     4  10  23  42  63  91 123 157 204 255 304 366
#     4  10  22  42  63  83 117 155 199 259 307 361
#     4  11  22  37  60  88 125 165 205 254 300 354
#
# _framework density 21.504605000000002
#
# number of rings (size 3 to 8) (size 9 to 14) (size 15 to 20)
#    0.000    1.517    2.069    2.483    1.931    1.931 
#    1.241    5.517    0.000    0.000    0.000    0.000 
#    0.000    0.000    0.000    0.000    0.000    0.000 
#
# Total GULP energy -161563.736138 kJ/mol
# GULP energy per Si atom -5571.163315 kJ/mol
# Density = 2.145566 g / cm^3
# Si number density = 21.504605 Si / 1000 Ang^3
#
#
#
# Elastic Constant Matrix: (Units=GPa)
#
#
# Indices 1 2 3 4 5 6 
#
# 1 76.9309 45.6027 6.7864 0.0000 0.0000 0.0000
# 2 45.6027 196.8874 45.8594 0.0000 0.0000 0.0000
# 3 6.7864 45.8594 53.3569 0.0000 0.0000 0.0000
# 4 0.0000 0.0000 0.0000 17.5027 0.0000 0.0000
# 5 0.0000 0.0000 0.0000 0.0000 17.5984 0.0000
# 6 0.0000 0.0000 0.0000 0.0000 0.0000 -4.9208
#
#
#
# Elastic Compliance Matrix: (Units=1/GPa)
#
#
# Indices 1 2 3 4 5 6 
#
# 1 0.015146 -0.003825 0.001361 0.000000 0.000000 0.000000
# 2 -0.003825 0.007316 -0.005802 0.000000 0.000000 0.000000
# 3 0.001361 -0.005802 0.023555 0.000000 0.000000 0.000000
# 4 0.000000 0.000000 0.000000 0.057134 0.000000 0.000000
# 5 0.000000 0.000000 0.000000 0.000000 0.056823 0.000000
# 6 0.000000 0.000000 0.000000 0.000000 0.000000 -0.203219
#
#
# Mechanical properties :
#
#
# Convention : Reuss Voigt Hill
#
# Bulk Modulus (GPa) = 33.91421 58.18579 46.05000
# Shear Modulus (GPa) = -296.13781 21.29783 -137.41999
#
# Velocity S-wave (km/s) = -11.74768 3.15045 -8.00258
# Velocity P-wave (km/s) = 12.96941 6.35216 7.99549
#
# Compressibility (1/GPa) = 0.02948617
#
# Stress axis : x y z
#
# Youngs Moduli (GPa) = 66.02383 136.67948 42.45357
#
# Poissons Ratio (x) = 0.52282 -0.05779
# Poissons Ratio (y) = 0.25255 0.24631
# Poissons Ratio (z) = -0.08988 0.79299
#
# Static dielectric constant tensor:
#      x y z
#    x 1.850450 0.000000 0.000000 
#    y 0.000000 1.785210 0.000000 
#    z 0.000000 0.000000 1.829650 
# 
# From -- ./inp_files/15399.got.cif
#   From: 2010.05.17/outbox.cif.g08.bks.cpg/sg42_8_cif.got.tgz:15399.got - 2010.06.03 19:03:34.
