data_PCOD9369188
_publ_section_title
;
Structure prediction by ZEFSAII (Michael W. Deem and Ramdas Pophale) SiO2 
 PCOD9369188
Probable space group: F M M 2
;
_chemical_formula_sum "Si O2"
_cell_formula_units_Z 96
_cell_length_a 18.808011
_cell_length_b 19.269201
_cell_length_c 14.796610
_cell_angle_alpha 90.000000
_cell_angle_beta 90.000000
_cell_angle_gamma 90.000000
_cell_volume 5362.518509
_symmetry_space_group_name_H-M "F M M 2"
_symmetry_group_IT_number 42
_symmetry_cell_setting 'orthorhombic'
loop_
_space_group_symop_operation_xyz
x,y,z
-x,-y,z
-x,y,z
x,-y,z
x,1/2+y,1/2+z
-x,1/2-y,1/2+z
-x,1/2+y,1/2+z
x,1/2-y,1/2+z
1/2+x,y,1/2+z
1/2-x,-y,1/2+z
1/2-x,y,1/2+z
1/2+x,-y,1/2+z
1/2+x,1/2+y,z
1/2-x,1/2-y,z
1/2-x,1/2+y,z
1/2+x,1/2-y,z
loop_
_atom_site_type_symbol
_atom_site_label
_atom_site_fract_x
_atom_site_fract_y
_atom_site_fract_z
Si Si1 0.581354 0.082655 0.700250
Si Si2 0.319741 0.649863 0.349640
Si Si3 0.660983 0.184191 0.349640
Si Si4 0.082995 0.815234 0.038700
Si Si5 0.081354 0.917345 0.499029
Si Si6 0.917005 0.184764 0.660581
O O1 0.500000 0.097987 0.732069
O O2 0.639648 0.116852 0.764678
O O3 0.587902 0.117774 0.602560
O O4 0.589459 0.000000 0.698346
O O5 0.328760 0.732597 0.349639
O O6 0.234885 0.642045 0.349640
O O7 0.360352 0.616853 0.434602
O O8 0.620646 0.171777 0.443765
O O9 0.620646 0.171775 0.255516
O O10 0.110487 0.749999 0.099640
O O11 0.000000 0.799661 0.020217
O O12 0.087902 0.882227 0.596720
O O13 0.000000 0.902012 0.467210
O O14 0.089459 0.000000 0.500931
O O15 0.000000 0.200337 0.679063
#
# Coordination Sequence:
#
# PCOD9369188 Si02
#       6
#    16  16  16  16  16  16
#     4  10  21  39  63  90 118 153 203 255 296 341
#     4  11  22  36  55  87 122 157 191 245 300 351
#     4  11  23  37  55  88 123 155 192 242 296 359
#     4  10  20  37  62  87 116 154 199 247 294 349
#     4  10  21  39  63  90 118 153 203 255 296 341
#     4  10  20  37  62  87 116 154 199 247 294 349
#
# _framework density 17.902035999999999
#
# number of rings (size 3 to 8) (size 9 to 14) (size 15 to 20)
#    0.000    1.667    3.333    1.500    0.000    4.000 
#    0.000    5.833    0.000    4.000    0.000    0.000 
#    0.000    0.000    0.000    0.000    0.000    0.000 
#
# Total GULP energy -133875.948272 kJ/mol
# GULP energy per Si atom -5578.164511 kJ/mol
# Density = 1.786129 g / cm^3
# Si number density = 17.902036 Si / 1000 Ang^3
#
#
#
# Elastic Constant Matrix: (Units=GPa)
#
#
# Indices 1 2 3 4 5 6 
#
# 1 128.4022 52.7623 99.2115 0.0000 0.0000 0.0000
# 2 52.7623 74.3094 39.2639 0.0000 0.0000 0.0000
# 3 99.2115 39.2639 155.4912 0.0000 0.0000 0.0000
# 4 0.0000 0.0000 0.0000 54.4123 0.0000 0.0000
# 5 0.0000 0.0000 0.0000 0.0000 7.9504 0.0000
# 6 0.0000 0.0000 0.0000 0.0000 0.0000 27.4465
#
#
#
# Elastic Compliance Matrix: (Units=1/GPa)
#
#
# Indices 1 2 3 4 5 6 
#
# 1 0.018805 -0.008092 -0.009955 0.000000 0.000000 0.000000
# 2 -0.008092 0.019011 0.000363 0.000000 0.000000 0.000000
# 3 -0.009955 0.000363 0.012692 0.000000 0.000000 0.000000
# 4 0.000000 0.000000 0.000000 0.018378 0.000000 0.000000
# 5 0.000000 0.000000 0.000000 0.000000 0.125780 0.000000
# 6 0.000000 0.000000 0.000000 0.000000 0.000000 0.036435
#
#
# Mechanical properties :
#
#
# Convention : Reuss Voigt Hill
#
# Bulk Modulus (GPa) = 66.05689 82.29759 74.17724
# Shear Modulus (GPa) = 18.41505 29.09285 23.75395
#
# Velocity S-wave (km/s) = 3.21075 4.03564 3.64660
# Velocity P-wave (km/s) = 7.12211 8.23323 7.69774
#
# Compressibility (1/GPa) = 0.01513847
#
# Stress axis : x y z
#
# Youngs Moduli (GPa) = 53.17618 52.59998 78.79125
#
# Poissons Ratio (x) = 0.42565 0.78440
# Poissons Ratio (y) = 0.43031 -0.02857
# Poissons Ratio (z) = 0.52939 -0.01907
#
# Static dielectric constant tensor:
#      x y z
#    x 1.632850 0.000000 0.000000 
#    y 0.000000 1.599720 0.000000 
#    z 0.000000 0.000000 1.599540 
# 
# From -- ./inp_files/14008.got.cif
#   From: 2010.05.17/outbox.cif.g08.bks.cpg/sg42_8_cif.got.tgz:14008.got - 2010.06.03 19:03:34.
