data_PCOD9369844
_publ_section_title
;
Structure prediction by ZEFSAII (Michael W. Deem and Ramdas Pophale) SiO2 
 PCOD9369844
Probable space group: F M M 2
;
_chemical_formula_sum "Si O2"
_cell_formula_units_Z 112
_cell_length_a 19.351411
_cell_length_b 18.676097
_cell_length_c 14.108422
_cell_angle_alpha 90.000000
_cell_angle_beta 90.000000
_cell_angle_gamma 90.000000
_cell_volume 5098.908273
_symmetry_space_group_name_H-M "F M M 2"
_symmetry_group_IT_number 42
_symmetry_cell_setting 'orthorhombic'
loop_
_space_group_symop_operation_xyz
x,y,z
-x,-y,z
-x,y,z
x,-y,z
x,1/2+y,1/2+z
-x,1/2-y,1/2+z
-x,1/2+y,1/2+z
x,1/2-y,1/2+z
1/2+x,y,1/2+z
1/2-x,-y,1/2+z
1/2-x,y,1/2+z
1/2+x,-y,1/2+z
1/2+x,1/2+y,z
1/2-x,1/2-y,z
1/2-x,1/2+y,z
1/2+x,1/2-y,z
loop_
_atom_site_type_symbol
_atom_site_label
_atom_site_fract_x
_atom_site_fract_y
_atom_site_fract_z
Si Si1 0.711832 0.581783 0.443390
Si Si2 0.576586 0.372764 0.837953
Si Si3 0.689692 0.304178 0.583488
Si Si4 0.283684 0.419471 0.745091
Si Si5 0.632527 0.079648 0.517060
Si Si6 0.579254 0.231789 0.716039
Si Si7 0.583022 0.577705 0.231453
O O1 0.686840 0.500000 0.457753
O O2 0.669069 0.643178 0.497073
O O3 0.731173 0.592261 0.332746
O O4 0.786875 0.586812 0.494744
O O5 0.500000 0.402071 0.819626
O O6 0.639725 0.416159 0.791301
O O7 0.590785 0.368012 0.949611
O O8 0.581168 0.295187 0.791481
O O9 0.750000 0.250000 0.552901
O O10 0.717339 0.357357 0.667116
O O11 0.629760 0.256689 0.631670
O O12 0.271786 0.500000 0.706664
O O13 0.614742 0.082798 0.626415
O O14 0.611181 0.000000 0.484629
O O15 0.500000 0.225563 0.681188
O O16 0.598410 0.157280 0.767589
O O17 0.500000 0.574095 0.225794
O O18 0.604410 0.500000 0.272578
#
# Coordination Sequence:
#
# PCOD9369844 Si02
#       7
#    16  16  16  16  16  16  16
#     4   9  18  33  52  73 101 136 172 214 261 309
#     4   9  16  27  46  73 107 140 167 207 266 324
#     4  11  21  33  53  79 106 140 177 217 267 319
#     4   9  19  34  51  75 107 141 180 223 263 310
#     4   9  16  26  44  72 100 126 164 213 260 303
#     4   9  19  34  49  72 107 139 169 208 260 321
#     4   9  16  27  45  68  96 130 165 203 248 302
#
# _framework density 21.965487
#
# number of rings (size 3 to 8) (size 9 to 14) (size 15 to 20)
#    0.000    2.714    0.000    3.000    0.000    2.286 
#    0.000    2.143    0.000    1.286    0.000    0.000 
#    0.000    8.000    0.000   21.857    0.000    0.571 
#
# Total GULP energy -156249.696099 kJ/mol
# GULP energy per Si atom -5580.346289 kJ/mol
# Density = 2.191549 g / cm^3
# Si number density = 21.965487 Si / 1000 Ang^3
#
#
#
# Elastic Constant Matrix: (Units=GPa)
#
#
# Indices 1 2 3 4 5 6 
#
# 1 82.0516 29.8228 3.9692 0.0000 0.0000 0.0000
# 2 29.8228 134.6354 17.8028 0.0000 0.0000 0.0000
# 3 3.9692 17.8028 40.7808 0.0000 0.0000 0.0000
# 4 0.0000 0.0000 0.0000 44.5212 0.0000 0.0000
# 5 0.0000 0.0000 0.0000 0.0000 16.7149 0.0000
# 6 0.0000 0.0000 0.0000 0.0000 0.0000 25.2694
#
#
#
# Elastic Compliance Matrix: (Units=1/GPa)
#
#
# Indices 1 2 3 4 5 6 
#
# 1 0.013255 -0.002935 -0.000009 0.000000 0.000000 0.000000
# 2 -0.002935 0.008532 -0.003439 0.000000 0.000000 0.000000
# 3 -0.000009 -0.003439 0.026024 0.000000 0.000000 0.000000
# 4 0.000000 0.000000 0.000000 0.022461 0.000000 0.000000
# 5 0.000000 0.000000 0.000000 0.000000 0.059827 0.000000
# 6 0.000000 0.000000 0.000000 0.000000 0.000000 0.039574
#
#
# Mechanical properties :
#
#
# Convention : Reuss Voigt Hill
#
# Bulk Modulus (GPa) = 28.53491 40.07304 34.30397
# Shear Modulus (GPa) = 25.75738 31.02598 28.39168
#
# Velocity S-wave (km/s) = 3.42808 3.76239 3.59912
# Velocity P-wave (km/s) = 5.35612 6.09568 5.73783
#
# Compressibility (1/GPa) = 0.03504480
#
# Stress axis : x y z
#
# Youngs Moduli (GPa) = 75.44560 117.20161 38.42677
#
# Poissons Ratio (x) = 0.34397 0.00034
# Poissons Ratio (y) = 0.22142 0.13215
# Poissons Ratio (z) = 0.00067 0.40307
#
# Static dielectric constant tensor:
#      x y z
#    x 1.833720 0.000000 0.000000 
#    y 0.000000 1.778910 0.000000 
#    z 0.000000 0.000000 1.831830 
# 
# From -- ./inp_files/21788.got.cif
#   From: 2010.05.17/outbox.cif.g08.bks.cpg/sg42_11_cif.got.tgz:21788.got - 2010.06.03 19:03:34.
