data_PCOD9369984
_publ_section_title
;
Structure prediction by ZEFSAII (Michael W. Deem and Ramdas Pophale) SiO2 
 PCOD9369984
Probable space group: F M M 2
;
_chemical_formula_sum "Si O2"
_cell_formula_units_Z 68
_cell_length_a 16.334952
_cell_length_b 22.379176
_cell_length_c 8.438449
_cell_angle_alpha 90.000000
_cell_angle_beta 90.000000
_cell_angle_gamma 90.000000
_cell_volume 3084.782755
_symmetry_space_group_name_H-M "F M M 2"
_symmetry_group_IT_number 42
_symmetry_cell_setting 'orthorhombic'
loop_
_space_group_symop_operation_xyz
x,y,z
-x,-y,z
-x,y,z
x,-y,z
x,1/2+y,1/2+z
-x,1/2-y,1/2+z
-x,1/2+y,1/2+z
x,1/2-y,1/2+z
1/2+x,y,1/2+z
1/2-x,-y,1/2+z
1/2-x,y,1/2+z
1/2+x,-y,1/2+z
1/2+x,1/2+y,z
1/2-x,1/2-y,z
1/2-x,1/2+y,z
1/2+x,1/2-y,z
loop_
_atom_site_type_symbol
_atom_site_label
_atom_site_fract_x
_atom_site_fract_y
_atom_site_fract_z
Si Si1 0.326078 0.566940 0.849660
Si Si2 0.092488 0.675550 0.526112
Si Si3 0.000000 0.500000 0.906976
Si Si4 0.352665 0.591912 0.478553
Si Si5 0.339868 0.778631 0.847039
O O1 0.353284 0.500000 0.888129
O O2 0.342029 0.578786 0.664846
O O3 0.373630 0.614537 0.955253
O O4 0.230235 0.573387 0.887764
O O5 0.098642 0.725726 0.390788
O O6 0.148500 0.698738 0.668780
O O7 0.000000 0.668582 0.582948
O O8 0.928013 0.552724 0.916393
O O9 0.357985 0.663225 0.453114
O O10 0.250000 0.750000 0.868129
#
# Coordination Sequence:
#
# PCOD9369984 Si02
#       5
#    16  16   4  16  16
#     4  12  25  50  75 110 155 205 262 309 393 474
#     4  12  28  46  74 113 153 200 261 324 383 459
#     4  12  28  48  80 118 162 204 254 342 376 476
#     4  12  27  48  78 112 152 204 259 315 395 462
#     4  12  26  50  76 109 149 207 256 320 392 466
#
# _framework density 22.043690999999999
#
# number of rings (size 3 to 8) (size 9 to 14) (size 15 to 20)
#    0.000    0.000    4.706    4.235    4.941    0.471 
#    2.118    0.000    0.000    1.412    0.000    0.000 
#    0.000    0.000    0.000    0.000    0.000    0.000 
#
# Total GULP energy -94980.130616 kJ/mol
# GULP energy per Si atom -5587.066507 kJ/mol
# Density = 2.199352 g / cm^3
# Si number density = 22.043691 Si / 1000 Ang^3
#
#
#
# Elastic Constant Matrix: (Units=GPa)
#
#
# Indices 1 2 3 4 5 6 
#
# 1 121.1958 62.1301 -2.7729 0.0000 0.0000 0.0000
# 2 62.1301 229.4537 47.5980 0.0000 0.0000 0.0000
# 3 -2.7729 47.5980 43.3752 0.0000 0.0000 0.0000
# 4 0.0000 0.0000 0.0000 32.3921 0.0000 0.0000
# 5 0.0000 0.0000 0.0000 0.0000 7.7057 0.0000
# 6 0.0000 0.0000 0.0000 0.0000 0.0000 45.8658
#
#
#
# Elastic Compliance Matrix: (Units=1/GPa)
#
#
# Indices 1 2 3 4 5 6 
#
# 1 0.010304 -0.003789 0.004817 0.000000 0.000000 0.000000
# 2 -0.003789 0.007036 -0.007963 0.000000 0.000000 0.000000
# 3 0.004817 -0.007963 0.032101 0.000000 0.000000 0.000000
# 4 0.000000 0.000000 0.000000 0.030872 0.000000 0.000000
# 5 0.000000 0.000000 0.000000 0.000000 0.129774 0.000000
# 6 0.000000 0.000000 0.000000 0.000000 0.000000 0.021803
#
#
# Mechanical properties :
#
#
# Convention : Reuss Voigt Hill
#
# Bulk Modulus (GPa) = 28.11387 67.54834 47.83111
# Shear Modulus (GPa) = 19.40861 36.33069 27.86965
#
# Velocity S-wave (km/s) = 2.97048 4.06411 3.55955
# Velocity P-wave (km/s) = 4.95443 7.26169 6.21605
#
# Compressibility (1/GPa) = 0.03556963
#
# Stress axis : x y z
#
# Youngs Moduli (GPa) = 97.05130 142.12384 31.15151
#
# Poissons Ratio (x) = 0.53854 -0.15005
# Poissons Ratio (y) = 0.36775 0.24807
# Poissons Ratio (z) = -0.46748 1.13178
#
# Static dielectric constant tensor:
#      x y z
#    x 1.777170 0.000000 0.000000 
#    y 0.000000 1.807420 0.000000 
#    z 0.000000 0.000000 1.816190 
# 
# From -- ./inp_files/3287.got.cif
#   From: 2010.05.17/outbox.cif.g08.bks.cpg/sg42_2_cif.got.tgz:3287.got - 2010.06.03 19:03:34.
