data_PCOD9369470
_publ_section_title
;
Structure prediction by ZEFSAII (Michael W. Deem and Ramdas Pophale) SiO2 
 PCOD9369470
Probable space group: F M M 2
;
_chemical_formula_sum "Si O2"
_cell_formula_units_Z 96
_cell_length_a 22.266561
_cell_length_b 15.767932
_cell_length_c 13.059360
_cell_angle_alpha 90.000000
_cell_angle_beta 90.000000
_cell_angle_gamma 90.000000
_cell_volume 4585.110211
_symmetry_space_group_name_H-M "F M M 2"
_symmetry_group_IT_number 42
_symmetry_cell_setting 'orthorhombic'
loop_
_space_group_symop_operation_xyz
x,y,z
-x,-y,z
-x,y,z
x,-y,z
x,1/2+y,1/2+z
-x,1/2-y,1/2+z
-x,1/2+y,1/2+z
x,1/2-y,1/2+z
1/2+x,y,1/2+z
1/2-x,-y,1/2+z
1/2-x,y,1/2+z
1/2+x,-y,1/2+z
1/2+x,1/2+y,z
1/2-x,1/2-y,z
1/2-x,1/2+y,z
1/2+x,1/2-y,z
loop_
_atom_site_type_symbol
_atom_site_label
_atom_site_fract_x
_atom_site_fract_y
_atom_site_fract_z
Si Si1 0.072015 0.000000 0.855640
Si Si2 0.738684 0.099115 0.281718
Si Si3 0.642842 0.339567 0.188152
Si Si4 0.659630 0.098501 0.096117
Si Si5 0.927471 0.000000 0.098227
Si Si6 0.272443 0.340953 0.987989
Si Si7 0.428699 0.170192 0.218067
O O1 0.085662 0.912438 0.791325
O O2 0.090999 0.000000 0.976343
O O3 0.000000 0.000000 0.860928
O O4 0.804854 0.137635 0.269267
O O5 0.696468 0.135714 0.193387
O O6 0.705316 0.111553 0.388320
O O7 0.745347 0.000000 0.258800
O O8 0.600310 0.418114 0.155885
O O9 0.682130 0.327858 0.082209
O O10 0.604050 0.261117 0.231239
O O11 0.710629 0.110134 0.012923
O O12 0.596222 0.144271 0.104659
O O13 0.647682 0.000000 0.106048
O O14 0.000000 0.000000 0.102977
O O15 0.250000 0.250000 0.953584
O O16 0.500000 0.181157 0.221458
#
# Coordination Sequence:
#
# PCOD9369470 Si02
#       7
#     8  16  16  16   8  16  16
#     4   9  22  40  67  98 126 174 236 281 324 381
#     4  10  23  39  61  91 122 163 209 267 332 398
#     4  11  24  41  65  94 131 174 214 266 346 400
#     4  10  21  38  60  87 120 162 205 261 335 390
#     4  11  24  44  67  98 134 176 229 279 326 401
#     4  11  23  36  60  94 123 159 211 266 324 395
#     4  11  22  40  63  93 130 172 219 275 332 392
#
# _framework density 20.937336999999999
#
# number of rings (size 3 to 8) (size 9 to 14) (size 15 to 20)
#    0.000    1.500    3.333    1.000    7.000    0.000 
#    0.000    0.000    0.000    1.000    0.000    0.000 
#    0.000    0.000    0.000    0.000    0.000    0.000 
#
# Total GULP energy -133639.192244 kJ/mol
# GULP energy per Si atom -5568.299677 kJ/mol
# Density = 2.088968 g / cm^3
# Si number density = 20.937337 Si / 1000 Ang^3
#
#
#
# Elastic Constant Matrix: (Units=GPa)
#
#
# Indices 1 2 3 4 5 6 
#
# 1 119.3617 60.7882 25.5321 0.0000 0.0000 0.0000
# 2 60.7882 124.3703 14.8206 0.0000 0.0000 0.0000
# 3 25.5321 14.8206 74.4148 0.0000 0.0000 0.0000
# 4 0.0000 0.0000 0.0000 21.9377 0.0000 0.0000
# 5 0.0000 0.0000 0.0000 0.0000 25.9207 0.0000
# 6 0.0000 0.0000 0.0000 0.0000 0.0000 27.1456
#
#
#
# Elastic Compliance Matrix: (Units=1/GPa)
#
#
# Indices 1 2 3 4 5 6 
#
# 1 0.011758 -0.005394 -0.002960 0.000000 0.000000 0.000000
# 2 -0.005394 0.010711 -0.000282 0.000000 0.000000 0.000000
# 3 -0.002960 -0.000282 0.014510 0.000000 0.000000 0.000000
# 4 0.000000 0.000000 0.000000 0.045584 0.000000 0.000000
# 5 0.000000 0.000000 0.000000 0.000000 0.038579 0.000000
# 6 0.000000 0.000000 0.000000 0.000000 0.000000 0.036838
#
#
# Mechanical properties :
#
#
# Convention : Reuss Voigt Hill
#
# Bulk Modulus (GPa) = 50.74678 57.82540 54.28609
# Shear Modulus (GPa) = 27.49943 29.46788 28.48365
#
# Velocity S-wave (km/s) = 3.62804 3.75565 3.69239
# Velocity P-wave (km/s) = 6.46841 6.81797 6.64549
#
# Compressibility (1/GPa) = 0.01970568
#
# Stress axis : x y z
#
# Youngs Moduli (GPa) = 85.04665 93.36437 68.91800
#
# Poissons Ratio (x) = 0.50364 0.20399
# Poissons Ratio (y) = 0.45877 0.01946
# Poissons Ratio (z) = 0.25173 0.02636
#
# Static dielectric constant tensor:
#      x y z
#    x 1.818670 0.000000 0.000000 
#    y 0.000000 1.843240 0.000000 
#    z 0.000000 0.000000 1.825250 
# 
# From -- ./inp_files/10176.got.cif
#   From: 2010.05.17/outbox.cif.g08.bks.cpg/sg42_6_cif.got.tgz:10176.got - 2010.06.03 19:03:34.
