data_PCOD9369705
_publ_section_title
;
Structure prediction by ZEFSAII (Michael W. Deem and Ramdas Pophale) SiO2 
 PCOD9369705
Probable space group: F M M 2
;
_chemical_formula_sum "Si O2"
_cell_formula_units_Z 64
_cell_length_a 15.796430
_cell_length_b 15.827948
_cell_length_c 11.378330
_cell_angle_alpha 90.000000
_cell_angle_beta 90.000000
_cell_angle_gamma 90.000000
_cell_volume 2844.867785
_symmetry_space_group_name_H-M "F M M 2"
_symmetry_group_IT_number 42
_symmetry_cell_setting 'orthorhombic'
loop_
_space_group_symop_operation_xyz
x,y,z
-x,-y,z
-x,y,z
x,-y,z
x,1/2+y,1/2+z
-x,1/2-y,1/2+z
-x,1/2+y,1/2+z
x,1/2-y,1/2+z
1/2+x,y,1/2+z
1/2-x,-y,1/2+z
1/2-x,y,1/2+z
1/2+x,-y,1/2+z
1/2+x,1/2+y,z
1/2-x,1/2-y,z
1/2-x,1/2+y,z
1/2+x,1/2-y,z
loop_
_atom_site_type_symbol
_atom_site_label
_atom_site_fract_x
_atom_site_fract_y
_atom_site_fract_z
Si Si1 0.402324 0.096040 0.782830
Si Si2 0.500000 0.311745 0.629784
Si Si3 0.160230 0.897625 0.525177
Si Si4 0.643263 0.398344 0.028499
Si Si5 0.500000 0.806954 0.400120
O O1 0.500000 0.089007 0.815655
O O2 0.395445 0.131474 0.652889
O O3 0.367187 0.000000 0.772366
O O4 0.357827 0.136796 0.893448
O O5 0.587944 0.363950 0.612154
O O6 0.500000 0.256900 0.510079
O O7 0.500000 0.277757 0.764373
O O8 0.258246 0.876214 0.542988
O O9 0.152745 0.000000 0.524251
O O10 0.636309 0.500000 0.018036
O O11 0.585887 0.360145 0.925636
#
# Coordination Sequence:
#
# PCOD9369705 Si02
#       5
#    16   8  16  16   8
#     4   9  16  32  62  94 128 168 202 257 325 388
#     4  12  29  47  66  94 136 185 226 275 331 395
#     4  10  22  41  70 103 132 167 218 278 337 395
#     4  10  22  41  70 103 132 167 218 278 337 395
#     4  12  29  47  66  94 136 185 226 275 331 395
#
# _framework density 22.496651
#
# number of rings (size 3 to 8) (size 9 to 14) (size 15 to 20)
#    0.000    1.750    2.500    0.750    7.000    3.000 
#    0.000    2.500    0.000    0.000    0.000    0.000 
#    0.000    0.000    0.000    0.000    0.000    0.000 
#
# Total GULP energy -89244.495991 kJ/mol
# GULP energy per Si atom -5577.780999 kJ/mol
# Density = 2.244545 g / cm^3
# Si number density = 22.496651 Si / 1000 Ang^3
#
#
#
# Elastic Constant Matrix: (Units=GPa)
#
#
# Indices 1 2 3 4 5 6 
#
# 1 143.6881 39.3559 44.4388 0.0000 0.0000 0.0000
# 2 39.3559 50.4672 37.9063 0.0000 0.0000 0.0000
# 3 44.4388 37.9063 140.9915 0.0000 0.0000 0.0000
# 4 0.0000 0.0000 0.0000 31.2192 0.0000 0.0000
# 5 0.0000 0.0000 0.0000 0.0000 22.2639 0.0000
# 6 0.0000 0.0000 0.0000 0.0000 0.0000 9.4317
#
#
#
# Elastic Compliance Matrix: (Units=1/GPa)
#
#
# Indices 1 2 3 4 5 6 
#
# 1 0.009007 -0.006129 -0.001191 0.000000 0.000000 0.000000
# 2 -0.006129 0.029000 -0.005865 0.000000 0.000000 0.000000
# 3 -0.001191 -0.005865 0.009045 0.000000 0.000000 0.000000
# 4 0.000000 0.000000 0.000000 0.032032 0.000000 0.000000
# 5 0.000000 0.000000 0.000000 0.000000 0.044916 0.000000
# 6 0.000000 0.000000 0.000000 0.000000 0.000000 0.106026
#
#
# Mechanical properties :
#
#
# Convention : Reuss Voigt Hill
#
# Bulk Modulus (GPa) = 48.35306 64.28322 56.31814
# Shear Modulus (GPa) = 18.99061 26.81265 22.90163
#
# Velocity S-wave (km/s) = 2.90858 3.45606 3.19408
# Velocity P-wave (km/s) = 5.72887 6.67551 6.22022
#
# Compressibility (1/GPa) = 0.02068121
#
# Stress axis : x y z
#
# Youngs Moduli (GPa) = 111.02974 34.48309 110.56070
#
# Poissons Ratio (x) = 0.21135 0.13167
# Poissons Ratio (y) = 0.68051 0.64843
# Poissons Ratio (z) = 0.13223 0.20224
#
# Static dielectric constant tensor:
#      x y z
#    x 1.859200 0.000000 0.000000 
#    y 0.000000 1.923730 0.000000 
#    z 0.000000 0.000000 1.817390 
# 
# From -- ./inp_files/7512.got.cif
#   From: 2010.05.17/outbox.cif.g08.bks.cpg/sg42_4_cif.got.tgz:7512.got - 2010.06.03 19:03:34.
