data_PCOD9369706
_publ_section_title
;
Structure prediction by ZEFSAII (Michael W. Deem and Ramdas Pophale) SiO2 
 PCOD9369706
Probable space group: F M M 2
;
_chemical_formula_sum "Si O2"
_cell_formula_units_Z 64
_cell_length_a 27.113132
_cell_length_b 9.832531
_cell_length_c 10.405770
_cell_angle_alpha 90.000000
_cell_angle_beta 90.000000
_cell_angle_gamma 90.000000
_cell_volume 2774.081622
_symmetry_space_group_name_H-M "F M M 2"
_symmetry_group_IT_number 42
_symmetry_cell_setting 'orthorhombic'
loop_
_space_group_symop_operation_xyz
x,y,z
-x,-y,z
-x,y,z
x,-y,z
x,1/2+y,1/2+z
-x,1/2-y,1/2+z
-x,1/2+y,1/2+z
x,1/2-y,1/2+z
1/2+x,y,1/2+z
1/2-x,-y,1/2+z
1/2-x,y,1/2+z
1/2+x,-y,1/2+z
1/2+x,1/2+y,z
1/2-x,1/2-y,z
1/2-x,1/2+y,z
1/2+x,1/2-y,z
loop_
_atom_site_type_symbol
_atom_site_label
_atom_site_fract_x
_atom_site_fract_y
_atom_site_fract_z
Si Si1 0.814712 0.500000 0.838060
Si Si2 0.250000 0.750000 0.313852
Si Si3 0.364754 0.500000 0.061392
Si Si4 0.446065 0.201692 0.666322
Si Si5 0.571969 0.500000 0.384012
Si Si6 0.922733 0.500000 0.166506
Si Si7 0.682474 0.000000 0.272297
O O1 0.786133 0.637746 0.878720
O O2 0.825415 0.500000 0.681254
O O3 0.869130 0.500000 0.891496
O O4 0.286251 0.861656 0.248511
O O5 0.401503 0.630694 0.084682
O O6 0.337850 0.500000 0.922217
O O7 0.500000 0.183036 0.604489
O O8 0.438706 0.354485 0.713086
O O9 0.444747 0.123958 0.800011
O O10 0.554824 0.500000 0.525646
O O11 0.864159 0.500000 0.181464
#
# Coordination Sequence:
#
# PCOD9369706 Si02
#       7
#     8   8   8  16   8   8   8
#     4   9  20  41  61  91 123 174 220 275 340 391
#     4  10  22  42  62  92 136 166 236 278 328 416
#     4  10  22  41  70  93 139 182 222 281 347 396
#     4  10  23  44  69 101 136 181 230 277 335 406
#     4  10  23  46  67  90 139 184 216 283 340 400
#     4  12  26  42  71 102 136 178 228 277 343 405
#     4  11  24  44  63 102 133 180 228 282 343 404
#
# _framework density 23.070696000000002
#
# number of rings (size 3 to 8) (size 9 to 14) (size 15 to 20)
#    0.000    2.000    0.000    4.875    7.000    3.000 
#    9.000    1.250    0.000    0.000    0.000    0.000 
#    0.000    0.000    0.000    0.000    0.000    0.000 
#
# Total GULP energy -89128.079861 kJ/mol
# GULP energy per Si atom -5570.504991 kJ/mol
# Density = 2.301819 g / cm^3
# Si number density = 23.070696 Si / 1000 Ang^3
#
#
#
# Elastic Constant Matrix: (Units=GPa)
#
#
# Indices 1 2 3 4 5 6 
#
# 1 152.2086 57.6828 8.6288 0.0000 0.0000 0.0000
# 2 57.6828 248.8428 26.5772 0.0000 0.0000 0.0000
# 3 8.6288 26.5772 81.3450 0.0000 0.0000 0.0000
# 4 0.0000 0.0000 0.0000 -56.7632 0.0000 0.0000
# 5 0.0000 0.0000 0.0000 0.0000 -20.8164 0.0000
# 6 0.0000 0.0000 0.0000 0.0000 0.0000 28.5070
#
#
#
# Elastic Compliance Matrix: (Units=1/GPa)
#
#
# Indices 1 2 3 4 5 6 
#
# 1 0.007207 -0.001646 -0.000227 0.000000 0.000000 0.000000
# 2 -0.001646 0.004540 -0.001309 0.000000 0.000000 0.000000
# 3 -0.000227 -0.001309 0.012745 0.000000 0.000000 0.000000
# 4 0.000000 0.000000 0.000000 -0.017617 0.000000 0.000000
# 5 0.000000 0.000000 0.000000 0.000000 -0.048039 0.000000
# 6 0.000000 0.000000 0.000000 0.000000 0.000000 0.035079
#
#
# Mechanical properties :
#
#
# Convention : Reuss Voigt Hill
#
# Bulk Modulus (GPa) = 55.16191 74.24156 64.70173
# Shear Modulus (GPa) = 791.06376 16.15266 403.60821
#
# Velocity S-wave (km/s) = 18.53729 2.64888 13.24099
# Velocity P-wave (km/s) = 21.95761 6.45022 16.18243
#
# Compressibility (1/GPa) = 0.01812845
#
# Stress axis : x y z
#
# Youngs Moduli (GPa) = 138.75988 220.26423 78.46257
#
# Poissons Ratio (x) = 0.36263 0.01778
# Poissons Ratio (y) = 0.22845 0.10268
# Poissons Ratio (z) = 0.03144 0.28826
#
# Static dielectric constant tensor:
#      x y z
#    x 1.911540 0.000000 0.000000 
#    y 0.000000 2.099720 0.000000 
#    z 0.000000 0.000000 1.840250 
# 
# From -- ./inp_files/10892.got.cif
#   From: 2010.05.17/outbox.cif.g08.bks.cpg/sg42_6_cif.got.tgz:10892.got - 2010.06.03 19:03:34.
