data_PCOD9369016
_publ_section_title
;
Structure prediction by ZEFSAII (Michael W. Deem and Ramdas Pophale) SiO2 
 PCOD9369016
Probable space group: F M M 2
;
_chemical_formula_sum "Si O2"
_cell_formula_units_Z 112
_cell_length_a 29.526512
_cell_length_b 14.353481
_cell_length_c 14.007295
_cell_angle_alpha 90.000000
_cell_angle_beta 90.000000
_cell_angle_gamma 90.000000
_cell_volume 5936.406887
_symmetry_space_group_name_H-M "F M M 2"
_symmetry_group_IT_number 42
_symmetry_cell_setting 'orthorhombic'
loop_
_space_group_symop_operation_xyz
x,y,z
-x,-y,z
-x,y,z
x,-y,z
x,1/2+y,1/2+z
-x,1/2-y,1/2+z
-x,1/2+y,1/2+z
x,1/2-y,1/2+z
1/2+x,y,1/2+z
1/2-x,-y,1/2+z
1/2-x,y,1/2+z
1/2+x,-y,1/2+z
1/2+x,1/2+y,z
1/2-x,1/2-y,z
1/2-x,1/2+y,z
1/2+x,1/2-y,z
loop_
_atom_site_type_symbol
_atom_site_label
_atom_site_fract_x
_atom_site_fract_y
_atom_site_fract_z
Si Si1 0.821239 0.099872 0.812920
Si Si2 0.233582 0.853514 0.199945
Si Si3 0.673918 0.100411 0.526801
Si Si4 0.500000 0.888583 0.856025
Si Si5 0.000000 0.113710 0.132459
Si Si6 0.592437 0.213700 0.604933
Si Si7 0.089750 0.387189 0.976630
Si Si8 0.357758 0.696332 0.301233
O O1 0.777531 0.101535 0.745937
O O2 0.850674 0.192176 0.802143
O O3 0.845080 0.000000 0.800243
O O4 0.805391 0.106593 0.922326
O O5 0.250000 0.750000 0.176991
O O6 0.213072 0.894531 0.104357
O O7 0.190711 0.846686 0.270885
O O8 0.635056 0.175228 0.544609
O O9 0.650695 0.000000 0.536588
O O10 0.500000 0.857442 0.745653
O O11 0.543749 0.864487 0.918444
O O12 0.500000 0.000000 0.848349
O O13 0.954748 0.159913 0.087943
O O14 0.000000 0.000000 0.125038
O O15 0.589701 0.322146 0.571573
O O16 0.607162 0.186321 0.713246
O O17 0.093016 0.500000 0.992401
O O18 0.126784 0.350804 0.899593
#
# Coordination Sequence:
#
# PCOD9369016 Si02
#       8
#    16  16  16   8   8  16  16  16
#     4  10  20  37  57  80 116 157 195 244 302 357
#     4   9  20  35  55  81 112 152 196 247 294 352
#     4  10  20  35  58  84 115 153 193 241 299 355
#     4   9  19  36  60  88 116 152 198 243 289 347
#     4  11  21  36  63  94 120 156 199 245 300 355
#     4  11  22  38  61  91 123 152 196 250 298 355
#     4  11  22  39  62  89 120 159 201 245 297 357
#     4  10  21  38  58  85 118 154 196 247 300 358
#
# _framework density 18.866631000000002
#
# number of rings (size 3 to 8) (size 9 to 14) (size 15 to 20)
#    0.000    1.857    2.857    1.286    0.000    5.143 
#    2.571    0.000    0.000    0.000    0.000    0.000 
#    0.000    0.000    0.000    0.000    0.000    0.000 
#
# Total GULP energy -155901.852489 kJ/mol
# GULP energy per Si atom -5567.923303 kJ/mol
# Density = 1.882369 g / cm^3
# Si number density = 18.866631 Si / 1000 Ang^3
#
#
#
# Elastic Constant Matrix: (Units=GPa)
#
#
# Indices 1 2 3 4 5 6 
#
# 1 59.9120 20.8478 3.9787 0.0000 0.0000 0.0000
# 2 20.8478 95.0050 10.8494 0.0000 0.0000 0.0000
# 3 3.9787 10.8494 36.6248 0.0000 0.0000 0.0000
# 4 0.0000 0.0000 0.0000 19.0488 0.0000 0.0000
# 5 0.0000 0.0000 0.0000 0.0000 8.8053 0.0000
# 6 0.0000 0.0000 0.0000 0.0000 0.0000 46.3109
#
#
#
# Elastic Compliance Matrix: (Units=1/GPa)
#
#
# Indices 1 2 3 4 5 6 
#
# 1 0.018095 -0.003877 -0.000817 0.000000 0.000000 0.000000
# 2 -0.003877 0.011725 -0.003052 0.000000 0.000000 0.000000
# 3 -0.000817 -0.003052 0.028297 0.000000 0.000000 0.000000
# 4 0.000000 0.000000 0.000000 0.052497 0.000000 0.000000
# 5 0.000000 0.000000 0.000000 0.000000 0.113568 0.000000
# 6 0.000000 0.000000 0.000000 0.000000 0.000000 0.021593
#
#
# Mechanical properties :
#
#
# Convention : Reuss Voigt Hill
#
# Bulk Modulus (GPa) = 23.46127 29.21040 26.33583
# Shear Modulus (GPa) = 18.15045 25.22406 21.68726
#
# Velocity S-wave (km/s) = 3.10504 3.66042 3.39411
# Velocity P-wave (km/s) = 5.03164 5.77764 5.41749
#
# Compressibility (1/GPa) = 0.04262343
#
# Stress axis : x y z
#
# Youngs Moduli (GPa) = 55.26500 85.28666 35.33963
#
# Poissons Ratio (x) = 0.33069 0.02888
# Poissons Ratio (y) = 0.21428 0.10786
# Poissons Ratio (z) = 0.04516 0.26031
#
# Static dielectric constant tensor:
#      x y z
#    x 1.665910 0.000000 0.000000 
#    y 0.000000 1.674390 0.000000 
#    z 0.000000 0.000000 1.670340 
# 
# From -- ./inp_files/17089.got.cif
#   From: 2010.05.17/outbox.cif.g08.bks.cpg/sg42_9_cif.got.tgz:17089.got - 2010.06.03 19:03:34.
