data_PCOD9369627
_publ_section_title
;
Structure prediction by ZEFSAII (Michael W. Deem and Ramdas Pophale) SiO2 
 PCOD9369627
Probable space group: F M M 2
;
_chemical_formula_sum "Si O2"
_cell_formula_units_Z 100
_cell_length_a 21.583750
_cell_length_b 7.449572
_cell_length_c 30.169189
_cell_angle_alpha 90.000000
_cell_angle_beta 90.000000
_cell_angle_gamma 90.000000
_cell_volume 4850.894838
_symmetry_space_group_name_H-M "F M M 2"
_symmetry_group_IT_number 42
_symmetry_cell_setting 'orthorhombic'
loop_
_space_group_symop_operation_xyz
x,y,z
-x,-y,z
-x,y,z
x,-y,z
x,1/2+y,1/2+z
-x,1/2-y,1/2+z
-x,1/2+y,1/2+z
x,1/2-y,1/2+z
1/2+x,y,1/2+z
1/2-x,-y,1/2+z
1/2-x,y,1/2+z
1/2+x,-y,1/2+z
1/2+x,1/2+y,z
1/2-x,1/2-y,z
1/2-x,1/2+y,z
1/2+x,1/2-y,z
loop_
_atom_site_type_symbol
_atom_site_label
_atom_site_fract_x
_atom_site_fract_y
_atom_site_fract_z
Si Si1 0.321053 0.786173 0.464820
Si Si2 0.680018 0.287404 0.791677
Si Si3 0.889600 0.281208 0.377395
Si Si4 0.568476 0.214184 0.232363
Si Si5 0.321197 0.284674 0.065092
Si Si6 0.000000 0.500000 0.860082
Si Si7 0.069257 0.284105 0.628282
O O1 0.250000 0.750000 0.451979
O O2 0.367640 0.727291 0.426620
O O3 0.329877 0.714907 0.514785
O O4 0.328262 0.000000 0.467325
O O5 0.673716 0.500000 0.788813
O O6 0.750000 0.250000 0.778199
O O7 0.665237 0.240767 0.842411
O O8 0.625479 0.211438 0.760628
O O9 0.901393 0.500000 0.376226
O O10 0.946384 0.159385 0.362602
O O11 0.500000 0.287318 0.244363
O O12 0.578365 0.242786 0.180092
O O13 0.565564 0.000000 0.239445
O O14 0.327314 0.500000 0.063542
O O15 0.250000 0.250000 0.078737
O O16 0.374230 0.216725 0.098196
O O17 0.068285 0.500000 0.624302
O O18 0.000000 0.219244 0.615712
#
# Coordination Sequence:
#
# PCOD9369627 Si02
#       7
#    16  16  16  16  16   4  16
#     4   9  18  34  59  83 112 152 192 240 294 351
#     4  10  22  38  59  86 116 150 193 243 291 348
#     4  10  23  42  61  88 124 159 198 242 296 348
#     4   9  19  36  57  77 107 149 189 231 294 352
#     4   9  18  33  54  81 109 145 189 232 286 342
#     4  12  26  40  64  90 120 164 200 248 284 362
#     4   9  18  34  53  77 107 143 188 236 283 346
#
# _framework density 20.614753
#
# number of rings (size 3 to 8) (size 9 to 14) (size 15 to 20)
#    0.000    2.560    0.000    0.720    3.360    1.920 
#    1.440    3.200    0.000    0.000    0.000    0.000 
#    0.000    0.000    0.000    0.000    0.000    0.000 
#
# Total GULP energy -139188.888761 kJ/mol
# GULP energy per Si atom -5567.555550 kJ/mol
# Density = 2.056783 g / cm^3
# Si number density = 20.614753 Si / 1000 Ang^3
#
#
#
# Elastic Constant Matrix: (Units=GPa)
#
#
# Indices 1 2 3 4 5 6 
#
# 1 168.8242 14.7144 86.6188 -0.0001 0.0001 0.0008
# 2 14.7144 72.8602 7.0593 -0.0002 0.0002 0.0021
# 3 86.6188 7.0593 81.2796 0.0000 0.0000 -0.0002
# 4 -0.0001 -0.0002 0.0000 6.4310 0.0000 0.0001
# 5 0.0001 0.0002 0.0000 0.0000 -64.3694 -0.0001
# 6 0.0008 0.0021 -0.0002 0.0001 -0.0001 34.9123
#
#
#
# Elastic Compliance Matrix: (Units=1/GPa)
#
#
# Indices 1 2 3 4 5 6 
#
# 1 0.013193 -0.001313 -0.013945 0.000000 0.000000 0.000000
# 2 -0.001313 0.013972 0.000186 0.000000 0.000000 -0.000001
# 3 -0.013945 0.000186 0.027148 0.000000 0.000000 0.000000
# 4 0.000000 0.000000 0.000000 0.155497 0.000000 0.000000
# 5 0.000000 0.000000 0.000000 0.000000 -0.015535 0.000000
# 6 0.000000 -0.000001 0.000000 0.000000 0.000000 0.028643
#
#
# Mechanical properties :
#
#
# Convention : Reuss Voigt Hill
#
# Bulk Modulus (GPa) = 41.37673 59.97211 50.67442
# Shear Modulus (GPa) = 19.14833 9.69954 14.42393
#
# Velocity S-wave (km/s) = 3.05104 2.17149 2.64803
# Velocity P-wave (km/s) = 5.70322 5.95333 5.82962
#
# Compressibility (1/GPa) = 0.02416817
#
# Stress axis : x y z
#
# Youngs Moduli (GPa) = 75.79963 71.57117 36.83465
#
# Poissons Ratio (x) = 0.09399 0.51367
# Poissons Ratio (y) = 0.09954 -0.00685
# Poissons Ratio (z) = 1.05704 -0.01331
#
# Static dielectric constant tensor:
#      x y z
#    x 2.025650 0.000000 0.000000 
#    y 0.000000 1.804770 0.000000 
#    z 0.000000 0.000000 1.739270 
# 
# From -- ./inp_files/33854.got.cif
#   From: 2010.05.17/outbox.cif.g08.bks.cpg/sg42_17_cif.got.tgz:33854.got - 2010.06.03 19:03:34.
