data_PCOD9369011
_publ_section_title
;
Structure prediction by ZEFSAII (Michael W. Deem and Ramdas Pophale) SiO2 
 PCOD9369011
Probable space group: F M M 2
;
_chemical_formula_sum "Si O2"
_cell_formula_units_Z 100
_cell_length_a 30.574330
_cell_length_b 7.581733
_cell_length_c 20.601570
_cell_angle_alpha 90.000000
_cell_angle_beta 90.000000
_cell_angle_gamma 90.000000
_cell_volume 4775.575914
_symmetry_space_group_name_H-M "F M M 2"
_symmetry_group_IT_number 42
_symmetry_cell_setting 'orthorhombic'
loop_
_space_group_symop_operation_xyz
x,y,z
-x,-y,z
-x,y,z
x,-y,z
x,1/2+y,1/2+z
-x,1/2-y,1/2+z
-x,1/2+y,1/2+z
x,1/2-y,1/2+z
1/2+x,y,1/2+z
1/2-x,-y,1/2+z
1/2-x,y,1/2+z
1/2+x,-y,1/2+z
1/2+x,1/2+y,z
1/2-x,1/2-y,z
1/2-x,1/2+y,z
1/2+x,1/2-y,z
loop_
_atom_site_type_symbol
_atom_site_label
_atom_site_fract_x
_atom_site_fract_y
_atom_site_fract_z
Si Si1 0.199860 0.287779 0.107580
Si Si2 0.139167 0.710602 0.991799
Si Si3 0.929697 0.716218 0.284920
Si Si4 0.797845 0.291086 0.881250
Si Si5 0.548795 0.710756 0.934916
Si Si6 0.667859 0.206234 0.245050
Si Si7 0.000000 0.000000 0.241620
O O1 0.196613 0.500000 0.108509
O O2 0.250000 0.250000 0.089880
O O3 0.164505 0.221944 0.055126
O O4 0.188435 0.217358 0.179480
O O5 0.145079 0.500000 0.991679
O O6 0.164415 0.781342 0.928145
O O7 0.087735 0.741160 0.983513
O O8 0.935791 0.500000 0.277573
O O9 0.938313 0.759781 0.361085
O O10 0.880440 0.767216 0.265202
O O11 0.962319 0.841994 0.246034
O O12 0.802810 0.500000 0.877340
O O13 0.750000 0.250000 0.908471
O O14 0.802318 0.223453 0.808343
O O15 0.500000 0.780454 0.949255
O O16 0.546374 0.500000 0.935525
O O17 0.662192 0.000000 0.232312
#
# Coordination Sequence:
#
# PCOD9369011 Si02
#       7
#    16  16  16  16  16  16   4
#     4  10  22  41  61  85 115 159 204 246 305 371
#     4  10  22  37  58  85 116 151 200 250 296 365
#     4  10  21  36  57  92 126 161 204 259 309 370
#     4  11  22  34  54  85 118 149 192 246 302 365
#     4  10  20  35  57  85 120 155 195 243 305 364
#     4  10  21  38  60  83 119 157 196 249 307 363
#     4  12  22  32  64  90 128 164 210 244 318 374
#
# _framework density 20.939885
#
# number of rings (size 3 to 8) (size 9 to 14) (size 15 to 20)
#    0.000    1.760    2.400    1.680    2.240    3.520 
#    0.000    0.000    1.760    0.000    0.000    0.000 
#    0.000    0.000    0.000    0.000    0.000    0.000 
#
# Total GULP energy -139272.207017 kJ/mol
# GULP energy per Si atom -5570.888281 kJ/mol
# Density = 2.089222 g / cm^3
# Si number density = 20.939885 Si / 1000 Ang^3
#
#
#
# Elastic Constant Matrix: (Units=GPa)
#
#
# Indices 1 2 3 4 5 6 
#
# 1 165.9229 6.0455 50.8589 0.0000 0.0000 0.0000
# 2 6.0455 53.4070 3.5385 0.0001 0.0001 -0.0001
# 3 50.8589 3.5385 101.1807 0.0000 0.0000 0.0000
# 4 0.0000 0.0001 0.0000 -12.4033 0.0000 0.0000
# 5 0.0000 0.0001 0.0000 0.0000 -17.6669 -0.0001
# 6 0.0000 -0.0001 0.0000 0.0000 -0.0001 38.6018
#
#
#
# Elastic Compliance Matrix: (Units=1/GPa)
#
#
# Indices 1 2 3 4 5 6 
#
# 1 0.007142 -0.000572 -0.003570 0.000000 0.000000 0.000000
# 2 -0.000572 0.018813 -0.000370 0.000000 0.000000 0.000000
# 3 -0.003570 -0.000370 0.011691 0.000000 0.000000 0.000000
# 4 0.000000 0.000000 0.000000 -0.080624 0.000000 0.000000
# 5 0.000000 0.000000 0.000000 0.000000 -0.056603 0.000000
# 6 0.000000 0.000000 0.000000 0.000000 0.000000 0.025906
#
#
# Mechanical properties :
#
#
# Convention : Reuss Voigt Hill
#
# Bulk Modulus (GPa) = 34.93883 49.04405 41.99144
# Shear Modulus (GPa) = -90.72744 19.04417 -35.84164
#
# Velocity S-wave (km/s) = -6.58951 3.01901 -4.14169
# Velocity P-wave (km/s) = 6.41670 5.96865 1.66572
#
# Compressibility (1/GPa) = 0.02862145
#
# Stress axis : x y z
#
# Youngs Moduli (GPa) = 140.01678 53.15352 85.53799
#
# Poissons Ratio (x) = 0.03040 0.30537
# Poissons Ratio (y) = 0.08008 0.03169
# Poissons Ratio (z) = 0.49985 0.01969
#
# Static dielectric constant tensor:
#      x y z
#    x 1.769450 0.000000 0.000000 
#    y 0.000000 1.785290 0.000000 
#    z 0.000000 0.000000 1.762690 
# 
# From -- ./inp_files/23804.got.cif
#   From: 2010.05.17/outbox.cif.g08.bks.cpg/sg42_12_cif.got.tgz:23804.got - 2010.06.03 19:03:34.
