data_PCOD9369596
_publ_section_title
;
Structure prediction by ZEFSAII (Michael W. Deem and Ramdas Pophale) SiO2 
 PCOD9369596
Probable space group: F M M 2
;
_chemical_formula_sum "Si O2"
_cell_formula_units_Z 60
_cell_length_a 9.779524
_cell_length_b 19.024592
_cell_length_c 14.924869
_cell_angle_alpha 90.000000
_cell_angle_beta 90.000000
_cell_angle_gamma 90.000000
_cell_volume 2776.793579
_symmetry_space_group_name_H-M "F M M 2"
_symmetry_group_IT_number 42
_symmetry_cell_setting 'orthorhombic'
loop_
_space_group_symop_operation_xyz
x,y,z
-x,-y,z
-x,y,z
x,-y,z
x,1/2+y,1/2+z
-x,1/2-y,1/2+z
-x,1/2+y,1/2+z
x,1/2-y,1/2+z
1/2+x,y,1/2+z
1/2-x,-y,1/2+z
1/2-x,y,1/2+z
1/2+x,-y,1/2+z
1/2+x,1/2+y,z
1/2-x,1/2-y,z
1/2-x,1/2+y,z
1/2+x,1/2-y,z
loop_
_atom_site_type_symbol
_atom_site_label
_atom_site_fract_x
_atom_site_fract_y
_atom_site_fract_z
Si Si1 0.500000 0.150301 0.190570
Si Si2 0.267687 0.873828 0.805209
Si Si3 0.500000 0.919824 0.669731
Si Si4 0.161883 0.000000 0.419474
Si Si5 0.000000 0.500000 0.090377
Si Si6 0.000000 0.782835 0.050484
Si Si7 0.750000 0.250000 0.424368
O O1 0.368138 0.150100 0.254380
O O2 0.500000 0.215936 0.120402
O O3 0.500000 0.073496 0.142728
O O4 0.368753 0.905679 0.731999
O O5 0.258786 0.933537 0.880984
O O6 0.319649 0.806943 0.859774
O O7 0.500000 0.857346 0.599149
O O8 0.500000 0.000000 0.636658
O O9 0.000000 0.000000 0.386146
O O10 0.133079 0.000000 0.525168
O O11 0.866827 0.779493 0.988460
#
# Coordination Sequence:
#
# PCOD9369596 Si02
#       7
#     8  16   8   8   4   8   8
#     4  12  25  41  72 105 136 177 224 296 332 412
#     4  12  22  45  68 102 130 182 233 265 343 402
#     4  12  24  46  71  97 137 185 230 282 334 412
#     4  10  21  42  69  98 129 185 216 274 331 406
#     4  10  22  40  66 102 134 180 214 280 346 392
#     4  12  26  47  64 106 140 176 230 281 359 384
#     4  12  26  44  72  98 138 182 224 288 336 418
#
# _framework density 21.607655000000001
#
# number of rings (size 3 to 8) (size 9 to 14) (size 15 to 20)
#    0.400    0.000    2.667    7.200    0.000    0.000 
#    2.400    0.000    0.000    0.000    0.000    0.000 
#    0.000    0.000    0.000    0.000    0.000    0.000 
#
# Total GULP energy -83838.244887 kJ/mol
# GULP energy per Si atom -5589.216326 kJ/mol
# Density = 2.155848 g / cm^3
# Si number density = 21.607655 Si / 1000 Ang^3
#
#
#
# Elastic Constant Matrix: (Units=GPa)
#
#
# Indices 1 2 3 4 5 6 
#
# 1 78.5041 3.3385 21.0913 0.0000 0.0000 0.0000
# 2 3.3385 186.6802 65.6374 0.0000 0.0000 0.0000
# 3 21.0913 65.6374 99.4560 0.0000 0.0000 0.0000
# 4 0.0000 0.0000 0.0000 32.4651 0.0000 0.0000
# 5 0.0000 0.0000 0.0000 0.0000 51.0360 0.0000
# 6 0.0000 0.0000 0.0000 0.0000 0.0000 -54.9408
#
#
#
# Elastic Compliance Matrix: (Units=1/GPa)
#
#
# Indices 1 2 3 4 5 6 
#
# 1 0.013652 0.001008 -0.003560 0.000000 0.000000 0.000000
# 2 0.001008 0.007050 -0.004866 0.000000 0.000000 0.000000
# 3 -0.003560 -0.004866 0.014021 0.000000 0.000000 0.000000
# 4 0.000000 0.000000 0.000000 0.030802 0.000000 0.000000
# 5 0.000000 0.000000 0.000000 0.000000 0.019594 0.000000
# 6 0.000000 0.000000 0.000000 0.000000 0.000000 -0.018201
#
#
# Mechanical properties :
#
#
# Convention : Reuss Voigt Hill
#
# Bulk Modulus (GPa) = 50.28839 60.53052 55.40945
# Shear Modulus (GPa) = 56.57159 24.01692 40.29426
#
# Velocity S-wave (km/s) = 5.12231 3.33753 4.32303
# Velocity P-wave (km/s) = 7.63597 6.55183 7.11458
#
# Compressibility (1/GPa) = 0.01988530
#
# Stress axis : x y z
#
# Youngs Moduli (GPa) = 73.25036 141.84954 71.32049
#
# Poissons Ratio (x) = -0.14293 0.25391
# Poissons Ratio (y) = -0.07381 0.34706
# Poissons Ratio (z) = 0.26078 0.69027
#
# Static dielectric constant tensor:
#      x y z
#    x 1.770990 0.000000 0.000000 
#    y 0.000000 1.872600 0.000000 
#    z 0.000000 0.000000 1.782690 
# 
# From -- ./inp_files/17823.got.cif
#   From: 2010.05.17/outbox.cif.g08.bks.cpg/sg42_9_cif.got.tgz:17823.got - 2010.06.03 19:03:34.
