data_PCOD9369064
_publ_section_title
;
Structure prediction by ZEFSAII (Michael W. Deem and Ramdas Pophale) SiO2 
 PCOD9369064
Probable space group: F M M 2
;
_chemical_formula_sum "Si O2"
_cell_formula_units_Z 72
_cell_length_a 22.798338
_cell_length_b 12.591205
_cell_length_c 12.435360
_cell_angle_alpha 90.000000
_cell_angle_beta 90.000000
_cell_angle_gamma 90.000000
_cell_volume 3569.676378
_symmetry_space_group_name_H-M "F M M 2"
_symmetry_group_IT_number 42
_symmetry_cell_setting 'orthorhombic'
loop_
_space_group_symop_operation_xyz
x,y,z
-x,-y,z
-x,y,z
x,-y,z
x,1/2+y,1/2+z
-x,1/2-y,1/2+z
-x,1/2+y,1/2+z
x,1/2-y,1/2+z
1/2+x,y,1/2+z
1/2-x,-y,1/2+z
1/2-x,y,1/2+z
1/2+x,-y,1/2+z
1/2+x,1/2+y,z
1/2-x,1/2-y,z
1/2-x,1/2+y,z
1/2+x,1/2-y,z
loop_
_atom_site_type_symbol
_atom_site_label
_atom_site_fract_x
_atom_site_fract_y
_atom_site_fract_z
Si Si1 0.750000 0.750000 0.405591
Si Si2 0.349567 0.621283 0.287752
Si Si3 0.431845 0.186235 0.351585
Si Si4 0.931526 0.380263 0.110040
Si Si5 0.857057 0.178881 0.042282
O O1 0.710757 0.672335 0.332087
O O2 0.795149 0.689195 0.482936
O O3 0.356278 0.500000 0.323022
O O4 0.400202 0.700536 0.329749
O O5 0.351701 0.625800 0.158036
O O6 0.500000 0.200863 0.372878
O O7 0.425449 0.124409 0.239473
O O8 0.400701 0.131900 0.452873
O O9 0.920878 0.500000 0.072385
O O10 0.885947 0.294922 0.065278
O O11 0.000000 0.352257 0.086841
#
# Coordination Sequence:
#
# PCOD9369064 Si02
#       5
#     8  16  16  16  16
#     4  10  22  40  54  76 110 146 186 234 282 330
#     4  10  22  39  58  82 112 146 187 234 280 328
#     4   9  19  36  57  85 121 151 178 221 276 333
#     4   9  18  34  58  88 119 149 181 220 271 332
#     4  10  20  36  57  80 109 145 189 232 274 325
#
# _framework density 20.169896000000001
#
# number of rings (size 3 to 8) (size 9 to 14) (size 15 to 20)
#    0.000    2.444    0.000    1.333    0.000    6.667 
#    0.000   15.556    0.000    0.000    0.000    0.000 
#    0.000    0.000    0.000    0.000    0.000    0.000 
#
# Total GULP energy -100460.925546 kJ/mol
# GULP energy per Si atom -5581.162530 kJ/mol
# Density = 2.012399 g / cm^3
# Si number density = 20.169896 Si / 1000 Ang^3
#
#
#
# Elastic Constant Matrix: (Units=GPa)
#
#
# Indices 1 2 3 4 5 6 
#
# 1 124.5550 19.4963 32.6925 0.0000 0.0000 0.0000
# 2 19.4963 85.9717 -3.8066 0.0000 0.0000 0.0000
# 3 32.6925 -3.8066 121.7813 0.0000 0.0000 0.0000
# 4 0.0000 0.0000 0.0000 -4.9323 0.0000 0.0000
# 5 0.0000 0.0000 0.0000 0.0000 59.4008 0.0000
# 6 0.0000 0.0000 0.0000 0.0000 0.0000 8.9669
#
#
#
# Elastic Compliance Matrix: (Units=1/GPa)
#
#
# Indices 1 2 3 4 5 6 
#
# 1 0.009019 -0.002156 -0.002489 0.000000 0.000000 0.000000
# 2 -0.002156 0.012163 0.000959 0.000000 0.000000 0.000000
# 3 -0.002489 0.000959 0.008909 0.000000 0.000000 0.000000
# 4 0.000000 0.000000 0.000000 -0.202744 0.000000 0.000000
# 5 0.000000 0.000000 0.000000 0.000000 0.016835 0.000000
# 6 0.000000 0.000000 0.000000 0.000000 0.000000 0.111522
#
#
# Mechanical properties :
#
#
# Convention : Reuss Voigt Hill
#
# Bulk Modulus (GPa) = 44.01193 47.67472 45.84333
# Shear Modulus (GPa) = -170.35037 31.61544 -69.36746
#
# Velocity S-wave (km/s) = -9.20006 3.96341 -5.87080
# Velocity P-wave (km/s) = 9.53870 6.68077 4.81426
#
# Compressibility (1/GPa) = 0.02272111
#
# Stress axis : x y z
#
# Youngs Moduli (GPa) = 110.87489 82.21647 112.23992
#
# Poissons Ratio (x) = 0.17722 0.27932
# Poissons Ratio (y) = 0.23899 -0.10762
# Poissons Ratio (z) = 0.27592 -0.07883
#
# Static dielectric constant tensor:
#      x y z
#    x 1.672120 0.000000 0.000000 
#    y 0.000000 1.695920 0.000000 
#    z 0.000000 0.000000 1.744120 
# 
# From -- ./inp_files/12777.got.cif
#   From: 2010.05.17/outbox.cif.g08.bks.cpg/sg42_7_cif.got.tgz:12777.got - 2010.06.03 19:03:34.
