data_PCOD9369890
_publ_section_title
;
Structure prediction by ZEFSAII (Michael W. Deem and Ramdas Pophale) SiO2 
 PCOD9369890
Probable space group: F M M 2
;
_chemical_formula_sum "Si O2"
_cell_formula_units_Z 64
_cell_length_a 19.728447
_cell_length_b 15.466736
_cell_length_c 9.492675
_cell_angle_alpha 90.000000
_cell_angle_beta 90.000000
_cell_angle_gamma 90.000000
_cell_volume 2896.544362
_symmetry_space_group_name_H-M "F M M 2"
_symmetry_group_IT_number 42
_symmetry_cell_setting 'orthorhombic'
loop_
_space_group_symop_operation_xyz
x,y,z
-x,-y,z
-x,y,z
x,-y,z
x,1/2+y,1/2+z
-x,1/2-y,1/2+z
-x,1/2+y,1/2+z
x,1/2-y,1/2+z
1/2+x,y,1/2+z
1/2-x,-y,1/2+z
1/2-x,y,1/2+z
1/2+x,-y,1/2+z
1/2+x,1/2+y,z
1/2-x,1/2-y,z
1/2-x,1/2+y,z
1/2+x,1/2-y,z
loop_
_atom_site_type_symbol
_atom_site_label
_atom_site_fract_x
_atom_site_fract_y
_atom_site_fract_z
Si Si1 0.794948 0.665913 0.665710
Si Si2 0.080433 0.104344 0.006841
Si Si3 0.423053 0.394706 0.685916
Si Si4 0.689539 0.902333 0.971146
O O1 0.750000 0.750000 0.634596
O O2 0.871439 0.657451 0.610348
O O3 0.753278 0.595787 0.575707
O O4 0.794555 0.649969 0.831508
O O5 0.000000 0.119911 0.025841
O O6 0.090295 0.000000 0.023712
O O7 0.098463 0.128461 0.844798
O O8 0.500000 0.365691 0.662781
O O9 0.422986 0.500000 0.684619
O O10 0.372559 0.366888 0.563951
O O11 0.672598 0.000000 0.925760
#
# Coordination Sequence:
#
# PCOD9369890 Si02
#       4
#    16  16  16  16
#     4  12  25  40  58  90 131 166 204 260 327 381
#     4   9  18  37  67  99 129 165 215 271 323 382
#     4   8  16  33  60  94 125 153 198 266 328 370
#     4  11  22  38  62  88 120 167 220 264 305 372
#
# _framework density 22.095293999999999
#
# number of rings (size 3 to 8) (size 9 to 14) (size 15 to 20)
#    0.000    2.000    0.000    6.000    0.000    3.000 
#    0.000    5.000    0.000    4.500    0.000    0.000 
#    0.000    0.000    0.000    0.000    0.000    0.000 
#
# Total GULP energy -89418.987486 kJ/mol
# GULP energy per Si atom -5588.686718 kJ/mol
# Density = 2.204500 g / cm^3
# Si number density = 22.095294 Si / 1000 Ang^3
#
#
#
# Elastic Constant Matrix: (Units=GPa)
#
#
# Indices 1 2 3 4 5 6 
#
# 1 105.8335 28.3189 76.3008 0.0000 0.0000 0.0000
# 2 28.3189 74.4540 24.9037 0.0000 0.0000 0.0000
# 3 76.3008 24.9037 145.5832 0.0000 0.0000 0.0000
# 4 0.0000 0.0000 0.0000 20.2174 0.0000 0.0000
# 5 0.0000 0.0000 0.0000 0.0000 47.7702 0.0000
# 6 0.0000 0.0000 0.0000 0.0000 0.0000 28.2127
#
#
#
# Elastic Compliance Matrix: (Units=1/GPa)
#
#
# Indices 1 2 3 4 5 6 
#
# 1 0.015994 -0.003479 -0.007787 0.000000 0.000000 0.000000
# 2 -0.003479 0.015003 -0.000743 0.000000 0.000000 0.000000
# 3 -0.007787 -0.000743 0.011078 0.000000 0.000000 0.000000
# 4 0.000000 0.000000 0.000000 0.049462 0.000000 0.000000
# 5 0.000000 0.000000 0.000000 0.000000 0.020934 0.000000
# 6 0.000000 0.000000 0.000000 0.000000 0.000000 0.035445
#
#
# Mechanical properties :
#
#
# Convention : Reuss Voigt Hill
#
# Bulk Modulus (GPa) = 55.38424 64.99084 60.18754
# Shear Modulus (GPa) = 28.09740 32.32988 30.21364
#
# Velocity S-wave (km/s) = 3.56988 3.82933 3.70188
# Velocity P-wave (km/s) = 6.48942 7.00210 6.75063
#
# Compressibility (1/GPa) = 0.01805568
#
# Stress axis : x y z
#
# Youngs Moduli (GPa) = 62.52343 66.65414 90.27289
#
# Poissons Ratio (x) = 0.23186 0.70300
# Poissons Ratio (y) = 0.21749 0.06710
# Poissons Ratio (z) = 0.48690 0.04954
#
# Static dielectric constant tensor:
#      x y z
#    x 1.822790 0.000000 0.000000 
#    y 0.000000 1.856490 0.000000 
#    z 0.000000 0.000000 1.746760 
# 
# From -- ./inp_files/3225.got.cif
#   From: 2010.05.17/outbox.cif.g08.bks.cpg/sg42_2_cif.got.tgz:3225.got - 2010.06.03 19:03:34.
