data_PCOD9369937
_publ_section_title
;
Structure prediction by ZEFSAII (Michael W. Deem and Ramdas Pophale) SiO2 
 PCOD9369937
Probable space group: F M M 2
;
_chemical_formula_sum "Si O2"
_cell_formula_units_Z 72
_cell_length_a 8.171373
_cell_length_b 15.149671
_cell_length_c 24.974219
_cell_angle_alpha 90.000000
_cell_angle_beta 90.000000
_cell_angle_gamma 90.000000
_cell_volume 3091.648791
_symmetry_space_group_name_H-M "F M M 2"
_symmetry_group_IT_number 42
_symmetry_cell_setting 'orthorhombic'
loop_
_space_group_symop_operation_xyz
x,y,z
-x,-y,z
-x,y,z
x,-y,z
x,1/2+y,1/2+z
-x,1/2-y,1/2+z
-x,1/2+y,1/2+z
x,1/2-y,1/2+z
1/2+x,y,1/2+z
1/2-x,-y,1/2+z
1/2-x,y,1/2+z
1/2+x,-y,1/2+z
1/2+x,1/2+y,z
1/2-x,1/2-y,z
1/2-x,1/2+y,z
1/2+x,1/2-y,z
loop_
_atom_site_type_symbol
_atom_site_label
_atom_site_fract_x
_atom_site_fract_y
_atom_site_fract_z
Si Si1 0.685278 0.897610 0.645380
Si Si2 0.310534 0.345511 0.535776
Si Si3 0.694081 0.149064 0.261033
Si Si4 0.705087 0.500000 0.961795
Si Si5 0.692916 0.147143 0.877159
O O1 0.500000 0.861606 0.644776
O O2 0.790045 0.850582 0.599800
O O3 0.753838 0.893070 0.705221
O O4 0.681112 0.000000 0.630500
O O5 0.500000 0.360519 0.521277
O O6 0.250000 0.250000 0.517461
O O7 0.209034 0.422728 0.508157
O O8 0.500000 0.143032 0.268132
O O9 0.750000 0.250000 0.255619
O O10 0.777665 0.117776 0.315769
O O11 0.717527 0.421428 0.915981
O O12 0.500000 0.142807 0.889545
O O13 0.750000 0.250000 0.881657
#
# Coordination Sequence:
#
# PCOD9369937 Si02
#       5
#    16  16  16   8  16
#     4  11  24  43  68 101 136 176 223 277 339 406
#     4  12  25  46  71 101 137 180 227 280 339 402
#     4  11  23  42  67  99 135 176 221 274 336 403
#     4  12  27  46  71  98 135 182 231 282 341 400
#     4  11  23  44  69 100 136 180 227 279 338 401
#
# _framework density 23.288544999999999
#
# number of rings (size 3 to 8) (size 9 to 14) (size 15 to 20)
#    0.000    0.667    1.111    8.667    1.556    1.333 
#    0.000    9.444    0.000    0.000    0.000    0.000 
#    0.000    0.000    0.000    0.000    0.000    0.000 
#
# Total GULP energy -100251.333111 kJ/mol
# GULP energy per Si atom -5569.518506 kJ/mol
# Density = 2.323554 g / cm^3
# Si number density = 23.288545 Si / 1000 Ang^3
#
#
#
# Elastic Constant Matrix: (Units=GPa)
#
#
# Indices 1 2 3 4 5 6 
#
# 1 82.1998 -1.8795 2.3965 0.0000 0.0000 0.0000
# 2 -1.8795 145.3175 47.9003 0.0000 0.0000 0.0000
# 3 2.3965 47.9003 177.2860 0.0000 0.0000 0.0000
# 4 0.0000 0.0000 0.0000 91.5275 0.0000 0.0000
# 5 0.0000 0.0000 0.0000 0.0000-3245.8606 0.0000
# 6 0.0000 0.0000 0.0000 0.0000 0.0000 -5.9075
#
#
#
# Elastic Compliance Matrix: (Units=1/GPa)
#
#
# Indices 1 2 3 4 5 6 
#
# 1 0.012177 0.000232 -0.000227 0.000000 0.000000 0.000000
# 2 0.000232 0.007559 -0.002045 0.000000 0.000000 0.000000
# 3 -0.000227 -0.002045 0.006196 0.000000 0.000000 0.000000
# 4 0.000000 0.000000 0.000000 0.010926 0.000000 0.000000
# 5 0.000000 0.000000 0.000000 0.000000 -0.000308 0.000000
# 6 0.000000 0.000000 0.000000 0.000000 0.000000 -0.169277
#
#
# Mechanical properties :
#
#
# Convention : Reuss Voigt Hill
#
# Bulk Modulus (GPa) = 45.76300 55.73757 50.75028
# Shear Modulus (GPa) = -41.19885 -608.28904 -324.74394
#
# Velocity S-wave (km/s) = -4.21058 -16.17911 -11.82144
# Velocity P-wave (km/s) = 1.98635 18.02867 12.82533
#
# Compressibility (1/GPa) = 0.02185172
#
# Stress axis : x y z
#
# Youngs Moduli (GPa) = 82.11921 132.29775 161.38616
#
# Poissons Ratio (x) = -0.03075 0.03670
# Poissons Ratio (y) = -0.01909 0.33010
# Poissons Ratio (z) = 0.01868 0.27060
#
# Static dielectric constant tensor:
#      x y z
#    x 1.938970 0.000000 0.000000 
#    y 0.000000 1.825790 0.000000 
#    z 0.000000 0.000000 1.865900 
# 
# From -- ./inp_files/31086.got.cif
#   From: 2010.05.17/outbox.cif.g08.bks.cpg/sg42_16_cif.got.tgz:31086.got - 2010.06.03 19:03:34.
