data_PCOD9369280
_publ_section_title
;
Structure prediction by ZEFSAII (Michael W. Deem and Ramdas Pophale) SiO2 
 PCOD9369280
Probable space group: F M M 2
;
_chemical_formula_sum "Si O2"
_cell_formula_units_Z 120
_cell_length_a 25.955713
_cell_length_b 18.986679
_cell_length_c 12.401859
_cell_angle_alpha 90.000000
_cell_angle_beta 90.000000
_cell_angle_gamma 90.000000
_cell_volume 6111.794747
_symmetry_space_group_name_H-M "F M M 2"
_symmetry_group_IT_number 42
_symmetry_cell_setting 'orthorhombic'
loop_
_space_group_symop_operation_xyz
x,y,z
-x,-y,z
-x,y,z
x,-y,z
x,1/2+y,1/2+z
-x,1/2-y,1/2+z
-x,1/2+y,1/2+z
x,1/2-y,1/2+z
1/2+x,y,1/2+z
1/2-x,-y,1/2+z
1/2-x,y,1/2+z
1/2+x,-y,1/2+z
1/2+x,1/2+y,z
1/2-x,1/2-y,z
1/2-x,1/2+y,z
1/2+x,1/2-y,z
loop_
_atom_site_type_symbol
_atom_site_label
_atom_site_fract_x
_atom_site_fract_y
_atom_site_fract_z
Si Si1 0.330371 0.688107 0.231270
Si Si2 0.748847 0.165078 0.903724
Si Si3 0.592387 0.717327 0.425995
Si Si4 0.558123 0.122084 0.422265
Si Si5 0.000000 0.869713 0.323418
Si Si6 0.323482 0.826490 0.098365
Si Si7 0.588481 0.579147 0.155406
Si Si8 0.839754 0.582112 0.307286
O O1 0.285814 0.649020 0.298232
O O2 0.368714 0.719070 0.323442
O O3 0.310967 0.752738 0.158720
O O4 0.364441 0.633697 0.164156
O O5 0.750000 0.250000 0.902918
O O6 0.803052 0.127283 0.887284
O O7 0.719854 0.148052 0.014539
O O8 0.570290 0.795379 0.441140
O O9 0.545514 0.666034 0.398610
O O10 0.626005 0.690817 0.526747
O O11 0.500000 0.114383 0.381297
O O12 0.564501 0.085131 0.537174
O O13 0.601486 0.092252 0.343744
O O14 0.954814 0.900486 0.242077
O O15 0.332974 0.883876 0.189841
O O16 0.606521 0.500000 0.176141
O O17 0.825864 0.500000 0.310510
#
# Coordination Sequence:
#
# PCOD9369280 Si02
#       8
#    16  16  16  16   8  16  16  16
#     4  10  21  40  68  99 131 170 220 274 335 401
#     4  11  24  42  72 101 130 171 221 281 335 394
#     4  10  20  39  66 103 126 170 228 283 328 384
#     4  12  23  42  69  97 136 171 228 282 332 396
#     4  10  21  38  60  98 133 172 228 278 329 388
#     4  11  22  42  70 100 136 170 222 277 338 401
#     4  11  23  38  64  99 137 179 219 275 346 401
#     4  12  28  47  66  97 141 182 221 274 337 409
#
# _framework density 19.634167999999999
#
# number of rings (size 3 to 8) (size 9 to 14) (size 15 to 20)
#    0.000    1.067    5.333    1.400    1.867    1.867 
#    1.200    6.000    0.000    0.000    0.000    0.000 
#    0.000    0.000    0.000    0.000    0.000    0.000 
#
# Total GULP energy -167178.819744 kJ/mol
# GULP energy per Si atom -5572.627325 kJ/mol
# Density = 1.958948 g / cm^3
# Si number density = 19.634168 Si / 1000 Ang^3
#
#
#
# Elastic Constant Matrix: (Units=GPa)
#
#
# Indices 1 2 3 4 5 6 
#
# 1 126.8556 38.1092 48.1142 0.0000 0.0000 0.0000
# 2 38.1092 100.1105 39.4177 0.0000 0.0000 0.0000
# 3 48.1142 39.4177 103.5885 0.0000 0.0000 0.0000
# 4 0.0000 0.0000 0.0000 -3.3999 0.0000 0.0000
# 5 0.0000 0.0000 0.0000 0.0000 23.8795 0.0000
# 6 0.0000 0.0000 0.0000 0.0000 0.0000 5.6360
#
#
#
# Elastic Compliance Matrix: (Units=1/GPa)
#
#
# Indices 1 2 3 4 5 6 
#
# 1 0.010010 -0.002329 -0.003763 0.000000 0.000000 0.000000
# 2 -0.002329 0.012291 -0.003595 0.000000 0.000000 0.000000
# 3 -0.003763 -0.003595 0.012770 0.000000 0.000000 0.000000
# 4 0.000000 0.000000 0.000000 -0.294128 0.000000 0.000000
# 5 0.000000 0.000000 0.000000 0.000000 0.041877 0.000000
# 6 0.000000 0.000000 0.000000 0.000000 0.000000 0.177432
#
#
# Mechanical properties :
#
#
# Convention : Reuss Voigt Hill
#
# Bulk Modulus (GPa) = 63.71077 64.64854 64.17965
# Shear Modulus (GPa) = -330.21587 18.88402 -155.66593
#
# Velocity S-wave (km/s) = -12.98266 3.10464 -8.91377
# Velocity P-wave (km/s) = 13.86410 6.77125 8.55463
#
# Compressibility (1/GPa) = 0.01569593
#
# Stress axis : x y z
#
# Youngs Moduli (GPa) = 99.90127 81.35965 78.31093
#
# Poissons Ratio (x) = 0.18947 0.29470
# Poissons Ratio (y) = 0.23264 0.28156
# Poissons Ratio (z) = 0.37595 0.29252
#
# Static dielectric constant tensor:
#      x y z
#    x 1.709090 0.000000 0.000000 
#    y 0.000000 1.683580 0.000000 
#    z 0.000000 0.000000 1.686510 
# 
# From -- ./inp_files/10279.got.cif
#   From: 2010.05.17/outbox.cif.g08.bks.cpg/sg42_6_cif.got.tgz:10279.got - 2010.06.03 19:03:34.
