data_PCOD9369194
_publ_section_title
;
Structure prediction by ZEFSAII (Michael W. Deem and Ramdas Pophale) SiO2 
 PCOD9369194
Probable space group: F M M 2
;
_chemical_formula_sum "Si O2"
_cell_formula_units_Z 96
_cell_length_a 18.308995
_cell_length_b 27.946653
_cell_length_c 9.512421
_cell_angle_alpha 90.000000
_cell_angle_beta 90.000000
_cell_angle_gamma 90.000000
_cell_volume 4867.269252
_symmetry_space_group_name_H-M "F M M 2"
_symmetry_group_IT_number 42
_symmetry_cell_setting 'orthorhombic'
loop_
_space_group_symop_operation_xyz
x,y,z
-x,-y,z
-x,y,z
x,-y,z
x,1/2+y,1/2+z
-x,1/2-y,1/2+z
-x,1/2+y,1/2+z
x,1/2-y,1/2+z
1/2+x,y,1/2+z
1/2-x,-y,1/2+z
1/2-x,y,1/2+z
1/2+x,-y,1/2+z
1/2+x,1/2+y,z
1/2-x,1/2-y,z
1/2-x,1/2+y,z
1/2+x,1/2-y,z
loop_
_atom_site_type_symbol
_atom_site_label
_atom_site_fract_x
_atom_site_fract_y
_atom_site_fract_z
Si Si1 0.207371 0.946752 0.896780
Si Si2 0.155262 0.947477 0.205980
Si Si3 0.085895 0.220536 0.015817
Si Si4 0.815610 0.315086 0.004779
Si Si5 0.915896 0.351686 0.770396
Si Si6 0.673146 0.658300 0.826508
O O1 0.288688 0.943690 0.835052
O O2 0.167414 0.898829 0.845225
O O3 0.178974 0.000000 0.855362
O O4 0.203848 0.944810 0.065017
O O5 0.101247 0.903146 0.204417
O O6 0.119972 0.000000 0.209013
O O7 0.142692 0.264167 0.006522
O O8 0.101813 0.189509 0.156355
O O9 0.000000 0.234790 0.017615
O O10 0.102340 0.186157 0.883062
O O11 0.808466 0.330800 0.165545
O O12 0.868883 0.346969 0.910038
O O13 0.738610 0.321061 0.924812
O O14 0.000000 0.346707 0.805000
#
# Coordination Sequence:
#
# PCOD9369194 Si02
#       6
#    16  16  16  16  16  16
#     4  10  20  37  63  94 124 156 200 254 313 365
#     4  10  20  37  62  91 122 160 204 256 315 371
#     4  11  25  44  63  88 126 167 210 256 310 370
#     4  12  25  40  63  93 124 165 208 259 307 365
#     4  11  23  41  62  88 125 167 210 258 310 368
#     4  12  23  41  66  94 125 162 209 258 311 365
#
# _framework density 19.723586999999998
#
# number of rings (size 3 to 8) (size 9 to 14) (size 15 to 20)
#    0.000    1.000    3.333    4.000    0.000    4.333 
#    0.000    0.000    0.000    0.500    0.000    0.000 
#    0.000    0.000    0.000    0.000    0.000    0.000 
#
# Total GULP energy -134007.585421 kJ/mol
# GULP energy per Si atom -5583.649393 kJ/mol
# Density = 1.967869 g / cm^3
# Si number density = 19.723587 Si / 1000 Ang^3
#
#
#
# Elastic Constant Matrix: (Units=GPa)
#
#
# Indices 1 2 3 4 5 6 
#
# 1 41.3140 23.5161 35.0286 0.0000 0.0000 0.0000
# 2 23.5161 154.0696 30.5388 0.0000 0.0000 0.0000
# 3 35.0286 30.5388 119.6228 0.0000 0.0000 0.0000
# 4 0.0000 0.0000 0.0000 26.1861 0.0000 0.0000
# 5 0.0000 0.0000 0.0000 0.0000 24.1086 0.0000
# 6 0.0000 0.0000 0.0000 0.0000 0.0000 -2.3528
#
#
#
# Elastic Compliance Matrix: (Units=1/GPa)
#
#
# Indices 1 2 3 4 5 6 
#
# 1 0.033778 -0.003365 -0.009032 0.000000 0.000000 0.000000
# 2 -0.003365 0.007172 -0.000845 0.000000 0.000000 0.000000
# 3 -0.009032 -0.000845 0.011220 0.000000 0.000000 0.000000
# 4 0.000000 0.000000 0.000000 0.038188 0.000000 0.000000
# 5 0.000000 0.000000 0.000000 0.000000 0.041479 0.000000
# 6 0.000000 0.000000 0.000000 0.000000 0.000000 -0.425021
#
#
# Mechanical properties :
#
#
# Convention : Reuss Voigt Hill
#
# Bulk Modulus (GPa) = 38.93367 54.79706 46.86537
# Shear Modulus (GPa) = -19.36965 24.64989 2.64012
#
# Velocity S-wave (km/s) = -3.13718 3.53904 1.15822
# Velocity P-wave (km/s) = 2.58070 6.67402 5.05977
#
# Compressibility (1/GPa) = 0.02568471
#
# Stress axis : x y z
#
# Youngs Moduli (GPa) = 29.60477 139.43453 89.12462
#
# Poissons Ratio (x) = 0.46926 0.80497
# Poissons Ratio (y) = 0.09963 0.07535
# Poissons Ratio (z) = 0.26739 0.11788
#
# Static dielectric constant tensor:
#      x y z
#    x 1.679210 0.000000 0.000000 
#    y 0.000000 1.755210 0.000000 
#    z 0.000000 0.000000 1.682880 
# 
# From -- ./inp_files/4148.got.cif
#   From: 2010.05.17/outbox.cif.g08.bks.cpg/sg42_3_cif.got.tgz:4148.got - 2010.06.03 19:03:34.
