data_PCOD9369670
_publ_section_title
;
Structure prediction by ZEFSAII (Michael W. Deem and Ramdas Pophale) SiO2 
 PCOD9369670
Probable space group: F M M 2
;
_chemical_formula_sum "Si O2"
_cell_formula_units_Z 112
_cell_length_a 15.922157
_cell_length_b 23.568107
_cell_length_c 14.295700
_cell_angle_alpha 90.000000
_cell_angle_beta 90.000000
_cell_angle_gamma 90.000000
_cell_volume 5364.534331
_symmetry_space_group_name_H-M "F M M 2"
_symmetry_group_IT_number 42
_symmetry_cell_setting 'orthorhombic'
loop_
_space_group_symop_operation_xyz
x,y,z
-x,-y,z
-x,y,z
x,-y,z
x,1/2+y,1/2+z
-x,1/2-y,1/2+z
-x,1/2+y,1/2+z
x,1/2-y,1/2+z
1/2+x,y,1/2+z
1/2-x,-y,1/2+z
1/2-x,y,1/2+z
1/2+x,-y,1/2+z
1/2+x,1/2+y,z
1/2-x,1/2-y,z
1/2-x,1/2+y,z
1/2+x,1/2-y,z
loop_
_atom_site_type_symbol
_atom_site_label
_atom_site_fract_x
_atom_site_fract_y
_atom_site_fract_z
Si Si1 0.098441 0.609515 0.766740
Si Si2 0.148628 0.327623 0.336412
Si Si3 0.806594 0.129189 0.440464
Si Si4 0.739714 0.433484 0.121085
Si Si5 0.902486 0.758587 0.497026
Si Si6 0.407837 0.935454 0.243602
Si Si7 0.402332 0.262819 0.203680
O O1 0.130030 0.594845 0.872019
O O2 0.162672 0.586977 0.687172
O O3 0.102903 0.678143 0.757896
O O4 0.000000 0.593731 0.752319
O O5 0.239028 0.347062 0.368012
O O6 0.112711 0.286141 0.415168
O O7 0.097383 0.384872 0.317898
O O8 0.151171 0.288195 0.245286
O O9 0.756722 0.096840 0.522142
O O10 0.851612 0.183785 0.484442
O O11 0.727058 0.500000 0.104264
O O12 0.827804 0.426484 0.177220
O O13 0.881209 0.729270 0.595394
O O14 0.000000 0.773966 0.497334
O O15 0.500000 0.931565 0.196668
O O16 0.400877 0.000000 0.281476
O O17 0.500000 0.244086 0.210679
#
# Coordination Sequence:
#
# PCOD9369670 Si02
#       7
#    16  16  16  16  16  16  16
#     4  11  24  46  73 104 143 187 236 296 364 432
#     4  12  22  39  62  99 138 180 224 278 345 419
#     4  12  25  40  66 103 137 180 234 297 348 424
#     4  11  26  48  72 100 138 181 234 297 362 429
#     4  11  23  39  63  98 138 181 228 281 349 425
#     4  10  22  42  69  98 132 178 230 286 348 412
#     4  10  22  40  64  94 135 179 223 279 344 417
#
# _framework density 20.877859999999998
#
# number of rings (size 3 to 8) (size 9 to 14) (size 15 to 20)
#    0.000    1.000    2.857    3.857    0.000    3.714 
#    0.000    1.429    0.000    0.000    0.000    0.000 
#    0.000    0.000    0.000    0.000    0.000    0.000 
#
# Total GULP energy -156419.883377 kJ/mol
# GULP energy per Si atom -5586.424406 kJ/mol
# Density = 2.083034 g / cm^3
# Si number density = 20.877860 Si / 1000 Ang^3
#
#
#
# Elastic Constant Matrix: (Units=GPa)
#
#
# Indices 1 2 3 4 5 6 
#
# 1 126.0340 27.3719 26.8381 0.0000 0.0000 0.0000
# 2 27.3719 83.1805 28.3244 0.0000 0.0000 0.0000
# 3 26.8381 28.3244 82.2568 0.0000 0.0000 0.0000
# 4 0.0000 0.0000 0.0000 26.3802 0.0000 0.0000
# 5 0.0000 0.0000 0.0000 0.0000 22.5000 0.0000
# 6 0.0000 0.0000 0.0000 0.0000 0.0000 43.2930
#
#
#
# Elastic Compliance Matrix: (Units=1/GPa)
#
#
# Indices 1 2 3 4 5 6 
#
# 1 0.008865 -0.002189 -0.002139 0.000000 0.000000 0.000000
# 2 -0.002189 0.014159 -0.004161 0.000000 0.000000 0.000000
# 3 -0.002139 -0.004161 0.014288 0.000000 0.000000 0.000000
# 4 0.000000 0.000000 0.000000 0.037907 0.000000 0.000000
# 5 0.000000 0.000000 0.000000 0.000000 0.044444 0.000000
# 6 0.000000 0.000000 0.000000 0.000000 0.000000 0.023098
#
#
# Mechanical properties :
#
#
# Convention : Reuss Voigt Hill
#
# Bulk Modulus (GPa) = 49.17844 50.72669 49.95257
# Shear Modulus (GPa) = 30.02665 32.36379 31.19522
#
# Velocity S-wave (km/s) = 3.79648 3.94146 3.86965
# Velocity P-wave (km/s) = 6.54402 6.71291 6.62900
#
# Compressibility (1/GPa) = 0.02033412
#
# Stress axis : x y z
#
# Youngs Moduli (GPa) = 112.80081 70.62441 69.98973
#
# Poissons Ratio (x) = 0.15459 0.14969
# Poissons Ratio (y) = 0.24692 0.29126
# Poissons Ratio (z) = 0.24125 0.29390
#
# Static dielectric constant tensor:
#      x y z
#    x 1.784630 0.000000 0.000000 
#    y 0.000000 1.781080 0.000000 
#    z 0.000000 0.000000 1.773670 
# 
# From -- ./inp_files/14261.got.cif
#   From: 2010.05.17/outbox.cif.g08.bks.cpg/sg42_8_cif.got.tgz:14261.got - 2010.06.03 19:03:34.
