data_PCOD9369427
_publ_section_title
;
Structure prediction by ZEFSAII (Michael W. Deem and Ramdas Pophale) SiO2 
 PCOD9369427
Probable space group: F M M 2
;
_chemical_formula_sum "Si O2"
_cell_formula_units_Z 96
_cell_length_a 18.443448
_cell_length_b 26.930105
_cell_length_c 9.895662
_cell_angle_alpha 90.000000
_cell_angle_beta 90.000000
_cell_angle_gamma 90.000000
_cell_volume 4915.016898
_symmetry_space_group_name_H-M "F M M 2"
_symmetry_group_IT_number 42
_symmetry_cell_setting 'orthorhombic'
loop_
_space_group_symop_operation_xyz
x,y,z
-x,-y,z
-x,y,z
x,-y,z
x,1/2+y,1/2+z
-x,1/2-y,1/2+z
-x,1/2+y,1/2+z
x,1/2-y,1/2+z
1/2+x,y,1/2+z
1/2-x,-y,1/2+z
1/2-x,y,1/2+z
1/2+x,-y,1/2+z
1/2+x,1/2+y,z
1/2-x,1/2-y,z
1/2-x,1/2+y,z
1/2+x,1/2-y,z
loop_
_atom_site_type_symbol
_atom_site_label
_atom_site_fract_x
_atom_site_fract_y
_atom_site_fract_z
Si Si1 0.914754 0.253224 0.244870
Si Si2 0.177488 0.216477 0.004901
Si Si3 0.421822 0.345314 0.545018
Si Si4 0.076759 0.055483 0.714104
Si Si5 0.225444 0.123888 0.450548
Si Si6 0.735514 0.057647 0.218016
O O1 0.867789 0.218125 0.144878
O O2 0.875064 0.262359 0.387398
O O3 0.913788 0.306155 0.166092
O O4 0.000000 0.239847 0.255958
O O5 0.250000 0.250000 0.021899
O O6 0.208258 0.162675 0.960775
O O7 0.500000 0.335861 0.478691
O O8 0.424561 0.400504 0.607050
O O9 0.348483 0.344736 0.461968
O O10 0.154287 0.059608 0.784119
O O11 0.000000 0.059104 0.791761
O O12 0.078425 0.000000 0.651996
O O13 0.218937 0.091746 0.316285
O O14 0.231611 0.085005 0.574340
O O15 0.756650 0.000000 0.207243
#
# Coordination Sequence:
#
# PCOD9369427 Si02
#       6
#    16  16  16  16  16  16
#     4  11  24  42  61  87 124 169 211 260 313 373
#     4  12  24  38  63  91 126 163 210 258 309 369
#     4   9  18  34  55  81 113 152 199 248 301 364
#     4   8  14  27  50  78 106 138 184 240 294 351
#     4  11  22  37  61  88 120 158 204 252 315 369
#     4  10  21  37  59  89 120 155 198 253 311 375
#
# _framework density 19.531977999999999
#
# number of rings (size 3 to 8) (size 9 to 14) (size 15 to 20)
#    0.000    1.833    1.667    3.500    2.333    0.667 
#    0.000    0.833    0.000    1.000    0.000    0.000 
#    0.000    0.000    0.000    0.000    0.000    0.000 
#
# Total GULP energy -133701.805388 kJ/mol
# GULP energy per Si atom -5570.908558 kJ/mol
# Density = 1.948752 g / cm^3
# Si number density = 19.531978 Si / 1000 Ang^3
#
#
#
# Elastic Constant Matrix: (Units=GPa)
#
#
# Indices 1 2 3 4 5 6 
#
# 1 102.7373 10.4936 15.0598 0.0000 0.0000 0.0000
# 2 10.4936 98.8309 3.2463 0.0000 0.0000 0.0000
# 3 15.0598 3.2463 51.7177 0.0000 0.0000 0.0000
# 4 0.0000 0.0000 0.0000 22.7221 0.0000 0.0000
# 5 0.0000 0.0000 0.0000 0.0000 19.2327 0.0000
# 6 0.0000 0.0000 0.0000 0.0000 0.0000 11.7972
#
#
#
# Elastic Compliance Matrix: (Units=1/GPa)
#
#
# Indices 1 2 3 4 5 6 
#
# 1 0.010264 -0.000994 -0.002926 0.000000 0.000000 0.000000
# 2 -0.000994 0.010235 -0.000353 0.000000 0.000000 0.000000
# 3 -0.002926 -0.000353 0.020210 0.000000 0.000000 0.000000
# 4 0.000000 0.000000 0.000000 0.044010 0.000000 0.000000
# 5 0.000000 0.000000 0.000000 0.000000 0.051995 0.000000
# 6 0.000000 0.000000 0.000000 0.000000 0.000000 0.084766
#
#
# Mechanical properties :
#
#
# Convention : Reuss Voigt Hill
#
# Bulk Modulus (GPa) = 31.09162 34.54282 32.81722
# Shear Modulus (GPa) = 20.76866 25.71614 23.24240
#
# Velocity S-wave (km/s) = 3.26439 3.63246 3.45333
# Velocity P-wave (km/s) = 5.49192 5.94278 5.72179
#
# Compressibility (1/GPa) = 0.03216301
#
# Stress axis : x y z
#
# Youngs Moduli (GPa) = 97.42758 97.70015 49.48031
#
# Poissons Ratio (x) = 0.09708 0.14480
# Poissons Ratio (y) = 0.09681 0.01747
# Poissons Ratio (z) = 0.28511 0.03450
#
# Static dielectric constant tensor:
#      x y z
#    x 1.757680 0.000000 0.000000 
#    y 0.000000 1.696400 0.000000 
#    z 0.000000 0.000000 1.663180 
# 
# From -- ./inp_files/5180.got.cif
#   From: 2010.05.17/outbox.cif.g08.bks.cpg/sg42_3_cif.got.tgz:5180.got - 2010.06.03 19:03:34.
