data_PCOD9369829
_publ_section_title
;
Structure prediction by ZEFSAII (Michael W. Deem and Ramdas Pophale) SiO2 
 PCOD9369829
Probable space group: F M M 2
;
_chemical_formula_sum "Si O2"
_cell_formula_units_Z 112
_cell_length_a 14.142605
_cell_length_b 27.885981
_cell_length_c 15.336718
_cell_angle_alpha 90.000000
_cell_angle_beta 90.000000
_cell_angle_gamma 90.000000
_cell_volume 6048.501199
_symmetry_space_group_name_H-M "F M M 2"
_symmetry_group_IT_number 42
_symmetry_cell_setting 'orthorhombic'
loop_
_space_group_symop_operation_xyz
x,y,z
-x,-y,z
-x,y,z
x,-y,z
x,1/2+y,1/2+z
-x,1/2-y,1/2+z
-x,1/2+y,1/2+z
x,1/2-y,1/2+z
1/2+x,y,1/2+z
1/2-x,-y,1/2+z
1/2-x,y,1/2+z
1/2+x,-y,1/2+z
1/2+x,1/2+y,z
1/2-x,1/2-y,z
1/2-x,1/2+y,z
1/2+x,1/2-y,z
loop_
_atom_site_type_symbol
_atom_site_label
_atom_site_fract_x
_atom_site_fract_y
_atom_site_fract_z
Si Si1 0.755119 0.859147 0.292610
Si Si2 0.357416 0.268384 0.323188
Si Si3 0.612414 0.947811 0.558122
Si Si4 0.100636 0.311898 0.184707
Si Si5 0.110209 0.444207 0.766830
Si Si6 0.610236 0.145563 0.453935
Si Si7 0.362721 0.250952 0.015824
O O1 0.842953 0.821984 0.290007
O O2 0.688509 0.846121 0.209593
O O3 0.806216 0.910160 0.301013
O O4 0.683706 0.849059 0.373883
O O5 0.250000 0.250000 0.329787
O O6 0.400496 0.231099 0.255923
O O7 0.395656 0.266922 0.420786
O O8 0.500000 0.949853 0.541365
O O9 0.621486 0.941957 0.661772
O O10 0.644145 0.901054 0.506628
O O11 0.653117 0.000000 0.532902
O O12 0.000000 0.338046 0.189490
O O13 0.107037 0.283783 0.093410
O O14 0.121127 0.500000 0.792635
O O15 0.000000 0.430473 0.786725
O O16 0.500000 0.140093 0.424456
O O17 0.611119 0.192813 0.515006
O O18 0.250000 0.250000 0.019349
#
# Coordination Sequence:
#
# PCOD9369829 Si02
#       7
#    16  16  16  16  16  16  16
#     4  11  21  36  56  82 114 149 188 237 284 341
#     4   9  19  36  50  74 108 151 192 236 269 320
#     4   8  17  34  55  81 107 134 181 239 285 332
#     4  11  23  35  53  80 115 157 193 227 279 343
#     4   9  20  39  61  86 111 138 185 243 293 344
#     4  11  21  34  56  82 115 152 187 233 290 340
#     4  11  20  36  55  76 115 156 198 238 279 332
#
# _framework density 18.516984000000001
#
# number of rings (size 3 to 8) (size 9 to 14) (size 15 to 20)
#    0.000    2.000    4.286    3.000    4.000    1.714 
#    0.000    0.000    0.000    1.286    0.000    0.000 
#    0.000    0.000    0.000    0.000    0.000    0.000 
#
# Total GULP energy -155890.931056 kJ/mol
# GULP energy per Si atom -5567.533252 kJ/mol
# Density = 1.847484 g / cm^3
# Si number density = 18.516984 Si / 1000 Ang^3
#
#
#
# Elastic Constant Matrix: (Units=GPa)
#
#
# Indices 1 2 3 4 5 6 
#
# 1 92.3867 30.2934 9.8072 0.0000 0.0000 0.0000
# 2 30.2934 70.6432 -6.3892 0.0000 0.0000 0.0000
# 3 9.8072 -6.3892 39.8308 0.0000 0.0000 0.0000
# 4 0.0000 0.0000 0.0000 24.4019 0.0000 0.0000
# 5 0.0000 0.0000 0.0000 0.0000 3.3021 0.0000
# 6 0.0000 0.0000 0.0000 0.0000 0.0000 25.6713
#
#
#
# Elastic Compliance Matrix: (Units=1/GPa)
#
#
# Indices 1 2 3 4 5 6 
#
# 1 0.013265 -0.006072 -0.004240 0.000000 0.000000 0.000000
# 2 -0.006072 0.017143 0.004245 0.000000 0.000000 0.000000
# 3 -0.004240 0.004245 0.026831 0.000000 0.000000 0.000000
# 4 0.000000 0.000000 0.000000 0.040980 0.000000 0.000000
# 5 0.000000 0.000000 0.000000 0.000000 0.302841 0.000000
# 6 0.000000 0.000000 0.000000 0.000000 0.000000 0.038954
#
#
# Mechanical properties :
#
#
# Convention : Reuss Voigt Hill
#
# Bulk Modulus (GPa) = 22.17025 30.03148 26.10087
# Shear Modulus (GPa) = 10.70242 21.95167 16.32704
#
# Velocity S-wave (km/s) = 2.40673 3.44683 2.97262
# Velocity P-wave (km/s) = 4.44095 5.66519 5.09001
#
# Compressibility (1/GPa) = 0.04510549
#
# Stress axis : x y z
#
# Youngs Moduli (GPa) = 75.38559 58.33173 37.27016
#
# Poissons Ratio (x) = 0.35418 0.15803
# Poissons Ratio (y) = 0.45773 -0.15821
# Poissons Ratio (z) = 0.31965 -0.24762
#
# Static dielectric constant tensor:
#      x y z
#    x 1.681820 0.000000 0.000000 
#    y 0.000000 1.686510 0.000000 
#    z 0.000000 0.000000 1.666310 
# 
# From -- ./inp_files/14422.got.cif
#   From: 2010.05.17/outbox.cif.g08.bks.cpg/sg42_8_cif.got.tgz:14422.got - 2010.06.03 19:03:34.
