data_PCOD9369483
_publ_section_title
;
Structure prediction by ZEFSAII (Michael W. Deem and Ramdas Pophale) SiO2 
 PCOD9369483
Probable space group: F M M 2
;
_chemical_formula_sum "Si O2"
_cell_formula_units_Z 96
_cell_length_a 20.195443
_cell_length_b 14.162701
_cell_length_c 15.078259
_cell_angle_alpha 90.000000
_cell_angle_beta 90.000000
_cell_angle_gamma 90.000000
_cell_volume 4312.714109
_symmetry_space_group_name_H-M "F M M 2"
_symmetry_group_IT_number 42
_symmetry_cell_setting 'orthorhombic'
loop_
_space_group_symop_operation_xyz
x,y,z
-x,-y,z
-x,y,z
x,-y,z
x,1/2+y,1/2+z
-x,1/2-y,1/2+z
-x,1/2+y,1/2+z
x,1/2-y,1/2+z
1/2+x,y,1/2+z
1/2-x,-y,1/2+z
1/2-x,y,1/2+z
1/2+x,-y,1/2+z
1/2+x,1/2+y,z
1/2-x,1/2-y,z
1/2-x,1/2+y,z
1/2+x,1/2-y,z
loop_
_atom_site_type_symbol
_atom_site_label
_atom_site_fract_x
_atom_site_fract_y
_atom_site_fract_z
Si Si1 0.843096 0.886034 0.858610
Si Si2 0.424707 0.385837 0.210535
Si Si3 0.303826 0.110835 0.837300
Si Si4 0.113029 0.607566 0.006936
Si Si5 0.428023 0.311997 0.011336
Si Si6 0.925917 0.111934 0.695659
O O1 0.770372 0.850848 0.831668
O O2 0.868858 0.853936 0.953743
O O3 0.895568 0.851131 0.785816
O O4 0.841802 0.000000 0.858332
O O5 0.500000 0.367423 0.244340
O O6 0.420837 0.500000 0.197302
O O7 0.365322 0.356970 0.276490
O O8 0.417940 0.334793 0.115345
O O9 0.298179 0.000000 0.814726
O O10 0.326186 0.115815 0.940008
O O11 0.085523 0.500000 0.994053
O O12 0.123362 0.619025 0.112245
O O13 0.070535 0.700635 0.989515
O O14 0.500000 0.353947 0.987118
O O15 0.000000 0.148417 0.675158
O O16 0.932921 0.000000 0.708364
#
# Coordination Sequence:
#
# PCOD9369483 Si02
#       6
#    16  16  16  16  16  16
#     4  10  21  38  61  90 124 157 192 239 296 364
#     4   9  19  37  61  90 123 157 198 249 301 357
#     4   9  20  39  62  88 120 160 198 237 294 355
#     4  10  22  40  59  82 116 157 205 255 299 352
#     4  11  23  37  59  90 121 159 201 245 303 357
#     4   9  18  34  57  83 113 151 191 236 291 346
#
# _framework density 22.259765000000002
#
# number of rings (size 3 to 8) (size 9 to 14) (size 15 to 20)
#    0.000    2.333    0.000    1.500    0.000    7.333 
#    0.000   11.667    0.000    0.000    0.000    0.000 
#    0.000    0.000    0.000    0.000    0.000    0.000 
#
# Total GULP energy -133805.490396 kJ/mol
# GULP energy per Si atom -5575.228766 kJ/mol
# Density = 2.220910 g / cm^3
# Si number density = 22.259765 Si / 1000 Ang^3
#
#
#
# Elastic Constant Matrix: (Units=GPa)
#
#
# Indices 1 2 3 4 5 6 
#
# 1 122.9195 5.0811 65.5175 0.0000 0.0000 0.0000
# 2 5.0811 95.2547 -3.4719 0.0000 0.0000 0.0000
# 3 65.5175 -3.4719 99.4860 0.0000 0.0000 0.0000
# 4 0.0000 0.0000 0.0000 -20.6658 0.0000 0.0000
# 5 0.0000 0.0000 0.0000 0.0000 6.6459 0.0000
# 6 0.0000 0.0000 0.0000 0.0000 0.0000 5.1112
#
#
#
# Elastic Compliance Matrix: (Units=1/GPa)
#
#
# Indices 1 2 3 4 5 6 
#
# 1 0.012626 -0.000978 -0.008349 0.000000 0.000000 0.000000
# 2 -0.000978 0.010587 0.001013 0.000000 0.000000 0.000000
# 3 -0.008349 0.001013 0.015585 0.000000 0.000000 0.000000
# 4 0.000000 0.000000 0.000000 -0.048389 0.000000 0.000000
# 5 0.000000 0.000000 0.000000 0.000000 0.150469 0.000000
# 6 0.000000 0.000000 0.000000 0.000000 0.000000 0.195650
#
#
# Mechanical properties :
#
#
# Convention : Reuss Voigt Hill
#
# Bulk Modulus (GPa) = 45.10253 50.21262 47.65758
# Shear Modulus (GPa) = 13.86784 14.92047 14.39415
#
# Velocity S-wave (km/s) = 2.49870 2.59180 2.54568
# Velocity P-wave (km/s) = 5.35076 5.61811 5.48606
#
# Compressibility (1/GPa) = 0.02217171
#
# Stress axis : x y z
#
# Youngs Moduli (GPa) = 79.20171 94.45305 64.16258
#
# Poissons Ratio (x) = 0.09236 0.53570
# Poissons Ratio (y) = 0.07744 -0.06502
# Poissons Ratio (z) = 0.66126 -0.09572
#
# Static dielectric constant tensor:
#      x y z
#    x 1.794150 0.000000 0.000000 
#    y 0.000000 1.875850 0.000000 
#    z 0.000000 0.000000 1.773960 
# 
# From -- ./inp_files/15833.got.cif
#   From: 2010.05.17/outbox.cif.g08.bks.cpg/sg42_8_cif.got.tgz:15833.got - 2010.06.03 19:03:34.
