data_PCOD9369851
_publ_section_title
;
Structure prediction by ZEFSAII (Michael W. Deem and Ramdas Pophale) SiO2 
 PCOD9369851
Probable space group: F M M 2
;
_chemical_formula_sum "Si O2"
_cell_formula_units_Z 52
_cell_length_a 28.908410
_cell_length_b 14.758774
_cell_length_c 5.216770
_cell_angle_alpha 90.000000
_cell_angle_beta 90.000000
_cell_angle_gamma 90.000000
_cell_volume 2225.748953
_symmetry_space_group_name_H-M "F M M 2"
_symmetry_group_IT_number 42
_symmetry_cell_setting 'orthorhombic'
loop_
_space_group_symop_operation_xyz
x,y,z
-x,-y,z
-x,y,z
x,-y,z
x,1/2+y,1/2+z
-x,1/2-y,1/2+z
-x,1/2+y,1/2+z
x,1/2-y,1/2+z
1/2+x,y,1/2+z
1/2-x,-y,1/2+z
1/2-x,y,1/2+z
1/2+x,-y,1/2+z
1/2+x,1/2+y,z
1/2-x,1/2-y,z
1/2-x,1/2+y,z
1/2+x,1/2-y,z
loop_
_atom_site_type_symbol
_atom_site_label
_atom_site_fract_x
_atom_site_fract_y
_atom_site_fract_z
Si Si1 0.500000 0.811157 0.003860
Si Si2 0.500000 0.000000 0.454179
Si Si3 0.278317 0.000000 0.703635
Si Si4 0.171536 0.191744 0.126828
Si Si5 0.078029 0.098748 0.220578
O O1 0.500000 0.754824 0.259235
O O2 0.454608 0.872261 0.955966
O O3 0.540806 0.076484 0.500412
O O4 0.304590 0.906142 0.644673
O O5 0.235883 0.000000 0.501788
O O6 0.183395 0.255530 0.367332
O O7 0.116655 0.169790 0.145639
O O8 0.099598 0.000000 0.283889
#
# Coordination Sequence:
#
# PCOD9369851 Si02
#       5
#     8   4   8  16  16
#     4  11  21  36  57  90 127 172 227 273 326 389
#     4   6  14  32  64  82 142 176 234 274 334 382
#     4  12  27  50  76 105 142 175 218 284 349 416
#     4  12  26  46  74 105 139 181 229 279 343 414
#     4   9  18  40  63  91 135 179 224 280 332 389
#
# _framework density 23.362922000000001
#
# number of rings (size 3 to 8) (size 9 to 14) (size 15 to 20)
#    0.923    0.615    1.538    3.692    0.000    3.692 
#    0.000    6.154    0.000    0.000    0.000    0.000 
#    0.000    0.000    0.000    0.000    0.000    0.000 
#
# Total GULP energy -72370.528411 kJ/mol
# GULP energy per Si atom -5566.963724 kJ/mol
# Density = 2.330975 g / cm^3
# Si number density = 23.362922 Si / 1000 Ang^3
#
#
#
# Elastic Constant Matrix: (Units=GPa)
#
#
# Indices 1 2 3 4 5 6 
#
# 1 45.5442 20.2347 -7.7145 0.0000 0.0004 0.0000
# 2 20.2347 148.9390 41.0488 -0.0002 -0.0016 0.0001
# 3 -7.7145 41.0488 111.9586 -0.0003 -0.0030 0.0001
# 4 0.0000 -0.0002 -0.0003 19.7124 -0.0005 0.0000
# 5 0.0004 -0.0016 -0.0030 -0.0005 172.8325 0.0000
# 6 0.0000 0.0001 0.0001 0.0000 0.0000 40.6560
#
#
#
# Elastic Compliance Matrix: (Units=1/GPa)
#
#
# Indices 1 2 3 4 5 6 
#
# 1 0.024367 -0.004197 0.003218 0.000000 0.000000 0.000000
# 2 -0.004197 0.008192 -0.003293 0.000000 0.000000 0.000000
# 3 0.003218 -0.003293 0.010361 0.000000 0.000000 0.000000
# 4 0.000000 0.000000 0.000000 0.050730 0.000000 0.000000
# 5 0.000000 0.000000 0.000000 0.000000 0.005786 0.000000
# 6 0.000000 0.000000 0.000000 0.000000 0.000000 0.024597
#
#
# Mechanical properties :
#
#
# Convention : Reuss Voigt Hill
#
# Bulk Modulus (GPa) = 29.09088 45.95332 37.52210
# Shear Modulus (GPa) = 34.71405 63.49836 49.10620
#
# Velocity S-wave (km/s) = 3.85887 5.21902 4.58961
# Velocity P-wave (km/s) = 5.68623 7.48529 6.64691
#
# Compressibility (1/GPa) = 0.03437503
#
# Stress axis : x y z
#
# Youngs Moduli (GPa) = 41.03991 122.07189 96.51722
#
# Poissons Ratio (x) = 0.51237 -0.31058
# Poissons Ratio (y) = 0.17226 0.31780
# Poissons Ratio (z) = -0.13206 0.40195
#
# Static dielectric constant tensor:
#      x y z
#    x 1.770010 0.000000 0.000000 
#    y 0.000000 1.927320 0.000000 
#    z 0.000000 0.000000 1.890360 
# 
# From -- ./inp_files/1322.got.cif
#   From: 2010.05.17/outbox.cif.g08.bks.cpg/sg42_1_cif.got.tgz:1322.got - 2010.06.03 19:03:34.
