data_PCOD9369976
_publ_section_title
;
Structure prediction by ZEFSAII (Michael W. Deem and Ramdas Pophale) SiO2 
 PCOD9369976
Probable space group: F M M 2
;
_chemical_formula_sum "Si O2"
_cell_formula_units_Z 96
_cell_length_a 28.304429
_cell_length_b 18.274312
_cell_length_c 10.222252
_cell_angle_alpha 90.000000
_cell_angle_beta 90.000000
_cell_angle_gamma 90.000000
_cell_volume 5287.398171
_symmetry_space_group_name_H-M "F M M 2"
_symmetry_group_IT_number 42
_symmetry_cell_setting 'orthorhombic'
loop_
_space_group_symop_operation_xyz
x,y,z
-x,-y,z
-x,y,z
x,-y,z
x,1/2+y,1/2+z
-x,1/2-y,1/2+z
-x,1/2+y,1/2+z
x,1/2-y,1/2+z
1/2+x,y,1/2+z
1/2-x,-y,1/2+z
1/2-x,y,1/2+z
1/2+x,-y,1/2+z
1/2+x,1/2+y,z
1/2-x,1/2-y,z
1/2-x,1/2+y,z
1/2+x,1/2-y,z
loop_
_atom_site_type_symbol
_atom_site_label
_atom_site_fract_x
_atom_site_fract_y
_atom_site_fract_z
Si Si1 0.184739 0.912857 0.309740
Si Si2 0.448301 0.415378 0.652385
Si Si3 0.647243 0.835764 0.546865
Si Si4 0.721403 0.329012 0.809725
Si Si5 0.147240 0.335786 0.072625
Si Si6 0.448299 0.084622 0.467204
O O1 0.164204 0.873886 0.180363
O O2 0.239870 0.892461 0.309801
O O3 0.164165 0.873883 0.439067
O O4 0.176530 0.000000 0.309736
O O5 0.500000 0.387256 0.607528
O O6 0.444493 0.500000 0.609956
O O7 0.401959 0.372913 0.610796
O O8 0.449032 0.415035 0.809795
O O9 0.687996 0.838829 0.436087
O O10 0.638313 0.749992 0.559788
O O11 0.598036 0.872895 0.508779
O O12 0.750000 0.250000 0.809708
O O13 0.688025 0.338877 0.683314
O O14 0.500000 0.112732 0.512069
O O15 0.444482 0.000000 0.509633
#
# Coordination Sequence:
#
# PCOD9369976 Si02
#       6
#    16  16  16  16  16  16
#     4  12  28  42  61  98 136 167 215 273 319 383
#     4   9  19  38  64  93 123 158 210 269 318 375
#     4  12  23  41  68  92 128 172 212 264 321 387
#     4  12  24  44  65  92 124 172 221 263 323 369
#     4  12  23  41  68  92 128 172 212 264 321 387
#     4   9  19  38  64  93 123 158 210 269 318 375
#
# _framework density 18.156378
#
# number of rings (size 3 to 8) (size 9 to 14) (size 15 to 20)
#    0.000    1.000    5.000    3.000    0.000    4.667 
#    0.000    0.833    0.000    3.000    0.000    0.000 
#    0.000    0.000    0.000    0.000    0.000    0.000 
#
# Total GULP energy -133937.086602 kJ/mol
# GULP energy per Si atom -5580.711942 kJ/mol
# Density = 1.811505 g / cm^3
# Si number density = 18.156378 Si / 1000 Ang^3
#
#
#
# Elastic Constant Matrix: (Units=GPa)
#
#
# Indices 1 2 3 4 5 6 
#
# 1 196.2383 85.6218 79.7962 0.0000 0.0000 0.0000
# 2 85.6218 135.5725 67.4087 0.0000 0.0000 0.0000
# 3 79.7962 67.4087 122.3533 0.0000 0.0000 0.0000
# 4 0.0000 0.0000 0.0000 78.5147 0.0000 0.0000
# 5 0.0000 0.0000 0.0000 0.0000 0.3788 0.0000
# 6 0.0000 0.0000 0.0000 0.0000 0.0000 42.4405
#
#
#
# Elastic Compliance Matrix: (Units=1/GPa)
#
#
# Indices 1 2 3 4 5 6 
#
# 1 0.007901 -0.003344 -0.003311 0.000000 0.000000 0.000000
# 2 -0.003344 0.011574 -0.004196 0.000000 0.000000 0.000000
# 3 -0.003311 -0.004196 0.012644 0.000000 0.000000 0.000000
# 4 0.000000 0.000000 0.000000 0.012736 0.000000 0.000000
# 5 0.000000 0.000000 0.000000 0.000000 2.639674 0.000000
# 6 0.000000 0.000000 0.000000 0.000000 0.000000 0.023562
#
#
# Mechanical properties :
#
#
# Convention : Reuss Voigt Hill
#
# Bulk Modulus (GPa) = 95.98421 102.20195 99.09308
# Shear Modulus (GPa) = 1.82931 39.02264 20.42598
#
# Velocity S-wave (km/s) = 1.00485 4.64103 3.35775
# Velocity P-wave (km/s) = 7.37064 9.22664 8.35037
#
# Compressibility (1/GPa) = 0.01041838
#
# Stress axis : x y z
#
# Youngs Moduli (GPa) = 126.56606 86.39910 79.09007
#
# Poissons Ratio (x) = 0.28891 0.26184
# Poissons Ratio (y) = 0.42322 0.33185
# Poissons Ratio (z) = 0.41901 0.36252
#
# Static dielectric constant tensor:
#      x y z
#    x 1.639570 0.000000 0.000000 
#    y 0.000000 1.617600 0.000000 
#    z 0.000000 0.000000 1.683580 
# 
# From -- ./inp_files/10149.got.cif
#   From: 2010.05.17/outbox.cif.g08.bks.cpg/sg42_6_cif.got.tgz:10149.got - 2010.06.03 19:03:34.
