data_PCOD9369059
_publ_section_title
;
Structure prediction by ZEFSAII (Michael W. Deem and Ramdas Pophale) SiO2 
 PCOD9369059
Probable space group: F M M 2
;
_chemical_formula_sum "Si O2"
_cell_formula_units_Z 96
_cell_length_a 15.019741
_cell_length_b 23.293409
_cell_length_c 14.507638
_cell_angle_alpha 90.000000
_cell_angle_beta 90.000000
_cell_angle_gamma 90.000000
_cell_volume 5075.656306
_symmetry_space_group_name_H-M "F M M 2"
_symmetry_group_IT_number 42
_symmetry_cell_setting 'orthorhombic'
loop_
_space_group_symop_operation_xyz
x,y,z
-x,-y,z
-x,y,z
x,-y,z
x,1/2+y,1/2+z
-x,1/2-y,1/2+z
-x,1/2+y,1/2+z
x,1/2-y,1/2+z
1/2+x,y,1/2+z
1/2-x,-y,1/2+z
1/2-x,y,1/2+z
1/2+x,-y,1/2+z
1/2+x,1/2+y,z
1/2-x,1/2-y,z
1/2-x,1/2+y,z
1/2+x,1/2-y,z
loop_
_atom_site_type_symbol
_atom_site_label
_atom_site_fract_x
_atom_site_fract_y
_atom_site_fract_z
Si Si1 0.397628 0.068932 0.224100
Si Si2 0.735993 0.433539 0.101211
Si Si3 0.902777 0.659240 0.666336
Si Si4 0.712732 0.613154 0.900614
Si Si5 0.401784 0.666177 0.372079
Si Si6 0.347543 0.771334 0.495303
O O1 0.500000 0.090806 0.221087
O O2 0.336397 0.082180 0.134324
O O3 0.342128 0.089346 0.313950
O O4 0.402857 0.000000 0.229272
O O5 0.721047 0.500000 0.126769
O O6 0.671666 0.388903 0.152290
O O7 0.714451 0.425066 0.993229
O O8 0.895566 0.687388 0.766509
O O9 0.895154 0.705416 0.585564
O O10 0.000000 0.631186 0.660092
O O11 0.816955 0.625062 0.881913
O O12 0.668676 0.674057 0.929075
O O13 0.500000 0.639622 0.384411
O O14 0.391973 0.719207 0.441448
O O15 0.250000 0.750000 0.024494
#
# Coordination Sequence:
#
# PCOD9369059 Si02
#       6
#    16  16  16  16  16  16
#     4  10  21  38  60  86 116 152 196 243 293 352
#     4  10  21  38  60  85 117 151 189 242 299 350
#     4  10  20  36  59  85 116 150 190 237 287 346
#     4  10  20  37  58  85 114 151 193 242 291 347
#     4  10  20  36  56  82 116 153 191 233 287 348
#     4   9  20  35  55  81 115 152 191 238 284 339
#
# _framework density 18.913810000000002
#
# number of rings (size 3 to 8) (size 9 to 14) (size 15 to 20)
#    0.000    2.167    1.667    1.000    0.000    6.333 
#    3.000    0.000    0.000    1.500    0.000    0.000 
#    0.000    0.000    0.000    0.000    0.000    0.000 
#
# Total GULP energy -133748.120900 kJ/mol
# GULP energy per Si atom -5572.838371 kJ/mol
# Density = 1.887076 g / cm^3
# Si number density = 18.913810 Si / 1000 Ang^3
#
#
#
# Elastic Constant Matrix: (Units=GPa)
#
#
# Indices 1 2 3 4 5 6 
#
# 1 118.7070 29.0117 25.7665 0.0000 0.0000 0.0000
# 2 29.0117 41.3497 10.4945 0.0000 0.0000 0.0000
# 3 25.7665 10.4945 56.8653 0.0000 0.0000 0.0000
# 4 0.0000 0.0000 0.0000 12.9500 0.0000 0.0000
# 5 0.0000 0.0000 0.0000 0.0000 -22.1840 0.0000
# 6 0.0000 0.0000 0.0000 0.0000 0.0000 11.7181
#
#
#
# Elastic Compliance Matrix: (Units=1/GPa)
#
#
# Indices 1 2 3 4 5 6 
#
# 1 0.010857 -0.006682 -0.003686 0.000000 0.000000 0.000000
# 2 -0.006682 0.029485 -0.002414 0.000000 0.000000 0.000000
# 3 -0.003686 -0.002414 0.019701 0.000000 0.000000 0.000000
# 4 0.000000 0.000000 0.000000 0.077220 0.000000 0.000000
# 5 0.000000 0.000000 0.000000 0.000000 -0.045078 0.000000
# 6 0.000000 0.000000 0.000000 0.000000 0.000000 0.085338
#
#
# Mechanical properties :
#
#
# Convention : Reuss Voigt Hill
#
# Bulk Modulus (GPa) = 29.00314 38.60749 33.80532
# Shear Modulus (GPa) = 23.30120 10.60679 16.95399
#
# Velocity S-wave (km/s) = 3.51375 2.37068 2.99721
# Velocity P-wave (km/s) = 5.64177 5.28679 5.46716
#
# Compressibility (1/GPa) = 0.03447902
#
# Stress axis : x y z
#
# Youngs Moduli (GPa) = 92.10332 33.91572 50.75824
#
# Poissons Ratio (x) = 0.22663 0.18712
# Poissons Ratio (y) = 0.61544 0.12251
# Poissons Ratio (z) = 0.33953 0.08186
#
# Static dielectric constant tensor:
#      x y z
#    x 1.991540 0.000000 0.000000 
#    y 0.000000 1.628960 0.000000 
#    z 0.000000 0.000000 1.664120 
# 
# From -- ./inp_files/13984.got.cif
#   From: 2010.05.17/outbox.cif.g08.bks.cpg/sg42_7_cif.got.tgz:13984.got - 2010.06.03 19:03:34.
