data_PCOD9369959
_publ_section_title
;
Structure prediction by ZEFSAII (Michael W. Deem and Ramdas Pophale) SiO2 
 PCOD9369959
Probable space group: F M M 2
;
_chemical_formula_sum "Si O2"
_cell_formula_units_Z 68
_cell_length_a 19.969863
_cell_length_b 17.004024
_cell_length_c 9.270003
_cell_angle_alpha 90.000000
_cell_angle_beta 90.000000
_cell_angle_gamma 90.000000
_cell_volume 3147.796654
_symmetry_space_group_name_H-M "F M M 2"
_symmetry_group_IT_number 42
_symmetry_cell_setting 'orthorhombic'
loop_
_space_group_symop_operation_xyz
x,y,z
-x,-y,z
-x,y,z
x,-y,z
x,1/2+y,1/2+z
-x,1/2-y,1/2+z
-x,1/2+y,1/2+z
x,1/2-y,1/2+z
1/2+x,y,1/2+z
1/2-x,-y,1/2+z
1/2-x,y,1/2+z
1/2+x,-y,1/2+z
1/2+x,1/2+y,z
1/2-x,1/2-y,z
1/2-x,1/2+y,z
1/2+x,1/2-y,z
loop_
_atom_site_type_symbol
_atom_site_label
_atom_site_fract_x
_atom_site_fract_y
_atom_site_fract_z
Si Si1 0.072551 0.342041 0.257580
Si Si2 0.577479 0.906579 0.568399
Si Si3 0.298437 0.323873 0.595950
Si Si4 0.500000 0.000000 0.183882
Si Si5 0.195411 0.591914 0.792589
O O1 0.091127 0.356792 0.424413
O O2 0.131061 0.303187 0.168446
O O3 0.000000 0.199583 0.751976
O O4 0.056911 0.429251 0.193674
O O5 0.500000 0.893484 0.610778
O O6 0.630658 0.892869 0.692930
O O7 0.581672 0.000000 0.528666
O O8 0.250000 0.250000 0.588527
O O9 0.260648 0.385414 0.700179
O O10 0.307528 0.358672 0.437870
O O11 0.196781 0.500000 0.828696
#
# Coordination Sequence:
#
# PCOD9369959 Si02
#       5
#    16  16  16   4  16
#     4   9  18  35  68 101 135 173 217 277 351 403
#     4   9  16  35  61 100 135 161 205 282 352 394
#     4  12  26  44  61  92 140 178 216 272 347 408
#     4   8  16  32  68 110 136 168 216 298 344 396
#     4  11  25  38  66  94 125 176 234 283 323 389
#
# _framework density 21.602412000000001
#
# number of rings (size 3 to 8) (size 9 to 14) (size 15 to 20)
#    0.706    1.176    1.176    2.824    3.294    2.824 
#    0.000    2.353    0.000    4.235    0.000    0.000 
#    0.000    0.000    0.000    0.000    0.000    0.000 
#
# Total GULP energy -94787.827977 kJ/mol
# GULP energy per Si atom -5575.754587 kJ/mol
# Density = 2.155324 g / cm^3
# Si number density = 21.602412 Si / 1000 Ang^3
#
#
#
# Elastic Constant Matrix: (Units=GPa)
#
#
# Indices 1 2 3 4 5 6 
#
# 1 125.6151 41.8769 95.5946 0.0000 0.0000 0.0000
# 2 41.8769 83.1234 31.7467 0.0000 0.0000 0.0000
# 3 95.5946 31.7467 119.6776 0.0000 0.0000 0.0000
# 4 0.0000 0.0000 0.0000 38.5288 0.0000 0.0000
# 5 0.0000 0.0000 0.0000 0.0000 13.8791 0.0000
# 6 0.0000 0.0000 0.0000 0.0000 0.0000 31.0803
#
#
#
# Elastic Compliance Matrix: (Units=1/GPa)
#
#
# Indices 1 2 3 4 5 6 
#
# 1 0.021928 -0.004849 -0.016229 0.000000 0.000000 0.000000
# 2 -0.004849 0.014459 0.000038 0.000000 0.000000 0.000000
# 3 -0.016229 0.000038 0.021309 0.000000 0.000000 0.000000
# 4 0.000000 0.000000 0.000000 0.025955 0.000000 0.000000
# 5 0.000000 0.000000 0.000000 0.000000 0.072051 0.000000
# 6 0.000000 0.000000 0.000000 0.000000 0.000000 0.032175
#
#
# Mechanical properties :
#
#
# Convention : Reuss Voigt Hill
#
# Bulk Modulus (GPa) = 64.04021 74.09470 69.06746
# Shear Modulus (GPa) = 21.26207 27.31084 24.28645
#
# Velocity S-wave (km/s) = 3.14067 3.55949 3.35662
# Velocity P-wave (km/s) = 6.54683 7.16010 6.86032
#
# Compressibility (1/GPa) = 0.01561519
#
# Stress axis : x y z
#
# Youngs Moduli (GPa) = 45.60443 69.16236 46.92869
#
# Poissons Ratio (x) = 0.33536 0.76160
# Poissons Ratio (y) = 0.22113 -0.00177
# Poissons Ratio (z) = 0.74011 -0.00260
#
# Static dielectric constant tensor:
#      x y z
#    x 1.806030 0.000000 0.000000 
#    y 0.000000 1.798510 0.000000 
#    z 0.000000 0.000000 1.745140 
# 
# From -- ./inp_files/3288.got.cif
#   From: 2010.05.17/outbox.cif.g08.bks.cpg/sg42_2_cif.got.tgz:3288.got - 2010.06.03 19:03:34.
