data_PCOD9369793
_publ_section_title
;
Structure prediction by ZEFSAII (Michael W. Deem and Ramdas Pophale) SiO2 
 PCOD9369793
Probable space group: F M M 2
;
_chemical_formula_sum "Si O2"
_cell_formula_units_Z 84
_cell_length_a 20.806952
_cell_length_b 18.855952
_cell_length_c 10.760408
_cell_angle_alpha 90.000000
_cell_angle_beta 90.000000
_cell_angle_gamma 90.000000
_cell_volume 4221.683469
_symmetry_space_group_name_H-M "F M M 2"
_symmetry_group_IT_number 42
_symmetry_cell_setting 'orthorhombic'
loop_
_space_group_symop_operation_xyz
x,y,z
-x,-y,z
-x,y,z
x,-y,z
x,1/2+y,1/2+z
-x,1/2-y,1/2+z
-x,1/2+y,1/2+z
x,1/2-y,1/2+z
1/2+x,y,1/2+z
1/2-x,-y,1/2+z
1/2-x,y,1/2+z
1/2+x,-y,1/2+z
1/2+x,1/2+y,z
1/2-x,1/2-y,z
1/2-x,1/2+y,z
1/2+x,1/2-y,z
loop_
_atom_site_type_symbol
_atom_site_label
_atom_site_fract_x
_atom_site_fract_y
_atom_site_fract_z
Si Si1 0.769065 0.582941 0.386100
Si Si2 0.071672 0.277159 0.045186
Si Si3 0.500000 0.000000 0.538744
Si Si4 0.387672 0.882122 0.563571
Si Si5 0.307119 0.791638 0.213976
Si Si6 0.355139 0.656496 0.345021
O O1 0.770128 0.500000 0.356281
O O2 0.822214 0.598675 0.490924
O O3 0.786182 0.633841 0.269976
O O4 0.696485 0.607950 0.416251
O O5 0.086566 0.194621 0.019863
O O6 0.127797 0.299435 0.138660
O O7 0.000000 0.284138 0.095427
O O8 0.082385 0.325349 0.924375
O O9 0.556879 0.061291 0.541125
O O10 0.371957 0.875160 0.710538
O O11 0.250000 0.750000 0.140723
O O12 0.322098 0.733188 0.320433
#
# Coordination Sequence:
#
# PCOD9369793 Si02
#       6
#    16  16   4  16  16  16
#     4  11  23  42  66  96 127 166 218 274 328 382
#     4  11  23  41  65  96 129 170 219 264 324 383
#     4  12  24  44  64  96 138 176 208 264 320 406
#     4  11  24  43  66  95 128 174 216 265 322 393
#     4   9  21  40  65  92 126 166 215 272 321 378
#     4  10  24  39  67  93 128 170 214 270 317 386
#
# _framework density 19.897273999999999
#
# number of rings (size 3 to 8) (size 9 to 14) (size 15 to 20)
#    0.000    1.524    3.810    0.000   10.667    0.762 
#    1.714    0.000    0.000    1.143    0.000    0.000 
#    0.000    0.000    0.000    0.000    0.000    0.000 
#
# Total GULP energy -116968.482459 kJ/mol
# GULP energy per Si atom -5569.927736 kJ/mol
# Density = 1.985199 g / cm^3
# Si number density = 19.897274 Si / 1000 Ang^3
#
#
#
# Elastic Constant Matrix: (Units=GPa)
#
#
# Indices 1 2 3 4 5 6 
#
# 1 146.6416 46.2453 48.4473 0.0000 0.0000 0.0000
# 2 46.2453 122.5473 40.3862 0.0000 0.0000 0.0000
# 3 48.4473 40.3862 56.8946 0.0000 0.0000 0.0000
# 4 0.0000 0.0000 0.0000 8.0711 0.0000 0.0000
# 5 0.0000 0.0000 0.0000 0.0000 2.2522 0.0000
# 6 0.0000 0.0000 0.0000 0.0000 0.0000 35.1770
#
#
#
# Elastic Compliance Matrix: (Units=1/GPa)
#
#
# Indices 1 2 3 4 5 6 
#
# 1 0.009626 -0.001216 -0.007334 0.000000 0.000000 0.000000
# 2 -0.001216 0.010805 -0.006635 0.000000 0.000000 0.000000
# 3 -0.007334 -0.006635 0.028531 0.000000 0.000000 0.000000
# 4 0.000000 0.000000 0.000000 0.123898 0.000000 0.000000
# 5 0.000000 0.000000 0.000000 0.000000 0.444017 0.000000
# 6 0.000000 0.000000 0.000000 0.000000 0.000000 0.028428
#
#
# Mechanical properties :
#
#
# Convention : Reuss Voigt Hill
#
# Bulk Modulus (GPa) = 53.78212 66.24903 60.01558
# Shear Modulus (GPa) = 7.33277 21.83371 14.58324
#
# Velocity S-wave (km/s) = 1.92180 3.31618 2.71020
# Velocity P-wave (km/s) = 5.65800 6.93041 6.32628
#
# Compressibility (1/GPa) = 0.01859354
#
# Stress axis : x y z
#
# Youngs Moduli (GPa) = 103.89020 92.54583 35.04961
#
# Poissons Ratio (x) = 0.11249 0.25704
# Poissons Ratio (y) = 0.12628 0.23256
# Poissons Ratio (z) = 0.76189 0.61405
#
# Static dielectric constant tensor:
#      x y z
#    x 1.728350 0.000000 0.000000 
#    y 0.000000 1.681020 0.000000 
#    z 0.000000 0.000000 1.748750 
# 
# From -- ./inp_files/9499.got.cif
#   From: 2010.05.17/outbox.cif.g08.bks.cpg/sg42_5_cif.got.tgz:9499.got - 2010.06.03 19:03:34.
