data_PCOD9369621
_publ_section_title
;
Structure prediction by ZEFSAII (Michael W. Deem and Ramdas Pophale) SiO2 
 PCOD9369621
Probable space group: F M M 2
;
_chemical_formula_sum "Si O2"
_cell_formula_units_Z 88
_cell_length_a 10.534892
_cell_length_b 13.863917
_cell_length_c 29.451111
_cell_angle_alpha 90.000000
_cell_angle_beta 90.000000
_cell_angle_gamma 90.000000
_cell_volume 4301.478138
_symmetry_space_group_name_H-M "F M M 2"
_symmetry_group_IT_number 42
_symmetry_cell_setting 'orthorhombic'
loop_
_space_group_symop_operation_xyz
x,y,z
-x,-y,z
-x,y,z
x,-y,z
x,1/2+y,1/2+z
-x,1/2-y,1/2+z
-x,1/2+y,1/2+z
x,1/2-y,1/2+z
1/2+x,y,1/2+z
1/2-x,-y,1/2+z
1/2-x,y,1/2+z
1/2+x,-y,1/2+z
1/2+x,1/2+y,z
1/2-x,1/2-y,z
1/2-x,1/2+y,z
1/2+x,1/2-y,z
loop_
_atom_site_type_symbol
_atom_site_label
_atom_site_fract_x
_atom_site_fract_y
_atom_site_fract_z
Si Si1 0.651150 0.108194 0.254180
Si Si2 0.145817 0.617336 0.153870
Si Si3 0.858052 0.117016 0.977384
Si Si4 0.144037 0.613534 0.904536
Si Si5 0.250000 0.250000 0.829451
Si Si6 0.643649 0.617359 0.081228
O O1 0.500000 0.101042 0.249545
O O2 0.693824 0.143348 0.204393
O O3 0.679318 0.177388 0.295728
O O4 0.702183 0.000000 0.262425
O O5 0.141559 0.500000 0.153994
O O6 0.245048 0.646146 0.115290
O O7 0.000000 0.649842 0.146608
O O8 0.747047 0.140881 0.942576
O O9 0.000000 0.149109 0.963121
O O10 0.861236 0.000000 0.978490
O O11 0.835181 0.148858 0.029155
O O12 0.165026 0.500000 0.892424
O O13 0.164334 0.683622 0.861975
O O14 0.000000 0.621214 0.921614
O O15 0.500000 0.646124 0.094602
O O16 0.644180 0.500000 0.080825
#
# Coordination Sequence:
#
# PCOD9369621 Si02
#       6
#    16  16  16  16   8  16
#     4   9  19  36  56  79 108 143 184 226 268 323
#     4   8  14  26  46  73 104 138 177 218 260 313
#     4   8  15  29  50  76 107 144 183 219 261 323
#     4  10  22  38  55  81 115 144 178 231 285 327
#     4  12  22  36  58  80 104 142 188 230 280 332
#     4   8  13  23  43  74 108 139 173 213 259 314
#
# _framework density 20.458082999999998
#
# number of rings (size 3 to 8) (size 9 to 14) (size 15 to 20)
#    0.000    3.091    0.000    3.273    0.000    2.182 
#    0.000    7.273    0.000    5.455    0.000    2.545 
#    0.000    0.000    0.000    0.000    0.000    1.818 
#
# Total GULP energy -122718.873170 kJ/mol
# GULP energy per Si atom -5578.130599 kJ/mol
# Density = 2.041152 g / cm^3
# Si number density = 20.458083 Si / 1000 Ang^3
#
#
#
# Elastic Constant Matrix: (Units=GPa)
#
#
# Indices 1 2 3 4 5 6 
#
# 1 130.2075 36.7882 100.4094 0.0000 0.0000 0.0000
# 2 36.7882 100.1143 41.7632 0.0000 0.0000 0.0000
# 3 100.4094 41.7632 151.3597 0.0000 0.0000 0.0000
# 4 0.0000 0.0000 0.0000 -33.5925 0.0000 0.0000
# 5 0.0000 0.0000 0.0000 0.0000 37.5497 0.0000
# 6 0.0000 0.0000 0.0000 0.0000 0.0000 -13.5225
#
#
#
# Elastic Compliance Matrix: (Units=1/GPa)
#
#
# Indices 1 2 3 4 5 6 
#
# 1 0.015958 -0.001636 -0.010135 0.000000 0.000000 0.000000
# 2 -0.001636 0.011456 -0.002075 0.000000 0.000000 0.000000
# 3 -0.010135 -0.002075 0.013902 0.000000 0.000000 0.000000
# 4 0.000000 0.000000 0.000000 -0.029769 0.000000 0.000000
# 5 0.000000 0.000000 0.000000 0.000000 0.026631 0.000000
# 6 0.000000 0.000000 0.000000 0.000000 0.000000 -0.073951
#
#
# Mechanical properties :
#
#
# Convention : Reuss Voigt Hill
#
# Bulk Modulus (GPa) = 73.40290 82.17812 77.79051
# Shear Modulus (GPa) = -1412.73520 11.60168 -700.56676
#
# Velocity S-wave (km/s) = -26.30685 2.38396 -18.52521
# Velocity P-wave (km/s) = 29.77879 6.91621 20.48099
#
# Compressibility (1/GPa) = 0.01362344
#
# Stress axis : x y z
#
# Youngs Moduli (GPa) = 62.66637 87.29373 71.92957
#
# Poissons Ratio (x) = 0.14282 0.72897
# Poissons Ratio (y) = 0.10253 0.14929
# Poissons Ratio (z) = 0.63509 0.18117
#
# Static dielectric constant tensor:
#      x y z
#    x 1.706950 0.000000 0.000000 
#    y 0.000000 1.808110 0.000000 
#    z 0.000000 0.000000 1.711500 
# 
# From -- ./inp_files/28721.got.cif
#   From: 2010.05.17/outbox.cif.g08.bks.cpg/sg42_15_cif.got.tgz:28721.got - 2010.06.03 19:03:34.
