data_PCOD9369414
_publ_section_title
;
Structure prediction by ZEFSAII (Michael W. Deem and Ramdas Pophale) SiO2 
 PCOD9369414
Probable space group: F M M 2
;
_chemical_formula_sum "Si O2"
_cell_formula_units_Z 80
_cell_length_a 8.723195
_cell_length_b 26.447002
_cell_length_c 18.585038
_cell_angle_alpha 90.000000
_cell_angle_beta 90.000000
_cell_angle_gamma 90.000000
_cell_volume 4287.612046
_symmetry_space_group_name_H-M "F M M 2"
_symmetry_group_IT_number 42
_symmetry_cell_setting 'orthorhombic'
loop_
_space_group_symop_operation_xyz
x,y,z
-x,-y,z
-x,y,z
x,-y,z
x,1/2+y,1/2+z
-x,1/2-y,1/2+z
-x,1/2+y,1/2+z
x,1/2-y,1/2+z
1/2+x,y,1/2+z
1/2-x,-y,1/2+z
1/2-x,y,1/2+z
1/2+x,-y,1/2+z
1/2+x,1/2+y,z
1/2-x,1/2-y,z
1/2-x,1/2+y,z
1/2+x,1/2-y,z
loop_
_atom_site_type_symbol
_atom_site_label
_atom_site_fract_x
_atom_site_fract_y
_atom_site_fract_z
Si Si1 0.684136 0.095599 0.813030
Si Si2 0.815510 0.000000 0.068621
Si Si3 0.314833 0.902502 0.472657
Si Si4 0.317533 0.500000 0.728121
Si Si5 0.184610 0.195913 0.228595
Si Si6 0.815299 0.304086 0.561693
O O1 0.500000 0.092962 0.810263
O O2 0.740674 0.092759 0.894716
O O3 0.751836 0.049385 0.767697
O O4 0.733203 0.148774 0.777153
O O5 0.735868 0.000000 0.145591
O O6 0.775884 0.950263 0.022749
O O7 0.000000 0.000000 0.079803
O O8 0.500000 0.901986 0.464957
O O9 0.266846 0.850793 0.512267
O O10 0.500000 0.500000 0.733048
O O11 0.250000 0.250000 0.252112
O O12 0.231426 0.187644 0.145120
O O13 0.000000 0.198461 0.230178
O O14 0.750000 0.250000 0.538282
O O15 0.000000 0.301934 0.560326
#
# Coordination Sequence:
#
# PCOD9369414 Si02
#       6
#    16   8  16   8  16  16
#     4  11  23  39  59  84 117 153 190 233 283 338
#     4  10  21  40  63  83 109 145 183 230 287 340
#     4  10  21  37  58  84 115 149 186 231 284 338
#     4  12  25  40  61  87 113 145 189 236 283 338
#     4   9  19  36  58  83 111 148 191 234 281 332
#     4   9  18  34  55  79 109 146 189 233 278 331
#
# _framework density 18.658404999999998
#
# number of rings (size 3 to 8) (size 9 to 14) (size 15 to 20)
#    0.000    2.000    0.000    3.300    0.000    8.000 
#    0.000    8.000    0.000    0.000    0.000    0.000 
#    0.000    0.000    0.000    0.000    0.000    0.000 
#
# Total GULP energy -111741.585054 kJ/mol
# GULP energy per Si atom -5587.079253 kJ/mol
# Density = 1.861594 g / cm^3
# Si number density = 18.658405 Si / 1000 Ang^3
#
#
#
# Elastic Constant Matrix: (Units=GPa)
#
#
# Indices 1 2 3 4 5 6 
#
# 1 36.4882 59.0617 54.8674 0.0000 0.0000 0.0000
# 2 59.0617 203.0216 123.8909 0.0000 0.0000 0.0000
# 3 54.8674 123.8909 155.1923 0.0000 0.0000 0.0000
# 4 0.0000 0.0000 0.0000 -39.6322 0.0000 0.0000
# 5 0.0000 0.0000 0.0000 0.0000 32.8529 0.0000
# 6 0.0000 0.0000 0.0000 0.0000 0.0000 32.1217
#
#
#
# Elastic Compliance Matrix: (Units=1/GPa)
#
#
# Indices 1 2 3 4 5 6 
#
# 1 0.067325 -0.009868 -0.015925 0.000000 0.000000 0.000000
# 2 -0.009868 0.011051 -0.005333 0.000000 0.000000 0.000000
# 3 -0.015925 -0.005333 0.016331 0.000000 0.000000 0.000000
# 4 0.000000 0.000000 0.000000 -0.025232 0.000000 0.000000
# 5 0.000000 0.000000 0.000000 0.000000 0.030439 0.000000
# 6 0.000000 0.000000 0.000000 0.000000 0.000000 0.031132
#
#
# Mechanical properties :
#
#
# Convention : Reuss Voigt Hill
#
# Bulk Modulus (GPa) = 30.81166 96.70467 63.75817
# Shear Modulus (GPa) = 24.49599 15.52728 20.01164
#
# Velocity S-wave (km/s) = 3.62728 2.88789 3.27850
# Velocity P-wave (km/s) = 5.83886 7.94112 6.96971
#
# Compressibility (1/GPa) = 0.03245524
#
# Stress axis : x y z
#
# Youngs Moduli (GPa) = 14.85337 90.49173 61.23235
#
# Poissons Ratio (x) = 0.89296 0.97511
# Poissons Ratio (y) = 0.14657 0.32656
# Poissons Ratio (z) = 0.23654 0.48261
#
# Static dielectric constant tensor:
#      x y z
#    x 1.633580 0.000000 0.000000 
#    y 0.000000 1.624740 0.000000 
#    z 0.000000 0.000000 1.612740 
# 
# From -- ./inp_files/18234.got.cif
#   From: 2010.05.17/outbox.cif.g08.bks.cpg/sg42_10_cif.got.tgz:18234.got - 2010.06.03 19:03:34.
