data_PCOD9369134
_publ_section_title
;
Structure prediction by ZEFSAII (Michael W. Deem and Ramdas Pophale) SiO2 
 PCOD9369134
Probable space group: F M M 2
;
_chemical_formula_sum "Si O2"
_cell_formula_units_Z 68
_cell_length_a 15.729555
_cell_length_b 7.821830
_cell_length_c 27.642930
_cell_angle_alpha 90.000000
_cell_angle_beta 90.000000
_cell_angle_gamma 90.000000
_cell_volume 3401.017629
_symmetry_space_group_name_H-M "F M M 2"
_symmetry_group_IT_number 42
_symmetry_cell_setting 'orthorhombic'
loop_
_space_group_symop_operation_xyz
x,y,z
-x,-y,z
-x,y,z
x,-y,z
x,1/2+y,1/2+z
-x,1/2-y,1/2+z
-x,1/2+y,1/2+z
x,1/2-y,1/2+z
1/2+x,y,1/2+z
1/2-x,-y,1/2+z
1/2-x,y,1/2+z
1/2+x,-y,1/2+z
1/2+x,1/2+y,z
1/2-x,1/2-y,z
1/2-x,1/2+y,z
1/2+x,1/2-y,z
loop_
_atom_site_type_symbol
_atom_site_label
_atom_site_fract_x
_atom_site_fract_y
_atom_site_fract_z
Si Si1 0.345464 0.204902 0.497380
Si Si2 0.500000 0.687735 0.271359
Si Si3 0.500000 0.000000 0.349284
Si Si4 0.099666 0.706338 0.603567
Si Si5 0.345004 0.302741 0.708798
Si Si6 0.500000 0.693391 0.429531
O O1 0.250000 0.250000 0.482110
O O2 0.359819 0.262655 0.552891
O O3 0.416923 0.284361 0.463293
O O4 0.356797 0.000000 0.496274
O O5 0.500000 0.500000 0.294747
O O6 0.417409 0.701140 0.237013
O O7 0.500000 0.847294 0.307513
O O8 0.500000 0.152546 0.391254
O O9 0.105238 0.500000 0.605973
O O10 0.143140 0.777933 0.651394
O O11 0.000000 0.752943 0.603778
O O12 0.357766 0.500000 0.720646
O O13 0.250000 0.250000 0.722576
O O14 0.500000 0.500000 0.409715
#
# Coordination Sequence:
#
# PCOD9369134 Si02
#       6
#    16   8   4  16  16   8
#     4  11  22  41  66 100 144 183 229 283 334 407
#     4  12  25  48  76 101 136 178 222 288 353 408
#     4  12  26  52  76 102 132 174 230 292 352 416
#     4  10  20  36  62  98 141 190 228 271 331 402
#     4  12  24  41  66 101 142 184 230 281 334 408
#     4  12  25  46  76 101 134 180 224 288 353 406
#
# _framework density 19.994016999999999
#
# number of rings (size 3 to 8) (size 9 to 14) (size 15 to 20)
#    0.000    0.706    4.706    3.882    0.000    3.765 
#    0.000    1.176    0.000    0.000    0.000    0.000 
#    0.000    0.000    0.000    0.000    0.000    0.000 
#
# Total GULP energy -94819.178583 kJ/mol
# GULP energy per Si atom -5577.598740 kJ/mol
# Density = 1.994851 g / cm^3
# Si number density = 19.994017 Si / 1000 Ang^3
#
#
#
# Elastic Constant Matrix: (Units=GPa)
#
#
# Indices 1 2 3 4 5 6 
#
# 1 151.7146 29.5638 46.6356 0.0000 0.0000 0.0000
# 2 29.5638 148.8849 47.7996 0.0000 0.0000 0.0000
# 3 46.6356 47.7996 118.7811 0.0000 0.0000 0.0000
# 4 0.0000 0.0000 0.0000 32.6625 0.0000 0.0000
# 5 0.0000 0.0000 0.0000 0.0000 -4.5927 0.0000
# 6 0.0000 0.0000 0.0000 0.0000 0.0000 19.3913
#
#
#
# Elastic Compliance Matrix: (Units=1/GPa)
#
#
# Indices 1 2 3 4 5 6 
#
# 1 0.007547 -0.000628 -0.002710 0.000000 0.000000 0.000000
# 2 -0.000628 0.007765 -0.002878 0.000000 0.000000 0.000000
# 3 -0.002710 -0.002878 0.010641 0.000000 0.000000 0.000000
# 4 0.000000 0.000000 0.000000 0.030616 0.000000 0.000000
# 5 0.000000 0.000000 0.000000 0.000000 -0.217739 0.000000
# 6 0.000000 0.000000 0.000000 0.000000 0.000000 0.051569
#
#
# Mechanical properties :
#
#
# Convention : Reuss Voigt Hill
#
# Bulk Modulus (GPa) = 73.96544 74.15318 74.05931
# Shear Modulus (GPa) = -53.96092 29.18434 -12.38829
#
# Velocity S-wave (km/s) = -5.20068 3.82469 -2.49188
# Velocity P-wave (km/s) = 1.00562 7.52811 5.37046
#
# Compressibility (1/GPa) = 0.01351983
#
# Stress axis : x y z
#
# Youngs Moduli (GPa) = 132.50547 128.77569 93.97502
#
# Poissons Ratio (x) = 0.08093 0.25468
# Poissons Ratio (y) = 0.08328 0.27048
# Poissons Ratio (z) = 0.35911 0.37064
#
# Static dielectric constant tensor:
#      x y z
#    x 1.701440 0.000000 0.000000 
#    y 0.000000 1.713620 0.000000 
#    z 0.000000 0.000000 1.669660 
# 
# From -- ./inp_files/32368.got.cif
#   From: 2010.05.17/outbox.cif.g08.bks.cpg/sg42_17_cif.got.tgz:32368.got - 2010.06.03 19:03:34.
