data_PCOD9369424
_publ_section_title
;
Structure prediction by ZEFSAII (Michael W. Deem and Ramdas Pophale) SiO2 
 PCOD9369424
Probable space group: F M M 2
;
_chemical_formula_sum "Si O2"
_cell_formula_units_Z 112
_cell_length_a 14.512134
_cell_length_b 15.334741
_cell_length_c 23.835167
_cell_angle_alpha 90.000000
_cell_angle_beta 90.000000
_cell_angle_gamma 90.000000
_cell_volume 5304.273684
_symmetry_space_group_name_H-M "F M M 2"
_symmetry_group_IT_number 42
_symmetry_cell_setting 'orthorhombic'
loop_
_space_group_symop_operation_xyz
x,y,z
-x,-y,z
-x,y,z
x,-y,z
x,1/2+y,1/2+z
-x,1/2-y,1/2+z
-x,1/2+y,1/2+z
x,1/2-y,1/2+z
1/2+x,y,1/2+z
1/2-x,-y,1/2+z
1/2-x,y,1/2+z
1/2+x,-y,1/2+z
1/2+x,1/2+y,z
1/2-x,1/2-y,z
1/2-x,1/2+y,z
1/2+x,1/2-y,z
loop_
_atom_site_type_symbol
_atom_site_label
_atom_site_fract_x
_atom_site_fract_y
_atom_site_fract_z
Si Si1 0.300453 0.095845 0.599510
Si Si2 0.397876 0.598191 0.845335
Si Si3 0.397137 0.644453 0.634268
Si Si4 0.300803 0.602227 0.310405
Si Si5 0.395403 0.729615 0.026812
Si Si6 0.891304 0.691147 0.704410
Si Si7 0.607018 0.716313 0.404912
O O1 0.194758 0.092560 0.619926
O O2 0.322259 0.158039 0.546963
O O3 0.355996 0.134911 0.651970
O O4 0.333535 0.000000 0.585890
O O5 0.500000 0.604712 0.819022
O O6 0.393021 0.500000 0.871622
O O7 0.309703 0.602929 0.805697
O O8 0.388393 0.682659 0.884792
O O9 0.500000 0.605602 0.641884
O O10 0.403231 0.706161 0.579493
O O11 0.375699 0.708695 0.686386
O O12 0.329981 0.500000 0.310357
O O13 0.343546 0.657076 0.260023
O O14 0.331529 0.652603 0.367049
O O15 0.500000 0.693135 0.017635
O O16 0.369542 0.780457 0.970459
O O17 0.000000 0.680019 0.710772
O O18 0.500000 0.688922 0.398192
#
# Coordination Sequence:
#
# PCOD9369424 Si02
#       7
#    16  16  16  16  16  16  16
#     4  11  22  35  58  91 121 150 190 246 305 356
#     4   9  20  38  56  78 112 155 205 253 296 356
#     4   9  20  39  60  82 112 154 199 239 288 354
#     4  11  23  38  60  90 123 160 203 256 316 374
#     4   9  19  37  59  82 112 152 197 243 292 353
#     4  10  21  39  62  85 114 152 195 245 298 359
#     4  10  21  37  59  86 118 158 200 248 308 369
#
# _framework density 21.115048999999999
#
# number of rings (size 3 to 8) (size 9 to 14) (size 15 to 20)
#    0.000    2.143    0.000    4.286    0.000    8.286 
#    0.000    5.714    0.000    5.143    0.000    0.000 
#    0.000    0.000    0.000    0.000    0.000    0.000 
#
# Total GULP energy -156225.187954 kJ/mol
# GULP energy per Si atom -5579.470998 kJ/mol
# Density = 2.106699 g / cm^3
# Si number density = 21.115049 Si / 1000 Ang^3
#
#
#
# Elastic Constant Matrix: (Units=GPa)
#
#
# Indices 1 2 3 4 5 6 
#
# 1 106.1857 39.8274 44.8600 0.0000 0.0000 0.0000
# 2 39.8274 85.5011 43.7159 0.0000 0.0000 0.0000
# 3 44.8600 43.7159 108.9459 0.0000 0.0000 0.0000
# 4 0.0000 0.0000 0.0000 7.4766 0.0000 0.0000
# 5 0.0000 0.0000 0.0000 0.0000 20.3980 0.0000
# 6 0.0000 0.0000 0.0000 0.0000 0.0000 -57.8645
#
#
#
# Elastic Compliance Matrix: (Units=1/GPa)
#
#
# Indices 1 2 3 4 5 6 
#
# 1 0.012391 -0.003980 -0.003505 0.000000 0.000000 0.000000
# 2 -0.003980 0.015993 -0.004779 0.000000 0.000000 0.000000
# 3 -0.003505 -0.004779 0.012540 0.000000 0.000000 0.000000
# 4 0.000000 0.000000 0.000000 0.133750 0.000000 0.000000
# 5 0.000000 0.000000 0.000000 0.000000 0.049024 0.000000
# 6 0.000000 0.000000 0.000000 0.000000 0.000000 -0.017282
#
#
# Mechanical properties :
#
#
# Convention : Reuss Voigt Hill
#
# Bulk Modulus (GPa) = 60.98915 61.93771 61.46343
# Shear Modulus (GPa) = 21.14981 5.48397 13.31689
#
# Velocity S-wave (km/s) = 3.16831 1.61333 2.51406
# Velocity P-wave (km/s) = 6.50624 5.73302 6.13183
#
# Compressibility (1/GPa) = 0.01639636
#
# Stress axis : x y z
#
# Youngs Moduli (GPa) = 80.70382 62.52813 79.74669
#
# Poissons Ratio (x) = 0.24884 0.27953
# Poissons Ratio (y) = 0.32117 0.38108
# Poissons Ratio (z) = 0.28289 0.29880
#
# Static dielectric constant tensor:
#      x y z
#    x 1.815790 0.000000 0.000000 
#    y 0.000000 1.801300 0.000000 
#    z 0.000000 0.000000 1.732080 
# 
# From -- ./inp_files/29474.got.cif
#   From: 2010.05.17/outbox.cif.g08.bks.cpg/sg42_15_cif.got.tgz:29474.got - 2010.06.03 19:03:34.
