data_PCOD9369051
_publ_section_title
;
Structure prediction by ZEFSAII (Michael W. Deem and Ramdas Pophale) SiO2 
 PCOD9369051
Probable space group: F M M 2
;
_chemical_formula_sum "Si O2"
_cell_formula_units_Z 96
_cell_length_a 23.126072
_cell_length_b 17.695495
_cell_length_c 13.154292
_cell_angle_alpha 90.000000
_cell_angle_beta 90.000000
_cell_angle_gamma 90.000000
_cell_volume 5383.095286
_symmetry_space_group_name_H-M "F M M 2"
_symmetry_group_IT_number 42
_symmetry_cell_setting 'orthorhombic'
loop_
_space_group_symop_operation_xyz
x,y,z
-x,-y,z
-x,y,z
x,-y,z
x,1/2+y,1/2+z
-x,1/2-y,1/2+z
-x,1/2+y,1/2+z
x,1/2-y,1/2+z
1/2+x,y,1/2+z
1/2-x,-y,1/2+z
1/2-x,y,1/2+z
1/2+x,-y,1/2+z
1/2+x,1/2+y,z
1/2-x,1/2-y,z
1/2-x,1/2+y,z
1/2+x,1/2-y,z
loop_
_atom_site_type_symbol
_atom_site_label
_atom_site_fract_x
_atom_site_fract_y
_atom_site_fract_z
Si Si1 0.568526 0.828448 0.902270
Si Si2 0.881010 0.307137 0.527182
Si Si3 0.193624 0.697541 0.158425
Si Si4 0.321418 0.411998 0.479954
Si Si5 0.778495 0.332553 0.381108
Si Si6 0.568940 0.413014 0.193211
O O1 0.500000 0.841343 0.919619
O O2 0.614063 0.881366 0.960986
O O3 0.581837 0.854649 0.786120
O O4 0.584307 0.744346 0.944304
O O5 0.857769 0.248456 0.612891
O O6 0.826057 0.340920 0.468051
O O7 0.912136 0.373574 0.588434
O O8 0.250000 0.750000 0.156846
O O9 0.189774 0.667837 0.272853
O O10 0.201194 0.629568 0.080314
O O11 0.322269 0.500000 0.491279
O O12 0.275992 0.387931 0.392257
O O13 0.750000 0.250000 0.395439
O O14 0.500000 0.419064 0.192619
O O15 0.591540 0.500000 0.207711
#
# Coordination Sequence:
#
# PCOD9369051 Si02
#       6
#    16  16  16  16  16  16
#     4  10  21  38  58  81 113 154 197 238 282 336
#     4  11  19  36  60  88 108 153 189 236 281 350
#     4  10  20  36  55  79 114 144 183 228 274 339
#     4  11  22  36  54  82 115 148 186 230 284 343
#     4  11  20  36  57  82 111 145 179 226 284 340
#     4  10  22  38  57  87 120 148 190 247 294 334
#
# _framework density 17.833606
#
# number of rings (size 3 to 8) (size 9 to 14) (size 15 to 20)
#    0.000    1.500    5.000    2.000    2.333    2.333 
#    0.000    0.000    0.000    1.000    0.000    0.000 
#    0.000    0.000    0.000    0.000    0.000    0.000 
#
# Total GULP energy -133686.272198 kJ/mol
# GULP energy per Si atom -5570.261342 kJ/mol
# Density = 1.779302 g / cm^3
# Si number density = 17.833606 Si / 1000 Ang^3
#
#
#
# Elastic Constant Matrix: (Units=GPa)
#
#
# Indices 1 2 3 4 5 6 
#
# 1 68.7039 31.4180 32.9397 0.0000 0.0000 0.0000
# 2 31.4180 84.6649 27.2856 0.0000 0.0000 0.0000
# 3 32.9397 27.2856 93.2904 0.0000 0.0000 0.0000
# 4 0.0000 0.0000 0.0000 1.1491 0.0000 0.0000
# 5 0.0000 0.0000 0.0000 0.0000 29.0451 0.0000
# 6 0.0000 0.0000 0.0000 0.0000 0.0000 17.5264
#
#
#
# Elastic Compliance Matrix: (Units=1/GPa)
#
#
# Indices 1 2 3 4 5 6 
#
# 1 0.019652 -0.005583 -0.005306 0.000000 0.000000 0.000000
# 2 -0.005583 0.014626 -0.002307 0.000000 0.000000 0.000000
# 3 -0.005306 -0.002307 0.013267 0.000000 0.000000 0.000000
# 4 0.000000 0.000000 0.000000 0.870221 0.000000 0.000000
# 5 0.000000 0.000000 0.000000 0.000000 0.034429 0.000000
# 6 0.000000 0.000000 0.000000 0.000000 0.000000 0.057057
#
#
# Mechanical properties :
#
#
# Convention : Reuss Voigt Hill
#
# Bulk Modulus (GPa) = 47.27038 47.77175 47.52107
# Shear Modulus (GPa) = 4.79526 19.87851 12.33689
#
# Velocity S-wave (km/s) = 1.64156 3.34228 2.63302
# Velocity P-wave (km/s) = 5.49153 6.46066 5.99571
#
# Compressibility (1/GPa) = 0.02115490
#
# Stress axis : x y z
#
# Youngs Moduli (GPa) = 50.88511 68.36988 75.37254
#
# Poissons Ratio (x) = 0.38168 0.39994
# Poissons Ratio (y) = 0.28407 0.17387
# Poissons Ratio (z) = 0.27000 0.15771
#
# Static dielectric constant tensor:
#      x y z
#    x 1.574280 0.000000 0.000000 
#    y 0.000000 1.610550 0.000000 
#    z 0.000000 0.000000 1.651180 
# 
# From -- ./inp_files/8822.got.cif
#   From: 2010.05.17/outbox.cif.g08.bks.cpg/sg42_5_cif.got.tgz:8822.got - 2010.06.03 19:03:34.
