data_PCOD9369557
_publ_section_title
;
Structure prediction by ZEFSAII (Michael W. Deem and Ramdas Pophale) SiO2 
 PCOD9369557
Probable space group: F M M 2
;
_chemical_formula_sum "Si O2"
_cell_formula_units_Z 96
_cell_length_a 27.780026
_cell_length_b 20.478798
_cell_length_c 8.894494
_cell_angle_alpha 90.000000
_cell_angle_beta 90.000000
_cell_angle_gamma 90.000000
_cell_volume 5060.091342
_symmetry_space_group_name_H-M "F M M 2"
_symmetry_group_IT_number 42
_symmetry_cell_setting 'orthorhombic'
loop_
_space_group_symop_operation_xyz
x,y,z
-x,-y,z
-x,y,z
x,-y,z
x,1/2+y,1/2+z
-x,1/2-y,1/2+z
-x,1/2+y,1/2+z
x,1/2-y,1/2+z
1/2+x,y,1/2+z
1/2-x,-y,1/2+z
1/2-x,y,1/2+z
1/2+x,-y,1/2+z
1/2+x,1/2+y,z
1/2-x,1/2-y,z
1/2-x,1/2+y,z
1/2+x,1/2-y,z
loop_
_atom_site_type_symbol
_atom_site_label
_atom_site_fract_x
_atom_site_fract_y
_atom_site_fract_z
Si Si1 0.806613 0.307238 0.681540
Si Si2 0.052993 0.072795 0.333065
Si Si3 0.917843 0.812012 0.123846
Si Si4 0.288595 0.333158 0.535717
Si Si5 0.875871 0.924182 0.611815
Si Si6 0.443785 0.174799 0.278464
O O1 0.861033 0.325468 0.643019
O O2 0.766777 0.344802 0.581828
O O3 0.802093 0.231484 0.631806
O O4 0.795453 0.317379 0.858564
O O5 0.056594 0.130539 0.215004
O O6 0.094354 0.080000 0.456051
O O7 0.000000 0.076122 0.406460
O O8 0.057369 0.000000 0.265067
O O9 0.930038 0.741306 0.191920
O O10 0.934379 0.812507 0.953103
O O11 0.324638 0.390075 0.584555
O O12 0.908189 0.882332 0.725641
O O13 0.871524 0.000000 0.654000
O O14 0.500000 0.159749 0.252279
#
# Coordination Sequence:
#
# PCOD9369557 Si02
#       6
#    16  16  16  16  16  16
#     4  11  22  38  68  95 126 158 206 262 317 381
#     4  10  21  40  64  88 123 170 212 255 316 384
#     4  12  23  41  64  98 129 163 210 270 322 376
#     4  11  22  40  65  99 122 164 208 258 319 380
#     4  11  24  43  64  90 129 171 215 263 316 380
#     4  12  25  39  64  96 130 169 216 267 317 376
#
# _framework density 18.971990000000002
#
# number of rings (size 3 to 8) (size 9 to 14) (size 15 to 20)
#    0.000    0.833    3.333    6.000    2.333    1.667 
#    0.000    1.667    0.000    0.000    0.000    0.000 
#    0.000    0.000    0.000    0.000    0.000    0.000 
#
# Total GULP energy -134118.876563 kJ/mol
# GULP energy per Si atom -5588.286523 kJ/mol
# Density = 1.892881 g / cm^3
# Si number density = 18.971990 Si / 1000 Ang^3
#
#
#
# Elastic Constant Matrix: (Units=GPa)
#
#
# Indices 1 2 3 4 5 6 
#
# 1 136.8657 39.2563 13.3720 0.0000 0.0000 0.0000
# 2 39.2563 122.0034 41.9217 0.0001 0.0000 0.0000
# 3 13.3720 41.9217 72.7112 0.0001 0.0000 0.0000
# 4 0.0000 0.0001 0.0001 22.8753 0.0000 0.0000
# 5 0.0000 0.0000 0.0000 0.0000 31.4440 0.0000
# 6 0.0000 0.0000 0.0000 0.0000 0.0000 28.1915
#
#
#
# Elastic Compliance Matrix: (Units=1/GPa)
#
#
# Indices 1 2 3 4 5 6 
#
# 1 0.008049 -0.002596 0.000016 0.000000 0.000000 0.000000
# 2 -0.002596 0.011058 -0.005898 0.000000 0.000000 0.000000
# 3 0.000016 -0.005898 0.017151 0.000000 0.000000 0.000000
# 4 0.000000 0.000000 0.000000 0.043715 0.000000 0.000000
# 5 0.000000 0.000000 0.000000 0.000000 0.031803 0.000000
# 6 0.000000 0.000000 0.000000 0.000000 0.000000 0.035472
#
#
# Mechanical properties :
#
#
# Convention : Reuss Voigt Hill
#
# Bulk Modulus (GPa) = 51.80557 57.85337 54.82947
# Shear Modulus (GPa) = 29.30180 32.30417 30.80299
#
# Velocity S-wave (km/s) = 3.93425 4.13089 4.03377
# Velocity P-wave (km/s) = 6.92845 7.30155 7.11744
#
# Compressibility (1/GPa) = 0.01930294
#
# Stress axis : x y z
#
# Youngs Moduli (GPa) = 124.23418 90.42901 58.30632
#
# Poissons Ratio (x) = 0.23471 -0.00094
# Poissons Ratio (y) = 0.32245 0.34391
# Poissons Ratio (z) = -0.00201 0.53339
#
# Static dielectric constant tensor:
#      x y z
#    x 1.683640 0.000000 0.000000 
#    y 0.000000 1.638640 0.000000 
#    z 0.000000 0.000000 1.636280 
# 
# From -- ./inp_files/5175.got.cif
#   From: 2010.05.17/outbox.cif.g08.bks.cpg/sg42_3_cif.got.tgz:5175.got - 2010.06.03 19:03:34.
