data_PCOD9369463
_publ_section_title
;
Structure prediction by ZEFSAII (Michael W. Deem and Ramdas Pophale) SiO2 
 PCOD9369463
Probable space group: F M M 2
;
_chemical_formula_sum "Si O2"
_cell_formula_units_Z 64
_cell_length_a 13.919830
_cell_length_b 22.733978
_cell_length_c 9.307437
_cell_angle_alpha 90.000000
_cell_angle_beta 90.000000
_cell_angle_gamma 90.000000
_cell_volume 2945.367375
_symmetry_space_group_name_H-M "F M M 2"
_symmetry_group_IT_number 42
_symmetry_cell_setting 'orthorhombic'
loop_
_space_group_symop_operation_xyz
x,y,z
-x,-y,z
-x,y,z
x,-y,z
x,1/2+y,1/2+z
-x,1/2-y,1/2+z
-x,1/2+y,1/2+z
x,1/2-y,1/2+z
1/2+x,y,1/2+z
1/2-x,-y,1/2+z
1/2-x,y,1/2+z
1/2+x,-y,1/2+z
1/2+x,1/2+y,z
1/2-x,1/2-y,z
1/2-x,1/2+y,z
1/2+x,1/2-y,z
loop_
_atom_site_type_symbol
_atom_site_label
_atom_site_fract_x
_atom_site_fract_y
_atom_site_fract_z
Si Si1 0.109075 0.743235 0.449260
Si Si2 0.306676 0.173884 0.706831
Si Si3 0.885365 0.934879 0.363345
Si Si4 0.892873 0.361279 0.136263
O O1 0.155011 0.773921 0.309320
O O2 0.171076 0.697857 0.546106
O O3 0.097421 0.800840 0.548553
O O4 0.000000 0.721064 0.419611
O O5 0.362859 0.114718 0.746386
O O6 0.196853 0.153912 0.736562
O O7 0.857920 0.909596 0.520316
O O8 0.000000 0.938690 0.369661
O O9 0.845419 0.000000 0.335801
O O10 0.000000 0.377135 0.190428
#
# Coordination Sequence:
#
# PCOD9369463 Si02
#       4
#    16  16  16  16
#     4  10  21  38  59  87 122 158 201 252 310 371
#     4  11  21  36  61  92 124 162 203 250 308 371
#     4   9  19  38  62  88 120 159 204 255 314 375
#     4   9  20  36  56  84 119 161 205 250 300 361
#
# _framework density 21.729037000000002
#
# number of rings (size 3 to 8) (size 9 to 14) (size 15 to 20)
#    0.000    2.250    0.000    4.500    0.000    9.000 
#    0.000    6.250    0.000   12.000    0.000    1.750 
#    0.000    8.000    0.000    0.000    0.000    0.000 
#
# Total GULP energy -89208.344997 kJ/mol
# GULP energy per Si atom -5575.521562 kJ/mol
# Density = 2.167958 g / cm^3
# Si number density = 21.729037 Si / 1000 Ang^3
#
#
#
# Elastic Constant Matrix: (Units=GPa)
#
#
# Indices 1 2 3 4 5 6 
#
# 1 124.3019 12.3827 36.1304 0.0000 0.0000 0.0000
# 2 12.3827 154.5181 47.6785 0.0000 0.0000 0.0000
# 3 36.1304 47.6785 108.1975 0.0000 0.0000 0.0000
# 4 0.0000 0.0000 0.0000 22.3429 0.0000 0.0000
# 5 0.0000 0.0000 0.0000 0.0000 25.5361 0.0000
# 6 0.0000 0.0000 0.0000 0.0000 0.0000 23.0651
#
#
#
# Elastic Compliance Matrix: (Units=1/GPa)
#
#
# Indices 1 2 3 4 5 6 
#
# 1 0.008917 0.000236 -0.003082 0.000000 0.000000 0.000000
# 2 0.000236 0.007496 -0.003382 0.000000 0.000000 0.000000
# 3 -0.003082 -0.003382 0.011762 0.000000 0.000000 0.000000
# 4 0.000000 0.000000 0.000000 0.044757 0.000000 0.000000
# 5 0.000000 0.000000 0.000000 0.000000 0.039160 0.000000
# 6 0.000000 0.000000 0.000000 0.000000 0.000000 0.043355
#
#
# Mechanical properties :
#
#
# Convention : Reuss Voigt Hill
#
# Bulk Modulus (GPa) = 63.61363 64.37784 63.99574
# Shear Modulus (GPa) = 28.87774 33.57724 31.22749
#
# Velocity S-wave (km/s) = 3.64949 3.93526 3.79506
# Velocity P-wave (km/s) = 6.86278 7.09508 6.97990
#
# Compressibility (1/GPa) = 0.01571990
#
# Stress axis : x y z
#
# Youngs Moduli (GPa) = 112.14309 133.39654 85.02005
#
# Poissons Ratio (x) = -0.03153 0.26202
# Poissons Ratio (y) = -0.02650 0.28756
# Poissons Ratio (z) = 0.34561 0.45119
#
# Static dielectric constant tensor:
#      x y z
#    x 1.923760 0.000000 0.000000 
#    y 0.000000 1.819790 0.000000 
#    z 0.000000 0.000000 1.844490 
# 
# From -- ./inp_files/2678.got.cif
#   From: 2010.05.17/outbox.cif.g08.bks.cpg/sg42_2_cif.got.tgz:2678.got - 2010.06.03 19:03:34.
