data_PCOD9369020
_publ_section_title
;
Structure prediction by ZEFSAII (Michael W. Deem and Ramdas Pophale) SiO2 
 PCOD9369020
Probable space group: F M M 2
;
_chemical_formula_sum "Si O2"
_cell_formula_units_Z 112
_cell_length_a 15.417418
_cell_length_b 13.411842
_cell_length_c 22.767091
_cell_angle_alpha 90.000000
_cell_angle_beta 90.000000
_cell_angle_gamma 90.000000
_cell_volume 4707.687423
_symmetry_space_group_name_H-M "F M M 2"
_symmetry_group_IT_number 42
_symmetry_cell_setting 'orthorhombic'
loop_
_space_group_symop_operation_xyz
x,y,z
-x,-y,z
-x,y,z
x,-y,z
x,1/2+y,1/2+z
-x,1/2-y,1/2+z
-x,1/2+y,1/2+z
x,1/2-y,1/2+z
1/2+x,y,1/2+z
1/2-x,-y,1/2+z
1/2-x,y,1/2+z
1/2+x,-y,1/2+z
1/2+x,1/2+y,z
1/2-x,1/2-y,z
1/2-x,1/2+y,z
1/2+x,1/2-y,z
loop_
_atom_site_type_symbol
_atom_site_label
_atom_site_fract_x
_atom_site_fract_y
_atom_site_fract_z
Si Si1 0.601308 0.329754 0.732040
Si Si2 0.598113 0.793396 0.358797
Si Si3 0.727454 0.635173 0.630443
Si Si4 0.143018 0.113466 0.978301
Si Si5 0.902786 0.894116 0.186125
Si Si6 0.903642 0.678415 0.034407
Si Si7 0.331227 0.889330 0.920005
O O1 0.500000 0.356084 0.721938
O O2 0.625218 0.348762 0.799567
O O3 0.666782 0.381139 0.687032
O O4 0.609452 0.209359 0.721149
O O5 0.500000 0.757275 0.347600
O O6 0.596816 0.862270 0.416350
O O7 0.656973 0.698310 0.373627
O O8 0.750000 0.750000 0.627025
O O9 0.823979 0.596584 0.640527
O O10 0.665887 0.620625 0.574514
O O11 0.242733 0.121431 0.957237
O O12 0.125651 0.000000 0.998220
O O13 0.120927 0.205076 0.021702
O O14 0.000000 0.886690 0.159820
O O15 0.900970 0.000000 0.220305
O O16 0.000000 0.674461 0.060679
O O17 0.902593 0.629707 0.970094
O O18 0.335154 0.000000 0.895297
#
# Coordination Sequence:
#
# PCOD9369020 Si02
#       7
#    16  16  16  16  16  16  16
#     4   9  19  36  57  83 117 156 196 240 293 355
#     4  10  20  35  58  86 116 152 196 248 305 365
#     4  10  20  36  58  82 114 154 190 233 290 352
#     4  10  21  38  60  85 116 156 203 259 317 364
#     4   9  19  36  58  86 118 153 197 246 295 353
#     4  11  22  37  60  87 117 156 202 249 298 359
#     4  10  21  36  55  81 114 153 199 249 300 357
#
# _framework density 23.790873999999999
#
# number of rings (size 3 to 8) (size 9 to 14) (size 15 to 20)
#    0.000    2.143    0.000    4.714    0.000    7.429 
#    0.000    7.857    0.000    5.571    0.000    0.000 
#    0.000    0.000    0.000    0.000    0.000    0.000 
#
# Total GULP energy -156251.884315 kJ/mol
# GULP energy per Si atom -5580.424440 kJ/mol
# Density = 2.373672 g / cm^3
# Si number density = 23.790874 Si / 1000 Ang^3
#
#
#
# Elastic Constant Matrix: (Units=GPa)
#
#
# Indices 1 2 3 4 5 6 
#
# 1 127.0587 11.4023 40.5885 0.0000 0.0000 0.0000
# 2 11.4023 83.5042 -8.9433 0.0000 0.0000 0.0000
# 3 40.5885 -8.9433 111.1786 0.0000 0.0000 0.0000
# 4 0.0000 0.0000 0.0000 -4.9509 0.0000 0.0000
# 5 0.0000 0.0000 0.0000 0.0000 30.5787 0.0000
# 6 0.0000 0.0000 0.0000 0.0000 0.0000 -32.1256
#
#
#
# Elastic Compliance Matrix: (Units=1/GPa)
#
#
# Indices 1 2 3 4 5 6 
#
# 1 0.009121 -0.001616 -0.003460 0.000000 0.000000 0.000000
# 2 -0.001616 0.012366 0.001585 0.000000 0.000000 0.000000
# 3 -0.003460 0.001585 0.010385 0.000000 0.000000 0.000000
# 4 0.000000 0.000000 0.000000 -0.201982 0.000000 0.000000
# 5 0.000000 0.000000 0.000000 0.000000 0.032703 0.000000
# 6 0.000000 0.000000 0.000000 0.000000 0.000000 -0.031128
#
#
# Mechanical properties :
#
#
# Convention : Reuss Voigt Hill
#
# Bulk Modulus (GPa) = 40.17751 45.31515 42.74633
# Shear Modulus (GPa) = -32.62486 17.28003 -7.67241
#
# Velocity S-wave (km/s) = -3.70715 2.69798 -1.79776
# Velocity P-wave (km/s) = 1.18300 5.36601 3.70098
#
# Compressibility (1/GPa) = 0.02488955
#
# Stress axis : x y z
#
# Youngs Moduli (GPa) = 109.64218 80.86809 96.29224
#
# Poissons Ratio (x) = 0.13068 0.33314
# Poissons Ratio (y) = 0.17717 -0.15259
# Poissons Ratio (z) = 0.37933 -0.12815
#
# Static dielectric constant tensor:
#      x y z
#    x 2.018840 0.000000 0.000000 
#    y 0.000000 1.960100 0.000000 
#    z 0.000000 0.000000 1.900040 
# 
# From -- ./inp_files/29522.got.cif
#   From: 2010.05.17/outbox.cif.g08.bks.cpg/sg42_15_cif.got.tgz:29522.got - 2010.06.03 19:03:34.
