data_PCOD9369800
_publ_section_title
;
Structure prediction by ZEFSAII (Michael W. Deem and Ramdas Pophale) SiO2 
 PCOD9369800
Probable space group: F M M 2
;
_chemical_formula_sum "Si O2"
_cell_formula_units_Z 88
_cell_length_a 20.255958
_cell_length_b 23.656926
_cell_length_c 9.371123
_cell_angle_alpha 90.000000
_cell_angle_beta 90.000000
_cell_angle_gamma 90.000000
_cell_volume 4490.583099
_symmetry_space_group_name_H-M "F M M 2"
_symmetry_group_IT_number 42
_symmetry_cell_setting 'orthorhombic'
loop_
_space_group_symop_operation_xyz
x,y,z
-x,-y,z
-x,y,z
x,-y,z
x,1/2+y,1/2+z
-x,1/2-y,1/2+z
-x,1/2+y,1/2+z
x,1/2-y,1/2+z
1/2+x,y,1/2+z
1/2-x,-y,1/2+z
1/2-x,y,1/2+z
1/2+x,-y,1/2+z
1/2+x,1/2+y,z
1/2-x,1/2-y,z
1/2-x,1/2+y,z
1/2+x,1/2-y,z
loop_
_atom_site_type_symbol
_atom_site_label
_atom_site_fract_x
_atom_site_fract_y
_atom_site_fract_z
Si Si1 0.896537 0.750000 0.634400
Si Si2 0.500000 0.279219 0.384400
Si Si3 0.075042 0.931961 0.550712
Si Si4 0.318545 0.860821 0.217943
Si Si5 0.818545 0.860821 0.050857
Si Si6 0.575042 0.568039 0.218087
O O1 0.942543 0.775260 0.509998
O O2 0.851006 0.799448 0.697074
O O3 0.851006 0.700552 0.571725
O O4 0.942543 0.724740 0.758802
O O5 0.128953 0.904102 0.650097
O O6 0.084703 0.915734 0.384400
O O7 0.000000 0.914545 0.589339
O O8 0.078025 0.000000 0.558005
O O9 0.250000 0.864464 0.134400
O O10 0.308405 0.872429 0.384400
O O11 0.871047 0.904102 0.118703
O O12 0.500000 0.585455 0.179460
O O13 0.578025 0.500000 0.210794
#
# Coordination Sequence:
#
# PCOD9369800 Si02
#       6
#    16   8  16  16  16  16
#     4  11  25  42  66  98 130 164 208 260 316 374
#     4  10  24  42  66  98 126 166 206 264 310 372
#     4   9  21  42  69  97 125 162 209 261 316 373
#     4  12  27  42  63  92 129 172 212 257 315 376
#     4  12  27  42  63  92 129 172 212 257 315 376
#     4   9  21  42  69  97 125 162 209 261 316 373
#
# _framework density 19.596564999999998
#
# number of rings (size 3 to 8) (size 9 to 14) (size 15 to 20)
#    0.000    1.455    1.818    2.727   10.182    3.636 
#    0.000    1.818    0.000    0.000    0.000    0.000 
#    0.000    0.000    0.000    0.000    0.000    0.000 
#
# Total GULP energy -122532.603858 kJ/mol
# GULP energy per Si atom -5569.663812 kJ/mol
# Density = 1.955196 g / cm^3
# Si number density = 19.596565 Si / 1000 Ang^3
#
#
#
# Elastic Constant Matrix: (Units=GPa)
#
#
# Indices 1 2 3 4 5 6 
#
# 1 180.3356 50.9189 112.4393 0.0000 0.0000 0.0000
# 2 50.9189 55.4420 31.2205 0.0000 0.0000 0.0000
# 3 112.4393 31.2205 162.0578 0.0000 0.0000 0.0000
# 4 0.0000 0.0000 0.0000 20.8375 0.0000 0.0000
# 5 0.0000 0.0000 0.0000 0.0000 41.2755 0.0000
# 6 0.0000 0.0000 0.0000 0.0000 0.0000 7.7690
#
#
#
# Elastic Compliance Matrix: (Units=1/GPa)
#
#
# Indices 1 2 3 4 5 6 
#
# 1 0.011764 -0.006963 -0.006821 0.000000 0.000000 0.000000
# 2 -0.006963 0.024354 0.000140 0.000000 0.000000 0.000000
# 3 -0.006821 0.000140 0.010876 0.000000 0.000000 0.000000
# 4 0.000000 0.000000 0.000000 0.047990 0.000000 0.000000
# 5 0.000000 0.000000 0.000000 0.000000 0.024227 0.000000
# 6 0.000000 0.000000 0.000000 0.000000 0.000000 0.128717
#
#
# Mechanical properties :
#
#
# Convention : Reuss Voigt Hill
#
# Bulk Modulus (GPa) = 50.74900 87.44364 69.09632
# Shear Modulus (GPa) = 17.74396 27.52684 22.63540
#
# Velocity S-wave (km/s) = 3.01236 3.75197 3.40232
# Velocity P-wave (km/s) = 6.16864 7.96797 7.12533
#
# Compressibility (1/GPa) = 0.01970482
#
# Stress axis : x y z
#
# Youngs Moduli (GPa) = 85.00451 41.06170 91.94514
#
# Poissons Ratio (x) = 0.28593 0.62713
# Poissons Ratio (y) = 0.59193 -0.01284
# Poissons Ratio (z) = 0.57979 -0.00574
#
# Static dielectric constant tensor:
#      x y z
#    x 1.645270 0.000000 0.000000 
#    y 0.000000 1.721140 0.000000 
#    z 0.000000 0.000000 1.650870 
# 
# From -- ./inp_files/4030.got.cif
#   From: 2010.05.17/outbox.cif.g08.bks.cpg/sg42_3_cif.got.tgz:4030.got - 2010.06.03 19:03:34.
