data_PCOD9369693
_publ_section_title
;
Structure prediction by ZEFSAII (Michael W. Deem and Ramdas Pophale) SiO2 
 PCOD9369693
Probable space group: F M M 2
;
_chemical_formula_sum "Si O2"
_cell_formula_units_Z 72
_cell_length_a 18.162696
_cell_length_b 19.570454
_cell_length_c 9.598460
_cell_angle_alpha 90.000000
_cell_angle_beta 90.000000
_cell_angle_gamma 90.000000
_cell_volume 3411.793787
_symmetry_space_group_name_H-M "F M M 2"
_symmetry_group_IT_number 42
_symmetry_cell_setting 'orthorhombic'
loop_
_space_group_symop_operation_xyz
x,y,z
-x,-y,z
-x,y,z
x,-y,z
x,1/2+y,1/2+z
-x,1/2-y,1/2+z
-x,1/2+y,1/2+z
x,1/2-y,1/2+z
1/2+x,y,1/2+z
1/2-x,-y,1/2+z
1/2-x,y,1/2+z
1/2+x,-y,1/2+z
1/2+x,1/2+y,z
1/2-x,1/2-y,z
1/2-x,1/2+y,z
1/2+x,1/2-y,z
loop_
_atom_site_type_symbol
_atom_site_label
_atom_site_fract_x
_atom_site_fract_y
_atom_site_fract_z
Si Si1 0.878521 0.150811 0.353380
Si Si2 0.724177 0.500000 0.129866
Si Si3 0.250000 0.750000 0.435681
Si Si4 0.000000 0.840273 0.880891
Si Si5 0.135893 0.637540 0.548038
Si Si6 0.165426 0.500000 0.909823
Si Si7 0.500000 0.795523 0.058068
O O1 0.803033 0.195159 0.358351
O O2 0.873904 0.070102 0.378271
O O3 0.928622 0.174627 0.480258
O O4 0.903945 0.157423 0.193836
O O5 0.730735 0.500000 0.295933
O O6 0.681517 0.568356 0.080763
O O7 0.803410 0.500000 0.062532
O O8 0.192409 0.699265 0.513048
O O9 0.922953 0.875563 0.924425
O O10 0.000000 0.779213 0.992259
O O11 0.000000 0.812166 0.722432
#
# Coordination Sequence:
#
# PCOD9369693 Si02
#       7
#    16   8   8   8  16   8   8
#     4  11  24  42  66  97 133 172 216 263 323 384
#     4  10  22  41  64  95 133 173 213 265 320 383
#     4  12  22  36  72  98 134 160 218 260 326 376
#     4  12  26  43  66  95 131 169 215 269 326 386
#     4  11  24  42  66  97 133 172 216 263 323 384
#     4  10  22  41  64  95 133 173 213 265 320 383
#     4  12  26  43  66  95 131 169 215 269 326 386
#
# _framework density 21.103268
#
# number of rings (size 3 to 8) (size 9 to 14) (size 15 to 20)
#    0.000    0.889    4.444    2.667    0.000    4.444 
#    0.000    4.444    0.000    0.000    0.000    0.000 
#    0.000    0.000    0.000    0.000    0.000    0.000 
#
# Total GULP energy -100271.707533 kJ/mol
# GULP energy per Si atom -5570.650419 kJ/mol
# Density = 2.105524 g / cm^3
# Si number density = 21.103268 Si / 1000 Ang^3
#
#
#
# Elastic Constant Matrix: (Units=GPa)
#
#
# Indices 1 2 3 4 5 6 
#
# 1 61.0070 11.4623 28.6756 0.0000 0.0000 0.0000
# 2 11.4623 112.0739 5.3645 0.0000 0.0000 0.0000
# 3 28.6756 5.3645 109.4736 0.0000 0.0000 0.0000
# 4 0.0000 0.0000 0.0000 -23.9974 0.0000 0.0000
# 5 0.0000 0.0000 0.0000 0.0000 42.7248 0.0000
# 6 0.0000 0.0000 0.0000 0.0000 0.0000 4.4354
#
#
#
# Elastic Compliance Matrix: (Units=1/GPa)
#
#
# Indices 1 2 3 4 5 6 
#
# 1 0.019015 -0.001710 -0.004897 0.000000 0.000000 0.000000
# 2 -0.001710 0.009097 0.000002 0.000000 0.000000 0.000000
# 3 -0.004897 0.000002 0.010417 0.000000 0.000000 0.000000
# 4 0.000000 0.000000 0.000000 -0.041671 0.000000 0.000000
# 5 0.000000 0.000000 0.000000 0.000000 0.023406 0.000000
# 6 0.000000 0.000000 0.000000 0.000000 0.000000 0.225458
#
#
# Mechanical properties :
#
#
# Convention : Reuss Voigt Hill
#
# Bulk Modulus (GPa) = 39.49552 41.50658 40.50105
# Shear Modulus (GPa) = 18.70059 20.43604 19.56832
#
# Velocity S-wave (km/s) = 2.98005 3.11526 3.04841
# Velocity P-wave (km/s) = 5.53145 5.71409 5.62351
#
# Compressibility (1/GPa) = 0.02531933
#
# Stress axis : x y z
#
# Youngs Moduli (GPa) = 52.59108 109.92031 95.99503
#
# Poissons Ratio (x) = 0.18800 0.47008
# Poissons Ratio (y) = 0.08995 -0.00021
# Poissons Ratio (z) = 0.25753 -0.00024
#
# Static dielectric constant tensor:
#      x y z
#    x 1.872690 0.000000 0.000000 
#    y 0.000000 1.812490 0.000000 
#    z 0.000000 0.000000 1.754600 
# 
# From -- ./inp_files/3935.got.cif
#   From: 2010.05.17/outbox.cif.g08.bks.cpg/sg42_2_cif.got.tgz:3935.got - 2010.06.03 19:03:34.
