data_PCOD9369158
_publ_section_title
;
Structure prediction by ZEFSAII (Michael W. Deem and Ramdas Pophale) SiO2 
 PCOD9369158
Probable space group: F M M 2
;
_chemical_formula_sum "Si O2"
_cell_formula_units_Z 80
_cell_length_a 17.640519
_cell_length_b 25.804963
_cell_length_c 9.928158
_cell_angle_alpha 90.000000
_cell_angle_beta 90.000000
_cell_angle_gamma 90.000000
_cell_volume 4519.425993
_symmetry_space_group_name_H-M "F M M 2"
_symmetry_group_IT_number 42
_symmetry_cell_setting 'orthorhombic'
loop_
_space_group_symop_operation_xyz
x,y,z
-x,-y,z
-x,y,z
x,-y,z
x,1/2+y,1/2+z
-x,1/2-y,1/2+z
-x,1/2+y,1/2+z
x,1/2-y,1/2+z
1/2+x,y,1/2+z
1/2-x,-y,1/2+z
1/2-x,y,1/2+z
1/2+x,-y,1/2+z
1/2+x,1/2+y,z
1/2-x,1/2-y,z
1/2-x,1/2+y,z
1/2+x,1/2-y,z
loop_
_atom_site_type_symbol
_atom_site_label
_atom_site_fract_x
_atom_site_fract_y
_atom_site_fract_z
Si Si1 0.822388 0.713188 0.715580
Si Si2 0.305201 0.059679 0.381611
Si Si3 0.913119 0.860498 0.773630
Si Si4 0.088460 0.255053 0.448975
Si Si5 0.268754 0.613859 0.627503
O O1 0.750000 0.750000 0.738534
O O2 0.871055 0.735572 0.591179
O O3 0.870123 0.713764 0.853057
O O4 0.790349 0.657644 0.672676
O O5 0.383989 0.091385 0.365016
O O6 0.268192 0.067010 0.234589
O O7 0.253343 0.091657 0.484392
O O8 0.314164 0.000000 0.417551
O O9 0.905358 0.808405 0.861679
O O10 0.852518 0.861762 0.651565
O O11 0.000000 0.865780 0.731908
O O12 0.000000 0.243370 0.469067
#
# Coordination Sequence:
#
# PCOD9369158 Si02
#       5
#    16  16  16  16  16
#     4  12  21  36  58  82 114 149 189 226 279 337
#     4  10  20  37  59  86 112 146 192 239 286 337
#     4   9  20  37  56  82 113 146 189 232 280 338
#     4  11  23  37  55  82 116 153 189 231 279 338
#     4  10  21  36  58  86 111 147 190 235 283 333
#
# _framework density 17.701363000000001
#
# number of rings (size 3 to 8) (size 9 to 14) (size 15 to 20)
#    1.200    0.400    4.000    1.800    2.800    0.400 
#    0.000    0.000    0.000    1.200    0.000    0.000 
#    0.000    0.000    0.000    0.000    0.000    0.000 
#
# Total GULP energy -111467.762168 kJ/mol
# GULP energy per Si atom -5573.388108 kJ/mol
# Density = 1.766107 g / cm^3
# Si number density = 17.701363 Si / 1000 Ang^3
#
#
#
# Elastic Constant Matrix: (Units=GPa)
#
#
# Indices 1 2 3 4 5 6 
#
# 1 121.0810 11.3489 37.6065 0.0000 0.0000 0.0000
# 2 11.3489 38.7384 -7.1645 0.0000 0.0000 0.0000
# 3 37.6065 -7.1645 59.0061 0.0000 0.0000 0.0000
# 4 0.0000 0.0000 0.0000 23.2648 0.0000 0.0000
# 5 0.0000 0.0000 0.0000 0.0000 23.1300 0.0000
# 6 0.0000 0.0000 0.0000 0.0000 0.0000 1.8676
#
#
#
# Elastic Compliance Matrix: (Units=1/GPa)
#
#
# Indices 1 2 3 4 5 6 
#
# 1 0.011059 -0.004648 -0.007613 0.000000 0.000000 0.000000
# 2 -0.004648 0.028361 0.006406 0.000000 0.000000 0.000000
# 3 -0.007613 0.006406 0.022577 0.000000 0.000000 0.000000
# 4 0.000000 0.000000 0.000000 0.042983 0.000000 0.000000
# 5 0.000000 0.000000 0.000000 0.000000 0.043234 0.000000
# 6 0.000000 0.000000 0.000000 0.000000 0.000000 0.535457
#
#
# Mechanical properties :
#
#
# Convention : Reuss Voigt Hill
#
# Bulk Modulus (GPa) = 19.88578 33.60081 26.74329
# Shear Modulus (GPa) = 7.02106 21.45476 14.23791
#
# Velocity S-wave (km/s) = 1.99374 3.48521 2.83917
# Velocity P-wave (km/s) = 4.06921 5.93455 5.08809
#
# Compressibility (1/GPa) = 0.05028719
#
# Stress axis : x y z
#
# Youngs Moduli (GPa) = 90.42446 35.26023 44.29304
#
# Poissons Ratio (x) = 0.16388 0.33718
# Poissons Ratio (y) = 0.42027 -0.28373
# Poissons Ratio (z) = 0.68836 -0.22587
#
# Static dielectric constant tensor:
#      x y z
#    x 1.597390 0.000000 0.000000 
#    y 0.000000 1.607990 0.000000 
#    z 0.000000 0.000000 1.598680 
# 
# From -- ./inp_files/3508.got.cif
#   From: 2010.05.17/outbox.cif.g08.bks.cpg/sg42_2_cif.got.tgz:3508.got - 2010.06.03 19:03:34.
