data_PCOD9369999
_publ_section_title
;
Structure prediction by ZEFSAII (Michael W. Deem and Ramdas Pophale) SiO2 
 PCOD9369999
Probable space group: F M M 2
;
_chemical_formula_sum "Si O2"
_cell_formula_units_Z 20
_cell_length_a 18.000000
_cell_length_b 9.000000
_cell_length_c 27.000000
_cell_angle_alpha 90.000000
_cell_angle_beta 90.000000
_cell_angle_gamma 90.000000
_cell_volume 4374.000000
_symmetry_space_group_name_H-M "F M M 2"
_symmetry_group_IT_number 42
_symmetry_cell_setting 'orthorhombic'
loop_
_space_group_symop_operation_xyz
x,y,z
-x,-y,z
-x,y,z
x,-y,z
x,1/2+y,1/2+z
-x,1/2-y,1/2+z
-x,1/2+y,1/2+z
x,1/2-y,1/2+z
1/2+x,y,1/2+z
1/2-x,-y,1/2+z
1/2-x,y,1/2+z
1/2+x,-y,1/2+z
1/2+x,1/2+y,z
1/2-x,1/2-y,z
1/2-x,1/2+y,z
1/2+x,1/2-y,z
loop_
_atom_site_type_symbol
_atom_site_label
_atom_site_fract_x
_atom_site_fract_y
_atom_site_fract_z
Si Si1 0.830350 0.322196 0.534900
Si Si2 0.413392 0.678462 0.934923
Si Si3 0.089470 0.323728 0.834468
Si Si4 0.090527 0.326536 0.725782
Si Si5 0.089659 0.670924 0.125468
O O1 0.825252 0.500000 0.534959
O O2 0.750000 0.250000 0.538714
O O3 0.868834 0.274408 0.483447
O O4 0.878713 0.268620 0.581217
O O5 0.500000 0.723763 0.940381
O O6 0.411774 0.500000 0.932001
O O7 0.382512 0.743738 0.883611
O O8 0.102326 0.500000 0.837974
O O9 0.116345 0.273770 0.780137
O O10 0.000000 0.301020 0.834421
O O11 0.110582 0.500000 0.719702
O O12 0.115203 0.232275 0.678782
O O13 0.000000 0.321579 0.726586
O O14 0.112256 0.500000 0.119047
O O15 0.000000 0.677837 0.124652
#
# Coordination Sequence:
#
# PCOD9369999 Si02
#       5
#    16  16  16  16  16
#     4  11  23  38  54  72  99 135 173 213 259 307
#     4   9  18  32  51  75 101 130 164 203 250 302
#     4   8  14  25  44  72 103 132 162 199 244 292
#     4   8  14  26  45  71 103 135 164 198 246 299
#     4  10  20  33  52  79 106 133 169 211 253 299
#
# _framework density 4.5724739999999997
#
# number of rings (size 3 to 8) (size 9 to 14) (size 15 to 20)
#    0.000    2.800    0.000    3.000    0.000    4.400 
#    0.000    6.000    0.000    1.200    0.000    2.800 
#    0.000    0.000    0.000    0.000    0.000    0.000 
#
# Total GULP energy -111467.683007 kJ/mol
# GULP energy per Si atom -5573.384150 kJ/mol
# Density = 0.456207 g / cm^3
# Si number density = 4.572474 Si / 1000 Ang^3
#
#
#
# Elastic Constant Matrix: (Units=GPa)
#
#
# Indices 1 2 3 4 5 6 
#
# 1 13.5045 16.7251 23.3829 0.0000 0.0000 0.0000
# 2 16.7251 43.1024 51.4597 0.0000 0.0000 0.0000
# 3 23.3829 51.4597 165.3539 0.0000 0.0000 0.0000
# 4 0.0000 0.0000 0.0000 36.7172 0.0000 0.0000
# 5 0.0000 0.0000 0.0000 0.0000 -9.4928 0.0000
# 6 0.0000 0.0000 0.0000 0.0000 0.0000 15.5290
#
#
#
# Elastic Compliance Matrix: (Units=1/GPa)
#
#
# Indices 1 2 3 4 5 6 
#
# 1 0.144878 -0.050533 -0.004761 0.000000 0.000000 0.000000
# 2 -0.050533 0.054543 -0.009828 0.000000 0.000000 0.000000
# 3 -0.004761 -0.009828 0.009780 0.000000 0.000000 0.000000
# 4 0.000000 0.000000 0.000000 0.027235 0.000000 0.000000
# 5 0.000000 0.000000 0.000000 0.000000 -0.105343 0.000000
# 6 0.000000 0.000000 0.000000 0.000000 0.000000 0.064396
#
#
# Mechanical properties :
#
#
# Convention : Reuss Voigt Hill
#
# Bulk Modulus (GPa) = 12.66537 45.01068 28.83803
# Shear Modulus (GPa) = 14.20248 17.24353 15.72301
#
# Velocity S-wave (km/s) = 2.78963 3.07382 2.93517
# Velocity P-wave (km/s) = 4.16124 6.10417 5.22383
#
# Compressibility (1/GPa) = 0.07895544
#
# Stress axis : x y z
#
# Youngs Moduli (GPa) = 6.90238 18.33413 102.25394
#
# Poissons Ratio (x) = 0.92648 0.48683
# Poissons Ratio (y) = 0.34880 1.00499
# Poissons Ratio (z) = 0.03286 0.18019
#
# Static dielectric constant tensor:
#      x y z
#    x 1.613930 0.000000 0.000000 
#    y 0.000000 1.612630 0.000000 
#    z 0.000000 0.000000 1.642560 
# 
# From -- ./inp_files/31259.got.cif
#   From: 2010.05.17/outbox.ucp.g08.bks.cvg/sg42_16_cif.got.tgz:31259.got - 2010.06.11 16:29:10.
