data_PCOD9369350
_publ_section_title
;
Structure prediction by ZEFSAII (Michael W. Deem and Ramdas Pophale) SiO2 
 PCOD9369350
Probable space group: F M M 2
;
_chemical_formula_sum "Si O2"
_cell_formula_units_Z 80
_cell_length_a 18.904109
_cell_length_b 7.750705
_cell_length_c 26.577025
_cell_angle_alpha 90.000000
_cell_angle_beta 90.000000
_cell_angle_gamma 90.000000
_cell_volume 3894.070278
_symmetry_space_group_name_H-M "F M M 2"
_symmetry_group_IT_number 42
_symmetry_cell_setting 'orthorhombic'
loop_
_space_group_symop_operation_xyz
x,y,z
-x,-y,z
-x,y,z
x,-y,z
x,1/2+y,1/2+z
-x,1/2-y,1/2+z
-x,1/2+y,1/2+z
x,1/2-y,1/2+z
1/2+x,y,1/2+z
1/2-x,-y,1/2+z
1/2-x,y,1/2+z
1/2+x,-y,1/2+z
1/2+x,1/2+y,z
1/2-x,1/2-y,z
1/2-x,1/2+y,z
1/2+x,1/2-y,z
loop_
_atom_site_type_symbol
_atom_site_label
_atom_site_fract_x
_atom_site_fract_y
_atom_site_fract_z
Si Si1 0.167497 0.705063 0.493560
Si Si2 0.418452 0.711566 0.090839
Si Si3 0.168266 0.292034 0.800153
Si Si4 0.331727 0.207535 0.687150
Si Si5 0.579749 0.293495 0.394586
O O1 0.162259 0.500000 0.495298
O O2 0.250000 0.750000 0.493244
O O3 0.127279 0.772230 0.543157
O O4 0.127788 0.761983 0.443157
O O5 0.500000 0.764414 0.086787
O O6 0.417416 0.500000 0.090965
O O7 0.382312 0.770079 0.142758
O O8 0.162312 0.500000 0.799015
O O9 0.250000 0.250000 0.811362
O O10 0.152252 0.227668 0.743622
O O11 0.117844 0.225548 0.844262
O O12 0.250000 0.250000 0.675888
O O13 0.337826 0.000000 0.688502
O O14 0.500000 0.225831 0.401176
O O15 0.574974 0.500000 0.388841
#
# Coordination Sequence:
#
# PCOD9369350 Si02
#       5
#    16  16  16  16  16
#     4  11  22  36  55  77 102 134 173 213 254 304
#     4   9  18  32  51  76 103 130 164 207 253 302
#     4   9  18  32  51  75 101 132 169 208 250 297
#     4   9  17  31  52  75 100 131 167 207 249 295
#     4  10  21  36  53  76 106 136 169 211 257 305
#
# _framework density 20.544056000000001
#
# number of rings (size 3 to 8) (size 9 to 14) (size 15 to 20)
#    0.000    2.400    0.000    2.400    0.000    4.400 
#    0.000    5.000    0.000    3.000    0.000    5.600 
#    0.000    0.000    0.000    0.000    0.000    0.000 
#
# Total GULP energy -111683.242860 kJ/mol
# GULP energy per Si atom -5584.162143 kJ/mol
# Density = 2.049730 g / cm^3
# Si number density = 20.544056 Si / 1000 Ang^3
#
#
#
# Elastic Constant Matrix: (Units=GPa)
#
#
# Indices 1 2 3 4 5 6 
#
# 1 198.7277 1.8205 148.5925 0.0000 0.0000 -0.0001
# 2 1.8205 30.9925 6.6981 0.0000 0.0000 -0.0003
# 3 148.5925 6.6981 189.9000 0.0000 0.0000 0.0000
# 4 0.0000 0.0000 0.0000 14.0397 0.0000 0.0000
# 5 0.0000 0.0000 0.0000 0.0000 -1.5824 0.0000
# 6 -0.0001 -0.0003 0.0000 0.0000 0.0000 15.5051
#
#
#
# Elastic Compliance Matrix: (Units=1/GPa)
#
#
# Indices 1 2 3 4 5 6 
#
# 1 0.012184 0.001355 -0.009581 0.000000 0.000000 0.000000
# 2 0.001355 0.032664 -0.002212 0.000000 -0.000001 0.000001
# 3 -0.009581 -0.002212 0.012841 0.000000 0.000000 0.000000
# 4 0.000000 0.000000 0.000000 0.071227 0.000000 0.000000
# 5 0.000000 -0.000001 0.000000 0.000000 -0.631953 0.000001
# 6 0.000000 0.000001 0.000000 0.000000 0.000001 0.064495
#
#
# Mechanical properties :
#
#
# Convention : Reuss Voigt Hill
#
# Bulk Modulus (GPa) = 27.16510 81.53803 54.35156
# Shear Modulus (GPa) = -12.33366 23.09309 5.37972
#
# Velocity S-wave (km/s) = -2.45287 3.35636 1.61997
# Velocity P-wave (km/s) = 2.28681 7.40241 5.47838
#
# Compressibility (1/GPa) = 0.03681194
#
# Stress axis : x y z
#
# Youngs Moduli (GPa) = 82.07708 30.61433 77.87515
#
# Poissons Ratio (x) = -0.04148 0.74614
# Poissons Ratio (y) = -0.11122 0.17229
# Poissons Ratio (z) = 0.78640 0.06773
#
# Static dielectric constant tensor:
#      x y z
#    x 1.680880 0.000000 0.000000 
#    y 0.000000 1.768450 0.000000 
#    z 0.000000 0.000000 1.733230 
# 
# From -- ./inp_files/28622.got.cif
#   From: 2010.05.17/outbox.cif.g08.bks.cpg/sg42_15_cif.got.tgz:28622.got - 2010.06.03 19:03:34.
