data_PCOD9369918
_publ_section_title
;
Structure prediction by ZEFSAII (Michael W. Deem and Ramdas Pophale) SiO2 
 PCOD9369918
Probable space group: F M M 2
;
_chemical_formula_sum "Si O2"
_cell_formula_units_Z 80
_cell_length_a 9.603778
_cell_length_b 17.687804
_cell_length_c 26.372973
_cell_angle_alpha 90.000000
_cell_angle_beta 90.000000
_cell_angle_gamma 90.000000
_cell_volume 4479.970144
_symmetry_space_group_name_H-M "F M M 2"
_symmetry_group_IT_number 42
_symmetry_cell_setting 'orthorhombic'
loop_
_space_group_symop_operation_xyz
x,y,z
-x,-y,z
-x,y,z
x,-y,z
x,1/2+y,1/2+z
-x,1/2-y,1/2+z
-x,1/2+y,1/2+z
x,1/2-y,1/2+z
1/2+x,y,1/2+z
1/2-x,-y,1/2+z
1/2-x,y,1/2+z
1/2+x,-y,1/2+z
1/2+x,1/2+y,z
1/2-x,1/2-y,z
1/2-x,1/2+y,z
1/2+x,1/2-y,z
loop_
_atom_site_type_symbol
_atom_site_label
_atom_site_fract_x
_atom_site_fract_y
_atom_site_fract_z
Si Si1 0.662016 0.091077 0.220320
Si Si2 0.159860 0.907567 0.430736
Si Si3 0.340270 0.592058 0.835539
Si Si4 0.165941 0.672312 0.634008
Si Si5 0.661618 0.909877 0.527095
O O1 0.500000 0.112266 0.210013
O O2 0.695721 0.115215 0.278124
O O3 0.766921 0.124966 0.179764
O O4 0.668490 0.000000 0.218507
O O5 0.238854 0.881978 0.379985
O O6 0.240282 0.883531 0.481449
O O7 0.000000 0.883705 0.431225
O O8 0.162876 0.000000 0.430485
O O9 0.500000 0.614186 0.845990
O O10 0.337659 0.500000 0.835633
O O11 0.250000 0.750000 0.632277
O O12 0.187743 0.629805 0.580566
O O13 0.000000 0.682739 0.640940
O O14 0.500000 0.897742 0.512842
O O15 0.681311 0.000000 0.533600
#
# Coordination Sequence:
#
# PCOD9369918 Si02
#       5
#    16  16  16  16  16
#     4   9  18  33  54  79 105 134 169 209 253 300
#     4   9  16  25  42  72 104 130 159 199 245 290
#     4   8  14  26  45  70 101 134 163 194 239 294
#     4  11  23  37  53  73 100 135 173 213 258 305
#     4   9  18  33  52  73  98 130 167 205 248 300
#
# _framework density 17.857261999999999
#
# number of rings (size 3 to 8) (size 9 to 14) (size 15 to 20)
#    0.000    2.800    0.000    3.000    0.000    6.000 
#    0.000    4.000    0.000    1.200    0.000    5.600 
#    0.000    0.000    0.000    0.000    0.000    0.000 
#
# Total GULP energy -111510.024328 kJ/mol
# GULP energy per Si atom -5575.501216 kJ/mol
# Density = 1.781662 g / cm^3
# Si number density = 17.857262 Si / 1000 Ang^3
#
#
#
# Elastic Constant Matrix: (Units=GPa)
#
#
# Indices 1 2 3 4 5 6 
#
# 1 150.3160 40.9526 135.6568 0.0000 0.0000 0.0000
# 2 40.9526 18.5632 38.2726 0.0000 0.0000 0.0000
# 3 135.6568 38.2726 172.4398 0.0000 0.0000 0.0000
# 4 0.0000 0.0000 0.0000 -9.0076 0.0000 0.0000
# 5 0.0000 0.0000 0.0000 0.0000 38.5905 0.0000
# 6 0.0000 0.0000 0.0000 0.0000 0.0000 17.2664
#
#
#
# Elastic Compliance Matrix: (Units=1/GPa)
#
#
# Indices 1 2 3 4 5 6 
#
# 1 0.031331 -0.033743 -0.017159 0.000000 0.000000 0.000000
# 2 -0.033743 0.135659 -0.003564 0.000000 0.000000 0.000000
# 3 -0.017159 -0.003564 0.020089 0.000000 0.000000 0.000000
# 4 0.000000 0.000000 0.000000 -0.111017 0.000000 0.000000
# 5 0.000000 0.000000 0.000000 0.000000 0.025913 0.000000
# 6 0.000000 0.000000 0.000000 0.000000 0.000000 0.057916
#
#
# Mechanical properties :
#
#
# Convention : Reuss Voigt Hill
#
# Bulk Modulus (GPa) = 12.79627 85.67590 49.23609
# Shear Modulus (GPa) = 16.95653 17.79899 17.37776
#
# Velocity S-wave (km/s) = 3.08484 3.16054 3.12292
# Velocity P-wave (km/s) = 4.45754 7.83588 6.37459
#
# Compressibility (1/GPa) = 0.07814778
#
# Stress axis : x y z
#
# Youngs Moduli (GPa) = 31.91724 7.37140 49.77959
#
# Poissons Ratio (x) = 0.24874 0.85415
# Poissons Ratio (y) = 1.07700 0.17740
# Poissons Ratio (z) = 0.54765 0.02627
#
# Static dielectric constant tensor:
#      x y z
#    x 1.595860 0.000000 0.000000 
#    y 0.000000 1.598120 0.000000 
#    z 0.000000 0.000000 1.599120 
# 
# From -- ./inp_files/31254.got.cif
#   From: 2010.05.17/outbox.cif.g08.bks.cpg/sg42_16_cif.got.tgz:31254.got - 2010.06.03 19:03:34.
