data_PCOD9369346
_publ_section_title
;
Structure prediction by ZEFSAII (Michael W. Deem and Ramdas Pophale) SiO2 
 PCOD9369346
Probable space group: F M M 2
;
_chemical_formula_sum "Si O2"
_cell_formula_units_Z 88
_cell_length_a 12.502056
_cell_length_b 14.660637
_cell_length_c 22.369104
_cell_angle_alpha 90.000000
_cell_angle_beta 90.000000
_cell_angle_gamma 90.000000
_cell_volume 4099.990678
_symmetry_space_group_name_H-M "F M M 2"
_symmetry_group_IT_number 42
_symmetry_cell_setting 'orthorhombic'
loop_
_space_group_symop_operation_xyz
x,y,z
-x,-y,z
-x,y,z
x,-y,z
x,1/2+y,1/2+z
-x,1/2-y,1/2+z
-x,1/2+y,1/2+z
x,1/2-y,1/2+z
1/2+x,y,1/2+z
1/2-x,-y,1/2+z
1/2-x,y,1/2+z
1/2+x,-y,1/2+z
1/2+x,1/2+y,z
1/2-x,1/2-y,z
1/2-x,1/2+y,z
1/2+x,1/2-y,z
loop_
_atom_site_type_symbol
_atom_site_label
_atom_site_fract_x
_atom_site_fract_y
_atom_site_fract_z
Si Si1 0.709608 0.145884 0.896110
Si Si2 0.763931 0.357890 0.269250
Si Si3 0.759683 0.639986 0.134541
Si Si4 0.381348 0.000000 0.432472
Si Si5 0.884231 0.000000 0.073449
Si Si6 0.000000 0.893944 0.741299
Si Si7 0.500000 0.390654 0.476716
Si Si8 0.000000 0.140921 0.610852
O O1 0.750000 0.250000 0.896874
O O2 0.695128 0.115124 0.826713
O O3 0.605697 0.130336 0.937164
O O4 0.809614 0.086409 0.916916
O O5 0.750000 0.250000 0.264915
O O6 0.738420 0.391243 0.202687
O O7 0.890325 0.379236 0.277008
O O8 0.750000 0.750000 0.130049
O O9 0.676698 0.590334 0.092914
O O10 0.877702 0.607044 0.115133
O O11 0.500000 0.000000 0.404850
O O12 0.392490 0.000000 0.503124
O O13 0.000000 0.000000 0.102383
O O14 0.000000 0.826451 0.682723
O O15 0.000000 0.000000 0.719815
O O16 0.500000 0.500000 0.491789
O O17 0.500000 0.334123 0.539449
#
# Coordination Sequence:
#
# PCOD9369346 Si02
#       8
#    16  16  16   8   8   8   8   8
#     4  11  26  45  66  96 130 178 218 266 322 385
#     4   9  22  41  63  94 130 163 212 266 324 380
#     4  10  23  43  68 100 130 169 215 270 330 388
#     4  11  26  44  67  93 131 174 223 268 315 382
#     4  11  26  44  63  95 137 174 211 264 331 392
#     4  10  21  35  67  99 118 159 219 271 320 370
#     4  12  25  43  63  94 137 173 218 268 324 383
#     4  10  23  38  70  91 128 171 220 276 318 369
#
# _framework density 21.463462
#
# number of rings (size 3 to 8) (size 9 to 14) (size 15 to 20)
#    0.000    1.636    0.909    1.364   11.455    5.091 
#    3.273    0.000    0.000    0.000    0.000    0.000 
#    0.000    0.000    0.000    0.000    0.000    0.000 
#
# Total GULP energy -122516.304465 kJ/mol
# GULP energy per Si atom -5568.922930 kJ/mol
# Density = 2.141461 g / cm^3
# Si number density = 21.463462 Si / 1000 Ang^3
#
#
#
# Elastic Constant Matrix: (Units=GPa)
#
#
# Indices 1 2 3 4 5 6 
#
# 1 120.7273 40.1537 34.8528 0.0000 0.0000 0.0000
# 2 40.1537 121.5075 13.1559 0.0000 0.0000 0.0000
# 3 34.8528 13.1559 137.1145 0.0000 0.0000 0.0000
# 4 0.0000 0.0000 0.0000 26.7461 0.0000 0.0000
# 5 0.0000 0.0000 0.0000 0.0000 33.0356 0.0000
# 6 0.0000 0.0000 0.0000 0.0000 0.0000 11.3804
#
#
#
# Elastic Compliance Matrix: (Units=1/GPa)
#
#
# Indices 1 2 3 4 5 6 
#
# 1 0.009940 -0.003043 -0.002235 0.000000 0.000000 0.000000
# 2 -0.003043 0.009248 -0.000114 0.000000 0.000000 0.000000
# 3 -0.002235 -0.000114 0.007872 0.000000 0.000000 0.000000
# 4 0.000000 0.000000 0.000000 0.037389 0.000000 0.000000
# 5 0.000000 0.000000 0.000000 0.000000 0.030270 0.000000
# 6 0.000000 0.000000 0.000000 0.000000 0.000000 0.087870
#
#
# Mechanical properties :
#
#
# Convention : Reuss Voigt Hill
#
# Bulk Modulus (GPa) = 61.43535 61.74158 61.58847
# Shear Modulus (GPa) = 25.15109 33.64488 29.39799
#
# Velocity S-wave (km/s) = 3.42688 3.96352 3.70493
# Velocity P-wave (km/s) = 6.65909 7.05509 6.85995
#
# Compressibility (1/GPa) = 0.01627727
#
# Stress axis : x y z
#
# Youngs Moduli (GPa) = 100.59992 108.13321 127.03017
#
# Poissons Ratio (x) = 0.32905 0.28388
# Poissons Ratio (y) = 0.30612 0.01446
# Poissons Ratio (z) = 0.22482 0.01231
#
# Static dielectric constant tensor:
#      x y z
#    x 1.790480 0.000000 0.000000 
#    y 0.000000 1.927430 0.000000 
#    z 0.000000 0.000000 1.821530 
# 
# From -- ./inp_files/24375.got.cif
#   From: 2010.05.17/outbox.cif.g08.bks.cpg/sg42_13_cif.got.tgz:24375.got - 2010.06.03 19:03:34.
