data_PCOD9369822
_publ_section_title
;
Structure prediction by ZEFSAII (Michael W. Deem and Ramdas Pophale) SiO2 
 PCOD9369822
Probable space group: F M M 2
;
_chemical_formula_sum "Si O2"
_cell_formula_units_Z 80
_cell_length_a 27.198088
_cell_length_b 18.249827
_cell_length_c 7.745194
_cell_angle_alpha 90.000000
_cell_angle_beta 90.000000
_cell_angle_gamma 90.000000
_cell_volume 3844.407598
_symmetry_space_group_name_H-M "F M M 2"
_symmetry_group_IT_number 42
_symmetry_cell_setting 'orthorhombic'
loop_
_space_group_symop_operation_xyz
x,y,z
-x,-y,z
-x,y,z
x,-y,z
x,1/2+y,1/2+z
-x,1/2-y,1/2+z
-x,1/2+y,1/2+z
x,1/2-y,1/2+z
1/2+x,y,1/2+z
1/2-x,-y,1/2+z
1/2-x,y,1/2+z
1/2+x,-y,1/2+z
1/2+x,1/2+y,z
1/2-x,1/2-y,z
1/2-x,1/2+y,z
1/2+x,1/2-y,z
loop_
_atom_site_type_symbol
_atom_site_label
_atom_site_fract_x
_atom_site_fract_y
_atom_site_fract_z
Si Si1 0.804347 0.659531 0.972890
Si Si2 0.405668 0.843796 0.401505
Si Si3 0.305017 0.331997 0.066023
Si Si4 0.443692 0.693286 0.274177
Si Si5 0.404284 0.915065 0.062196
O O1 0.812354 0.655478 0.768180
O O2 0.748247 0.637803 0.013256
O O3 0.806566 0.744260 0.033241
O O4 0.847740 0.613371 0.058507
O O5 0.350119 0.862617 0.456480
O O6 0.409587 0.763522 0.312635
O O7 0.434067 0.836873 0.582487
O O8 0.424014 0.898216 0.254059
O O9 0.500000 0.717855 0.288812
O O10 0.431993 0.633384 0.419373
O O11 0.407058 0.000000 0.020478
#
# Coordination Sequence:
#
# PCOD9369822 Si02
#       5
#    16  16  16  16  16
#     4  11  20  36  62 101 137 173 229 281 340 406
#     4  12  22  43  72 106 135 178 237 291 346 413
#     4  11  19  35  67 100 129 177 233 287 328 403
#     4  12  25  44  75 106 135 179 241 299 346 413
#     4  12  27  46  67 102 149 186 223 291 364 421
#
# _framework density 20.809448
#
# number of rings (size 3 to 8) (size 9 to 14) (size 15 to 20)
#    0.000    0.400    6.000    5.400    0.000    2.000 
#    0.000    4.000    0.000    0.000    0.000    0.000 
#    0.000    0.000    0.000    0.000    0.000    0.000 
#
# Total GULP energy -111880.592634 kJ/mol
# GULP energy per Si atom -5594.029632 kJ/mol
# Density = 2.076208 g / cm^3
# Si number density = 20.809448 Si / 1000 Ang^3
#
#
#
# Elastic Constant Matrix: (Units=GPa)
#
#
# Indices 1 2 3 4 5 6 
#
# 1 72.2754 -18.7359 19.8769 0.0000 0.0000 0.0000
# 2 -18.7359 24.4947 6.5054 0.0000 0.0000 0.0000
# 3 19.8769 6.5054 141.8371 -0.0001 0.0000 0.0000
# 4 0.0000 0.0000 -0.0001 16.5160 0.0000 0.0000
# 5 0.0000 0.0000 0.0000 0.0000 18.5433 0.0000
# 6 0.0000 0.0000 0.0000 0.0000 0.0000 4.7102
#
#
#
# Elastic Compliance Matrix: (Units=1/GPa)
#
#
# Indices 1 2 3 4 5 6 
#
# 1 0.018679 0.015168 -0.003313 0.000000 0.000000 0.000000
# 2 0.015168 0.053645 -0.004586 0.000000 0.000000 0.000000
# 3 -0.003313 -0.004586 0.007725 0.000000 0.000000 0.000000
# 4 0.000000 0.000000 0.000000 0.060547 0.000000 0.000000
# 5 0.000000 0.000000 0.000000 0.000000 0.053928 0.000000
# 6 0.000000 0.000000 0.000000 0.000000 0.000000 0.212306
#
#
# Mechanical properties :
#
#
# Convention : Reuss Voigt Hill
#
# Bulk Modulus (GPa) = 10.57247 28.21113 19.39180
# Shear Modulus (GPa) = 11.79739 23.35129 17.57434
#
# Velocity S-wave (km/s) = 2.38360 3.35348 2.90924
# Velocity P-wave (km/s) = 3.55908 5.34610 4.54136
#
# Compressibility (1/GPa) = 0.09458530
#
# Stress axis : x y z
#
# Youngs Moduli (GPa) = 53.53586 18.64112 129.44968
#
# Poissons Ratio (x) = -0.28274 0.42891
# Poissons Ratio (y) = -0.81201 0.59366
# Poissons Ratio (z) = 0.17738 0.08549
#
# Static dielectric constant tensor:
#      x y z
#    x 1.791150 0.000000 0.000000 
#    y 0.000000 1.696700 0.000000 
#    z 0.000000 0.000000 1.748270 
# 
# From -- ./inp_files/3580.got.cif
#   From: 2010.05.17/outbox.cif.g08.bks.cpg/sg42_2_cif.got.tgz:3580.got - 2010.06.03 19:03:34.
