data_PCOD9369975
_publ_section_title
;
Structure prediction by ZEFSAII (Michael W. Deem and Ramdas Pophale) SiO2 
 PCOD9369975
Probable space group: F M M 2
;
_chemical_formula_sum "Si O2"
_cell_formula_units_Z 68
_cell_length_a 21.059993
_cell_length_b 7.837983
_cell_length_c 20.336030
_cell_angle_alpha 90.000000
_cell_angle_beta 90.000000
_cell_angle_gamma 90.000000
_cell_volume 3356.825098
_symmetry_space_group_name_H-M "F M M 2"
_symmetry_group_IT_number 42
_symmetry_cell_setting 'orthorhombic'
loop_
_space_group_symop_operation_xyz
x,y,z
-x,-y,z
-x,y,z
x,-y,z
x,1/2+y,1/2+z
-x,1/2-y,1/2+z
-x,1/2+y,1/2+z
x,1/2-y,1/2+z
1/2+x,y,1/2+z
1/2-x,-y,1/2+z
1/2-x,y,1/2+z
1/2+x,-y,1/2+z
1/2+x,1/2+y,z
1/2-x,1/2-y,z
1/2-x,1/2+y,z
1/2+x,1/2-y,z
loop_
_atom_site_type_symbol
_atom_site_label
_atom_site_fract_x
_atom_site_fract_y
_atom_site_fract_z
Si Si1 0.181336 0.197676 0.828890
Si Si2 0.500000 0.000000 0.415940
Si Si3 0.572216 0.293353 0.227197
Si Si4 0.100136 0.689131 0.939475
Si Si5 0.424581 0.795692 0.577665
O O1 0.250000 0.250000 0.802462
O O2 0.124907 0.231893 0.777327
O O3 0.162507 0.295426 0.895117
O O4 0.183465 0.000000 0.844018
O O5 0.445084 0.152752 0.419418
O O6 0.500000 0.235728 0.243539
O O7 0.571283 0.500000 0.227797
O O8 0.587593 0.239579 0.152269
O O9 0.072922 0.500000 0.927160
O O10 0.110952 0.709509 0.017492
O O11 0.500000 0.767738 0.565594
O O12 0.415013 0.000000 0.574200
#
# Coordination Sequence:
#
# PCOD9369975 Si02
#       5
#    16   4  16  16  16
#     4  12  26  45  62  86 125 167 216 266 314 378
#     4  12  22  40  60 102 128 164 208 258 320 366
#     4   9  20  37  64  95 127 163 204 252 312 374
#     4  12  23  38  65  95 131 168 207 256 316 375
#     4   9  16  34  58  91 131 162 197 253 310 369
#
# _framework density 20.257238000000001
#
# number of rings (size 3 to 8) (size 9 to 14) (size 15 to 20)
#    0.000    1.412    3.529    3.882    1.647    1.412 
#    0.000    3.529    0.000    5.647    0.000    0.000 
#    0.000    0.000    0.000    0.000    0.000    0.000 
#
# Total GULP energy -94675.171838 kJ/mol
# GULP energy per Si atom -5569.127755 kJ/mol
# Density = 2.021113 g / cm^3
# Si number density = 20.257238 Si / 1000 Ang^3
#
#
#
# Elastic Constant Matrix: (Units=GPa)
#
#
# Indices 1 2 3 4 5 6 
#
# 1 97.6703 26.5600 60.9045 0.0000 0.0000 0.0000
# 2 26.5600 120.8371 21.1463 0.0000 0.0000 0.0000
# 3 60.9045 21.1463 115.3927 0.0000 0.0000 0.0000
# 4 0.0000 0.0000 0.0000 26.3532 0.0000 0.0000
# 5 0.0000 0.0000 0.0000 0.0000 -17.9024 0.0000
# 6 0.0000 0.0000 0.0000 0.0000 0.0000 9.5335
#
#
#
# Elastic Compliance Matrix: (Units=1/GPa)
#
#
# Indices 1 2 3 4 5 6 
#
# 1 0.015749 -0.002073 -0.007932 0.000000 0.000000 0.000000
# 2 -0.002073 0.008823 -0.000522 0.000000 0.000000 0.000000
# 3 -0.007932 -0.000522 0.012948 0.000000 0.000000 0.000000
# 4 0.000000 0.000000 0.000000 0.037946 0.000000 0.000000
# 5 0.000000 0.000000 0.000000 0.000000 -0.055858 0.000000
# 6 0.000000 0.000000 0.000000 0.000000 0.000000 0.104893
#
#
# Mechanical properties :
#
#
# Convention : Reuss Voigt Hill
#
# Bulk Modulus (GPa) = 60.73975 61.23574 60.98775
# Shear Modulus (GPa) = 33.10271 18.61613 25.85942
#
# Velocity S-wave (km/s) = 4.04681 3.03477 3.57676
# Velocity P-wave (km/s) = 7.20311 6.52491 6.87238
#
# Compressibility (1/GPa) = 0.01646368
#
# Stress axis : x y z
#
# Youngs Moduli (GPa) = 63.49731 113.34304 77.22928
#
# Poissons Ratio (x) = 0.23501 0.61260
# Poissons Ratio (y) = 0.13166 0.04035
# Poissons Ratio (z) = 0.50368 0.05922
#
# Static dielectric constant tensor:
#      x y z
#    x 1.736580 0.000000 0.000000 
#    y 0.000000 1.730500 0.000000 
#    z 0.000000 0.000000 1.766480 
# 
# From -- ./inp_files/29754.got.cif
#   From: 2010.05.17/outbox.cif.g08.bks.cpg/sg42_15_cif.got.tgz:29754.got - 2010.06.03 19:03:34.
