data_PCOD9369716
_publ_section_title
;
Structure prediction by ZEFSAII (Michael W. Deem and Ramdas Pophale) SiO2 
 PCOD9369716
Probable space group: F M M 2
;
_chemical_formula_sum "Si O2"
_cell_formula_units_Z 60
_cell_length_a 32.734394
_cell_length_b 16.533094
_cell_length_c 5.003442
_cell_angle_alpha 90.000000
_cell_angle_beta 90.000000
_cell_angle_gamma 90.000000
_cell_volume 2707.866878
_symmetry_space_group_name_H-M "F M M 2"
_symmetry_group_IT_number 42
_symmetry_cell_setting 'orthorhombic'
loop_
_space_group_symop_operation_xyz
x,y,z
-x,-y,z
-x,y,z
x,-y,z
x,1/2+y,1/2+z
-x,1/2-y,1/2+z
-x,1/2+y,1/2+z
x,1/2-y,1/2+z
1/2+x,y,1/2+z
1/2-x,-y,1/2+z
1/2-x,y,1/2+z
1/2+x,-y,1/2+z
1/2+x,1/2+y,z
1/2-x,1/2-y,z
1/2-x,1/2+y,z
1/2+x,1/2-y,z
loop_
_atom_site_type_symbol
_atom_site_label
_atom_site_fract_x
_atom_site_fract_y
_atom_site_fract_z
Si Si1 0.857096 0.196546 0.888220
Si Si2 0.567225 0.410133 0.070890
Si Si3 0.500000 0.000000 0.286645
Si Si4 0.500000 0.692675 0.349940
Si Si5 0.722974 0.095555 0.527448
O O1 0.859080 0.225859 0.583649
O O2 0.894698 0.139557 0.968122
O O3 0.815353 0.149544 0.950231
O O4 0.578397 0.500000 0.180015
O O5 0.535696 0.431528 0.833554
O O6 0.539719 0.361417 0.281962
O O7 0.500000 0.764185 0.131778
O O8 0.760147 0.111458 0.323007
O O9 0.712692 0.000000 0.503907
#
# Coordination Sequence:
#
# PCOD9369716 Si02
#       5
#    16  16   4   8  16
#     4  12  25  40  63  95 129 166 206 262 317 367
#     4   9  19  41  63  89 122 163 212 249 308 372
#     4   6  16  36  68  82 118 158 210 244 312 346
#     4  11  21  38  61  88 121 154 196 255 311 366
#     4  10  22  42  66  92 125 168 212 255 307 374
#
# _framework density 22.15766
#
# number of rings (size 3 to 8) (size 9 to 14) (size 15 to 20)
#    0.800    1.067    0.000    4.000    0.000    3.200 
#    0.000    9.333    0.000    0.000    0.000    0.000 
#    0.000    0.000    0.000    0.000    0.000    0.000 
#
# Total GULP energy -83599.687588 kJ/mol
# GULP energy per Si atom -5573.312506 kJ/mol
# Density = 2.210723 g / cm^3
# Si number density = 22.157660 Si / 1000 Ang^3
#
#
#
# Elastic Constant Matrix: (Units=GPa)
#
#
# Indices 1 2 3 4 5 6 
#
# 1 101.3555 40.6200 -20.9405 0.0007 -0.0001 0.0000
# 2 40.6200 89.4823 4.7825 0.0004 -0.0005 0.0001
# 3 -20.9405 4.7825 57.7297 -0.0009 -0.0035 0.0002
# 4 0.0007 0.0004 -0.0009 15.5085 -0.0009 0.0001
# 5 -0.0001 -0.0005 -0.0035 -0.0009 -86.5184 0.0007
# 6 0.0000 0.0001 0.0002 0.0001 0.0007 66.5419
#
#
#
# Elastic Compliance Matrix: (Units=1/GPa)
#
#
# Indices 1 2 3 4 5 6 
#
# 1 0.013583 -0.006458 0.005462 0.000000 0.000000 0.000000
# 2 -0.006458 0.014295 -0.003527 0.000000 0.000000 0.000000
# 3 0.005462 -0.003527 0.019595 0.000001 -0.000001 0.000000
# 4 0.000000 0.000000 0.000001 0.064481 -0.000001 0.000000
# 5 0.000000 0.000000 -0.000001 -0.000001 -0.011558 0.000000
# 6 0.000000 0.000000 0.000000 0.000000 0.000000 0.015028
#
#
# Mechanical properties :
#
#
# Convention : Reuss Voigt Hill
#
# Bulk Modulus (GPa) = 26.02235 33.05461 29.53848
# Shear Modulus (GPa) = 36.42224 14.04678 25.23451
#
# Velocity S-wave (km/s) = 4.05875 2.52056 3.37836
# Velocity P-wave (km/s) = 5.80812 4.83955 5.34582
#
# Compressibility (1/GPa) = 0.03842850
#
# Stress axis : x y z
#
# Youngs Moduli (GPa) = 73.62274 69.95289 51.03216
#
# Poissons Ratio (x) = 0.45174 -0.27873
# Poissons Ratio (y) = 0.47544 0.17998
# Poissons Ratio (z) = -0.40212 0.24670
#
# Static dielectric constant tensor:
#      x y z
#    x 1.764730 0.000000 0.000000 
#    y 0.000000 1.838060 0.000000 
#    z 0.000000 0.000000 1.824070 
# 
# From -- ./inp_files/532.got.cif
#   From: 2010.05.17/outbox.cif.g08.bks.cpg/sg42_1_cif.got.tgz:532.got - 2010.06.03 19:03:34.
