data_PCOD9369761
_publ_section_title
;
Structure prediction by ZEFSAII (Michael W. Deem and Ramdas Pophale) SiO2 
 PCOD9369761
Probable space group: F M M 2
;
_chemical_formula_sum "Si O2"
_cell_formula_units_Z 120
_cell_length_a 27.534402
_cell_length_b 27.733480
_cell_length_c 8.546319
_cell_angle_alpha 90.000000
_cell_angle_beta 90.000000
_cell_angle_gamma 90.000000
_cell_volume 6526.181028
_symmetry_space_group_name_H-M "F M M 2"
_symmetry_group_IT_number 42
_symmetry_cell_setting 'orthorhombic'
loop_
_space_group_symop_operation_xyz
x,y,z
-x,-y,z
-x,y,z
x,-y,z
x,1/2+y,1/2+z
-x,1/2-y,1/2+z
-x,1/2+y,1/2+z
x,1/2-y,1/2+z
1/2+x,y,1/2+z
1/2-x,-y,1/2+z
1/2-x,y,1/2+z
1/2+x,-y,1/2+z
1/2+x,1/2+y,z
1/2-x,1/2-y,z
1/2-x,1/2+y,z
1/2+x,1/2-y,z
loop_
_atom_site_type_symbol
_atom_site_label
_atom_site_fract_x
_atom_site_fract_y
_atom_site_fract_z
Si Si1 0.182643 0.908980 0.872480
Si Si2 0.191582 0.200765 0.432724
Si Si3 0.636545 0.604966 0.374038
Si Si4 0.198642 0.195541 0.807476
Si Si5 0.723750 0.057208 0.704635
Si Si6 0.053475 0.444232 0.689494
Si Si7 0.596777 0.444287 0.680524
Si Si8 0.500000 0.569156 0.865146
O O1 0.172313 0.852020 0.870512
O O2 0.225374 0.918166 0.746568
O O3 0.136020 0.938261 0.818622
O O4 0.203466 0.925740 0.038039
O O5 0.154558 0.159990 0.374930
O O6 0.195797 0.198034 0.620129
O O7 0.178856 0.254853 0.379849
O O8 0.244968 0.191304 0.359833
O O9 0.683847 0.573447 0.331151
O O10 0.594415 0.591243 0.251612
O O11 0.616104 0.589243 0.541464
O O12 0.730214 0.000000 0.705979
O O13 0.068250 0.500000 0.715100
O O14 0.041140 0.437458 0.506791
O O15 0.000000 0.437058 0.767699
O O16 0.595999 0.500000 0.629011
O O17 0.543330 0.430239 0.735630
#
# Coordination Sequence:
#
# PCOD9369761 Si02
#       8
#    16  16  16  16  16  16  16   8
#     4  12  24  40  60  89 128 167 216 258 314 386
#     4  11  23  40  65  91 124 166 218 267 323 374
#     4  12  24  38  61  95 129 170 216 261 319 387
#     4  11  22  42  63  91 124 167 212 271 314 375
#     4  12  24  38  57  88 133 181 211 246 307 389
#     4   9  19  39  61  89 127 170 218 261 311 382
#     4  12  23  39  60  90 129 167 209 262 315 382
#     4  10  23  42  64  90 124 170 220 270 322 370
#
# _framework density 18.387475999999999
#
# number of rings (size 3 to 8) (size 9 to 14) (size 15 to 20)
#    0.400    0.400    2.667    7.400    2.800    0.000 
#    0.000    0.000    0.000    0.000    1.733    0.000 
#    0.000    0.000    0.000    0.000    0.000    0.000 
#
# Total GULP energy -167149.541971 kJ/mol
# GULP energy per Si atom -5571.651399 kJ/mol
# Density = 1.834563 g / cm^3
# Si number density = 18.387476 Si / 1000 Ang^3
#
#
#
# Elastic Constant Matrix: (Units=GPa)
#
#
# Indices 1 2 3 4 5 6 
#
# 1 111.3317 29.2198 37.4132 0.0598 -0.0130 -0.0038
# 2 29.2198 109.7340 37.7574 0.0444 -0.0154 -0.0085
# 3 37.4132 37.7574 57.0752 0.0623 -0.0129 0.0017
# 4 0.0598 0.0444 0.0623 -45.2997 -0.0540 -0.0162
# 5 -0.0130 -0.0154 -0.0129 -0.0540 38.6099 -0.0036
# 6 -0.0038 -0.0085 0.0017 -0.0162 -0.0036 0.5907
#
#
#
# Elastic Compliance Matrix: (Units=1/GPa)
#
#
# Indices 1 2 3 4 5 6 
#
# 1 0.011551 -0.000609 -0.007169 0.000005 0.000001 0.000087
# 2 -0.000609 0.011831 -0.007427 0.000001 0.000002 0.000187
# 3 -0.007169 -0.007427 0.027133 0.000021 0.000004 -0.000230
# 4 0.000005 0.000001 0.000021 -0.022075 -0.000031 -0.000605
# 5 0.000001 0.000002 0.000004 -0.000031 0.025900 0.000155
# 6 0.000087 0.000187 -0.000230 -0.000605 0.000155 1.692933
#
#
# Mechanical properties :
#
#
# Convention : Reuss Voigt Hill
#
# Bulk Modulus (GPa) = 49.73936 54.10240 51.92088
# Shear Modulus (GPa) = 2.80209 10.36354 6.58281
#
# Velocity S-wave (km/s) = 1.23581 2.37664 1.89416
# Velocity P-wave (km/s) = 5.39867 6.08429 5.75171
#
# Compressibility (1/GPa) = 0.02010480
#
# Stress axis : x y z
#
# Youngs Moduli (GPa) = 86.57134 84.52577 36.85497
#
# Poissons Ratio (x) = 0.05149 0.26421
# Poissons Ratio (y) = 0.05273 0.27373
# Poissons Ratio (z) = 0.62062 0.62779
#
# Static dielectric constant tensor:
#      x y z
#    x 1.624070 -0.000010 0.000000 
#    y -0.000010 1.671070 0.000000 
#    z 0.000000 0.000000 1.669820 
# 
# From -- ./inp_files/5349.got.cif
#   From: 2010.05.17/outbox.cif.g08.bks.cpg/sg42_3_cif.got.tgz:5349.got - 2010.06.03 19:03:34.
