data_PCOD9369777
_publ_section_title
;
Structure prediction by ZEFSAII (Michael W. Deem and Ramdas Pophale) SiO2 
 PCOD9369777
Probable space group: F M M 2
;
_chemical_formula_sum "Si O2"
_cell_formula_units_Z 112
_cell_length_a 16.012863
_cell_length_b 24.316955
_cell_length_c 13.748001
_cell_angle_alpha 90.000000
_cell_angle_beta 90.000000
_cell_angle_gamma 90.000000
_cell_volume 5353.252570
_symmetry_space_group_name_H-M "F M M 2"
_symmetry_group_IT_number 42
_symmetry_cell_setting 'orthorhombic'
loop_
_space_group_symop_operation_xyz
x,y,z
-x,-y,z
-x,y,z
x,-y,z
x,1/2+y,1/2+z
-x,1/2-y,1/2+z
-x,1/2+y,1/2+z
x,1/2-y,1/2+z
1/2+x,y,1/2+z
1/2-x,-y,1/2+z
1/2-x,y,1/2+z
1/2+x,-y,1/2+z
1/2+x,1/2+y,z
1/2-x,1/2-y,z
1/2-x,1/2+y,z
1/2+x,1/2-y,z
loop_
_atom_site_type_symbol
_atom_site_label
_atom_site_fract_x
_atom_site_fract_y
_atom_site_fract_z
Si Si1 0.813860 0.637543 0.778860
Si Si2 0.141813 0.329190 0.387168
Si Si3 0.900993 0.115877 0.464214
Si Si4 0.790277 0.435681 0.138619
Si Si5 0.844297 0.763726 0.515641
Si Si6 0.403693 0.941758 0.329840
Si Si7 0.404655 0.251270 0.217511
O O1 0.735227 0.660240 0.843151
O O2 0.867576 0.601828 0.856108
O O3 0.781839 0.603674 0.684330
O O4 0.867160 0.690516 0.748464
O O5 0.118338 0.293978 0.481715
O O6 0.110654 0.390621 0.398346
O O7 0.099848 0.293007 0.302875
O O8 0.840296 0.088684 0.545621
O O9 0.886365 0.182136 0.472165
O O10 0.000000 0.104101 0.478077
O O11 0.766695 0.500000 0.121977
O O12 0.853976 0.435132 0.229859
O O13 0.750000 0.750000 0.483572
O O14 0.849007 0.771293 0.629953
O O15 0.500000 0.942747 0.303668
O O16 0.378664 0.000000 0.374811
O O17 0.500000 0.256393 0.184544
#
# Coordination Sequence:
#
# PCOD9369777 Si02
#       7
#    16  16  16  16  16  16  16
#     4  11  23  41  63  91 132 173 214 271 335 404
#     4  11  21  38  61  88 124 172 215 257 315 400
#     4  12  24  40  66 103 136 168 224 290 346 396
#     4  10  23  43  67  92 124 169 219 271 336 408
#     4  12  22  38  62  90 128 176 219 263 326 403
#     4   9  18  34  58  89 125 162 208 268 321 369
#     4  12  24  37  59  92 130 169 213 270 334 394
#
# _framework density 20.921861
#
# number of rings (size 3 to 8) (size 9 to 14) (size 15 to 20)
#    0.000    1.000    2.857    5.571    0.000    3.143 
#    0.000    0.000    0.000    1.286    0.000    0.000 
#    0.000    0.000    0.000    0.000    0.000    0.000 
#
# Total GULP energy -156138.550038 kJ/mol
# GULP energy per Si atom -5576.376787 kJ/mol
# Density = 2.087424 g / cm^3
# Si number density = 20.921861 Si / 1000 Ang^3
#
#
#
# Elastic Constant Matrix: (Units=GPa)
#
#
# Indices 1 2 3 4 5 6 
#
# 1 59.5741 20.1429 3.9123 0.0000 0.0000 0.0000
# 2 20.1429 122.5373 21.3951 0.0000 0.0000 0.0000
# 3 3.9123 21.3951 50.5456 0.0000 0.0000 0.0000
# 4 0.0000 0.0000 0.0000 48.3031 0.0000 0.0000
# 5 0.0000 0.0000 0.0000 0.0000 15.1235 0.0000
# 6 0.0000 0.0000 0.0000 0.0000 0.0000 45.8969
#
#
#
# Elastic Compliance Matrix: (Units=1/GPa)
#
#
# Indices 1 2 3 4 5 6 
#
# 1 0.017775 -0.002896 -0.000150 0.000000 0.000000 0.000000
# 2 -0.002896 0.009284 -0.003706 0.000000 0.000000 0.000000
# 3 -0.000150 -0.003706 0.021364 0.000000 0.000000 0.000000
# 4 0.000000 0.000000 0.000000 0.020703 0.000000 0.000000
# 5 0.000000 0.000000 0.000000 0.000000 0.066122 0.000000
# 6 0.000000 0.000000 0.000000 0.000000 0.000000 0.021788
#
#
# Mechanical properties :
#
#
# Convention : Reuss Voigt Hill
#
# Bulk Modulus (GPa) = 28.63678 35.95086 32.29382
# Shear Modulus (GPa) = 27.44563 34.34513 30.89538
#
# Velocity S-wave (km/s) = 3.62583 4.05605 3.84696
# Velocity P-wave (km/s) = 5.58982 6.25748 5.93305
#
# Compressibility (1/GPa) = 0.03492013
#
# Stress axis : x y z
#
# Youngs Moduli (GPa) = 56.25967 107.71496 46.80724
#
# Poissons Ratio (x) = 0.31190 0.00703
# Poissons Ratio (y) = 0.16291 0.17345
# Poissons Ratio (z) = 0.00845 0.39914
#
# Static dielectric constant tensor:
#      x y z
#    x 1.840250 0.000000 0.000000 
#    y 0.000000 1.797720 0.000000 
#    z 0.000000 0.000000 1.742360 
# 
# From -- ./inp_files/14259.got.cif
#   From: 2010.05.17/outbox.cif.g08.bks.cpg/sg42_8_cif.got.tgz:14259.got - 2010.06.03 19:03:34.
