data_PCOD9369100
_publ_section_title
;
Structure prediction by ZEFSAII (Michael W. Deem and Ramdas Pophale) SiO2 
 PCOD9369100
Probable space group: F M M 2
;
_chemical_formula_sum "Si O2"
_cell_formula_units_Z 96
_cell_length_a 24.229325
_cell_length_b 8.711979
_cell_length_c 25.646946
_cell_angle_alpha 90.000000
_cell_angle_beta 90.000000
_cell_angle_gamma 90.000000
_cell_volume 5413.695101
_symmetry_space_group_name_H-M "F M M 2"
_symmetry_group_IT_number 42
_symmetry_cell_setting 'orthorhombic'
loop_
_space_group_symop_operation_xyz
x,y,z
-x,-y,z
-x,y,z
x,-y,z
x,1/2+y,1/2+z
-x,1/2-y,1/2+z
-x,1/2+y,1/2+z
x,1/2-y,1/2+z
1/2+x,y,1/2+z
1/2-x,-y,1/2+z
1/2-x,y,1/2+z
1/2+x,-y,1/2+z
1/2+x,1/2+y,z
1/2-x,1/2-y,z
1/2-x,1/2+y,z
1/2+x,1/2-y,z
loop_
_atom_site_type_symbol
_atom_site_label
_atom_site_fract_x
_atom_site_fract_y
_atom_site_fract_z
Si Si1 0.311583 0.684532 0.432600
Si Si2 0.190212 0.817012 0.739082
Si Si3 0.618160 0.815243 0.829544
Si Si4 0.883857 0.683452 0.527462
Si Si5 0.310242 0.184275 0.117621
Si Si6 0.500000 0.813169 0.871122
Si Si7 0.500000 0.315002 0.493208
O O1 0.310501 0.500000 0.437934
O O2 0.250000 0.750000 0.432483
O O3 0.342709 0.722868 0.378681
O O4 0.346328 0.754589 0.480022
O O5 0.250000 0.750000 0.754224
O O6 0.143933 0.754230 0.777603
O O7 0.180342 0.776014 0.678457
O O8 0.192827 0.000000 0.742749
O O9 0.556229 0.762596 0.843266
O O10 0.617486 0.000000 0.824902
O O11 0.884987 0.500000 0.526786
O O12 0.855825 0.743909 0.580244
O O13 0.944889 0.750317 0.519321
O O14 0.250000 0.250000 0.102991
O O15 0.309703 0.000000 0.112342
O O16 0.500000 0.768878 0.931976
O O17 0.500000 0.000000 0.870726
O O18 0.500000 0.500000 0.495443
#
# Coordination Sequence:
#
# PCOD9369100 Si02
#       7
#    16  16  16  16  16   8   8
#     4  11  22  36  55  82 116 153 189 235 291 348
#     4  10  21  37  59  86 116 151 192 237 290 344
#     4  10  20  36  59  84 113 150 193 235 284 343
#     4  12  24  38  58  87 117 149 194 240 286 343
#     4  10  21  39  61  85 115 154 194 239 294 349
#     4   9  18  37  60  83 110 151 194 230 279 339
#     4  11  21  41  64  83 114 155 196 236 287 345
#
# _framework density 17.732804999999999
#
# number of rings (size 3 to 8) (size 9 to 14) (size 15 to 20)
#    0.000    1.500    1.667    4.250    0.000    4.667 
#    0.000    1.250    0.000    4.000    0.000    0.000 
#    0.000    0.000    0.000    0.000    0.000    0.000 
#
# Total GULP energy -134141.437977 kJ/mol
# GULP energy per Si atom -5589.226582 kJ/mol
# Density = 1.769244 g / cm^3
# Si number density = 17.732805 Si / 1000 Ang^3
#
#
#
# Elastic Constant Matrix: (Units=GPa)
#
#
# Indices 1 2 3 4 5 6 
#
# 1 198.6493 59.0303 96.7290 0.0000 0.0000 0.0000
# 2 59.0303 67.8803 46.7736 0.0000 0.0000 0.0000
# 3 96.7290 46.7736 106.6185 0.0000 0.0000 0.0000
# 4 0.0000 0.0000 0.0000 27.6558 0.0000 0.0000
# 5 0.0000 0.0000 0.0000 0.0000 14.6971 0.0000
# 6 0.0000 0.0000 0.0000 0.0000 0.0000 29.2387
#
#
#
# Elastic Compliance Matrix: (Units=1/GPa)
#
#
# Indices 1 2 3 4 5 6 
#
# 1 0.009517 -0.003335 -0.007171 0.000000 0.000000 0.000000
# 2 -0.003335 0.022283 -0.006750 0.000000 0.000000 0.000000
# 3 -0.007171 -0.006750 0.018847 0.000000 0.000000 0.000000
# 4 0.000000 0.000000 0.000000 0.036159 0.000000 0.000000
# 5 0.000000 0.000000 0.000000 0.000000 0.068041 0.000000
# 6 0.000000 0.000000 0.000000 0.000000 0.000000 0.034201
#
#
# Mechanical properties :
#
#
# Convention : Reuss Voigt Hill
#
# Bulk Modulus (GPa) = 61.97974 86.46822 74.22398
# Shear Modulus (GPa) = 21.84006 25.69266 23.76636
#
# Velocity S-wave (km/s) = 3.51325 3.81054 3.66491
# Velocity P-wave (km/s) = 7.17531 8.26002 7.73670
#
# Compressibility (1/GPa) = 0.01613431
#
# Stress axis : x y z
#
# Youngs Moduli (GPa) = 105.07740 44.87722 53.06023
#
# Poissons Ratio (x) = 0.14965 0.38050
# Poissons Ratio (y) = 0.35040 0.35817
# Poissons Ratio (z) = 0.75352 0.30293
#
# Static dielectric constant tensor:
#      x y z
#    x 1.579120 0.000000 0.000000 
#    y 0.000000 1.593610 0.000000 
#    z 0.000000 0.000000 1.590900 
# 
# From -- ./inp_files/28064.got.cif
#   From: 2010.05.17/outbox.cif.g08.bks.cpg/sg42_15_cif.got.tgz:28064.got - 2010.06.03 19:03:34.
