data_PCOD9369964
_publ_section_title
;
Structure prediction by ZEFSAII (Michael W. Deem and Ramdas Pophale) SiO2 
 PCOD9369964
Probable space group: F M M 2
;
_chemical_formula_sum "Si O2"
_cell_formula_units_Z 80
_cell_length_a 22.508697
_cell_length_b 18.124408
_cell_length_c 10.219411
_cell_angle_alpha 90.000000
_cell_angle_beta 90.000000
_cell_angle_gamma 90.000000
_cell_volume 4169.078291
_symmetry_space_group_name_H-M "F M M 2"
_symmetry_group_IT_number 42
_symmetry_cell_setting 'orthorhombic'
loop_
_space_group_symop_operation_xyz
x,y,z
-x,-y,z
-x,y,z
x,-y,z
x,1/2+y,1/2+z
-x,1/2-y,1/2+z
-x,1/2+y,1/2+z
x,1/2-y,1/2+z
1/2+x,y,1/2+z
1/2-x,-y,1/2+z
1/2-x,y,1/2+z
1/2+x,-y,1/2+z
1/2+x,1/2+y,z
1/2-x,1/2-y,z
1/2-x,1/2+y,z
1/2+x,1/2-y,z
loop_
_atom_site_type_symbol
_atom_site_label
_atom_site_fract_x
_atom_site_fract_y
_atom_site_fract_z
Si Si1 0.120188 0.836026 0.004850
Si Si2 0.786201 0.671100 0.741257
Si Si3 0.000000 0.917319 0.085264
Si Si4 0.120188 0.836025 0.477664
Si Si5 0.500000 0.917319 0.897251
Si Si6 0.331998 0.087690 0.241256
O O1 0.060235 0.876913 0.045504
O O2 0.171941 0.837441 0.114454
O O3 0.106003 0.750001 0.991254
O O4 0.142162 0.872779 0.870350
O O5 0.750000 0.750000 0.741258
O O6 0.828059 0.662558 0.868060
O O7 0.737653 0.606867 0.741256
O O8 0.000000 0.921234 0.241258
O O9 0.000000 0.000000 0.029721
O O10 0.142162 0.872777 0.612165
O O11 0.060235 0.876913 0.437012
O O12 0.500000 0.000000 0.952794
O O13 0.342979 0.000000 0.241254
#
# Coordination Sequence:
#
# PCOD9369964 Si02
#       6
#    16  16   8  16   8  16
#     4  12  24  46  74  99 141 186 235 284 352 420
#     4  12  24  45  72 102 140 187 233 290 336 420
#     4  11  25  45  69 101 137 178 237 295 348 410
#     4  12  24  46  74  99 141 186 235 284 352 420
#     4  11  25  45  69 101 137 178 237 295 348 410
#     4  12  28  43  68 110 145 181 233 292 358 411
#
# _framework density 19.188894000000001
#
# number of rings (size 3 to 8) (size 9 to 14) (size 15 to 20)
#    0.000    0.200    6.000    3.000    0.000    5.600 
#    0.000    2.000    0.000    0.000    0.000    0.000 
#    0.000    0.000    0.000    0.000    0.000    0.000 
#
# Total GULP energy -111844.360326 kJ/mol
# GULP energy per Si atom -5592.218016 kJ/mol
# Density = 1.914522 g / cm^3
# Si number density = 19.188894 Si / 1000 Ang^3
#
#
#
# Elastic Constant Matrix: (Units=GPa)
#
#
# Indices 1 2 3 4 5 6 
#
# 1 174.1966 88.5990 86.6025 0.0000 0.0000 0.0000
# 2 88.5990 202.1408 83.4961 0.0000 0.0000 0.0000
# 3 86.6025 83.4961 165.0558 0.0000 0.0000 0.0000
# 4 0.0000 0.0000 0.0000 16.6056 0.0000 0.0000
# 5 0.0000 0.0000 0.0000 0.0000 31.4433 0.0000
# 6 0.0000 0.0000 0.0000 0.0000 0.0000 -4.9447
#
#
#
# Elastic Compliance Matrix: (Units=1/GPa)
#
#
# Indices 1 2 3 4 5 6 
#
# 1 0.008605 -0.002410 -0.003296 0.000000 0.000000 0.000000
# 2 -0.002410 0.006929 -0.002240 0.000000 0.000000 0.000000
# 3 -0.003296 -0.002240 0.008921 0.000000 0.000000 0.000000
# 4 0.000000 0.000000 0.000000 0.060221 0.000000 0.000000
# 5 0.000000 0.000000 0.000000 0.000000 0.031803 0.000000
# 6 0.000000 0.000000 0.000000 0.000000 0.000000 -0.202237
#
#
# Mechanical properties :
#
#
# Convention : Reuss Voigt Hill
#
# Bulk Modulus (GPa) = 116.79187 117.64316 117.21752
# Shear Modulus (GPa) = -74.61405 27.46722 -23.57341
#
# Velocity S-wave (km/s) = -6.24247 3.78751 -3.50879
# Velocity P-wave (km/s) = 3.00642 8.97597 6.69352
#
# Compressibility (1/GPa) = 0.00856224
#
# Stress axis : x y z
#
# Youngs Moduli (GPa) = 116.21159 144.32236 112.09380
#
# Poissons Ratio (x) = 0.34786 0.36942
# Poissons Ratio (y) = 0.28011 0.25114
# Poissons Ratio (z) = 0.38299 0.32335
#
# Static dielectric constant tensor:
#      x y z
#    x 1.849380 0.000000 0.000000 
#    y 0.000000 1.666640 0.000000 
#    z 0.000000 0.000000 1.687100 
# 
# From -- ./inp_files/10120.got.cif
#   From: 2010.05.17/outbox.cif.g08.bks.cpg/sg42_6_cif.got.tgz:10120.got - 2010.06.03 19:03:34.
