data_PCOD9369985
_publ_section_title
;
Structure prediction by ZEFSAII (Michael W. Deem and Ramdas Pophale) SiO2 
 PCOD9369985
Probable space group: F M M 2
;
_chemical_formula_sum "Si O2"
_cell_formula_units_Z 112
_cell_length_a 14.234309
_cell_length_b 10.788784
_cell_length_c 34.956683
_cell_angle_alpha 90.000000
_cell_angle_beta 90.000000
_cell_angle_gamma 90.000000
_cell_volume 5368.328752
_symmetry_space_group_name_H-M "F M M 2"
_symmetry_group_IT_number 42
_symmetry_cell_setting 'orthorhombic'
loop_
_space_group_symop_operation_xyz
x,y,z
-x,-y,z
-x,y,z
x,-y,z
x,1/2+y,1/2+z
-x,1/2-y,1/2+z
-x,1/2+y,1/2+z
x,1/2-y,1/2+z
1/2+x,y,1/2+z
1/2-x,-y,1/2+z
1/2-x,y,1/2+z
1/2+x,-y,1/2+z
1/2+x,1/2+y,z
1/2-x,1/2-y,z
1/2-x,1/2+y,z
1/2+x,1/2-y,z
loop_
_atom_site_type_symbol
_atom_site_label
_atom_site_fract_x
_atom_site_fract_y
_atom_site_fract_z
Si Si1 0.351672 0.134394 0.094780
Si Si2 0.885027 0.142829 0.780753
Si Si3 0.613705 0.359764 0.222708
Si Si4 0.614973 0.642829 0.949048
Si Si5 0.148328 0.865606 0.135021
Si Si6 0.393330 0.850105 0.364900
Si Si7 0.886295 0.359764 0.007093
O O1 0.250000 0.127105 0.114900
O O2 0.399504 0.250000 0.114900
O O3 0.396405 0.000000 0.100208
O O4 0.344833 0.155055 0.049485
O O5 0.858391 0.247602 0.750382
O O6 0.851659 0.179659 0.823482
O O7 0.000000 0.141137 0.782192
O O8 0.856931 0.000000 0.772018
O O9 0.500000 0.354653 0.218783
O O10 0.636548 0.500000 0.236495
O O11 0.655167 0.344944 0.180316
O O12 0.500000 0.641137 0.947608
O O13 0.643069 0.500000 0.957783
O O14 0.648341 0.679659 0.906319
O O15 0.641609 0.747602 0.979419
O O16 0.103595 0.000000 0.129593
O O17 0.500000 0.799641 0.364900
O O18 0.399272 0.000000 0.364900
O O19 0.863452 0.500000 0.993306
O O20 0.000000 0.354653 0.011018
#
# Coordination Sequence:
#
# PCOD9369985 Si02
#       7
#    16  16  16  16  16  16  16
#     4   9  18  32  47  61  80 108 141 176 215 260
#     4   8  13  22  37  57  82 114 149 179 207 243
#     4   9  17  28  41  60  87 114 140 176 219 255
#     4   8  13  22  37  57  82 114 149 179 207 243
#     4   9  18  32  47  61  80 108 141 176 215 260
#     4   7  10  18  33  53  79 112 147 178 204 234
#     4   9  17  28  41  60  87 114 140 176 219 255
#
# _framework density 20.863102999999999
#
# number of rings (size 3 to 8) (size 9 to 14) (size 15 to 20)
#    0.000    3.571    0.000    1.714    0.000    1.714 
#    0.000    0.714    0.000    4.286    0.000    0.000 
#    0.000    4.571    0.000   12.857    0.000   20.286 
#
# Total GULP energy -155951.580875 kJ/mol
# GULP energy per Si atom -5569.699317 kJ/mol
# Density = 2.081562 g / cm^3
# Si number density = 20.863103 Si / 1000 Ang^3
#
#
#
# Elastic Constant Matrix: (Units=GPa)
#
#
# Indices 1 2 3 4 5 6 
#
# 1 82.2423 18.6902 30.9907 0.0000 0.0000 0.0000
# 2 18.6902 204.2409 128.9790 0.0000 0.0000 0.0000
# 3 30.9907 128.9790 176.3187 0.0000 0.0000 0.0000
# 4 0.0000 0.0000 0.0000 353.5006 0.0000 0.0000
# 5 0.0000 0.0000 0.0000 0.0000 20.7110 0.0000
# 6 0.0000 0.0000 0.0000 0.0000 0.0000 -24.3173
#
#
#
# Elastic Compliance Matrix: (Units=1/GPa)
#
#
# Indices 1 2 3 4 5 6 
#
# 1 0.013046 0.000472 -0.002639 0.000000 0.000000 0.000000
# 2 0.000472 0.009117 -0.006752 0.000000 0.000000 0.000000
# 3 -0.002639 -0.006752 0.011075 0.000000 0.000000 0.000000
# 4 0.000000 0.000000 0.000000 0.002829 0.000000 0.000000
# 5 0.000000 0.000000 0.000000 0.000000 0.048284 0.000000
# 6 0.000000 0.000000 0.000000 0.000000 0.000000 -0.041123
#
#
# Mechanical properties :
#
#
# Convention : Reuss Voigt Hill
#
# Bulk Modulus (GPa) = 64.93111 91.12465 78.02788
# Shear Modulus (GPa) = 75.53134 88.92166 82.22650
#
# Velocity S-wave (km/s) = 6.02345 6.53560 6.28474
# Velocity P-wave (km/s) = 8.91997 10.03615 9.49448
#
# Compressibility (1/GPa) = 0.01540094
#
# Stress axis : x y z
#
# Youngs Moduli (GPa) = 76.65103 109.68519 90.29621
#
# Poissons Ratio (x) = -0.05182 0.23826
# Poissons Ratio (y) = -0.03622 0.60970
# Poissons Ratio (z) = 0.20226 0.74062
#
# Static dielectric constant tensor:
#      x y z
#    x 1.762080 0.000000 0.000000 
#    y 0.000000 1.779570 0.000000 
#    z 0.000000 0.000000 1.737780 
# 
# From -- ./inp_files/34317.got.cif
#   From: 2010.05.17/outbox.cif.g08.bks.cpg/sg42_18_cif.got.tgz:34317.got - 2010.06.03 19:03:34.
