data_PCOD9369476
_publ_section_title
;
Structure prediction by ZEFSAII (Michael W. Deem and Ramdas Pophale) SiO2 
 PCOD9369476
Probable space group: F M M 2
;
_chemical_formula_sum "Si O2"
_cell_formula_units_Z 112
_cell_length_a 14.255127
_cell_length_b 14.322762
_cell_length_c 27.036685
_cell_angle_alpha 90.000000
_cell_angle_beta 90.000000
_cell_angle_gamma 90.000000
_cell_volume 5520.155444
_symmetry_space_group_name_H-M "F M M 2"
_symmetry_group_IT_number 42
_symmetry_cell_setting 'orthorhombic'
loop_
_space_group_symop_operation_xyz
x,y,z
-x,-y,z
-x,y,z
x,-y,z
x,1/2+y,1/2+z
-x,1/2-y,1/2+z
-x,1/2+y,1/2+z
x,1/2-y,1/2+z
1/2+x,y,1/2+z
1/2-x,-y,1/2+z
1/2-x,y,1/2+z
1/2+x,-y,1/2+z
1/2+x,1/2+y,z
1/2-x,1/2-y,z
1/2-x,1/2+y,z
1/2+x,1/2-y,z
loop_
_atom_site_type_symbol
_atom_site_label
_atom_site_fract_x
_atom_site_fract_y
_atom_site_fract_z
Si Si1 0.254288 0.362595 0.396320
Si Si2 0.251799 0.605392 0.781567
Si Si3 0.245015 0.362202 0.061150
Si Si4 0.392669 0.634095 0.981506
Si Si5 0.395711 0.360536 0.476245
Si Si6 0.892658 0.394990 0.148708
Si Si7 0.609168 0.758698 0.240064
O O1 0.250000 0.250000 0.393693
O O2 0.259695 0.396215 0.340560
O O3 0.170092 0.392768 0.433551
O O4 0.348547 0.387961 0.425162
O O5 0.249574 0.500000 0.762634
O O6 0.350382 0.658212 0.773922
O O7 0.174697 0.670080 0.753392
O O8 0.250000 0.250000 0.064397
O O9 0.196138 0.393153 0.111848
O O10 0.341901 0.390995 0.033679
O O11 0.169432 0.391852 0.020431
O O12 0.500000 0.603140 0.978905
O O13 0.393646 0.747312 0.979330
O O14 0.500000 0.393138 0.481536
O O15 0.893045 0.500000 0.171459
O O16 0.881605 0.307868 0.186215
O O17 0.000000 0.384639 0.126872
O O18 0.500000 0.737811 0.248457
#
# Coordination Sequence:
#
# PCOD9369476 Si02
#       7
#    16  16  16  16  16  16  16
#     4   9  16  31  50  81 116 158 207 248 300 357
#     4  11  23  40  64  93 125 160 207 261 316 374
#     4   9  17  29  53  83 117 152 198 246 301 356
#     4   8  15  28  49  80 119 163 207 244 286 352
#     4   8  14  26  47  76 113 155 198 242 288 353
#     4  10  21  38  61  87 115 153 203 256 310 371
#     4  10  23  43  64  88 121 162 206 259 319 374
#
# _framework density 20.289283999999999
#
# number of rings (size 3 to 8) (size 9 to 14) (size 15 to 20)
#    0.000    2.714    1.429    2.571    2.000    2.857 
#    0.000    2.857    0.000    2.143    0.000    0.000 
#    0.000    0.000    0.000    0.000    0.000    0.000 
#
# Total GULP energy -155927.585423 kJ/mol
# GULP energy per Si atom -5568.842337 kJ/mol
# Density = 2.024310 g / cm^3
# Si number density = 20.289284 Si / 1000 Ang^3
#
#
#
# Elastic Constant Matrix: (Units=GPa)
#
#
# Indices 1 2 3 4 5 6 
#
# 1 124.0410 19.0185 37.0044 0.0000 0.0000 0.0000
# 2 19.0185 131.3847 14.3553 0.0000 0.0000 0.0000
# 3 37.0044 14.3553 78.6600 0.0000 0.0000 0.0000
# 4 0.0000 0.0000 0.0000 -117.5974 0.0000 0.0000
# 5 0.0000 0.0000 0.0000 0.0000 16.4445 0.0000
# 6 0.0000 0.0000 0.0000 0.0000 0.0000 -7.3876
#
#
#
# Elastic Compliance Matrix: (Units=1/GPa)
#
#
# Indices 1 2 3 4 5 6 
#
# 1 0.009482 -0.000903 -0.004296 0.000000 0.000000 0.000000
# 2 -0.000903 0.007852 -0.001008 0.000000 0.000000 0.000000
# 3 -0.004296 -0.001008 0.014918 0.000000 0.000000 0.000000
# 4 0.000000 0.000000 0.000000 -0.008504 0.000000 0.000000
# 5 0.000000 0.000000 0.000000 0.000000 0.060810 0.000000
# 6 0.000000 0.000000 0.000000 0.000000 0.000000 -0.135362
#
#
# Mechanical properties :
#
#
# Convention : Reuss Voigt Hill
#
# Bulk Modulus (GPa) = 50.40915 52.76024 51.58470
# Shear Modulus (GPa) = -157.34615 -4.12759 -80.73687
#
# Velocity S-wave (km/s) = -8.81588 -1.42786 -6.31500
# Velocity P-wave (km/s) = 8.87283 4.83136 5.26237
#
# Compressibility (1/GPa) = 0.01983767
#
# Stress axis : x y z
#
# Youngs Moduli (GPa) = 105.46457 127.35407 67.03406
#
# Poissons Ratio (x) = 0.11502 0.28796
# Poissons Ratio (y) = 0.09525 0.06758
# Poissons Ratio (z) = 0.45305 0.12839
#
# Static dielectric constant tensor:
#      x y z
#    x 1.718950 0.000000 0.000000 
#    y 0.000000 1.901480 0.000000 
#    z 0.000000 0.000000 1.742210 
# 
# From -- ./inp_files/32599.got.cif
#   From: 2010.05.17/outbox.cif.g08.bks.cpg/sg42_17_cif.got.tgz:32599.got - 2010.06.03 19:03:34.
