data_PCOD9369810
_publ_section_title
;
Structure prediction by ZEFSAII (Michael W. Deem and Ramdas Pophale) SiO2 
 PCOD9369810
Probable space group: F M M 2
;
_chemical_formula_sum "Si O2"
_cell_formula_units_Z 80
_cell_length_a 15.888705
_cell_length_b 8.637129
_cell_length_c 29.741965
_cell_angle_alpha 90.000000
_cell_angle_beta 90.000000
_cell_angle_gamma 90.000000
_cell_volume 4081.572978
_symmetry_space_group_name_H-M "F M M 2"
_symmetry_group_IT_number 42
_symmetry_cell_setting 'orthorhombic'
loop_
_space_group_symop_operation_xyz
x,y,z
-x,-y,z
-x,y,z
x,-y,z
x,1/2+y,1/2+z
-x,1/2-y,1/2+z
-x,1/2+y,1/2+z
x,1/2-y,1/2+z
1/2+x,y,1/2+z
1/2-x,-y,1/2+z
1/2-x,y,1/2+z
1/2+x,-y,1/2+z
1/2+x,1/2+y,z
1/2-x,1/2-y,z
1/2-x,1/2+y,z
1/2+x,1/2-y,z
loop_
_atom_site_type_symbol
_atom_site_label
_atom_site_fract_x
_atom_site_fract_y
_atom_site_fract_z
Si Si1 0.598093 0.688264 0.337280
Si Si2 0.398586 0.316037 0.436269
Si Si3 0.660976 0.315960 0.029453
Si Si4 0.160980 0.813775 0.241141
Si Si5 0.500000 0.188194 0.587703
Si Si6 0.000000 0.315148 0.188330
O O1 0.500000 0.733603 0.332014
O O2 0.599064 0.500000 0.338396
O O3 0.628189 0.740191 0.386544
O O4 0.647623 0.737935 0.293121
O O5 0.500000 0.294841 0.438763
O O6 0.382386 0.500000 0.439546
O O7 0.356164 0.234129 0.478181
O O8 0.663848 0.500000 0.031468
O O9 0.750000 0.250000 0.044877
O O10 0.582616 0.263063 0.059838
O O11 0.250000 0.750000 0.224571
O O12 0.082539 0.751084 0.212979
O O13 0.160322 0.000000 0.239759
O O14 0.500000 0.258869 0.637010
O O15 0.500000 0.000000 0.590743
O O16 0.000000 0.500000 0.190862
#
# Coordination Sequence:
#
# PCOD9369810 Si02
#       6
#    16  16  16  16   8   8
#     4   8  15  31  57  87 120 163 205 244 294 350
#     4   9  17  32  58  89 123 162 204 245 292 351
#     4  11  23  40  62  90 123 158 201 247 299 358
#     4  11  22  40  65  92 127 165 205 253 304 361
#     4  10  24  46  67  86 117 157 196 251 313 366
#     4  12  26  44  67  94 121 155 202 253 313 376
#
# _framework density 19.600286000000001
#
# number of rings (size 3 to 8) (size 9 to 14) (size 15 to 20)
#    0.000    2.000    2.000    3.300    0.000    3.200 
#    0.000    6.000    0.000    0.000    0.000    0.000 
#    0.000    0.000    0.000    0.000    0.000    0.000 
#
# Total GULP energy -111716.124709 kJ/mol
# GULP energy per Si atom -5585.806235 kJ/mol
# Density = 1.955567 g / cm^3
# Si number density = 19.600286 Si / 1000 Ang^3
#
#
#
# Elastic Constant Matrix: (Units=GPa)
#
#
# Indices 1 2 3 4 5 6 
#
# 1 158.5932 47.4556 86.7169 0.0000 0.0000 0.0000
# 2 47.4556 44.7243 37.2314 0.0000 0.0000 0.0000
# 3 86.7169 37.2314 140.1226 0.0000 0.0000 0.0000
# 4 0.0000 0.0000 0.0000 26.4580 0.0000 0.0000
# 5 0.0000 0.0000 0.0000 0.0000 -5.1225 0.0000
# 6 0.0000 0.0000 0.0000 0.0000 0.0000 25.8274
#
#
#
# Elastic Compliance Matrix: (Units=1/GPa)
#
#
# Indices 1 2 3 4 5 6 
#
# 1 0.011388 -0.007982 -0.004927 0.000000 0.000000 0.000000
# 2 -0.007982 0.034304 -0.004175 0.000000 0.000000 0.000000
# 3 -0.004927 -0.004175 0.011295 0.000000 0.000000 0.000000
# 4 0.000000 0.000000 0.000000 0.037796 0.000000 0.000000
# 5 0.000000 0.000000 0.000000 0.000000 -0.195216 0.000000
# 6 0.000000 0.000000 0.000000 0.000000 0.000000 0.038719
#
#
# Mechanical properties :
#
#
# Convention : Reuss Voigt Hill
#
# Bulk Modulus (GPa) = 43.82216 76.24976 60.03596
# Shear Modulus (GPa) = -250.73114 20.90164 -114.91475
#
# Velocity S-wave (km/s) = -11.32254 3.26911 -7.66527
# Velocity P-wave (km/s) = 12.18715 7.29632 6.90255
#
# Compressibility (1/GPa) = 0.02281951
#
# Stress axis : x y z
#
# Youngs Moduli (GPa) = 87.81453 29.15101 88.53590
#
# Poissons Ratio (x) = 0.23268 0.43618
# Poissons Ratio (y) = 0.70092 0.36965
# Poissons Ratio (z) = 0.43263 0.12171
#
# Static dielectric constant tensor:
#      x y z
#    x 1.687800 0.000000 0.000000 
#    y 0.000000 1.658540 0.000000 
#    z 0.000000 0.000000 1.680670 
# 
# From -- ./inp_files/32770.got.cif
#   From: 2010.05.17/outbox.cif.g08.bks.cpg/sg42_17_cif.got.tgz:32770.got - 2010.06.03 19:03:34.
