data_PCOD9369390
_publ_section_title
;
Structure prediction by ZEFSAII (Michael W. Deem and Ramdas Pophale) SiO2 
 PCOD9369390
Probable space group: F M M 2
;
_chemical_formula_sum "Si O2"
_cell_formula_units_Z 112
_cell_length_a 22.620707
_cell_length_b 21.421902
_cell_length_c 11.570724
_cell_angle_alpha 90.000000
_cell_angle_beta 90.000000
_cell_angle_gamma 90.000000
_cell_volume 5606.924873
_symmetry_space_group_name_H-M "F M M 2"
_symmetry_group_IT_number 42
_symmetry_cell_setting 'orthorhombic'
loop_
_space_group_symop_operation_xyz
x,y,z
-x,-y,z
-x,y,z
x,-y,z
x,1/2+y,1/2+z
-x,1/2-y,1/2+z
-x,1/2+y,1/2+z
x,1/2-y,1/2+z
1/2+x,y,1/2+z
1/2-x,-y,1/2+z
1/2-x,y,1/2+z
1/2+x,-y,1/2+z
1/2+x,1/2+y,z
1/2-x,1/2-y,z
1/2-x,1/2+y,z
1/2+x,1/2-y,z
loop_
_atom_site_type_symbol
_atom_site_label
_atom_site_fract_x
_atom_site_fract_y
_atom_site_fract_z
Si Si1 0.569771 0.369394 0.845710
Si Si2 0.368046 0.353417 0.085953
Si Si3 0.797790 0.073506 0.264747
Si Si4 0.069681 0.772800 0.275454
Si Si5 0.429178 0.432104 0.619802
Si Si6 0.756784 0.816943 0.640397
Si Si7 0.144708 0.152443 0.461225
O O1 0.500000 0.378455 0.868047
O O2 0.576184 0.301542 0.785280
O O3 0.590739 0.418218 0.750138
O O4 0.603206 0.371876 0.966268
O O5 0.350979 0.410114 0.173474
O O6 0.408724 0.304344 0.156150
O O7 0.303623 0.323416 0.066908
O O8 0.746568 0.121633 0.221351
O O9 0.819669 0.100868 0.386594
O O10 0.784294 0.000000 0.265447
O O11 0.113240 0.801067 0.372217
O O12 0.000000 0.787279 0.294428
O O13 0.500000 0.430678 0.621601
O O14 0.408523 0.500000 0.581685
O O15 0.406009 0.381183 0.532852
O O16 0.750000 0.750000 0.703470
O O17 0.811422 0.818313 0.554767
#
# Coordination Sequence:
#
# PCOD9369390 Si02
#       7
#    16  16  16  16  16  16  16
#     4  10  21  36  62  91 123 161 202 254 312 374
#     4   9  21  40  59  88 126 161 204 255 306 371
#     4   9  22  41  60  88 122 163 212 254 301 373
#     4  10  21  37  63  93 122 160 208 260 312 366
#     4  10  23  40  59  89 124 161 207 255 311 376
#     4  10  23  39  60  90 124 162 201 259 311 374
#     4  11  22  39  65  88 124 162 207 259 313 368
#
# _framework density 19.975299
#
# number of rings (size 3 to 8) (size 9 to 14) (size 15 to 20)
#    0.857    1.286    0.000    2.143    4.000    3.429 
#    0.000    0.000    0.000    8.143    0.000    0.000 
#    0.000    0.000    0.000    0.000    0.000    0.000 
#
# Total GULP energy -156129.517868 kJ/mol
# GULP energy per Si atom -5576.054210 kJ/mol
# Density = 1.992983 g / cm^3
# Si number density = 19.975299 Si / 1000 Ang^3
#
#
#
# Elastic Constant Matrix: (Units=GPa)
#
#
# Indices 1 2 3 4 5 6 
#
# 1 49.3396 14.5960 0.0589 0.0000 0.0000 0.0000
# 2 14.5960 90.0822 0.5443 0.0000 0.0000 0.0000
# 3 0.0589 0.5443 51.0244 0.0000 0.0000 0.0000
# 4 0.0000 0.0000 0.0000 11.5177 0.0000 0.0000
# 5 0.0000 0.0000 0.0000 0.0000 27.9082 0.0000
# 6 0.0000 0.0000 0.0000 0.0000 0.0000 9.0998
#
#
#
# Elastic Compliance Matrix: (Units=1/GPa)
#
#
# Indices 1 2 3 4 5 6 
#
# 1 0.021288 -0.003449 0.000012 0.000000 0.000000 0.000000
# 2 -0.003449 0.011661 -0.000120 0.000000 0.000000 0.000000
# 3 0.000012 -0.000120 0.019600 0.000000 0.000000 0.000000
# 4 0.000000 0.000000 0.000000 0.086823 0.000000 0.000000
# 5 0.000000 0.000000 0.000000 0.000000 0.035832 0.000000
# 6 0.000000 0.000000 0.000000 0.000000 0.000000 0.109892
#
#
# Mechanical properties :
#
#
# Convention : Reuss Voigt Hill
#
# Bulk Modulus (GPa) = 22.01029 24.53829 23.27429
# Shear Modulus (GPa) = 16.26784 21.38827 18.82805
#
# Velocity S-wave (km/s) = 2.85686 3.27576 3.07346
# Velocity P-wave (km/s) = 4.68240 5.15931 4.92663
#
# Compressibility (1/GPa) = 0.04543330
#
# Stress axis : x y z
#
# Youngs Moduli (GPa) = 46.97459 85.75885 51.02112
#
# Poissons Ratio (x) = 0.29581 -0.00062
# Poissons Ratio (y) = 0.16203 0.00614
# Poissons Ratio (z) = -0.00057 0.01033
#
# Static dielectric constant tensor:
#      x y z
#    x 1.706820 0.000000 0.000000 
#    y 0.000000 1.717360 0.000000 
#    z 0.000000 0.000000 1.672050 
# 
# From -- ./inp_files/10249.got.cif
#   From: 2010.05.17/outbox.cif.g08.bks.cpg/sg42_6_cif.got.tgz:10249.got - 2010.06.03 19:03:34.
