data_PCOD9369730
_publ_section_title
;
Structure prediction by ZEFSAII (Michael W. Deem and Ramdas Pophale) SiO2 
 PCOD9369730
Probable space group: F M M 2
;
_chemical_formula_sum "Si O2"
_cell_formula_units_Z 112
_cell_length_a 14.501356
_cell_length_b 13.720316
_cell_length_c 24.564110
_cell_angle_alpha 90.000000
_cell_angle_beta 90.000000
_cell_angle_gamma 90.000000
_cell_volume 4887.353605
_symmetry_space_group_name_H-M "F M M 2"
_symmetry_group_IT_number 42
_symmetry_cell_setting 'orthorhombic'
loop_
_space_group_symop_operation_xyz
x,y,z
-x,-y,z
-x,y,z
x,-y,z
x,1/2+y,1/2+z
-x,1/2-y,1/2+z
-x,1/2+y,1/2+z
x,1/2-y,1/2+z
1/2+x,y,1/2+z
1/2-x,-y,1/2+z
1/2-x,y,1/2+z
1/2+x,-y,1/2+z
1/2+x,1/2+y,z
1/2-x,1/2-y,z
1/2-x,1/2+y,z
1/2+x,1/2-y,z
loop_
_atom_site_type_symbol
_atom_site_label
_atom_site_fract_x
_atom_site_fract_y
_atom_site_fract_z
Si Si1 0.661145 0.107733 0.015630
Si Si2 0.299603 0.385493 0.291223
Si Si3 0.390649 0.695073 0.831389
Si Si4 0.598450 0.380817 0.631006
Si Si5 0.199359 0.618534 0.666677
Si Si6 0.868880 0.609592 0.556809
Si Si7 0.898771 0.770965 0.949874
O O1 0.600108 0.142442 0.066472
O O2 0.760310 0.103971 0.043595
O O3 0.632654 0.000000 0.998753
O O4 0.665127 0.181205 0.965993
O O5 0.315620 0.500000 0.302108
O O6 0.359502 0.308395 0.325543
O O7 0.189798 0.362762 0.299264
O O8 0.325873 0.362304 0.228603
O O9 0.500000 0.680509 0.817662
O O10 0.376773 0.670808 0.895439
O O11 0.500000 0.349610 0.655104
O O12 0.600768 0.500000 0.633442
O O13 0.694677 0.347656 0.657333
O O14 0.200393 0.500000 0.660987
O O15 0.131278 0.652131 0.618025
O O16 0.904462 0.500000 0.557916
O O17 0.903935 0.665340 0.504328
O O18 0.000000 0.727434 0.939910
#
# Coordination Sequence:
#
# PCOD9369730 Si02
#       7
#    16  16  16  16  16  16  16
#     4   9  18  32  53  81 114 152 193 236 291 364
#     4  10  22  43  71  93 122 172 223 269 325 381
#     4  10  25  45  62  92 134 168 217 280 321 371
#     4   8  13  24  45  77 116 147 178 233 297 358
#     4   8  16  34  58  87 116 152 204 257 308 373
#     4   9  19  36  60  87 118 153 193 243 303 370
#     4  11  23  38  56  83 122 162 199 248 310 373
#
# _framework density 22.916288000000002
#
# number of rings (size 3 to 8) (size 9 to 14) (size 15 to 20)
#    0.000    2.714    0.000    2.571    4.000    3.429 
#   10.286    5.000    0.000    2.571    0.000    0.000 
#    0.000    0.000    0.000    0.000    0.000    0.000 
#
# Total GULP energy -156152.247181 kJ/mol
# GULP energy per Si atom -5576.865971 kJ/mol
# Density = 2.286413 g / cm^3
# Si number density = 22.916288 Si / 1000 Ang^3
#
#
#
# Elastic Constant Matrix: (Units=GPa)
#
#
# Indices 1 2 3 4 5 6 
#
# 1 80.7483 -8.1169 12.9414 0.0000 0.0000 0.0000
# 2 -8.1169 62.9680 16.0536 0.0000 0.0000 0.0000
# 3 12.9414 16.0536 102.9793 0.0000 0.0000 0.0000
# 4 0.0000 0.0000 0.0000 20.6406 0.0000 0.0000
# 5 0.0000 0.0000 0.0000 0.0000 12.7314 0.0000
# 6 0.0000 0.0000 0.0000 0.0000 0.0000 81.6073
#
#
#
# Elastic Compliance Matrix: (Units=1/GPa)
#
#
# Indices 1 2 3 4 5 6 
#
# 1 0.012916 0.002165 -0.001961 0.000000 0.000000 0.000000
# 2 0.002165 0.016901 -0.002907 0.000000 0.000000 0.000000
# 3 -0.001961 -0.002907 0.010410 0.000000 0.000000 0.000000
# 4 0.000000 0.000000 0.000000 0.048448 0.000000 0.000000
# 5 0.000000 0.000000 0.000000 0.000000 0.078546 0.000000
# 6 0.000000 0.000000 0.000000 0.000000 0.000000 0.012254
#
#
# Mechanical properties :
#
#
# Convention : Reuss Voigt Hill
#
# Bulk Modulus (GPa) = 28.71734 32.05020 30.38377
# Shear Modulus (GPa) = 25.44685 38.05037 31.74861
#
# Velocity S-wave (km/s) = 3.33592 4.07923 3.72616
# Velocity P-wave (km/s) = 5.23416 6.01689 5.63912
#
# Compressibility (1/GPa) = 0.03482217
#
# Stress axis : x y z
#
# Youngs Moduli (GPa) = 77.42337 59.16734 96.05938
#
# Poissons Ratio (x) = -0.12809 0.18834
# Poissons Ratio (y) = -0.16761 0.27923
# Poissons Ratio (z) = 0.15180 0.17199
#
# Static dielectric constant tensor:
#      x y z
#    x 1.922310 0.000000 0.000000 
#    y 0.000000 1.888750 0.000000 
#    z 0.000000 0.000000 1.869750 
# 
# From -- ./inp_files/29493.got.cif
#   From: 2010.05.17/outbox.cif.g08.bks.cpg/sg42_15_cif.got.tgz:29493.got - 2010.06.03 19:03:34.
