data_PCOD9369576
_publ_section_title
;
Structure prediction by ZEFSAII (Michael W. Deem and Ramdas Pophale) SiO2 
 PCOD9369576
Probable space group: F M M 2
;
_chemical_formula_sum "Si O2"
_cell_formula_units_Z 72
_cell_length_a 15.403661
_cell_length_b 14.233920
_cell_length_c 17.550303
_cell_angle_alpha 90.000000
_cell_angle_beta 90.000000
_cell_angle_gamma 90.000000
_cell_volume 3847.982530
_symmetry_space_group_name_H-M "F M M 2"
_symmetry_group_IT_number 42
_symmetry_cell_setting 'orthorhombic'
loop_
_space_group_symop_operation_xyz
x,y,z
-x,-y,z
-x,y,z
x,-y,z
x,1/2+y,1/2+z
-x,1/2-y,1/2+z
-x,1/2+y,1/2+z
x,1/2-y,1/2+z
1/2+x,y,1/2+z
1/2-x,-y,1/2+z
1/2-x,y,1/2+z
1/2+x,-y,1/2+z
1/2+x,1/2+y,z
1/2-x,1/2-y,z
1/2-x,1/2+y,z
1/2+x,1/2-y,z
loop_
_atom_site_type_symbol
_atom_site_label
_atom_site_fract_x
_atom_site_fract_y
_atom_site_fract_z
Si Si1 0.000000 0.000000 0.094770
Si Si2 0.332810 0.500000 0.564587
Si Si3 0.599880 0.347702 0.453963
Si Si4 0.665548 0.185245 0.784726
Si Si5 0.178840 0.500000 0.684657
Si Si6 0.500000 0.794219 0.537260
Si Si7 0.500000 0.000000 0.173932
Si Si8 0.500000 0.286666 0.708964
O O1 0.000000 0.904547 0.047059
O O2 0.916035 0.000000 0.147851
O O3 0.342925 0.589756 0.509868
O O4 0.248451 0.500000 0.616829
O O5 0.415186 0.500000 0.620862
O O6 0.500000 0.386258 0.451850
O O7 0.637295 0.342620 0.369920
O O8 0.582741 0.245319 0.490823
O O9 0.750000 0.250000 0.786726
O O10 0.686360 0.092736 0.735875
O O11 0.585038 0.240814 0.746751
O O12 0.500000 0.742742 0.619577
O O13 0.500000 0.100190 0.216958
#
# Coordination Sequence:
#
# PCOD9369576 Si02
#       8
#     4   8  16  16   8   8   4   8
#     4  12  24  42  62  98 140 176 228 282 336 396
#     4  12  21  40  71 105 127 169 235 289 333 411
#     4  10  22  43  69  96 133 178 225 277 355 414
#     4  12  26  44  66  99 140 182 229 284 353 422
#     4  12  27  40  69 101 133 185 235 285 347 409
#     4  10  21  40  71  98 121 187 225 273 350 400
#     4  12  20  38  70 106 128 160 228 286 344 388
#     4  12  21  44  69  98 135 177 225 291 344 406
#
# _framework density 18.711103000000001
#
# number of rings (size 3 to 8) (size 9 to 14) (size 15 to 20)
#    0.667    0.000    6.667    2.000    0.000    1.778 
#    0.000    3.333    0.000    0.000    0.000    0.000 
#    0.000    0.000    0.000    0.000    0.000    0.000 
#
# Total GULP energy -100545.253600 kJ/mol
# GULP energy per Si atom -5585.847422 kJ/mol
# Density = 1.866852 g / cm^3
# Si number density = 18.711103 Si / 1000 Ang^3
#
#
#
# Elastic Constant Matrix: (Units=GPa)
#
#
# Indices 1 2 3 4 5 6 
#
# 1 129.5773 41.0084 77.0098 0.0000 0.0000 0.0000
# 2 41.0084 166.5289 75.3972 0.0000 0.0000 0.0000
# 3 77.0098 75.3972 147.3297 0.0000 0.0000 0.0000
# 4 0.0000 0.0000 0.0000 16.8018 0.0000 0.0000
# 5 0.0000 0.0000 0.0000 0.0000 61.9148 0.0000
# 6 0.0000 0.0000 0.0000 0.0000 0.0000 25.3197
#
#
#
# Elastic Compliance Matrix: (Units=1/GPa)
#
#
# Indices 1 2 3 4 5 6 
#
# 1 0.011198 -0.000140 -0.005782 0.000000 0.000000 0.000000
# 2 -0.000140 0.007818 -0.003928 0.000000 0.000000 0.000000
# 3 -0.005782 -0.003928 0.011820 0.000000 0.000000 0.000000
# 4 0.000000 0.000000 0.000000 0.059517 0.000000 0.000000
# 5 0.000000 0.000000 0.000000 0.000000 0.016151 0.000000
# 6 0.000000 0.000000 0.000000 0.000000 0.000000 0.039495
#
#
# Mechanical properties :
#
#
# Convention : Reuss Voigt Hill
#
# Bulk Modulus (GPa) = 89.79192 92.25186 91.02189
# Shear Modulus (GPa) = 29.51439 37.47528 33.49484
#
# Velocity S-wave (km/s) = 3.97592 4.48016 4.23555
# Velocity P-wave (km/s) = 8.31685 8.72770 8.52475
#
# Compressibility (1/GPa) = 0.01113686
#
# Stress axis : x y z
#
# Youngs Moduli (GPa) = 89.30392 127.91516 84.60571
#
# Poissons Ratio (x) = 0.01789 0.48915
# Poissons Ratio (y) = 0.01249 0.33230
# Poissons Ratio (z) = 0.51631 0.50241
#
# Static dielectric constant tensor:
#      x y z
#    x 1.625680 0.000000 0.000000 
#    y 0.000000 1.538940 0.000000 
#    z 0.000000 0.000000 1.618990 
# 
# From -- ./inp_files/19762.got.cif
#   From: 2010.05.17/outbox.cif.g08.bks.cpg/sg42_10_cif.got.tgz:19762.got - 2010.06.03 19:03:34.
