data_PCOD9369184
_publ_section_title
;
Structure prediction by ZEFSAII (Michael W. Deem and Ramdas Pophale) SiO2 
 PCOD9369184
Probable space group: F M M 2
;
_chemical_formula_sum "Si O2"
_cell_formula_units_Z 88
_cell_length_a 26.416712
_cell_length_b 11.093559
_cell_length_c 13.066288
_cell_angle_alpha 90.000000
_cell_angle_beta 90.000000
_cell_angle_gamma 90.000000
_cell_volume 3829.145644
_symmetry_space_group_name_H-M "F M M 2"
_symmetry_group_IT_number 42
_symmetry_cell_setting 'orthorhombic'
loop_
_space_group_symop_operation_xyz
x,y,z
-x,-y,z
-x,y,z
x,-y,z
x,1/2+y,1/2+z
-x,1/2-y,1/2+z
-x,1/2+y,1/2+z
x,1/2-y,1/2+z
1/2+x,y,1/2+z
1/2-x,-y,1/2+z
1/2-x,y,1/2+z
1/2+x,-y,1/2+z
1/2+x,1/2+y,z
1/2-x,1/2-y,z
1/2-x,1/2+y,z
1/2+x,1/2-y,z
loop_
_atom_site_type_symbol
_atom_site_label
_atom_site_fract_x
_atom_site_fract_y
_atom_site_fract_z
Si Si1 0.373497 0.634732 0.928090
Si Si2 0.559665 0.500000 0.601798
Si Si3 0.216802 0.369036 0.591545
Si Si4 0.862145 0.500000 0.918944
Si Si5 0.060732 0.000000 0.230711
Si Si6 0.559113 0.734376 0.096045
Si Si7 0.692598 0.706994 0.314961
O O1 0.394480 0.500000 0.915276
O O2 0.347933 0.685986 0.825808
O O3 0.326237 0.628730 0.006386
O O4 0.412587 0.720556 0.987298
O O5 0.500000 0.500000 0.564610
O O6 0.604901 0.500000 0.519968
O O7 0.565538 0.365668 0.648413
O O8 0.243638 0.500000 0.589123
O O9 0.250000 0.250000 0.577945
O O10 0.192621 0.354102 0.704136
O O11 0.904442 0.500000 0.829730
O O12 0.825956 0.386327 0.900268
O O13 0.073005 0.119947 0.165576
O O14 0.000000 0.000000 0.252645
O O15 0.500000 0.720802 0.074571
O O16 0.750000 0.750000 0.331696
#
# Coordination Sequence:
#
# PCOD9369184 Si02
#       7
#    16   8  16   8   8  16  16
#     4  11  22  39  64  89 121 163 211 255 312 376
#     4  10  21  38  62  93 128 157 197 257 319 377
#     4  10  22  42  62  88 121 162 207 264 312 372
#     4  12  21  40  63  88 119 165 213 257 311 377
#     4  10  21  38  69  97 121 162 211 258 310 382
#     4  10  20  37  61  93 124 156 198 251 310 374
#     4  11  24  38  61  87 123 161 211 264 315 364
#
# _framework density 22.981627
#
# number of rings (size 3 to 8) (size 9 to 14) (size 15 to 20)
#    0.000    1.455    3.636    1.909    1.273    0.727 
#    3.273    0.000    6.000    0.000    0.000    6.364 
#    0.000    0.000    0.000    0.000    0.000    0.000 
#
# Total GULP energy -122915.661500 kJ/mol
# GULP energy per Si atom -5587.075523 kJ/mol
# Density = 2.292932 g / cm^3
# Si number density = 22.981627 Si / 1000 Ang^3
#
#
#
# Elastic Constant Matrix: (Units=GPa)
#
#
# Indices 1 2 3 4 5 6 
#
# 1 91.6178 37.7373 15.8502 0.0000 0.0000 0.0000
# 2 37.7373 174.8937 13.2864 0.0000 0.0000 0.0000
# 3 15.8502 13.2864 35.8115 0.0000 0.0000 0.0000
# 4 0.0000 0.0000 0.0000 15.8773 0.0000 0.0000
# 5 0.0000 0.0000 0.0000 0.0000 21.3314 0.0000
# 6 0.0000 0.0000 0.0000 0.0000 0.0000 36.7930
#
#
#
# Elastic Compliance Matrix: (Units=1/GPa)
#
#
# Indices 1 2 3 4 5 6 
#
# 1 0.012718 -0.002384 -0.004744 0.000000 0.000000 0.000000
# 2 -0.002384 0.006330 -0.001294 0.000000 0.000000 0.000000
# 3 -0.004744 -0.001294 0.030504 0.000000 0.000000 0.000000
# 4 0.000000 0.000000 0.000000 0.062983 0.000000 0.000000
# 5 0.000000 0.000000 0.000000 0.000000 0.046879 0.000000
# 6 0.000000 0.000000 0.000000 0.000000 0.000000 0.027179
#
#
# Mechanical properties :
#
#
# Convention : Reuss Voigt Hill
#
# Bulk Modulus (GPa) = 30.57330 48.45231 39.51281
# Shear Modulus (GPa) = 23.32753 30.49696 26.91224
#
# Velocity S-wave (km/s) = 3.18944 3.64677 3.42575
# Velocity P-wave (km/s) = 5.18610 6.23384 5.73395
#
# Compressibility (1/GPa) = 0.03270828
#
# Stress axis : x y z
#
# Youngs Moduli (GPa) = 78.63152 157.96879 32.78282
#
# Poissons Ratio (x) = 0.37655 0.15554
# Poissons Ratio (y) = 0.18743 0.04241
# Poissons Ratio (z) = 0.37306 0.20435
#
# Static dielectric constant tensor:
#      x y z
#    x 1.825440 0.000000 0.000000 
#    y 0.000000 1.969560 0.000000 
#    z 0.000000 0.000000 1.853190 
# 
# From -- ./inp_files/16984.got.cif
#   From: 2010.05.17/outbox.cif.g08.bks.cpg/sg42_9_cif.got.tgz:16984.got - 2010.06.03 19:03:34.
