data_PCOD9369645
_publ_section_title
;
Structure prediction by ZEFSAII (Michael W. Deem and Ramdas Pophale) SiO2 
 PCOD9369645
Probable space group: F M M 2
;
_chemical_formula_sum "Si O2"
_cell_formula_units_Z 64
_cell_length_a 7.840504
_cell_length_b 32.836459
_cell_length_c 10.009511
_cell_angle_alpha 90.000000
_cell_angle_beta 90.000000
_cell_angle_gamma 90.000000
_cell_volume 2576.992530
_symmetry_space_group_name_H-M "F M M 2"
_symmetry_group_IT_number 42
_symmetry_cell_setting 'orthorhombic'
loop_
_space_group_symop_operation_xyz
x,y,z
-x,-y,z
-x,y,z
x,-y,z
x,1/2+y,1/2+z
-x,1/2-y,1/2+z
-x,1/2+y,1/2+z
x,1/2-y,1/2+z
1/2+x,y,1/2+z
1/2-x,-y,1/2+z
1/2-x,y,1/2+z
1/2+x,-y,1/2+z
1/2+x,1/2+y,z
1/2-x,1/2-y,z
1/2-x,1/2+y,z
1/2+x,1/2-y,z
loop_
_atom_site_type_symbol
_atom_site_label
_atom_site_fract_x
_atom_site_fract_y
_atom_site_fract_z
Si Si1 0.200475 0.094344 0.117160
Si Si2 0.500000 0.762417 0.678609
Si Si3 0.192529 0.833946 0.302234
Si Si4 0.292998 0.954038 0.366767
Si Si5 0.500000 0.202021 0.409831
O O1 0.267327 0.133144 0.199191
O O2 0.224150 0.057622 0.222012
O O3 0.000000 0.102614 0.098773
O O4 0.269344 0.078828 0.975905
O O5 0.654750 0.791655 0.725053
O O6 0.500000 0.762268 0.519122
O O7 0.500000 0.722183 0.764300
O O8 0.329752 0.824858 0.416419
O O9 0.000000 0.846156 0.346987
O O10 0.500000 0.952151 0.363381
O O11 0.244568 0.000000 0.404248
#
# Coordination Sequence:
#
# PCOD9369645 Si02
#       5
#    16   8  16  16   8
#     4  10  22  41  63  93 131 166 214 269 318 379
#     4  10  26  46  66 102 133 170 226 266 327 402
#     4   9  24  43  65 103 129 175 222 268 321 396
#     4  10  22  39  63  92 128 170 214 265 323 384
#     4  12  24  48  72  94 139 178 210 280 331 384
#
# _framework density 24.835151
#
# number of rings (size 3 to 8) (size 9 to 14) (size 15 to 20)
#    0.750    1.250    0.000    1.500    5.250    6.500 
#    2.250    0.000    0.000    0.000    0.000    0.000 
#    0.000    0.000    0.000    0.000    0.000    0.000 
#
# Total GULP energy -89410.100771 kJ/mol
# GULP energy per Si atom -5588.131298 kJ/mol
# Density = 2.477862 g / cm^3
# Si number density = 24.835151 Si / 1000 Ang^3
#
#
#
# Elastic Constant Matrix: (Units=GPa)
#
#
# Indices 1 2 3 4 5 6 
#
# 1 79.1726 14.8820 27.5359 0.0000 0.0000 0.0000
# 2 14.8820 77.7028 -3.3702 0.0000 0.0000 0.0000
# 3 27.5359 -3.3702 100.7526 0.0000 0.0000 0.0000
# 4 0.0000 0.0000 0.0000 44.4842 0.0000 0.0000
# 5 0.0000 0.0000 0.0000 0.0000 18.3831 0.0000
# 6 0.0000 0.0000 0.0000 0.0000 0.0000 23.5062
#
#
#
# Elastic Compliance Matrix: (Units=1/GPa)
#
#
# Indices 1 2 3 4 5 6 
#
# 1 0.014614 -0.002976 -0.004094 0.000000 0.000000 0.000000
# 2 -0.002976 0.013494 0.001265 0.000000 0.000000 0.000000
# 3 -0.004094 0.001265 0.011086 0.000000 0.000000 0.000000
# 4 0.000000 0.000000 0.000000 0.022480 0.000000 0.000000
# 5 0.000000 0.000000 0.000000 0.000000 0.054398 0.000000
# 6 0.000000 0.000000 0.000000 0.000000 0.000000 0.042542
#
#
# Mechanical properties :
#
#
# Convention : Reuss Voigt Hill
#
# Bulk Modulus (GPa) = 36.25235 37.30259 36.77747
# Shear Modulus (GPa) = 27.86766 31.84672 29.85719
#
# Velocity S-wave (km/s) = 3.35342 3.58484 3.47106
# Velocity P-wave (km/s) = 5.44268 5.67340 5.55924
#
# Compressibility (1/GPa) = 0.02758442
#
# Stress axis : x y z
#
# Youngs Moduli (GPa) = 68.42830 74.10438 90.20071
#
# Poissons Ratio (x) = 0.22057 0.36924
# Poissons Ratio (y) = 0.20367 -0.11409
# Poissons Ratio (z) = 0.28012 -0.09373
#
# Static dielectric constant tensor:
#      x y z
#    x 1.982220 0.000000 0.000000 
#    y 0.000000 1.943970 0.000000 
#    z 0.000000 0.000000 1.928790 
# 
# From -- ./inp_files/6256.got.cif
#   From: 2010.05.17/outbox.cif.g08.bks.cpg/sg42_4_cif.got.tgz:6256.got - 2010.06.03 19:03:34.
