data_PCOD9369096
_publ_section_title
;
Structure prediction by ZEFSAII (Michael W. Deem and Ramdas Pophale) SiO2 
 PCOD9369096
Probable space group: F M M 2
;
_chemical_formula_sum "Si O2"
_cell_formula_units_Z 104
_cell_length_a 9.445848
_cell_length_b 26.182451
_cell_length_c 21.621280
_cell_angle_alpha 90.000000
_cell_angle_beta 90.000000
_cell_angle_gamma 90.000000
_cell_volume 5347.276645
_symmetry_space_group_name_H-M "F M M 2"
_symmetry_group_IT_number 42
_symmetry_cell_setting 'orthorhombic'
loop_
_space_group_symop_operation_xyz
x,y,z
-x,-y,z
-x,y,z
x,-y,z
x,1/2+y,1/2+z
-x,1/2-y,1/2+z
-x,1/2+y,1/2+z
x,1/2-y,1/2+z
1/2+x,y,1/2+z
1/2-x,-y,1/2+z
1/2-x,y,1/2+z
1/2+x,-y,1/2+z
1/2+x,1/2+y,z
1/2-x,1/2-y,z
1/2-x,1/2+y,z
1/2+x,1/2-y,z
loop_
_atom_site_type_symbol
_atom_site_label
_atom_site_fract_x
_atom_site_fract_y
_atom_site_fract_z
Si Si1 0.169893 0.614256 0.600140
Si Si2 0.750000 0.250000 0.282623
Si Si3 0.347555 0.156854 0.207794
Si Si4 0.828719 0.000000 0.139351
Si Si5 0.165452 0.199847 0.528051
Si Si6 0.158282 0.908155 0.832606
Si Si7 0.155117 0.326054 0.887056
Si Si8 0.831550 0.500000 0.784184
O O1 0.219021 0.641085 0.664097
O O2 0.211406 0.553999 0.607062
O O3 0.255451 0.648349 0.550585
O O4 0.000000 0.617317 0.591406
O O5 0.665402 0.212699 0.237380
O O6 0.833973 0.213539 0.330166
O O7 0.500000 0.151011 0.175502
O O8 0.348263 0.120054 0.266655
O O9 0.782146 0.000000 0.211756
O O10 0.000000 0.000000 0.140501
O O11 0.250000 0.250000 0.551033
O O12 0.166639 0.200105 0.453447
O O13 0.000000 0.201474 0.546665
O O14 0.220296 0.866725 0.879421
O O15 0.268568 0.952467 0.820757
O O16 0.000000 0.925409 0.849123
O O17 0.000000 0.351097 0.883522
O O18 0.000000 0.500000 0.783205
#
# Coordination Sequence:
#
# PCOD9369096 Si02
#       8
#    16   8  16   8  16  16  16   8
#     4  11  23  41  63  88 120 160 207 254 305 365
#     4  10  20  36  58  86 118 160 198 242 292 362
#     4  10  21  35  54  85 121 154 193 243 299 358
#     4   9  20  39  62  87 116 157 204 248 303 365
#     4  11  24  43  65  91 122 160 206 254 308 363
#     4  10  21  35  56  88 123 155 195 244 298 355
#     4  10  21  39  62  86 116 159 204 245 295 359
#     4  11  19  35  60  87 120 157 200 246 299 361
#
# _framework density 19.449152000000002
#
# number of rings (size 3 to 8) (size 9 to 14) (size 15 to 20)
#    0.000    1.692    2.308    2.077    1.077    4.923 
#    0.000    2.308    0.000    3.692    0.000    0.000 
#    0.000    0.000    0.000    0.000    0.000    0.000 
#
# Total GULP energy -144947.013599 kJ/mol
# GULP energy per Si atom -5574.885138 kJ/mol
# Density = 1.940488 g / cm^3
# Si number density = 19.449152 Si / 1000 Ang^3
#
#
#
# Elastic Constant Matrix: (Units=GPa)
#
#
# Indices 1 2 3 4 5 6 
#
# 1 125.8498 51.4826 21.4417 0.0000 0.0000 0.0000
# 2 51.4826 122.5588 19.7319 0.0000 0.0000 0.0000
# 3 21.4417 19.7319 37.1194 0.0000 0.0000 0.0000
# 4 0.0000 0.0000 0.0000 15.8381 0.0000 0.0000
# 5 0.0000 0.0000 0.0000 0.0000 23.5393 0.0000
# 6 0.0000 0.0000 0.0000 0.0000 0.0000 16.9532
#
#
#
# Elastic Compliance Matrix: (Units=1/GPa)
#
#
# Indices 1 2 3 4 5 6 
#
# 1 0.010088 -0.003608 -0.003909 0.000000 0.000000 0.000000
# 2 -0.003608 0.010214 -0.003345 0.000000 0.000000 0.000000
# 3 -0.003909 -0.003345 0.030976 0.000000 0.000000 0.000000
# 4 0.000000 0.000000 0.000000 0.063139 0.000000 0.000000
# 5 0.000000 0.000000 0.000000 0.000000 0.042482 0.000000
# 6 0.000000 0.000000 0.000000 0.000000 0.000000 0.058986
#
#
# Mechanical properties :
#
#
# Convention : Reuss Voigt Hill
#
# Bulk Modulus (GPa) = 33.83751 52.31559 43.07655
# Shear Modulus (GPa) = 20.20519 24.12423 22.16471
#
# Velocity S-wave (km/s) = 3.22665 3.52572 3.37949
# Velocity P-wave (km/s) = 5.59620 6.59782 6.11754
#
# Compressibility (1/GPa) = 0.02955300
#
# Stress axis : x y z
#
# Youngs Moduli (GPa) = 99.12686 97.90861 32.28265
#
# Poissons Ratio (x) = 0.35328 0.12620
# Poissons Ratio (y) = 0.35768 0.10799
# Poissons Ratio (z) = 0.38751 0.32751
#
# Static dielectric constant tensor:
#      x y z
#    x 1.688620 0.000000 0.000000 
#    y 0.000000 1.732590 0.000000 
#    z 0.000000 0.000000 1.674650 
# 
# From -- ./inp_files/23848.got.cif
#   From: 2010.05.17/outbox.cif.g08.bks.cpg/sg42_12_cif.got.tgz:23848.got - 2010.06.03 19:03:34.
