data_PCOD9369433
_publ_section_title
;
Structure prediction by ZEFSAII (Michael W. Deem and Ramdas Pophale) SiO2 
 PCOD9369433
Probable space group: F M M 2
;
_chemical_formula_sum "Si O2"
_cell_formula_units_Z 80
_cell_length_a 14.625074
_cell_length_b 21.437575
_cell_length_c 13.275775
_cell_angle_alpha 90.000000
_cell_angle_beta 90.000000
_cell_angle_gamma 90.000000
_cell_volume 4162.302236
_symmetry_space_group_name_H-M "F M M 2"
_symmetry_group_IT_number 42
_symmetry_cell_setting 'orthorhombic'
loop_
_space_group_symop_operation_xyz
x,y,z
-x,-y,z
-x,y,z
x,-y,z
x,1/2+y,1/2+z
-x,1/2-y,1/2+z
-x,1/2+y,1/2+z
x,1/2-y,1/2+z
1/2+x,y,1/2+z
1/2-x,-y,1/2+z
1/2-x,y,1/2+z
1/2+x,-y,1/2+z
1/2+x,1/2+y,z
1/2-x,1/2-y,z
1/2-x,1/2+y,z
1/2+x,1/2-y,z
loop_
_atom_site_type_symbol
_atom_site_label
_atom_site_fract_x
_atom_site_fract_y
_atom_site_fract_z
Si Si1 0.000000 0.925250 0.625000
Si Si2 0.333441 0.845361 0.804069
Si Si3 0.198543 0.073321 0.669850
Si Si4 0.258634 0.335853 0.520136
Si Si5 0.891390 0.263605 0.620444
Si Si6 0.500000 0.424270 0.390718
O O1 0.092357 0.909165 0.681967
O O2 0.000000 0.903948 0.508674
O O3 0.000000 0.000000 0.616268
O O4 0.261955 0.885709 0.740413
O O5 0.370807 0.789957 0.732542
O O6 0.413621 0.892220 0.837735
O O7 0.285690 0.823136 0.906280
O O8 0.224531 0.093436 0.555567
O O9 0.210571 0.000000 0.685556
O O10 0.155873 0.315423 0.547731
O O11 0.329196 0.295604 0.589708
O O12 0.000000 0.254529 0.606637
O O13 0.500000 0.500000 0.384007
#
# Coordination Sequence:
#
# PCOD9369433 Si02
#       6
#     8  16  16  16  16   8
#     4   9  18  34  57  88 122 158 196 239 294 353
#     4  11  22  40  61  91 120 162 205 250 304 362
#     4  10  21  37  60  91 125 157 199 252 301 358
#     4  10  23  39  62  89 124 159 204 248 309 361
#     4  10  23  41  62  87 121 156 205 257 302 354
#     4  11  20  34  63  94 120 160 207 243 294 369
#
# _framework density 19.220132
#
# number of rings (size 3 to 8) (size 9 to 14) (size 15 to 20)
#    0.000    1.800    3.000    0.600    2.800    7.200 
#    1.800    0.000    0.000    0.000    0.000    0.000 
#    0.000    0.000    0.000    0.000    0.000    0.000 
#
# Total GULP energy -111550.790743 kJ/mol
# GULP energy per Si atom -5577.539537 kJ/mol
# Density = 1.917639 g / cm^3
# Si number density = 19.220132 Si / 1000 Ang^3
#
#
#
# Elastic Constant Matrix: (Units=GPa)
#
#
# Indices 1 2 3 4 5 6 
#
# 1 135.9600 19.4114 51.0550 0.0000 0.0000 0.0000
# 2 19.4114 61.1038 27.2018 0.0000 0.0000 0.0000
# 3 51.0550 27.2018 104.2531 0.0000 0.0000 0.0000
# 4 0.0000 0.0000 0.0000 18.1821 0.0000 0.0000
# 5 0.0000 0.0000 0.0000 0.0000 25.1141 0.0000
# 6 0.0000 0.0000 0.0000 0.0000 0.0000 24.2201
#
#
#
# Elastic Compliance Matrix: (Units=1/GPa)
#
#
# Indices 1 2 3 4 5 6 
#
# 1 0.009069 -0.001023 -0.004174 0.000000 0.000000 0.000000
# 2 -0.001023 0.018632 -0.004361 0.000000 0.000000 0.000000
# 3 -0.004174 -0.004361 0.012774 0.000000 0.000000 0.000000
# 4 0.000000 0.000000 0.000000 0.054999 0.000000 0.000000
# 5 0.000000 0.000000 0.000000 0.000000 0.039818 0.000000
# 6 0.000000 0.000000 0.000000 0.000000 0.000000 0.041288
#
#
# Mechanical properties :
#
#
# Convention : Reuss Voigt Hill
#
# Bulk Modulus (GPa) = 46.81791 55.18369 51.00080
# Shear Modulus (GPa) = 24.65306 27.07983 25.86645
#
# Velocity S-wave (km/s) = 3.58532 3.75764 3.67249
# Velocity P-wave (km/s) = 6.44601 6.89929 6.67650
#
# Compressibility (1/GPa) = 0.02135935
#
# Stress axis : x y z
#
# Youngs Moduli (GPa) = 110.27050 53.67205 78.28377
#
# Poissons Ratio (x) = 0.05489 0.32678
# Poissons Ratio (y) = 0.11277 0.34136
# Poissons Ratio (z) = 0.46030 0.23404
#
# Static dielectric constant tensor:
#      x y z
#    x 1.683500 0.000000 0.000000 
#    y 0.000000 1.723490 0.000000 
#    z 0.000000 0.000000 1.680080 
# 
# From -- ./inp_files/7773.got.cif
#   From: 2010.05.17/outbox.cif.g08.bks.cpg/sg42_4_cif.got.tgz:7773.got - 2010.06.03 19:03:34.
