data_PCOD9369249
_publ_section_title
;
Structure prediction by ZEFSAII (Michael W. Deem and Ramdas Pophale) SiO2 
 PCOD9369249
Probable space group: F M M 2
;
_chemical_formula_sum "Si O2"
_cell_formula_units_Z 112
_cell_length_a 10.154009
_cell_length_b 38.194712
_cell_length_c 14.512611
_cell_angle_alpha 90.000000
_cell_angle_beta 90.000000
_cell_angle_gamma 90.000000
_cell_volume 5628.417933
_symmetry_space_group_name_H-M "F M M 2"
_symmetry_group_IT_number 42
_symmetry_cell_setting 'orthorhombic'
loop_
_space_group_symop_operation_xyz
x,y,z
-x,-y,z
-x,y,z
x,-y,z
x,1/2+y,1/2+z
-x,1/2-y,1/2+z
-x,1/2+y,1/2+z
x,1/2-y,1/2+z
1/2+x,y,1/2+z
1/2-x,-y,1/2+z
1/2-x,y,1/2+z
1/2+x,-y,1/2+z
1/2+x,1/2+y,z
1/2-x,1/2-y,z
1/2-x,1/2+y,z
1/2+x,1/2-y,z
loop_
_atom_site_type_symbol
_atom_site_label
_atom_site_fract_x
_atom_site_fract_y
_atom_site_fract_z
Si Si1 0.650954 0.279832 0.227750
Si Si2 0.658222 0.959898 0.986206
Si Si3 0.845621 0.961562 0.692188
Si Si4 0.229646 0.094443 0.840347
Si Si5 0.348964 0.652141 0.981898
Si Si6 0.154824 0.356384 0.685381
Si Si7 0.655101 0.217744 0.950094
O O1 0.500000 0.275137 0.194184
O O2 0.750000 0.250000 0.196211
O O3 0.709663 0.317387 0.199757
O O4 0.646007 0.279366 0.338887
O O5 0.500000 0.960254 0.985351
O O6 0.699578 0.930358 0.914492
O O7 0.701580 0.000000 0.963939
O O8 0.707896 0.952056 0.090522
O O9 0.836253 0.933432 0.772187
O O10 0.000000 0.965552 0.676345
O O11 0.790896 0.000000 0.718378
O O12 0.155352 0.123554 0.900918
O O13 0.308322 0.117463 0.765980
O O14 0.500000 0.666509 0.986276
O O15 0.238966 0.682283 0.969158
O O16 0.318513 0.633591 0.079863
O O17 0.000000 0.351571 0.693922
O O18 0.500000 0.217728 0.982566
O O19 0.750000 0.250000 0.980766
#
# Coordination Sequence:
#
# PCOD9369249 Si02
#       7
#    16  16  16  16  16  16  16
#     4   9  18  36  59  83 109 147 192 234 288 343
#     4   9  19  35  57  85 113 146 194 248 297 350
#     4   9  19  36  55  79 113 148 187 239 296 352
#     4  12  20  35  58  84 112 155 199 242 292 354
#     4  11  24  39  57  86 124 159 200 247 296 355
#     4  10  22  39  56  81 119 158 192 240 301 355
#     4  10  20  38  64  90 117 155 201 247 300 355
#
# _framework density 19.899018999999999
#
# number of rings (size 3 to 8) (size 9 to 14) (size 15 to 20)
#    0.000    2.000    1.429    3.429    0.000    1.714 
#    0.000    3.571    0.000    0.000    0.000   12.000 
#    0.000    0.000    0.000    0.000    0.000    0.000 
#
# Total GULP energy -155888.482378 kJ/mol
# GULP energy per Si atom -5567.445799 kJ/mol
# Density = 1.985373 g / cm^3
# Si number density = 19.899019 Si / 1000 Ang^3
#
#
#
# Elastic Constant Matrix: (Units=GPa)
#
#
# Indices 1 2 3 4 5 6 
#
# 1 84.6030 56.6247 36.0481 0.0000 0.0000 0.0000
# 2 56.6247 136.4867 59.9765 0.0000 0.0000 0.0000
# 3 36.0481 59.9765 115.3536 0.0000 0.0000 0.0000
# 4 0.0000 0.0000 0.0000 -5.0248 0.0000 0.0000
# 5 0.0000 0.0000 0.0000 0.0000 17.9372 0.0000
# 6 0.0000 0.0000 0.0000 0.0000 0.0000 42.7904
#
#
#
# Elastic Compliance Matrix: (Units=1/GPa)
#
#
# Indices 1 2 3 4 5 6 
#
# 1 0.016748 -0.006025 -0.002101 0.000000 0.000000 0.000000
# 2 -0.006025 0.011664 -0.004182 0.000000 0.000000 0.000000
# 3 -0.002101 -0.004182 0.011500 0.000000 0.000000 0.000000
# 4 0.000000 0.000000 0.000000 -0.199013 0.000000 0.000000
# 5 0.000000 0.000000 0.000000 0.000000 0.055750 0.000000
# 6 0.000000 0.000000 0.000000 0.000000 0.000000 0.023370
#
#
# Mechanical properties :
#
#
# Convention : Reuss Voigt Hill
#
# Bulk Modulus (GPa) = 65.37669 71.30465 68.34067
# Shear Modulus (GPa) = -99.46622 23.39349 -38.03637
#
# Velocity S-wave (km/s) = -7.07771 3.43244 -4.37678
# Velocity P-wave (km/s) = 5.81949 7.18470 2.97938
#
# Compressibility (1/GPa) = 0.01529597
#
# Stress axis : x y z
#
# Youngs Moduli (GPa) = 59.71015 85.73512 86.95801
#
# Poissons Ratio (x) = 0.51654 0.18271
# Poissons Ratio (y) = 0.35974 0.36363
# Poissons Ratio (z) = 0.12546 0.35852
#
# Static dielectric constant tensor:
#      x y z
#    x 1.684580 0.000000 0.000000 
#    y 0.000000 1.877920 0.000000 
#    z 0.000000 0.000000 1.726660 
# 
# From -- ./inp_files/13231.got.cif
#   From: 2010.05.17/outbox.cif.g08.bks.cpg/sg42_7_cif.got.tgz:13231.got - 2010.06.03 19:03:34.
