data_PCOD9369314
_publ_section_title
;
Structure prediction by ZEFSAII (Michael W. Deem and Ramdas Pophale) SiO2 
 PCOD9369314
Probable space group: F M M 2
;
_chemical_formula_sum "Si O2"
_cell_formula_units_Z 84
_cell_length_a 7.530933
_cell_length_b 27.779694
_cell_length_c 19.066856
_cell_angle_alpha 90.000000
_cell_angle_beta 90.000000
_cell_angle_gamma 90.000000
_cell_volume 3988.920015
_symmetry_space_group_name_H-M "F M M 2"
_symmetry_group_IT_number 42
_symmetry_cell_setting 'orthorhombic'
loop_
_space_group_symop_operation_xyz
x,y,z
-x,-y,z
-x,y,z
x,-y,z
x,1/2+y,1/2+z
-x,1/2-y,1/2+z
-x,1/2+y,1/2+z
x,1/2-y,1/2+z
1/2+x,y,1/2+z
1/2-x,-y,1/2+z
1/2-x,y,1/2+z
1/2+x,-y,1/2+z
1/2+x,1/2+y,z
1/2-x,1/2-y,z
1/2-x,1/2+y,z
1/2+x,1/2-y,z
loop_
_atom_site_type_symbol
_atom_site_label
_atom_site_fract_x
_atom_site_fract_y
_atom_site_fract_z
Si Si1 0.785768 0.895887 0.802400
Si Si2 0.700262 0.854744 0.080905
Si Si3 0.704578 0.580643 0.960911
Si Si4 0.500000 0.000000 0.996085
Si Si5 0.292853 0.552730 0.166096
Si Si6 0.212648 0.804488 0.714675
O O1 0.736561 0.905930 0.882128
O O2 0.720450 0.936726 0.748786
O O3 0.723386 0.845033 0.769366
O O4 0.000000 0.896202 0.800082
O O5 0.500000 0.840114 0.063262
O O6 0.698195 0.903443 0.128143
O O7 0.781426 0.816898 0.136158
O O8 0.792340 0.872055 0.010251
O O9 0.500000 0.562920 0.959057
O O10 0.843007 0.542099 0.990661
O O11 0.500000 0.554185 0.145513
O O12 0.219443 0.500000 0.149341
O O13 0.250000 0.750000 0.735008
O O14 0.000000 0.810200 0.710335
#
# Coordination Sequence:
#
# PCOD9369314 Si02
#       6
#    16  16  16   4  16  16
#     4   9  21  39  56  81 117 154 195 252 302 358
#     4  10  21  39  57  82 120 157 198 256 305 359
#     4  11  24  41  62  87 125 168 208 249 304 358
#     4  12  26  40  60  90 124 172 210 250 296 354
#     4  10  21  32  51  79 111 149 198 244 295 359
#     4   9  19  38  63  89 117 153 199 253 317 370
#
# _framework density 21.058333000000001
#
# number of rings (size 3 to 8) (size 9 to 14) (size 15 to 20)
#    0.000    2.095    0.952    2.571    4.000    5.333 
#    0.000    0.952    0.000    4.571    0.000    0.000 
#    0.000    0.000    0.000    0.000    0.000    0.000 
#
# Total GULP energy -116971.440601 kJ/mol
# GULP energy per Si atom -5570.068600 kJ/mol
# Density = 2.101040 g / cm^3
# Si number density = 21.058333 Si / 1000 Ang^3
#
#
#
# Elastic Constant Matrix: (Units=GPa)
#
#
# Indices 1 2 3 4 5 6 
#
# 1 85.9303 -0.8729 -5.2146 0.0000 0.0000 0.0000
# 2 -0.8729 76.3461 -2.6446 0.0000 0.0000 0.0000
# 3 -5.2146 -2.6446 90.9323 0.0000 0.0000 0.0000
# 4 0.0000 0.0000 0.0000 11.5768 0.0000 0.0000
# 5 0.0000 0.0000 0.0000 0.0000 11.0958 0.0000
# 6 0.0000 0.0000 0.0000 0.0000 0.0000 -75.9721
#
#
#
# Elastic Compliance Matrix: (Units=1/GPa)
#
#
# Indices 1 2 3 4 5 6 
#
# 1 0.011680 0.000157 0.000674 0.000000 0.000000 0.000000
# 2 0.000157 0.013114 0.000390 0.000000 0.000000 0.000000
# 3 0.000674 0.000390 0.011047 0.000000 0.000000 0.000000
# 4 0.000000 0.000000 0.000000 0.086379 0.000000 0.000000
# 5 0.000000 0.000000 0.000000 0.000000 0.090124 0.000000
# 6 0.000000 0.000000 0.000000 0.000000 0.000000 -0.013163
#
#
# Mechanical properties :
#
#
# Convention : Reuss Voigt Hill
#
# Bulk Modulus (GPa) = 26.12062 26.19382 26.15722
# Shear Modulus (GPa) = 23.86644 6.80283 15.33463
#
# Velocity S-wave (km/s) = 3.37018 1.79930 2.70144
# Velocity P-wave (km/s) = 5.25119 4.09663 4.70942
#
# Compressibility (1/GPa) = 0.03828392
#
# Stress axis : x y z
#
# Youngs Moduli (GPa) = 85.61745 76.25689 90.52056
#
# Poissons Ratio (x) = -0.01196 -0.06104
# Poissons Ratio (y) = -0.01343 -0.03534
# Poissons Ratio (z) = -0.05774 -0.02977
#
# Static dielectric constant tensor:
#      x y z
#    x 1.778020 0.000000 0.000000 
#    y 0.000000 1.750060 0.000000 
#    z 0.000000 0.000000 1.796830 
# 
# From -- ./inp_files/23647.got.cif
#   From: 2010.05.17/outbox.cif.g08.bks.cpg/sg42_12_cif.got.tgz:23647.got - 2010.06.03 19:03:34.
