data_PCOD9369791
_publ_section_title
;
Structure prediction by ZEFSAII (Michael W. Deem and Ramdas Pophale) SiO2 
 PCOD9369791
Probable space group: F M M 2
;
_chemical_formula_sum "Si O2"
_cell_formula_units_Z 60
_cell_length_a 9.648449
_cell_length_b 14.397047
_cell_length_c 21.280935
_cell_angle_alpha 90.000000
_cell_angle_beta 90.000000
_cell_angle_gamma 90.000000
_cell_volume 2956.117097
_symmetry_space_group_name_H-M "F M M 2"
_symmetry_group_IT_number 42
_symmetry_cell_setting 'orthorhombic'
loop_
_space_group_symop_operation_xyz
x,y,z
-x,-y,z
-x,y,z
x,-y,z
x,1/2+y,1/2+z
-x,1/2-y,1/2+z
-x,1/2+y,1/2+z
x,1/2-y,1/2+z
1/2+x,y,1/2+z
1/2-x,-y,1/2+z
1/2-x,y,1/2+z
1/2+x,-y,1/2+z
1/2+x,1/2+y,z
1/2-x,1/2-y,z
1/2-x,1/2+y,z
1/2+x,1/2-y,z
loop_
_atom_site_type_symbol
_atom_site_label
_atom_site_fract_x
_atom_site_fract_y
_atom_site_fract_z
Si Si1 0.834672 0.344661 0.957120
Si Si2 0.210285 0.395634 0.812129
Si Si3 0.000000 0.500000 0.646217
Si Si4 0.661328 0.500000 0.025712
Si Si5 0.000000 0.603903 0.245234
Si Si6 0.500000 0.193143 0.723879
O O1 0.750000 0.250000 0.961990
O O2 0.816422 0.378412 0.885145
O O3 0.000000 0.337876 0.970142
O O4 0.751701 0.414151 0.002114
O O5 0.160048 0.500000 0.796963
O O6 0.368319 0.392290 0.790993
O O7 0.129193 0.323233 0.769705
O O8 0.133340 0.500000 0.600042
O O9 0.000000 0.601741 0.679190
O O10 0.500000 0.500000 0.000016
O O11 0.000000 0.698437 0.203099
O O12 0.000000 0.500000 0.214488
#
# Coordination Sequence:
#
# PCOD9369791 Si02
#       6
#    16  16   4   8   8   8
#     4  12  24  40  70 105 142 184 228 295 360 430
#     4  11  22  37  65 107 140 175 220 283 362 428
#     4  10  26  44  78  92 130 192 244 300 354 406
#     4  10  25  46  67  98 128 182 250 291 351 408
#     4  10  24  37  60 100 152 176 217 286 348 433
#     4  12  20  44  69  95 141 181 234 275 352 437
#
# _framework density 20.296896
#
# number of rings (size 3 to 8) (size 9 to 14) (size 15 to 20)
#    0.400    0.533    4.000    3.600    3.733    0.000 
#    0.000    2.667    5.867    0.000    0.000    0.000 
#    0.000    0.000    0.000    0.000    0.000    0.000 
#
# Total GULP energy -83647.248187 kJ/mol
# GULP energy per Si atom -5576.483212 kJ/mol
# Density = 2.025070 g / cm^3
# Si number density = 20.296896 Si / 1000 Ang^3
#
#
#
# Elastic Constant Matrix: (Units=GPa)
#
#
# Indices 1 2 3 4 5 6 
#
# 1 167.0274 45.8304 13.8633 0.0000 0.0000 0.0000
# 2 45.8304 195.6708 39.7599 0.0000 0.0000 0.0000
# 3 13.8633 39.7599 63.4706 0.0000 0.0000 0.0000
# 4 0.0000 0.0000 0.0000 -7.8872 0.0000 0.0000
# 5 0.0000 0.0000 0.0000 0.0000 22.1471 0.0000
# 6 0.0000 0.0000 0.0000 0.0000 0.0000 34.5455
#
#
#
# Elastic Compliance Matrix: (Units=1/GPa)
#
#
# Indices 1 2 3 4 5 6 
#
# 1 0.006414 -0.001395 -0.000527 0.000000 0.000000 0.000000
# 2 -0.001395 0.006160 -0.003554 0.000000 0.000000 0.000000
# 3 -0.000527 -0.003554 0.018097 0.000000 0.000000 0.000000
# 4 0.000000 0.000000 0.000000 -0.126787 0.000000 0.000000
# 5 0.000000 0.000000 0.000000 0.000000 0.045153 0.000000
# 6 0.000000 0.000000 0.000000 0.000000 0.000000 0.028947
#
#
# Mechanical properties :
#
#
# Convention : Reuss Voigt Hill
#
# Bulk Modulus (GPa) = 50.71493 69.45290 60.08391
# Shear Modulus (GPa) = -1112.81477 31.54211 -540.63633
#
# Velocity S-wave (km/s) = -23.44054 3.94640 -16.33837
# Velocity P-wave (km/s) = 26.60020 7.42012 18.06257
#
# Compressibility (1/GPa) = 0.01971806
#
# Stress axis : x y z
#
# Youngs Moduli (GPa) = 155.91911 162.35041 55.25901
#
# Poissons Ratio (x) = 0.22650 0.02912
# Poissons Ratio (y) = 0.21753 0.19638
# Poissons Ratio (z) = 0.08215 0.57696
#
# Static dielectric constant tensor:
#      x y z
#    x 1.698840 0.000000 0.000000 
#    y 0.000000 1.870600 0.000000 
#    z 0.000000 0.000000 1.695910 
# 
# From -- ./inp_files/27518.got.cif
#   From: 2010.05.17/outbox.cif.g08.bks.cpg/sg42_14_cif.got.tgz:27518.got - 2010.06.03 19:03:34.
