data_PCOD9369944
_publ_section_title
;
Structure prediction by ZEFSAII (Michael W. Deem and Ramdas Pophale) SiO2 
 PCOD9369944
Probable space group: F M M 2
;
_chemical_formula_sum "Si O2"
_cell_formula_units_Z 112
_cell_length_a 13.806266
_cell_length_b 25.288229
_cell_length_c 13.384349
_cell_angle_alpha 90.000000
_cell_angle_beta 90.000000
_cell_angle_gamma 90.000000
_cell_volume 4672.958290
_symmetry_space_group_name_H-M "F M M 2"
_symmetry_group_IT_number 42
_symmetry_cell_setting 'orthorhombic'
loop_
_space_group_symop_operation_xyz
x,y,z
-x,-y,z
-x,y,z
x,-y,z
x,1/2+y,1/2+z
-x,1/2-y,1/2+z
-x,1/2+y,1/2+z
x,1/2-y,1/2+z
1/2+x,y,1/2+z
1/2-x,-y,1/2+z
1/2-x,y,1/2+z
1/2+x,-y,1/2+z
1/2+x,1/2+y,z
1/2-x,1/2-y,z
1/2-x,1/2+y,z
1/2+x,1/2-y,z
loop_
_atom_site_type_symbol
_atom_site_label
_atom_site_fract_x
_atom_site_fract_y
_atom_site_fract_z
Si Si1 0.198468 0.905557 0.468570
Si Si2 0.115796 0.561355 0.173657
Si Si3 0.686024 0.327963 0.184092
Si Si4 0.606454 0.562656 0.895222
Si Si5 0.697621 0.695233 0.961253
Si Si6 0.109973 0.782751 0.753820
Si Si7 0.885086 0.559699 0.765644
O O1 0.153712 0.909171 0.577047
O O2 0.307836 0.927526 0.470864
O O3 0.217719 0.846056 0.433574
O O4 0.138970 0.935828 0.383929
O O5 0.145712 0.500000 0.164032
O O6 0.139915 0.581284 0.285129
O O7 0.000000 0.562482 0.171930
O O8 0.657252 0.322325 0.067821
O O9 0.799714 0.311119 0.197459
O O10 0.629445 0.280326 0.240814
O O11 0.662075 0.387863 0.217111
O O12 0.500000 0.583832 0.920429
O O13 0.597399 0.500000 0.884110
O O14 0.750000 0.750000 0.976754
O O15 0.624557 0.700847 0.869522
O O16 0.000000 0.795749 0.721082
O O17 0.854370 0.500000 0.733031
O O18 0.000000 0.563086 0.749846
#
# Coordination Sequence:
#
# PCOD9369944 Si02
#       7
#    16  16  16  16  16  16  16
#     4  12  23  38  68  98 138 182 233 296 353 421
#     4   9  19  38  65  97 131 174 232 289 342 410
#     4  11  24  49  77 106 153 192 244 306 382 444
#     4   9  20  40  64  93 133 180 229 280 343 417
#     4  12  25  47  70 104 144 187 239 305 375 443
#     4  11  23  45  80 112 145 190 248 311 376 442
#     4  11  24  44  72 106 146 198 250 298 364 446
#
# _framework density 23.967687000000002
#
# number of rings (size 3 to 8) (size 9 to 14) (size 15 to 20)
#    0.000    1.286    4.286    3.000    2.000    2.857 
#    0.000    3.571    0.000    2.143    0.000    0.000 
#    0.000    0.000    0.000    0.000    0.000    0.000 
#
# Total GULP energy -156649.496134 kJ/mol
# GULP energy per Si atom -5594.624862 kJ/mol
# Density = 2.391314 g / cm^3
# Si number density = 23.967687 Si / 1000 Ang^3
#
#
#
# Elastic Constant Matrix: (Units=GPa)
#
#
# Indices 1 2 3 4 5 6 
#
# 1 119.3954 39.7067 24.2366 0.0000 0.0000 0.0000
# 2 39.7067 169.6091 27.0786 0.0000 0.0000 0.0000
# 3 24.2366 27.0786 90.3017 0.0000 0.0000 0.0000
# 4 0.0000 0.0000 0.0000 33.0293 0.0000 0.0000
# 5 0.0000 0.0000 0.0000 0.0000 16.1459 0.0000
# 6 0.0000 0.0000 0.0000 0.0000 0.0000 60.6303
#
#
#
# Elastic Compliance Matrix: (Units=1/GPa)
#
#
# Indices 1 2 3 4 5 6 
#
# 1 0.009401 -0.001888 -0.001957 0.000000 0.000000 0.000000
# 2 -0.001888 0.006572 -0.001464 0.000000 0.000000 0.000000
# 3 -0.001957 -0.001464 0.012038 0.000000 0.000000 0.000000
# 4 0.000000 0.000000 0.000000 0.030276 0.000000 0.000000
# 5 0.000000 0.000000 0.000000 0.000000 0.061935 0.000000
# 6 0.000000 0.000000 0.000000 0.000000 0.000000 0.016493
#
#
# Mechanical properties :
#
#
# Convention : Reuss Voigt Hill
#
# Bulk Modulus (GPa) = 57.49597 62.37224 59.93411
# Shear Modulus (GPa) = 32.65177 41.18004 36.91591
#
# Velocity S-wave (km/s) = 3.69497 4.14955 3.92884
# Velocity P-wave (km/s) = 6.49960 7.00274 6.75585
#
# Compressibility (1/GPa) = 0.01739252
#
# Stress axis : x y z
#
# Youngs Moduli (GPa) = 106.37428 152.16780 83.06919
#
# Poissons Ratio (x) = 0.28735 0.16256
# Poissons Ratio (y) = 0.20087 0.12160
# Poissons Ratio (z) = 0.20816 0.22275
#
# Static dielectric constant tensor:
#      x y z
#    x 1.902160 0.000000 0.000000 
#    y 0.000000 2.005080 0.000000 
#    z 0.000000 0.000000 1.907930 
# 
# From -- ./inp_files/14383.got.cif
#   From: 2010.05.17/outbox.cif.g08.bks.cpg/sg42_8_cif.got.tgz:14383.got - 2010.06.03 19:03:34.
