data_PCOD9369861
_publ_section_title
;
Structure prediction by ZEFSAII (Michael W. Deem and Ramdas Pophale) SiO2 
 PCOD9369861
Probable space group: F M M 2
;
_chemical_formula_sum "Si O2"
_cell_formula_units_Z 64
_cell_length_a 14.510335
_cell_length_b 22.295846
_cell_length_c 7.894219
_cell_angle_alpha 90.000000
_cell_angle_beta 90.000000
_cell_angle_gamma 90.000000
_cell_volume 2553.939267
_symmetry_space_group_name_H-M "F M M 2"
_symmetry_group_IT_number 42
_symmetry_cell_setting 'orthorhombic'
loop_
_space_group_symop_operation_xyz
x,y,z
-x,-y,z
-x,y,z
x,-y,z
x,1/2+y,1/2+z
-x,1/2-y,1/2+z
-x,1/2+y,1/2+z
x,1/2-y,1/2+z
1/2+x,y,1/2+z
1/2-x,-y,1/2+z
1/2-x,y,1/2+z
1/2+x,-y,1/2+z
1/2+x,1/2+y,z
1/2-x,1/2-y,z
1/2-x,1/2+y,z
1/2+x,1/2-y,z
loop_
_atom_site_type_symbol
_atom_site_label
_atom_site_fract_x
_atom_site_fract_y
_atom_site_fract_z
Si Si1 0.889445 0.120290 0.225170
Si Si2 0.273113 0.429131 0.906544
Si Si3 0.597496 0.848719 0.209592
Si Si4 0.357174 0.235807 0.522770
O O1 0.830968 0.096703 0.386119
O O2 0.869689 0.190129 0.181128
O O3 0.000000 0.110615 0.233046
O O4 0.840348 0.086496 0.064685
O O5 0.269188 0.500000 0.887453
O O6 0.323008 0.395440 0.749699
O O7 0.500000 0.880797 0.208209
O O8 0.603730 0.803102 0.370197
O O9 0.600964 0.800326 0.060328
O O10 0.250000 0.250000 0.497397
#
# Coordination Sequence:
#
# PCOD9369861 Si02
#       4
#    16  16  16  16
#     4  11  25  46  71  99 136 181 224 277 342 400
#     4  11  24  43  68  98 133 178 229 276 328 399
#     4  11  23  39  63  96 131 171 216 271 336 397
#     4  11  21  39  63  95 134 167 211 276 336 393
#
# _framework density 25.059329999999999
#
# number of rings (size 3 to 8) (size 9 to 14) (size 15 to 20)
#    0.000    1.000    2.500    6.000    3.500    3.500 
#    0.000    2.500    0.000    6.000    0.000    0.000 
#    0.000    0.000    0.000    0.000    0.000    0.000 
#
# Total GULP energy -89514.226592 kJ/mol
# GULP energy per Si atom -5594.639162 kJ/mol
# Density = 2.500229 g / cm^3
# Si number density = 25.059330 Si / 1000 Ang^3
#
#
#
# Elastic Constant Matrix: (Units=GPa)
#
#
# Indices 1 2 3 4 5 6 
#
# 1 240.2082 43.3711 12.4247 0.0000 0.0000 0.0000
# 2 43.3711 181.5880 8.0415 0.0000 0.0000 0.0000
# 3 12.4247 8.0415 99.0586 0.0000 0.0000 0.0000
# 4 0.0000 0.0000 0.0000 24.6786 0.0000 0.0000
# 5 0.0000 0.0000 0.0000 0.0000 6.2695 0.0000
# 6 0.0000 0.0000 0.0000 0.0000 0.0000 -8.4551
#
#
#
# Elastic Compliance Matrix: (Units=1/GPa)
#
#
# Indices 1 2 3 4 5 6 
#
# 1 0.004372 -0.001024 -0.000465 0.000000 0.000000 0.000000
# 2 -0.001024 0.005766 -0.000340 0.000000 0.000000 0.000000
# 3 -0.000465 -0.000340 0.010181 0.000000 0.000000 0.000000
# 4 0.000000 0.000000 0.000000 0.040521 0.000000 0.000000
# 5 0.000000 0.000000 0.000000 0.000000 0.159503 0.000000
# 6 0.000000 0.000000 0.000000 0.000000 0.000000 -0.118272
#
#
# Mechanical properties :
#
#
# Convention : Reuss Voigt Hill
#
# Bulk Modulus (GPa) = 60.01609 72.05883 66.03746
# Shear Modulus (GPa) = 44.93060 34.96644 39.94852
#
# Velocity S-wave (km/s) = 4.23894 3.73949 3.99702
# Velocity P-wave (km/s) = 6.92530 6.88932 6.90733
#
# Compressibility (1/GPa) = 0.01666220
#
# Stress axis : x y z
#
# Youngs Moduli (GPa) = 228.73147 173.41549 98.22249
#
# Poissons Ratio (x) = 0.17751 0.04570
# Poissons Ratio (y) = 0.23413 0.03337
# Poissons Ratio (z) = 0.10642 0.05891
#
# Static dielectric constant tensor:
#      x y z
#    x 1.992370 0.000000 0.000000 
#    y 0.000000 1.868300 0.000000 
#    z 0.000000 0.000000 2.220430 
# 
# From -- ./inp_files/2675.got.cif
#   From: 2010.05.17/outbox.cif.g08.bks.cpg/sg42_2_cif.got.tgz:2675.got - 2010.06.03 19:03:34.
