data_PCOD9369247
_publ_section_title
;
Structure prediction by ZEFSAII (Michael W. Deem and Ramdas Pophale) SiO2 
 PCOD9369247
Probable space group: F M M 2
;
_chemical_formula_sum "Si O2"
_cell_formula_units_Z 112
_cell_length_a 14.460649
_cell_length_b 32.483368
_cell_length_c 12.314263
_cell_angle_alpha 90.000000
_cell_angle_beta 90.000000
_cell_angle_gamma 90.000000
_cell_volume 5784.385938
_symmetry_space_group_name_H-M "F M M 2"
_symmetry_group_IT_number 42
_symmetry_cell_setting 'orthorhombic'
loop_
_space_group_symop_operation_xyz
x,y,z
-x,-y,z
-x,y,z
x,-y,z
x,1/2+y,1/2+z
-x,1/2-y,1/2+z
-x,1/2+y,1/2+z
x,1/2-y,1/2+z
1/2+x,y,1/2+z
1/2-x,-y,1/2+z
1/2-x,y,1/2+z
1/2+x,-y,1/2+z
1/2+x,1/2+y,z
1/2-x,1/2-y,z
1/2-x,1/2+y,z
1/2+x,1/2-y,z
loop_
_atom_site_type_symbol
_atom_site_label
_atom_site_fract_x
_atom_site_fract_y
_atom_site_fract_z
Si Si1 0.602903 0.810829 0.452980
Si Si2 0.643729 0.239432 0.667760
Si Si3 0.893164 0.548488 0.332647
Si Si4 0.104511 0.402450 0.545344
Si Si5 0.241678 0.887474 0.721494
Si Si6 0.602932 0.326462 0.597693
Si Si7 0.198528 0.185795 0.366452
O O1 0.500000 0.803516 0.405781
O O2 0.607097 0.788259 0.569217
O O3 0.611969 0.859566 0.477904
O O4 0.695985 0.798701 0.388658
O O5 0.750000 0.250000 0.642831
O O6 0.597946 0.283826 0.663522
O O7 0.645555 0.213833 0.778861
O O8 0.879897 0.500000 0.317086
O O9 0.883421 0.561254 0.458717
O O10 0.819631 0.575762 0.268277
O O11 0.000000 0.558963 0.302643
O O12 0.180349 0.402214 0.638320
O O13 0.000000 0.403730 0.589596
O O14 0.172979 0.856670 0.657884
O O15 0.288915 0.859416 0.814256
O O16 0.500000 0.343979 0.588282
O O17 0.644662 0.316063 0.479493
#
# Coordination Sequence:
#
# PCOD9369247 Si02
#       7
#    16  16  16  16  16  16  16
#     4  11  22  39  61  87 115 154 204 253 304 366
#     4  12  23  41  59  80 121 161 205 255 307 361
#     4  10  22  40  65  95 126 163 207 253 306 373
#     4  10  20  38  63  92 125 158 200 248 307 374
#     4  12  21  41  65  94 123 162 203 256 314 370
#     4  12  27  41  58  88 122 164 211 262 312 363
#     4  12  23  41  62  84 118 160 201 258 304 372
#
# _framework density 19.362469999999998
#
# number of rings (size 3 to 8) (size 9 to 14) (size 15 to 20)
#    0.000    0.714    7.143    0.857    2.000    2.857 
#    0.000    0.000    0.000    0.000    0.000    0.000 
#    0.000    0.000    0.000    0.000    0.000    0.000 
#
# Total GULP energy -156597.644267 kJ/mol
# GULP energy per Si atom -5592.773010 kJ/mol
# Density = 1.931840 g / cm^3
# Si number density = 19.362470 Si / 1000 Ang^3
#
#
#
# Elastic Constant Matrix: (Units=GPa)
#
#
# Indices 1 2 3 4 5 6 
#
# 1 120.4678 37.2518 50.2822 0.0000 0.0000 0.0000
# 2 37.2518 96.0176 45.4642 0.0000 0.0000 0.0000
# 3 50.2822 45.4642 92.0010 0.0000 0.0000 0.0000
# 4 0.0000 0.0000 0.0000 23.6918 0.0000 0.0000
# 5 0.0000 0.0000 0.0000 0.0000 25.2415 0.0000
# 6 0.0000 0.0000 0.0000 0.0000 0.0000 31.6586
#
#
#
# Elastic Compliance Matrix: (Units=1/GPa)
#
#
# Indices 1 2 3 4 5 6 
#
# 1 0.011002 -0.001855 -0.005096 0.000000 0.000000 0.000000
# 2 -0.001855 0.013909 -0.005859 0.000000 0.000000 0.000000
# 3 -0.005096 -0.005859 0.016550 0.000000 0.000000 0.000000
# 4 0.000000 0.000000 0.000000 0.042209 0.000000 0.000000
# 5 0.000000 0.000000 0.000000 0.000000 0.039617 0.000000
# 6 0.000000 0.000000 0.000000 0.000000 0.000000 0.031587
#
#
# Mechanical properties :
#
#
# Convention : Reuss Voigt Hill
#
# Bulk Modulus (GPa) = 63.13392 63.83143 63.48268
# Shear Modulus (GPa) = 26.91427 27.81762 27.36594
#
# Velocity S-wave (km/s) = 3.73235 3.79446 3.76353
# Velocity P-wave (km/s) = 7.15898 7.22741 7.19328
#
# Compressibility (1/GPa) = 0.01583935
#
# Stress axis : x y z
#
# Youngs Moduli (GPa) = 90.89481 71.89594 60.42238
#
# Poissons Ratio (x) = 0.13339 0.30791
# Poissons Ratio (y) = 0.16864 0.35404
# Poissons Ratio (z) = 0.46320 0.42127
#
# Static dielectric constant tensor:
#      x y z
#    x 1.705700 0.000000 0.000000 
#    y 0.000000 1.674810 0.000000 
#    z 0.000000 0.000000 1.684470 
# 
# From -- ./inp_files/8095.got.cif
#   From: 2010.05.17/outbox.cif.g08.bks.cpg/sg42_5_cif.got.tgz:8095.got - 2010.06.03 19:03:34.
