data_PCOD9369021
_publ_section_title
;
Structure prediction by ZEFSAII (Michael W. Deem and Ramdas Pophale) SiO2 
 PCOD9369021
Probable space group: F M M 2
;
_chemical_formula_sum "Si O2"
_cell_formula_units_Z 88
_cell_length_a 13.979532
_cell_length_b 14.718442
_cell_length_c 23.368421
_cell_angle_alpha 90.000000
_cell_angle_beta 90.000000
_cell_angle_gamma 90.000000
_cell_volume 4808.214586
_symmetry_space_group_name_H-M "F M M 2"
_symmetry_group_IT_number 42
_symmetry_cell_setting 'orthorhombic'
loop_
_space_group_symop_operation_xyz
x,y,z
-x,-y,z
-x,y,z
x,-y,z
x,1/2+y,1/2+z
-x,1/2-y,1/2+z
-x,1/2+y,1/2+z
x,1/2-y,1/2+z
1/2+x,y,1/2+z
1/2-x,-y,1/2+z
1/2-x,y,1/2+z
1/2+x,-y,1/2+z
1/2+x,1/2+y,z
1/2-x,1/2-y,z
1/2-x,1/2+y,z
1/2+x,1/2-y,z
loop_
_atom_site_type_symbol
_atom_site_label
_atom_site_fract_x
_atom_site_fract_y
_atom_site_fract_z
Si Si1 0.887400 0.000000 0.515420
Si Si2 0.614091 0.000000 0.500305
Si Si3 0.289353 0.350407 0.689410
Si Si4 0.727106 0.000000 0.903672
Si Si5 0.000000 0.603698 0.323535
Si Si6 0.259796 0.639406 0.067001
Si Si7 0.500000 0.603824 0.685572
Si Si8 0.211528 0.648675 0.319142
O O1 0.833753 0.087918 0.542033
O O2 0.858939 0.000000 0.448525
O O3 0.000000 0.000000 0.524825
O O4 0.675910 0.000000 0.441926
O O5 0.653009 0.910089 0.533983
O O6 0.500000 0.000000 0.493684
O O7 0.250000 0.250000 0.696457
O O8 0.234378 0.387358 0.634229
O O9 0.400377 0.350071 0.670343
O O10 0.283776 0.390084 0.753632
O O11 0.730461 0.086393 0.862431
O O12 0.000000 0.601554 0.254466
O O13 0.899418 0.648370 0.338634
O O14 0.000000 0.500000 0.343960
O O15 0.250000 0.750000 0.061921
O O16 0.500000 0.500000 0.664527
O O17 0.250000 0.750000 0.319550
#
# Coordination Sequence:
#
# PCOD9369021 Si02
#       8
#     8   8  16   8   8  16   8  16
#     4  10  24  41  59  83 112 147 196 245 278 326
#     4  10  24  41  59  82 112 148 197 245 277 325
#     4   9  19  34  54  88 121 144 176 228 282 343
#     4  10  22  38  60  79 114 151 197 230 285 329
#     4   9  16  32  54  83 108 144 192 227 261 325
#     4   9  20  39  61  87 115 147 186 229 288 342
#     4   9  18  26  52  84 109 143 187 219 261 324
#     4  10  20  35  58  88 119 148 181 232 284 338
#
# _framework density 18.302012000000001
#
# number of rings (size 3 to 8) (size 9 to 14) (size 15 to 20)
#    0.000    2.727    0.909    0.000    6.364    3.636 
#    6.545    0.000    0.000    1.091    0.000    0.000 
#    0.000    0.000    0.000    0.000    0.000    0.000 
#
# Total GULP energy -122475.118863 kJ/mol
# GULP energy per Si atom -5567.050857 kJ/mol
# Density = 1.826036 g / cm^3
# Si number density = 18.302012 Si / 1000 Ang^3
#
#
#
# Elastic Constant Matrix: (Units=GPa)
#
#
# Indices 1 2 3 4 5 6 
#
# 1 97.5046 44.9816 2.8154 0.0000 0.0000 0.0000
# 2 44.9816 120.8950 27.7983 0.0000 0.0000 0.0000
# 3 2.8154 27.7983 101.2248 0.0000 0.0000 0.0000
# 4 0.0000 0.0000 0.0000 31.1395 0.0000 0.0000
# 5 0.0000 0.0000 0.0000 0.0000 25.2708 0.0000
# 6 0.0000 0.0000 0.0000 0.0000 0.0000 18.5827
#
#
#
# Elastic Compliance Matrix: (Units=1/GPa)
#
#
# Indices 1 2 3 4 5 6 
#
# 1 0.012473 -0.004869 0.000990 0.000000 0.000000 0.000000
# 2 -0.004869 0.010730 -0.002811 0.000000 0.000000 0.000000
# 3 0.000990 -0.002811 0.010623 0.000000 0.000000 0.000000
# 4 0.000000 0.000000 0.000000 0.032114 0.000000 0.000000
# 5 0.000000 0.000000 0.000000 0.000000 0.039571 0.000000
# 6 0.000000 0.000000 0.000000 0.000000 0.000000 0.053813
#
#
# Mechanical properties :
#
#
# Convention : Reuss Voigt Hill
#
# Bulk Modulus (GPa) = 48.90692 52.31277 50.60985
# Shear Modulus (GPa) = 27.85207 31.26719 29.55963
#
# Velocity S-wave (km/s) = 3.90526 4.13777 4.02319
# Velocity P-wave (km/s) = 6.86403 7.17449 7.02098
#
# Compressibility (1/GPa) = 0.02044700
#
# Stress axis : x y z
#
# Youngs Moduli (GPa) = 80.17064 93.20082 94.13140
#
# Poissons Ratio (x) = 0.45376 -0.09320
# Poissons Ratio (y) = 0.39032 0.26461
# Poissons Ratio (z) = -0.07938 0.26200
#
# Static dielectric constant tensor:
#      x y z
#    x 1.623560 0.000000 0.000000 
#    y 0.000000 1.751960 0.000000 
#    z 0.000000 0.000000 1.689040 
# 
# From -- ./inp_files/32568.got.cif
#   From: 2010.05.17/outbox.cif.g08.bks.cpg/sg42_17_cif.got.tgz:32568.got - 2010.06.03 19:03:34.
