data_PCOD9369588
_publ_section_title
;
Structure prediction by ZEFSAII (Michael W. Deem and Ramdas Pophale) SiO2 
 PCOD9369588
Probable space group: F M M 2
;
_chemical_formula_sum "Si O2"
_cell_formula_units_Z 68
_cell_length_a 17.398591
_cell_length_b 16.891615
_cell_length_c 9.770554
_cell_angle_alpha 90.000000
_cell_angle_beta 90.000000
_cell_angle_gamma 90.000000
_cell_volume 2871.471053
_symmetry_space_group_name_H-M "F M M 2"
_symmetry_group_IT_number 42
_symmetry_cell_setting 'orthorhombic'
loop_
_space_group_symop_operation_xyz
x,y,z
-x,-y,z
-x,y,z
x,-y,z
x,1/2+y,1/2+z
-x,1/2-y,1/2+z
-x,1/2+y,1/2+z
x,1/2-y,1/2+z
1/2+x,y,1/2+z
1/2-x,-y,1/2+z
1/2-x,y,1/2+z
1/2+x,-y,1/2+z
1/2+x,1/2+y,z
1/2-x,1/2-y,z
1/2-x,1/2+y,z
1/2+x,1/2-y,z
loop_
_atom_site_type_symbol
_atom_site_label
_atom_site_fract_x
_atom_site_fract_y
_atom_site_fract_z
Si Si1 0.414641 0.094482 0.737510
Si Si2 0.000000 0.000000 0.895090
Si Si3 0.294089 0.828026 0.541021
Si Si4 0.863440 0.092308 0.540037
Si Si5 0.416912 0.841685 0.322634
O O1 0.500000 0.114861 0.687764
O O2 0.350505 0.141161 0.657157
O O3 0.406726 0.108469 0.898792
O O4 0.405320 0.000000 0.715391
O O5 0.934551 0.070714 0.884008
O O6 0.250000 0.750000 0.585316
O O7 0.226650 0.891330 0.514719
O O8 0.346556 0.808614 0.409350
O O9 0.894514 0.144275 0.665226
O O10 0.876290 0.000000 0.575153
O O11 0.500000 0.799061 0.331967
#
# Coordination Sequence:
#
# PCOD9369588 Si02
#       5
#    16   4  16  16  16
#     4  10  23  42  72 102 132 170 225 284 339 395
#     4   8  20  36  76 102 128 160 228 286 344 380
#     4  12  27  42  59  95 141 183 230 273 328 401
#     4  11  22  40  68 103 134 168 219 286 346 398
#     4  10  21  41  71  97 130 169 225 278 335 397
#
# _framework density 23.681241
#
# number of rings (size 3 to 8) (size 9 to 14) (size 15 to 20)
#    0.706    0.706    1.176    3.529    3.294    6.588 
#    0.000    7.059    0.000    0.000    0.000    0.000 
#    0.000    0.000    0.000    0.000    0.000    0.000 
#
# Total GULP energy -94951.505720 kJ/mol
# GULP energy per Si atom -5585.382689 kJ/mol
# Density = 2.362734 g / cm^3
# Si number density = 23.681241 Si / 1000 Ang^3
#
#
#
# Elastic Constant Matrix: (Units=GPa)
#
#
# Indices 1 2 3 4 5 6 
#
# 1 166.0875 31.7985 61.4066 0.0000 0.0000 0.0000
# 2 31.7985 65.2967 16.3473 0.0000 0.0000 0.0000
# 3 61.4066 16.3473 102.5755 0.0000 0.0000 0.0000
# 4 0.0000 0.0000 0.0000 -11.3729 0.0000 0.0000
# 5 0.0000 0.0000 0.0000 0.0000 35.1784 0.0000
# 6 0.0000 0.0000 0.0000 0.0000 0.0000 55.3549
#
#
#
# Elastic Compliance Matrix: (Units=1/GPa)
#
#
# Indices 1 2 3 4 5 6 
#
# 1 0.008224 -0.002888 -0.004463 0.000000 0.000000 0.000000
# 2 -0.002888 0.016965 -0.000975 0.000000 0.000000 0.000000
# 3 -0.004463 -0.000975 0.012576 0.000000 0.000000 0.000000
# 4 0.000000 0.000000 0.000000 -0.087929 0.000000 0.000000
# 5 0.000000 0.000000 0.000000 0.000000 0.028427 0.000000
# 6 0.000000 0.000000 0.000000 0.000000 0.000000 0.018065
#
#
# Mechanical properties :
#
#
# Convention : Reuss Voigt Hill
#
# Bulk Modulus (GPa) = 47.36261 61.45161 54.40711
# Shear Modulus (GPa) = 249.78416 30.79258 140.28837
#
# Velocity S-wave (km/s) = 10.28137 3.60987 7.70512
# Velocity P-wave (km/s) = 12.68801 6.58640 10.10857
#
# Compressibility (1/GPa) = 0.02111370
#
# Stress axis : x y z
#
# Youngs Moduli (GPa) = 121.59775 58.94480 79.51610
#
# Poissons Ratio (x) = 0.17021 0.35488
# Poissons Ratio (y) = 0.35112 0.07753
# Poissons Ratio (z) = 0.54269 0.05748
#
# Static dielectric constant tensor:
#      x y z
#    x 1.942680 0.000000 0.000000 
#    y 0.000000 1.917720 0.000000 
#    z 0.000000 0.000000 1.908820 
# 
# From -- ./inp_files/3290.got.cif
#   From: 2010.05.17/outbox.cif.g08.bks.cpg/sg42_2_cif.got.tgz:3290.got - 2010.06.03 19:03:34.
