data_PCOD9369940
_publ_section_title
;
Structure prediction by ZEFSAII (Michael W. Deem and Ramdas Pophale) SiO2 
 PCOD9369940
Probable space group: F M M 2
;
_chemical_formula_sum "Si O2"
_cell_formula_units_Z 88
_cell_length_a 17.326051
_cell_length_b 17.889725
_cell_length_c 14.109397
_cell_angle_alpha 90.000000
_cell_angle_beta 90.000000
_cell_angle_gamma 90.000000
_cell_volume 4373.324535
_symmetry_space_group_name_H-M "F M M 2"
_symmetry_group_IT_number 42
_symmetry_cell_setting 'orthorhombic'
loop_
_space_group_symop_operation_xyz
x,y,z
-x,-y,z
-x,y,z
x,-y,z
x,1/2+y,1/2+z
-x,1/2-y,1/2+z
-x,1/2+y,1/2+z
x,1/2-y,1/2+z
1/2+x,y,1/2+z
1/2-x,-y,1/2+z
1/2-x,y,1/2+z
1/2+x,-y,1/2+z
1/2+x,1/2+y,z
1/2-x,1/2-y,z
1/2-x,1/2+y,z
1/2+x,1/2-y,z
loop_
_atom_site_type_symbol
_atom_site_label
_atom_site_fract_x
_atom_site_fract_y
_atom_site_fract_z
Si Si1 0.000000 0.589957 0.931250
Si Si2 0.000000 0.088523 0.657344
Si Si3 0.090906 0.000000 0.924468
Si Si4 0.797831 0.357837 0.695408
Si Si5 0.250000 0.250000 0.029178
Si Si6 0.872878 0.208417 0.373649
Si Si7 0.406211 0.500000 0.151165
Si Si8 0.131267 0.635267 0.296418
O O1 0.071554 0.638521 0.892494
O O2 0.000000 0.500000 0.909996
O O3 0.000000 0.598775 0.044949
O O4 0.926687 0.122546 0.709673
O O5 0.000000 0.000000 0.674795
O O6 0.128316 0.070475 0.873958
O O7 0.000000 0.000000 0.901006
O O8 0.097403 0.000000 0.037093
O O9 0.785125 0.313871 0.597215
O O10 0.836735 0.303645 0.770789
O O11 0.855647 0.428262 0.684439
O O12 0.715063 0.370041 0.746170
O O13 0.187615 0.287057 0.959402
O O14 0.899202 0.293428 0.356912
O O15 0.500000 0.500000 0.176466
#
# Coordination Sequence:
#
# PCOD9369940 Si02
#       8
#     8   8   8  16   8  16   8  16
#     4  11  29  48  70 105 142 194 243 295 364 431
#     4  11  23  44  70 106 145 181 236 297 352 431
#     4  11  23  44  70 106 145 181 236 297 352 431
#     4  12  26  46  73 101 143 188 238 305 359 434
#     4  12  22  52  68 110 140 180 254 288 372 442
#     4  12  26  46  73 101 143 188 238 305 359 434
#     4  11  29  48  70 105 142 194 243 295 364 431
#     4  12  20  46  72 106 142 188 240 296 370 416
#
# _framework density 20.121991000000001
#
# number of rings (size 3 to 8) (size 9 to 14) (size 15 to 20)
#    0.000    0.364    5.455    3.273    2.545    0.000 
#    3.273    0.000    0.000    0.000    0.000    0.000 
#    0.000    0.000    0.000    0.000    0.000    0.000 
#
# Total GULP energy -122714.102057 kJ/mol
# GULP energy per Si atom -5577.913730 kJ/mol
# Density = 2.007619 g / cm^3
# Si number density = 20.121991 Si / 1000 Ang^3
#
#
#
# Elastic Constant Matrix: (Units=GPa)
#
#
# Indices 1 2 3 4 5 6 
#
# 1 83.3221 50.6323 11.4468 0.0000 0.0000 0.0000
# 2 50.6323 142.7971 37.9920 0.0000 0.0000 0.0000
# 3 11.4468 37.9920 104.5254 0.0000 0.0000 0.0000
# 4 0.0000 0.0000 0.0000 79.4193 0.0000 0.0000
# 5 0.0000 0.0000 0.0000 0.0000 37.8076 0.0000
# 6 0.0000 0.0000 0.0000 0.0000 0.0000 36.2991
#
#
#
# Elastic Compliance Matrix: (Units=1/GPa)
#
#
# Indices 1 2 3 4 5 6 
#
# 1 0.015308 -0.005515 0.000328 0.000000 0.000000 0.000000
# 2 -0.005515 0.009740 -0.002936 0.000000 0.000000 0.000000
# 3 0.000328 -0.002936 0.010598 0.000000 0.000000 0.000000
# 4 0.000000 0.000000 0.000000 0.012591 0.000000 0.000000
# 5 0.000000 0.000000 0.000000 0.000000 0.026450 0.000000
# 6 0.000000 0.000000 0.000000 0.000000 0.000000 0.027549
#
#
# Mechanical properties :
#
#
# Convention : Reuss Voigt Hill
#
# Bulk Modulus (GPa) = 51.54704 58.97634 55.26169
# Shear Modulus (GPa) = 40.01647 46.07676 43.04662
#
# Velocity S-wave (km/s) = 4.46431 4.79045 4.63026
# Velocity P-wave (km/s) = 7.22816 7.74409 7.49057
#
# Compressibility (1/GPa) = 0.01939976
#
# Stress axis : x y z
#
# Youngs Moduli (GPa) = 65.32575 102.67322 94.35473
#
# Poissons Ratio (x) = 0.56626 -0.03097
# Poissons Ratio (y) = 0.36028 0.27704
# Poissons Ratio (z) = -0.02144 0.30146
#
# Static dielectric constant tensor:
#      x y z
#    x 1.742110 0.000000 0.000000 
#    y 0.000000 1.722780 0.000000 
#    z 0.000000 0.000000 1.666800 
# 
# From -- ./inp_files/15107.got.cif
#   From: 2010.05.17/outbox.cif.g08.bks.cpg/sg42_8_cif.got.tgz:15107.got - 2010.06.03 19:03:34.
