data_PCOD9369656
_publ_section_title
;
Structure prediction by ZEFSAII (Michael W. Deem and Ramdas Pophale) SiO2 
 PCOD9369656
Probable space group: F M M 2
;
_chemical_formula_sum "Si O2"
_cell_formula_units_Z 80
_cell_length_a 8.492619
_cell_length_b 14.918713
_cell_length_c 31.402786
_cell_angle_alpha 90.000000
_cell_angle_beta 90.000000
_cell_angle_gamma 90.000000
_cell_volume 3978.699871
_symmetry_space_group_name_H-M "F M M 2"
_symmetry_group_IT_number 42
_symmetry_cell_setting 'orthorhombic'
loop_
_space_group_symop_operation_xyz
x,y,z
-x,-y,z
-x,y,z
x,-y,z
x,1/2+y,1/2+z
-x,1/2-y,1/2+z
-x,1/2+y,1/2+z
x,1/2-y,1/2+z
1/2+x,y,1/2+z
1/2-x,-y,1/2+z
1/2-x,y,1/2+z
1/2+x,-y,1/2+z
1/2+x,1/2+y,z
1/2-x,1/2-y,z
1/2-x,1/2+y,z
1/2+x,1/2-y,z
loop_
_atom_site_type_symbol
_atom_site_label
_atom_site_fract_x
_atom_site_fract_y
_atom_site_fract_z
Si Si1 0.310496 0.352902 0.291600
Si Si2 0.687059 0.000000 0.944260
Si Si3 0.309737 0.147431 0.699640
Si Si4 0.812849 0.851622 0.881376
Si Si5 0.190324 0.148655 0.106542
Si Si6 0.690971 0.000000 0.540089
O O1 0.500000 0.354483 0.294136
O O2 0.250000 0.250000 0.290874
O O3 0.261106 0.392039 0.245514
O O4 0.243632 0.389859 0.335618
O O5 0.750937 0.913636 0.919075
O O6 0.500000 0.000000 0.942398
O O7 0.743080 0.000000 0.992849
O O8 0.500000 0.146527 0.700110
O O9 0.250000 0.250000 0.699532
O O10 0.259967 0.111767 0.653358
O O11 0.750000 0.750000 0.885358
O O12 0.000000 0.849421 0.881655
O O13 0.250000 0.250000 0.102181
O O14 0.000000 0.149790 0.106511
O O15 0.241483 0.085888 0.067943
O O16 0.500000 0.000000 0.537894
#
# Coordination Sequence:
#
# PCOD9369656 Si02
#       6
#    16   8  16  16  16   8
#     4   9  15  26  47  78 114 150 188 227 271 324
#     4  12  26  44  63  84 111 145 190 243 297 348
#     4   8  14  25  45  75 109 146 185 223 265 319
#     4  11  22  39  62  88 118 152 191 234 285 342
#     4   9  18  34  56  81 111 147 186 227 274 329
#     4  10  22  40  59  80 109 143 182 233 291 344
#
# _framework density 20.107071000000001
#
# number of rings (size 3 to 8) (size 9 to 14) (size 15 to 20)
#    0.000    2.400    0.000    4.500    0.000    2.400 
#    0.000    3.000    0.000    3.600    0.000    0.000 
#    0.000    0.000    0.000    0.000    0.000    0.000 
#
# Total GULP energy -111552.234616 kJ/mol
# GULP energy per Si atom -5577.611731 kJ/mol
# Density = 2.006131 g / cm^3
# Si number density = 20.107071 Si / 1000 Ang^3
#
#
#
# Elastic Constant Matrix: (Units=GPa)
#
#
# Indices 1 2 3 4 5 6 
#
# 1 81.4419 26.9134 62.5351 0.0000 0.0000 0.0000
# 2 26.9134 99.1931 83.7911 0.0000 0.0000 0.0000
# 3 62.5351 83.7911 253.4482 0.0000 0.0000 0.0000
# 4 0.0000 0.0000 0.0000 46.9127 0.0000 0.0000
# 5 0.0000 0.0000 0.0000 0.0000 31.2628 0.0000
# 6 0.0000 0.0000 0.0000 0.0000 0.0000 11.4981
#
#
#
# Elastic Compliance Matrix: (Units=1/GPa)
#
#
# Indices 1 2 3 4 5 6 
#
# 1 0.015275 -0.001333 -0.003328 0.000000 0.000000 0.000000
# 2 -0.001333 0.014104 -0.004334 0.000000 0.000000 0.000000
# 3 -0.003328 -0.004334 0.006200 0.000000 0.000000 0.000000
# 4 0.000000 0.000000 0.000000 0.021316 0.000000 0.000000
# 5 0.000000 0.000000 0.000000 0.000000 0.031987 0.000000
# 6 0.000000 0.000000 0.000000 0.000000 0.000000 0.086971
#
#
# Mechanical properties :
#
#
# Convention : Reuss Voigt Hill
#
# Bulk Modulus (GPa) = 56.85659 86.72915 71.79287
# Shear Modulus (GPa) = 25.03687 35.32430 30.18058
#
# Velocity S-wave (km/s) = 3.53254 4.19598 3.87847
# Velocity P-wave (km/s) = 6.70647 8.16715 7.47258
#
# Compressibility (1/GPa) = 0.01758811
#
# Stress axis : x y z
#
# Youngs Moduli (GPa) = 65.46771 70.90174 161.30129
#
# Poissons Ratio (x) = 0.09451 0.53683
# Poissons Ratio (y) = 0.08727 0.69907
# Poissons Ratio (z) = 0.21789 0.30728
#
# Static dielectric constant tensor:
#      x y z
#    x 1.682770 0.000000 0.000000 
#    y 0.000000 1.669960 0.000000 
#    z 0.000000 0.000000 1.745040 
# 
# From -- ./inp_files/31319.got.cif
#   From: 2010.05.17/outbox.cif.g08.bks.cpg/sg42_16_cif.got.tgz:31319.got - 2010.06.03 19:03:34.
