data_PCOD9369214
_publ_section_title
;
Structure prediction by ZEFSAII (Michael W. Deem and Ramdas Pophale) SiO2 
 PCOD9369214
Probable space group: F M M 2
;
_chemical_formula_sum "Si O2"
_cell_formula_units_Z 92
_cell_length_a 22.037766
_cell_length_b 7.588440
_cell_length_c 28.752218
_cell_angle_alpha 90.000000
_cell_angle_beta 90.000000
_cell_angle_gamma 90.000000
_cell_volume 4808.298541
_symmetry_space_group_name_H-M "F M M 2"
_symmetry_group_IT_number 42
_symmetry_cell_setting 'orthorhombic'
loop_
_space_group_symop_operation_xyz
x,y,z
-x,-y,z
-x,y,z
x,-y,z
x,1/2+y,1/2+z
-x,1/2-y,1/2+z
-x,1/2+y,1/2+z
x,1/2-y,1/2+z
1/2+x,y,1/2+z
1/2-x,-y,1/2+z
1/2-x,y,1/2+z
1/2+x,-y,1/2+z
1/2+x,1/2+y,z
1/2-x,1/2-y,z
1/2-x,1/2+y,z
1/2+x,1/2-y,z
loop_
_atom_site_type_symbol
_atom_site_label
_atom_site_fract_x
_atom_site_fract_y
_atom_site_fract_z
Si Si1 0.181519 0.789745 0.477300
Si Si2 0.000000 0.210519 0.593340
Si Si3 0.569157 0.202384 0.411201
Si Si4 0.429099 0.500000 0.335116
Si Si5 0.179353 0.790506 0.673545
Si Si6 0.000000 0.500000 0.673061
Si Si7 0.867351 0.212270 0.573003
Si Si8 0.620665 0.500000 0.233973
O O1 0.250000 0.750000 0.460859
O O2 0.124444 0.723695 0.447275
O O3 0.172361 0.721046 0.530156
O O4 0.175556 0.000000 0.477881
O O5 0.000000 0.329147 0.639518
O O6 0.061605 0.250791 0.565824
O O7 0.000000 0.000000 0.604295
O O8 0.500000 0.244216 0.429059
O O9 0.580909 0.331984 0.368196
O O10 0.568308 0.000000 0.396045
O O11 0.500000 0.500000 0.321224
O O12 0.389684 0.500000 0.288817
O O13 0.250000 0.750000 0.669102
O O14 0.150019 0.728231 0.624660
O O15 0.154571 0.673998 0.715608
O O16 0.168607 0.000000 0.679295
O O17 0.057682 0.500000 0.706171
O O18 0.860366 0.000000 0.574158
#
# Coordination Sequence:
#
# PCOD9369214 Si02
#       8
#    16   8  16   8  16   4  16   8
#     4  11  22  39  62  92 130 170 214 257 313 374
#     4  10  20  38  54  85 131 169 211 260 302 354
#     4  10  22  43  68  96 124 159 206 265 321 379
#     4  10  22  44  70  92 123 160 207 264 319 374
#     4  11  22  40  62  88 131 171 210 256 305 367
#     4  12  22  38  62  94 120 168 206 252 316 368
#     4   9  20  35  57  88 127 172 208 254 305 364
#     4  12  24  40  66  97 123 161 213 256 315 378
#
# _framework density 19.133588
#
# number of rings (size 3 to 8) (size 9 to 14) (size 15 to 20)
#    0.000    1.565    3.913    1.043    1.217    0.696 
#    6.261    0.870    0.000    0.000    0.000    0.000 
#    0.000    0.000    0.000    0.000    0.000    0.000 
#
# Total GULP energy -128375.634264 kJ/mol
# GULP energy per Si atom -5581.549316 kJ/mol
# Density = 1.909004 g / cm^3
# Si number density = 19.133588 Si / 1000 Ang^3
#
#
#
# Elastic Constant Matrix: (Units=GPa)
#
#
# Indices 1 2 3 4 5 6 
#
# 1 126.2543 27.1562 54.4493 0.0001 0.0000 0.0005
# 2 27.1562 104.6854 38.4283 0.0002 0.0000 0.0009
# 3 54.4493 38.4283 106.6729 0.0000 0.0000 0.0000
# 4 0.0001 0.0002 0.0000 -0.4531 0.0000 0.0000
# 5 0.0000 0.0000 0.0000 0.0000 25.3743 -0.0001
# 6 0.0005 0.0009 0.0000 0.0000 -0.0001 -54.8869
#
#
#
# Elastic Compliance Matrix: (Units=1/GPa)
#
#
# Indices 1 2 3 4 5 6 
#
# 1 0.010221 -0.000849 -0.004912 0.000001 0.000000 0.000000
# 2 -0.000849 0.011079 -0.003558 0.000004 0.000000 0.000000
# 3 -0.004912 -0.003558 0.013163 -0.000002 0.000000 0.000000
# 4 0.000001 0.000004 -0.000002 -2.207028 -0.000003 0.000000
# 5 0.000000 0.000000 0.000000 -0.000003 0.039410 0.000000
# 6 0.000000 0.000000 0.000000 0.000000 0.000000 -0.018219
#
#
# Mechanical properties :
#
#
# Convention : Reuss Voigt Hill
#
# Bulk Modulus (GPa) = 63.18295 64.18669 63.68482
# Shear Modulus (GPa) = -2.35022 8.51213 3.08096
#
# Velocity S-wave (km/s) = -1.10950 2.11150 1.27033
# Velocity P-wave (km/s) = 5.60824 6.28999 5.95888
#
# Compressibility (1/GPa) = 0.01582705
#
# Stress axis : x y z
#
# Youngs Moduli (GPa) = 97.83552 90.26429 75.96945
#
# Poissons Ratio (x) = 0.07659 0.37313
# Poissons Ratio (y) = 0.08301 0.27029
# Poissons Ratio (z) = 0.48053 0.32115
#
# Static dielectric constant tensor:
#      x y z
#    x 1.685330 0.000000 0.000000 
#    y 0.000000 1.680350 0.000000 
#    z 0.000000 0.000000 1.633570 
# 
# From -- ./inp_files/31502.got.cif
#   From: 2010.05.17/outbox.cif.g08.bks.cpg/sg42_16_cif.got.tgz:31502.got - 2010.06.03 19:03:34.
