data_PCOD9369540
_publ_section_title
;
Structure prediction by ZEFSAII (Michael W. Deem and Ramdas Pophale) SiO2 
 PCOD9369540
Probable space group: F M M 2
;
_chemical_formula_sum "Si O2"
_cell_formula_units_Z 96
_cell_length_a 16.525478
_cell_length_b 13.356863
_cell_length_c 20.235008
_cell_angle_alpha 90.000000
_cell_angle_beta 90.000000
_cell_angle_gamma 90.000000
_cell_volume 4466.443887
_symmetry_space_group_name_H-M "F M M 2"
_symmetry_group_IT_number 42
_symmetry_cell_setting 'orthorhombic'
loop_
_space_group_symop_operation_xyz
x,y,z
-x,-y,z
-x,y,z
x,-y,z
x,1/2+y,1/2+z
-x,1/2-y,1/2+z
-x,1/2+y,1/2+z
x,1/2-y,1/2+z
1/2+x,y,1/2+z
1/2-x,-y,1/2+z
1/2-x,y,1/2+z
1/2+x,-y,1/2+z
1/2+x,1/2+y,z
1/2-x,1/2-y,z
1/2-x,1/2+y,z
1/2+x,1/2-y,z
loop_
_atom_site_type_symbol
_atom_site_label
_atom_site_fract_x
_atom_site_fract_y
_atom_site_fract_z
Si Si1 0.406257 0.711470 0.301230
Si Si2 0.646281 0.887644 0.924528
Si Si3 0.904399 0.116656 0.037291
Si Si4 0.500000 0.115197 0.159497
Si Si5 0.846894 0.262989 0.664474
Si Si6 0.000000 0.115980 0.502769
Si Si7 0.171309 0.382112 0.392168
O O1 0.500000 0.734990 0.290945
O O2 0.397951 0.623858 0.354803
O O3 0.365856 0.679580 0.232769
O O4 0.364465 0.807885 0.336754
O O5 0.583236 0.838401 0.975316
O O6 0.736604 0.853782 0.909809
O O7 0.658955 0.000000 0.948846
O O8 0.866951 0.183331 0.095426
O O9 0.000000 0.134509 0.038626
O O10 0.888596 0.000000 0.054309
O O11 0.874391 0.128014 0.962073
O O12 0.413955 0.172360 0.173467
O O13 0.500000 0.000000 0.184801
O O14 0.500000 0.112554 0.080252
O O15 0.750000 0.250000 0.664245
O O16 0.000000 0.000000 0.478031
O O17 0.167929 0.500000 0.372138
#
# Coordination Sequence:
#
# PCOD9369540 Si02
#       7
#    16  16  16   8  16   8  16
#     4  12  24  42  65  91 130 174 217 270 334 403
#     4  10  21  39  64  95 128 163 213 271 329 396
#     4  10  22  43  68  96 131 170 219 277 337 399
#     4  11  26  47  69  99 141 185 229 281 345 413
#     4  12  27  45  67  97 135 180 231 280 342 414
#     4   9  20  37  60  91 125 163 210 261 324 393
#     4  10  23  40  65  98 129 166 218 275 331 393
#
# _framework density 21.49361
#
# number of rings (size 3 to 8) (size 9 to 14) (size 15 to 20)
#    0.000    1.333    2.500    2.000    4.667    3.000 
#    0.000    0.000    0.000    0.000    0.000    0.000 
#    0.000    0.000    0.000    0.000    0.000    0.000 
#
# Total GULP energy -133827.656617 kJ/mol
# GULP energy per Si atom -5576.152359 kJ/mol
# Density = 2.144469 g / cm^3
# Si number density = 21.493610 Si / 1000 Ang^3
#
#
#
# Elastic Constant Matrix: (Units=GPa)
#
#
# Indices 1 2 3 4 5 6 
#
# 1 136.0316 22.9167 -7.7174 0.0000 0.0000 0.0000
# 2 22.9167 57.7389 -23.7246 0.0000 0.0000 0.0000
# 3 -7.7174 -23.7246 58.0466 0.0000 0.0000 0.0000
# 4 0.0000 0.0000 0.0000 17.3737 0.0000 0.0000
# 5 0.0000 0.0000 0.0000 0.0000 -35.1595 0.0000
# 6 0.0000 0.0000 0.0000 0.0000 0.0000 7.4516
#
#
#
# Elastic Compliance Matrix: (Units=1/GPa)
#
#
# Indices 1 2 3 4 5 6 
#
# 1 0.007882 -0.003242 -0.000277 0.000000 0.000000 0.000000
# 2 -0.003242 0.022149 0.008621 0.000000 0.000000 0.000000
# 3 -0.000277 0.008621 0.020714 0.000000 0.000000 0.000000
# 4 0.000000 0.000000 0.000000 0.057558 0.000000 0.000000
# 5 0.000000 0.000000 0.000000 0.000000 -0.028442 0.000000
# 6 0.000000 0.000000 0.000000 0.000000 0.000000 0.134199
#
#
# Mechanical properties :
#
#
# Convention : Reuss Voigt Hill
#
# Bulk Modulus (GPa) = 16.40718 26.08516 21.24617
# Shear Modulus (GPa) = 22.30427 15.28934 18.79681
#
# Velocity S-wave (km/s) = 3.22486 2.67000 2.96045
# Velocity P-wave (km/s) = 4.63857 4.65486 4.64672
#
# Compressibility (1/GPa) = 0.06094894
#
# Stress axis : x y z
#
# Youngs Moduli (GPa) = 126.87616 45.14940 48.27551
#
# Poissons Ratio (x) = 0.14638 0.01338
# Poissons Ratio (y) = 0.41136 -0.41621
# Poissons Ratio (z) = 0.03518 -0.38925
#
# Static dielectric constant tensor:
#      x y z
#    x 1.824620 0.000000 0.000000 
#    y 0.000000 1.886860 0.000000 
#    z 0.000000 0.000000 1.758860 
# 
# From -- ./inp_files/25149.got.cif
#   From: 2010.05.17/outbox.cif.g08.bks.cpg/sg42_13_cif.got.tgz:25149.got - 2010.06.03 19:03:34.
