data_PCOD9369286
_publ_section_title
;
Structure prediction by ZEFSAII (Michael W. Deem and Ramdas Pophale) SiO2 
 PCOD9369286
Probable space group: F M M 2
;
_chemical_formula_sum "Si O2"
_cell_formula_units_Z 104
_cell_length_a 14.334288
_cell_length_b 20.520917
_cell_length_c 18.441922
_cell_angle_alpha 90.000000
_cell_angle_beta 90.000000
_cell_angle_gamma 90.000000
_cell_volume 5424.741782
_symmetry_space_group_name_H-M "F M M 2"
_symmetry_group_IT_number 42
_symmetry_cell_setting 'orthorhombic'
loop_
_space_group_symop_operation_xyz
x,y,z
-x,-y,z
-x,y,z
x,-y,z
x,1/2+y,1/2+z
-x,1/2-y,1/2+z
-x,1/2+y,1/2+z
x,1/2-y,1/2+z
1/2+x,y,1/2+z
1/2-x,-y,1/2+z
1/2-x,y,1/2+z
1/2+x,-y,1/2+z
1/2+x,1/2+y,z
1/2-x,1/2-y,z
1/2-x,1/2+y,z
1/2+x,1/2-y,z
loop_
_atom_site_type_symbol
_atom_site_label
_atom_site_fract_x
_atom_site_fract_y
_atom_site_fract_z
Si Si1 0.278006 0.858470 0.885730
Si Si2 0.250000 0.750000 0.498564
Si Si3 0.397323 0.076639 0.995232
Si Si4 0.390044 0.338880 0.085848
Si Si5 0.108525 0.424821 0.447754
Si Si6 0.765204 0.171973 0.221481
Si Si7 0.613242 0.921859 0.156673
O O1 0.338744 0.914069 0.923073
O O2 0.171249 0.880338 0.896510
O O3 0.296838 0.840534 0.803819
O O4 0.295456 0.801095 0.943281
O O5 0.329515 0.782507 0.547265
O O6 0.500000 0.105973 0.985475
O O7 0.406503 0.000000 0.007158
O O8 0.359447 0.098717 0.073730
O O9 0.500000 0.323648 0.091285
O O10 0.342938 0.349702 0.163371
O O11 0.379794 0.399350 0.030097
O O12 0.136112 0.500000 0.442282
O O13 0.000000 0.418815 0.429196
O O14 0.750000 0.250000 0.212974
O O15 0.673682 0.127190 0.205819
O O16 0.500000 0.914656 0.163299
O O17 0.633072 0.000000 0.168529
#
# Coordination Sequence:
#
# PCOD9369286 Si02
#       7
#    16   8  16  16  16  16  16
#     4  11  22  36  57  82 121 158 193 238 302 365
#     4  10  20  40  60  78 108 150 206 252 280 346
#     4   9  19  37  61  88 112 144 201 258 301 352
#     4  10  22  40  62  86 115 157 206 251 303 367
#     4   9  19  38  64  91 116 151 204 257 301 354
#     4  12  25  40  55  90 135 167 200 250 318 383
#     4   9  20  41  69  96 121 160 217 270 309 358
#
# _framework density 19.171419
#
# number of rings (size 3 to 8) (size 9 to 14) (size 15 to 20)
#    0.000    2.000    1.538    3.231    0.000    5.538 
#    0.000    1.538    0.000    1.846    0.000    0.000 
#    0.000    0.000    0.000    0.000    0.000    0.000 
#
# Total GULP energy -144937.700631 kJ/mol
# GULP energy per Si atom -5574.526947 kJ/mol
# Density = 1.912778 g / cm^3
# Si number density = 19.171419 Si / 1000 Ang^3
#
#
#
# Elastic Constant Matrix: (Units=GPa)
#
#
# Indices 1 2 3 4 5 6 
#
# 1 56.6231 7.4817 26.2314 0.0000 0.0000 0.0000
# 2 7.4817 48.9774 11.1680 0.0000 0.0000 0.0000
# 3 26.2314 11.1680 110.7255 0.0000 0.0000 0.0000
# 4 0.0000 0.0000 0.0000 15.4416 0.0000 0.0000
# 5 0.0000 0.0000 0.0000 0.0000 10.5071 0.0000
# 6 0.0000 0.0000 0.0000 0.0000 0.0000 20.9462
#
#
#
# Elastic Compliance Matrix: (Units=1/GPa)
#
#
# Indices 1 2 3 4 5 6 
#
# 1 0.020032 -0.002024 -0.004541 0.000000 0.000000 0.000000
# 2 -0.002024 0.021103 -0.001649 0.000000 0.000000 0.000000
# 3 -0.004541 -0.001649 0.010274 0.000000 0.000000 0.000000
# 4 0.000000 0.000000 0.000000 0.064760 0.000000 0.000000
# 5 0.000000 0.000000 0.000000 0.000000 0.095174 0.000000
# 6 0.000000 0.000000 0.000000 0.000000 0.000000 0.047741
#
#
# Mechanical properties :
#
#
# Convention : Reuss Voigt Hill
#
# Bulk Modulus (GPa) = 28.58881 34.00981 31.29931
# Shear Modulus (GPa) = 17.41110 20.80864 19.10987
#
# Velocity S-wave (km/s) = 3.01687 3.29811 3.16062
# Velocity P-wave (km/s) = 5.20384 5.68170 5.44801
#
# Compressibility (1/GPa) = 0.03497871
#
# Stress axis : x y z
#
# Youngs Moduli (GPa) = 49.92004 47.38707 97.33728
#
# Poissons Ratio (x) = 0.09593 0.44206
# Poissons Ratio (y) = 0.10106 0.16050
# Poissons Ratio (z) = 0.22671 0.07813
#
# Static dielectric constant tensor:
#      x y z
#    x 1.775800 0.000000 0.000000 
#    y 0.000000 1.901100 0.000000 
#    z 0.000000 0.000000 1.647190 
# 
# From -- ./inp_files/20105.got.cif
#   From: 2010.05.17/outbox.cif.g08.bks.cpg/sg42_11_cif.got.tgz:20105.got - 2010.06.03 19:03:34.
