data_PCOD9369030
_publ_section_title
;
Structure prediction by ZEFSAII (Michael W. Deem and Ramdas Pophale) SiO2 
 PCOD9369030
Probable space group: F M M 2
;
_chemical_formula_sum "Si O2"
_cell_formula_units_Z 92
_cell_length_a 24.762773
_cell_length_b 7.798579
_cell_length_c 27.506657
_cell_angle_alpha 90.000000
_cell_angle_beta 90.000000
_cell_angle_gamma 90.000000
_cell_volume 5311.932704
_symmetry_space_group_name_H-M "F M M 2"
_symmetry_group_IT_number 42
_symmetry_cell_setting 'orthorhombic'
loop_
_space_group_symop_operation_xyz
x,y,z
-x,-y,z
-x,y,z
x,-y,z
x,1/2+y,1/2+z
-x,1/2-y,1/2+z
-x,1/2+y,1/2+z
x,1/2-y,1/2+z
1/2+x,y,1/2+z
1/2-x,-y,1/2+z
1/2-x,y,1/2+z
1/2+x,-y,1/2+z
1/2+x,1/2+y,z
1/2-x,1/2-y,z
1/2-x,1/2+y,z
1/2+x,1/2-y,z
loop_
_atom_site_type_symbol
_atom_site_label
_atom_site_fract_x
_atom_site_fract_y
_atom_site_fract_z
Si Si1 0.811713 0.796252 0.479200
Si Si2 0.435682 0.810229 0.154384
Si Si3 0.186508 0.697255 0.370181
Si Si4 0.000000 0.792821 0.976788
Si Si5 0.110450 0.500000 0.832527
Si Si6 0.434589 0.500000 0.224295
Si Si7 0.403590 0.700347 0.050298
Si Si8 0.500000 0.500000 0.396056
O O1 0.750000 0.750000 0.488604
O O2 0.826550 0.710529 0.427792
O O3 0.847876 0.732771 0.523218
O O4 0.817819 0.000000 0.472965
O O5 0.500000 0.788560 0.145897
O O6 0.419234 0.665119 0.192225
O O7 0.409084 0.792748 0.101609
O O8 0.426260 0.000000 0.174274
O O9 0.179722 0.500000 0.354412
O O10 0.250000 0.750000 0.365078
O O11 0.147268 0.833771 0.344668
O O12 0.000000 0.669819 0.930189
O O13 0.051175 0.750435 0.010788
O O14 0.000000 0.000000 0.966283
O O15 0.092827 0.500000 0.776519
O O16 0.055151 0.500000 0.864365
O O17 0.500000 0.500000 0.230346
O O18 0.412031 0.500000 0.060752
#
# Coordination Sequence:
#
# PCOD9369030 Si02
#       8
#    16  16  16   8   8   8  16   4
#     4  11  21  35  54  85 122 161 200 239 289 356
#     4  10  20  35  59  87 116 151 203 251 288 350
#     4  11  21  40  65  92 121 158 213 260 297 359
#     4  10  24  36  53  85 127 163 202 238 288 357
#     4  12  24  42  64  93 121 167 204 251 321 364
#     4  10  22  42  62  83 122 157 197 248 302 366
#     4  11  20  34  56  87 119 160 199 242 294 348
#     4  12  26  38  56  88 138 174 192 240 316 378
#
# _framework density 17.319496999999998
#
# number of rings (size 3 to 8) (size 9 to 14) (size 15 to 20)
#    0.000    1.217    3.913    4.174    2.435    2.783 
#    0.000    0.000    0.000    1.043    0.000    0.000 
#    0.000    0.000    0.000    0.000    0.000    0.000 
#
# Total GULP energy -128452.415683 kJ/mol
# GULP energy per Si atom -5584.887638 kJ/mol
# Density = 1.728008 g / cm^3
# Si number density = 17.319497 Si / 1000 Ang^3
#
#
#
# Elastic Constant Matrix: (Units=GPa)
#
#
# Indices 1 2 3 4 5 6 
#
# 1 58.9356 37.2335 56.8521 0.0000 -0.0001 -0.0003
# 2 37.2335 118.5694 61.6040 0.0000 -0.0001 -0.0004
# 3 56.8521 61.6040 132.4073 0.0000 0.0000 0.0000
# 4 0.0000 0.0000 0.0000 9.7634 0.0000 0.0000
# 5 -0.0001 -0.0001 0.0000 0.0000 15.7997 0.0001
# 6 -0.0003 -0.0004 0.0000 0.0000 0.0001 22.0822
#
#
#
# Elastic Compliance Matrix: (Units=1/GPa)
#
#
# Indices 1 2 3 4 5 6 
#
# 1 0.030092 -0.003609 -0.011241 0.000000 0.000000 0.000000
# 2 -0.003609 0.011555 -0.003827 0.000000 0.000000 0.000000
# 3 -0.011241 -0.003827 0.014160 0.000000 0.000000 0.000000
# 4 0.000000 0.000000 0.000000 0.102424 0.000000 0.000000
# 5 0.000000 0.000000 0.000000 0.000000 0.063292 0.000000
# 6 0.000000 0.000000 0.000000 0.000000 0.000000 0.045285
#
#
# Mechanical properties :
#
#
# Convention : Reuss Voigt Hill
#
# Bulk Modulus (GPa) = 54.19290 69.03238 61.61264
# Shear Modulus (GPa) = 16.11276 19.81057 17.96167
#
# Velocity S-wave (km/s) = 3.05343 3.38573 3.22386
# Velocity P-wave (km/s) = 6.61735 7.43161 7.03627
#
# Compressibility (1/GPa) = 0.01845260
#
# Stress axis : x y z
#
# Youngs Moduli (GPa) = 33.23178 86.53997 70.62315
#
# Poissons Ratio (x) = 0.31231 0.79391
# Poissons Ratio (y) = 0.11993 0.27026
# Poissons Ratio (z) = 0.37357 0.33116
#
# Static dielectric constant tensor:
#      x y z
#    x 1.603320 0.000000 0.000000 
#    y 0.000000 1.620780 0.000000 
#    z 0.000000 0.000000 1.550280 
# 
# From -- ./inp_files/31501.got.cif
#   From: 2010.05.17/outbox.cif.g08.bks.cpg/sg42_16_cif.got.tgz:31501.got - 2010.06.03 19:03:34.
