data_PCOD9369033
_publ_section_title
;
Structure prediction by ZEFSAII (Michael W. Deem and Ramdas Pophale) SiO2 
 PCOD9369033
Probable space group: F M M 2
;
_chemical_formula_sum "Si O2"
_cell_formula_units_Z 96
_cell_length_a 16.497114
_cell_length_b 19.514554
_cell_length_c 15.076284
_cell_angle_alpha 90.000000
_cell_angle_beta 90.000000
_cell_angle_gamma 90.000000
_cell_volume 4853.565730
_symmetry_space_group_name_H-M "F M M 2"
_symmetry_group_IT_number 42
_symmetry_cell_setting 'orthorhombic'
loop_
_space_group_symop_operation_xyz
x,y,z
-x,-y,z
-x,y,z
x,-y,z
x,1/2+y,1/2+z
-x,1/2-y,1/2+z
-x,1/2+y,1/2+z
x,1/2-y,1/2+z
1/2+x,y,1/2+z
1/2-x,-y,1/2+z
1/2-x,y,1/2+z
1/2+x,-y,1/2+z
1/2+x,1/2+y,z
1/2-x,1/2-y,z
1/2-x,1/2+y,z
1/2+x,1/2-y,z
loop_
_atom_site_type_symbol
_atom_site_label
_atom_site_fract_x
_atom_site_fract_y
_atom_site_fract_z
Si Si1 0.322045 0.081774 0.790210
Si Si2 0.407328 0.182984 0.464555
Si Si3 0.814135 0.310854 0.284421
Si Si4 0.902753 0.580386 0.607069
Si Si5 0.096972 0.081847 0.478193
Si Si6 0.165585 0.794610 0.582275
O O1 0.236373 0.119197 0.793592
O O2 0.364103 0.105485 0.698866
O O3 0.376667 0.096817 0.876415
O O4 0.313294 0.000000 0.786220
O O5 0.500000 0.165433 0.451048
O O6 0.370448 0.194939 0.369063
O O7 0.369948 0.121508 0.522838
O O8 0.397113 0.248517 0.527437
O O9 0.750000 0.250000 0.292215
O O10 0.851315 0.303250 0.186603
O O11 0.886611 0.500000 0.597547
O O12 0.000000 0.589377 0.613474
O O13 0.154248 0.130404 0.538272
O O14 0.000000 0.095043 0.490381
O O15 0.109646 0.000000 0.493862
O O16 0.250000 0.750000 0.573065
#
# Coordination Sequence:
#
# PCOD9369033 Si02
#       6
#    16  16  16  16  16  16
#     4  10  20  35  59  88 116 150 191 235 286 342
#     4  11  23  38  59  84 111 150 193 236 293 351
#     4  11  24  40  57  82 115 148 187 237 289 346
#     4   9  18  34  56  84 117 150 189 236 282 335
#     4  10  21  38  62  91 121 155 196 244 296 347
#     4  11  23  40  60  83 116 154 194 242 292 348
#
# _framework density 19.779271999999999
#
# number of rings (size 3 to 8) (size 9 to 14) (size 15 to 20)
#    0.000    1.667    0.000    5.500    0.000    4.667 
#    0.000    6.667    0.000    2.000    0.000    0.000 
#    0.000    0.000    0.000    0.000    0.000    0.000 
#
# Total GULP energy -133951.748509 kJ/mol
# GULP energy per Si atom -5581.322855 kJ/mol
# Density = 1.973425 g / cm^3
# Si number density = 19.779272 Si / 1000 Ang^3
#
#
#
# Elastic Constant Matrix: (Units=GPa)
#
#
# Indices 1 2 3 4 5 6 
#
# 1 39.1927 22.1440 54.7250 0.0000 0.0000 0.0000
# 2 22.1440 55.0732 59.4990 0.0000 0.0000 0.0000
# 3 54.7250 59.4990 187.6121 0.0000 0.0000 0.0000
# 4 0.0000 0.0000 0.0000 824.0565 0.0000 0.0000
# 5 0.0000 0.0000 0.0000 0.0000 72.1798 0.0000
# 6 0.0000 0.0000 0.0000 0.0000 0.0000 25.1714
#
#
#
# Elastic Compliance Matrix: (Units=1/GPa)
#
#
# Indices 1 2 3 4 5 6 
#
# 1 0.044255 -0.005854 -0.011052 0.000000 0.000000 0.000000
# 2 -0.005854 0.028396 -0.007298 0.000000 0.000000 0.000000
# 3 -0.011052 -0.007298 0.010868 0.000000 0.000000 0.000000
# 4 0.000000 0.000000 0.000000 0.001214 0.000000 0.000000
# 5 0.000000 0.000000 0.000000 0.000000 0.013854 0.000000
# 6 0.000000 0.000000 0.000000 0.000000 0.000000 0.039728
#
#
# Mechanical properties :
#
#
# Convention : Reuss Voigt Hill
#
# Bulk Modulus (GPa) = 28.48094 61.62378 45.05236
# Shear Modulus (GPa) = 25.19834 193.98219 109.59026
#
# Velocity S-wave (km/s) = 3.57315 9.91395 7.45164
# Velocity P-wave (km/s) = 5.60838 12.73860 9.84189
#
# Compressibility (1/GPa) = 0.03511120
#
# Stress axis : x y z
#
# Youngs Moduli (GPa) = 22.59645 35.21667 92.00908
#
# Poissons Ratio (x) = 0.20614 1.01692
# Poissons Ratio (y) = 0.13227 0.67148
# Poissons Ratio (z) = 0.24974 0.25701
#
# Static dielectric constant tensor:
#      x y z
#    x 1.691790 0.000000 0.000000 
#    y 0.000000 0.058060 0.000000 
#    z 0.000000 0.000000 1.697220 
# 
# From -- ./inp_files/14002.got.cif
#   From: 2010.05.17/outbox.cif.g08.bks.cpg/sg42_8_cif.got.tgz:14002.got - 2010.06.03 19:03:34.
