data_PCOD9369370
_publ_section_title
;
Structure prediction by ZEFSAII (Michael W. Deem and Ramdas Pophale) SiO2 
 PCOD9369370
Probable space group: F M M 2
;
_chemical_formula_sum "Si O2"
_cell_formula_units_Z 112
_cell_length_a 14.481689
_cell_length_b 15.334286
_cell_length_c 23.868507
_cell_angle_alpha 90.000000
_cell_angle_beta 90.000000
_cell_angle_gamma 90.000000
_cell_volume 5300.392489
_symmetry_space_group_name_H-M "F M M 2"
_symmetry_group_IT_number 42
_symmetry_cell_setting 'orthorhombic'
loop_
_space_group_symop_operation_xyz
x,y,z
-x,-y,z
-x,y,z
x,-y,z
x,1/2+y,1/2+z
-x,1/2-y,1/2+z
-x,1/2+y,1/2+z
x,1/2-y,1/2+z
1/2+x,y,1/2+z
1/2-x,-y,1/2+z
1/2-x,y,1/2+z
1/2+x,-y,1/2+z
1/2+x,1/2+y,z
1/2-x,1/2-y,z
1/2-x,1/2+y,z
1/2+x,1/2-y,z
loop_
_atom_site_type_symbol
_atom_site_label
_atom_site_fract_x
_atom_site_fract_y
_atom_site_fract_z
Si Si1 0.387978 0.597971 0.408710
Si Si2 0.599723 0.900758 0.133405
Si Si3 0.606115 0.098101 0.356651
Si Si4 0.277841 0.649077 0.297817
Si Si5 0.391371 0.222828 0.455253
Si Si6 0.692031 0.601432 0.174692
Si Si7 0.643522 0.272656 0.078305
O O1 0.500000 0.598073 0.405532
O O2 0.359277 0.500000 0.425584
O O3 0.344401 0.620376 0.348332
O O4 0.357187 0.677572 0.448875
O O5 0.500000 0.896937 0.164393
O O6 0.696511 0.886942 0.165520
O O7 0.597127 0.820696 0.090080
O O8 0.605230 0.000000 0.109886
O O9 0.500000 0.120297 0.340710
O O10 0.679303 0.101829 0.306654
O O11 0.643588 0.162053 0.405136
O O12 0.604695 0.000000 0.379236
O O13 0.250000 0.750000 0.300056
O O14 0.323938 0.627450 0.238702
O O15 0.500000 0.226090 0.444266
O O16 0.381557 0.189200 0.518120
O O17 0.671153 0.500000 0.165346
O O18 0.637356 0.662003 0.130802
O O19 0.750000 0.250000 0.073864
#
# Coordination Sequence:
#
# PCOD9369370 Si02
#       7
#    16  16  16  16  16  16  16
#     4  10  22  40  61  90 127 165 208 260 316 373
#     4   9  18  35  58  84 115 152 197 250 304 355
#     4  10  22  39  59  89 125 160 205 256 307 364
#     4  12  22  38  66  90 124 166 204 258 313 367
#     4  10  21  38  59  87 120 157 202 252 304 365
#     4  10  22  40  59  88 123 159 205 252 302 371
#     4  10  21  36  57  84 119 158 200 247 302 365
#
# _framework density 21.130510999999998
#
# number of rings (size 3 to 8) (size 9 to 14) (size 15 to 20)
#    0.000    1.857    1.429    3.000    2.000    1.714 
#    0.000    5.714    0.000    3.000    0.000    0.000 
#    0.000    0.000    0.000    0.000    0.000    0.000 
#
# Total GULP energy -156115.991679 kJ/mol
# GULP energy per Si atom -5575.571131 kJ/mol
# Density = 2.108242 g / cm^3
# Si number density = 21.130511 Si / 1000 Ang^3
#
#
#
# Elastic Constant Matrix: (Units=GPa)
#
#
# Indices 1 2 3 4 5 6 
#
# 1 39.5350 13.1980 -0.4151 0.0000 0.0000 0.0000
# 2 13.1980 109.2136 32.7397 0.0000 0.0000 0.0000
# 3 -0.4151 32.7397 104.7170 0.0000 0.0000 0.0000
# 4 0.0000 0.0000 0.0000 11.1420 0.0000 0.0000
# 5 0.0000 0.0000 0.0000 0.0000 7.7056 0.0000
# 6 0.0000 0.0000 0.0000 0.0000 0.0000 10.3268
#
#
#
# Elastic Compliance Matrix: (Units=1/GPa)
#
#
# Indices 1 2 3 4 5 6 
#
# 1 0.026498 -0.003568 0.001221 0.000000 0.000000 0.000000
# 2 -0.003568 0.010584 -0.003323 0.000000 0.000000 0.000000
# 3 0.001221 -0.003323 0.010593 0.000000 0.000000 0.000000
# 4 0.000000 0.000000 0.000000 0.089750 0.000000 0.000000
# 5 0.000000 0.000000 0.000000 0.000000 0.129775 0.000000
# 6 0.000000 0.000000 0.000000 0.000000 0.000000 0.096836
#
#
# Mechanical properties :
#
#
# Convention : Reuss Voigt Hill
#
# Bulk Modulus (GPa) = 27.52256 38.27897 32.90077
# Shear Modulus (GPa) = 12.90360 19.69775 16.30068
#
# Velocity S-wave (km/s) = 2.47384 3.05650 2.78047
# Velocity P-wave (km/s) = 4.60577 5.53273 5.09039
#
# Compressibility (1/GPa) = 0.03633383
#
# Stress axis : x y z
#
# Youngs Moduli (GPa) = 37.73875 94.48437 94.39869
#
# Poissons Ratio (x) = 0.33713 -0.11522
# Poissons Ratio (y) = 0.13465 0.31370
# Poissons Ratio (z) = -0.04606 0.31399
#
# Static dielectric constant tensor:
#      x y z
#    x 1.796140 0.000000 0.000000 
#    y 0.000000 1.799800 0.000000 
#    z 0.000000 0.000000 1.744780 
# 
# From -- ./inp_files/29468.got.cif
#   From: 2010.05.17/outbox.cif.g08.bks.cpg/sg42_15_cif.got.tgz:29468.got - 2010.06.03 19:03:34.
