data_PCOD9369718
_publ_section_title
;
Structure prediction by ZEFSAII (Michael W. Deem and Ramdas Pophale) SiO2 
 PCOD9369718
Probable space group: F M M 2
;
_chemical_formula_sum "Si O2"
_cell_formula_units_Z 56
_cell_length_a 8.278946
_cell_length_b 20.205753
_cell_length_c 13.800133
_cell_angle_alpha 90.000000
_cell_angle_beta 90.000000
_cell_angle_gamma 90.000000
_cell_volume 2308.518513
_symmetry_space_group_name_H-M "F M M 2"
_symmetry_group_IT_number 42
_symmetry_cell_setting 'orthorhombic'
loop_
_space_group_symop_operation_xyz
x,y,z
-x,-y,z
-x,y,z
x,-y,z
x,1/2+y,1/2+z
-x,1/2-y,1/2+z
-x,1/2+y,1/2+z
x,1/2-y,1/2+z
1/2+x,y,1/2+z
1/2-x,-y,1/2+z
1/2-x,y,1/2+z
1/2+x,-y,1/2+z
1/2+x,1/2+y,z
1/2-x,1/2-y,z
1/2-x,1/2+y,z
1/2+x,1/2-y,z
loop_
_atom_site_type_symbol
_atom_site_label
_atom_site_fract_x
_atom_site_fract_y
_atom_site_fract_z
Si Si1 0.678213 0.861679 0.494690
Si Si2 0.682584 0.000000 0.025057
Si Si3 0.305563 0.645616 0.286728
Si Si4 0.750000 0.750000 0.145666
Si Si5 0.683703 0.500000 0.290559
O O1 0.500000 0.873180 0.454412
O O2 0.732298 0.930152 0.545448
O O3 0.789506 0.845156 0.402503
O O4 0.672922 0.801630 0.570085
O O5 0.676452 0.000000 0.907406
O O6 0.500000 0.000000 0.062293
O O7 0.500000 0.653029 0.263387
O O8 0.196215 0.695751 0.225654
O O9 0.248067 0.570990 0.264738
O O10 0.500000 0.500000 0.253425
#
# Coordination Sequence:
#
# PCOD9369718 Si02
#       5
#    16   8  16   8   8
#     4  11  24  42  66  97 132 169 215 272 331 389
#     4   9  19  40  69  95 124 166 216 268 323 387
#     4  10  22  42  67  92 124 169 219 270 325 389
#     4  12  26  38  60  96 136 178 218 262 318 388
#     4   7  14  34  63  89 112 150 206 264 317 367
#
# _framework density 24.257981000000001
#
# number of rings (size 3 to 8) (size 9 to 14) (size 15 to 20)
#    0.000    2.000    0.000    4.714    0.000   10.286 
#    0.000    2.857    0.000    0.000    0.000    0.000 
#    0.000    0.000    0.000    0.000    0.000    0.000 
#
# Total GULP energy -77959.179807 kJ/mol
# GULP energy per Si atom -5568.512843 kJ/mol
# Density = 2.420277 g / cm^3
# Si number density = 24.257981 Si / 1000 Ang^3
#
#
#
# Elastic Constant Matrix: (Units=GPa)
#
#
# Indices 1 2 3 4 5 6 
#
# 1 81.2081 42.4243 9.1935 0.0000 0.0000 0.0000
# 2 42.4243 221.4384 45.7068 0.0000 0.0000 0.0000
# 3 9.1935 45.7068 131.5172 0.0000 0.0000 0.0000
# 4 0.0000 0.0000 0.0000 212.2497 0.0000 0.0000
# 5 0.0000 0.0000 0.0000 0.0000 -10.4800 0.0000
# 6 0.0000 0.0000 0.0000 0.0000 0.0000 -76.1067
#
#
#
# Elastic Compliance Matrix: (Units=1/GPa)
#
#
# Indices 1 2 3 4 5 6 
#
# 1 0.013684 -0.002612 -0.000049 0.000000 0.000000 0.000000
# 2 -0.002612 0.005363 -0.001681 0.000000 0.000000 0.000000
# 3 -0.000049 -0.001681 0.008191 0.000000 0.000000 0.000000
# 4 0.000000 0.000000 0.000000 0.004711 0.000000 0.000000
# 5 0.000000 0.000000 0.000000 0.000000 -0.095419 0.000000
# 6 0.000000 0.000000 0.000000 0.000000 0.000000 -0.013139
#
#
# Mechanical properties :
#
#
# Convention : Reuss Voigt Hill
#
# Bulk Modulus (GPa) = 53.89440 69.86810 61.88125
# Shear Modulus (GPa) = -80.98438 47.58853 -16.69792
#
# Velocity S-wave (km/s) = -5.78421 4.43399 -2.62648
# Velocity P-wave (km/s) = 4.72695 7.42148 4.04563
#
# Compressibility (1/GPa) = 0.01855480
#
# Stress axis : x y z
#
# Youngs Moduli (GPa) = 73.07869 186.45206 122.08033
#
# Poissons Ratio (x) = 0.48692 0.00598
# Poissons Ratio (y) = 0.19085 0.20526
# Poissons Ratio (z) = 0.00358 0.31350
#
# Static dielectric constant tensor:
#      x y z
#    x 1.874560 0.000000 0.000000 
#    y 0.000000 1.903820 0.000000 
#    z 0.000000 0.000000 1.942620 
# 
# From -- ./inp_files/11754.got.cif
#   From: 2010.05.17/outbox.cif.g08.bks.cpg/sg42_6_cif.got.tgz:11754.got - 2010.06.03 19:03:34.
