data_PCOD9369357
_publ_section_title
;
Structure prediction by ZEFSAII (Michael W. Deem and Ramdas Pophale) SiO2 
 PCOD9369357
Probable space group: F M M 2
;
_chemical_formula_sum "Si O2"
_cell_formula_units_Z 96
_cell_length_a 18.914763
_cell_length_b 9.132746
_cell_length_c 31.152199
_cell_angle_alpha 90.000000
_cell_angle_beta 90.000000
_cell_angle_gamma 90.000000
_cell_volume 5381.346932
_symmetry_space_group_name_H-M "F M M 2"
_symmetry_group_IT_number 42
_symmetry_cell_setting 'orthorhombic'
loop_
_space_group_symop_operation_xyz
x,y,z
-x,-y,z
-x,y,z
x,-y,z
x,1/2+y,1/2+z
-x,1/2-y,1/2+z
-x,1/2+y,1/2+z
x,1/2-y,1/2+z
1/2+x,y,1/2+z
1/2-x,-y,1/2+z
1/2-x,y,1/2+z
1/2+x,-y,1/2+z
1/2+x,1/2+y,z
1/2-x,1/2-y,z
1/2-x,1/2+y,z
1/2+x,1/2-y,z
loop_
_atom_site_type_symbol
_atom_site_label
_atom_site_fract_x
_atom_site_fract_y
_atom_site_fract_z
Si Si1 0.083470 0.824024 0.552870
Si Si2 0.173589 0.824787 0.978647
Si Si3 0.673881 0.174827 0.821152
Si Si4 0.174807 0.826340 0.222278
Si Si5 0.582561 0.325136 0.893379
Si Si6 0.584680 0.170217 0.151190
O O1 0.131590 0.739685 0.519231
O O2 0.102760 0.787472 0.602183
O O3 0.000000 0.790425 0.546597
O O4 0.091297 0.000000 0.547937
O O5 0.250000 0.750000 0.975079
O O6 0.127028 0.793032 0.936302
O O7 0.181240 0.000000 0.982412
O O8 0.750000 0.250000 0.829004
O O9 0.653496 0.206088 0.771614
O O10 0.617540 0.239684 0.854045
O O11 0.680611 0.000000 0.826304
O O12 0.250000 0.750000 0.215082
O O13 0.120940 0.766379 0.187277
O O14 0.182533 0.000000 0.218447
O O15 0.500000 0.288244 0.899020
O O16 0.587544 0.500000 0.885578
O O17 0.500000 0.178639 0.154502
O O18 0.605125 0.000000 0.157140
#
# Coordination Sequence:
#
# PCOD9369357 Si02
#       6
#    16  16  16  16  16  16
#     4   9  19  37  59  82 109 142 181 224 270 321
#     4  11  23  38  57  82 111 143 181 223 268 320
#     4  10  21  37  57  81 109 143 183 225 270 320
#     4  10  21  36  55  80 110 144 183 226 270 319
#     4  10  22  39  58  82 111 142 178 221 269 322
#     4   9  19  36  57  81 110 144 181 222 270 323
#
# _framework density 17.839400000000001
#
# number of rings (size 3 to 8) (size 9 to 14) (size 15 to 20)
#    0.000    2.167    0.000    3.500    0.000    8.333 
#    0.000    5.000    0.000    0.000    0.000    0.000 
#    0.000    0.000    0.000    0.000    0.000    0.000 
#
# Total GULP energy -134018.076906 kJ/mol
# GULP energy per Si atom -5584.086538 kJ/mol
# Density = 1.779880 g / cm^3
# Si number density = 17.839400 Si / 1000 Ang^3
#
#
#
# Elastic Constant Matrix: (Units=GPa)
#
#
# Indices 1 2 3 4 5 6 
#
# 1 117.5392 68.1497 97.6916 0.0000 0.0000 0.0000
# 2 68.1497 68.8585 82.1364 0.0000 0.0000 0.0000
# 3 97.6916 82.1364 139.0259 0.0000 0.0000 0.0000
# 4 0.0000 0.0000 0.0000 33.1403 0.0000 0.0000
# 5 0.0000 0.0000 0.0000 0.0000 39.0753 0.0000
# 6 0.0000 0.0000 0.0000 0.0000 0.0000 32.2690
#
#
#
# Elastic Compliance Matrix: (Units=1/GPa)
#
#
# Indices 1 2 3 4 5 6 
#
# 1 0.022968 -0.011786 -0.009176 0.000000 0.000000 0.000000
# 2 -0.011786 0.055231 -0.024348 0.000000 0.000000 0.000000
# 3 -0.009176 -0.024348 0.028026 0.000000 0.000000 0.000000
# 4 0.000000 0.000000 0.000000 0.030175 0.000000 0.000000
# 5 0.000000 0.000000 0.000000 0.000000 0.025592 0.000000
# 6 0.000000 0.000000 0.000000 0.000000 0.000000 0.030990
#
#
# Mechanical properties :
#
#
# Convention : Reuss Voigt Hill
#
# Bulk Modulus (GPa) = 64.08823 91.26432 77.67628
# Shear Modulus (GPa) = 17.31286 26.05997 21.68641
#
# Velocity S-wave (km/s) = 3.11864 3.82620 3.49040
# Velocity P-wave (km/s) = 6.99793 8.41366 7.73824
#
# Compressibility (1/GPa) = 0.01560349
#
# Stress axis : x y z
#
# Youngs Moduli (GPa) = 43.53872 18.10588 35.68139
#
# Poissons Ratio (x) = 0.21340 0.32742
# Poissons Ratio (y) = 0.51315 0.86878
# Poissons Ratio (z) = 0.39952 0.44085
#
# Static dielectric constant tensor:
#      x y z
#    x 1.579510 0.000000 0.000000 
#    y 0.000000 1.593310 0.000000 
#    z 0.000000 0.000000 1.595620 
# 
# From -- ./inp_files/31427.got.cif
#   From: 2010.05.17/outbox.cif.g08.bks.cpg/sg42_16_cif.got.tgz:31427.got - 2010.06.03 19:03:34.
