data_PCOD9369289
_publ_section_title
;
Structure prediction by ZEFSAII (Michael W. Deem and Ramdas Pophale) SiO2 
 PCOD9369289
Probable space group: F M M 2
;
_chemical_formula_sum "Si O2"
_cell_formula_units_Z 68
_cell_length_a 23.718367
_cell_length_b 7.710811
_cell_length_c 14.816156
_cell_angle_alpha 90.000000
_cell_angle_beta 90.000000
_cell_angle_gamma 90.000000
_cell_volume 2709.694844
_symmetry_space_group_name_H-M "F M M 2"
_symmetry_group_IT_number 42
_symmetry_cell_setting 'orthorhombic'
loop_
_space_group_symop_operation_xyz
x,y,z
-x,-y,z
-x,y,z
x,-y,z
x,1/2+y,1/2+z
-x,1/2-y,1/2+z
-x,1/2+y,1/2+z
x,1/2-y,1/2+z
1/2+x,y,1/2+z
1/2-x,-y,1/2+z
1/2-x,y,1/2+z
1/2+x,-y,1/2+z
1/2+x,1/2+y,z
1/2-x,1/2-y,z
1/2-x,1/2+y,z
1/2+x,1/2-y,z
loop_
_atom_site_type_symbol
_atom_site_label
_atom_site_fract_x
_atom_site_fract_y
_atom_site_fract_z
Si Si1 0.500000 0.500000 0.367211
Si Si2 0.938557 0.209357 0.086862
Si Si3 0.072728 0.191141 0.793412
Si Si4 0.188321 0.290888 0.521835
Si Si5 0.190389 0.190546 0.316839
O O1 0.548646 0.345620 0.354262
O O2 0.942961 0.265756 0.190839
O O3 0.874766 0.261496 0.056970
O O4 0.000000 0.272147 0.045547
O O5 0.939362 0.000000 0.080687
O O6 0.139548 0.190404 0.791909
O O7 0.055618 0.000000 0.823198
O O8 0.186381 0.500000 0.511259
O O9 0.250000 0.250000 0.566967
O O10 0.192878 0.197904 0.425069
O O11 0.250000 0.250000 0.281751
O O12 0.177285 0.000000 0.282220
#
# Coordination Sequence:
#
# PCOD9369289 Si02
#       5
#     4  16  16  16  16
#     4  12  22  44  60  94 128 164 210 256 312 370
#     4  10  20  40  61  87 124 161 205 261 307 365
#     4  12  23  40  67  92 125 169 208 255 317 371
#     4  10  21  38  62  88 122 164 206 256 313 371
#     4  11  22  41  63  90 126 162 211 265 312 374
#
# _framework density 25.095075000000001
#
# number of rings (size 3 to 8) (size 9 to 14) (size 15 to 20)
#    0.000    1.176    3.529    4.588    0.000    2.824 
#    2.118    2.353    0.000    0.000    0.000    0.000 
#    0.000    0.000    0.000    0.000    0.000    0.000 
#
# Total GULP energy -94636.844274 kJ/mol
# GULP energy per Si atom -5566.873193 kJ/mol
# Density = 2.503796 g / cm^3
# Si number density = 25.095075 Si / 1000 Ang^3
#
#
#
# Elastic Constant Matrix: (Units=GPa)
#
#
# Indices 1 2 3 4 5 6 
#
# 1 300.1178 42.9061 22.4890 0.0000 0.0000 0.0000
# 2 42.9061 131.2233 -16.1883 0.0000 0.0000 0.0000
# 3 22.4890 -16.1883 51.4192 0.0000 0.0000 0.0000
# 4 0.0000 0.0000 0.0000 2.1940 0.0000 0.0000
# 5 0.0000 0.0000 0.0000 0.0000 65.1759 0.0000
# 6 0.0000 0.0000 0.0000 0.0000 0.0000 37.2442
#
#
#
# Elastic Compliance Matrix: (Units=1/GPa)
#
#
# Indices 1 2 3 4 5 6 
#
# 1 0.003697 -0.001465 -0.002078 0.000000 0.000000 0.000000
# 2 -0.001465 0.008509 0.003320 0.000000 0.000000 0.000000
# 3 -0.002078 0.003320 0.021402 0.000000 0.000000 0.000000
# 4 0.000000 0.000000 0.000000 0.455782 0.000000 0.000000
# 5 0.000000 0.000000 0.000000 0.000000 0.015343 0.000000
# 6 0.000000 0.000000 0.000000 0.000000 0.000000 0.026850
#
#
# Mechanical properties :
#
#
# Convention : Reuss Voigt Hill
#
# Bulk Modulus (GPa) = 30.15587 64.57489 47.36538
# Shear Modulus (GPa) = 9.20666 49.82639 29.51653
#
# Velocity S-wave (km/s) = 1.91747 4.46073 3.43328
# Velocity P-wave (km/s) = 4.11643 7.23318 5.88489
#
# Compressibility (1/GPa) = 0.03316104
#
# Stress axis : x y z
#
# Youngs Moduli (GPa) = 270.47143 117.51920 46.72419
#
# Poissons Ratio (x) = 0.17220 0.09711
# Poissons Ratio (y) = 0.39632 -0.15512
# Poissons Ratio (z) = 0.56214 -0.39014
#
# Static dielectric constant tensor:
#      x y z
#    x 2.074210 0.000000 0.000000 
#    y 0.000000 1.938520 0.000000 
#    z 0.000000 0.000000 2.017890 
# 
# From -- ./inp_files/21383.got.cif
#   From: 2010.05.17/outbox.cif.g08.bks.cpg/sg42_11_cif.got.tgz:21383.got - 2010.06.03 19:03:34.
