data_PCOD9369745
_publ_section_title
;
Structure prediction by ZEFSAII (Michael W. Deem and Ramdas Pophale) SiO2 
 PCOD9369745
Probable space group: F M M 2
;
_chemical_formula_sum "Si O2"
_cell_formula_units_Z 112
_cell_length_a 22.910770
_cell_length_b 20.803876
_cell_length_c 11.526247
_cell_angle_alpha 90.000000
_cell_angle_beta 90.000000
_cell_angle_gamma 90.000000
_cell_volume 5493.787590
_symmetry_space_group_name_H-M "F M M 2"
_symmetry_group_IT_number 42
_symmetry_cell_setting 'orthorhombic'
loop_
_space_group_symop_operation_xyz
x,y,z
-x,-y,z
-x,y,z
x,-y,z
x,1/2+y,1/2+z
-x,1/2-y,1/2+z
-x,1/2+y,1/2+z
x,1/2-y,1/2+z
1/2+x,y,1/2+z
1/2-x,-y,1/2+z
1/2-x,y,1/2+z
1/2+x,-y,1/2+z
1/2+x,1/2+y,z
1/2-x,1/2-y,z
1/2-x,1/2+y,z
1/2+x,1/2-y,z
loop_
_atom_site_type_symbol
_atom_site_label
_atom_site_fract_x
_atom_site_fract_y
_atom_site_fract_z
Si Si1 0.250491 0.106692 0.229260
Si Si2 0.430733 0.073924 0.452017
Si Si3 0.360261 0.181660 0.311196
Si Si4 0.883115 0.365997 0.666920
Si Si5 0.297048 0.430053 0.476645
Si Si6 0.385199 0.679098 0.405475
Si Si7 0.064365 0.763667 0.614486
O O1 0.298676 0.160768 0.256777
O O2 0.185036 0.127302 0.195353
O O3 0.243264 0.074068 0.358627
O O4 0.270124 0.073462 0.107147
O O5 0.500000 0.090838 0.441046
O O6 0.387740 0.123797 0.387163
O O7 0.410788 0.080321 0.586098
O O8 0.423288 0.000000 0.412984
O O9 0.355921 0.252774 0.367745
O O10 0.407949 0.191984 0.211435
O O11 0.910447 0.356204 0.793218
O O12 0.895320 0.298700 0.603821
O O13 0.326651 0.500000 0.467920
O O14 0.339160 0.368958 0.463749
O O15 0.433972 0.698956 0.495215
O O16 0.000000 0.742241 0.645666
#
# Coordination Sequence:
#
# PCOD9369745 Si02
#       7
#    16  16  16  16  16  16  16
#     4  11  24  43  68  99 140 185 228 283 350 413
#     4  11  24  43  69 100 138 181 230 290 346 406
#     4  11  23  43  66 101 133 175 229 285 338 414
#     4  10  23  39  62  97 132 174 218 277 332 412
#     4  11  24  43  66  97 136 183 229 276 341 416
#     4  10  23  41  64  97 128 174 220 283 338 402
#     4  11  22  40  66  95 130 174 225 280 341 402
#
# _framework density 20.386664
#
# number of rings (size 3 to 8) (size 9 to 14) (size 15 to 20)
#    0.000    1.286    2.857    2.143    0.000   13.143 
#    0.000    0.000    0.000    0.429    0.000    0.000 
#    0.000    0.000    0.000    0.000    0.000    0.000 
#
# Total GULP energy -155924.027565 kJ/mol
# GULP energy per Si atom -5568.715270 kJ/mol
# Density = 2.034026 g / cm^3
# Si number density = 20.386664 Si / 1000 Ang^3
#
#
#
# Elastic Constant Matrix: (Units=GPa)
#
#
# Indices 1 2 3 4 5 6 
#
# 1 76.5235 35.3437 17.7144 0.0000 0.0000 0.0000
# 2 35.3437 89.1201 21.7407 0.0000 0.0000 0.0000
# 3 17.7144 21.7407 81.2184 0.0000 0.0001 0.0000
# 4 0.0000 0.0000 0.0000 12.9310 0.0000 0.0000
# 5 0.0000 0.0000 0.0001 0.0000 -65.5598 0.0000
# 6 0.0000 0.0000 0.0000 0.0000 0.0000 18.7296
#
#
#
# Elastic Compliance Matrix: (Units=1/GPa)
#
#
# Indices 1 2 3 4 5 6 
#
# 1 0.016282 -0.005981 -0.001950 0.000000 0.000000 0.000000
# 2 -0.005981 0.014202 -0.002497 0.000000 0.000000 0.000000
# 3 -0.001950 -0.002497 0.013406 0.000000 0.000000 0.000000
# 4 0.000000 0.000000 0.000000 0.077334 0.000000 0.000000
# 5 0.000000 0.000000 0.000000 0.000000 -0.015253 0.000000
# 6 0.000000 0.000000 0.000000 0.000000 0.000000 0.053392
#
#
# Mechanical properties :
#
#
# Convention : Reuss Voigt Hill
#
# Bulk Modulus (GPa) = 43.41578 44.05106 43.73342
# Shear Modulus (GPa) = 26.61033 4.69103 15.65068
#
# Velocity S-wave (km/s) = 3.61679 1.51856 2.77373
# Velocity P-wave (km/s) = 6.22767 4.97287 5.63530
#
# Compressibility (1/GPa) = 0.02303310
#
# Stress axis : x y z
#
# Youngs Moduli (GPa) = 61.41772 70.41203 74.59220
#
# Poissons Ratio (x) = 0.42117 0.14546
# Poissons Ratio (y) = 0.36737 0.18626
# Poissons Ratio (z) = 0.11977 0.17582
#
# Static dielectric constant tensor:
#      x y z
#    x 1.692900 0.000000 0.000000 
#    y 0.000000 1.759050 0.000000 
#    z 0.000000 0.000000 1.817190 
# 
# From -- ./inp_files/10248.got.cif
#   From: 2010.05.17/outbox.cif.g08.bks.cpg/sg42_6_cif.got.tgz:10248.got - 2010.06.03 19:03:34.
