data_PCOD9369123
_publ_section_title
;
Structure prediction by ZEFSAII (Michael W. Deem and Ramdas Pophale) SiO2 
 PCOD9369123
Probable space group: F M M 2
;
_chemical_formula_sum "Si O2"
_cell_formula_units_Z 100
_cell_length_a 26.896397
_cell_length_b 18.517183
_cell_length_c 9.715069
_cell_angle_alpha 90.000000
_cell_angle_beta 90.000000
_cell_angle_gamma 90.000000
_cell_volume 4838.546449
_symmetry_space_group_name_H-M "F M M 2"
_symmetry_group_IT_number 42
_symmetry_cell_setting 'orthorhombic'
loop_
_space_group_symop_operation_xyz
x,y,z
-x,-y,z
-x,y,z
x,-y,z
x,1/2+y,1/2+z
-x,1/2-y,1/2+z
-x,1/2+y,1/2+z
x,1/2-y,1/2+z
1/2+x,y,1/2+z
1/2-x,-y,1/2+z
1/2-x,y,1/2+z
1/2+x,-y,1/2+z
1/2+x,1/2+y,z
1/2-x,1/2-y,z
1/2-x,1/2+y,z
1/2+x,1/2-y,z
loop_
_atom_site_type_symbol
_atom_site_label
_atom_site_fract_x
_atom_site_fract_y
_atom_site_fract_z
Si Si1 0.558089 0.633526 0.587700
Si Si2 0.422381 0.888489 0.388361
Si Si3 0.557992 0.295731 0.117814
Si Si4 0.278720 0.086579 0.723791
Si Si5 0.389500 0.085104 0.811531
Si Si6 0.000000 0.500000 0.493181
Si Si7 0.305819 0.587242 0.922300
O O1 0.500000 0.637448 0.547349
O O2 0.562214 0.593122 0.733145
O O3 0.576155 0.713634 0.629737
O O4 0.588360 0.599678 0.462657
O O5 0.436215 0.811706 0.454338
O O6 0.363634 0.897112 0.401836
O O7 0.456351 0.938732 0.483096
O O8 0.500000 0.297984 0.157292
O O9 0.586923 0.355536 0.207947
O O10 0.330123 0.095881 0.806516
O O11 0.287569 0.115046 0.570379
O O12 0.230752 0.115042 0.803636
O O13 0.271825 0.000000 0.710617
O O14 0.399213 0.000000 0.774074
O O15 0.301877 0.500000 0.924682
#
# Coordination Sequence:
#
# PCOD9369123 Si02
#       7
#    16  16  16  16  16   4  16
#     4  11  25  42  60  90 130 175 215 253 320 395
#     4  12  23  38  64  90 129 164 209 259 313 374
#     4  11  23  42  64  88 124 174 217 256 317 393
#     4   9  20  37  58  91 124 158 208 259 320 383
#     4  11  24  39  65  97 130 159 214 280 322 365
#     4  12  24  36  60 102 132 156 206 266 306 368
#     4  10  20  36  60  89 125 162 202 258 323 378
#
# _framework density 20.667363999999999
#
# number of rings (size 3 to 8) (size 9 to 14) (size 15 to 20)
#    0.000    1.280    4.000    1.440    4.480    3.840 
#    0.000    0.000    0.000    5.760    0.000    0.000 
#    0.000    0.000    0.000    0.000    0.000    0.000 
#
# Total GULP energy -139243.360354 kJ/mol
# GULP energy per Si atom -5569.734414 kJ/mol
# Density = 2.062032 g / cm^3
# Si number density = 20.667364 Si / 1000 Ang^3
#
#
#
# Elastic Constant Matrix: (Units=GPa)
#
#
# Indices 1 2 3 4 5 6 
#
# 1 130.8518 20.6961 28.0568 0.0000 0.0000 0.0000
# 2 20.6961 49.1901 -0.4588 0.0000 0.0000 0.0000
# 3 28.0568 -0.4588 65.0357 0.0000 0.0000 0.0000
# 4 0.0000 0.0000 0.0000 17.0460 0.0000 0.0000
# 5 0.0000 0.0000 0.0000 0.0000 37.9990 0.0000
# 6 0.0000 0.0000 0.0000 0.0000 0.0000 10.1280
#
#
#
# Elastic Compliance Matrix: (Units=1/GPa)
#
#
# Indices 1 2 3 4 5 6 
#
# 1 0.009101 -0.003866 -0.003954 0.000000 0.000000 0.000000
# 2 -0.003866 0.021973 0.001823 0.000000 0.000000 0.000000
# 3 -0.003954 0.001823 0.017095 0.000000 0.000000 0.000000
# 4 0.000000 0.000000 0.000000 0.058665 0.000000 0.000000
# 5 0.000000 0.000000 0.000000 0.000000 0.026316 0.000000
# 6 0.000000 0.000000 0.000000 0.000000 0.000000 0.098737
#
#
# Mechanical properties :
#
#
# Convention : Reuss Voigt Hill
#
# Bulk Modulus (GPa) = 27.64333 37.96289 32.80311
# Shear Modulus (GPa) = 19.53587 26.15348 22.84468
#
# Velocity S-wave (km/s) = 3.07783 3.56117 3.32829
# Velocity P-wave (km/s) = 5.10246 5.94287 5.53863
#
# Compressibility (1/GPa) = 0.03617509
#
# Stress axis : x y z
#
# Youngs Moduli (GPa) = 109.87238 45.51053 58.49766
#
# Poissons Ratio (x) = 0.17595 0.23128
# Poissons Ratio (y) = 0.42479 -0.10664
# Poissons Ratio (z) = 0.43440 -0.08296
#
# Static dielectric constant tensor:
#      x y z
#    x 1.705610 0.000000 0.000000 
#    y 0.000000 1.863700 0.000000 
#    z 0.000000 0.000000 1.793340 
# 
# From -- ./inp_files/4239.got.cif
#   From: 2010.05.17/outbox.cif.g08.bks.cpg/sg42_3_cif.got.tgz:4239.got - 2010.06.03 19:03:34.
