data_PCOD9369725
_publ_section_title
;
Structure prediction by ZEFSAII (Michael W. Deem and Ramdas Pophale) SiO2 
 PCOD9369725
Probable space group: F M M 2
;
_chemical_formula_sum "Si O2"
_cell_formula_units_Z 88
_cell_length_a 16.936629
_cell_length_b 7.629305
_cell_length_c 30.129806
_cell_angle_alpha 90.000000
_cell_angle_beta 90.000000
_cell_angle_gamma 90.000000
_cell_volume 3893.214094
_symmetry_space_group_name_H-M "F M M 2"
_symmetry_group_IT_number 42
_symmetry_cell_setting 'orthorhombic'
loop_
_space_group_symop_operation_xyz
x,y,z
-x,-y,z
-x,y,z
x,-y,z
x,1/2+y,1/2+z
-x,1/2-y,1/2+z
-x,1/2+y,1/2+z
x,1/2-y,1/2+z
1/2+x,y,1/2+z
1/2-x,-y,1/2+z
1/2-x,y,1/2+z
1/2+x,-y,1/2+z
1/2+x,1/2+y,z
1/2-x,1/2-y,z
1/2-x,1/2+y,z
1/2+x,1/2-y,z
loop_
_atom_site_type_symbol
_atom_site_label
_atom_site_fract_x
_atom_site_fract_y
_atom_site_fract_z
Si Si1 0.340947 0.199303 0.539890
Si Si2 0.658743 0.798403 0.668070
Si Si3 0.342316 0.791661 0.354967
Si Si4 0.090977 0.287743 0.260988
Si Si5 0.589099 0.205320 0.950128
Si Si6 0.103766 0.000000 0.603372
O O1 0.250000 0.250000 0.549392
O O2 0.356536 0.208237 0.487333
O O3 0.392133 0.344663 0.565071
O O4 0.354918 0.000000 0.554461
O O5 0.750000 0.750000 0.658218
O O6 0.642727 0.780413 0.720379
O O7 0.608014 0.654946 0.641818
O O8 0.644574 0.000000 0.655452
O O9 0.250000 0.750000 0.354939
O O10 0.380363 0.725258 0.309210
O O11 0.380915 0.724296 0.400086
O O12 0.353220 0.000000 0.355507
O O13 0.095959 0.500000 0.260581
O O14 0.000000 0.237901 0.253891
O O15 0.500000 0.275112 0.953662
O O16 0.588333 0.000000 0.960434
#
# Coordination Sequence:
#
# PCOD9369725 Si02
#       6
#    16  16  16  16  16   8
#     4  12  24  41  69  99 134 174 225 278 338 394
#     4  12  24  40  68  99 133 175 226 278 339 393
#     4  11  23  40  68 100 135 173 223 273 330 394
#     4  10  22  43  66  95 136 179 219 274 335 397
#     4  11  24  44  66  95 135 178 220 274 334 398
#     4  12  24  44  67 102 131 174 226 284 340 392
#
# _framework density 22.603432999999999
#
# number of rings (size 3 to 8) (size 9 to 14) (size 15 to 20)
#    0.000    0.727    3.636    3.818    0.000    5.455 
#    0.000    1.818    0.000    2.182    0.000    0.000 
#    0.000    0.000    0.000    0.000    0.000    0.000 
#
# Total GULP energy -122632.151958 kJ/mol
# GULP energy per Si atom -5574.188725 kJ/mol
# Density = 2.255199 g / cm^3
# Si number density = 22.603433 Si / 1000 Ang^3
#
#
#
# Elastic Constant Matrix: (Units=GPa)
#
#
# Indices 1 2 3 4 5 6 
#
# 1 51.3896 8.3731 10.1357 0.0000 0.0000 0.0000
# 2 8.3731 182.2341 40.7068 0.0000 0.0000 0.0000
# 3 10.1357 40.7068 177.2366 0.0000 0.0000 0.0000
# 4 0.0000 0.0000 0.0000 43.6696 0.0000 0.0000
# 5 0.0000 0.0000 0.0000 0.0000 -394.5845 0.0000
# 6 0.0000 0.0000 0.0000 0.0000 0.0000 -30.5850
#
#
#
# Elastic Compliance Matrix: (Units=1/GPa)
#
#
# Indices 1 2 3 4 5 6 
#
# 1 0.019763 -0.000691 -0.000971 0.000000 0.000000 0.000000
# 2 -0.000691 0.005808 -0.001295 0.000000 0.000000 0.000000
# 3 -0.000971 -0.001295 0.005995 0.000000 0.000000 0.000000
# 4 0.000000 0.000000 0.000000 0.022899 0.000000 0.000000
# 5 0.000000 0.000000 0.000000 0.000000 -0.002534 0.000000
# 6 0.000000 0.000000 0.000000 0.000000 0.000000 -0.032696
#
#
# Mechanical properties :
#
#
# Convention : Reuss Voigt Hill
#
# Bulk Modulus (GPa) = 38.98229 58.81015 48.89622
# Shear Modulus (GPa) = 148.36388 -52.85697 47.75346
#
# Velocity S-wave (km/s) = 8.11050 -4.84100 4.60136
# Velocity P-wave (km/s) = 10.24649 2.27427 7.06464
#
# Compressibility (1/GPa) = 0.02565267
#
# Stress axis : x y z
#
# Youngs Moduli (GPa) = 50.59860 172.16554 166.80428
#
# Poissons Ratio (x) = 0.11898 0.16205
# Poissons Ratio (y) = 0.03497 0.21593
# Poissons Ratio (z) = 0.04916 0.22287
#
# Static dielectric constant tensor:
#      x y z
#    x 1.847800 0.000000 0.000000 
#    y 0.000000 1.811680 0.000000 
#    z 0.000000 0.000000 1.814560 
# 
# From -- ./inp_files/34437.got.cif
#   From: 2010.05.17/outbox.cif.g08.bks.cpg/sg42_18_cif.got.tgz:34437.got - 2010.06.03 19:03:34.
