data_PCOD9369965
_publ_section_title
;
Structure prediction by ZEFSAII (Michael W. Deem and Ramdas Pophale) SiO2 
 PCOD9369965
Probable space group: F M M 2
;
_chemical_formula_sum "Si O2"
_cell_formula_units_Z 112
_cell_length_a 17.254651
_cell_length_b 14.281924
_cell_length_c 23.621844
_cell_angle_alpha 90.000000
_cell_angle_beta 90.000000
_cell_angle_gamma 90.000000
_cell_volume 5821.121904
_symmetry_space_group_name_H-M "F M M 2"
_symmetry_group_IT_number 42
_symmetry_cell_setting 'orthorhombic'
loop_
_space_group_symop_operation_xyz
x,y,z
-x,-y,z
-x,y,z
x,-y,z
x,1/2+y,1/2+z
-x,1/2-y,1/2+z
-x,1/2+y,1/2+z
x,1/2-y,1/2+z
1/2+x,y,1/2+z
1/2-x,-y,1/2+z
1/2-x,y,1/2+z
1/2+x,-y,1/2+z
1/2+x,1/2+y,z
1/2-x,1/2-y,z
1/2-x,1/2+y,z
1/2+x,1/2-y,z
loop_
_atom_site_type_symbol
_atom_site_label
_atom_site_fract_x
_atom_site_fract_y
_atom_site_fract_z
Si Si1 0.590844 0.387200 0.821060
Si Si2 0.338809 0.221176 0.637742
Si Si3 0.593209 0.111027 0.530963
Si Si4 0.090844 0.387200 0.740866
Si Si5 0.338809 0.721175 0.924183
Si Si6 0.407240 0.604932 0.369239
Si Si7 0.592760 0.104932 0.192687
O O1 0.500000 0.358178 0.828835
O O2 0.592759 0.500000 0.826823
O O3 0.643591 0.338815 0.867720
O O4 0.615747 0.365892 0.756646
O O5 0.250000 0.250000 0.630812
O O6 0.371611 0.161773 0.585748
O O7 0.356409 0.161185 0.694206
O O8 0.382744 0.318992 0.647531
O O9 0.500000 0.120666 0.530963
O O10 0.628389 0.161773 0.476178
O O11 0.610840 0.000000 0.530963
O O12 0.092759 0.500000 0.735103
O O13 0.115747 0.365892 0.805280
O O14 0.000000 0.358178 0.733091
O O15 0.250000 0.750000 0.931114
O O16 0.382744 0.818991 0.914395
O O17 0.500000 0.599984 0.367363
O O18 0.377168 0.500000 0.380354
O O19 0.500000 0.099985 0.194563
O O20 0.622832 0.000000 0.181572
#
# Coordination Sequence:
#
# PCOD9369965 Si02
#       7
#    16  16  16  16  16  16  16
#     4   9  18  35  60  87 116 155 202 242 271 314
#     4  12  24  37  56  87 121 150 181 233 299 350
#     4  11  25  46  69  85 101 139 198 251 288 334
#     4   9  18  35  60  87 116 155 202 242 271 314
#     4  12  24  37  56  87 121 150 181 233 299 350
#     4   9  19  36  58  85 118 158 199 232 269 329
#     4   9  19  36  58  85 118 158 199 232 269 329
#
# _framework density 19.240276999999999
#
# number of rings (size 3 to 8) (size 9 to 14) (size 15 to 20)
#    0.000    1.857    0.000    6.429    0.000    9.143 
#    0.000    3.571    0.000    2.571    0.000    0.000 
#    0.000    0.000    0.000    0.000    0.000    0.000 
#
# Total GULP energy -156427.390328 kJ/mol
# GULP energy per Si atom -5586.692512 kJ/mol
# Density = 1.919649 g / cm^3
# Si number density = 19.240277 Si / 1000 Ang^3
#
#
#
# Elastic Constant Matrix: (Units=GPa)
#
#
# Indices 1 2 3 4 5 6 
#
# 1 71.6577 53.2496 55.3783 0.0000 0.0000 0.0000
# 2 53.2496 134.3542 95.8964 0.0000 0.0000 0.0000
# 3 55.3783 95.8964 111.7224 0.0000 0.0000 0.0000
# 4 0.0000 0.0000 0.0000 191.9150 0.0000 0.0000
# 5 0.0000 0.0000 0.0000 0.0000 1044.2627 0.0000
# 6 0.0000 0.0000 0.0000 0.0000 0.0000 -960.9046
#
#
#
# Elastic Compliance Matrix: (Units=1/GPa)
#
#
# Indices 1 2 3 4 5 6 
#
# 1 0.022946 -0.002520 -0.009211 0.000000 0.000000 0.000000
# 2 -0.002520 0.019492 -0.015482 0.000000 0.000000 0.000000
# 3 -0.009211 -0.015482 0.026805 0.000000 0.000000 0.000000
# 4 0.000000 0.000000 0.000000 0.005211 0.000000 0.000000
# 5 0.000000 0.000000 0.000000 0.000000 0.000958 0.000000
# 6 0.000000 0.000000 0.000000 0.000000 0.000000 -0.001041
#
#
# Mechanical properties :
#
#
# Convention : Reuss Voigt Hill
#
# Bulk Modulus (GPa) = 67.48567 80.75365 74.11966
# Shear Modulus (GPa) = 37.38728 62.60195 49.99462
#
# Velocity S-wave (km/s) = 4.41293 5.71030 5.10302
# Velocity P-wave (km/s) = 7.81771 9.24873 8.56317
#
# Compressibility (1/GPa) = 0.01481796
#
# Stress axis : x y z
#
# Youngs Moduli (GPa) = 43.58016 51.30295 37.30659
#
# Poissons Ratio (x) = 0.12930 0.34362
# Poissons Ratio (y) = 0.10983 0.57757
# Poissons Ratio (z) = 0.40140 0.79426
#
# Static dielectric constant tensor:
#      x y z
#    x 1.668780 0.000000 0.000000 
#    y 0.000000 1.704330 0.000000 
#    z 0.000000 0.000000 1.654090 
# 
# From -- ./inp_files/29483.got.cif
#   From: 2010.05.17/outbox.cif.g08.bks.cpg/sg42_15_cif.got.tgz:29483.got - 2010.06.03 19:03:34.
