data_PCOD9369828
_publ_section_title
;
Structure prediction by ZEFSAII (Michael W. Deem and Ramdas Pophale) SiO2 
 PCOD9369828
Probable space group: F M M 2
;
_chemical_formula_sum "Si O2"
_cell_formula_units_Z 112
_cell_length_a 27.553960
_cell_length_b 14.527691
_cell_length_c 15.762089
_cell_angle_alpha 90.000000
_cell_angle_beta 90.000000
_cell_angle_gamma 90.000000
_cell_volume 6309.491984
_symmetry_space_group_name_H-M "F M M 2"
_symmetry_group_IT_number 42
_symmetry_cell_setting 'orthorhombic'
loop_
_space_group_symop_operation_xyz
x,y,z
-x,-y,z
-x,y,z
x,-y,z
x,1/2+y,1/2+z
-x,1/2-y,1/2+z
-x,1/2+y,1/2+z
x,1/2-y,1/2+z
1/2+x,y,1/2+z
1/2-x,-y,1/2+z
1/2-x,y,1/2+z
1/2+x,-y,1/2+z
1/2+x,1/2+y,z
1/2-x,1/2-y,z
1/2-x,1/2+y,z
1/2+x,1/2-y,z
loop_
_atom_site_type_symbol
_atom_site_label
_atom_site_fract_x
_atom_site_fract_y
_atom_site_fract_z
Si Si1 0.219732 0.403114 0.593970
Si Si2 0.052685 0.390467 0.850298
Si Si3 0.252723 0.859488 0.908989
Si Si4 0.943084 0.891672 0.147655
Si Si5 0.287754 0.835758 0.235277
Si Si6 0.358029 0.108290 0.961319
Si Si7 0.359207 0.753405 0.119462
O O1 0.195351 0.500000 0.615962
O O2 0.235352 0.402634 0.496642
O O3 0.265551 0.391460 0.656173
O O4 0.184168 0.318630 0.605413
O O5 0.050898 0.500000 0.866673
O O6 0.059875 0.382545 0.749843
O O7 0.097243 0.356242 0.905024
O O8 0.000000 0.350585 0.872942
O O9 0.250000 0.750000 0.922108
O O10 0.220838 0.883229 0.826284
O O11 0.309524 0.883436 0.904223
O O12 0.907309 0.810335 0.116549
O O13 0.000000 0.878396 0.123939
O O14 0.930883 0.000000 0.126938
O O15 0.250000 0.750000 0.242556
O O16 0.341377 0.802173 0.207651
O O17 0.363367 0.000000 0.983191
O O18 0.356903 0.171068 0.045073
#
# Coordination Sequence:
#
# PCOD9369828 Si02
#       7
#    16  16  16  16  16  16  16
#     4  11  21  35  52  76 110 146 186 228 270 329
#     4   8  17  34  55  81 107 133 177 231 279 334
#     4  11  20  36  52  74 110 148 187 227 273 332
#     4   9  19  36  58  85 113 141 181 232 283 338
#     4   9  21  34  51  73 104 146 187 224 271 327
#     4  11  22  35  55  78 109 149 185 231 287 331
#     4  11  21  36  53  80 113 145 186 232 278 334
#
# _framework density 17.751033
#
# number of rings (size 3 to 8) (size 9 to 14) (size 15 to 20)
#    0.000    2.000    2.857    2.143    6.000    1.714 
#    0.000    0.000    0.000    0.000    0.000    0.000 
#    0.000    2.286    0.000    0.000    0.000    0.000 
#
# Total GULP energy -155883.301946 kJ/mol
# GULP energy per Si atom -5567.260784 kJ/mol
# Density = 1.771063 g / cm^3
# Si number density = 17.751033 Si / 1000 Ang^3
#
#
#
# Elastic Constant Matrix: (Units=GPa)
#
#
# Indices 1 2 3 4 5 6 
#
# 1 75.6903 24.4407 18.1250 0.0000 0.0000 0.0000
# 2 24.4407 87.9306 22.8828 0.0000 0.0000 0.0000
# 3 18.1250 22.8828 75.2624 0.0000 0.0000 0.0000
# 4 0.0000 0.0000 0.0000 31.5818 0.0000 0.0000
# 5 0.0000 0.0000 0.0000 0.0000 24.3153 0.0000
# 6 0.0000 0.0000 0.0000 0.0000 0.0000 29.0050
#
#
#
# Elastic Compliance Matrix: (Units=1/GPa)
#
#
# Indices 1 2 3 4 5 6 
#
# 1 0.014948 -0.003494 -0.002537 0.000000 0.000000 0.000000
# 2 -0.003494 0.013167 -0.003162 0.000000 0.000000 0.000000
# 3 -0.002537 -0.003162 0.014859 0.000000 0.000000 0.000000
# 4 0.000000 0.000000 0.000000 0.031664 0.000000 0.000000
# 5 0.000000 0.000000 0.000000 0.000000 0.041126 0.000000
# 6 0.000000 0.000000 0.000000 0.000000 0.000000 0.034477
#
#
# Mechanical properties :
#
#
# Convention : Reuss Voigt Hill
#
# Bulk Modulus (GPa) = 40.67242 41.08670 40.87956
# Shear Modulus (GPa) = 28.27686 28.54273 28.40979
#
# Velocity S-wave (km/s) = 3.99553 4.01427 4.00491
# Velocity P-wave (km/s) = 6.65193 6.68447 6.66822
#
# Compressibility (1/GPa) = 0.02458669
#
# Stress axis : x y z
#
# Youngs Moduli (GPa) = 66.89992 75.94923 67.29859
#
# Poissons Ratio (x) = 0.26540 0.17076
# Poissons Ratio (y) = 0.23378 0.21277
# Poissons Ratio (z) = 0.16974 0.24013
#
# Static dielectric constant tensor:
#      x y z
#    x 1.639120 0.000000 0.000000 
#    y 0.000000 1.502460 0.000000 
#    z 0.000000 0.000000 1.627480 
# 
# From -- ./inp_files/14390.got.cif
#   From: 2010.05.17/outbox.cif.g08.bks.cpg/sg42_8_cif.got.tgz:14390.got - 2010.06.03 19:03:34.
