data_PCOD9369316
_publ_section_title
;
Structure prediction by ZEFSAII (Michael W. Deem and Ramdas Pophale) SiO2 
 PCOD9369316
Probable space group: F M M 2
;
_chemical_formula_sum "Si O2"
_cell_formula_units_Z 80
_cell_length_a 9.862418
_cell_length_b 17.857514
_cell_length_c 25.875640
_cell_angle_alpha 90.000000
_cell_angle_beta 90.000000
_cell_angle_gamma 90.000000
_cell_volume 4557.172887
_symmetry_space_group_name_H-M "F M M 2"
_symmetry_group_IT_number 42
_symmetry_cell_setting 'orthorhombic'
loop_
_space_group_symop_operation_xyz
x,y,z
-x,-y,z
-x,y,z
x,-y,z
x,1/2+y,1/2+z
-x,1/2-y,1/2+z
-x,1/2+y,1/2+z
x,1/2-y,1/2+z
1/2+x,y,1/2+z
1/2-x,-y,1/2+z
1/2-x,y,1/2+z
1/2+x,-y,1/2+z
1/2+x,1/2+y,z
1/2-x,1/2-y,z
1/2-x,1/2+y,z
1/2+x,1/2-y,z
loop_
_atom_site_type_symbol
_atom_site_label
_atom_site_fract_x
_atom_site_fract_y
_atom_site_fract_z
Si Si1 0.000000 0.687953 0.385010
Si Si2 0.795048 0.090494 0.519557
Si Si3 0.000000 0.089254 0.986732
Si Si4 0.500000 0.414325 0.326141
Si Si5 0.500000 0.352355 0.436027
Si Si6 0.500000 0.590480 0.607479
Si Si7 0.278453 0.833591 0.296245
Si Si8 0.000000 0.089998 0.725612
O O1 0.000000 0.629702 0.431709
O O2 0.130920 0.676045 0.348332
O O3 0.000000 0.770406 0.410299
O O4 0.636953 0.108459 0.517084
O O5 0.870090 0.111551 0.572669
O O6 0.871635 0.131574 0.472688
O O7 0.812151 0.000000 0.512838
O O8 0.000000 0.000000 0.978321
O O9 0.500000 0.500000 0.309030
O O10 0.500000 0.408944 0.388216
O O11 0.636138 0.373180 0.307558
O O12 0.500000 0.500000 0.610126
O O13 0.500000 0.616862 0.666212
O O14 0.250000 0.750000 0.276672
O O15 0.369560 0.879433 0.256162
O O16 0.000000 0.000000 0.726933
#
# Coordination Sequence:
#
# PCOD9369316 Si02
#       8
#     8  16   8   8   8   8  16   8
#     4  11  23  35  56  78 111 162 195 220 274 354
#     4   9  18  33  55  81 113 144 182 233 284 337
#     4  10  21  33  51  83 117 149 184 234 285 334
#     4  12  22  33  55  85 116 146 191 238 278 335
#     4  11  19  33  51  78 110 151 196 217 277 338
#     4   8  16  35  61  82 100 141 189 233 289 343
#     4  11  22  40  55  81 117 155 189 233 292 342
#     4  10  21  39  66  86 105 145 201 248 288 342
#
# _framework density 17.554742999999998
#
# number of rings (size 3 to 8) (size 9 to 14) (size 15 to 20)
#    0.000    1.800    2.000    3.900    0.000    4.000 
#    0.000    1.000    8.800    3.600    0.000    0.000 
#    0.000    0.000    0.000    0.000    0.000    0.000 
#
# Total GULP energy -111640.395200 kJ/mol
# GULP energy per Si atom -5582.019760 kJ/mol
# Density = 1.751479 g / cm^3
# Si number density = 17.554743 Si / 1000 Ang^3
#
#
#
# Elastic Constant Matrix: (Units=GPa)
#
#
# Indices 1 2 3 4 5 6 
#
# 1 182.5318 61.0317 78.9092 0.0000 0.0000 0.0000
# 2 61.0317 81.3306 44.1209 0.0000 0.0000 0.0000
# 3 78.9092 44.1209 134.7515 0.0000 0.0000 0.0000
# 4 0.0000 0.0000 0.0000 19.6933 0.0000 0.0000
# 5 0.0000 0.0000 0.0000 0.0000 -22.4598 0.0000
# 6 0.0000 0.0000 0.0000 0.0000 0.0000 23.4516
#
#
#
# Elastic Compliance Matrix: (Units=1/GPa)
#
#
# Indices 1 2 3 4 5 6 
#
# 1 0.008489 -0.004467 -0.003508 0.000000 0.000000 0.000000
# 2 -0.004467 0.017302 -0.003049 0.000000 0.000000 0.000000
# 3 -0.003508 -0.003049 0.010474 0.000000 0.000000 0.000000
# 4 0.000000 0.000000 0.000000 0.050779 0.000000 0.000000
# 5 0.000000 0.000000 0.000000 0.000000 -0.044524 0.000000
# 6 0.000000 0.000000 0.000000 0.000000 0.000000 0.042641
#
#
# Mechanical properties :
#
#
# Convention : Reuss Voigt Hill
#
# Bulk Modulus (GPa) = 70.34610 85.19304 77.76957
# Shear Modulus (GPa) = 44.66381 18.44048 31.55214
#
# Velocity S-wave (km/s) = 5.04954 3.24459 4.24412
# Velocity P-wave (km/s) = 8.61142 7.91655 8.27128
#
# Compressibility (1/GPa) = 0.01421543
#
# Stress axis : x y z
#
# Youngs Moduli (GPa) = 117.80352 57.79797 95.47504
#
# Poissons Ratio (x) = 0.25817 0.33496
# Poissons Ratio (y) = 0.52621 0.29113
# Poissons Ratio (z) = 0.41330 0.17624
#
# Static dielectric constant tensor:
#      x y z
#    x 1.612080 0.000000 0.000000 
#    y 0.000000 1.604590 0.000000 
#    z 0.000000 0.000000 1.566720 
# 
# From -- ./inp_files/27880.got.cif
#   From: 2010.05.17/outbox.cif.g08.bks.cpg/sg42_14_cif.got.tgz:27880.got - 2010.06.03 19:03:34.
