data_PCOD9369119
_publ_section_title
;
Structure prediction by ZEFSAII (Michael W. Deem and Ramdas Pophale) SiO2 
 PCOD9369119
Probable space group: F M M 2
;
_chemical_formula_sum "Si O2"
_cell_formula_units_Z 96
_cell_length_a 20.162120
_cell_length_b 16.087190
_cell_length_c 14.278294
_cell_angle_alpha 90.000000
_cell_angle_beta 90.000000
_cell_angle_gamma 90.000000
_cell_volume 4631.191149
_symmetry_space_group_name_H-M "F M M 2"
_symmetry_group_IT_number 42
_symmetry_cell_setting 'orthorhombic'
loop_
_space_group_symop_operation_xyz
x,y,z
-x,-y,z
-x,y,z
x,-y,z
x,1/2+y,1/2+z
-x,1/2-y,1/2+z
-x,1/2+y,1/2+z
x,1/2-y,1/2+z
1/2+x,y,1/2+z
1/2-x,-y,1/2+z
1/2-x,y,1/2+z
1/2+x,-y,1/2+z
1/2+x,1/2+y,z
1/2-x,1/2-y,z
1/2-x,1/2+y,z
1/2+x,1/2-y,z
loop_
_atom_site_type_symbol
_atom_site_label
_atom_site_fract_x
_atom_site_fract_y
_atom_site_fract_z
Si Si1 0.678672 0.770977 0.481990
Si Si2 0.679186 0.283827 0.768933
Si Si3 0.385683 0.589595 0.470231
Si Si4 0.573312 0.095248 0.179768
Si Si5 0.423214 0.906352 0.562897
Si Si6 0.572089 0.139788 0.773280
O O1 0.750000 0.750000 0.526055
O O2 0.689506 0.808674 0.377780
O O3 0.650165 0.678213 0.471575
O O4 0.627856 0.834149 0.532035
O O5 0.750000 0.250000 0.734401
O O6 0.637237 0.353127 0.713649
O O7 0.629896 0.206282 0.769709
O O8 0.348344 0.500000 0.474589
O O9 0.426303 0.593006 0.566710
O O10 0.422040 0.590672 0.370285
O O11 0.500000 0.126193 0.210174
O O12 0.579719 0.000000 0.212584
O O13 0.500000 0.886914 0.534661
O O14 0.423034 0.908816 0.675937
O O15 0.406887 0.000000 0.528403
O O16 0.500000 0.181518 0.773559
#
# Coordination Sequence:
#
# PCOD9369119 Si02
#       6
#    16  16  16  16  16  16
#     4  10  23  41  60  85 119 160 202 247 303 364
#     4  10  22  40  58  82 118 158 198 243 301 363
#     4  10  21  37  59  88 121 156 197 248 303 358
#     4  10  21  37  60  90 120 153 197 248 301 357
#     4  10  22  39  61  91 123 157 200 250 304 360
#     4  10  20  36  60  87 117 155 199 247 297 354
#
# _framework density 20.729008
#
# number of rings (size 3 to 8) (size 9 to 14) (size 15 to 20)
#    0.000    2.000    0.000    2.500    0.000   11.000 
#    0.000   10.833    0.000    0.000    0.000    0.000 
#    0.000    0.000    0.000    0.000    0.000    0.000 
#
# Total GULP energy -133619.098252 kJ/mol
# GULP energy per Si atom -5567.462427 kJ/mol
# Density = 2.068183 g / cm^3
# Si number density = 20.729008 Si / 1000 Ang^3
#
#
#
# Elastic Constant Matrix: (Units=GPa)
#
#
# Indices 1 2 3 4 5 6 
#
# 1 174.0618 90.9553 45.8631 0.0000 0.0000 0.0000
# 2 90.9553 148.8506 39.2851 0.0000 0.0000 0.0000
# 3 45.8631 39.2851 102.5635 0.0000 0.0000 0.0000
# 4 0.0000 0.0000 0.0000 8.1439 0.0000 0.0000
# 5 0.0000 0.0000 0.0000 0.0000 -18.0060 0.0000
# 6 0.0000 0.0000 0.0000 0.0000 0.0000 25.2497
#
#
#
# Elastic Compliance Matrix: (Units=1/GPa)
#
#
# Indices 1 2 3 4 5 6 
#
# 1 0.008826 -0.004841 -0.002092 0.000000 0.000000 0.000000
# 2 -0.004841 0.010129 -0.001715 0.000000 0.000000 0.000000
# 3 -0.002092 -0.001715 0.011343 0.000000 0.000000 0.000000
# 4 0.000000 0.000000 0.000000 0.122792 0.000000 0.000000
# 5 0.000000 0.000000 0.000000 0.000000 -0.055537 0.000000
# 6 0.000000 0.000000 0.000000 0.000000 0.000000 0.039604
#
#
# Mechanical properties :
#
#
# Convention : Reuss Voigt Hill
#
# Bulk Modulus (GPa) = 76.91858 86.40921 81.66390
# Shear Modulus (GPa) = 31.48876 19.70234 25.59555
#
# Velocity S-wave (km/s) = 3.90175 3.08632 3.51774
# Velocity P-wave (km/s) = 7.58192 7.38079 7.48203
#
# Compressibility (1/GPa) = 0.01300076
#
# Stress axis : x y z
#
# Youngs Moduli (GPa) = 113.30132 98.72842 88.16292
#
# Poissons Ratio (x) = 0.47793 0.18448
# Poissons Ratio (y) = 0.54848 0.15120
# Poissons Ratio (z) = 0.23708 0.16931
#
# Static dielectric constant tensor:
#      x y z
#    x 1.787550 0.000000 0.000000 
#    y 0.000000 1.779280 0.000000 
#    z 0.000000 0.000000 1.800270 
# 
# From -- ./inp_files/13990.got.cif
#   From: 2010.05.17/outbox.cif.g08.bks.cpg/sg42_7_cif.got.tgz:13990.got - 2010.06.03 19:03:34.
