data_PCOD9369695
_publ_section_title
;
Structure prediction by ZEFSAII (Michael W. Deem and Ramdas Pophale) SiO2 
 PCOD9369695
Probable space group: F M M 2
;
_chemical_formula_sum "Si O2"
_cell_formula_units_Z 68
_cell_length_a 19.538979
_cell_length_b 8.904331
_cell_length_c 20.295915
_cell_angle_alpha 90.000000
_cell_angle_beta 90.000000
_cell_angle_gamma 90.000000
_cell_volume 3531.114475
_symmetry_space_group_name_H-M "F M M 2"
_symmetry_group_IT_number 42
_symmetry_cell_setting 'orthorhombic'
loop_
_space_group_symop_operation_xyz
x,y,z
-x,-y,z
-x,y,z
x,-y,z
x,1/2+y,1/2+z
-x,1/2-y,1/2+z
-x,1/2+y,1/2+z
x,1/2-y,1/2+z
1/2+x,y,1/2+z
1/2-x,-y,1/2+z
1/2-x,y,1/2+z
1/2+x,-y,1/2+z
1/2+x,1/2+y,z
1/2-x,1/2-y,z
1/2-x,1/2+y,z
1/2+x,1/2-y,z
loop_
_atom_site_type_symbol
_atom_site_label
_atom_site_fract_x
_atom_site_fract_y
_atom_site_fract_z
Si Si1 0.678684 0.178362 0.862820
Si Si2 0.678404 0.320767 0.636553
Si Si3 0.500000 0.500000 0.995222
Si Si4 0.920183 0.179769 0.757438
Si Si5 0.642141 0.833886 0.498965
O O1 0.750000 0.250000 0.839016
O O2 0.618110 0.235651 0.815940
O O3 0.683370 0.000000 0.861933
O O4 0.664985 0.240079 0.936006
O O5 0.684965 0.500000 0.631030
O O6 0.750000 0.250000 0.659481
O O7 0.619338 0.287256 0.689615
O O8 0.660386 0.248397 0.566420
O O9 0.561438 0.371849 0.995459
O O10 0.000000 0.219065 0.753355
O O11 0.915268 0.000000 0.769556
O O12 0.676543 0.000000 0.497428
#
# Coordination Sequence:
#
# PCOD9369695 Si02
#       5
#    16  16   4  16  16
#     4  12  25  42  65  95 126 166 212 263 314 375
#     4  11  23  41  65  96 128 167 211 261 313 374
#     4   8  24  40  66  96 124 176 196 262 324 368
#     4  10  24  43  65  91 129 169 208 258 318 376
#     4  10  22  41  66  93 126 163 207 252 317 372
#
# _framework density 19.257375
#
# number of rings (size 3 to 8) (size 9 to 14) (size 15 to 20)
#    0.706    0.706    0.000    4.941    3.294    4.235 
#    0.000    1.176    0.000    0.000    0.000    0.000 
#    0.000    0.000    0.000    0.000    0.000    0.000 
#
# Total GULP energy -94748.890977 kJ/mol
# GULP energy per Si atom -5573.464175 kJ/mol
# Density = 1.921354 g / cm^3
# Si number density = 19.257375 Si / 1000 Ang^3
#
#
#
# Elastic Constant Matrix: (Units=GPa)
#
#
# Indices 1 2 3 4 5 6 
#
# 1 170.2668 78.0173 61.8453 0.0000 0.0000 0.0000
# 2 78.0173 120.0733 88.7155 0.0000 0.0000 0.0000
# 3 61.8453 88.7155 136.1158 0.0000 0.0000 0.0000
# 4 0.0000 0.0000 0.0000 29.7353 0.0000 0.0000
# 5 0.0000 0.0000 0.0000 0.0000 16.3659 0.0000
# 6 0.0000 0.0000 0.0000 0.0000 0.0000 32.0687
#
#
#
# Elastic Compliance Matrix: (Units=1/GPa)
#
#
# Indices 1 2 3 4 5 6 
#
# 1 0.008380 -0.005076 -0.000499 0.000000 0.000000 0.000000
# 2 -0.005076 0.019139 -0.010168 0.000000 0.000000 0.000000
# 3 -0.000499 -0.010168 0.014200 0.000000 0.000000 0.000000
# 4 0.000000 0.000000 0.000000 0.033630 0.000000 0.000000
# 5 0.000000 0.000000 0.000000 0.000000 0.061103 0.000000
# 6 0.000000 0.000000 0.000000 0.000000 0.000000 0.031183
#
#
# Mechanical properties :
#
#
# Convention : Reuss Voigt Hill
#
# Bulk Modulus (GPa) = 97.71805 98.17913 97.94859
# Shear Modulus (GPa) = 24.68737 28.82582 26.75659
#
# Velocity S-wave (km/s) = 3.58434 3.87314 3.73154
# Velocity P-wave (km/s) = 8.24520 8.43178 8.33901
#
# Compressibility (1/GPa) = 0.01023352
#
# Stress axis : x y z
#
# Youngs Moduli (GPa) = 119.32502 52.24976 70.42117
#
# Poissons Ratio (x) = 0.26524 0.03515
# Poissons Ratio (y) = 0.60575 0.71601
# Poissons Ratio (z) = 0.05955 0.53125
#
# Static dielectric constant tensor:
#      x y z
#    x 1.662370 0.000000 0.000000 
#    y 0.000000 1.655320 0.000000 
#    z 0.000000 0.000000 1.651150 
# 
# From -- ./inp_files/17940.got.cif
#   From: 2010.05.17/outbox.cif.g08.bks.cpg/sg42_9_cif.got.tgz:17940.got - 2010.06.03 19:03:34.
