data_PCOD9369809
_publ_section_title
;
Structure prediction by ZEFSAII (Michael W. Deem and Ramdas Pophale) SiO2 
 PCOD9369809
Probable space group: F M M 2
;
_chemical_formula_sum "Si O2"
_cell_formula_units_Z 104
_cell_length_a 26.933495
_cell_length_b 20.340296
_cell_length_c 10.038043
_cell_angle_alpha 90.000000
_cell_angle_beta 90.000000
_cell_angle_gamma 90.000000
_cell_volume 5499.193903
_symmetry_space_group_name_H-M "F M M 2"
_symmetry_group_IT_number 42
_symmetry_cell_setting 'orthorhombic'
loop_
_space_group_symop_operation_xyz
x,y,z
-x,-y,z
-x,y,z
x,-y,z
x,1/2+y,1/2+z
-x,1/2-y,1/2+z
-x,1/2+y,1/2+z
x,1/2-y,1/2+z
1/2+x,y,1/2+z
1/2-x,-y,1/2+z
1/2-x,y,1/2+z
1/2+x,-y,1/2+z
1/2+x,1/2+y,z
1/2-x,1/2-y,z
1/2-x,1/2+y,z
1/2+x,1/2-y,z
loop_
_atom_site_type_symbol
_atom_site_label
_atom_site_fract_x
_atom_site_fract_y
_atom_site_fract_z
Si Si1 0.558255 0.000000 0.263780
Si Si2 0.300919 0.922010 0.080702
Si Si3 0.576352 0.249380 0.785897
Si Si4 0.000000 0.241511 0.035829
Si Si5 0.130444 0.113755 0.345137
Si Si6 0.684848 0.076762 0.576612
Si Si7 0.941689 0.500000 0.942065
Si Si8 0.868620 0.882995 0.822441
O O1 0.586449 0.935693 0.316600
O O2 0.500000 0.000000 0.298285
O O3 0.562499 0.000000 0.102759
O O4 0.242880 0.905539 0.080528
O O5 0.326320 0.908589 0.222144
O O6 0.305890 0.000000 0.050847
O O7 0.332161 0.884064 0.969451
O O8 0.542969 0.243569 0.653967
O O9 0.607870 0.183423 0.806707
O O10 0.610966 0.313318 0.776005
O O11 0.542709 0.258360 0.917393
O O12 0.160395 0.084967 0.220369
O O13 0.086167 0.063954 0.386028
O O14 0.654523 0.118120 0.468896
O O15 0.681365 0.000000 0.535928
O O16 0.000000 0.500000 0.908091
#
# Coordination Sequence:
#
# PCOD9369809 Si02
#       8
#     8  16  16   8  16  16   8  16
#     4  11  24  39  66  94 125 166 217 263 310 369
#     4  11  21  41  70  92 120 173 219 256 309 382
#     4  11  26  40  69  88 132 166 215 258 315 374
#     4  10  24  46  60  92 118 186 212 244 300 398
#     4  12  22  44  61  98 126 166 210 265 313 378
#     4  11  23  39  66  96 130 163 207 266 325 376
#     4  11  24  39  66  94 125 166 217 263 310 369
#     4  12  22  44  61  98 126 166 210 265 313 378
#
# _framework density 18.911861999999999
#
# number of rings (size 3 to 8) (size 9 to 14) (size 15 to 20)
#    0.000    0.769    4.615    2.769    4.308    2.462 
#    0.000    5.385    0.000    0.000    0.000    0.000 
#    0.000    0.000    0.000    0.000    0.000    0.000 
#
# Total GULP energy -144839.854558 kJ/mol
# GULP energy per Si atom -5570.763637 kJ/mol
# Density = 1.886882 g / cm^3
# Si number density = 18.911862 Si / 1000 Ang^3
#
#
#
# Elastic Constant Matrix: (Units=GPa)
#
#
# Indices 1 2 3 4 5 6 
#
# 1 132.8780 31.6782 25.7537 -0.0002 -0.0001 -0.0001
# 2 31.6782 76.2728 -21.5877 -0.0001 -0.0001 0.0000
# 3 25.7537 -21.5877 105.4404 0.0004 0.0002 0.0002
# 4 -0.0002 -0.0001 0.0004 14.8159 0.0006 0.0003
# 5 -0.0001 -0.0001 0.0002 0.0006 -11.5549 0.0003
# 6 -0.0001 0.0000 0.0002 0.0003 0.0003 -23.5657
#
#
#
# Elastic Compliance Matrix: (Units=1/GPa)
#
#
# Indices 1 2 3 4 5 6 
#
# 1 0.009295 -0.004780 -0.003249 0.000000 0.000000 0.000000
# 2 -0.004780 0.016375 0.004520 0.000000 0.000000 0.000000
# 3 -0.003249 0.004520 0.011203 0.000000 0.000000 0.000000
# 4 0.000000 0.000000 0.000000 0.067495 0.000003 0.000001
# 5 0.000000 0.000000 0.000000 0.000003 -0.086543 -0.000001
# 6 0.000000 0.000000 0.000000 0.000001 -0.000001 -0.042435
#
#
# Mechanical properties :
#
#
# Convention : Reuss Voigt Hill
#
# Bulk Modulus (GPa) = 33.49412 42.91993 38.20703
# Shear Modulus (GPa) = -654.43302 14.52221 -319.95540
#
# Velocity S-wave (km/s) = -18.62243 2.77409 -13.02112
# Velocity P-wave (km/s) = 21.08659 5.74497 14.34642
#
# Compressibility (1/GPa) = 0.02985599
#
# Stress axis : x y z
#
# Youngs Moduli (GPa) = 107.58536 61.06699 89.26151
#
# Poissons Ratio (x) = 0.29190 0.29000
# Poissons Ratio (y) = 0.51426 -0.40348
# Poissons Ratio (z) = 0.34954 -0.27603
#
# Static dielectric constant tensor:
#      x y z
#    x 1.637680 0.000000 0.000000 
#    y 0.000000 1.611510 0.000000 
#    z 0.000000 0.000000 1.630360 
# 
# From -- ./inp_files/5626.got.cif
#   From: 2010.05.17/outbox.cif.g08.bks.cpg/sg42_3_cif.got.tgz:5626.got - 2010.06.03 19:03:34.
