data_PCOD9369083
_publ_section_title
;
Structure prediction by ZEFSAII (Michael W. Deem and Ramdas Pophale) SiO2 
 PCOD9369083
Probable space group: F M M 2
;
_chemical_formula_sum "Si O2"
_cell_formula_units_Z 80
_cell_length_a 8.357768
_cell_length_b 26.533325
_cell_length_c 18.802561
_cell_angle_alpha 90.000000
_cell_angle_beta 90.000000
_cell_angle_gamma 90.000000
_cell_volume 4169.644169
_symmetry_space_group_name_H-M "F M M 2"
_symmetry_group_IT_number 42
_symmetry_cell_setting 'orthorhombic'
loop_
_space_group_symop_operation_xyz
x,y,z
-x,-y,z
-x,y,z
x,-y,z
x,1/2+y,1/2+z
-x,1/2-y,1/2+z
-x,1/2+y,1/2+z
x,1/2-y,1/2+z
1/2+x,y,1/2+z
1/2-x,-y,1/2+z
1/2-x,y,1/2+z
1/2+x,-y,1/2+z
1/2+x,1/2+y,z
1/2-x,1/2-y,z
1/2-x,1/2+y,z
1/2+x,1/2-y,z
loop_
_atom_site_type_symbol
_atom_site_label
_atom_site_fract_x
_atom_site_fract_y
_atom_site_fract_z
Si Si1 0.195563 0.500000 0.434400
Si Si2 0.691426 0.000000 0.597744
Si Si3 0.307081 0.805027 0.434726
Si Si4 0.691779 0.694636 0.099108
Si Si5 0.308530 0.902570 0.183164
Si Si6 0.195686 0.401748 0.346468
O O1 0.249755 0.500000 0.516062
O O2 0.246237 0.450094 0.392205
O O3 0.000000 0.500000 0.435116
O O4 0.746902 0.950103 0.638606
O O5 0.500000 0.000000 0.595718
O O6 0.500000 0.805293 0.434754
O O7 0.250000 0.750000 0.411161
O O8 0.254632 0.812516 0.516788
O O9 0.251432 0.850449 0.384909
O O10 0.500000 0.693677 0.100212
O O11 0.750000 0.750000 0.122072
O O12 0.755705 0.649417 0.146821
O O13 0.500000 0.904708 0.183970
O O14 0.251462 0.905062 0.264874
O O15 0.000000 0.401569 0.346362
#
# Coordination Sequence:
#
# PCOD9369083 Si02
#       6
#     8   8  16  16  16  16
#     4   9  17  33  57  79 100 133 178 224 268 315
#     4  11  22  37  59  83 108 141 182 226 270 321
#     4   9  18  34  55  78 104 138 181 223 263 311
#     4  10  20  36  58  82 110 144 183 226 269 318
#     4  11  22  36  56  82 113 145 178 221 272 326
#     4   9  18  33  54  79 105 136 176 220 268 319
#
# _framework density 19.18629
#
# number of rings (size 3 to 8) (size 9 to 14) (size 15 to 20)
#    0.000    2.200    0.000    3.300    0.000    6.400 
#    0.000    4.000    0.000    9.600    0.000    0.000 
#    0.000    0.000    0.000    0.000    0.000    0.000 
#
# Total GULP energy -111702.239141 kJ/mol
# GULP energy per Si atom -5585.111957 kJ/mol
# Density = 1.914262 g / cm^3
# Si number density = 19.186290 Si / 1000 Ang^3
#
#
#
# Elastic Constant Matrix: (Units=GPa)
#
#
# Indices 1 2 3 4 5 6 
#
# 1 24.3488 24.6517 24.5284 0.0000 0.0000 0.0000
# 2 24.6517 216.9880 143.4843 0.0000 0.0000 0.0000
# 3 24.5284 143.4843 177.3955 0.0000 0.0000 0.0000
# 4 0.0000 0.0000 0.0000 -18.1688 0.0000 0.0000
# 5 0.0000 0.0000 0.0000 0.0000 20.0637 0.0000
# 6 0.0000 0.0000 0.0000 0.0000 0.0000 35.9599
#
#
#
# Elastic Compliance Matrix: (Units=1/GPa)
#
#
# Indices 1 2 3 4 5 6 
#
# 1 0.048244 -0.002300 -0.004810 0.000000 0.000000 0.000000
# 2 -0.002300 0.010017 -0.007784 0.000000 0.000000 0.000000
# 3 -0.004810 -0.007784 0.012598 0.000000 0.000000 0.000000
# 4 0.000000 0.000000 0.000000 -0.055039 0.000000 0.000000
# 5 0.000000 0.000000 0.000000 0.000000 0.049841 0.000000
# 6 0.000000 0.000000 0.000000 0.000000 0.000000 0.027809
#
#
# Mechanical properties :
#
#
# Convention : Reuss Voigt Hill
#
# Bulk Modulus (GPa) = 24.34828 89.34011 56.84419
# Shear Modulus (GPa) = 36.50955 22.64216 29.57585
#
# Velocity S-wave (km/s) = 4.36695 3.43902 3.93047
# Velocity P-wave (km/s) = 6.17617 7.90157 7.09154
#
# Compressibility (1/GPa) = 0.04107066
#
# Stress axis : x y z
#
# Youngs Moduli (GPa) = 20.72780 99.82744 79.37462
#
# Poissons Ratio (x) = 0.22962 0.38181
# Poissons Ratio (y) = 0.04768 0.61788
# Poissons Ratio (z) = 0.09971 0.77709
#
# Static dielectric constant tensor:
#      x y z
#    x 1.672500 0.000000 0.000000 
#    y 0.000000 1.625960 0.000000 
#    z 0.000000 0.000000 1.659940 
# 
# From -- ./inp_files/18236.got.cif
#   From: 2010.05.17/outbox.cif.g08.bks.cpg/sg42_10_cif.got.tgz:18236.got - 2010.06.03 19:03:34.
