data_PCOD9369206
_publ_section_title
;
Structure prediction by ZEFSAII (Michael W. Deem and Ramdas Pophale) SiO2 
 PCOD9369206
Probable space group: F M M 2
;
_chemical_formula_sum "Si O2"
_cell_formula_units_Z 64
_cell_length_a 17.808705
_cell_length_b 7.695796
_cell_length_c 25.015950
_cell_angle_alpha 90.000000
_cell_angle_beta 90.000000
_cell_angle_gamma 90.000000
_cell_volume 3428.490000
_symmetry_space_group_name_H-M "F M M 2"
_symmetry_group_IT_number 42
_symmetry_cell_setting 'orthorhombic'
loop_
_space_group_symop_operation_xyz
x,y,z
-x,-y,z
-x,y,z
x,-y,z
x,1/2+y,1/2+z
-x,1/2-y,1/2+z
-x,1/2+y,1/2+z
x,1/2-y,1/2+z
1/2+x,y,1/2+z
1/2-x,-y,1/2+z
1/2-x,y,1/2+z
1/2+x,-y,1/2+z
1/2+x,1/2+y,z
1/2-x,1/2-y,z
1/2-x,1/2+y,z
1/2+x,1/2-y,z
loop_
_atom_site_type_symbol
_atom_site_label
_atom_site_fract_x
_atom_site_fract_y
_atom_site_fract_z
Si Si1 0.839077 0.292323 0.278110
Si Si2 0.838548 0.793507 0.659058
Si Si3 0.910324 0.000000 0.474468
Si Si4 0.410108 0.000000 0.850863
Si Si5 0.661938 0.697108 0.043057
O O1 0.848934 0.500000 0.285845
O O2 0.750000 0.250000 0.280079
O O3 0.867475 0.245694 0.217946
O O4 0.879229 0.170296 0.320738
O O5 0.750000 0.750000 0.661173
O O6 0.867288 0.710236 0.604345
O O7 0.846749 0.000000 0.653032
O O8 0.879629 0.167634 0.505466
O O9 0.885651 0.000000 0.412725
O O10 0.000000 0.000000 0.475880
O O11 0.500000 0.000000 0.849024
O O12 0.655269 0.500000 0.024329
O O13 0.750000 0.750000 0.044484
#
# Coordination Sequence:
#
# PCOD9369206 Si02
#       5
#    16  16   8   8  16
#     4  10  20  37  64  96 120 154 201 248 293 352
#     4   9  16  29  57  92 126 150 187 244 300 352
#     4  11  26  46  59  82 125 163 199 248 303 358
#     4  11  26  44  61  82 123 167 197 244 307 358
#     4  11  20  37  65  95 119 156 200 248 296 352
#
# _framework density 18.667110000000001
#
# number of rings (size 3 to 8) (size 9 to 14) (size 15 to 20)
#    0.000    1.750    3.750    2.250    3.500    3.000 
#    0.000    3.750    0.000    0.000    0.000    0.000 
#    0.000    0.000    0.000    0.000    0.000    0.000 
#
# Total GULP energy -89276.395164 kJ/mol
# GULP energy per Si atom -5579.774698 kJ/mol
# Density = 1.862462 g / cm^3
# Si number density = 18.667110 Si / 1000 Ang^3
#
#
#
# Elastic Constant Matrix: (Units=GPa)
#
#
# Indices 1 2 3 4 5 6 
#
# 1 34.5011 30.2337 46.0790 0.0000 0.0000 0.0000
# 2 30.2337 160.1505 91.3059 0.0000 0.0000 0.0000
# 3 46.0790 91.3059 178.8542 0.0000 0.0000 0.0000
# 4 0.0000 0.0000 0.0000 17.7074 0.0000 0.0000
# 5 0.0000 0.0000 0.0000 0.0000 60.5877 0.0000
# 6 0.0000 0.0000 0.0000 0.0000 0.0000 18.3284
#
#
#
# Elastic Compliance Matrix: (Units=1/GPa)
#
#
# Indices 1 2 3 4 5 6 
#
# 1 0.044978 -0.002658 -0.010231 0.000000 0.000000 0.000000
# 2 -0.002658 0.008965 -0.003892 0.000000 0.000000 0.000000
# 3 -0.010231 -0.003892 0.010214 0.000000 0.000000 0.000000
# 4 0.000000 0.000000 0.000000 0.056473 0.000000 0.000000
# 5 0.000000 0.000000 0.000000 0.000000 0.016505 0.000000
# 6 0.000000 0.000000 0.000000 0.000000 0.000000 0.054560
#
#
# Mechanical properties :
#
#
# Convention : Reuss Voigt Hill
#
# Bulk Modulus (GPa) = 32.68511 78.74922 55.71717
# Shear Modulus (GPa) = 21.23547 33.05051 27.14299
#
# Velocity S-wave (km/s) = 3.37647 4.21232 3.81734
# Velocity P-wave (km/s) = 5.72261 8.12009 7.02439
#
# Compressibility (1/GPa) = 0.03059497
#
# Stress axis : x y z
#
# Youngs Moduli (GPa) = 22.23304 111.54869 97.90783
#
# Poissons Ratio (x) = 0.29652 1.00168
# Poissons Ratio (y) = 0.05910 0.38103
# Poissons Ratio (z) = 0.22746 0.43411
#
# Static dielectric constant tensor:
#      x y z
#    x 1.618530 0.000000 0.000000 
#    y 0.000000 1.634680 0.000000 
#    z 0.000000 0.000000 1.670180 
# 
# From -- ./inp_files/23174.got.cif
#   From: 2010.05.17/outbox.cif.g08.bks.cpg/sg42_12_cif.got.tgz:23174.got - 2010.06.03 19:03:34.
