data_PCOD9369673
_publ_section_title
;
Structure prediction by ZEFSAII (Michael W. Deem and Ramdas Pophale) SiO2 
 PCOD9369673
Probable space group: F M M 2
;
_chemical_formula_sum "Si O2"
_cell_formula_units_Z 116
_cell_length_a 17.484878
_cell_length_b 16.062741
_cell_length_c 19.842255
_cell_angle_alpha 90.000000
_cell_angle_beta 90.000000
_cell_angle_gamma 90.000000
_cell_volume 5572.797852
_symmetry_space_group_name_H-M "F M M 2"
_symmetry_group_IT_number 42
_symmetry_cell_setting 'orthorhombic'
loop_
_space_group_symop_operation_xyz
x,y,z
-x,-y,z
-x,y,z
x,-y,z
x,1/2+y,1/2+z
-x,1/2-y,1/2+z
-x,1/2+y,1/2+z
x,1/2-y,1/2+z
1/2+x,y,1/2+z
1/2-x,-y,1/2+z
1/2-x,y,1/2+z
1/2+x,-y,1/2+z
1/2+x,1/2+y,z
1/2-x,1/2-y,z
1/2-x,1/2+y,z
1/2+x,1/2-y,z
loop_
_atom_site_type_symbol
_atom_site_label
_atom_site_fract_x
_atom_site_fract_y
_atom_site_fract_z
Si Si1 0.850002 0.120501 0.409300
Si Si2 0.584037 0.901987 0.322915
Si Si3 0.089243 0.706345 0.444454
Si Si4 0.500000 0.000000 0.893816
Si Si5 0.667933 0.093245 0.654677
Si Si6 0.755232 0.849999 0.786328
Si Si7 0.410328 0.755496 0.596051
Si Si8 0.682989 0.907449 0.066710
O O1 0.865864 0.219158 0.409712
O O2 0.929932 0.071820 0.395968
O O3 0.784874 0.110377 0.352821
O O4 0.822920 0.099716 0.485476
O O5 0.500000 0.867918 0.303978
O O6 0.598637 0.875695 0.400535
O O7 0.655172 0.868899 0.282020
O O8 0.582048 0.000000 0.316833
O O9 0.108947 0.705196 0.522617
O O10 0.000000 0.728719 0.442299
O O11 0.712805 0.108471 0.723691
O O12 0.611950 0.171456 0.646842
O O13 0.731619 0.097630 0.595659
O O14 0.633532 0.000000 0.653641
O O15 0.750000 0.750000 0.785384
O O16 0.500000 0.736910 0.599228
O O17 0.363760 0.669415 0.598419
O O18 0.652721 0.000000 0.084738
#
# Coordination Sequence:
#
# PCOD9369673 Si02
#       8
#    16  16  16   4  16  16  16  16
#     4  11  23  38  67 102 133 178 216 276 342 403
#     4  10  22  40  65  93 127 166 216 276 327 388
#     4   9  18  37  61  94 129 166 215 269 324 391
#     4  12  24  40  64 104 152 168 220 290 340 404
#     4  11  26  46  64  92 134 178 226 285 334 408
#     4  12  25  44  69  97 134 181 228 277 342 412
#     4  10  22  40  66  94 131 172 219 274 338 405
#     4  10  22  40  69  96 129 174 226 282 340 395
#
# _framework density 20.815397999999998
#
# number of rings (size 3 to 8) (size 9 to 14) (size 15 to 20)
#    0.000    1.517    2.759    1.655    4.828    1.103 
#    1.241    3.448    0.000    0.828    0.000    0.000 
#    0.000    0.000    0.000    0.000    0.000    0.000 
#
# Total GULP energy -161603.050633 kJ/mol
# GULP energy per Si atom -5572.518987 kJ/mol
# Density = 2.076802 g / cm^3
# Si number density = 20.815398 Si / 1000 Ang^3
#
#
#
# Elastic Constant Matrix: (Units=GPa)
#
#
# Indices 1 2 3 4 5 6 
#
# 1 49.6205 27.1986 15.1860 0.0000 0.0000 0.0000
# 2 27.1986 107.1940 9.8566 0.0000 0.0000 0.0000
# 3 15.1860 9.8566 30.2251 0.0000 0.0000 0.0000
# 4 0.0000 0.0000 0.0000 10.7409 0.0000 0.0000
# 5 0.0000 0.0000 0.0000 0.0000 20.4886 0.0000
# 6 0.0000 0.0000 0.0000 0.0000 0.0000 24.7743
#
#
#
# Elastic Compliance Matrix: (Units=1/GPa)
#
#
# Indices 1 2 3 4 5 6 
#
# 1 0.026859 -0.005747 -0.011621 0.000000 0.000000 0.000000
# 2 -0.005747 0.010847 -0.000650 0.000000 0.000000 0.000000
# 3 -0.011621 -0.000650 0.039136 0.000000 0.000000 0.000000
# 4 0.000000 0.000000 0.000000 0.093102 0.000000 0.000000
# 5 0.000000 0.000000 0.000000 0.000000 0.048808 0.000000
# 6 0.000000 0.000000 0.000000 0.000000 0.000000 0.040364
#
#
# Mechanical properties :
#
#
# Convention : Reuss Voigt Hill
#
# Bulk Modulus (GPa) = 24.50566 32.39133 28.44850
# Shear Modulus (GPa) = 16.19419 20.18732 18.19076
#
# Velocity S-wave (km/s) = 2.79227 3.11758 2.95940
# Velocity P-wave (km/s) = 4.71107 5.34360 5.03727
#
# Compressibility (1/GPa) = 0.04080689
#
# Stress axis : x y z
#
# Youngs Moduli (GPa) = 37.23106 92.19374 25.55211
#
# Poissons Ratio (x) = 0.52979 0.29694
# Poissons Ratio (y) = 0.21395 0.01661
# Poissons Ratio (z) = 0.43266 0.05992
#
# Static dielectric constant tensor:
#      x y z
#    x 1.729670 0.000000 0.000000 
#    y 0.000000 1.763750 0.000000 
#    z 0.000000 0.000000 1.766850 
# 
# From -- ./inp_files/20958.got.cif
#   From: 2010.05.17/outbox.cif.g08.bks.cpg/sg42_11_cif.got.tgz:20958.got - 2010.06.03 19:03:34.
