data_PCOD9369838
_publ_section_title
;
Structure prediction by ZEFSAII (Michael W. Deem and Ramdas Pophale) SiO2 
 PCOD9369838
Probable space group: F M M 2
;
_chemical_formula_sum "Si O2"
_cell_formula_units_Z 116
_cell_length_a 31.124356
_cell_length_b 7.592595
_cell_length_c 25.921922
_cell_angle_alpha 90.000000
_cell_angle_beta 90.000000
_cell_angle_gamma 90.000000
_cell_volume 6125.729400
_symmetry_space_group_name_H-M "F M M 2"
_symmetry_group_IT_number 42
_symmetry_cell_setting 'orthorhombic'
loop_
_space_group_symop_operation_xyz
x,y,z
-x,-y,z
-x,y,z
x,-y,z
x,1/2+y,1/2+z
-x,1/2-y,1/2+z
-x,1/2+y,1/2+z
x,1/2-y,1/2+z
1/2+x,y,1/2+z
1/2-x,-y,1/2+z
1/2-x,y,1/2+z
1/2+x,-y,1/2+z
1/2+x,1/2+y,z
1/2-x,1/2-y,z
1/2-x,1/2+y,z
1/2+x,1/2-y,z
loop_
_atom_site_type_symbol
_atom_site_label
_atom_site_fract_x
_atom_site_fract_y
_atom_site_fract_z
Si Si1 0.200465 0.288380 0.147590
Si Si2 0.452419 0.713497 0.890955
Si Si3 0.845531 0.295465 0.047127
Si Si4 0.062117 0.202135 0.011261
Si Si5 0.000000 0.000000 0.548911
Si Si6 0.201632 0.709205 0.447789
Si Si7 0.860401 0.215995 0.855937
Si Si8 0.200386 0.211526 0.763916
O O1 0.195704 0.500000 0.148862
O O2 0.250000 0.250000 0.135116
O O3 0.170613 0.221012 0.101612
O O4 0.192543 0.221379 0.205700
O O5 0.500000 0.776216 0.874947
O O6 0.452828 0.500000 0.887491
O O7 0.409898 0.773941 0.860820
O O8 0.445976 0.754869 0.951509
O O9 0.856151 0.500000 0.054535
O O10 0.887571 0.206864 0.023819
O O11 0.808484 0.283775 0.004103
O O12 0.037039 0.343906 0.044963
O O13 0.047733 0.000000 0.017320
O O14 0.197074 0.500000 0.451348
O O15 0.250000 0.750000 0.430895
O O16 0.166714 0.772514 0.406167
O O17 0.833843 0.275185 0.805877
O O18 0.860521 0.000000 0.855914
O O19 0.250000 0.250000 0.778071
O O20 0.196726 0.000000 0.762504
#
# Coordination Sequence:
#
# PCOD9369838 Si02
#       8
#    16  16  16  16   4  16  16  16
#     4   9  19  33  51  74 100 137 181 230 270 318
#     4   9  16  29  50  75 101 135 175 219 266 325
#     4  11  21  34  50  75 106 142 183 225 273 328
#     4  11  21  35  55  80 112 147 183 226 278 331
#     4  12  22  36  56  82 112 148 186 232 272 330
#     4  11  21  32  46  70 105 143 179 216 268 335
#     4   9  17  29  48  73 101 134 171 219 272 326
#     4   9  17  32  52  72  98 135 175 222 271 320
#
# _framework density 18.936520000000002
#
# number of rings (size 3 to 8) (size 9 to 14) (size 15 to 20)
#    0.000    2.069    2.759    1.862    0.000    2.207 
#    0.000    0.690    1.517    0.000    1.793    0.000 
#    0.000    0.000    0.000    0.276    0.000    0.276 
#
# Total GULP energy -161580.048516 kJ/mol
# GULP energy per Si atom -5571.725811 kJ/mol
# Density = 1.889342 g / cm^3
# Si number density = 18.936520 Si / 1000 Ang^3
#
#
#
# Elastic Constant Matrix: (Units=GPa)
#
#
# Indices 1 2 3 4 5 6 
#
# 1 156.0016 2.8016 67.2634 -0.0001 0.0000 0.0007
# 2 2.8016 61.0566 4.1725 -0.0005 -0.0001 0.0007
# 3 67.2634 4.1725 87.7012 -0.0001 0.0000 0.0001
# 4 -0.0001 -0.0005 -0.0001 8.4185 0.0000 0.0003
# 5 0.0000 -0.0001 0.0000 0.0000 24.9459 0.0001
# 6 0.0007 0.0007 0.0001 0.0003 0.0001 10.5973
#
#
#
# Elastic Compliance Matrix: (Units=1/GPa)
#
#
# Indices 1 2 3 4 5 6 
#
# 1 0.009578 0.000063 -0.007349 0.000000 0.000000 -0.000001
# 2 0.000063 0.016432 -0.000830 0.000001 0.000000 -0.000001
# 3 -0.007349 -0.000830 0.017078 0.000000 0.000000 0.000000
# 4 0.000000 0.000001 0.000000 0.118786 0.000000 -0.000003
# 5 0.000000 0.000000 0.000000 0.000000 0.040087 0.000000
# 6 -0.000001 -0.000001 0.000000 -0.000003 0.000000 0.094364
#
#
# Mechanical properties :
#
#
# Convention : Reuss Voigt Hill
#
# Bulk Modulus (GPa) = 37.23557 50.35938 43.79747
# Shear Modulus (GPa) = 15.55173 24.16047 19.85610
#
# Velocity S-wave (km/s) = 2.86887 3.57580 3.24166
# Velocity P-wave (km/s) = 5.53894 6.61060 6.09836
#
# Compressibility (1/GPa) = 0.02685604
#
# Stress axis : x y z
#
# Youngs Moduli (GPa) = 104.41057 60.85657 58.55509
#
# Poissons Ratio (x) = -0.00382 0.43030
# Poissons Ratio (y) = -0.00655 0.04859
# Poissons Ratio (z) = 0.76727 0.05050
#
# Static dielectric constant tensor:
#      x y z
#    x 1.654840 0.000000 0.000000 
#    y 0.000000 1.702580 0.000000 
#    z 0.000000 0.000000 1.654020 
# 
# From -- ./inp_files/31959.got.cif
#   From: 2010.05.17/outbox.cif.g08.bks.cpg/sg42_16_cif.got.tgz:31959.got - 2010.06.03 19:03:34.
