data_PCOD9369081
_publ_section_title
;
Structure prediction by ZEFSAII (Michael W. Deem and Ramdas Pophale) SiO2 
 PCOD9369081
Probable space group: F M M 2
;
_chemical_formula_sum "Si O2"
_cell_formula_units_Z 96
_cell_length_a 8.448434
_cell_length_b 31.336412
_cell_length_c 19.519945
_cell_angle_alpha 90.000000
_cell_angle_beta 90.000000
_cell_angle_gamma 90.000000
_cell_volume 5167.780679
_symmetry_space_group_name_H-M "F M M 2"
_symmetry_group_IT_number 42
_symmetry_cell_setting 'orthorhombic'
loop_
_space_group_symop_operation_xyz
x,y,z
-x,-y,z
-x,y,z
x,-y,z
x,1/2+y,1/2+z
-x,1/2-y,1/2+z
-x,1/2+y,1/2+z
x,1/2-y,1/2+z
1/2+x,y,1/2+z
1/2-x,-y,1/2+z
1/2-x,y,1/2+z
1/2+x,-y,1/2+z
1/2+x,1/2+y,z
1/2-x,1/2-y,z
1/2-x,1/2+y,z
1/2+x,1/2-y,z
loop_
_atom_site_type_symbol
_atom_site_label
_atom_site_fract_x
_atom_site_fract_y
_atom_site_fract_z
Si Si1 0.691756 0.874092 0.640660
Si Si2 0.810132 0.873176 0.795438
Si Si3 0.810144 0.797494 0.042117
Si Si4 0.807158 0.951589 0.045512
Si Si5 0.188387 0.702362 0.890084
Si Si6 0.807145 0.548440 0.388545
O O1 0.500000 0.874478 0.642355
O O2 0.753789 0.873573 0.717491
O O3 0.741008 0.832369 0.597614
O O4 0.745920 0.915901 0.598729
O O5 0.748737 0.831878 0.835740
O O6 0.753290 0.915404 0.836206
O O7 0.000000 0.872847 0.797321
O O8 0.750000 0.750000 0.058206
O O9 0.749765 0.808996 0.966205
O O10 0.000000 0.796874 0.039773
O O11 0.000000 0.951232 0.045831
O O12 0.757283 0.000000 0.062198
O O13 0.759201 0.942009 0.967058
O O14 0.250000 0.750000 0.874740
O O15 0.000000 0.703151 0.891019
O O16 0.756791 0.500000 0.371755
O O17 0.000000 0.548499 0.387932
#
# Coordination Sequence:
#
# PCOD9369081 Si02
#       6
#    16  16  16  16  16  16
#     4  10  21  35  51  76 110 145 180 220 268 320
#     4  11  22  35  53  79 112 148 184 222 268 320
#     4  10  20  36  58  81 106 137 176 221 267 318
#     4   8  14  28  52  77 100 132 177 225 270 318
#     4  11  22  38  60  83 108 138 177 223 270 322
#     4   8  15  30  53  79 105 138 182 227 269 315
#
# _framework density 18.576640000000001
#
# number of rings (size 3 to 8) (size 9 to 14) (size 15 to 20)
#    0.000    2.333    0.000    5.500    0.000    5.333 
#    0.000    1.667    0.000    1.500    0.000    4.667 
#    0.000    0.000    0.000    0.000    0.000    0.000 
#
# Total GULP energy -133982.336561 kJ/mol
# GULP energy per Si atom -5582.597357 kJ/mol
# Density = 1.853436 g / cm^3
# Si number density = 18.576640 Si / 1000 Ang^3
#
#
#
# Elastic Constant Matrix: (Units=GPa)
#
#
# Indices 1 2 3 4 5 6 
#
# 1 40.0318 35.9098 36.7640 0.0000 0.0000 0.0000
# 2 35.9098 157.6694 148.6374 0.0000 0.0000 0.0000
# 3 36.7640 148.6374 184.7435 0.0000 0.0000 0.0000
# 4 0.0000 0.0000 0.0000 5.7943 0.0000 0.0000
# 5 0.0000 0.0000 0.0000 0.0000 29.0266 0.0000
# 6 0.0000 0.0000 0.0000 0.0000 0.0000 10.3500
#
#
#
# Elastic Compliance Matrix: (Units=1/GPa)
#
#
# Indices 1 2 3 4 5 6 
#
# 1 0.031582 -0.005250 -0.002061 0.000000 0.000000 0.000000
# 2 -0.005250 0.027132 -0.020785 0.000000 0.000000 0.000000
# 3 -0.002061 -0.020785 0.022546 0.000000 0.000000 0.000000
# 4 0.000000 0.000000 0.000000 0.172584 0.000000 0.000000
# 5 0.000000 0.000000 0.000000 0.000000 0.034451 0.000000
# 6 0.000000 0.000000 0.000000 0.000000 0.000000 0.096618
#
#
# Mechanical properties :
#
#
# Convention : Reuss Voigt Hill
#
# Bulk Modulus (GPa) = 39.89050 91.67412 65.78231
# Shear Modulus (GPa) = 11.12444 19.77641 15.45042
#
# Velocity S-wave (km/s) = 2.44978 3.26634 2.88707
# Velocity P-wave (km/s) = 5.43341 7.98007 6.82655
#
# Compressibility (1/GPa) = 0.02506863
#
# Stress axis : x y z
#
# Youngs Moduli (GPa) = 31.66327 36.85643 44.35462
#
# Poissons Ratio (x) = 0.19351 0.09140
# Poissons Ratio (y) = 0.16625 0.92190
# Poissons Ratio (z) = 0.06525 0.76605
#
# Static dielectric constant tensor:
#      x y z
#    x 1.638570 0.000000 0.000000 
#    y 0.000000 1.642360 0.000000 
#    z 0.000000 0.000000 1.605540 
# 
# From -- ./inp_files/23714.got.cif
#   From: 2010.05.17/outbox.cif.g08.bks.cpg/sg42_12_cif.got.tgz:23714.got - 2010.06.03 19:03:34.
