data_PCOD9369019
_publ_section_title
;
Structure prediction by ZEFSAII (Michael W. Deem and Ramdas Pophale) SiO2 
 PCOD9369019
Probable space group: F M M 2
;
_chemical_formula_sum "Si O2"
_cell_formula_units_Z 112
_cell_length_a 11.814449
_cell_length_b 18.798658
_cell_length_c 23.449773
_cell_angle_alpha 90.000000
_cell_angle_beta 90.000000
_cell_angle_gamma 90.000000
_cell_volume 5208.095771
_symmetry_space_group_name_H-M "F M M 2"
_symmetry_group_IT_number 42
_symmetry_cell_setting 'orthorhombic'
loop_
_space_group_symop_operation_xyz
x,y,z
-x,-y,z
-x,y,z
x,-y,z
x,1/2+y,1/2+z
-x,1/2-y,1/2+z
-x,1/2+y,1/2+z
x,1/2-y,1/2+z
1/2+x,y,1/2+z
1/2-x,-y,1/2+z
1/2-x,y,1/2+z
1/2+x,-y,1/2+z
1/2+x,1/2+y,z
1/2-x,1/2-y,z
1/2-x,1/2+y,z
1/2+x,1/2-y,z
loop_
_atom_site_type_symbol
_atom_site_label
_atom_site_fract_x
_atom_site_fract_y
_atom_site_fract_z
Si Si1 0.377544 0.867197 0.708270
Si Si2 0.688540 0.078239 0.283424
Si Si3 0.372008 0.583609 0.520313
Si Si4 0.124812 0.763315 0.794532
Si Si5 0.304613 0.176635 0.587597
Si Si6 0.623932 0.714641 0.963770
Si Si7 0.780514 0.079929 0.912692
O O1 0.500000 0.896911 0.722927
O O2 0.279864 0.915326 0.733840
O O3 0.368868 0.790508 0.740640
O O4 0.366416 0.857176 0.640975
O O5 0.622702 0.152940 0.279726
O O6 0.747137 0.082203 0.345981
O O7 0.632637 0.000000 0.281116
O O8 0.500000 0.608845 0.523887
O O9 0.368288 0.500000 0.533276
O O10 0.293227 0.625810 0.563421
O O11 0.322862 0.591704 0.456307
O O12 0.250000 0.750000 0.823454
O O13 0.000000 0.747412 0.821416
O O14 0.250000 0.250000 0.608444
O O15 0.374702 0.195372 0.530919
O O16 0.500000 0.748660 0.952011
O O17 0.750000 0.750000 0.955373
O O18 0.632317 0.642158 0.927397
O O19 0.824687 0.000000 0.924703
#
# Coordination Sequence:
#
# PCOD9369019 Si02
#       7
#    16  16  16  16  16  16  16
#     4  10  21  38  59  82 115 159 201 242 294 357
#     4  10  21  37  57  85 118 152 196 247 296 348
#     4   9  19  37  60  86 117 154 196 245 301 356
#     4   9  19  37  59  83 113 153 197 240 291 348
#     4  10  20  35  58  85 117 153 195 243 296 354
#     4  10  22  38  60  91 123 155 196 247 300 354
#     4   9  20  38  59  83 115 156 198 241 292 353
#
# _framework density 21.50498
#
# number of rings (size 3 to 8) (size 9 to 14) (size 15 to 20)
#    0.000    2.429    0.000    1.714    0.000   10.000 
#    0.000    7.143    0.000    2.571    0.000    0.000 
#    0.000    0.000    0.000    0.000    0.000    0.000 
#
# Total GULP energy -155973.810053 kJ/mol
# GULP energy per Si atom -5570.493216 kJ/mol
# Density = 2.145603 g / cm^3
# Si number density = 21.504980 Si / 1000 Ang^3
#
#
#
# Elastic Constant Matrix: (Units=GPa)
#
#
# Indices 1 2 3 4 5 6 
#
# 1 162.3474 32.1921 21.7667 0.0000 0.0000 0.0000
# 2 32.1921 106.7856 7.4834 0.0000 0.0000 0.0000
# 3 21.7667 7.4834 93.1303 0.0000 0.0000 0.0000
# 4 0.0000 0.0000 0.0000 15.6368 0.0000 0.0000
# 5 0.0000 0.0000 0.0000 0.0000 -39.4086 0.0000
# 6 0.0000 0.0000 0.0000 0.0000 0.0000 3.7863
#
#
#
# Elastic Compliance Matrix: (Units=1/GPa)
#
#
# Indices 1 2 3 4 5 6 
#
# 1 0.006733 -0.001930 -0.001418 0.000000 0.000000 0.000000
# 2 -0.001930 0.009971 -0.000350 0.000000 0.000000 0.000000
# 3 -0.001418 -0.000350 0.011097 0.000000 0.000000 0.000000
# 4 0.000000 0.000000 0.000000 0.063951 0.000000 0.000000
# 5 0.000000 0.000000 0.000000 0.000000 -0.025375 0.000000
# 6 0.000000 0.000000 0.000000 0.000000 0.000000 0.264112
#
#
# Mechanical properties :
#
#
# Convention : Reuss Voigt Hill
#
# Bulk Modulus (GPa) = 49.01158 53.90530 51.45844
# Shear Modulus (GPa) = 14.50586 16.05764 15.28175
#
# Velocity S-wave (km/s) = 2.60000 2.73554 2.66863
# Velocity P-wave (km/s) = 5.64390 5.92439 5.78584
#
# Compressibility (1/GPa) = 0.02040334
#
# Stress axis : x y z
#
# Youngs Moduli (GPa) = 148.53201 100.29095 90.11198
#
# Poissons Ratio (x) = 0.19358 0.12782
# Poissons Ratio (y) = 0.28670 0.03155
# Poissons Ratio (z) = 0.21069 0.03511
#
# Static dielectric constant tensor:
#      x y z
#    x 1.818350 0.000000 0.000000 
#    y 0.000000 1.816380 0.000000 
#    z 0.000000 0.000000 1.746050 
# 
# From -- ./inp_files/28933.got.cif
#   From: 2010.05.17/outbox.cif.g08.bks.cpg/sg42_15_cif.got.tgz:28933.got - 2010.06.03 19:03:34.
