data_PCOD9369775
_publ_section_title
;
Structure prediction by ZEFSAII (Michael W. Deem and Ramdas Pophale) SiO2 
 PCOD9369775
Probable space group: F M M 2
;
_chemical_formula_sum "Si O2"
_cell_formula_units_Z 88
_cell_length_a 20.535884
_cell_length_b 16.179041
_cell_length_c 11.875057
_cell_angle_alpha 90.000000
_cell_angle_beta 90.000000
_cell_angle_gamma 90.000000
_cell_volume 3945.498485
_symmetry_space_group_name_H-M "F M M 2"
_symmetry_group_IT_number 42
_symmetry_cell_setting 'orthorhombic'
loop_
_space_group_symop_operation_xyz
x,y,z
-x,-y,z
-x,y,z
x,-y,z
x,1/2+y,1/2+z
-x,1/2-y,1/2+z
-x,1/2+y,1/2+z
x,1/2-y,1/2+z
1/2+x,y,1/2+z
1/2-x,-y,1/2+z
1/2-x,y,1/2+z
1/2+x,-y,1/2+z
1/2+x,1/2+y,z
1/2-x,1/2-y,z
1/2-x,1/2+y,z
1/2+x,1/2-y,z
loop_
_atom_site_type_symbol
_atom_site_label
_atom_site_fract_x
_atom_site_fract_y
_atom_site_fract_z
Si Si1 0.425512 0.405429 0.556970
Si Si2 0.765886 0.593463 0.455527
Si Si3 0.361257 0.673510 0.357647
Si Si4 0.876609 0.363491 0.295626
Si Si5 0.500000 0.869678 0.460201
Si Si6 0.379365 0.598580 0.117238
O O1 0.500000 0.399573 0.593718
O O2 0.413123 0.500000 0.520350
O O3 0.414457 0.344623 0.453022
O O4 0.382893 0.383554 0.664832
O O5 0.743560 0.500000 0.481275
O O6 0.705916 0.649329 0.418655
O O7 0.815955 0.591071 0.351638
O O8 0.811780 0.624839 0.557141
O O9 0.364150 0.766660 0.315787
O O10 0.374227 0.617594 0.248594
O O11 0.942230 0.384465 0.364341
O O12 0.558189 0.861296 0.557262
O O13 0.386553 0.500000 0.097911
#
# Coordination Sequence:
#
# PCOD9369775 Si02
#       6
#    16  16  16  16   8  16
#     4  11  26  45  70 102 142 190 238 287 349 416
#     4  10  23  46  70  98 135 182 234 283 342 416
#     4  12  27  43  70 102 147 178 232 292 355 409
#     4  11  25  44  72 101 137 183 233 286 348 416
#     4  10  23  44  68  98 139 176 234 284 343 418
#     4  10  23  42  72 102 135 183 231 285 347 415
#
# _framework density 22.303898
#
# number of rings (size 3 to 8) (size 9 to 14) (size 15 to 20)
#    0.000    1.273    0.909    3.000   10.182    2.182 
#    0.000    0.000    0.000    0.000    0.000    0.000 
#    0.000    0.000    0.000    0.000    0.000    0.000 
#
# Total GULP energy -122582.465943 kJ/mol
# GULP energy per Si atom -5571.930270 kJ/mol
# Density = 2.225313 g / cm^3
# Si number density = 22.303898 Si / 1000 Ang^3
#
#
#
# Elastic Constant Matrix: (Units=GPa)
#
#
# Indices 1 2 3 4 5 6 
#
# 1 87.6276 0.3013 -1.3781 0.0000 0.0000 0.0000
# 2 0.3013 61.4732 -14.0854 0.0000 0.0000 0.0000
# 3 -1.3781 -14.0854 112.4179 0.0000 0.0000 0.0000
# 4 0.0000 0.0000 0.0000 39.0463 0.0000 0.0000
# 5 0.0000 0.0000 0.0000 0.0000 15.9530 0.0000
# 6 0.0000 0.0000 0.0000 0.0000 0.0000 4.7915
#
#
#
# Elastic Compliance Matrix: (Units=1/GPa)
#
#
# Indices 1 2 3 4 5 6 
#
# 1 0.011414 -0.000025 0.000137 0.000000 0.000000 0.000000
# 2 -0.000025 0.016748 0.002098 0.000000 0.000000 0.000000
# 3 0.000137 0.002098 0.009160 0.000000 0.000000 0.000000
# 4 0.000000 0.000000 0.000000 0.025611 0.000000 0.000000
# 5 0.000000 0.000000 0.000000 0.000000 0.062684 0.000000
# 6 0.000000 0.000000 0.000000 0.000000 0.000000 0.208702
#
#
# Mechanical properties :
#
#
# Convention : Reuss Voigt Hill
#
# Bulk Modulus (GPa) = 23.95609 25.68826 24.82218
# Shear Modulus (GPa) = 14.54280 30.40356 22.47318
#
# Velocity S-wave (km/s) = 2.55626 3.69609 3.17770
# Velocity P-wave (km/s) = 4.41324 5.45501 4.96155
#
# Compressibility (1/GPa) = 0.04174304
#
# Stress axis : x y z
#
# Youngs Moduli (GPa) = 87.61043 59.70816 109.17092
#
# Poissons Ratio (x) = 0.00147 -0.01494
# Poissons Ratio (y) = 0.00216 -0.22906
# Poissons Ratio (z) = -0.01199 -0.12528
#
# Static dielectric constant tensor:
#      x y z
#    x 1.801670 0.000000 0.000000 
#    y 0.000000 1.843120 0.000000 
#    z 0.000000 0.000000 1.788260 
# 
# From -- ./inp_files/8668.got.cif
#   From: 2010.05.17/outbox.cif.g08.bks.cpg/sg42_5_cif.got.tgz:8668.got - 2010.06.03 19:03:34.
