data_PCOD9369095
_publ_section_title
;
Structure prediction by ZEFSAII (Michael W. Deem and Ramdas Pophale) SiO2 
 PCOD9369095
Probable space group: F M M 2
;
_chemical_formula_sum "Si O2"
_cell_formula_units_Z 104
_cell_length_a 9.357965
_cell_length_b 19.408541
_cell_length_c 28.224463
_cell_angle_alpha 90.000000
_cell_angle_beta 90.000000
_cell_angle_gamma 90.000000
_cell_volume 5126.252495
_symmetry_space_group_name_H-M "F M M 2"
_symmetry_group_IT_number 42
_symmetry_cell_setting 'orthorhombic'
loop_
_space_group_symop_operation_xyz
x,y,z
-x,-y,z
-x,y,z
x,-y,z
x,1/2+y,1/2+z
-x,1/2-y,1/2+z
-x,1/2+y,1/2+z
x,1/2-y,1/2+z
1/2+x,y,1/2+z
1/2-x,-y,1/2+z
1/2-x,y,1/2+z
1/2+x,-y,1/2+z
1/2+x,1/2+y,z
1/2-x,1/2-y,z
1/2-x,1/2+y,z
1/2+x,1/2-y,z
loop_
_atom_site_type_symbol
_atom_site_label
_atom_site_fract_x
_atom_site_fract_y
_atom_site_fract_z
Si Si1 0.154298 0.645209 0.913430
Si Si2 0.333153 0.653143 0.079109
Si Si3 0.750000 0.750000 0.993298
Si Si4 0.834994 0.081640 0.238105
Si Si5 0.668073 0.000000 0.552877
Si Si6 0.832372 0.918396 0.835887
Si Si7 0.349156 0.000000 0.965928
Si Si8 0.829601 0.683586 0.172726
O O1 0.170687 0.699588 0.956079
O O2 0.280020 0.636038 0.875421
O O3 0.150552 0.569307 0.936214
O O4 0.000000 0.657621 0.889866
O O5 0.500000 0.655620 0.095118
O O6 0.285468 0.573844 0.072219
O O7 0.224840 0.679912 0.118642
O O8 0.324511 0.696833 0.030271
O O9 0.764823 0.091953 0.289643
O O10 0.735979 0.118815 0.199975
O O11 0.000000 0.105697 0.236125
O O12 0.835612 0.000000 0.228986
O O13 0.500000 0.000000 0.558630
O O14 0.712721 0.000000 0.498593
O O15 0.000000 0.909387 0.825494
O O16 0.814178 0.000000 0.850201
O O17 0.500000 0.000000 0.994453
O O18 0.750000 0.750000 0.194232
O O19 0.000000 0.687972 0.175593
#
# Coordination Sequence:
#
# PCOD9369095 Si02
#       8
#    16  16   8  16   8  16   8  16
#     4  11  23  39  61  91 125 168 215 264 320 386
#     4  11  24  42  64  92 126 169 218 268 328 389
#     4  12  24  40  66  90 130 168 220 272 328 392
#     4  10  22  43  72 102 134 171 215 271 331 390
#     4  10  22  40  62  87 120 163 212 270 321 381
#     4  10  21  39  66  98 131 169 216 270 327 386
#     4  10  20  36  58  85 118 159 212 262 313 379
#     4  12  26  44  68  97 133 174 217 267 326 393
#
# _framework density 20.287724999999998
#
# number of rings (size 3 to 8) (size 9 to 14) (size 15 to 20)
#    0.000    1.231    3.077    2.769    1.077    4.615 
#    1.385    0.000    0.000    0.000    0.000    0.000 
#    0.000    0.000    0.000    0.000    0.000    0.000 
#
# Total GULP energy -144971.730051 kJ/mol
# GULP energy per Si atom -5575.835771 kJ/mol
# Density = 2.024155 g / cm^3
# Si number density = 20.287725 Si / 1000 Ang^3
#
#
#
# Elastic Constant Matrix: (Units=GPa)
#
#
# Indices 1 2 3 4 5 6 
#
# 1 135.4462 47.3223 50.0784 0.0000 0.0000 0.0000
# 2 47.3223 93.6239 33.4241 0.0000 0.0000 0.0000
# 3 50.0784 33.4241 69.6200 0.0000 0.0000 0.0000
# 4 0.0000 0.0000 0.0000 2.8097 0.0000 0.0000
# 5 0.0000 0.0000 0.0000 0.0000 2.7396 0.0000
# 6 0.0000 0.0000 0.0000 0.0000 0.0000 -7.5797
#
#
#
# Elastic Compliance Matrix: (Units=1/GPa)
#
#
# Indices 1 2 3 4 5 6 
#
# 1 0.010818 -0.003246 -0.006223 0.000000 0.000000 0.000000
# 2 -0.003246 0.013865 -0.004321 0.000000 0.000000 0.000000
# 3 -0.006223 -0.004321 0.020915 0.000000 0.000000 0.000000
# 4 0.000000 0.000000 0.000000 0.355912 0.000000 0.000000
# 5 0.000000 0.000000 0.000000 0.000000 0.365023 0.000000
# 6 0.000000 0.000000 0.000000 0.000000 0.000000 -0.131931
#
#
# Mechanical properties :
#
#
# Convention : Reuss Voigt Hill
#
# Bulk Modulus (GPa) = 55.50578 62.25997 58.88288
# Shear Modulus (GPa) = 7.48293 10.78492 9.13392
#
# Velocity S-wave (km/s) = 1.92261 2.30814 2.12414
# Velocity P-wave (km/s) = 5.68746 6.15292 5.92477
#
# Compressibility (1/GPa) = 0.01801614
#
# Stress axis : x y z
#
# Youngs Moduli (GPa) = 92.43815 72.12624 47.81366
#
# Poissons Ratio (x) = 0.23415 0.29754
# Poissons Ratio (y) = 0.30009 0.20661
# Poissons Ratio (z) = 0.57524 0.31167
#
# Static dielectric constant tensor:
#      x y z
#    x 1.771580 0.000000 0.000000 
#    y 0.000000 1.915330 0.000000 
#    z 0.000000 0.000000 1.710640 
# 
# From -- ./inp_files/31592.got.cif
#   From: 2010.05.17/outbox.cif.g08.bks.cpg/sg42_16_cif.got.tgz:31592.got - 2010.06.03 19:03:34.
