data_PCOD9369756
_publ_section_title
;
Structure prediction by ZEFSAII (Michael W. Deem and Ramdas Pophale) SiO2 
 PCOD9369756
Probable space group: F M M 2
;
_chemical_formula_sum "Si O2"
_cell_formula_units_Z 88
_cell_length_a 20.819776
_cell_length_b 13.593547
_cell_length_c 15.091997
_cell_angle_alpha 90.000000
_cell_angle_beta 90.000000
_cell_angle_gamma 90.000000
_cell_volume 4271.255548
_symmetry_space_group_name_H-M "F M M 2"
_symmetry_group_IT_number 42
_symmetry_cell_setting 'orthorhombic'
loop_
_space_group_symop_operation_xyz
x,y,z
-x,-y,z
-x,y,z
x,-y,z
x,1/2+y,1/2+z
-x,1/2-y,1/2+z
-x,1/2+y,1/2+z
x,1/2-y,1/2+z
1/2+x,y,1/2+z
1/2-x,-y,1/2+z
1/2-x,y,1/2+z
1/2+x,-y,1/2+z
1/2+x,1/2+y,z
1/2-x,1/2-y,z
1/2-x,1/2+y,z
1/2+x,1/2-y,z
loop_
_atom_site_type_symbol
_atom_site_label
_atom_site_fract_x
_atom_site_fract_y
_atom_site_fract_z
Si Si1 0.183892 0.704148 0.746330
Si Si2 0.345354 0.500000 0.704646
Si Si3 0.927870 0.164372 0.777601
Si Si4 0.573374 0.389542 0.978511
Si Si5 0.323323 0.270115 0.539807
Si Si6 0.815514 0.500000 0.016188
Si Si7 0.274190 0.500000 0.316984
O O1 0.250000 0.750000 0.782980
O O2 0.118922 0.743940 0.788616
O O3 0.180573 0.739217 0.644066
O O4 0.192270 0.592038 0.770666
O O5 0.392362 0.592445 0.709194
O O6 0.297060 0.500000 0.620964
O O7 0.300215 0.500000 0.789669
O O8 0.930110 0.111122 0.871989
O O9 0.000000 0.188782 0.749909
O O10 0.500000 0.368803 0.010079
O O11 0.591619 0.500000 0.008663
O O12 0.624318 0.306388 0.003603
O O13 0.250000 0.250000 0.506319
O O14 0.341578 0.384588 0.517610
O O15 0.778413 0.500000 0.923344
#
# Coordination Sequence:
#
# PCOD9369756 Si02
#       7
#    16   8  16  16  16   8   8
#     4  11  23  44  67  99 138 180 227 289 344 420
#     4  12  21  44  68 100 137 169 230 294 337 406
#     4  11  22  40  67  97 131 177 229 285 343 406
#     4  10  23  41  64  99 136 176 232 287 343 413
#     4  11  25  40  68  99 139 180 233 283 345 417
#     4  12  26  45  65 108 140 184 230 283 357 424
#     4  12  26  41  72 102 141 183 224 285 367 412
#
# _framework density 20.602841000000002
#
# number of rings (size 3 to 8) (size 9 to 14) (size 15 to 20)
#    0.000    0.909    4.545    2.455    5.091    2.182 
#    0.000    0.909    0.000    4.364    0.000    0.000 
#    0.000    0.000    0.000    0.000    0.000    0.000 
#
# Total GULP energy -122501.064159 kJ/mol
# GULP energy per Si atom -5568.230189 kJ/mol
# Density = 2.055595 g / cm^3
# Si number density = 20.602841 Si / 1000 Ang^3
#
#
#
# Elastic Constant Matrix: (Units=GPa)
#
#
# Indices 1 2 3 4 5 6 
#
# 1 156.3895 91.5687 43.1883 0.0000 0.0000 0.0000
# 2 91.5687 192.4357 25.5279 0.0000 0.0000 0.0000
# 3 43.1883 25.5279 69.9474 0.0000 0.0000 0.0000
# 4 0.0000 0.0000 0.0000 21.6347 0.0000 0.0000
# 5 0.0000 0.0000 0.0000 0.0000 17.5937 0.0000
# 6 0.0000 0.0000 0.0000 0.0000 0.0000 24.0671
#
#
#
# Elastic Compliance Matrix: (Units=1/GPa)
#
#
# Indices 1 2 3 4 5 6 
#
# 1 0.010169 -0.004210 -0.004742 0.000000 0.000000 0.000000
# 2 -0.004210 0.007204 -0.000030 0.000000 0.000000 0.000000
# 3 -0.004742 -0.000030 0.017235 0.000000 0.000000 0.000000
# 4 0.000000 0.000000 0.000000 0.046222 0.000000 0.000000
# 5 0.000000 0.000000 0.000000 0.000000 0.056839 0.000000
# 6 0.000000 0.000000 0.000000 0.000000 0.000000 0.041550
#
#
# Mechanical properties :
#
#
# Convention : Reuss Voigt Hill
#
# Bulk Modulus (GPa) = 60.08047 82.14915 71.11481
# Shear Modulus (GPa) = 24.66334 29.89163 27.27748
#
# Velocity S-wave (km/s) = 3.46364 3.81313 3.64258
# Velocity P-wave (km/s) = 6.72461 7.70363 7.23071
#
# Compressibility (1/GPa) = 0.01664434
#
# Stress axis : x y z
#
# Youngs Moduli (GPa) = 98.34130 138.81974 58.02023
#
# Poissons Ratio (x) = 0.58437 0.27514
# Poissons Ratio (y) = 0.41398 0.00173
# Poissons Ratio (z) = 0.46635 0.00414
#
# Static dielectric constant tensor:
#      x y z
#    x 1.738980 0.000000 0.000000 
#    y 0.000000 1.791260 0.000000 
#    z 0.000000 0.000000 1.784190 
# 
# From -- ./inp_files/21553.got.cif
#   From: 2010.05.17/outbox.cif.g08.bks.cpg/sg42_11_cif.got.tgz:21553.got - 2010.06.03 19:03:34.
