data_PCOD9369593
_publ_section_title
;
Structure prediction by ZEFSAII (Michael W. Deem and Ramdas Pophale) SiO2 
 PCOD9369593
Probable space group: F M M 2
;
_chemical_formula_sum "Si O2"
_cell_formula_units_Z 64
_cell_length_a 17.414419
_cell_length_b 13.491524
_cell_length_c 13.750362
_cell_angle_alpha 90.000000
_cell_angle_beta 90.000000
_cell_angle_gamma 90.000000
_cell_volume 3230.607014
_symmetry_space_group_name_H-M "F M M 2"
_symmetry_group_IT_number 42
_symmetry_cell_setting 'orthorhombic'
loop_
_space_group_symop_operation_xyz
x,y,z
-x,-y,z
-x,y,z
x,-y,z
x,1/2+y,1/2+z
-x,1/2-y,1/2+z
-x,1/2+y,1/2+z
x,1/2-y,1/2+z
1/2+x,y,1/2+z
1/2-x,-y,1/2+z
1/2-x,y,1/2+z
1/2+x,-y,1/2+z
1/2+x,1/2+y,z
1/2-x,1/2-y,z
1/2-x,1/2+y,z
1/2+x,1/2-y,z
loop_
_atom_site_type_symbol
_atom_site_label
_atom_site_fract_x
_atom_site_fract_y
_atom_site_fract_z
Si Si1 0.193978 0.500000 0.731230
Si Si2 0.359591 0.000000 0.252400
Si Si3 0.678833 0.329993 0.070599
Si Si4 0.909799 0.500000 0.459147
Si Si5 0.089665 0.856792 0.588510
Si Si6 0.407896 0.500000 0.418107
O O1 0.273155 0.500000 0.789546
O O2 0.194107 0.403690 0.661069
O O3 0.371909 0.500000 0.311805
O O4 0.371701 0.091407 0.180105
O O5 0.414421 0.000000 0.343260
O O6 0.750000 0.250000 0.052708
O O7 0.642655 0.405206 0.990805
O O8 0.608736 0.257104 0.092064
O O9 0.000000 0.500000 0.496752
O O10 0.000000 0.877615 0.595337
O O11 0.115828 0.907030 0.486745
O O12 0.500000 0.500000 0.408856
#
# Coordination Sequence:
#
# PCOD9369593 Si02
#       6
#     8   8  16   8  16   8
#     4  11  24  40  65  96 127 168 212 265 326 382
#     4  11  22  40  66  95 130 165 215 263 318 384
#     4  11  24  43  64  95 130 169 215 266 326 385
#     4  11  26  44  66  98 133 173 217 270 330 381
#     4  10  21  42  68  91 126 170 214 262 319 384
#     4   9  22  40  65  97 128 168 216 264 322 385
#
# _framework density 19.810518999999999
#
# number of rings (size 3 to 8) (size 9 to 14) (size 15 to 20)
#    0.000    1.500    2.500    2.625    3.500    5.000 
#    0.000    2.500    0.000    0.000    0.000    0.000 
#    0.000    0.000    0.000    0.000    0.000    0.000 
#
# Total GULP energy -89093.660896 kJ/mol
# GULP energy per Si atom -5568.353806 kJ/mol
# Density = 1.976543 g / cm^3
# Si number density = 19.810519 Si / 1000 Ang^3
#
#
#
# Elastic Constant Matrix: (Units=GPa)
#
#
# Indices 1 2 3 4 5 6 
#
# 1 98.7697 33.1745 49.0539 0.0000 0.0000 0.0000
# 2 33.1745 144.5948 46.0532 0.0000 0.0000 0.0000
# 3 49.0539 46.0532 103.6231 0.0000 0.0000 0.0000
# 4 0.0000 0.0000 0.0000 -3.5093 0.0000 0.0000
# 5 0.0000 0.0000 0.0000 0.0000 32.4697 0.0000
# 6 0.0000 0.0000 0.0000 0.0000 0.0000 38.2608
#
#
#
# Elastic Compliance Matrix: (Units=1/GPa)
#
#
# Indices 1 2 3 4 5 6 
#
# 1 0.013422 -0.001230 -0.005807 0.000000 0.000000 0.000000
# 2 -0.001230 0.008169 -0.003048 0.000000 0.000000 0.000000
# 3 -0.005807 -0.003048 0.013754 0.000000 0.000000 0.000000
# 4 0.000000 0.000000 0.000000 -0.284953 0.000000 0.000000
# 5 0.000000 0.000000 0.000000 0.000000 0.030798 0.000000
# 6 0.000000 0.000000 0.000000 0.000000 0.000000 0.026136
#
#
# Mechanical properties :
#
#
# Convention : Reuss Voigt Hill
#
# Bulk Modulus (GPa) = 65.90098 67.06119 66.48108
# Shear Modulus (GPa) = -29.86044 28.02462 -0.91791
#
# Velocity S-wave (km/s) = -3.88661 3.76524 -0.68143
# Velocity P-wave (km/s) = 3.63275 7.26825 5.74562
#
# Compressibility (1/GPa) = 0.01517428
#
# Stress axis : x y z
#
# Youngs Moduli (GPa) = 74.50604 122.41515 72.70535
#
# Poissons Ratio (x) = 0.15055 0.42221
# Poissons Ratio (y) = 0.09163 0.22163
# Poissons Ratio (z) = 0.43267 0.37316
#
# Static dielectric constant tensor:
#      x y z
#    x 1.743090 0.000000 0.000000 
#    y 0.000000 1.679280 0.000000 
#    z 0.000000 0.000000 1.652160 
# 
# From -- ./inp_files/14781.got.cif
#   From: 2010.05.17/outbox.cif.g08.bks.cpg/sg42_8_cif.got.tgz:14781.got - 2010.06.03 19:03:34.
