data_PCOD9369663
_publ_section_title
;
Structure prediction by ZEFSAII (Michael W. Deem and Ramdas Pophale) SiO2 
 PCOD9369663
Probable space group: F M M 2
;
_chemical_formula_sum "Si O2"
_cell_formula_units_Z 80
_cell_length_a 25.511802
_cell_length_b 17.685815
_cell_length_c 7.655030
_cell_angle_alpha 90.000000
_cell_angle_beta 90.000000
_cell_angle_gamma 90.000000
_cell_volume 3453.926651
_symmetry_space_group_name_H-M "F M M 2"
_symmetry_group_IT_number 42
_symmetry_cell_setting 'orthorhombic'
loop_
_space_group_symop_operation_xyz
x,y,z
-x,-y,z
-x,y,z
x,-y,z
x,1/2+y,1/2+z
-x,1/2-y,1/2+z
-x,1/2+y,1/2+z
x,1/2-y,1/2+z
1/2+x,y,1/2+z
1/2-x,-y,1/2+z
1/2-x,y,1/2+z
1/2+x,-y,1/2+z
1/2+x,1/2+y,z
1/2-x,1/2-y,z
1/2-x,1/2+y,z
1/2+x,1/2-y,z
loop_
_atom_site_type_symbol
_atom_site_label
_atom_site_fract_x
_atom_site_fract_y
_atom_site_fract_z
Si Si1 0.907430 0.308556 0.030330
Si Si2 0.058304 0.647846 0.405989
Si Si3 0.760291 0.586537 0.859948
Si Si4 0.795302 0.811313 0.651611
Si Si5 0.871225 0.587830 0.708699
O O1 0.931200 0.351513 0.197732
O O2 0.851518 0.279013 0.107214
O O3 0.938826 0.235559 0.967261
O O4 0.896204 0.360410 0.861773
O O5 0.101579 0.606576 0.524636
O O6 0.000000 0.618057 0.441837
O O7 0.743510 0.500000 0.864658
O O8 0.715281 0.648855 0.834939
O O9 0.807839 0.596535 0.719686
O O10 0.789281 0.613883 0.033372
O O11 0.750000 0.750000 0.630474
O O12 0.880649 0.500000 0.750819
#
# Coordination Sequence:
#
# PCOD9369663 Si02
#       5
#    16  16  16  16  16
#     4  11  25  42  68  99 134 172 222 272 329 392
#     4  12  25  44  71  98 126 174 226 277 336 390
#     4  10  22  40  61  91 132 175 208 251 322 390
#     4  11  23  36  62  94 129 167 214 266 315 377
#     4  10  24  46  68  98 138 173 215 272 329 391
#
# _framework density 23.162044000000002
#
# number of rings (size 3 to 8) (size 9 to 14) (size 15 to 20)
#    0.000    1.200    2.000    3.000    8.400    2.800 
#    0.000    0.000    0.000    0.000    0.000    0.000 
#    0.000    0.000    0.000    0.000    0.000    0.000 
#
# Total GULP energy -111763.078043 kJ/mol
# GULP energy per Si atom -5588.153902 kJ/mol
# Density = 2.310933 g / cm^3
# Si number density = 23.162044 Si / 1000 Ang^3
#
#
#
# Elastic Constant Matrix: (Units=GPa)
#
#
# Indices 1 2 3 4 5 6 
#
# 1 92.8310 13.3133 2.1459 0.0000 0.0000 0.0000
# 2 13.3133 88.5286 12.8999 -0.0001 0.0000 0.0002
# 3 2.1459 12.8999 96.1813 -0.0003 0.0000 0.0004
# 4 0.0000 -0.0001 -0.0003 25.4125 0.0000 0.0003
# 5 0.0000 0.0000 0.0000 0.0000 16.2725 0.0000
# 6 0.0000 0.0002 0.0004 0.0003 0.0000 60.5113
#
#
#
# Elastic Compliance Matrix: (Units=1/GPa)
#
#
# Indices 1 2 3 4 5 6 
#
# 1 0.011010 -0.001652 -0.000024 0.000000 0.000000 0.000000
# 2 -0.001652 0.011769 -0.001542 0.000000 0.000000 0.000000
# 3 -0.000024 -0.001542 0.010604 0.000000 0.000000 0.000000
# 4 0.000000 0.000000 0.000000 0.039351 0.000000 0.000000
# 5 0.000000 0.000000 0.000000 0.000000 0.061453 0.000000
# 6 0.000000 0.000000 0.000000 0.000000 0.000000 0.016526
#
#
# Mechanical properties :
#
#
# Convention : Reuss Voigt Hill
#
# Bulk Modulus (GPa) = 37.10943 37.13989 37.12466
# Shear Modulus (GPa) = 30.09671 37.05136 33.57403
#
# Velocity S-wave (km/s) = 3.60863 4.00391 3.81140
# Velocity P-wave (km/s) = 5.78095 6.11921 5.95248
#
# Compressibility (1/GPa) = 0.02694733
#
# Stress axis : x y z
#
# Youngs Moduli (GPa) = 90.82841 84.96981 94.30111
#
# Poissons Ratio (x) = 0.14039 0.00227
# Poissons Ratio (y) = 0.15007 0.14537
# Poissons Ratio (z) = 0.00218 0.13099
#
# Static dielectric constant tensor:
#      x y z
#    x 1.903550 0.000000 0.000000 
#    y 0.000000 1.814510 0.000000 
#    z 0.000000 0.000000 1.983550 
# 
# From -- ./inp_files/3473.got.cif
#   From: 2010.05.17/outbox.cif.g08.bks.cpg/sg42_2_cif.got.tgz:3473.got - 2010.06.03 19:03:34.
