data_PCOD9369997
_publ_section_title
;
Structure prediction by ZEFSAII (Michael W. Deem and Ramdas Pophale) SiO2 
 PCOD9369997
Probable space group: F M M 2
;
_chemical_formula_sum "Si O2"
_cell_formula_units_Z 24
_cell_length_a 27.000000
_cell_length_b 21.000000
_cell_length_c 9.000000
_cell_angle_alpha 90.000000
_cell_angle_beta 90.000000
_cell_angle_gamma 90.000000
_cell_volume 5103.000000
_symmetry_space_group_name_H-M "F M M 2"
_symmetry_group_IT_number 42
_symmetry_cell_setting 'orthorhombic'
loop_
_space_group_symop_operation_xyz
x,y,z
-x,-y,z
-x,y,z
x,-y,z
x,1/2+y,1/2+z
-x,1/2-y,1/2+z
-x,1/2+y,1/2+z
x,1/2-y,1/2+z
1/2+x,y,1/2+z
1/2-x,-y,1/2+z
1/2-x,y,1/2+z
1/2+x,-y,1/2+z
1/2+x,1/2+y,z
1/2-x,1/2-y,z
1/2-x,1/2+y,z
1/2+x,1/2-y,z
loop_
_atom_site_type_symbol
_atom_site_label
_atom_site_fract_x
_atom_site_fract_y
_atom_site_fract_z
Si Si1 0.939993 0.306389 0.406440
Si Si2 0.446347 0.570381 0.455676
Si Si3 0.885543 0.424887 0.252248
Si Si4 0.683714 0.421389 0.280630
Si Si5 0.714849 0.576220 0.620130
Si Si6 0.590645 0.175599 0.747587
O O1 0.917553 0.372260 0.338905
O O2 0.913084 0.243895 0.333799
O O3 0.927867 0.309832 0.581739
O O4 0.000000 0.302183 0.383079
O O5 0.500000 0.572272 0.531598
O O6 0.441301 0.500000 0.385069
O O7 0.405638 0.575521 0.582886
O O8 0.443636 0.626935 0.339719
O O9 0.888939 0.500000 0.303151
O O10 0.828359 0.403238 0.234904
O O11 0.672520 0.500000 0.270055
O O12 0.701488 0.408140 0.450017
O O13 0.730146 0.407268 0.172997
O O14 0.640409 0.369683 0.245530
O O15 0.712355 0.500000 0.627296
#
# Coordination Sequence:
#
# PCOD9369997 Si02
#       6
#    16  16  16  16  16  16
#     4  12  27  44  64  90 126 174 222 271 331 390
#     4  10  19  35  62  92 123 162 208 261 319 381
#     4  10  21  40  66  95 129 165 212 268 324 391
#     4  10  21  40  70 102 131 168 212 262 321 388
#     4   9  19  37  65 100 131 163 206 256 318 381
#     4  12  25  43  64  89 128 169 220 269 323 387
#
# _framework density 4.7031159999999996
#
# number of rings (size 3 to 8) (size 9 to 14) (size 15 to 20)
#    0.000    1.500    1.667    3.500    2.333    2.333 
#    0.000    0.833    0.000    0.000    0.000    0.000 
#    0.000    0.000    0.000    0.000    0.000    0.000 
#
# Total GULP energy -133734.958817 kJ/mol
# GULP energy per Si atom -5572.289951 kJ/mol
# Density = 0.469241 g / cm^3
# Si number density = 4.703116 Si / 1000 Ang^3
#
#
#
# Elastic Constant Matrix: (Units=GPa)
#
#
# Indices 1 2 3 4 5 6 
#
# 1 132.8775 31.5929 13.7140 0.0000 0.0000 0.0000
# 2 31.5929 131.8314 43.3434 -0.0001 0.0000 0.0000
# 3 13.7140 43.3434 73.6118 -0.0001 0.0000 0.0000
# 4 0.0000 -0.0001 -0.0001 38.8179 0.0000 0.0000
# 5 0.0000 0.0000 0.0000 0.0000 33.2914 0.0000
# 6 0.0000 0.0000 0.0000 0.0000 0.0000 26.3449
#
#
#
# Elastic Compliance Matrix: (Units=1/GPa)
#
#
# Indices 1 2 3 4 5 6 
#
# 1 0.007992 -0.001768 -0.000448 0.000000 0.000000 0.000000
# 2 -0.001768 0.009798 -0.005439 0.000000 0.000000 0.000000
# 3 -0.000448 -0.005439 0.016871 0.000000 0.000000 0.000000
# 4 0.000000 0.000000 0.000000 0.025761 0.000000 0.000000
# 5 0.000000 0.000000 0.000000 0.000000 0.030038 0.000000
# 6 0.000000 0.000000 0.000000 0.000000 0.000000 0.037958
#
#
# Mechanical properties :
#
#
# Convention : Reuss Voigt Hill
#
# Bulk Modulus (GPa) = 51.67974 57.29126 54.48550
# Shear Modulus (GPa) = 33.29360 36.33554 34.81457
#
# Velocity S-wave (km/s) = 4.21142 4.39961 4.30654
# Velocity P-wave (km/s) = 7.15393 7.50525 7.33169
#
# Compressibility (1/GPa) = 0.01934994
#
# Stress axis : x y z
#
# Youngs Moduli (GPa) = 125.11993 102.06644 59.27315
#
# Poissons Ratio (x) = 0.18046 0.02655
# Poissons Ratio (y) = 0.22122 0.32242
# Poissons Ratio (z) = 0.05605 0.55519
#
# Static dielectric constant tensor:
#      x y z
#    x 1.739510 0.000000 0.000000 
#    y 0.000000 1.636210 0.000000 
#    z 0.000000 0.000000 1.653330 
# 
# From -- ./inp_files/4179.got.cif
#   From: 2010.05.17/outbox.ucp.g08.bks.cvg/sg42_3_cif.got.tgz:4179.got - 2010.06.11 16:29:10.
