data_PCOD9369555
_publ_section_title
;
Structure prediction by ZEFSAII (Michael W. Deem and Ramdas Pophale) SiO2 
 PCOD9369555
Probable space group: F M M 2
;
_chemical_formula_sum "Si O2"
_cell_formula_units_Z 96
_cell_length_a 15.702051
_cell_length_b 13.974247
_cell_length_c 21.208360
_cell_angle_alpha 90.000000
_cell_angle_beta 90.000000
_cell_angle_gamma 90.000000
_cell_volume 4653.630376
_symmetry_space_group_name_H-M "F M M 2"
_symmetry_group_IT_number 42
_symmetry_cell_setting 'orthorhombic'
loop_
_space_group_symop_operation_xyz
x,y,z
-x,-y,z
-x,y,z
x,-y,z
x,1/2+y,1/2+z
-x,1/2-y,1/2+z
-x,1/2+y,1/2+z
x,1/2-y,1/2+z
1/2+x,y,1/2+z
1/2-x,-y,1/2+z
1/2-x,y,1/2+z
1/2+x,-y,1/2+z
1/2+x,1/2+y,z
1/2-x,1/2-y,z
1/2-x,1/2+y,z
1/2+x,1/2-y,z
loop_
_atom_site_type_symbol
_atom_site_label
_atom_site_fract_x
_atom_site_fract_y
_atom_site_fract_z
Si Si1 0.683951 0.895313 0.447110
Si Si2 0.373908 0.608440 0.143100
Si Si3 0.702653 0.396845 0.573747
Si Si4 0.101297 0.733779 0.762113
Si Si5 0.090904 0.770568 0.031176
Si Si6 0.262093 0.611271 0.803350
O O1 0.750453 0.896674 0.505261
O O2 0.626096 0.805534 0.464649
O O3 0.722590 0.883933 0.378440
O O4 0.640476 0.000000 0.448086
O O5 0.396455 0.500000 0.162076
O O6 0.272797 0.610718 0.128610
O O7 0.401230 0.689319 0.191827
O O8 0.410974 0.635280 0.074840
O O9 0.659023 0.500000 0.580306
O O10 0.647164 0.303470 0.569486
O O11 0.168657 0.657468 0.792582
O O12 0.159064 0.830047 0.771034
O O13 0.000000 0.741631 0.782244
O O14 0.000000 0.725888 0.022819
O O15 0.262534 0.500000 0.783630
#
# Coordination Sequence:
#
# PCOD9369555 Si02
#       6
#    16  16  16  16  16  16
#     4   9  19  39  61  84 115 157 205 253 306 371
#     4  10  21  40  63  87 119 158 204 260 315 374
#     4   9  20  37  61  86 116 159 203 248 311 381
#     4  11  25  41  64  95 129 169 219 271 319 375
#     4  11  22  33  59  96 124 154 197 257 321 380
#     4  10  24  43  66  91 127 175 219 265 320 379
#
# _framework density 20.629055999999999
#
# number of rings (size 3 to 8) (size 9 to 14) (size 15 to 20)
#    0.000    2.000    0.000    4.500    9.333    4.667 
#    0.000    1.667    0.000    5.000    0.000    0.000 
#    0.000    0.000    0.000    0.000    0.000    0.000 
#
# Total GULP energy -133639.900323 kJ/mol
# GULP energy per Si atom -5568.329180 kJ/mol
# Density = 2.058210 g / cm^3
# Si number density = 20.629056 Si / 1000 Ang^3
#
#
#
# Elastic Constant Matrix: (Units=GPa)
#
#
# Indices 1 2 3 4 5 6 
#
# 1 129.3305 67.0994 21.1736 0.0000 0.0000 0.0000
# 2 67.0994 131.5614 17.4499 0.0000 0.0000 0.0000
# 3 21.1736 17.4499 58.7898 0.0000 0.0000 0.0000
# 4 0.0000 0.0000 0.0000 29.4798 0.0000 0.0000
# 5 0.0000 0.0000 0.0000 0.0000 7.8308 0.0000
# 6 0.0000 0.0000 0.0000 0.0000 0.0000 -35.2560
#
#
#
# Elastic Compliance Matrix: (Units=1/GPa)
#
#
# Indices 1 2 3 4 5 6 
#
# 1 0.010818 -0.005205 -0.002351 0.000000 0.000000 0.000000
# 2 -0.005205 0.010417 -0.001217 0.000000 0.000000 0.000000
# 3 -0.002351 -0.001217 0.018218 0.000000 0.000000 0.000000
# 4 0.000000 0.000000 0.000000 0.033922 0.000000 0.000000
# 5 0.000000 0.000000 0.000000 0.000000 0.127701 0.000000
# 6 0.000000 0.000000 0.000000 0.000000 0.000000 -0.028364
#
#
# Mechanical properties :
#
#
# Convention : Reuss Voigt Hill
#
# Bulk Modulus (GPa) = 45.65086 59.01416 52.33251
# Shear Modulus (GPa) = 25.30870 14.67483 19.99177
#
# Velocity S-wave (km/s) = 3.50644 2.67004 3.11643
# Velocity P-wave (km/s) = 6.21055 6.17858 6.19459
#
# Compressibility (1/GPa) = 0.02190539
#
# Stress axis : x y z
#
# Youngs Moduli (GPa) = 92.44078 95.99339 54.89137
#
# Poissons Ratio (x) = 0.49969 0.12905
# Poissons Ratio (y) = 0.48120 0.06682
# Poissons Ratio (z) = 0.21733 0.11685
#
# Static dielectric constant tensor:
#      x y z
#    x 1.805630 0.000000 0.000000 
#    y 0.000000 1.775520 0.000000 
#    z 0.000000 0.000000 1.733630 
# 
# From -- ./inp_files/25121.got.cif
#   From: 2010.05.17/outbox.cif.g08.bks.cpg/sg42_13_cif.got.tgz:25121.got - 2010.06.03 19:03:34.
