data_PCOD9369420
_publ_section_title
;
Structure prediction by ZEFSAII (Michael W. Deem and Ramdas Pophale) SiO2 
 PCOD9369420
Probable space group: F M M 2
;
_chemical_formula_sum "Si O2"
_cell_formula_units_Z 80
_cell_length_a 18.816589
_cell_length_b 8.805193
_cell_length_c 25.833895
_cell_angle_alpha 90.000000
_cell_angle_beta 90.000000
_cell_angle_gamma 90.000000
_cell_volume 4280.255251
_symmetry_space_group_name_H-M "F M M 2"
_symmetry_group_IT_number 42
_symmetry_cell_setting 'orthorhombic'
loop_
_space_group_symop_operation_xyz
x,y,z
-x,-y,z
-x,y,z
x,-y,z
x,1/2+y,1/2+z
-x,1/2-y,1/2+z
-x,1/2+y,1/2+z
x,1/2-y,1/2+z
1/2+x,y,1/2+z
1/2-x,-y,1/2+z
1/2-x,y,1/2+z
1/2+x,-y,1/2+z
1/2+x,1/2+y,z
1/2-x,1/2-y,z
1/2-x,1/2+y,z
1/2+x,1/2-y,z
loop_
_atom_site_type_symbol
_atom_site_label
_atom_site_fract_x
_atom_site_fract_y
_atom_site_fract_z
Si Si1 0.672737 0.818804 0.814270
Si Si2 0.672291 0.317973 0.193878
Si Si3 0.328906 0.182632 0.506818
Si Si4 0.083279 0.818079 0.602311
Si Si5 0.081890 0.317069 0.404972
O O1 0.750000 0.750000 0.826929
O O2 0.657246 0.781787 0.754141
O O3 0.615340 0.753083 0.853502
O O4 0.676254 0.000000 0.819076
O O5 0.674221 0.500000 0.188033
O O6 0.750000 0.250000 0.181456
O O7 0.615284 0.246517 0.155468
O O8 0.250000 0.250000 0.506415
O O9 0.372338 0.245545 0.555585
O O10 0.370701 0.226329 0.454468
O O11 0.325534 0.000000 0.509642
O O12 0.000000 0.780634 0.597330
O O13 0.091106 0.000000 0.601284
O O14 0.084072 0.500000 0.400947
O O15 0.000000 0.270979 0.412215
#
# Coordination Sequence:
#
# PCOD9369420 Si02
#       5
#    16  16  16  16  16
#     4  10  21  37  59  86 115 151 193 236 282 333
#     4  10  21  38  60  85 115 151 192 236 282 335
#     4  11  23  40  62  86 114 149 190 234 282 338
#     4  11  24  40  59  85 116 150 189 234 285 338
#     4  10  22  39  59  85 117 152 189 232 284 338
#
# _framework density 18.690474999999999
#
# number of rings (size 3 to 8) (size 9 to 14) (size 15 to 20)
#    0.000    1.600    0.000    4.200    0.000    9.200 
#    0.000    4.000    0.000    0.000    0.000    0.000 
#    0.000    0.000    0.000    0.000    0.000    0.000 
#
# Total GULP energy -111827.439865 kJ/mol
# GULP energy per Si atom -5591.371993 kJ/mol
# Density = 1.864793 g / cm^3
# Si number density = 18.690475 Si / 1000 Ang^3
#
#
#
# Elastic Constant Matrix: (Units=GPa)
#
#
# Indices 1 2 3 4 5 6 
#
# 1 188.6597 67.4153 106.5824 0.0000 0.0000 0.0000
# 2 67.4153 52.8275 50.4073 0.0000 0.0000 0.0000
# 3 106.5824 50.4073 110.0296 0.0000 0.0000 0.0000
# 4 0.0000 0.0000 0.0000 35.1834 0.0000 0.0000
# 5 0.0000 0.0000 0.0000 0.0000 -115.1865 0.0000
# 6 0.0000 0.0000 0.0000 0.0000 0.0000 30.6626
#
#
#
# Elastic Compliance Matrix: (Units=1/GPa)
#
#
# Indices 1 2 3 4 5 6 
#
# 1 0.013551 -0.008471 -0.009246 0.000000 0.000000 0.000000
# 2 -0.008471 0.038926 -0.009628 0.000000 0.000000 0.000000
# 3 -0.009246 -0.009628 0.022455 0.000000 0.000000 0.000000
# 4 0.000000 0.000000 0.000000 0.028423 0.000000 0.000000
# 5 0.000000 0.000000 0.000000 0.000000 -0.008682 0.000000
# 6 0.000000 0.000000 0.000000 0.000000 0.000000 0.032613
#
#
# Mechanical properties :
#
#
# Convention : Reuss Voigt Hill
#
# Bulk Modulus (GPa) = 49.39769 88.92519 69.16144
# Shear Modulus (GPa) = 26.49420 -1.39397 12.55011
#
# Velocity S-wave (km/s) = 3.76909 -0.86455 2.59409
# Velocity P-wave (km/s) = 6.74003 6.83261 6.78648
#
# Compressibility (1/GPa) = 0.02024386
#
# Stress axis : x y z
#
# Youngs Moduli (GPa) = 73.79754 25.68998 44.53354
#
# Poissons Ratio (x) = 0.21761 0.41173
# Poissons Ratio (y) = 0.62510 0.42876
# Poissons Ratio (z) = 0.68230 0.24734
#
# Static dielectric constant tensor:
#      x y z
#    x 1.611900 0.000000 0.000000 
#    y 0.000000 1.626370 0.000000 
#    z 0.000000 0.000000 1.627670 
# 
# From -- ./inp_files/31266.got.cif
#   From: 2010.05.17/outbox.cif.g08.bks.cpg/sg42_16_cif.got.tgz:31266.got - 2010.06.03 19:03:34.
