data_PCOD9369609
_publ_section_title
;
Structure prediction by ZEFSAII (Michael W. Deem and Ramdas Pophale) SiO2 
 PCOD9369609
Probable space group: F M M 2
;
_chemical_formula_sum "Si O2"
_cell_formula_units_Z 88
_cell_length_a 29.560912
_cell_length_b 19.048843
_cell_length_c 8.818676
_cell_angle_alpha 90.000000
_cell_angle_beta 90.000000
_cell_angle_gamma 90.000000
_cell_volume 4965.806788
_symmetry_space_group_name_H-M "F M M 2"
_symmetry_group_IT_number 42
_symmetry_cell_setting 'orthorhombic'
loop_
_space_group_symop_operation_xyz
x,y,z
-x,-y,z
-x,y,z
x,-y,z
x,1/2+y,1/2+z
-x,1/2-y,1/2+z
-x,1/2+y,1/2+z
x,1/2-y,1/2+z
1/2+x,y,1/2+z
1/2-x,-y,1/2+z
1/2-x,y,1/2+z
1/2+x,-y,1/2+z
1/2+x,1/2+y,z
1/2-x,1/2-y,z
1/2-x,1/2+y,z
1/2+x,1/2-y,z
loop_
_atom_site_type_symbol
_atom_site_label
_atom_site_fract_x
_atom_site_fract_y
_atom_site_fract_z
Si Si1 0.750000 0.750000 0.989661
Si Si2 0.389497 0.300995 0.125457
Si Si3 0.446193 0.697471 0.425567
Si Si4 0.687952 0.809324 0.229234
Si Si5 0.134418 0.081365 0.900445
Si Si6 0.051463 0.420032 0.180447
O O1 0.711834 0.719512 0.880308
O O2 0.725773 0.806444 0.098560
O O3 0.420882 0.318478 0.268922
O O4 0.351763 0.244385 0.178916
O O5 0.421255 0.263921 0.000291
O O6 0.367032 0.368829 0.047682
O O7 0.500000 0.708582 0.403804
O O8 0.439706 0.635021 0.547019
O O9 0.667673 0.883842 0.276299
O O10 0.085676 0.086646 0.818946
O O11 0.144319 0.000000 0.931863
O O12 0.055327 0.500000 0.122349
O O13 0.000000 0.408738 0.232353
#
# Coordination Sequence:
#
# PCOD9369609 Si02
#       6
#     8  16  16  16  16  16
#     4  10  22  36  70  90 110 144 200 244 298 362
#     4  12  21  37  59  86 121 155 202 248 288 354
#     4  11  21  33  56  88 120 159 208 252 288 340
#     4  11  20  40  62  91 112 151 193 242 296 363
#     4  11  23  39  61  89 124 159 196 247 303 353
#     4   9  19  36  56  81 119 165 205 245 297 349
#
# _framework density 17.72119
#
# number of rings (size 3 to 8) (size 9 to 14) (size 15 to 20)
#    0.000    1.273    5.455    0.545    0.000    3.636 
#    0.000    0.909    0.000    0.000    0.000    0.000 
#    0.000    0.000    0.000    0.000    0.000    0.000 
#
# Total GULP energy -122761.570476 kJ/mol
# GULP energy per Si atom -5580.071385 kJ/mol
# Density = 1.768086 g / cm^3
# Si number density = 17.721190 Si / 1000 Ang^3
#
#
#
# Elastic Constant Matrix: (Units=GPa)
#
#
# Indices 1 2 3 4 5 6 
#
# 1 70.0955 33.3873 28.6115 0.0000 0.0000 0.0000
# 2 33.3873 111.5658 30.3661 0.0000 0.0000 0.0000
# 3 28.6115 30.3661 73.4783 -0.0001 0.0000 0.0000
# 4 0.0000 0.0000 -0.0001 26.4057 0.0000 0.0000
# 5 0.0000 0.0000 0.0000 0.0000 35.9242 0.0000
# 6 0.0000 0.0000 0.0000 0.0000 0.0000 18.9383
#
#
#
# Elastic Compliance Matrix: (Units=1/GPa)
#
#
# Indices 1 2 3 4 5 6 
#
# 1 0.018430 -0.004014 -0.005518 0.000000 0.000000 0.000000
# 2 -0.004014 0.010973 -0.002972 0.000000 0.000000 0.000000
# 3 -0.005518 -0.002972 0.016986 0.000000 0.000000 0.000000
# 4 0.000000 0.000000 0.000000 0.037871 0.000000 0.000000
# 5 0.000000 0.000000 0.000000 0.000000 0.027836 0.000000
# 6 0.000000 0.000000 0.000000 0.000000 0.000000 0.052803
#
#
# Mechanical properties :
#
#
# Convention : Reuss Voigt Hill
#
# Bulk Modulus (GPa) = 46.76634 48.87439 47.82037
# Shear Modulus (GPa) = 25.37625 27.10529 26.24077
#
# Velocity S-wave (km/s) = 3.78825 3.91518 3.85223
# Velocity P-wave (km/s) = 6.75143 6.93381 6.84322
#
# Compressibility (1/GPa) = 0.02138290
#
# Stress axis : x y z
#
# Youngs Moduli (GPa) = 54.25868 91.12966 58.87103
#
# Poissons Ratio (x) = 0.36576 0.32484
# Poissons Ratio (y) = 0.21777 0.17497
# Poissons Ratio (z) = 0.29939 0.27084
#
# Static dielectric constant tensor:
#      x y z
#    x 1.627940 0.000000 0.000000 
#    y 0.000000 1.611920 0.000000 
#    z 0.000000 0.000000 1.595330 
# 
# From -- ./inp_files/3619.got.cif
#   From: 2010.05.17/outbox.cif.g08.bks.cpg/sg42_2_cif.got.tgz:3619.got - 2010.06.03 19:03:34.
