data_PCOD9369871
_publ_section_title
;
Structure prediction by ZEFSAII (Michael W. Deem and Ramdas Pophale) SiO2 
 PCOD9369871
Probable space group: F M M 2
;
_chemical_formula_sum "Si O2"
_cell_formula_units_Z 96
_cell_length_a 7.680068
_cell_length_b 19.221514
_cell_length_c 32.168484
_cell_angle_alpha 90.000000
_cell_angle_beta 90.000000
_cell_angle_gamma 90.000000
_cell_volume 4748.793142
_symmetry_space_group_name_H-M "F M M 2"
_symmetry_group_IT_number 42
_symmetry_cell_setting 'orthorhombic'
loop_
_space_group_symop_operation_xyz
x,y,z
-x,-y,z
-x,y,z
x,-y,z
x,1/2+y,1/2+z
-x,1/2-y,1/2+z
-x,1/2+y,1/2+z
x,1/2-y,1/2+z
1/2+x,y,1/2+z
1/2-x,-y,1/2+z
1/2-x,y,1/2+z
1/2+x,-y,1/2+z
1/2+x,1/2+y,z
1/2-x,1/2-y,z
1/2-x,1/2+y,z
1/2+x,1/2-y,z
loop_
_atom_site_type_symbol
_atom_site_label
_atom_site_fract_x
_atom_site_fract_y
_atom_site_fract_z
Si Si1 0.709392 0.830825 0.028830
Si Si2 0.294726 0.168803 0.278739
Si Si3 0.790662 0.831144 0.621511
Si Si4 0.291046 0.079223 0.858772
Si Si5 0.713827 0.080443 0.200322
Si Si6 0.287859 0.080863 0.951177
O O1 0.500000 0.839252 0.029712
O O2 0.750000 0.750000 0.022415
O O3 0.774833 0.849381 0.075143
O O4 0.777255 0.874727 0.989973
O O5 0.500000 0.164790 0.274336
O O6 0.250000 0.250000 0.277656
O O7 0.250298 0.131840 0.322060
O O8 0.222217 0.124387 0.240045
O O9 0.750000 0.750000 0.629711
O O10 0.728102 0.880727 0.658329
O O11 0.000000 0.836974 0.620571
O O12 0.500000 0.075099 0.861160
O O13 0.229071 0.101718 0.904758
O O14 0.227491 0.000000 0.850346
O O15 0.500000 0.080742 0.200274
O O16 0.767486 0.000000 0.202290
O O17 0.500000 0.085407 0.951331
O O18 0.243161 0.000000 0.956510
#
# Coordination Sequence:
#
# PCOD9369871 Si02
#       6
#    16  16  16  16  16  16
#     4   9  17  29  47  71  97 126 159 194 234 280
#     4  11  22  35  52  73  99 130 164 203 245 291
#     4   9  17  30  49  71  96 126 158 194 235 281
#     4   9  18  34  54  74  99 130 163 202 247 293
#     4   9  18  32  50  73  98 123 155 198 244 286
#     4   8  15  29  49  72  97 125 158 197 238 279
#
# _framework density 20.215661000000001
#
# number of rings (size 3 to 8) (size 9 to 14) (size 15 to 20)
#    0.000    2.833    0.000    2.500    0.000    2.333 
#    0.000    6.667    0.000    4.000    0.000    4.667 
#    0.000    0.000    0.000    0.000    0.000    0.000 
#
# Total GULP energy -133883.909437 kJ/mol
# GULP energy per Si atom -5578.496227 kJ/mol
# Density = 2.016965 g / cm^3
# Si number density = 20.215661 Si / 1000 Ang^3
#
#
#
# Elastic Constant Matrix: (Units=GPa)
#
#
# Indices 1 2 3 4 5 6 
#
# 1 34.7176 3.7911 10.1330 0.0000 0.0000 0.0000
# 2 3.7911 149.7942 155.0818 0.0000 0.0000 0.0000
# 3 10.1330 155.0818 242.5159 0.0000 0.0000 0.0000
# 4 0.0000 0.0000 0.0000 49.3593 0.0000 0.0000
# 5 0.0000 0.0000 0.0000 0.0000 4.1407 0.0000
# 6 0.0000 0.0000 0.0000 0.0000 0.0000 7.1972
#
#
#
# Elastic Compliance Matrix: (Units=1/GPa)
#
#
# Indices 1 2 3 4 5 6 
#
# 1 0.029281 0.001555 -0.002218 0.000000 0.000000 0.000000
# 2 0.001555 0.019836 -0.012750 0.000000 0.000000 0.000000
# 3 -0.002218 -0.012750 0.012369 0.000000 0.000000 0.000000
# 4 0.000000 0.000000 0.000000 0.020260 0.000000 0.000000
# 5 0.000000 0.000000 0.000000 0.000000 0.241504 0.000000
# 6 0.000000 0.000000 0.000000 0.000000 0.000000 0.138943
#
#
# Mechanical properties :
#
#
# Convention : Reuss Voigt Hill
#
# Bulk Modulus (GPa) = 28.85017 85.00438 56.92728
# Shear Modulus (GPa) = 9.98859 29.34089 19.66474
#
# Velocity S-wave (km/s) = 2.22525 3.81385 3.12227
# Velocity P-wave (km/s) = 4.57214 7.84436 6.42022
#
# Compressibility (1/GPa) = 0.03466184
#
# Stress axis : x y z
#
# Youngs Moduli (GPa) = 34.15140 50.41312 80.84664
#
# Poissons Ratio (x) = -0.07840 0.17931
# Poissons Ratio (y) = -0.05311 1.03076
# Poissons Ratio (z) = 0.07575 0.64275
#
# Static dielectric constant tensor:
#      x y z
#    x 1.766260 0.000000 0.000000 
#    y 0.000000 1.643000 0.000000 
#    z 0.000000 0.000000 1.745810 
# 
# From -- ./inp_files/28842.got.cif
#   From: 2010.05.17/outbox.cif.g08.bks.cpg/sg42_15_cif.got.tgz:28842.got - 2010.06.03 19:03:34.
