data_PCOD9369733
_publ_section_title
;
Structure prediction by ZEFSAII (Michael W. Deem and Ramdas Pophale) SiO2 
 PCOD9369733
Probable space group: F M M 2
;
_chemical_formula_sum "Si O2"
_cell_formula_units_Z 104
_cell_length_a 8.530310
_cell_length_b 19.642089
_cell_length_c 29.364866
_cell_angle_alpha 90.000000
_cell_angle_beta 90.000000
_cell_angle_gamma 90.000000
_cell_volume 4920.174571
_symmetry_space_group_name_H-M "F M M 2"
_symmetry_group_IT_number 42
_symmetry_cell_setting 'orthorhombic'
loop_
_space_group_symop_operation_xyz
x,y,z
-x,-y,z
-x,y,z
x,-y,z
x,1/2+y,1/2+z
-x,1/2-y,1/2+z
-x,1/2+y,1/2+z
x,1/2-y,1/2+z
1/2+x,y,1/2+z
1/2-x,-y,1/2+z
1/2-x,y,1/2+z
1/2+x,-y,1/2+z
1/2+x,1/2+y,z
1/2-x,1/2-y,z
1/2-x,1/2+y,z
1/2+x,1/2-y,z
loop_
_atom_site_type_symbol
_atom_site_label
_atom_site_fract_x
_atom_site_fract_y
_atom_site_fract_z
Si Si1 0.188724 0.178548 0.279020
Si Si2 0.680932 0.000000 0.146141
Si Si3 0.750000 0.750000 0.103516
Si Si4 0.814416 0.348677 0.178668
Si Si5 0.311584 0.076584 0.857697
Si Si6 0.817960 0.178069 0.929357
Si Si7 0.823173 0.645644 0.023414
Si Si8 0.818403 0.000000 0.050732
O O1 0.250000 0.250000 0.298061
O O2 0.264147 0.170124 0.229328
O O3 0.238103 0.118883 0.313258
O O4 0.000000 0.179260 0.275118
O O5 0.700177 0.070233 0.172914
O O6 0.801739 0.000000 0.105034
O O7 0.500000 0.000000 0.127956
O O8 0.708637 0.691886 0.141684
O O9 0.823687 0.696925 0.066619
O O10 0.000000 0.331085 0.170184
O O11 0.500000 0.074289 0.856531
O O12 0.262327 0.116879 0.902586
O O13 0.249868 0.000000 0.857475
O O14 0.750000 0.250000 0.913800
O O15 0.000000 0.176073 0.919808
O O16 0.787215 0.171967 0.983247
O O17 0.765998 0.569762 0.035709
O O18 0.000000 0.643089 0.005453
O O19 0.000000 0.000000 0.036210
#
# Coordination Sequence:
#
# PCOD9369733 Si02
#       8
#    16   8   8  16  16  16  16   8
#     4  11  24  42  68  98 133 175 224 277 336 404
#     4  10  22  44  64  87 126 179 228 274 343 405
#     4  12  24  40  72 102 136 176 232 278 332 404
#     4  11  24  42  67  96 133 176 225 280 337 404
#     4  10  24  47  72 100 137 178 223 279 347 410
#     4  12  26  45  71 103 137 175 227 280 339 407
#     4  12  26  46  71  97 137 183 226 280 343 402
#     4  12  26  42  64  95 132 175 230 282 335 405
#
# _framework density 21.137461999999999
#
# number of rings (size 3 to 8) (size 9 to 14) (size 15 to 20)
#    0.000    0.769    3.077    3.923    2.154    5.846 
#    0.000    0.000    0.000    0.000    0.000    0.000 
#    0.000    0.000    0.000    0.000    0.000    0.000 
#
# Total GULP energy -145141.033904 kJ/mol
# GULP energy per Si atom -5582.347458 kJ/mol
# Density = 2.108935 g / cm^3
# Si number density = 21.137462 Si / 1000 Ang^3
#
#
#
# Elastic Constant Matrix: (Units=GPa)
#
#
# Indices 1 2 3 4 5 6 
#
# 1 28.1731 23.4142 -5.3911 0.0000 0.0000 0.0000
# 2 23.4142 184.7506 44.4963 0.0000 0.0000 0.0000
# 3 -5.3911 44.4963 104.4745 0.0000 0.0000 0.0000
# 4 0.0000 0.0000 0.0000 37.0800 0.0000 0.0000
# 5 0.0000 0.0000 0.0000 0.0000 15.7318 0.0000
# 6 0.0000 0.0000 0.0000 0.0000 0.0000 15.2477
#
#
#
# Elastic Compliance Matrix: (Units=1/GPa)
#
#
# Indices 1 2 3 4 5 6 
#
# 1 0.041827 -0.006486 0.004921 0.000000 0.000000 0.000000
# 2 -0.006486 0.007037 -0.003332 0.000000 0.000000 0.000000
# 3 0.004921 -0.003332 0.011245 0.000000 0.000000 0.000000
# 4 0.000000 0.000000 0.000000 0.026969 0.000000 0.000000
# 5 0.000000 0.000000 0.000000 0.000000 0.063565 0.000000
# 6 0.000000 0.000000 0.000000 0.000000 0.000000 0.065584
#
#
# Mechanical properties :
#
#
# Convention : Reuss Voigt Hill
#
# Bulk Modulus (GPa) = 19.87497 49.15965 34.51731
# Shear Modulus (GPa) = 20.59373 30.60382 25.59878
#
# Velocity S-wave (km/s) = 3.12473 3.80919 3.48381
# Velocity P-wave (km/s) = 4.73727 6.53101 5.70508
#
# Compressibility (1/GPa) = 0.05031454
#
# Stress axis : x y z
#
# Youngs Moduli (GPa) = 23.90806 142.10270 88.93082
#
# Poissons Ratio (x) = 0.92168 -0.43761
# Poissons Ratio (y) = 0.15507 0.29630
# Poissons Ratio (z) = -0.11765 0.47347
#
# Static dielectric constant tensor:
#      x y z
#    x 1.796160 0.000000 0.000000 
#    y 0.000000 1.798270 0.000000 
#    z 0.000000 0.000000 1.722810 
# 
# From -- ./inp_files/31573.got.cif
#   From: 2010.05.17/outbox.cif.g08.bks.cpg/sg42_16_cif.got.tgz:31573.got - 2010.06.03 19:03:34.
