data_PCOD9369432
_publ_section_title
;
Structure prediction by ZEFSAII (Michael W. Deem and Ramdas Pophale) SiO2 
 PCOD9369432
Probable space group: F M M 2
;
_chemical_formula_sum "Si O2"
_cell_formula_units_Z 64
_cell_length_a 18.181640
_cell_length_b 7.967752
_cell_length_c 23.857544
_cell_angle_alpha 90.000000
_cell_angle_beta 90.000000
_cell_angle_gamma 90.000000
_cell_volume 3456.166019
_symmetry_space_group_name_H-M "F M M 2"
_symmetry_group_IT_number 42
_symmetry_cell_setting 'orthorhombic'
loop_
_space_group_symop_operation_xyz
x,y,z
-x,-y,z
-x,y,z
x,-y,z
x,1/2+y,1/2+z
-x,1/2-y,1/2+z
-x,1/2+y,1/2+z
x,1/2-y,1/2+z
1/2+x,y,1/2+z
1/2-x,-y,1/2+z
1/2-x,y,1/2+z
1/2+x,-y,1/2+z
1/2+x,1/2+y,z
1/2-x,1/2-y,z
1/2-x,1/2+y,z
1/2+x,1/2-y,z
loop_
_atom_site_type_symbol
_atom_site_label
_atom_site_fract_x
_atom_site_fract_y
_atom_site_fract_z
Si Si1 0.667743 0.311884 0.702860
Si Si2 0.086916 0.000000 0.792762
Si Si3 0.165225 0.193276 0.488703
Si Si4 0.584607 0.305136 0.097145
Si Si5 0.912553 0.000000 0.925597
O O1 0.672706 0.500000 0.678081
O O2 0.750000 0.250000 0.712277
O O3 0.624233 0.342136 0.760841
O O4 0.622782 0.207973 0.657550
O O5 0.099534 0.000000 0.858713
O O6 0.000000 0.000000 0.781755
O O7 0.250000 0.250000 0.491275
O O8 0.129950 0.206178 0.550512
O O9 0.122816 0.331784 0.451608
O O10 0.159763 0.000000 0.468897
O O11 0.500000 0.247583 0.100344
O O12 0.584976 0.500000 0.079559
O O13 0.000000 0.000000 0.936718
#
# Coordination Sequence:
#
# PCOD9369432 Si02
#       5
#    16   8  16  16   8
#     4  10  21  37  60  90 123 161 212 255 316 377
#     4   9  22  42  65  86 125 173 211 264 320 382
#     4  12  24  42  66  97 132 173 215 270 329 385
#     4  11  22  37  61  93 134 169 209 264 321 395
#     4  11  24  46  67  96 133 169 223 274 320 392
#
# _framework density 18.517628999999999
#
# number of rings (size 3 to 8) (size 9 to 14) (size 15 to 20)
#    0.750    0.500    2.500    3.750    0.000    4.000 
#    0.000    1.250    0.000    3.000    0.000    0.000 
#    0.000    0.000    0.000    0.000    0.000    0.000 
#
# Total GULP energy -89266.991613 kJ/mol
# GULP energy per Si atom -5579.186976 kJ/mol
# Density = 1.847548 g / cm^3
# Si number density = 18.517629 Si / 1000 Ang^3
#
#
#
# Elastic Constant Matrix: (Units=GPa)
#
#
# Indices 1 2 3 4 5 6 
#
# 1 169.9426 52.4426 84.7698 0.0000 0.0000 0.0000
# 2 52.4426 116.1451 40.2024 0.0000 0.0000 0.0000
# 3 84.7698 40.2024 114.9241 0.0000 0.0000 0.0000
# 4 0.0000 0.0000 0.0000 17.6280 0.0000 0.0000
# 5 0.0000 0.0000 0.0000 0.0000 145.1729 0.0000
# 6 0.0000 0.0000 0.0000 0.0000 0.0000 26.4655
#
#
#
# Elastic Compliance Matrix: (Units=1/GPa)
#
#
# Indices 1 2 3 4 5 6 
#
# 1 0.009773 -0.002182 -0.006445 0.000000 0.000000 0.000000
# 2 -0.002182 0.010283 -0.001988 0.000000 0.000000 0.000000
# 3 -0.006445 -0.001988 0.014151 0.000000 0.000000 0.000000
# 4 0.000000 0.000000 0.000000 0.056728 0.000000 0.000000
# 5 0.000000 0.000000 0.000000 0.000000 0.006888 0.000000
# 6 0.000000 0.000000 0.000000 0.000000 0.000000 0.037785
#
#
# Mechanical properties :
#
#
# Convention : Reuss Voigt Hill
#
# Bulk Modulus (GPa) = 77.06008 83.98239 80.52124
# Shear Modulus (GPa) = 31.02446 52.75975 41.89210
#
# Velocity S-wave (km/s) = 4.09761 5.34355 4.76151
# Velocity P-wave (km/s) = 8.00575 9.13906 8.59111
#
# Compressibility (1/GPa) = 0.01297689
#
# Stress axis : x y z
#
# Youngs Moduli (GPa) = 102.32776 97.24688 70.66687
#
# Poissons Ratio (x) = 0.21216 0.45546
# Poissons Ratio (y) = 0.22324 0.14049
# Poissons Ratio (z) = 0.65952 0.19333
#
# Static dielectric constant tensor:
#      x y z
#    x 1.623850 0.000000 0.000000 
#    y 0.000000 1.651470 0.000000 
#    z 0.000000 0.000000 1.609120 
# 
# From -- ./inp_files/29729.got.cif
#   From: 2010.05.17/outbox.cif.g08.bks.cpg/sg42_15_cif.got.tgz:29729.got - 2010.06.03 19:03:34.
