data_PCOD9369933
_publ_section_title
;
Structure prediction by ZEFSAII (Michael W. Deem and Ramdas Pophale) SiO2 
 PCOD9369933
Probable space group: F M M 2
;
_chemical_formula_sum "Si O2"
_cell_formula_units_Z 80
_cell_length_a 25.247763
_cell_length_b 17.579822
_cell_length_c 9.325649
_cell_angle_alpha 90.000000
_cell_angle_beta 90.000000
_cell_angle_gamma 90.000000
_cell_volume 4139.200308
_symmetry_space_group_name_H-M "F M M 2"
_symmetry_group_IT_number 42
_symmetry_cell_setting 'orthorhombic'
loop_
_space_group_symop_operation_xyz
x,y,z
-x,-y,z
-x,y,z
x,-y,z
x,1/2+y,1/2+z
-x,1/2-y,1/2+z
-x,1/2+y,1/2+z
x,1/2-y,1/2+z
1/2+x,y,1/2+z
1/2-x,-y,1/2+z
1/2-x,y,1/2+z
1/2+x,-y,1/2+z
1/2+x,1/2+y,z
1/2-x,1/2-y,z
1/2-x,1/2+y,z
1/2+x,1/2-y,z
loop_
_atom_site_type_symbol
_atom_site_label
_atom_site_fract_x
_atom_site_fract_y
_atom_site_fract_z
Si Si1 0.907801 0.838082 0.806600
Si Si2 0.500000 0.591621 0.303927
Si Si3 0.904748 0.322300 0.648923
Si Si4 0.205208 0.911161 0.836349
Si Si5 0.000000 0.588578 0.131826
Si Si6 0.220719 0.168107 0.129959
O O1 0.912656 0.759238 0.721850
O O2 0.851273 0.878428 0.787911
O O3 0.950558 0.889728 0.729269
O O4 0.915037 0.824978 0.977378
O O5 0.500000 0.500000 0.299043
O O6 0.553053 0.622136 0.225018
O O7 0.500000 0.621474 0.469452
O O8 0.841544 0.335396 0.670181
O O9 0.247746 0.896249 0.714404
O O10 0.201184 0.000000 0.876010
O O11 0.222875 0.856415 0.965236
O O12 0.000000 0.500000 0.107043
O O13 0.250000 0.250000 0.151964
#
# Coordination Sequence:
#
# PCOD9369933 Si02
#       6
#    16   8  16  16   8  16
#     4  11  23  41  65  94 130 170 228 270 335 403
#     4  11  26  45  66  99 137 175 226 283 344 403
#     4  11  24  41  69  95 130 175 221 277 331 407
#     4  11  24  40  64  98 134 173 223 281 337 394
#     4  11  24  43  66  91 131 175 216 273 340 401
#     4  11  23  42  67  94 133 179 225 274 334 405
#
# _framework density 19.327404999999999
#
# number of rings (size 3 to 8) (size 9 to 14) (size 15 to 20)
#    0.000    1.000    2.000    4.200    2.800    7.200 
#    0.000    2.000    0.000    0.000    0.000    0.000 
#    0.000    0.000    0.000    0.000    0.000    0.000 
#
# Total GULP energy -111633.252849 kJ/mol
# GULP energy per Si atom -5581.662642 kJ/mol
# Density = 1.928342 g / cm^3
# Si number density = 19.327405 Si / 1000 Ang^3
#
#
#
# Elastic Constant Matrix: (Units=GPa)
#
#
# Indices 1 2 3 4 5 6 
#
# 1 126.6174 40.2056 81.5644 0.0000 0.0000 0.0000
# 2 40.2056 100.5050 24.0555 0.0000 0.0000 0.0000
# 3 81.5644 24.0555 87.2569 0.0000 0.0000 0.0000
# 4 0.0000 0.0000 0.0000 28.4597 0.0000 0.0000
# 5 0.0000 0.0000 0.0000 0.0000 32.1410 0.0000
# 6 0.0000 0.0000 0.0000 0.0000 0.0000 34.4577
#
#
#
# Elastic Compliance Matrix: (Units=1/GPa)
#
#
# Indices 1 2 3 4 5 6 
#
# 1 0.021263 -0.004014 -0.018770 0.000000 0.000000 0.000000
# 2 -0.004014 0.011410 0.000606 0.000000 0.000000 0.000000
# 3 -0.018770 0.000606 0.028838 0.000000 0.000000 0.000000
# 4 0.000000 0.000000 0.000000 0.035137 0.000000 0.000000
# 5 0.000000 0.000000 0.000000 0.000000 0.031113 0.000000
# 6 0.000000 0.000000 0.000000 0.000000 0.000000 0.029021
#
#
# Mechanical properties :
#
#
# Convention : Reuss Voigt Hill
#
# Bulk Modulus (GPa) = 58.28263 67.33673 62.80968
# Shear Modulus (GPa) = 24.17131 30.24860 27.20995
#
# Velocity S-wave (km/s) = 3.54025 3.96038 3.75619
# Velocity P-wave (km/s) = 6.85070 7.47184 7.16800
#
# Compressibility (1/GPa) = 0.01715777
#
# Stress axis : x y z
#
# Youngs Moduli (GPa) = 47.02943 87.64032 34.67598
#
# Poissons Ratio (x) = 0.35176 0.65085
# Poissons Ratio (y) = 0.18876 -0.02102
# Poissons Ratio (z) = 0.88272 -0.05312
#
# Static dielectric constant tensor:
#      x y z
#    x 1.745300 0.000000 0.000000 
#    y 0.000000 1.678820 0.000000 
#    z 0.000000 0.000000 1.658980 
# 
# From -- ./inp_files/3538.got.cif
#   From: 2010.05.17/outbox.cif.g08.bks.cpg/sg42_2_cif.got.tgz:3538.got - 2010.06.03 19:03:34.
