data_PCOD9369467
_publ_section_title
;
Structure prediction by ZEFSAII (Michael W. Deem and Ramdas Pophale) SiO2 
 PCOD9369467
Probable space group: F M M 2
;
_chemical_formula_sum "Si O2"
_cell_formula_units_Z 64
_cell_length_a 18.793677
_cell_length_b 15.287109
_cell_length_c 11.525968
_cell_angle_alpha 90.000000
_cell_angle_beta 90.000000
_cell_angle_gamma 90.000000
_cell_volume 3311.422003
_symmetry_space_group_name_H-M "F M M 2"
_symmetry_group_IT_number 42
_symmetry_cell_setting 'orthorhombic'
loop_
_space_group_symop_operation_xyz
x,y,z
-x,-y,z
-x,y,z
x,-y,z
x,1/2+y,1/2+z
-x,1/2-y,1/2+z
-x,1/2+y,1/2+z
x,1/2-y,1/2+z
1/2+x,y,1/2+z
1/2-x,-y,1/2+z
1/2-x,y,1/2+z
1/2+x,-y,1/2+z
1/2+x,1/2+y,z
1/2-x,1/2-y,z
1/2-x,1/2+y,z
1/2+x,1/2-y,z
loop_
_atom_site_type_symbol
_atom_site_label
_atom_site_fract_x
_atom_site_fract_y
_atom_site_fract_z
Si Si1 0.250000 0.250000 0.556071
Si Si2 0.618323 0.821497 0.915744
Si Si3 0.000000 0.102076 0.584638
Si Si4 0.655466 0.599766 0.168438
Si Si5 0.500000 0.401895 0.156502
Si Si6 0.000000 0.773808 0.804717
O O1 0.309734 0.294126 0.477185
O O2 0.290158 0.174375 0.628623
O O3 0.636239 0.879397 0.802628
O O4 0.572302 0.735729 0.877554
O O5 0.567790 0.870736 0.007088
O O6 0.000000 0.154295 0.705646
O O7 0.000000 0.000000 0.606652
O O8 0.681659 0.500000 0.156204
O O9 0.578691 0.604989 0.101022
O O10 0.500000 0.500000 0.209896
O O11 0.500000 0.320442 0.241583
#
# Coordination Sequence:
#
# PCOD9369467 Si02
#       6
#     8  16   8  16   8   8
#     4  12  24  38  56  86 124 164 198 234 290 358
#     4  10  21  38  60  85 118 158 200 245 295 351
#     4  11  22  38  65  94 118 151 198 250 303 358
#     4  10  21  38  60  85 115 152 198 249 294 346
#     4   8  15  33  60  81  99 137 192 242 286 329
#     4   9  19  37  59  87 119 150 194 252 301 347
#
# _framework density 19.327044000000001
#
# number of rings (size 3 to 8) (size 9 to 14) (size 15 to 20)
#    0.000    2.000    0.000    5.250    0.000    8.000 
#    0.000    1.250    0.000    3.000    0.000    0.000 
#    0.000    0.000    0.000    0.000    0.000    0.000 
#
# Total GULP energy -89149.460809 kJ/mol
# GULP energy per Si atom -5571.841301 kJ/mol
# Density = 1.928305 g / cm^3
# Si number density = 19.327044 Si / 1000 Ang^3
#
#
#
# Elastic Constant Matrix: (Units=GPa)
#
#
# Indices 1 2 3 4 5 6 
#
# 1 138.7540 79.7121 31.5738 0.0000 0.0000 0.0000
# 2 79.7121 150.3458 69.0721 0.0000 0.0000 0.0000
# 3 31.5738 69.0721 61.7478 0.0000 0.0000 0.0000
# 4 0.0000 0.0000 0.0000 -380.2652 0.0000 0.0000
# 5 0.0000 0.0000 0.0000 0.0000 40.3909 0.0000
# 6 0.0000 0.0000 0.0000 0.0000 0.0000 11.3274
#
#
#
# Elastic Compliance Matrix: (Units=1/GPa)
#
#
# Indices 1 2 3 4 5 6 
#
# 1 0.010456 -0.006351 0.001758 0.000000 0.000000 0.000000
# 2 -0.006351 0.017542 -0.016375 0.000000 0.000000 0.000000
# 3 0.001758 -0.016375 0.033613 0.000000 0.000000 0.000000
# 4 0.000000 0.000000 0.000000 -0.002630 0.000000 0.000000
# 5 0.000000 0.000000 0.000000 0.000000 0.024758 0.000000
# 6 0.000000 0.000000 0.000000 0.000000 0.000000 0.088281
#
#
# Mechanical properties :
#
#
# Convention : Reuss Voigt Hill
#
# Bulk Modulus (GPa) = 50.82654 79.06262 64.94458
# Shear Modulus (GPa) = 22.67435 -54.34341 -15.83453
#
# Velocity S-wave (km/s) = 3.42891 -5.30838 -2.86544
# Velocity P-wave (km/s) = 6.48319 1.85062 4.76742
#
# Compressibility (1/GPa) = 0.01967476
#
# Stress axis : x y z
#
# Youngs Moduli (GPa) = 95.64240 57.00712 29.75048
#
# Poissons Ratio (x) = 0.36207 -0.05231
# Poissons Ratio (y) = 0.60745 0.48716
# Poissons Ratio (z) = -0.16817 0.93348
#
# Static dielectric constant tensor:
#      x y z
#    x 1.710640 0.000000 0.000000 
#    y 0.000000 1.655590 0.000000 
#    z 0.000000 0.000000 1.707640 
# 
# From -- ./inp_files/7542.got.cif
#   From: 2010.05.17/outbox.cif.g08.bks.cpg/sg42_4_cif.got.tgz:7542.got - 2010.06.03 19:03:34.
