data_PCOD9369446
_publ_section_title
;
Structure prediction by ZEFSAII (Michael W. Deem and Ramdas Pophale) SiO2 
 PCOD9369446
Probable space group: F M M 2
;
_chemical_formula_sum "Si O2"
_cell_formula_units_Z 112
_cell_length_a 23.893971
_cell_length_b 14.994524
_cell_length_c 14.572492
_cell_angle_alpha 90.000000
_cell_angle_beta 90.000000
_cell_angle_gamma 90.000000
_cell_volume 5221.013805
_symmetry_space_group_name_H-M "F M M 2"
_symmetry_group_IT_number 42
_symmetry_cell_setting 'orthorhombic'
loop_
_space_group_symop_operation_xyz
x,y,z
-x,-y,z
-x,y,z
x,-y,z
x,1/2+y,1/2+z
-x,1/2-y,1/2+z
-x,1/2+y,1/2+z
x,1/2-y,1/2+z
1/2+x,y,1/2+z
1/2-x,-y,1/2+z
1/2-x,y,1/2+z
1/2+x,-y,1/2+z
1/2+x,1/2+y,z
1/2-x,1/2-y,z
1/2-x,1/2+y,z
1/2+x,1/2-y,z
loop_
_atom_site_type_symbol
_atom_site_label
_atom_site_fract_x
_atom_site_fract_y
_atom_site_fract_z
Si Si1 0.614303 0.894130 0.038000
Si Si2 0.936413 0.253036 0.661730
Si Si3 0.160486 0.902586 0.877636
Si Si4 0.383544 0.207896 0.844801
Si Si5 0.861956 0.592518 0.582795
Si Si6 0.737095 0.851236 0.106217
Si Si7 0.229517 0.895992 0.299990
O O1 0.583431 0.843830 0.123117
O O2 0.680900 0.885639 0.059436
O O3 0.600843 0.000000 0.029108
O O4 0.602628 0.837803 0.943469
O O5 0.931584 0.283047 0.768299
O O6 0.892193 0.320526 0.617310
O O7 0.000000 0.266022 0.630981
O O8 0.136456 0.810133 0.844419
O O9 0.227860 0.889429 0.885392
O O10 0.153650 0.000000 0.829393
O O11 0.130799 0.911063 0.974738
O O12 0.328880 0.153458 0.810128
O O13 0.882903 0.500000 0.625906
O O14 0.795343 0.598058 0.593763
O O15 0.750000 0.750000 0.078187
O O16 0.732742 0.857601 0.217000
O O17 0.218198 0.000000 0.285475
#
# Coordination Sequence:
#
# PCOD9369446 Si02
#       7
#    16  16  16  16  16  16  16
#     4  12  26  46  74 110 148 189 241 300 373 448
#     4  12  28  49  72  98 135 189 247 302 362 424
#     4  10  21  37  62  97 133 174 220 274 341 423
#     4  12  23  43  68 101 138 187 237 300 356 425
#     4  11  22  42  67  96 134 175 225 283 343 414
#     4  12  20  37  66 104 148 192 223 280 356 439
#     4  11  21  33  58 102 149 185 226 278 351 440
#
# _framework density 21.451771999999998
#
# number of rings (size 3 to 8) (size 9 to 14) (size 15 to 20)
#    0.000    0.571    4.286    4.714    0.000    4.571 
#    0.000    0.000    0.000    0.000    0.000    0.000 
#    0.000    0.000    0.000    0.000    0.000    0.000 
#
# Total GULP energy -156109.579097 kJ/mol
# GULP energy per Si atom -5575.342111 kJ/mol
# Density = 2.140295 g / cm^3
# Si number density = 21.451772 Si / 1000 Ang^3
#
#
#
# Elastic Constant Matrix: (Units=GPa)
#
#
# Indices 1 2 3 4 5 6 
#
# 1 56.5042 6.2065 17.2601 0.0000 0.0000 0.0000
# 2 6.2065 127.8844 19.7688 0.0000 0.0000 0.0000
# 3 17.2601 19.7688 70.1319 0.0000 0.0000 0.0000
# 4 0.0000 0.0000 0.0000 -1.3589 0.0000 0.0000
# 5 0.0000 0.0000 0.0000 0.0000 11.8085 0.0000
# 6 0.0000 0.0000 0.0000 0.0000 0.0000 -15.4934
#
#
#
# Elastic Compliance Matrix: (Units=1/GPa)
#
#
# Indices 1 2 3 4 5 6 
#
# 1 0.019142 -0.000210 -0.004652 0.000000 0.000000 0.000000
# 2 -0.000210 0.008178 -0.002254 0.000000 0.000000 0.000000
# 3 -0.004652 -0.002254 0.016039 0.000000 0.000000 0.000000
# 4 0.000000 0.000000 0.000000 -0.735895 0.000000 0.000000
# 5 0.000000 0.000000 0.000000 0.000000 0.084685 0.000000
# 6 0.000000 0.000000 0.000000 0.000000 0.000000 -0.064544
#
#
# Mechanical properties :
#
#
# Convention : Reuss Voigt Hill
#
# Bulk Modulus (GPa) = 34.33088 37.88790 36.10939
# Shear Modulus (GPa) = -7.71064 13.07691 2.68313
#
# Velocity S-wave (km/s) = -1.89795 2.47168 1.11959
# Velocity P-wave (km/s) = 3.35195 5.08388 4.30589
#
# Compressibility (1/GPa) = 0.02912829
#
# Stress axis : x y z
#
# Youngs Moduli (GPa) = 52.24164 122.27751 62.34824
#
# Poissons Ratio (x) = 0.02567 0.29003
# Poissons Ratio (y) = 0.01097 0.14051
# Poissons Ratio (z) = 0.24302 0.27556
#
# Static dielectric constant tensor:
#      x y z
#    x 1.735120 0.000000 0.000000 
#    y 0.000000 1.997510 0.000000 
#    z 0.000000 0.000000 1.962860 
# 
# From -- ./inp_files/16562.got.cif
#   From: 2010.05.17/outbox.cif.g08.bks.cpg/sg42_9_cif.got.tgz:16562.got - 2010.06.03 19:03:34.
