data_PCOD9369982
_publ_section_title
;
Structure prediction by ZEFSAII (Michael W. Deem and Ramdas Pophale) SiO2 
 PCOD9369982
Probable space group: F M M 2
;
_chemical_formula_sum "Si O2"
_cell_formula_units_Z 64
_cell_length_a 14.477791
_cell_length_b 22.690183
_cell_length_c 8.093214
_cell_angle_alpha 90.000000
_cell_angle_beta 90.000000
_cell_angle_gamma 90.000000
_cell_volume 2658.650964
_symmetry_space_group_name_H-M "F M M 2"
_symmetry_group_IT_number 42
_symmetry_cell_setting 'orthorhombic'
loop_
_space_group_symop_operation_xyz
x,y,z
-x,-y,z
-x,y,z
x,-y,z
x,1/2+y,1/2+z
-x,1/2-y,1/2+z
-x,1/2+y,1/2+z
x,1/2-y,1/2+z
1/2+x,y,1/2+z
1/2-x,-y,1/2+z
1/2-x,y,1/2+z
1/2+x,-y,1/2+z
1/2+x,1/2+y,z
1/2-x,1/2-y,z
1/2-x,1/2+y,z
1/2+x,1/2-y,z
loop_
_atom_site_type_symbol
_atom_site_label
_atom_site_fract_x
_atom_site_fract_y
_atom_site_fract_z
Si Si1 0.645688 0.729232 0.358190
Si Si2 0.890964 0.393184 0.715634
Si Si3 0.600943 0.160395 0.190559
Si Si4 0.782478 0.568554 0.384519
O O1 0.750000 0.750000 0.334752
O O2 0.617434 0.677662 0.231687
O O3 0.593801 0.790197 0.332874
O O4 0.632635 0.698522 0.534092
O O5 0.837952 0.416284 0.552490
O O6 0.827269 0.417928 0.866548
O O7 0.000000 0.408918 0.718240
O O8 0.500000 0.135003 0.155967
O O9 0.670849 0.111167 0.250090
O O10 0.795690 0.500000 0.348286
#
# Coordination Sequence:
#
# PCOD9369982 Si02
#       4
#    16  16  16  16
#     4  12  25  46  75 112 155 196 254 324 398 465
#     4  12  27  51  82 116 155 206 262 323 395 461
#     4  12  25  44  75 114 156 203 258 320 392 467
#     4  12  28  50  79 114 156 210 266 321 381 462
#
# _framework density 24.072357
#
# number of rings (size 3 to 8) (size 9 to 14) (size 15 to 20)
#    0.000    0.000    2.500    7.500    0.000    3.500 
#    0.000    2.500    0.000   12.000    0.000    0.000 
#    0.000    0.000    0.000    0.000    0.000    0.000 
#
# Total GULP energy -89569.429059 kJ/mol
# GULP energy per Si atom -5598.089316 kJ/mol
# Density = 2.401757 g / cm^3
# Si number density = 24.072357 Si / 1000 Ang^3
#
#
#
# Elastic Constant Matrix: (Units=GPa)
#
#
# Indices 1 2 3 4 5 6 
#
# 1 237.1538 59.6442 46.2448 0.0000 0.0000 0.0000
# 2 59.6442 172.9796 48.1038 0.0000 0.0000 0.0000
# 3 46.2448 48.1038 120.6335 0.0000 0.0000 0.0000
# 4 0.0000 0.0000 0.0000 28.4258 0.0000 0.0000
# 5 0.0000 0.0000 0.0000 0.0000 41.2137 0.0000
# 6 0.0000 0.0000 0.0000 0.0000 0.0000 -9.1561
#
#
#
# Elastic Compliance Matrix: (Units=1/GPa)
#
#
# Indices 1 2 3 4 5 6 
#
# 1 0.004799 -0.001286 -0.001327 0.000000 0.000000 0.000000
# 2 -0.001286 0.006846 -0.002237 0.000000 0.000000 0.000000
# 3 -0.001327 -0.002237 0.009690 0.000000 0.000000 0.000000
# 4 0.000000 0.000000 0.000000 0.035179 0.000000 0.000000
# 5 0.000000 0.000000 0.000000 0.000000 0.024264 0.000000
# 6 0.000000 0.000000 0.000000 0.000000 0.000000 -0.109216
#
#
# Mechanical properties :
#
#
# Convention : Reuss Voigt Hill
#
# Bulk Modulus (GPa) = 85.94044 93.19471 89.56758
# Shear Modulus (GPa) = -336.48908 37.21493 -149.63708
#
# Velocity S-wave (km/s) = -11.83579 3.93614 -7.89280
# Velocity P-wave (km/s) = 12.28832 7.71077 6.76560
#
# Compressibility (1/GPa) = 0.01163597
#
# Stress axis : x y z
#
# Youngs Moduli (GPa) = 208.38708 146.06048 103.19506
#
# Poissons Ratio (x) = 0.18778 0.13693
# Poissons Ratio (y) = 0.26791 0.23087
# Poissons Ratio (z) = 0.27652 0.32677
#
# Static dielectric constant tensor:
#      x y z
#    x 1.739050 0.000000 0.000000 
#    y 0.000000 1.881070 0.000000 
#    z 0.000000 0.000000 2.033060 
# 
# From -- ./inp_files/2684.got.cif
#   From: 2010.05.17/outbox.cif.g08.bks.cpg/sg42_2_cif.got.tgz:2684.got - 2010.06.03 19:03:34.
