data_PCOD9369171
_publ_section_title
;
Structure prediction by ZEFSAII (Michael W. Deem and Ramdas Pophale) SiO2 
 PCOD9369171
Probable space group: F M M 2
;
_chemical_formula_sum "Si O2"
_cell_formula_units_Z 72
_cell_length_a 17.185248
_cell_length_b 16.035460
_cell_length_c 14.373261
_cell_angle_alpha 90.000000
_cell_angle_beta 90.000000
_cell_angle_gamma 90.000000
_cell_volume 3960.887783
_symmetry_space_group_name_H-M "F M M 2"
_symmetry_group_IT_number 42
_symmetry_cell_setting 'orthorhombic'
loop_
_space_group_symop_operation_xyz
x,y,z
-x,-y,z
-x,y,z
x,-y,z
x,1/2+y,1/2+z
-x,1/2-y,1/2+z
-x,1/2+y,1/2+z
x,1/2-y,1/2+z
1/2+x,y,1/2+z
1/2-x,-y,1/2+z
1/2-x,y,1/2+z
1/2+x,-y,1/2+z
1/2+x,1/2+y,z
1/2-x,1/2-y,z
1/2-x,1/2+y,z
1/2+x,1/2-y,z
loop_
_atom_site_type_symbol
_atom_site_label
_atom_site_fract_x
_atom_site_fract_y
_atom_site_fract_z
Si Si1 0.907568 0.163896 0.630780
Si Si2 0.245255 0.000000 0.863314
Si Si3 0.827030 0.000000 0.549562
Si Si4 0.349312 0.500000 0.042862
Si Si5 0.190948 0.326223 0.315392
Si Si6 0.091126 0.174402 0.004573
O O1 0.869747 0.082717 0.583372
O O2 0.870006 0.174840 0.731703
O O3 0.892121 0.246150 0.569292
O O4 0.000000 0.152592 0.637583
O O5 0.169413 0.000000 0.931632
O O6 0.238186 0.913496 0.810182
O O7 0.315525 0.000000 0.937548
O O8 0.737373 0.000000 0.585261
O O9 0.392072 0.412729 0.058305
O O10 0.250000 0.250000 0.307957
O O11 0.146058 0.321109 0.414050
O O12 0.000000 0.175995 0.978095
#
# Coordination Sequence:
#
# PCOD9369171 Si02
#       6
#    16   8   8   8  16  16
#     4  11  24  38  59  89 122 162 202 250 310 362
#     4   8  19  36  53  87 111 148 195 240 296 347
#     4  10  20  37  61  82 116 151 197 247 297 356
#     4   8  19  33  62  83 111 153 192 243 301 351
#     4  11  22  36  60  87 121 158 203 251 300 360
#     4  10  21  39  60  86 121 157 199 253 308 365
#
# _framework density 18.177744000000001
#
# number of rings (size 3 to 8) (size 9 to 14) (size 15 to 20)
#    0.667    1.333    0.000    3.333    3.111    0.000 
#    0.000    3.333    0.000    0.000    0.000    6.222 
#    0.000    0.000    0.000    0.000    0.000    0.000 
#
# Total GULP energy -100361.101485 kJ/mol
# GULP energy per Si atom -5575.616749 kJ/mol
# Density = 1.813637 g / cm^3
# Si number density = 18.177744 Si / 1000 Ang^3
#
#
#
# Elastic Constant Matrix: (Units=GPa)
#
#
# Indices 1 2 3 4 5 6 
#
# 1 81.1891 68.1026 52.1894 0.0000 0.0000 0.0000
# 2 68.1026 174.9365 50.5476 0.0000 0.0000 0.0000
# 3 52.1894 50.5476 82.5701 0.0000 0.0000 0.0000
# 4 0.0000 0.0000 0.0000 11.2537 0.0000 0.0000
# 5 0.0000 0.0000 0.0000 0.0000 35.8851 0.0000
# 6 0.0000 0.0000 0.0000 0.0000 0.0000 36.8859
#
#
#
# Elastic Compliance Matrix: (Units=1/GPa)
#
#
# Indices 1 2 3 4 5 6 
#
# 1 0.025559 -0.006417 -0.012226 0.000000 0.000000 0.000000
# 2 -0.006417 0.008556 -0.001182 0.000000 0.000000 0.000000
# 3 -0.012226 -0.001182 0.020562 0.000000 0.000000 0.000000
# 4 0.000000 0.000000 0.000000 0.088860 0.000000 0.000000
# 5 0.000000 0.000000 0.000000 0.000000 0.027867 0.000000
# 6 0.000000 0.000000 0.000000 0.000000 0.000000 0.027111
#
#
# Mechanical properties :
#
#
# Convention : Reuss Voigt Hill
#
# Bulk Modulus (GPa) = 66.54897 75.59721 71.07309
# Shear Modulus (GPa) = 20.56138 27.99536 24.27837
#
# Velocity S-wave (km/s) = 3.36688 3.92866 3.65856
# Velocity P-wave (km/s) = 7.19751 7.89032 7.55186
#
# Compressibility (1/GPa) = 0.01502653
#
# Stress axis : x y z
#
# Youngs Moduli (GPa) = 39.12488 116.87597 48.63306
#
# Poissons Ratio (x) = 0.75004 0.59461
# Poissons Ratio (y) = 0.25108 0.05747
# Poissons Ratio (z) = 0.47836 0.13811
#
# Static dielectric constant tensor:
#      x y z
#    x 1.601740 0.000000 0.000000 
#    y 0.000000 1.626220 0.000000 
#    z 0.000000 0.000000 1.617080 
# 
# From -- ./inp_files/14899.got.cif
#   From: 2010.05.17/outbox.cif.g08.bks.cpg/sg42_8_cif.got.tgz:14899.got - 2010.06.03 19:03:34.
