data_PCOD9369509
_publ_section_title
;
Structure prediction by ZEFSAII (Michael W. Deem and Ramdas Pophale) SiO2 
 PCOD9369509
Probable space group: F M M 2
;
_chemical_formula_sum "Si O2"
_cell_formula_units_Z 116
_cell_length_a 30.512235
_cell_length_b 7.884122
_cell_length_c 24.064122
_cell_angle_alpha 90.000000
_cell_angle_beta 90.000000
_cell_angle_gamma 90.000000
_cell_volume 5788.917726
_symmetry_space_group_name_H-M "F M M 2"
_symmetry_group_IT_number 42
_symmetry_cell_setting 'orthorhombic'
loop_
_space_group_symop_operation_xyz
x,y,z
-x,-y,z
-x,y,z
x,-y,z
x,1/2+y,1/2+z
-x,1/2-y,1/2+z
-x,1/2+y,1/2+z
x,1/2-y,1/2+z
1/2+x,y,1/2+z
1/2-x,-y,1/2+z
1/2-x,y,1/2+z
1/2+x,-y,1/2+z
1/2+x,1/2+y,z
1/2-x,1/2-y,z
1/2-x,1/2+y,z
1/2+x,1/2-y,z
loop_
_atom_site_type_symbol
_atom_site_label
_atom_site_fract_x
_atom_site_fract_y
_atom_site_fract_z
Si Si1 0.123449 0.691941 0.217740
Si Si2 0.575013 0.700307 0.828538
Si Si3 0.699275 0.202573 0.515518
Si Si4 0.950832 0.203385 0.136733
Si Si5 0.373575 0.811014 0.929493
Si Si6 0.299939 0.199347 0.639115
Si Si7 0.500000 0.000000 0.843310
Si Si8 0.950963 0.296292 0.505383
O O1 0.134308 0.500000 0.231847
O O2 0.100451 0.761217 0.272977
O O3 0.086045 0.704503 0.170923
O O4 0.166578 0.763740 0.188468
O O5 0.559626 0.500000 0.821535
O O6 0.610403 0.698642 0.878324
O O7 0.538361 0.844686 0.841454
O O8 0.750000 0.250000 0.507260
O O9 0.668578 0.265614 0.466108
O O10 0.686970 0.270416 0.577707
O O11 0.694750 0.000000 0.515746
O O12 0.947732 0.236023 0.071089
O O13 0.000000 0.248889 0.155360
O O14 0.945650 0.000000 0.144327
O O15 0.368093 0.000000 0.907811
O O16 0.414013 0.798710 0.972315
O O17 0.250000 0.250000 0.651026
O O18 0.300085 0.000000 0.631471
O O19 0.946001 0.500000 0.497622
O O20 0.000000 0.249074 0.486645
#
# Coordination Sequence:
#
# PCOD9369509 Si02
#       8
#    16  16  16  16  16  16   4  16
#     4  11  24  39  59  87 123 162 207 262 318 375
#     4  11  27  46  66  96 130 170 223 275 322 382
#     4  10  21  39  64  96 128 166 208 262 328 390
#     4   9  19  34  55  81 114 155 200 248 311 377
#     4  12  24  39  60  89 123 166 214 265 318 383
#     4  10  21  38  65  95 128 165 208 259 324 389
#     4  12  26  48  72  94 124 172 230 268 332 376
#     4   9  19  35  54  81 115 156 199 251 316 376
#
# _framework density 20.038287
#
# number of rings (size 3 to 8) (size 9 to 14) (size 15 to 20)
#    0.000    1.655    0.690    4.345    3.862    6.069 
#    0.000    2.069    0.000    3.310    0.000    0.000 
#    0.000    0.000    0.000    0.000    0.000    0.000 
#
# Total GULP energy -161554.360945 kJ/mol
# GULP energy per Si atom -5570.840033 kJ/mol
# Density = 1.999268 g / cm^3
# Si number density = 20.038287 Si / 1000 Ang^3
#
#
#
# Elastic Constant Matrix: (Units=GPa)
#
#
# Indices 1 2 3 4 5 6 
#
# 1 79.0920 16.3960 43.5808 0.0000 -0.0002 0.0000
# 2 16.3960 62.3500 14.1191 0.0000 -0.0002 -0.0001
# 3 43.5808 14.1191 54.9238 0.0000 0.0000 0.0000
# 4 0.0000 0.0000 0.0000 20.7808 0.0000 0.0000
# 5 -0.0002 -0.0002 0.0000 0.0000 -59.7885 0.0001
# 6 0.0000 -0.0001 0.0000 0.0000 0.0001 53.0594
#
#
#
# Elastic Compliance Matrix: (Units=1/GPa)
#
#
# Indices 1 2 3 4 5 6 
#
# 1 0.022700 -0.002007 -0.017496 0.000000 0.000000 0.000000
# 2 -0.002007 0.017207 -0.002831 0.000000 0.000000 0.000000
# 3 -0.017496 -0.002831 0.032817 0.000000 0.000000 0.000000
# 4 0.000000 0.000000 0.000000 0.048121 0.000000 0.000000
# 5 0.000000 0.000000 0.000000 0.000000 -0.016726 0.000000
# 6 0.000000 0.000000 0.000000 0.000000 0.000000 0.018847
#
#
# Mechanical properties :
#
#
# Convention : Reuss Voigt Hill
#
# Bulk Modulus (GPa) = 35.64198 38.28419 36.96308
# Shear Modulus (GPa) = 28.25048 10.96166 19.60607
#
# Velocity S-wave (km/s) = 3.75884 2.34142 3.13138
# Velocity P-wave (km/s) = 6.05508 5.14360 5.61786
#
# Compressibility (1/GPa) = 0.02805681
#
# Stress axis : x y z
#
# Youngs Moduli (GPa) = 44.05234 58.11465 30.47156
#
# Poissons Ratio (x) = 0.11666 0.53313
# Poissons Ratio (y) = 0.08843 0.08625
# Poissons Ratio (z) = 0.77074 0.16450
#
# Static dielectric constant tensor:
#      x y z
#    x 1.651800 0.000000 0.000000 
#    y 0.000000 1.756120 0.000000 
#    z 0.000000 0.000000 1.757820 
# 
# From -- ./inp_files/30717.got.cif
#   From: 2010.05.17/outbox.cif.g08.bks.cpg/sg42_16_cif.got.tgz:30717.got - 2010.06.03 19:03:34.
