data_PCOD9369669
_publ_section_title
;
Structure prediction by ZEFSAII (Michael W. Deem and Ramdas Pophale) SiO2 
 PCOD9369669
Probable space group: F M M 2
;
_chemical_formula_sum "Si O2"
_cell_formula_units_Z 84
_cell_length_a 7.833270
_cell_length_b 27.636728
_cell_length_c 20.174616
_cell_angle_alpha 90.000000
_cell_angle_beta 90.000000
_cell_angle_gamma 90.000000
_cell_volume 4367.520958
_symmetry_space_group_name_H-M "F M M 2"
_symmetry_group_IT_number 42
_symmetry_cell_setting 'orthorhombic'
loop_
_space_group_symop_operation_xyz
x,y,z
-x,-y,z
-x,y,z
x,-y,z
x,1/2+y,1/2+z
-x,1/2-y,1/2+z
-x,1/2+y,1/2+z
x,1/2-y,1/2+z
1/2+x,y,1/2+z
1/2-x,-y,1/2+z
1/2-x,y,1/2+z
1/2+x,-y,1/2+z
1/2+x,1/2+y,z
1/2-x,1/2-y,z
1/2-x,1/2+y,z
1/2+x,1/2-y,z
loop_
_atom_site_type_symbol
_atom_site_label
_atom_site_fract_x
_atom_site_fract_y
_atom_site_fract_z
Si Si1 0.794393 0.500000 0.035671
Si Si2 0.697730 0.384775 0.245310
Si Si3 0.000000 0.447520 0.297530
Si Si4 0.293855 0.693724 0.496847
Si Si5 0.500000 0.000000 0.428209
Si Si6 0.203374 0.195440 0.347670
Si Si7 0.293887 0.606851 0.594576
O O1 0.755287 0.551210 0.072793
O O2 0.000000 0.500000 0.021458
O O3 0.669853 0.500000 0.972302
O O4 0.500000 0.395314 0.260343
O O5 0.828203 0.423540 0.273159
O O6 0.754050 0.337602 0.286449
O O7 0.720114 0.381784 0.166759
O O8 0.000000 0.455165 0.376716
O O9 0.000000 0.500000 0.265707
O O10 0.500000 0.691787 0.496512
O O11 0.250000 0.750000 0.514383
O O12 0.228833 0.684290 0.421639
O O13 0.236725 0.649685 0.544321
O O14 0.250000 0.250000 0.333093
O O15 0.000000 0.191239 0.352824
O O16 0.500000 0.609297 0.598746
#
# Coordination Sequence:
#
# PCOD9369669 Si02
#       7
#     8  16   8  16   4  16  16
#     4  10  24  43  65  93 131 163 201 266 319 363
#     4  11  24  41  64  94 126 170 211 258 318 378
#     4  10  26  44  64  92 129 157 213 265 313 373
#     4   9  19  37  59  89 123 162 205 261 315 370
#     4  10  26  44  64 104 114 162 224 244 316 396
#     4   9  20  37  60  91 122 162 211 258 320 376
#     4  10  22  40  64  89 128 168 210 259 315 374
#
# _framework density 19.232879000000001
#
# number of rings (size 3 to 8) (size 9 to 14) (size 15 to 20)
#    0.286    1.905    0.952    0.000    6.667    2.667 
#    0.000    3.810    0.000    0.000    0.000    0.000 
#    0.000    0.000    0.000    0.000    0.000    0.000 
#
# Total GULP energy -117008.560468 kJ/mol
# GULP energy per Si atom -5571.836213 kJ/mol
# Density = 1.918910 g / cm^3
# Si number density = 19.232879 Si / 1000 Ang^3
#
#
#
# Elastic Constant Matrix: (Units=GPa)
#
#
# Indices 1 2 3 4 5 6 
#
# 1 55.6176 46.1602 53.4327 0.0000 0.0000 0.0000
# 2 46.1602 165.1303 114.9463 0.0000 0.0000 0.0000
# 3 53.4327 114.9463 148.5646 0.0000 0.0000 0.0000
# 4 0.0000 0.0000 0.0000 85.5400 0.0000 0.0000
# 5 0.0000 0.0000 0.0000 0.0000 -3.3566 0.0000
# 6 0.0000 0.0000 0.0000 0.0000 0.0000 69.5093
#
#
#
# Elastic Compliance Matrix: (Units=1/GPa)
#
#
# Indices 1 2 3 4 5 6 
#
# 1 0.027704 -0.001752 -0.008609 0.000000 0.000000 0.000000
# 2 -0.001752 0.013235 -0.009610 0.000000 0.000000 0.000000
# 3 -0.008609 -0.009610 0.017263 0.000000 0.000000 0.000000
# 4 0.000000 0.000000 0.000000 0.011690 0.000000 0.000000
# 5 0.000000 0.000000 0.000000 0.000000 -0.297917 0.000000
# 6 0.000000 0.000000 0.000000 0.000000 0.000000 0.014387
#
#
# Mechanical properties :
#
#
# Convention : Reuss Voigt Hill
#
# Bulk Modulus (GPa) = 54.76190 88.71007 71.73599
# Shear Modulus (GPa) = -29.83128 40.65674 5.41273
#
# Velocity S-wave (km/s) = -3.94262 4.60273 1.67941
# Velocity P-wave (km/s) = 2.79450 8.62966 6.41406
#
# Compressibility (1/GPa) = 0.01826087
#
# Stress axis : x y z
#
# Youngs Moduli (GPa) = 36.09524 75.55703 57.92871
#
# Poissons Ratio (x) = 0.13238 0.49869
# Poissons Ratio (y) = 0.06324 0.55669
# Poissons Ratio (z) = 0.31073 0.72610
#
# Static dielectric constant tensor:
#      x y z
#    x 1.664060 0.000000 0.000000 
#    y 0.000000 1.641250 0.000000 
#    z 0.000000 0.000000 1.679180 
# 
# From -- ./inp_files/23490.got.cif
#   From: 2010.05.17/outbox.cif.g08.bks.cpg/sg42_12_cif.got.tgz:23490.got - 2010.06.03 19:03:34.
