data_PCOD9369665
_publ_section_title
;
Structure prediction by ZEFSAII (Michael W. Deem and Ramdas Pophale) SiO2 
 PCOD9369665
Probable space group: F M M 2
;
_chemical_formula_sum "Si O2"
_cell_formula_units_Z 96
_cell_length_a 24.069769
_cell_length_b 8.600645
_cell_length_c 25.626081
_cell_angle_alpha 90.000000
_cell_angle_beta 90.000000
_cell_angle_gamma 90.000000
_cell_volume 5304.996955
_symmetry_space_group_name_H-M "F M M 2"
_symmetry_group_IT_number 42
_symmetry_cell_setting 'orthorhombic'
loop_
_space_group_symop_operation_xyz
x,y,z
-x,-y,z
-x,y,z
x,-y,z
x,1/2+y,1/2+z
-x,1/2-y,1/2+z
-x,1/2+y,1/2+z
x,1/2-y,1/2+z
1/2+x,y,1/2+z
1/2-x,-y,1/2+z
1/2-x,y,1/2+z
1/2+x,-y,1/2+z
1/2+x,1/2+y,z
1/2-x,1/2-y,z
1/2-x,1/2+y,z
1/2+x,1/2-y,z
loop_
_atom_site_type_symbol
_atom_site_label
_atom_site_fract_x
_atom_site_fract_y
_atom_site_fract_z
Si Si1 0.189490 0.185801 0.991140
Si Si2 0.000000 0.814565 0.246463
Si Si3 0.117486 0.313986 0.281613
Si Si4 0.379952 0.313353 0.585124
Si Si5 0.312390 0.186338 0.684097
Si Si6 0.310968 0.186163 0.874895
Si Si7 0.500000 0.186811 0.129061
O O1 0.250000 0.250000 0.008203
O O2 0.178873 0.255084 0.933729
O O3 0.192168 0.000000 0.988131
O O4 0.143743 0.240192 0.032350
O O5 0.055136 0.744938 0.272415
O O6 0.000000 0.767829 0.185356
O O7 0.000000 0.000000 0.251000
O O8 0.119128 0.500000 0.280217
O O9 0.154362 0.246910 0.234336
O O10 0.143914 0.251856 0.335033
O O11 0.374872 0.500000 0.582623
O O12 0.343339 0.249953 0.632944
O O13 0.443951 0.274293 0.597879
O O14 0.250000 0.250000 0.685471
O O15 0.312173 0.000000 0.683569
O O16 0.250000 0.250000 0.859443
O O17 0.310081 0.000000 0.873697
O O18 0.500000 0.000000 0.138227
#
# Coordination Sequence:
#
# PCOD9369665 Si02
#       7
#    16   8  16  16  16  16   8
#     4  11  22  39  62  90 122 160 202 249 305 363
#     4  12  24  40  63  90 121 160 206 250 300 360
#     4  12  24  41  62  88 122 160 202 249 302 360
#     4  11  22  39  61  88 120 158 202 250 303 361
#     4  12  24  38  57  87 121 157 197 248 305 363
#     4  11  22  40  64  92 123 159 202 250 306 365
#     4  10  22  40  63  86 119 162 204 246 302 360
#
# _framework density 18.096145
#
# number of rings (size 3 to 8) (size 9 to 14) (size 15 to 20)
#    0.000    0.667    1.667    9.250    0.000    0.667 
#    0.000    0.833    0.000    1.000    0.000    0.000 
#    0.000    0.000    0.000    0.000    0.000    0.000 
#
# Total GULP energy -134317.888235 kJ/mol
# GULP energy per Si atom -5596.578676 kJ/mol
# Density = 1.805496 g / cm^3
# Si number density = 18.096145 Si / 1000 Ang^3
#
#
#
# Elastic Constant Matrix: (Units=GPa)
#
#
# Indices 1 2 3 4 5 6 
#
# 1 172.7129 62.6401 78.1331 0.0000 0.0007 0.0000
# 2 62.6401 140.6064 38.9115 0.0000 0.0013 0.0000
# 3 78.1331 38.9115 89.4812 0.0000 0.0005 0.0000
# 4 0.0000 0.0000 0.0000 34.6831 0.0002 0.0000
# 5 0.0007 0.0013 0.0005 0.0002 -137.3794 -0.0001
# 6 0.0000 0.0000 0.0000 0.0000 -0.0001 27.7219
#
#
#
# Elastic Compliance Matrix: (Units=1/GPa)
#
#
# Indices 1 2 3 4 5 6 
#
# 1 0.010220 -0.002368 -0.007894 0.000000 0.000000 0.000000
# 2 -0.002368 0.008634 -0.001686 0.000000 0.000000 0.000000
# 3 -0.007894 -0.001686 0.018802 0.000000 0.000000 0.000000
# 4 0.000000 0.000000 0.000000 0.028832 0.000000 0.000000
# 5 0.000000 0.000000 0.000000 0.000000 -0.007279 0.000000
# 6 0.000000 0.000000 0.000000 0.000000 0.000000 0.036073
#
#
# Mechanical properties :
#
#
# Convention : Reuss Voigt Hill
#
# Bulk Modulus (GPa) = 72.68521 84.68555 78.68538
# Shear Modulus (GPa) = 40.39890 -0.12050 20.13920
#
# Velocity S-wave (km/s) = 4.73002 -0.25833 3.33963
# Velocity P-wave (km/s) = 8.37162 6.84180 7.64507
#
# Compressibility (1/GPa) = 0.01375796
#
# Stress axis : x y z
#
# Youngs Moduli (GPa) = 97.84614 115.82248 53.18633
#
# Poissons Ratio (x) = 0.27432 0.41986
# Poissons Ratio (y) = 0.23174 0.08970
# Poissons Ratio (z) = 0.77240 0.19533
#
# Static dielectric constant tensor:
#      x y z
#    x 1.639810 0.000000 0.000000 
#    y 0.000000 1.601890 0.000000 
#    z 0.000000 0.000000 1.594060 
# 
# From -- ./inp_files/30460.got.cif
#   From: 2010.05.17/outbox.cif.g08.bks.cpg/sg42_16_cif.got.tgz:30460.got - 2010.06.03 19:03:34.
