data_PCOD9369209
_publ_section_title
;
Structure prediction by ZEFSAII (Michael W. Deem and Ramdas Pophale) SiO2 
 PCOD9369209
Probable space group: F M M 2
;
_chemical_formula_sum "Si O2"
_cell_formula_units_Z 96
_cell_length_a 11.062257
_cell_length_b 28.217090
_cell_length_c 15.081077
_cell_angle_alpha 90.000000
_cell_angle_beta 90.000000
_cell_angle_gamma 90.000000
_cell_volume 4707.478277
_symmetry_space_group_name_H-M "F M M 2"
_symmetry_group_IT_number 42
_symmetry_cell_setting 'orthorhombic'
loop_
_space_group_symop_operation_xyz
x,y,z
-x,-y,z
-x,y,z
x,-y,z
x,1/2+y,1/2+z
-x,1/2-y,1/2+z
-x,1/2+y,1/2+z
x,1/2-y,1/2+z
1/2+x,y,1/2+z
1/2-x,-y,1/2+z
1/2-x,y,1/2+z
1/2+x,-y,1/2+z
1/2+x,1/2+y,z
1/2-x,1/2-y,z
1/2-x,1/2+y,z
1/2+x,1/2-y,z
loop_
_atom_site_type_symbol
_atom_site_label
_atom_site_fract_x
_atom_site_fract_y
_atom_site_fract_z
Si Si1 0.500000 0.445427 0.657808
Si Si2 0.745058 0.694032 0.882996
Si Si3 0.721026 0.694826 0.691405
Si Si4 0.500000 0.655080 0.582105
Si Si5 0.500000 0.445031 0.289400
Si Si6 0.500000 0.346150 0.377626
Si Si7 0.142531 0.861172 0.054222
Si Si8 0.769532 0.945667 0.160679
O O1 0.500000 0.500000 0.624737
O O2 0.500000 0.401675 0.590908
O O3 0.633933 0.439412 0.701485
O O4 0.750000 0.750000 0.904660
O O5 0.674479 0.684970 0.791323
O O6 0.876502 0.677680 0.847666
O O7 0.698484 0.664845 0.967826
O O8 0.750000 0.750000 0.688093
O O9 0.615049 0.677962 0.627543
O O10 0.834021 0.668531 0.644669
O O11 0.500000 0.666087 0.480409
O O12 0.500000 0.500000 0.321386
O O13 0.500000 0.402078 0.358505
O O14 0.379191 0.438501 0.229639
O O15 0.208269 0.910475 0.078680
O O16 0.000000 0.867956 0.040679
O O17 0.777748 0.000000 0.130861
#
# Coordination Sequence:
#
# PCOD9369209 Si02
#       8
#     8  16  16   8   8   8  16  16
#     4  10  20  37  65  95 131 171 218 275 345 407
#     4  11  27  43  64  97 135 178 230 287 342 408
#     4  11  26  43  64  94 131 179 224 277 340 403
#     4  12  24  42  66  94 134 174 222 279 340 412
#     4  10  22  41  69 105 140 179 235 289 343 416
#     4  12  24  42  68  94 135 176 229 285 342 409
#     4  12  24  41  68  98 131 177 225 280 344 403
#     4  10  20  39  67 103 138 178 227 285 346 414
#
# _framework density 20.393083000000001
#
# number of rings (size 3 to 8) (size 9 to 14) (size 15 to 20)
#    0.000    1.000    4.167    1.500    4.667    1.667 
#    0.000    0.833    0.000    2.000    0.000    0.000 
#    0.000    0.000    0.000    0.000    0.000    0.000 
#
# Total GULP energy -133766.825457 kJ/mol
# GULP energy per Si atom -5573.617727 kJ/mol
# Density = 2.034667 g / cm^3
# Si number density = 20.393083 Si / 1000 Ang^3
#
#
#
# Elastic Constant Matrix: (Units=GPa)
#
#
# Indices 1 2 3 4 5 6 
#
# 1 138.5509 27.4722 21.9411 0.0000 0.0000 0.0000
# 2 27.4722 109.5654 46.5261 0.0000 0.0000 0.0000
# 3 21.9411 46.5261 111.4945 0.0000 0.0000 0.0000
# 4 0.0000 0.0000 0.0000 34.9191 0.0000 0.0000
# 5 0.0000 0.0000 0.0000 0.0000 1.2623 0.0000
# 6 0.0000 0.0000 0.0000 0.0000 0.0000 25.5636
#
#
#
# Elastic Compliance Matrix: (Units=1/GPa)
#
#
# Indices 1 2 3 4 5 6 
#
# 1 0.007662 -0.001557 -0.000858 0.000000 0.000000 0.000000
# 2 -0.001557 0.011409 -0.004455 0.000000 0.000000 0.000000
# 3 -0.000858 -0.004455 0.010997 0.000000 0.000000 0.000000
# 4 0.000000 0.000000 0.000000 0.028638 0.000000 0.000000
# 5 0.000000 0.000000 0.000000 0.000000 0.792192 0.000000
# 6 0.000000 0.000000 0.000000 0.000000 0.000000 0.039118
#
#
# Mechanical properties :
#
#
# Convention : Reuss Voigt Hill
#
# Bulk Modulus (GPa) = 61.24131 61.27662 61.25897
# Shear Modulus (GPa) = 5.49936 29.92711 17.71323
#
# Velocity S-wave (km/s) = 1.64394 3.83497 2.95038
# Velocity P-wave (km/s) = 5.80508 7.05140 6.45838
#
# Compressibility (1/GPa) = 0.01632885
#
# Stress axis : x y z
#
# Youngs Moduli (GPa) = 130.51172 87.65109 90.93571
#
# Poissons Ratio (x) = 0.13645 0.07804
# Poissons Ratio (y) = 0.20317 0.40507
# Poissons Ratio (z) = 0.11201 0.39044
#
# Static dielectric constant tensor:
#      x y z
#    x 1.833060 0.000000 0.000000 
#    y 0.000000 1.745890 0.000000 
#    z 0.000000 0.000000 1.697820 
# 
# From -- ./inp_files/13215.got.cif
#   From: 2010.05.17/outbox.cif.g08.bks.cpg/sg42_7_cif.got.tgz:13215.got - 2010.06.03 19:03:34.
