data_PCOD9369908
_publ_section_title
;
Structure prediction by ZEFSAII (Michael W. Deem and Ramdas Pophale) SiO2 
 PCOD9369908
Probable space group: F M M 2
;
_chemical_formula_sum "Si O2"
_cell_formula_units_Z 80
_cell_length_a 28.512037
_cell_length_b 16.021257
_cell_length_c 8.796581
_cell_angle_alpha 90.000000
_cell_angle_beta 90.000000
_cell_angle_gamma 90.000000
_cell_volume 4018.266522
_symmetry_space_group_name_H-M "F M M 2"
_symmetry_group_IT_number 42
_symmetry_cell_setting 'orthorhombic'
loop_
_space_group_symop_operation_xyz
x,y,z
-x,-y,z
-x,y,z
x,-y,z
x,1/2+y,1/2+z
-x,1/2-y,1/2+z
-x,1/2+y,1/2+z
x,1/2-y,1/2+z
1/2+x,y,1/2+z
1/2-x,-y,1/2+z
1/2-x,y,1/2+z
1/2+x,-y,1/2+z
1/2+x,1/2+y,z
1/2-x,1/2-y,z
1/2-x,1/2+y,z
1/2+x,1/2-y,z
loop_
_atom_site_type_symbol
_atom_site_label
_atom_site_fract_x
_atom_site_fract_y
_atom_site_fract_z
Si Si1 0.299305 0.404675 0.232990
Si Si2 0.718363 0.333763 0.903764
Si Si3 0.945198 0.000000 0.775596
Si Si4 0.614018 0.664428 0.766509
Si Si5 0.110349 0.662359 0.901595
Si Si6 0.947298 0.500000 0.905829
O O1 0.312859 0.500000 0.198996
O O2 0.251428 0.402692 0.327888
O O3 0.339195 0.360466 0.332205
O O4 0.291002 0.353747 0.079127
O O5 0.750000 0.250000 0.889124
O O6 0.668001 0.335400 0.822276
O O7 0.915539 0.916979 0.817630
O O8 0.946775 0.000000 0.590681
O O9 0.000000 0.000000 0.826619
O O10 0.613540 0.667602 0.583719
O O11 0.593459 0.749938 0.834488
O O12 0.078173 0.584361 0.857903
O O13 0.000000 0.500000 0.850985
#
# Coordination Sequence:
#
# PCOD9369908 Si02
#       6
#    16  16   8  16  16   8
#     4  12  25  40  61  91 132 169 223 261 320 386
#     4  12  25  41  61  92 128 180 216 264 320 386
#     4   9  22  44  70  97 130 173 224 277 338 397
#     4  11  24  41  67  95 133 175 219 272 330 391
#     4  11  22  42  64  97 130 174 217 271 331 393
#     4   9  20  42  70  95 126 169 218 273 336 401
#
# _framework density 19.909082000000001
#
# number of rings (size 3 to 8) (size 9 to 14) (size 15 to 20)
#    0.000    1.000    3.000    3.600    2.800    0.800 
#    0.000    0.000    0.000    8.400    0.000    0.000 
#    0.000    0.000    0.000    0.000    0.000    0.000 
#
# Total GULP energy -111760.770880 kJ/mol
# GULP energy per Si atom -5588.038544 kJ/mol
# Density = 1.986377 g / cm^3
# Si number density = 19.909082 Si / 1000 Ang^3
#
#
#
# Elastic Constant Matrix: (Units=GPa)
#
#
# Indices 1 2 3 4 5 6 
#
# 1 142.7729 92.6753 42.3946 0.0000 0.0000 0.0000
# 2 92.6753 195.7958 42.4838 0.0000 0.0000 0.0000
# 3 42.3946 42.4838 87.3656 0.0000 0.0000 0.0000
# 4 0.0000 0.0000 0.0000 30.8551 0.0000 0.0000
# 5 0.0000 0.0000 0.0000 0.0000 13.0533 0.0000
# 6 0.0000 0.0000 0.0000 0.0000 0.0000 27.6452
#
#
#
# Elastic Compliance Matrix: (Units=1/GPa)
#
#
# Indices 1 2 3 4 5 6 
#
# 1 0.010805 -0.004446 -0.003081 0.000000 0.000000 0.000000
# 2 -0.004446 0.007539 -0.001509 0.000000 0.000000 0.000000
# 3 -0.003081 -0.001509 0.013675 0.000000 0.000000 0.000000
# 4 0.000000 0.000000 0.000000 0.032410 0.000000 0.000000
# 5 0.000000 0.000000 0.000000 0.000000 0.076609 0.000000
# 6 0.000000 0.000000 0.000000 0.000000 0.000000 0.036173
#
#
# Mechanical properties :
#
#
# Convention : Reuss Voigt Hill
#
# Bulk Modulus (GPa) = 71.69758 86.78240 79.23999
# Shear Modulus (GPa) = 25.00868 30.86941 27.93904
#
# Velocity S-wave (km/s) = 3.54806 3.94193 3.75017
# Velocity P-wave (km/s) = 7.27156 8.02511 7.65761
#
# Compressibility (1/GPa) = 0.01394747
#
# Stress axis : x y z
#
# Youngs Moduli (GPa) = 92.55176 132.64432 73.12595
#
# Poissons Ratio (x) = 0.58968 0.22532
# Poissons Ratio (y) = 0.41145 0.11033
# Poissons Ratio (z) = 0.28518 0.20013
#
# Static dielectric constant tensor:
#      x y z
#    x 1.684570 0.000000 0.000000 
#    y 0.000000 1.823120 0.000000 
#    z 0.000000 0.000000 1.677110 
# 
# From -- ./inp_files/5119.got.cif
#   From: 2010.05.17/outbox.cif.g08.bks.cpg/sg42_3_cif.got.tgz:5119.got - 2010.06.03 19:03:34.
