data_PCOD9369873
_publ_section_title
;
Structure prediction by ZEFSAII (Michael W. Deem and Ramdas Pophale) SiO2 
 PCOD9369873
Probable space group: F M M 2
;
_chemical_formula_sum "Si O2"
_cell_formula_units_Z 112
_cell_length_a 15.293722
_cell_length_b 15.258094
_cell_length_c 28.530294
_cell_angle_alpha 90.000000
_cell_angle_beta 90.000000
_cell_angle_gamma 90.000000
_cell_volume 6657.631062
_symmetry_space_group_name_H-M "F M M 2"
_symmetry_group_IT_number 42
_symmetry_cell_setting 'orthorhombic'
loop_
_space_group_symop_operation_xyz
x,y,z
-x,-y,z
-x,y,z
x,-y,z
x,1/2+y,1/2+z
-x,1/2-y,1/2+z
-x,1/2+y,1/2+z
x,1/2-y,1/2+z
1/2+x,y,1/2+z
1/2-x,-y,1/2+z
1/2-x,y,1/2+z
1/2+x,-y,1/2+z
1/2+x,1/2+y,z
1/2-x,1/2-y,z
1/2-x,1/2+y,z
1/2+x,1/2-y,z
loop_
_atom_site_type_symbol
_atom_site_label
_atom_site_fract_x
_atom_site_fract_y
_atom_site_fract_z
Si Si1 0.402057 0.402080 0.472450
Si Si2 0.398715 0.393738 0.847697
Si Si3 0.597895 0.901628 0.517141
Si Si4 0.105786 0.397620 0.141964
Si Si5 0.148885 0.272565 0.056182
Si Si6 0.772408 0.148361 0.933181
Si Si7 0.394179 0.897588 0.245127
O O1 0.500000 0.388995 0.453031
O O2 0.399405 0.500000 0.493728
O O3 0.385148 0.330066 0.512408
O O4 0.322638 0.396481 0.435912
O O5 0.500000 0.366163 0.856737
O O6 0.400361 0.500000 0.846126
O O7 0.331191 0.367004 0.887643
O O8 0.369150 0.360858 0.796001
O O9 0.500000 0.898763 0.496111
O O10 0.603818 0.822616 0.554067
O O11 0.669623 0.884246 0.477116
O O12 0.611164 0.000000 0.536211
O O13 0.133116 0.500000 0.135045
O O14 0.135826 0.331891 0.101765
O O15 0.134114 0.365064 0.193927
O O16 0.000000 0.398597 0.141136
O O17 0.250000 0.250000 0.050441
O O18 0.750000 0.250000 0.937781
O O19 0.500000 0.894588 0.245573
O O20 0.369296 0.000000 0.244967
#
# Coordination Sequence:
#
# PCOD9369873 Si02
#       7
#    16  16  16  16  16  16  16
#     4  11  22  36  53  70  98 139 176 215 258 304
#     4   9  17  31  54  80 106 136 170 211 257 309
#     4  11  22  36  53  70  98 139 176 215 258 304
#     4   9  17  31  54  80 106 136 170 211 257 309
#     4  12  22  34  49  74 103 137 174 213 261 306
#     4  12  22  34  49  74 103 137 174 213 261 306
#     4   7  12  26  49  78 106 132 165 205 254 306
#
# _framework density 16.822800999999998
#
# number of rings (size 3 to 8) (size 9 to 14) (size 15 to 20)
#    0.000    1.857    2.857    5.143    0.000    3.429 
#    0.000    0.714    0.000    0.000    0.000    0.000 
#    0.000    0.000    0.000   21.714    0.000    0.286 
#
# Total GULP energy -155922.070720 kJ/mol
# GULP energy per Si atom -5568.645383 kJ/mol
# Density = 1.678451 g / cm^3
# Si number density = 16.822801 Si / 1000 Ang^3
#
#
#
# Elastic Constant Matrix: (Units=GPa)
#
#
# Indices 1 2 3 4 5 6 
#
# 1 99.0822 31.1465 40.2017 0.0000 0.0000 0.0000
# 2 31.1465 99.2143 36.8485 0.0000 0.0000 0.0000
# 3 40.2017 36.8485 111.2637 0.0000 0.0000 0.0000
# 4 0.0000 0.0000 0.0000 9.8928 0.0000 0.0000
# 5 0.0000 0.0000 0.0000 0.0000 9.0305 0.0000
# 6 0.0000 0.0000 0.0000 0.0000 0.0000 23.7260
#
#
#
# Elastic Compliance Matrix: (Units=1/GPa)
#
#
# Indices 1 2 3 4 5 6 
#
# 1 0.012361 -0.002533 -0.003627 0.000000 0.000000 0.000000
# 2 -0.002533 0.012012 -0.003063 0.000000 0.000000 0.000000
# 3 -0.003627 -0.003063 0.011313 0.000000 0.000000 0.000000
# 4 0.000000 0.000000 0.000000 0.101084 0.000000 0.000000
# 5 0.000000 0.000000 0.000000 0.000000 0.110736 0.000000
# 6 0.000000 0.000000 0.000000 0.000000 0.000000 0.042148
#
#
# Mechanical properties :
#
#
# Convention : Reuss Voigt Hill
#
# Bulk Modulus (GPa) = 58.00900 58.43928 58.22414
# Shear Modulus (GPa) = 15.93136 21.95407 18.94272
#
# Velocity S-wave (km/s) = 3.08069 3.61642 3.35925
# Velocity P-wave (km/s) = 6.87106 7.22853 7.05206
#
# Compressibility (1/GPa) = 0.01723870
#
# Stress axis : x y z
#
# Youngs Moduli (GPa) = 80.90192 83.24997 88.39713
#
# Poissons Ratio (x) = 0.21089 0.32063
# Poissons Ratio (y) = 0.20495 0.27075
# Poissons Ratio (z) = 0.29345 0.25498
#
# Static dielectric constant tensor:
#      x y z
#    x 1.600580 0.000000 0.000000 
#    y 0.000000 1.601240 0.000000 
#    z 0.000000 0.000000 1.601940 
# 
# From -- ./inp_files/32586.got.cif
#   From: 2010.05.17/outbox.cif.g08.bks.cpg/sg42_17_cif.got.tgz:32586.got - 2010.06.03 19:03:34.
