data_PCOD9369380
_publ_section_title
;
Structure prediction by ZEFSAII (Michael W. Deem and Ramdas Pophale) SiO2 
 PCOD9369380
Probable space group: F M M 2
;
_chemical_formula_sum "Si O2"
_cell_formula_units_Z 88
_cell_length_a 9.589565
_cell_length_b 14.877086
_cell_length_c 29.647491
_cell_angle_alpha 90.000000
_cell_angle_beta 90.000000
_cell_angle_gamma 90.000000
_cell_volume 4229.652876
_symmetry_space_group_name_H-M "F M M 2"
_symmetry_group_IT_number 42
_symmetry_cell_setting 'orthorhombic'
loop_
_space_group_symop_operation_xyz
x,y,z
-x,-y,z
-x,y,z
x,-y,z
x,1/2+y,1/2+z
-x,1/2-y,1/2+z
-x,1/2+y,1/2+z
x,1/2-y,1/2+z
1/2+x,y,1/2+z
1/2-x,-y,1/2+z
1/2-x,y,1/2+z
1/2+x,-y,1/2+z
1/2+x,1/2+y,z
1/2-x,1/2-y,z
1/2-x,1/2+y,z
1/2+x,1/2-y,z
loop_
_atom_site_type_symbol
_atom_site_label
_atom_site_fract_x
_atom_site_fract_y
_atom_site_fract_z
Si Si1 0.842388 0.105915 0.348650
Si Si2 0.653427 0.098756 0.113120
Si Si3 0.166106 0.657241 0.434078
Si Si4 0.750000 0.250000 0.679214
Si Si5 0.665042 0.343400 0.033321
Si Si6 0.665404 0.897556 0.751519
O O1 0.738903 0.115877 0.390437
O O2 0.782570 0.137805 0.300387
O O3 0.000000 0.142801 0.357813
O O4 0.857787 0.000000 0.341590
O O5 0.500000 0.102460 0.091318
O O6 0.664073 0.184335 0.145982
O O7 0.771792 0.104097 0.075354
O O8 0.664414 0.000000 0.135856
O O9 0.250000 0.750000 0.438092
O O10 0.185223 0.613429 0.483639
O O11 0.000000 0.667896 0.427633
O O12 0.685645 0.175095 0.712403
O O13 0.500000 0.327934 0.038802
O O14 0.750000 0.250000 0.034118
O O15 0.500000 0.905198 0.757854
O O16 0.718105 0.000000 0.742095
#
# Coordination Sequence:
#
# PCOD9369380 Si02
#       6
#    16  16  16   8  16  16
#     4   9  19  37  59  85 121 163 202 245 302 364
#     4  11  25  42  61  91 130 166 205 257 315 373
#     4  10  21  36  58  90 123 159 201 246 298 359
#     4  12  22  38  66  92 118 160 214 262 314 368
#     4  10  21  39  63  89 122 162 205 253 307 370
#     4   9  20  39  61  88 123 163 208 255 306 369
#
# _framework density 20.805489999999999
#
# number of rings (size 3 to 8) (size 9 to 14) (size 15 to 20)
#    0.000    2.000    0.909    3.273    1.273    4.364 
#    0.000    4.545    0.000    2.182    0.000    0.000 
#    0.000    0.000    0.000    0.000    0.000    0.000 
#
# Total GULP energy -122482.034018 kJ/mol
# GULP energy per Si atom -5567.365183 kJ/mol
# Density = 2.075814 g / cm^3
# Si number density = 20.805490 Si / 1000 Ang^3
#
#
#
# Elastic Constant Matrix: (Units=GPa)
#
#
# Indices 1 2 3 4 5 6 
#
# 1 106.1280 25.3241 64.2780 0.0000 0.0000 0.0000
# 2 25.3241 107.4658 43.3212 0.0000 0.0000 0.0000
# 3 64.2780 43.3212 138.6097 0.0000 0.0000 0.0000
# 4 0.0000 0.0000 0.0000 44.2621 0.0000 0.0000
# 5 0.0000 0.0000 0.0000 0.0000 36.0648 0.0000
# 6 0.0000 0.0000 0.0000 0.0000 0.0000 20.1487
#
#
#
# Elastic Compliance Matrix: (Units=1/GPa)
#
#
# Indices 1 2 3 4 5 6 
#
# 1 0.013153 -0.000733 -0.005870 0.000000 0.000000 0.000000
# 2 -0.000733 0.010688 -0.003000 0.000000 0.000000 0.000000
# 3 -0.005870 -0.003000 0.010875 0.000000 0.000000 0.000000
# 4 0.000000 0.000000 0.000000 0.022593 0.000000 0.000000
# 5 0.000000 0.000000 0.000000 0.000000 0.027728 0.000000
# 6 0.000000 0.000000 0.000000 0.000000 0.000000 0.049631
#
#
# Mechanical properties :
#
#
# Convention : Reuss Voigt Hill
#
# Bulk Modulus (GPa) = 64.48494 68.67224 66.57859
# Shear Modulus (GPa) = 31.43797 34.71379 33.07588
#
# Velocity S-wave (km/s) = 3.89143 4.08915 3.99151
# Velocity P-wave (km/s) = 7.15908 7.44132 7.30157
#
# Compressibility (1/GPa) = 0.01550750
#
# Stress axis : x y z
#
# Youngs Moduli (GPa) = 76.02843 93.56707 91.95809
#
# Poissons Ratio (x) = 0.06859 0.53983
# Poissons Ratio (y) = 0.05573 0.27591
# Poissons Ratio (z) = 0.44631 0.28073
#
# Static dielectric constant tensor:
#      x y z
#    x 1.719550 0.000000 0.000000 
#    y 0.000000 1.759810 0.000000 
#    z 0.000000 0.000000 1.841030 
# 
# From -- ./inp_files/33613.got.cif
#   From: 2010.05.17/outbox.cif.g08.bks.cpg/sg42_17_cif.got.tgz:33613.got - 2010.06.03 19:03:34.
