data_PCOD9369077
_publ_section_title
;
Structure prediction by ZEFSAII (Michael W. Deem and Ramdas Pophale) SiO2 
 PCOD9369077
Probable space group: F M M 2
;
_chemical_formula_sum "Si O2"
_cell_formula_units_Z 96
_cell_length_a 31.638027
_cell_length_b 8.202023
_cell_length_c 19.484981
_cell_angle_alpha 90.000000
_cell_angle_beta 90.000000
_cell_angle_gamma 90.000000
_cell_volume 5056.271222
_symmetry_space_group_name_H-M "F M M 2"
_symmetry_group_IT_number 42
_symmetry_cell_setting 'orthorhombic'
loop_
_space_group_symop_operation_xyz
x,y,z
-x,-y,z
-x,y,z
x,-y,z
x,1/2+y,1/2+z
-x,1/2-y,1/2+z
-x,1/2+y,1/2+z
x,1/2-y,1/2+z
1/2+x,y,1/2+z
1/2-x,-y,1/2+z
1/2-x,y,1/2+z
1/2+x,-y,1/2+z
1/2+x,1/2+y,z
1/2-x,1/2-y,z
1/2-x,1/2+y,z
1/2+x,1/2-y,z
loop_
_atom_site_type_symbol
_atom_site_label
_atom_site_fract_x
_atom_site_fract_y
_atom_site_fract_z
Si Si1 0.547911 0.198838 0.774410
Si Si2 0.296869 0.194615 0.931037
Si Si3 0.125507 0.805857 0.023819
Si Si4 0.047974 0.696770 0.931520
Si Si5 0.625268 0.800010 0.680417
Si Si6 0.203082 0.303270 0.774141
O O1 0.500000 0.250291 0.757638
O O2 0.557465 0.248527 0.852949
O O3 0.583429 0.253166 0.721368
O O4 0.548112 0.000000 0.774109
O O5 0.250000 0.250000 0.952285
O O6 0.333627 0.250755 0.981299
O O7 0.304098 0.254760 0.852626
O O8 0.297426 0.000000 0.928941
O O9 0.083379 0.754901 0.983561
O O10 0.126343 0.000000 0.027256
O O11 0.125859 0.743198 0.101968
O O12 0.048197 0.500000 0.931654
O O13 0.000000 0.750204 0.948189
O O14 0.666501 0.747310 0.722976
O O15 0.625163 0.000000 0.680243
O O16 0.201911 0.500000 0.775296
O O17 0.250000 0.250000 0.753194
#
# Coordination Sequence:
#
# PCOD9369077 Si02
#       6
#    16  16  16  16  16  16
#     4   8  14  28  52  76  95 123 168 215 254 296
#     4  10  20  36  58  79 101 132 171 214 256 300
#     4  11  22  33  49  77 111 141 168 204 253 308
#     4   9  18  34  56  78 100 132 175 218 257 300
#     4   9  18  31  47  72 104 133 163 203 251 301
#     4   9  18  34  55  75  96 126 167 212 252 293
#
# _framework density 18.986322000000001
#
# number of rings (size 3 to 8) (size 9 to 14) (size 15 to 20)
#    0.000    2.667    0.000    3.000    0.000    5.000 
#    0.000    5.000    0.000    2.000    0.000    0.000 
#    0.000    0.000    0.000    0.000    0.000    0.000 
#
# Total GULP energy -133915.598642 kJ/mol
# GULP energy per Si atom -5579.816610 kJ/mol
# Density = 1.894311 g / cm^3
# Si number density = 18.986322 Si / 1000 Ang^3
#
#
#
# Elastic Constant Matrix: (Units=GPa)
#
#
# Indices 1 2 3 4 5 6 
#
# 1 196.6137 18.7535 150.1966 0.0000 0.0000 0.0000
# 2 18.7535 13.6392 18.4803 0.0000 0.0000 0.0000
# 3 150.1966 18.4803 161.5708 0.0000 0.0000 0.0000
# 4 0.0000 0.0000 0.0000 15.4553 0.0000 0.0000
# 5 0.0000 0.0000 0.0000 0.0000 -4.8088 0.0000
# 6 0.0000 0.0000 0.0000 0.0000 0.0000 28.3803
#
#
#
# Elastic Compliance Matrix: (Units=1/GPa)
#
#
# Indices 1 2 3 4 5 6 
#
# 1 0.017613 -0.002406 -0.016098 0.000000 0.000000 0.000000
# 2 -0.002406 0.087093 -0.007725 0.000000 0.000000 0.000000
# 3 -0.016098 -0.007725 0.022038 0.000000 0.000000 0.000000
# 4 0.000000 0.000000 0.000000 0.064703 0.000000 0.000000
# 5 0.000000 0.000000 0.000000 0.000000 -0.207954 0.000000
# 6 0.000000 0.000000 0.000000 0.000000 0.000000 0.035236
#
#
# Mechanical properties :
#
#
# Convention : Reuss Voigt Hill
#
# Bulk Modulus (GPa) = 13.46151 82.96495 48.21323
# Shear Modulus (GPa) = 52.11077 20.09825 36.10451
#
# Velocity S-wave (km/s) = 5.24462 3.25709 4.36547
# Velocity P-wave (km/s) = 6.61666 7.61163 7.13152
#
# Compressibility (1/GPa) = 0.07428588
#
# Stress axis : x y z
#
# Youngs Moduli (GPa) = 56.77551 11.48195 45.37663
#
# Poissons Ratio (x) = 0.02762 0.73048
# Poissons Ratio (y) = 0.13657 0.35056
# Poissons Ratio (z) = 0.91398 0.08870
#
# Static dielectric constant tensor:
#      x y z
#    x 1.624090 0.000000 0.000000 
#    y 0.000000 1.677750 0.000000 
#    z 0.000000 0.000000 1.652850 
# 
# From -- ./inp_files/23725.got.cif
#   From: 2010.05.17/outbox.cif.g08.bks.cpg/sg42_12_cif.got.tgz:23725.got - 2010.06.03 19:03:34.
