data_PCOD9369190
_publ_section_title
;
Structure prediction by ZEFSAII (Michael W. Deem and Ramdas Pophale) SiO2 
 PCOD9369190
Probable space group: F M M 2
;
_chemical_formula_sum "Si O2"
_cell_formula_units_Z 116
_cell_length_a 14.057983
_cell_length_b 17.468998
_cell_length_c 22.607503
_cell_angle_alpha 90.000000
_cell_angle_beta 90.000000
_cell_angle_gamma 90.000000
_cell_volume 5551.925197
_symmetry_space_group_name_H-M "F M M 2"
_symmetry_group_IT_number 42
_symmetry_cell_setting 'orthorhombic'
loop_
_space_group_symop_operation_xyz
x,y,z
-x,-y,z
-x,y,z
x,-y,z
x,1/2+y,1/2+z
-x,1/2-y,1/2+z
-x,1/2+y,1/2+z
x,1/2-y,1/2+z
1/2+x,y,1/2+z
1/2-x,-y,1/2+z
1/2-x,y,1/2+z
1/2+x,-y,1/2+z
1/2+x,1/2+y,z
1/2-x,1/2-y,z
1/2-x,1/2+y,z
1/2+x,1/2-y,z
loop_
_atom_site_type_symbol
_atom_site_label
_atom_site_fract_x
_atom_site_fract_y
_atom_site_fract_z
Si Si1 0.500000 0.500000 0.272491
Si Si2 0.212533 0.367035 0.373658
Si Si3 0.391605 0.690035 0.448347
Si Si4 0.609262 0.222569 0.274970
Si Si5 0.841583 0.913128 0.684133
Si Si6 0.801029 0.909070 0.549815
Si Si7 0.110804 0.867601 0.987663
Si Si8 0.321365 0.107985 0.763379
O O1 0.418331 0.565940 0.271398
O O2 0.306659 0.329564 0.403041
O O3 0.143392 0.309999 0.338052
O O4 0.152923 0.404067 0.426919
O O5 0.254741 0.413908 0.318996
O O6 0.500000 0.677113 0.426676
O O7 0.366617 0.634686 0.502958
O O8 0.385033 0.776921 0.472109
O O9 0.500000 0.243816 0.278741
O O10 0.618544 0.154413 0.226188
O O11 0.666099 0.300270 0.261845
O O12 0.839994 0.892458 0.615302
O O13 0.731936 0.916065 0.704293
O O14 0.881219 0.000000 0.692243
O O15 0.690690 0.885006 0.537173
O O16 0.806175 0.000000 0.540771
O O17 0.000000 0.887606 0.999618
#
# Coordination Sequence:
#
# PCOD9369190 Si02
#       8
#     4  16  16  16  16  16  16  16
#     4  12  24  40  60  88 128 160 204 248 304 358
#     4  10  20  37  62  88 122 157 198 248 298 353
#     4  10  21  37  61  88 117 156 204 247 297 351
#     4  11  22  37  63  94 119 159 205 244 302 371
#     4  10  22  42  62  83 121 159 200 255 311 353
#     4  10  22  41  60  84 120 157 195 249 303 356
#     4  10  20  38  62  88 118 159 203 248 293 351
#     4  11  22  40  60  89 124 160 198 249 303 364
#
# _framework density 20.893651999999999
#
# number of rings (size 3 to 8) (size 9 to 14) (size 15 to 20)
#    0.000    1.655    1.379    5.379    0.966    4.690 
#    6.207    2.759    0.000    4.966    0.000    0.000 
#    0.000    0.000    0.000    0.000    0.000    0.000 
#
# Total GULP energy -161548.252920 kJ/mol
# GULP energy per Si atom -5570.629411 kJ/mol
# Density = 2.084610 g / cm^3
# Si number density = 20.893652 Si / 1000 Ang^3
#
#
#
# Elastic Constant Matrix: (Units=GPa)
#
#
# Indices 1 2 3 4 5 6 
#
# 1 87.2265 17.7014 -3.7437 0.0000 0.0000 0.0000
# 2 17.7014 101.4703 32.8921 0.0000 0.0000 0.0000
# 3 -3.7437 32.8921 91.3925 0.0000 0.0000 0.0000
# 4 0.0000 0.0000 0.0000 42.0101 0.0000 0.0000
# 5 0.0000 0.0000 0.0000 0.0000 -1.2277 0.0000
# 6 0.0000 0.0000 0.0000 0.0000 0.0000 800.0564
#
#
#
# Elastic Compliance Matrix: (Units=1/GPa)
#
#
# Indices 1 2 3 4 5 6 
#
# 1 0.012045 -0.002560 0.001415 0.000000 0.000000 0.000000
# 2 -0.002560 0.011701 -0.004316 0.000000 0.000000 0.000000
# 3 0.001415 -0.004316 0.012553 0.000000 0.000000 0.000000
# 4 0.000000 0.000000 0.000000 0.023804 0.000000 0.000000
# 5 0.000000 0.000000 0.000000 0.000000 -0.814503 0.000000
# 6 0.000000 0.000000 0.000000 0.000000 0.000000 0.001250
#
#
# Mechanical properties :
#
#
# Convention : Reuss Voigt Hill
#
# Bulk Modulus (GPa) = 39.40688 41.53209 40.46949
# Shear Modulus (GPa) = -6.81412 183.71705 88.45146
#
# Velocity S-wave (km/s) = -1.80788 9.38725 6.51353
# Velocity P-wave (km/s) = 3.81363 11.72241 8.71661
#
# Compressibility (1/GPa) = 0.02537628
#
# Stress axis : x y z
#
# Youngs Moduli (GPa) = 83.02492 85.46522 79.66182
#
# Poissons Ratio (x) = 0.21877 -0.11269
# Poissons Ratio (y) = 0.21252 0.34381
# Poissons Ratio (z) = -0.11745 0.36886
#
# Static dielectric constant tensor:
#      x y z
#    x 1.755820 0.000000 0.000000 
#    y 0.000000 1.795560 0.000000 
#    z 0.000000 0.000000 1.740060 
# 
# From -- ./inp_files/29651.got.cif
#   From: 2010.05.17/outbox.cif.g08.bks.cpg/sg42_15_cif.got.tgz:29651.got - 2010.06.03 19:03:34.
