data_PCOD9369279
_publ_section_title
;
Structure prediction by ZEFSAII (Michael W. Deem and Ramdas Pophale) SiO2 
 PCOD9369279
Probable space group: F M M 2
;
_chemical_formula_sum "Si O2"
_cell_formula_units_Z 88
_cell_length_a 14.791738
_cell_length_b 18.798023
_cell_length_c 14.861974
_cell_angle_alpha 90.000000
_cell_angle_beta 90.000000
_cell_angle_gamma 90.000000
_cell_volume 4132.452588
_symmetry_space_group_name_H-M "F M M 2"
_symmetry_group_IT_number 42
_symmetry_cell_setting 'orthorhombic'
loop_
_space_group_symop_operation_xyz
x,y,z
-x,-y,z
-x,y,z
x,-y,z
x,1/2+y,1/2+z
-x,1/2-y,1/2+z
-x,1/2+y,1/2+z
x,1/2-y,1/2+z
1/2+x,y,1/2+z
1/2-x,-y,1/2+z
1/2-x,y,1/2+z
1/2+x,-y,1/2+z
1/2+x,1/2+y,z
1/2-x,1/2-y,z
1/2-x,1/2+y,z
1/2+x,1/2-y,z
loop_
_atom_site_type_symbol
_atom_site_label
_atom_site_fract_x
_atom_site_fract_y
_atom_site_fract_z
Si Si1 0.743403 0.583455 0.223860
Si Si2 0.150609 0.720200 0.763940
Si Si3 0.743403 0.416545 0.508748
Si Si4 0.849391 0.220199 0.468668
Si Si5 0.000000 0.750000 0.616304
Si Si6 0.103570 0.413929 0.366304
O O1 0.726723 0.500000 0.241832
O O2 0.664683 0.634986 0.257575
O O3 0.749999 0.592472 0.116304
O O4 0.835144 0.603468 0.278636
O O5 0.250000 0.750000 0.741505
O O6 0.129391 0.740575 0.866304
O O7 0.078116 0.745458 0.694123
O O8 0.726722 0.500000 0.490777
O O9 0.664684 0.365014 0.475033
O O10 0.835144 0.396533 0.453971
O O11 0.750000 0.250000 0.491103
O O12 0.921884 0.245458 0.538485
O O13 0.097135 0.500000 0.366303
O O14 0.000000 0.387449 0.366304
#
# Coordination Sequence:
#
# PCOD9369279 Si02
#       6
#    16  16  16  16   8  16
#     4  10  20  39  65  96 141 185 223 280 347 404
#     4  11  24  45  68  96 131 175 226 283 351 412
#     4  10  20  39  65  96 141 185 223 280 347 404
#     4  11  24  45  68  96 131 175 226 283 351 412
#     4  12  24  44  70  90 128 166 224 286 338 432
#     4   9  18  36  63  97 135 179 232 279 324 398
#
# _framework density 21.29486
#
# number of rings (size 3 to 8) (size 9 to 14) (size 15 to 20)
#    0.000    1.636    1.818    3.273    0.000    0.000 
#   13.091    0.909    0.000    2.182    0.000    0.000 
#    0.000    0.000    0.000    0.000    0.000    0.000 
#
# Total GULP energy -122500.864825 kJ/mol
# GULP energy per Si atom -5568.221128 kJ/mol
# Density = 2.124639 g / cm^3
# Si number density = 21.294860 Si / 1000 Ang^3
#
#
#
# Elastic Constant Matrix: (Units=GPa)
#
#
# Indices 1 2 3 4 5 6 
#
# 1 158.8548 26.5590 137.6969 0.0000 0.0000 0.0000
# 2 26.5590 67.1850 37.6232 0.0000 0.0000 0.0000
# 3 137.6969 37.6232 207.8601 0.0000 0.0000 0.0000
# 4 0.0000 0.0000 0.0000 14.2185 0.0000 0.0000
# 5 0.0000 0.0000 0.0000 0.0000 56.4871 0.0000
# 6 0.0000 0.0000 0.0000 0.0000 0.0000 -2.8209
#
#
#
# Elastic Compliance Matrix: (Units=1/GPa)
#
#
# Indices 1 2 3 4 5 6 
#
# 1 0.014794 -0.000401 -0.009728 0.000000 0.000000 0.000000
# 2 -0.000401 0.016574 -0.002734 0.000000 0.000000 0.000000
# 3 -0.009728 -0.002734 0.011750 0.000000 0.000000 0.000000
# 4 0.000000 0.000000 0.000000 0.070331 0.000000 0.000000
# 5 0.000000 0.000000 0.000000 0.000000 0.017703 0.000000
# 6 0.000000 0.000000 0.000000 0.000000 0.000000 -0.354497
#
#
# Mechanical properties :
#
#
# Convention : Reuss Voigt Hill
#
# Bulk Modulus (GPa) = 57.49726 93.07311 75.28519
# Shear Modulus (GPa) = -26.06608 29.04499 1.48945
#
# Velocity S-wave (km/s) = -3.50245 3.69717 0.83723
# Velocity P-wave (km/s) = 3.27154 7.87573 6.03034
#
# Compressibility (1/GPa) = 0.01739213
#
# Stress axis : x y z
#
# Youngs Moduli (GPa) = 67.59318 60.33552 85.10509
#
# Poissons Ratio (x) = 0.02418 0.82790
# Poissons Ratio (y) = 0.02709 0.23271
# Poissons Ratio (z) = 0.65755 0.16498
#
# Static dielectric constant tensor:
#      x y z
#    x 1.701840 0.000000 0.000000 
#    y 0.000000 1.887410 0.000000 
#    z 0.000000 0.000000 1.754310 
# 
# From -- ./inp_files/12914.got.cif
#   From: 2010.05.17/outbox.cif.g08.bks.cpg/sg42_7_cif.got.tgz:12914.got - 2010.06.03 19:03:34.
