data_PCOD9369957
_publ_section_title
;
Structure prediction by ZEFSAII (Michael W. Deem and Ramdas Pophale) SiO2 
 PCOD9369957
Probable space group: F M M 2
;
_chemical_formula_sum "Si O2"
_cell_formula_units_Z 64
_cell_length_a 10.301656
_cell_length_b 15.452730
_cell_length_c 21.298074
_cell_angle_alpha 90.000000
_cell_angle_beta 90.000000
_cell_angle_gamma 90.000000
_cell_volume 3390.412898
_symmetry_space_group_name_H-M "F M M 2"
_symmetry_group_IT_number 42
_symmetry_cell_setting 'orthorhombic'
loop_
_space_group_symop_operation_xyz
x,y,z
-x,-y,z
-x,y,z
x,-y,z
x,1/2+y,1/2+z
-x,1/2-y,1/2+z
-x,1/2+y,1/2+z
x,1/2-y,1/2+z
1/2+x,y,1/2+z
1/2-x,-y,1/2+z
1/2-x,y,1/2+z
1/2+x,-y,1/2+z
1/2+x,1/2+y,z
1/2-x,1/2-y,z
1/2-x,1/2+y,z
1/2+x,1/2-y,z
loop_
_atom_site_type_symbol
_atom_site_label
_atom_site_fract_x
_atom_site_fract_y
_atom_site_fract_z
Si Si1 0.250000 0.750000 0.593940
Si Si2 0.000000 0.098126 0.780995
Si Si3 0.745495 0.645951 0.865463
Si Si4 0.844392 0.100094 0.003727
Si Si5 0.000000 0.098842 0.287051
Si Si6 0.000000 0.250635 0.682459
O O1 0.227032 0.666537 0.549912
O O2 0.374603 0.747561 0.638584
O O3 0.125312 0.115349 0.823539
O O4 0.000000 0.166696 0.725854
O O5 0.000000 0.000000 0.758218
O O6 0.750000 0.750000 0.868131
O O7 0.875281 0.614539 0.831119
O O8 0.719313 0.611053 0.935159
O O9 0.000000 0.120303 0.000115
O O10 0.832725 0.000000 0.023723
O O11 0.000000 0.166632 0.229342
O O12 0.000000 0.000000 0.263984
#
# Coordination Sequence:
#
# PCOD9369957 Si02
#       6
#     8   8  16  16   8   8
#     4  12  26  44  70  94 132 182 232 266 324 386
#     4  12  24  43  69  96 129 175 223 274 334 397
#     4  12  22  42  71 101 135 172 212 274 346 399
#     4  11  24  44  70 100 134 173 218 275 338 398
#     4  12  26  43  67 102 139 173 215 276 336 393
#     4  12  26  44  66  96 134 180 228 274 320 386
#
# _framework density 18.876756
#
# number of rings (size 3 to 8) (size 9 to 14) (size 15 to 20)
#    0.000    0.250    6.250    3.750    0.000    3.000 
#    0.000    1.250    0.000    0.000    0.000    0.000 
#    0.000    0.000    0.000    0.000    0.000    0.000 
#
# Total GULP energy -89506.798610 kJ/mol
# GULP energy per Si atom -5594.174913 kJ/mol
# Density = 1.883379 g / cm^3
# Si number density = 18.876756 Si / 1000 Ang^3
#
#
#
# Elastic Constant Matrix: (Units=GPa)
#
#
# Indices 1 2 3 4 5 6 
#
# 1 180.7638 54.1190 88.1192 0.0000 0.0000 0.0000
# 2 54.1190 186.2907 79.3585 0.0000 0.0000 0.0000
# 3 88.1192 79.3585 164.4803 0.0000 0.0000 0.0000
# 4 0.0000 0.0000 0.0000 -17.9465 0.0000 0.0000
# 5 0.0000 0.0000 0.0000 0.0000 33.5787 0.0000
# 6 0.0000 0.0000 0.0000 0.0000 0.0000 35.6636
#
#
#
# Elastic Compliance Matrix: (Units=1/GPa)
#
#
# Indices 1 2 3 4 5 6 
#
# 1 0.007539 -0.000591 -0.003754 0.000000 0.000000 0.000000
# 2 -0.000591 0.006803 -0.002966 0.000000 0.000000 0.000000
# 3 -0.003754 -0.002966 0.009522 0.000000 0.000000 0.000000
# 4 0.000000 0.000000 0.000000 -0.055721 0.000000 0.000000
# 5 0.000000 0.000000 0.000000 0.000000 0.029781 0.000000
# 6 0.000000 0.000000 0.000000 0.000000 0.000000 0.028040
#
#
# Mechanical properties :
#
#
# Convention : Reuss Voigt Hill
#
# Bulk Modulus (GPa) = 108.19383 108.30312 108.24847
# Shear Modulus (GPa) = 114.50803 30.92168 72.71485
#
# Velocity S-wave (km/s) = 7.79696 4.05171 6.21325
# Velocity P-wave (km/s) = 11.76848 8.90993 10.43753
#
# Compressibility (1/GPa) = 0.00924267
#
# Stress axis : x y z
#
# Youngs Moduli (GPa) = 132.64482 146.99367 105.02335
#
# Poissons Ratio (x) = 0.08688 0.39423
# Poissons Ratio (y) = 0.07840 0.31146
# Poissons Ratio (z) = 0.49792 0.43594
#
# Static dielectric constant tensor:
#      x y z
#    x 1.628160 0.000000 0.000000 
#    y 0.000000 1.654990 0.000000 
#    z 0.000000 0.000000 1.634500 
# 
# From -- ./inp_files/18690.got.cif
#   From: 2010.05.17/outbox.cif.g08.bks.cpg/sg42_10_cif.got.tgz:18690.got - 2010.06.03 19:03:34.
