data_PCOD9369450
_publ_section_title
;
Structure prediction by ZEFSAII (Michael W. Deem and Ramdas Pophale) SiO2 
 PCOD9369450
Probable space group: F M M 2
;
_chemical_formula_sum "Si O2"
_cell_formula_units_Z 116
_cell_length_a 22.197746
_cell_length_b 26.605518
_cell_length_c 10.063113
_cell_angle_alpha 90.000000
_cell_angle_beta 90.000000
_cell_angle_gamma 90.000000
_cell_volume 5943.098743
_symmetry_space_group_name_H-M "F M M 2"
_symmetry_group_IT_number 42
_symmetry_cell_setting 'orthorhombic'
loop_
_space_group_symop_operation_xyz
x,y,z
-x,-y,z
-x,y,z
x,-y,z
x,1/2+y,1/2+z
-x,1/2-y,1/2+z
-x,1/2+y,1/2+z
x,1/2-y,1/2+z
1/2+x,y,1/2+z
1/2-x,-y,1/2+z
1/2-x,y,1/2+z
1/2+x,-y,1/2+z
1/2+x,1/2+y,z
1/2-x,1/2-y,z
1/2-x,1/2+y,z
1/2+x,1/2-y,z
loop_
_atom_site_type_symbol
_atom_site_label
_atom_site_fract_x
_atom_site_fract_y
_atom_site_fract_z
Si Si1 0.195050 0.441582 0.339210
Si Si2 0.674071 0.391895 0.331366
Si Si3 0.646196 0.867769 0.122099
Si Si4 0.571036 0.720930 0.727324
Si Si5 0.116577 0.198621 0.014711
Si Si6 0.394109 0.415889 0.069458
Si Si7 0.000000 0.500000 0.547806
Si Si8 0.267642 0.805620 0.668457
O O1 0.193425 0.500000 0.308076
O O2 0.263828 0.422889 0.340850
O O3 0.156952 0.410907 0.230243
O O4 0.163143 0.431257 0.479484
O O5 0.643230 0.388252 0.473701
O O6 0.629409 0.413761 0.220641
O O7 0.695665 0.337332 0.277625
O O8 0.592013 0.831103 0.159927
O O9 0.706930 0.834507 0.132329
O O10 0.500000 0.722779 0.745954
O O11 0.591329 0.765938 0.631149
O O12 0.602024 0.721438 0.871656
O O13 0.091194 0.141858 0.027536
O O14 0.188103 0.195831 0.041483
O O15 0.447075 0.455559 0.049168
O O16 0.250000 0.750000 0.211392
#
# Coordination Sequence:
#
# PCOD9369450 Si02
#       8
#    16  16  16  16  16  16   4  16
#     4  11  22  44  71  99 132 173 224 284 344 401
#     4  10  24  40  66 103 139 169 215 284 348 406
#     4  11  24  41  65 103 136 176 222 275 341 402
#     4  12  27  44  66  94 139 184 227 267 327 399
#     4  11  25  45  68 102 135 177 227 278 335 403
#     4  11  25  46  71 100 130 181 236 272 339 397
#     4  12  28  48  76  94 128 192 240 296 306 408
#     4  10  21  37  67  99 141 176 218 270 336 409
#
# _framework density 19.518436999999999
#
# number of rings (size 3 to 8) (size 9 to 14) (size 15 to 20)
#    0.000    1.103    3.448    2.897    8.690    2.207 
#    1.241    0.000    0.000    0.828    0.000    0.000 
#    0.000    0.000    0.000    0.000    0.000    0.000 
#
# Total GULP energy -161933.481845 kJ/mol
# GULP energy per Si atom -5583.913167 kJ/mol
# Density = 1.947401 g / cm^3
# Si number density = 19.518437 Si / 1000 Ang^3
#
#
#
# Elastic Constant Matrix: (Units=GPa)
#
#
# Indices 1 2 3 4 5 6 
#
# 1 25.0419 18.7398 1.7479 0.0000 0.0000 0.0000
# 2 18.7398 141.8563 22.8115 0.0000 0.0000 0.0000
# 3 1.7479 22.8115 93.5432 0.0001 -0.0001 0.0000
# 4 0.0000 0.0000 0.0001 14.5637 0.0000 0.0000
# 5 0.0000 0.0000 -0.0001 0.0000 2.8764 0.0000
# 6 0.0000 0.0000 0.0000 0.0000 0.0000 18.6789
#
#
#
# Elastic Compliance Matrix: (Units=1/GPa)
#
#
# Indices 1 2 3 4 5 6 
#
# 1 0.044349 -0.005959 0.000625 0.000000 0.000000 0.000000
# 2 -0.005959 0.008138 -0.001873 0.000000 0.000000 0.000000
# 3 0.000625 -0.001873 0.011135 0.000000 0.000000 0.000000
# 4 0.000000 0.000000 0.000000 0.068664 0.000000 0.000000
# 5 0.000000 0.000000 0.000000 0.000000 0.347661 0.000000
# 6 0.000000 0.000000 0.000000 0.000000 0.000000 0.053536
#
#
# Mechanical properties :
#
#
# Convention : Reuss Voigt Hill
#
# Bulk Modulus (GPa) = 20.32247 38.55998 29.44122
# Shear Modulus (GPa) = 8.86053 21.69996 15.28024
#
# Velocity S-wave (km/s) = 2.13294 3.33793 2.80100
# Velocity P-wave (km/s) = 4.06207 5.88679 5.05741
#
# Compressibility (1/GPa) = 0.04920661
#
# Stress axis : x y z
#
# Youngs Moduli (GPa) = 22.54849 122.88298 89.80400
#
# Poissons Ratio (x) = 0.73227 -0.05608
# Poissons Ratio (y) = 0.13437 0.16822
# Poissons Ratio (z) = -0.01408 0.23018
#
# Static dielectric constant tensor:
#      x y z
#    x 1.677560 0.000000 0.000000 
#    y 0.000000 1.692110 0.000000 
#    z 0.000000 0.000000 1.692910 
# 
# From -- ./inp_files/4868.got.cif
#   From: 2010.05.17/outbox.cif.g08.bks.cpg/sg42_3_cif.got.tgz:4868.got - 2010.06.03 19:03:34.
