data_PCOD9369862
_publ_section_title
;
Structure prediction by ZEFSAII (Michael W. Deem and Ramdas Pophale) SiO2 
 PCOD9369862
Probable space group: F M M 2
;
_chemical_formula_sum "Si O2"
_cell_formula_units_Z 72
_cell_length_a 14.287786
_cell_length_b 14.766068
_cell_length_c 18.595603
_cell_angle_alpha 90.000000
_cell_angle_beta 90.000000
_cell_angle_gamma 90.000000
_cell_volume 3923.196551
_symmetry_space_group_name_H-M "F M M 2"
_symmetry_group_IT_number 42
_symmetry_cell_setting 'orthorhombic'
loop_
_space_group_symop_operation_xyz
x,y,z
-x,-y,z
-x,y,z
x,-y,z
x,1/2+y,1/2+z
-x,1/2-y,1/2+z
-x,1/2+y,1/2+z
x,1/2-y,1/2+z
1/2+x,y,1/2+z
1/2-x,-y,1/2+z
1/2-x,y,1/2+z
1/2+x,-y,1/2+z
1/2+x,1/2+y,z
1/2-x,1/2-y,z
1/2-x,1/2+y,z
1/2+x,1/2-y,z
loop_
_atom_site_type_symbol
_atom_site_label
_atom_site_fract_x
_atom_site_fract_y
_atom_site_fract_z
Si Si1 0.000000 0.500000 0.988130
Si Si2 0.199849 0.500000 0.916402
Si Si3 0.000000 0.853601 0.996431
Si Si4 0.500000 0.320374 0.580943
Si Si5 0.714761 0.144772 0.521120
Si Si6 0.500000 0.000000 0.373234
Si Si7 0.685677 0.500000 0.777749
Si Si8 0.689882 0.838946 0.164759
O O1 0.908429 0.500000 0.938287
O O2 0.000000 0.416639 0.043042
O O3 0.227311 0.500000 0.832975
O O4 0.246047 0.412997 0.955178
O O5 0.896274 0.873780 0.027106
O O6 0.000000 0.746303 0.012046
O O7 0.000000 0.909577 0.922500
O O8 0.589934 0.309204 0.632003
O O9 0.750000 0.250000 0.512657
O O10 0.760153 0.115448 0.596072
O O11 0.592548 0.000000 0.325741
O O12 0.683725 0.410975 0.728088
O O13 0.750000 0.750000 0.184476
#
# Coordination Sequence:
#
# PCOD9369862 Si02
#       8
#     4   8   8   8  16   4   8  16
#     4  12  22  39  68 101 126 162 216 274 330 385
#     4  12  23  41  62  95 128 171 214 260 330 389
#     4  12  20  41  68 102 124 158 222 279 323 377
#     4  12  21  40  71  99 123 159 226 281 321 372
#     4  11  21  39  68  95 126 162 217 281 317 371
#     4  12  26  43  64  97 130 176 216 262 330 399
#     4  12  26  44  61  92 139 177 216 250 332 407
#     4  11  23  42  66  96 127 173 219 270 321 384
#
# _framework density 18.35238
#
# number of rings (size 3 to 8) (size 9 to 14) (size 15 to 20)
#    0.000    0.444    8.889    2.000    0.000    0.889 
#    4.000    2.222    0.000    0.000    0.000    0.000 
#    0.000    0.000    0.000    0.000    0.000    0.000 
#
# Total GULP energy -100348.775827 kJ/mol
# GULP energy per Si atom -5574.931990 kJ/mol
# Density = 1.831061 g / cm^3
# Si number density = 18.352380 Si / 1000 Ang^3
#
#
#
# Elastic Constant Matrix: (Units=GPa)
#
#
# Indices 1 2 3 4 5 6 
#
# 1 173.1756 28.6604 41.8832 0.0000 0.0000 0.0000
# 2 28.6604 128.7262 67.7701 0.0000 0.0000 0.0000
# 3 41.8832 67.7701 112.6050 0.0000 0.0000 0.0000
# 4 0.0000 0.0000 0.0000 9.2134 0.0000 0.0000
# 5 0.0000 0.0000 0.0000 0.0000 27.5359 0.0000
# 6 0.0000 0.0000 0.0000 0.0000 0.0000 14.3906
#
#
#
# Elastic Compliance Matrix: (Units=1/GPa)
#
#
# Indices 1 2 3 4 5 6 
#
# 1 0.006351 -0.000249 -0.002212 0.000000 0.000000 0.000000
# 2 -0.000249 0.011381 -0.006757 0.000000 0.000000 0.000000
# 3 -0.002212 -0.006757 0.013770 0.000000 0.000000 0.000000
# 4 0.000000 0.000000 0.000000 0.108538 0.000000 0.000000
# 5 0.000000 0.000000 0.000000 0.000000 0.036316 0.000000
# 6 0.000000 0.000000 0.000000 0.000000 0.000000 0.069490
#
#
# Mechanical properties :
#
#
# Convention : Reuss Voigt Hill
#
# Bulk Modulus (GPa) = 76.53912 76.79267 76.66589
# Shear Modulus (GPa) = 18.61245 28.64085 23.62665
#
# Velocity S-wave (km/s) = 3.18806 3.95474 3.59191
# Velocity P-wave (km/s) = 7.43959 7.92386 7.68554
#
# Compressibility (1/GPa) = 0.01306521
#
# Stress axis : x y z
#
# Youngs Moduli (GPa) = 157.46162 87.86381 72.62191
#
# Poissons Ratio (x) = 0.02191 0.16064
# Poissons Ratio (y) = 0.03927 0.49070
# Poissons Ratio (z) = 0.34831 0.59369
#
# Static dielectric constant tensor:
#      x y z
#    x 1.671960 0.000000 0.000000 
#    y 0.000000 1.669630 0.000000 
#    z 0.000000 0.000000 1.596410 
# 
# From -- ./inp_files/19763.got.cif
#   From: 2010.05.17/outbox.cif.g08.bks.cpg/sg42_10_cif.got.tgz:19763.got - 2010.06.03 19:03:34.
