data_PCOD9369445
_publ_section_title
;
Structure prediction by ZEFSAII (Michael W. Deem and Ramdas Pophale) SiO2 
 PCOD9369445
Probable space group: F M M 2
;
_chemical_formula_sum "Si O2"
_cell_formula_units_Z 88
_cell_length_a 22.042972
_cell_length_b 14.926448
_cell_length_c 12.707061
_cell_angle_alpha 90.000000
_cell_angle_beta 90.000000
_cell_angle_gamma 90.000000
_cell_volume 4180.918830
_symmetry_space_group_name_H-M "F M M 2"
_symmetry_group_IT_number 42
_symmetry_cell_setting 'orthorhombic'
loop_
_space_group_symop_operation_xyz
x,y,z
-x,-y,z
-x,y,z
x,-y,z
x,1/2+y,1/2+z
-x,1/2-y,1/2+z
-x,1/2+y,1/2+z
x,1/2-y,1/2+z
1/2+x,y,1/2+z
1/2-x,-y,1/2+z
1/2-x,y,1/2+z
1/2+x,-y,1/2+z
1/2+x,1/2+y,z
1/2-x,1/2-y,z
1/2-x,1/2+y,z
1/2+x,1/2-y,z
loop_
_atom_site_type_symbol
_atom_site_label
_atom_site_fract_x
_atom_site_fract_y
_atom_site_fract_z
Si Si1 0.930761 0.855104 0.333520
Si Si2 0.930761 0.144915 0.790039
Si Si3 0.250000 0.750000 0.311773
Si Si4 0.324745 0.899693 0.686485
Si Si5 0.324745 0.399694 0.937060
Si Si6 0.069244 0.393284 0.061785
O O1 0.933510 0.750007 0.311793
O O2 0.889395 0.898532 0.245262
O O3 0.902791 0.866511 0.450407
O O4 0.000000 0.890383 0.335260
O O5 0.889394 0.101469 0.878283
O O6 0.902790 0.133529 0.673148
O O7 0.000000 0.109636 0.788287
O O8 0.288530 0.682043 0.239286
O O9 0.288531 0.817956 0.384260
O O10 0.330915 0.885702 0.561772
O O11 0.297659 0.000000 0.702129
O O12 0.297658 0.500000 0.921416
O O13 0.066063 0.500000 0.061813
O O14 0.000000 0.355582 0.061773
#
# Coordination Sequence:
#
# PCOD9369445 Si02
#       6
#    16  16   8  16  16  16
#     4  10  21  37  62  95 131 167 205 253 314 379
#     4  10  21  37  62  95 131 167 205 253 314 379
#     4  12  24  48  70  88 120 174 222 262 314 374
#     4  11  25  44  67  97 129 163 211 268 323 380
#     4  11  25  44  67  97 129 163 211 268 323 380
#     4   9  18  34  56  85 123 165 209 247 287 364
#
# _framework density 21.048003999999999
#
# number of rings (size 3 to 8) (size 9 to 14) (size 15 to 20)
#    0.000    1.636    1.818    2.182    2.545    2.909 
#    3.273    1.818    0.000    0.000    0.000    0.000 
#    0.000    0.000    0.000    0.000    0.000    0.000 
#
# Total GULP energy -122826.998644 kJ/mol
# GULP energy per Si atom -5583.045393 kJ/mol
# Density = 2.100010 g / cm^3
# Si number density = 21.048004 Si / 1000 Ang^3
#
#
#
# Elastic Constant Matrix: (Units=GPa)
#
#
# Indices 1 2 3 4 5 6 
#
# 1 64.2655 36.7344 60.2974 0.0000 0.0000 0.0000
# 2 36.7344 143.2377 79.1850 0.0000 0.0000 0.0000
# 3 60.2974 79.1850 208.7343 0.0000 0.0000 0.0000
# 4 0.0000 0.0000 0.0000 41.5538 0.0000 0.0000
# 5 0.0000 0.0000 0.0000 0.0000 23.2050 0.0000
# 6 0.0000 0.0000 0.0000 0.0000 0.0000 47.4881
#
#
#
# Elastic Compliance Matrix: (Units=1/GPa)
#
#
# Indices 1 2 3 4 5 6 
#
# 1 0.022148 -0.002712 -0.005369 0.000000 0.000000 0.000000
# 2 -0.002712 0.009166 -0.002694 0.000000 0.000000 0.000000
# 3 -0.005369 -0.002694 0.007364 0.000000 0.000000 0.000000
# 4 0.000000 0.000000 0.000000 0.024065 0.000000 0.000000
# 5 0.000000 0.000000 0.000000 0.000000 0.043094 0.000000
# 6 0.000000 0.000000 0.000000 0.000000 0.000000 0.021058
#
#
# Mechanical properties :
#
#
# Convention : Reuss Voigt Hill
#
# Bulk Modulus (GPa) = 58.38322 85.40789 71.89555
# Shear Modulus (GPa) = 32.43494 38.45075 35.44284
#
# Velocity S-wave (km/s) = 3.92981 4.27876 4.10799
# Velocity P-wave (km/s) = 6.95626 8.06698 7.53212
#
# Compressibility (1/GPa) = 0.01712821
#
# Stress axis : x y z
#
# Youngs Moduli (GPa) = 45.15025 109.09770 135.80059
#
# Poissons Ratio (x) = 0.29586 0.72915
# Poissons Ratio (y) = 0.12244 0.36583
# Poissons Ratio (z) = 0.24242 0.29389
#
# Static dielectric constant tensor:
#      x y z
#    x 1.803230 0.000000 0.000000 
#    y 0.000000 1.746810 0.000000 
#    z 0.000000 0.000000 1.744070 
# 
# From -- ./inp_files/10054.got.cif
#   From: 2010.05.17/outbox.cif.g08.bks.cpg/sg42_6_cif.got.tgz:10054.got - 2010.06.03 19:03:34.
