data_PCOD9369755
_publ_section_title
;
Structure prediction by ZEFSAII (Michael W. Deem and Ramdas Pophale) SiO2 
 PCOD9369755
Probable space group: F M M 2
;
_chemical_formula_sum "Si O2"
_cell_formula_units_Z 56
_cell_length_a 10.244672
_cell_length_b 9.712233
_cell_length_c 27.204208
_cell_angle_alpha 90.000000
_cell_angle_beta 90.000000
_cell_angle_gamma 90.000000
_cell_volume 2706.781738
_symmetry_space_group_name_H-M "F M M 2"
_symmetry_group_IT_number 42
_symmetry_cell_setting 'orthorhombic'
loop_
_space_group_symop_operation_xyz
x,y,z
-x,-y,z
-x,y,z
x,-y,z
x,1/2+y,1/2+z
-x,1/2-y,1/2+z
-x,1/2+y,1/2+z
x,1/2-y,1/2+z
1/2+x,y,1/2+z
1/2-x,-y,1/2+z
1/2-x,y,1/2+z
1/2+x,-y,1/2+z
1/2+x,1/2+y,z
1/2-x,1/2-y,z
1/2-x,1/2+y,z
1/2+x,1/2-y,z
loop_
_atom_site_type_symbol
_atom_site_label
_atom_site_fract_x
_atom_site_fract_y
_atom_site_fract_z
Si Si1 0.000000 0.000000 0.327840
Si Si2 0.500000 0.291620 0.873499
Si Si3 0.750000 0.250000 0.436243
Si Si4 0.155225 0.000000 0.502234
Si Si5 0.750000 0.250000 0.678679
Si Si6 0.708272 0.000000 0.743504
Si Si7 0.000000 0.000000 0.784462
Si Si8 0.847524 0.500000 0.112287
O O1 0.872487 0.000000 0.293448
O O2 0.000000 0.868409 0.361569
O O3 0.366706 0.314740 0.903505
O O4 0.500000 0.371820 0.821986
O O5 0.804448 0.132308 0.471384
O O6 0.213293 0.000000 0.557671
O O7 0.000000 0.000000 0.505594
O O8 0.674857 0.141643 0.714392
O O9 0.683919 0.362203 0.643048
O O10 0.865499 0.000000 0.753275
O O11 0.000000 0.500000 0.105729
#
# Coordination Sequence:
#
# PCOD9369755 Si02
#       8
#     4   8   8   8   8   8   4   8
#     4  12  24  42  60  98 132 172 216 284 312 386
#     4  12  24  40  66  94 134 174 226 264 334 378
#     4  12  23  43  70  96 136 176 216 277 321 400
#     4  11  23  44  67 102 132 173 218 272 330 393
#     4  10  23  41  64  98 122 180 210 269 321 398
#     4  11  24  39  68  90 140 168 225 265 332 379
#     4  12  24  42  60  98 128 180 216 272 320 394
#     4  10  23  42  70  93 135 168 215 273 330 392
#
# _framework density 20.688776000000001
#
# number of rings (size 3 to 8) (size 9 to 14) (size 15 to 20)
#    0.000    0.857    1.429    6.000    6.000    0.000 
#    0.000    0.000    3.143    0.000    0.000    0.000 
#    0.000    0.000    0.000    0.000    0.000    0.000 
#
# Total GULP energy -78188.239145 kJ/mol
# GULP energy per Si atom -5584.874225 kJ/mol
# Density = 2.064169 g / cm^3
# Si number density = 20.688776 Si / 1000 Ang^3
#
#
#
# Elastic Constant Matrix: (Units=GPa)
#
#
# Indices 1 2 3 4 5 6 
#
# 1 103.6389 14.0882 37.8487 0.0000 0.0000 0.0000
# 2 14.0882 153.1683 37.3876 0.0000 0.0000 0.0000
# 3 37.8487 37.3876 106.3735 0.0000 0.0000 0.0000
# 4 0.0000 0.0000 0.0000 59.4894 0.0000 0.0000
# 5 0.0000 0.0000 0.0000 0.0000 48.8699 0.0000
# 6 0.0000 0.0000 0.0000 0.0000 0.0000 -2.4888
#
#
#
# Elastic Compliance Matrix: (Units=1/GPa)
#
#
# Indices 1 2 3 4 5 6 
#
# 1 0.011090 -0.000062 -0.003924 0.000000 0.000000 0.000000
# 2 -0.000062 0.007142 -0.002488 0.000000 0.000000 0.000000
# 3 -0.003924 -0.002488 0.011672 0.000000 0.000000 0.000000
# 4 0.000000 0.000000 0.000000 0.016810 0.000000 0.000000
# 5 0.000000 0.000000 0.000000 0.000000 0.020462 0.000000
# 6 0.000000 0.000000 0.000000 0.000000 0.000000 -0.401794
#
#
# Mechanical properties :
#
#
# Convention : Reuss Voigt Hill
#
# Bulk Modulus (GPa) = 58.97988 60.20331 59.59159
# Shear Modulus (GPa) = -15.82193 39.43118 11.80463
#
# Velocity S-wave (km/s) = -2.76843 4.37042 2.39128
# Velocity P-wave (km/s) = 4.28382 7.39122 6.04075
#
# Compressibility (1/GPa) = 0.01695494
#
# Stress axis : x y z
#
# Youngs Moduli (GPa) = 90.16755 140.02068 85.67810
#
# Poissons Ratio (x) = 0.00871 0.33622
# Poissons Ratio (y) = 0.00561 0.21317
# Poissons Ratio (z) = 0.35384 0.34838
#
# Static dielectric constant tensor:
#      x y z
#    x 1.750260 0.000000 0.000000 
#    y 0.000000 1.756890 0.000000 
#    z 0.000000 0.000000 1.746890 
# 
# From -- ./inp_files/30985.got.cif
#   From: 2010.05.17/outbox.cif.g08.bks.cpg/sg42_16_cif.got.tgz:30985.got - 2010.06.03 19:03:34.
