data_PCOD9369625
_publ_section_title
;
Structure prediction by ZEFSAII (Michael W. Deem and Ramdas Pophale) SiO2 
 PCOD9369625
Probable space group: F M M 2
;
_chemical_formula_sum "Si O2"
_cell_formula_units_Z 56
_cell_length_a 23.056066
_cell_length_b 11.294510
_cell_length_c 9.632956
_cell_angle_alpha 90.000000
_cell_angle_beta 90.000000
_cell_angle_gamma 90.000000
_cell_volume 2508.488865
_symmetry_space_group_name_H-M "F M M 2"
_symmetry_group_IT_number 42
_symmetry_cell_setting 'orthorhombic'
loop_
_space_group_symop_operation_xyz
x,y,z
-x,-y,z
-x,y,z
x,-y,z
x,1/2+y,1/2+z
-x,1/2-y,1/2+z
-x,1/2+y,1/2+z
x,1/2-y,1/2+z
1/2+x,y,1/2+z
1/2-x,-y,1/2+z
1/2-x,y,1/2+z
1/2+x,-y,1/2+z
1/2+x,1/2+y,z
1/2-x,1/2-y,z
1/2-x,1/2+y,z
1/2+x,1/2-y,z
loop_
_atom_site_type_symbol
_atom_site_label
_atom_site_fract_x
_atom_site_fract_y
_atom_site_fract_z
Si Si1 0.252814 0.500000 0.317730
Si Si2 0.169227 0.500000 0.547417
Si Si3 0.750000 0.750000 0.789922
Si Si4 0.869467 0.249848 0.154494
Si Si5 0.430845 0.365467 0.405980
O O1 0.189684 0.500000 0.388397
O O2 0.276586 0.500000 0.159041
O O3 0.272299 0.631987 0.368024
O O4 0.136847 0.378121 0.579396
O O5 0.804809 0.788246 0.698323
O O6 0.906093 0.224020 0.292105
O O7 0.901006 0.338015 0.051798
O O8 0.500000 0.354939 0.416917
O O9 0.416390 0.500000 0.362280
#
# Coordination Sequence:
#
# PCOD9369625 Si02
#       5
#     8   8   8  16  16
#     4  10  22  38  58  93 136 180 226 263 335 416
#     4  10  22  40  63  95 136 182 219 275 343 396
#     4  10  24  40  66 100 138 178 224 276 350 416
#     4  11  23  45  69 101 137 178 224 285 343 414
#     4  11  25  46  71  97 134 183 233 286 341 402
#
# _framework density 22.324197999999999
#
# number of rings (size 3 to 8) (size 9 to 14) (size 15 to 20)
#    0.000    1.429    1.429    2.571    2.000   14.857 
#    2.571    0.000    0.000    0.000    0.000    0.000 
#    0.000    0.000    0.000    0.000    0.000    0.000 
#
# Total GULP energy -78140.070892 kJ/mol
# GULP energy per Si atom -5581.433635 kJ/mol
# Density = 2.227339 g / cm^3
# Si number density = 22.324198 Si / 1000 Ang^3
#
#
#
# Elastic Constant Matrix: (Units=GPa)
#
#
# Indices 1 2 3 4 5 6 
#
# 1 93.9031 12.0667 42.9953 0.0000 0.0000 0.0000
# 2 12.0667 90.8053 13.6977 0.0000 0.0000 0.0000
# 3 42.9953 13.6977 90.2040 0.0000 0.0000 0.0000
# 4 0.0000 0.0000 0.0000 46.7635 0.0000 0.0000
# 5 0.0000 0.0000 0.0000 0.0000 32.5333 0.0000
# 6 0.0000 0.0000 0.0000 0.0000 0.0000 32.4383
#
#
#
# Elastic Compliance Matrix: (Units=1/GPa)
#
#
# Indices 1 2 3 4 5 6 
#
# 1 0.013687 -0.000854 -0.006394 0.000000 0.000000 0.000000
# 2 -0.000854 0.011324 -0.001312 0.000000 0.000000 0.000000
# 3 -0.006394 -0.001312 0.014333 0.000000 0.000000 0.000000
# 4 0.000000 0.000000 0.000000 0.021384 0.000000 0.000000
# 5 0.000000 0.000000 0.000000 0.000000 0.030738 0.000000
# 6 0.000000 0.000000 0.000000 0.000000 0.000000 0.030828
#
#
# Mechanical properties :
#
#
# Convention : Reuss Voigt Hill
#
# Bulk Modulus (GPa) = 44.99964 45.82575 45.41270
# Shear Modulus (GPa) = 34.05485 36.09054 35.07270
#
# Velocity S-wave (km/s) = 3.90996 4.02513 3.96796
# Velocity P-wave (km/s) = 6.37062 6.49416 6.43269
#
# Compressibility (1/GPa) = 0.02222240
#
# Stress axis : x y z
#
# Youngs Moduli (GPa) = 73.06400 88.30754 69.76946
#
# Poissons Ratio (x) = 0.07544 0.44610
# Poissons Ratio (y) = 0.06241 0.09157
# Poissons Ratio (z) = 0.46717 0.11590
#
# Static dielectric constant tensor:
#      x y z
#    x 1.823900 0.000000 0.000000 
#    y 0.000000 1.884880 0.000000 
#    z 0.000000 0.000000 1.828180 
# 
# From -- ./inp_files/2154.got.cif
#   From: 2010.05.17/outbox.cif.g08.bks.cpg/sg42_2_cif.got.tgz:2154.got - 2010.06.03 19:03:34.
