data_PCOD9369250
_publ_section_title
;
Structure prediction by ZEFSAII (Michael W. Deem and Ramdas Pophale) SiO2 
 PCOD9369250
Probable space group: F M M 2
;
_chemical_formula_sum "Si O2"
_cell_formula_units_Z 96
_cell_length_a 14.580082
_cell_length_b 30.532406
_cell_length_c 9.996712
_cell_angle_alpha 90.000000
_cell_angle_beta 90.000000
_cell_angle_gamma 90.000000
_cell_volume 4450.186129
_symmetry_space_group_name_H-M "F M M 2"
_symmetry_group_IT_number 42
_symmetry_cell_setting 'orthorhombic'
loop_
_space_group_symop_operation_xyz
x,y,z
-x,-y,z
-x,y,z
x,-y,z
x,1/2+y,1/2+z
-x,1/2-y,1/2+z
-x,1/2+y,1/2+z
x,1/2-y,1/2+z
1/2+x,y,1/2+z
1/2-x,-y,1/2+z
1/2-x,y,1/2+z
1/2+x,-y,1/2+z
1/2+x,1/2+y,z
1/2-x,1/2-y,z
1/2-x,1/2+y,z
1/2+x,1/2-y,z
loop_
_atom_site_type_symbol
_atom_site_label
_atom_site_fract_x
_atom_site_fract_y
_atom_site_fract_z
Si Si1 0.500000 0.196979 0.290450
Si Si2 0.889915 0.452597 0.386245
Si Si3 0.655141 0.139729 0.386307
Si Si4 0.189205 0.794148 0.372794
Si Si5 0.000000 0.232326 0.508113
Si Si6 0.396041 0.356729 0.187565
Si Si7 0.389191 0.952678 0.704724
O O1 0.591164 0.167813 0.287778
O O2 0.500000 0.221554 0.432192
O O3 0.500000 0.230726 0.168103
O O4 0.865616 0.500000 0.327388
O O5 0.840021 0.409645 0.333157
O O6 0.871064 0.454680 0.545339
O O7 0.000000 0.446782 0.370455
O O8 0.746304 0.166299 0.419918
O O9 0.604311 0.137210 0.528815
O O10 0.250000 0.750000 0.368575
O O11 0.096168 0.788484 0.457431
O O12 0.158609 0.813360 0.229014
O O13 0.500000 0.350914 0.234686
O O14 0.360644 0.403444 0.246839
O O15 0.500000 0.952382 0.719793
O O16 0.357043 0.000000 0.762319
#
# Coordination Sequence:
#
# PCOD9369250 Si02
#       7
#     8  16  16  16   8  16  16
#     4  12  26  46  69  94 129 161 212 269 314 385
#     4   8  13  27  54  89 126 159 201 260 316 364
#     4  11  22  38  64  98 125 165 213 265 317 372
#     4  12  27  42  62  90 126 167 211 262 317 380
#     4  12  30  48  64  90 127 171 211 257 324 381
#     4  10  20  38  64  90 126 165 209 262 316 373
#     4   7  11  23  49  86 119 153 199 251 302 356
#
# _framework density 21.572132
#
# number of rings (size 3 to 8) (size 9 to 14) (size 15 to 20)
#    0.000    2.000    4.167    2.000    4.667    0.667 
#    0.000    0.833    0.000    0.000    0.000    3.500 
#    0.000    0.000    0.000    0.000    0.000    0.000 
#
# Total GULP energy -133707.415191 kJ/mol
# GULP energy per Si atom -5571.142300 kJ/mol
# Density = 2.152303 g / cm^3
# Si number density = 21.572132 Si / 1000 Ang^3
#
#
#
# Elastic Constant Matrix: (Units=GPa)
#
#
# Indices 1 2 3 4 5 6 
#
# 1 107.5927 62.5606 -0.9336 0.0000 0.0000 0.0000
# 2 62.5606 187.9060 22.1293 0.0000 0.0000 0.0000
# 3 -0.9336 22.1293 33.6023 0.0000 0.0000 0.0000
# 4 0.0000 0.0000 0.0000 9.3167 0.0000 0.0000
# 5 0.0000 0.0000 0.0000 0.0000 13.2947 0.0000
# 6 0.0000 0.0000 0.0000 0.0000 0.0000 0.9878
#
#
#
# Elastic Compliance Matrix: (Units=1/GPa)
#
#
# Indices 1 2 3 4 5 6 
#
# 1 0.011829 -0.004311 0.003168 0.000000 0.000000 0.000000
# 2 -0.004311 0.007341 -0.004954 0.000000 0.000000 0.000000
# 3 0.003168 -0.004954 0.033110 0.000000 0.000000 0.000000
# 4 0.000000 0.000000 0.000000 0.107334 0.000000 0.000000
# 5 0.000000 0.000000 0.000000 0.000000 0.075218 0.000000
# 6 0.000000 0.000000 0.000000 0.000000 0.000000 1.012312
#
#
# Mechanical properties :
#
#
# Convention : Reuss Voigt Hill
#
# Bulk Modulus (GPa) = 24.94710 55.17927 40.06319
# Shear Modulus (GPa) = 3.92865 21.07616 12.50241
#
# Velocity S-wave (km/s) = 1.35097 3.12910 2.41002
# Velocity P-wave (km/s) = 3.74474 6.22009 5.13384
#
# Compressibility (1/GPa) = 0.04008482
#
# Stress axis : x y z
#
# Youngs Moduli (GPa) = 84.54090 136.22873 30.20198
#
# Poissons Ratio (x) = 0.58731 -0.09568
# Poissons Ratio (y) = 0.36448 0.14962
# Poissons Ratio (z) = -0.26781 0.67488
#
# Static dielectric constant tensor:
#      x y z
#    x 1.845780 0.000000 0.000000 
#    y 0.000000 1.907720 0.000000 
#    z 0.000000 0.000000 1.762290 
# 
# From -- ./inp_files/8075.got.cif
#   From: 2010.05.17/outbox.cif.g08.bks.cpg/sg42_5_cif.got.tgz:8075.got - 2010.06.03 19:03:34.
