data_PCOD9369252
_publ_section_title
;
Structure prediction by ZEFSAII (Michael W. Deem and Ramdas Pophale) SiO2 
 PCOD9369252
Probable space group: F M M 2
;
_chemical_formula_sum "Si O2"
_cell_formula_units_Z 104
_cell_length_a 14.302110
_cell_length_b 19.000848
_cell_length_c 14.765929
_cell_angle_alpha 90.000000
_cell_angle_beta 90.000000
_cell_angle_gamma 90.000000
_cell_volume 4012.673959
_symmetry_space_group_name_H-M "F M M 2"
_symmetry_group_IT_number 42
_symmetry_cell_setting 'orthorhombic'
loop_
_space_group_symop_operation_xyz
x,y,z
-x,-y,z
-x,y,z
x,-y,z
x,1/2+y,1/2+z
-x,1/2-y,1/2+z
-x,1/2+y,1/2+z
x,1/2-y,1/2+z
1/2+x,y,1/2+z
1/2-x,-y,1/2+z
1/2-x,y,1/2+z
1/2+x,-y,1/2+z
1/2+x,1/2+y,z
1/2-x,1/2-y,z
1/2-x,1/2+y,z
1/2+x,1/2-y,z
loop_
_atom_site_type_symbol
_atom_site_label
_atom_site_fract_x
_atom_site_fract_y
_atom_site_fract_z
Si Si1 0.893953 0.098265 0.556210
Si Si2 0.149693 0.738485 0.809434
Si Si3 0.610329 0.742130 0.012131
Si Si4 0.229313 0.500000 0.492439
Si Si5 0.888583 0.898060 0.096028
Si Si6 0.600600 0.612387 0.765392
Si Si7 0.311982 0.079611 0.790339
O O1 0.875416 0.180561 0.547599
O O2 0.812322 0.060032 0.503472
O O3 0.892973 0.082847 0.663246
O O4 0.000000 0.084021 0.522765
O O5 0.250000 0.750000 0.765992
O O6 0.152725 0.763787 0.913214
O O7 0.094431 0.802076 0.762679
O O8 0.133510 0.653463 0.813642
O O9 0.500000 0.731545 0.996953
O O10 0.637620 0.682970 0.082552
O O11 0.148287 0.560560 0.509723
O O12 0.832804 0.924924 0.183205
O O13 0.000000 0.905918 0.110174
O O14 0.500000 0.588667 0.804792
O O15 0.700772 0.590643 0.808338
O O16 0.334151 0.000000 0.825700
#
# Coordination Sequence:
#
# PCOD9369252 Si02
#       7
#    16  16  16   8  16  16  16
#     4  10  21  38  63  94 123 159 206 259 313 367
#     4  10  23  38  62  90 125 166 211 257 311 371
#     4  10  23  42  63  88 120 165 215 261 308 366
#     4  12  22  38  62  92 132 156 200 256 322 378
#     4  11  23  40  65  93 124 163 209 259 313 373
#     4  10  20  38  64  92 122 163 215 263 304 365
#     4  11  22  41  63  98 130 166 203 257 325 383
#
# _framework density 25.917878999999999
#
# number of rings (size 3 to 8) (size 9 to 14) (size 15 to 20)
#    0.000    1.538    2.308    1.846    2.154    2.769 
#    1.385    0.000    0.000    0.000    0.000    0.000 
#    0.000    0.000    0.000    0.000    0.000    0.000 
#
# Total GULP energy -144775.049500 kJ/mol
# GULP energy per Si atom -5568.271135 kJ/mol
# Density = 2.585889 g / cm^3
# Si number density = 25.917879 Si / 1000 Ang^3
#
#
#
# Elastic Constant Matrix: (Units=GPa)
#
#
# Indices 1 2 3 4 5 6 
#
# 1 119.5934 18.5981 19.5540 0.0000 0.0000 0.0000
# 2 18.5981 180.0823 26.7102 0.0000 0.0000 0.0000
# 3 19.5540 26.7102 74.3894 0.0000 0.0000 0.0000
# 4 0.0000 0.0000 0.0000 31.8521 0.0000 0.0000
# 5 0.0000 0.0000 0.0000 0.0000 9.2679 0.0000
# 6 0.0000 0.0000 0.0000 0.0000 0.0000 -71.1313
#
#
#
# Elastic Compliance Matrix: (Units=1/GPa)
#
#
# Indices 1 2 3 4 5 6 
#
# 1 0.008798 -0.000597 -0.002098 0.000000 0.000000 0.000000
# 2 -0.000597 0.005906 -0.001964 0.000000 0.000000 0.000000
# 3 -0.002098 -0.001964 0.014699 0.000000 0.000000 0.000000
# 4 0.000000 0.000000 0.000000 0.031395 0.000000 0.000000
# 5 0.000000 0.000000 0.000000 0.000000 0.107899 0.000000
# 6 0.000000 0.000000 0.000000 0.000000 0.000000 -0.014059
#
#
# Mechanical properties :
#
#
# Convention : Reuss Voigt Hill
#
# Bulk Modulus (GPa) = 49.78868 55.97662 52.88265
# Shear Modulus (GPa) = 29.29943 14.61127 21.95535
#
# Velocity S-wave (km/s) = 3.36590 2.37692 2.91368
# Velocity P-wave (km/s) = 5.86153 5.40163 5.63627
#
# Compressibility (1/GPa) = 0.02008488
#
# Stress axis : x y z
#
# Youngs Moduli (GPa) = 113.66729 169.32072 68.03049
#
# Poissons Ratio (x) = 0.10115 0.14273
# Poissons Ratio (y) = 0.06790 0.13358
# Poissons Ratio (z) = 0.23848 0.33247
#
# Static dielectric constant tensor:
#      x y z
#    x 1.995860 0.000000 0.000000 
#    y 0.000000 2.018060 0.000000 
#    z 0.000000 0.000000 2.137790 
# 
# From -- ./inp_files/25308.got.cif
#   From: 2010.05.17/outbox.cif.g08.bks.cpg/sg42_13_cif.got.tgz:25308.got - 2010.06.03 19:03:34.
