data_PCOD9369814
_publ_section_title
;
Structure prediction by ZEFSAII (Michael W. Deem and Ramdas Pophale) SiO2 
 PCOD9369814
Probable space group: F M M 2
;
_chemical_formula_sum "Si O2"
_cell_formula_units_Z 72
_cell_length_a 19.766298
_cell_length_b 18.108585
_cell_length_c 7.113454
_cell_angle_alpha 90.000000
_cell_angle_beta 90.000000
_cell_angle_gamma 90.000000
_cell_volume 2546.187502
_symmetry_space_group_name_H-M "F M M 2"
_symmetry_group_IT_number 42
_symmetry_cell_setting 'orthorhombic'
loop_
_space_group_symop_operation_xyz
x,y,z
-x,-y,z
-x,y,z
x,-y,z
x,1/2+y,1/2+z
-x,1/2-y,1/2+z
-x,1/2+y,1/2+z
x,1/2-y,1/2+z
1/2+x,y,1/2+z
1/2-x,-y,1/2+z
1/2-x,y,1/2+z
1/2+x,-y,1/2+z
1/2+x,1/2+y,z
1/2-x,1/2-y,z
1/2-x,1/2+y,z
1/2+x,1/2-y,z
loop_
_atom_site_type_symbol
_atom_site_label
_atom_site_fract_x
_atom_site_fract_y
_atom_site_fract_z
Si Si1 0.617478 0.000000 0.681461
Si Si2 0.247724 0.834789 0.012670
Si Si3 0.000000 0.256827 0.899490
Si Si4 0.237745 0.000000 0.442439
Si Si5 0.872282 0.655882 0.820636
Si Si6 0.000000 0.622306 0.223368
Si Si7 0.610476 0.000000 0.231717
O O1 0.696175 0.000000 0.742335
O O2 0.593464 0.077023 0.770435
O O3 0.677090 0.000000 0.100430
O O4 0.250000 0.750000 0.937595
O O5 0.230982 0.916623 0.927956
O O6 0.329704 0.844138 0.016432
O O7 0.189043 0.832048 0.170459
O O8 0.928362 0.281868 0.810956
O O9 0.000000 0.168307 0.918201
O O10 0.000000 0.310218 0.079726
O O11 0.386345 0.000000 0.459261
O O12 0.936067 0.570940 0.195067
#
# Coordination Sequence:
#
# PCOD9369814 Si02
#       7
#     8  16   8   8  16   8   8
#     4  10  24  46  80 120 161 213 289 351 437 507
#     4  11  25  47  76 117 166 222 286 354 446 518
#     4  12  30  51  81 119 178 222 292 366 458 523
#     4  10  24  48  79 121 169 221 288 370 435 519
#     4  11  27  47  80 118 166 226 281 366 434 527
#     4  11  28  51  77 126 166 230 292 369 448 535
#     4  11  26  48  85 116 166 228 295 353 434 530
#
# _framework density 28.277571999999999
#
# number of rings (size 3 to 8) (size 9 to 14) (size 15 to 20)
#    0.000    1.111    0.000    4.000   12.444    2.222 
#    0.000    1.111    0.000    0.000    0.000    0.000 
#    0.000    0.000    0.000    0.000    0.000    0.000 
#
# Total GULP energy -100350.832448 kJ/mol
# GULP energy per Si atom -5575.046247 kJ/mol
# Density = 2.821321 g / cm^3
# Si number density = 28.277572 Si / 1000 Ang^3
#
#
#
# Elastic Constant Matrix: (Units=GPa)
#
#
# Indices 1 2 3 4 5 6 
#
# 1 152.2026 41.6401 60.3442 -0.0001 -0.0001 -0.0002
# 2 41.6401 228.8731 41.3426 0.0001 -0.0003 -0.0003
# 3 60.3442 41.3426 89.4927 0.0011 -0.0007 -0.0006
# 4 -0.0001 0.0001 0.0011 39.4202 -0.0004 -0.0004
# 5 -0.0001 -0.0003 -0.0007 -0.0004 38.2562 0.0002
# 6 -0.0002 -0.0003 -0.0006 -0.0004 0.0002 36.9842
#
#
#
# Elastic Compliance Matrix: (Units=1/GPa)
#
#
# Indices 1 2 3 4 5 6 
#
# 1 0.009041 -0.000593 -0.005822 0.000000 0.000000 0.000000
# 2 -0.000593 0.004806 -0.001820 0.000000 0.000000 0.000000
# 3 -0.005822 -0.001820 0.015941 0.000000 0.000000 0.000000
# 4 0.000000 0.000000 0.000000 0.025368 0.000000 0.000000
# 5 0.000000 0.000000 0.000000 0.000000 0.026140 0.000000
# 6 0.000000 0.000000 0.000000 0.000000 0.000000 0.027039
#
#
# Mechanical properties :
#
#
# Convention : Reuss Voigt Hill
#
# Bulk Modulus (GPa) = 75.09465 84.13581 79.61523
# Shear Modulus (GPa) = 38.68678 44.74823 41.71750
#
# Velocity S-wave (km/s) = 3.70281 3.98233 3.84511
# Velocity P-wave (km/s) = 6.70037 7.13887 6.92309
#
# Compressibility (1/GPa) = 0.01331653
#
# Stress axis : x y z
#
# Youngs Moduli (GPa) = 110.60994 208.07558 62.73216
#
# Poissons Ratio (x) = 0.12342 0.36523
# Poissons Ratio (y) = 0.06561 0.11419
# Poissons Ratio (z) = 0.64398 0.37874
#
# Static dielectric constant tensor:
#      x y z
#    x 2.579240 0.000000 0.000000 
#    y 0.000000 2.187940 0.000000 
#    z 0.000000 0.000000 2.713940 
# 
# From -- ./inp_files/3940.got.cif
#   From: 2010.05.17/outbox.cif.g08.bks.cpg/sg42_2_cif.got.tgz:3940.got - 2010.06.03 19:03:34.
