data_PCOD9369415
_publ_section_title
;
Structure prediction by ZEFSAII (Michael W. Deem and Ramdas Pophale) SiO2 
 PCOD9369415
Probable space group: F M M 2
;
_chemical_formula_sum "Si O2"
_cell_formula_units_Z 96
_cell_length_a 14.578024
_cell_length_b 16.631044
_cell_length_c 16.971655
_cell_angle_alpha 90.000000
_cell_angle_beta 90.000000
_cell_angle_gamma 90.000000
_cell_volume 4114.739714
_symmetry_space_group_name_H-M "F M M 2"
_symmetry_group_IT_number 42
_symmetry_cell_setting 'orthorhombic'
loop_
_space_group_symop_operation_xyz
x,y,z
-x,-y,z
-x,y,z
x,-y,z
x,1/2+y,1/2+z
-x,1/2-y,1/2+z
-x,1/2+y,1/2+z
x,1/2-y,1/2+z
1/2+x,y,1/2+z
1/2-x,-y,1/2+z
1/2-x,y,1/2+z
1/2+x,-y,1/2+z
1/2+x,1/2+y,z
1/2-x,1/2-y,z
1/2-x,1/2+y,z
1/2+x,1/2-y,z
loop_
_atom_site_type_symbol
_atom_site_label
_atom_site_fract_x
_atom_site_fract_y
_atom_site_fract_z
Si Si1 0.704219 0.084577 0.112530
Si Si2 0.604591 0.735325 0.567660
Si Si3 0.110149 0.409447 0.283484
Si Si4 0.102943 0.880848 0.169181
Si Si5 0.390176 0.232780 0.397787
Si Si6 0.391582 0.589483 0.355646
O O1 0.672504 0.161693 0.066265
O O2 0.660432 0.094295 0.199647
O O3 0.812610 0.082692 0.123188
O O4 0.670244 0.000000 0.079125
O O5 0.500000 0.704908 0.562721
O O6 0.611778 0.786443 0.647579
O O7 0.620797 0.788094 0.489781
O O8 0.126512 0.500000 0.315719
O O9 0.142566 0.337341 0.339790
O O10 0.000000 0.402141 0.271251
O O11 0.112320 0.901355 0.260655
O O12 0.000000 0.903795 0.144021
O O13 0.500000 0.237569 0.382689
O O14 0.354635 0.324231 0.385836
O O15 0.500000 0.587483 0.377436
O O16 0.353627 0.500000 0.375744
#
# Coordination Sequence:
#
# PCOD9369415 Si02
#       6
#    16  16  16  16  16  16
#     4  11  22  36  58  88 119 152 194 246 303 358
#     4  10  21  37  58  86 120 157 195 238 294 357
#     4   9  18  35  60  89 119 152 195 245 295 352
#     4  10  21  39  60  80 110 154 204 252 293 345
#     4   9  18  34  57  84 116 154 191 232 289 354
#     4   9  17  31  54  82 109 141 184 233 286 345
#
# _framework density 23.330757999999999
#
# number of rings (size 3 to 8) (size 9 to 14) (size 15 to 20)
#    0.000    2.333    0.000    2.500    0.000    5.333 
#    0.000    6.667    0.000   10.000    0.000    0.000 
#    0.000    0.000    0.000    0.000    0.000    0.000 
#
# Total GULP energy -134005.187579 kJ/mol
# GULP energy per Si atom -5583.549482 kJ/mol
# Density = 2.327766 g / cm^3
# Si number density = 23.330758 Si / 1000 Ang^3
#
#
#
# Elastic Constant Matrix: (Units=GPa)
#
#
# Indices 1 2 3 4 5 6 
#
# 1 81.9965 22.1198 12.5878 0.0000 0.0000 0.0000
# 2 22.1198 144.0828 43.3130 0.0000 0.0000 0.0000
# 3 12.5878 43.3130 55.2587 0.0000 0.0000 0.0000
# 4 0.0000 0.0000 0.0000 -19.8735 0.0000 0.0000
# 5 0.0000 0.0000 0.0000 0.0000 8.7196 0.0000
# 6 0.0000 0.0000 0.0000 0.0000 0.0000 -23.3119
#
#
#
# Elastic Compliance Matrix: (Units=1/GPa)
#
#
# Indices 1 2 3 4 5 6 
#
# 1 0.012859 -0.001431 -0.001808 0.000000 0.000000 0.000000
# 2 -0.001431 0.009239 -0.006916 0.000000 0.000000 0.000000
# 3 -0.001808 -0.006916 0.023929 0.000000 0.000000 0.000000
# 4 0.000000 0.000000 0.000000 -0.050318 0.000000 0.000000
# 5 0.000000 0.000000 0.000000 0.000000 0.114684 0.000000
# 6 0.000000 0.000000 0.000000 0.000000 0.000000 -0.042897
#
#
# Mechanical properties :
#
#
# Convention : Reuss Voigt Hill
#
# Bulk Modulus (GPa) = 38.88226 48.59770 43.73998
# Shear Modulus (GPa) = 51.87866 6.66134 29.27000
#
# Velocity S-wave (km/s) = 4.72064 1.69156 3.54583
# Velocity P-wave (km/s) = 6.81281 4.96893 5.96258
#
# Compressibility (1/GPa) = 0.02571867
#
# Stress axis : x y z
#
# Youngs Moduli (GPa) = 77.76579 108.23562 41.78959
#
# Poissons Ratio (x) = 0.15485 0.07555
# Poissons Ratio (y) = 0.11126 0.28901
# Poissons Ratio (z) = 0.14059 0.74855
#
# Static dielectric constant tensor:
#      x y z
#    x 1.881870 0.000000 0.000000 
#    y 0.000000 1.922050 0.000000 
#    z 0.000000 0.000000 1.823670 
# 
# From -- ./inp_files/25078.got.cif
#   From: 2010.05.17/outbox.cif.g08.bks.cpg/sg42_13_cif.got.tgz:25078.got - 2010.06.03 19:03:34.
