data_PCOD9369356
_publ_section_title
;
Structure prediction by ZEFSAII (Michael W. Deem and Ramdas Pophale) SiO2 
 PCOD9369356
Probable space group: F M M 2
;
_chemical_formula_sum "Si O2"
_cell_formula_units_Z 96
_cell_length_a 18.947151
_cell_length_b 9.059427
_cell_length_c 31.307128
_cell_angle_alpha 90.000000
_cell_angle_beta 90.000000
_cell_angle_gamma 90.000000
_cell_volume 5373.878895
_symmetry_space_group_name_H-M "F M M 2"
_symmetry_group_IT_number 42
_symmetry_cell_setting 'orthorhombic'
loop_
_space_group_symop_operation_xyz
x,y,z
-x,-y,z
-x,y,z
x,-y,z
x,1/2+y,1/2+z
-x,1/2-y,1/2+z
-x,1/2+y,1/2+z
x,1/2-y,1/2+z
1/2+x,y,1/2+z
1/2-x,-y,1/2+z
1/2-x,y,1/2+z
1/2+x,-y,1/2+z
1/2+x,1/2+y,z
1/2-x,1/2-y,z
1/2-x,1/2+y,z
1/2+x,1/2-y,z
loop_
_atom_site_type_symbol
_atom_site_label
_atom_site_fract_x
_atom_site_fract_y
_atom_site_fract_z
Si Si1 0.082461 0.177557 0.869640
Si Si2 0.917216 0.322860 0.536053
Si Si3 0.084663 0.172047 0.625242
Si Si4 0.673691 0.176043 0.796899
Si Si5 0.173283 0.177854 0.953183
Si Si6 0.825921 0.675771 0.697980
O O1 0.117477 0.256461 0.829273
O O2 0.126601 0.218039 0.911909
O O3 0.000000 0.214622 0.874440
O O4 0.087633 0.000000 0.864415
O O5 0.912225 0.500000 0.541634
O O6 0.895528 0.243558 0.579786
O O7 0.868987 0.279799 0.496057
O O8 0.000000 0.288974 0.527520
O O9 0.120315 0.256846 0.664207
O O10 0.000000 0.183225 0.628640
O O11 0.104449 0.000000 0.626213
O O12 0.750000 0.250000 0.804856
O O13 0.654221 0.205748 0.747409
O O14 0.679549 0.000000 0.802520
O O15 0.250000 0.250000 0.951352
O O16 0.180380 0.000000 0.953323
O O17 0.820718 0.500000 0.692704
O O18 0.750000 0.750000 0.690868
#
# Coordination Sequence:
#
# PCOD9369356 Si02
#       6
#    16  16  16  16  16  16
#     4  10  21  37  57  81 110 144 181 222 269 320
#     4   9  18  35  57  77 102 140 183 224 267 317
#     4  10  21  36  55  81 112 144 180 223 270 321
#     4  10  21  37  57  81 109 142 181 224 270 321
#     4  10  21  36  55  80 108 140 179 221 267 321
#     4  10  21  37  57  80 108 143 182 224 270 321
#
# _framework density 17.864191999999999
#
# number of rings (size 3 to 8) (size 9 to 14) (size 15 to 20)
#    0.000    2.167    0.000    2.500    0.000    9.333 
#    0.000    5.000    0.000    3.000    0.000    0.000 
#    0.000    0.000    0.000    0.000    0.000    0.000 
#
# Total GULP energy -134020.294828 kJ/mol
# GULP energy per Si atom -5584.178951 kJ/mol
# Density = 1.782353 g / cm^3
# Si number density = 17.864192 Si / 1000 Ang^3
#
#
#
# Elastic Constant Matrix: (Units=GPa)
#
#
# Indices 1 2 3 4 5 6 
#
# 1 114.9432 59.6509 100.4464 0.0000 0.0000 0.0000
# 2 59.6509 61.2664 75.4742 0.0000 0.0000 0.0000
# 3 100.4464 75.4742 150.4590 0.0000 0.0000 0.0000
# 4 0.0000 0.0000 0.0000 30.5391 0.0000 0.0000
# 5 0.0000 0.0000 0.0000 0.0000 42.7984 0.0000
# 6 0.0000 0.0000 0.0000 0.0000 0.0000 33.8592
#
#
#
# Elastic Compliance Matrix: (Units=1/GPa)
#
#
# Indices 1 2 3 4 5 6 
#
# 1 0.022615 -0.008951 -0.010608 0.000000 0.000000 0.000000
# 2 -0.008951 0.046266 -0.017232 0.000000 0.000000 0.000000
# 3 -0.010608 -0.017232 0.022372 0.000000 0.000000 0.000000
# 4 0.000000 0.000000 0.000000 0.032745 0.000000 0.000000
# 5 0.000000 0.000000 0.000000 0.000000 0.023365 0.000000
# 6 0.000000 0.000000 0.000000 0.000000 0.000000 0.029534
#
#
# Mechanical properties :
#
#
# Convention : Reuss Voigt Hill
#
# Bulk Modulus (GPa) = 56.59070 88.64574 72.61822
# Shear Modulus (GPa) = 19.50305 27.51248 23.50776
#
# Velocity S-wave (km/s) = 3.30773 3.92866 3.63149
# Velocity P-wave (km/s) = 6.80700 8.38504 7.63689
#
# Compressibility (1/GPa) = 0.01767075
#
# Stress axis : x y z
#
# Youngs Moduli (GPa) = 44.21841 21.61420 44.69818
#
# Poissons Ratio (x) = 0.19347 0.47414
# Poissons Ratio (y) = 0.39580 0.77026
# Poissons Ratio (z) = 0.46905 0.37247
#
# Static dielectric constant tensor:
#      x y z
#    x 1.581050 0.000000 0.000000 
#    y 0.000000 1.596800 0.000000 
#    z 0.000000 0.000000 1.591300 
# 
# From -- ./inp_files/31421.got.cif
#   From: 2010.05.17/outbox.cif.g08.bks.cpg/sg42_16_cif.got.tgz:31421.got - 2010.06.03 19:03:34.
