data_PCOD9369004
_publ_section_title
;
Structure prediction by ZEFSAII (Michael W. Deem and Ramdas Pophale) SiO2 
 PCOD9369004
Probable space group: F M M 2
;
_chemical_formula_sum "Si O2"
_cell_formula_units_Z 112
_cell_length_a 17.240082
_cell_length_b 14.332319
_cell_length_c 23.039892
_cell_angle_alpha 90.000000
_cell_angle_beta 90.000000
_cell_angle_gamma 90.000000
_cell_volume 5692.935089
_symmetry_space_group_name_H-M "F M M 2"
_symmetry_group_IT_number 42
_symmetry_cell_setting 'orthorhombic'
loop_
_space_group_symop_operation_xyz
x,y,z
-x,-y,z
-x,y,z
x,-y,z
x,1/2+y,1/2+z
-x,1/2-y,1/2+z
-x,1/2+y,1/2+z
x,1/2-y,1/2+z
1/2+x,y,1/2+z
1/2-x,-y,1/2+z
1/2-x,y,1/2+z
1/2+x,-y,1/2+z
1/2+x,1/2+y,z
1/2-x,1/2-y,z
1/2-x,1/2+y,z
1/2+x,1/2-y,z
loop_
_atom_site_type_symbol
_atom_site_label
_atom_site_fract_x
_atom_site_fract_y
_atom_site_fract_z
Si Si1 0.676300 0.108482 0.660430
Si Si2 0.851555 0.109937 0.617346
Si Si3 0.410424 0.110735 0.539562
Si Si4 0.588748 0.733857 0.716533
Si Si5 0.406797 0.391439 0.828110
Si Si6 0.591523 0.106842 0.989955
Si Si7 0.839193 0.722295 0.435168
O O1 0.763584 0.126162 0.638473
O O2 0.621154 0.123068 0.604470
O O3 0.646821 0.179798 0.708719
O O4 0.671068 0.000000 0.677957
O O5 0.904484 0.172627 0.658136
O O6 0.863616 0.130867 0.549585
O O7 0.869454 0.000000 0.624669
O O8 0.500000 0.141515 0.534839
O O9 0.358626 0.164404 0.493280
O O10 0.407369 0.000000 0.527099
O O11 0.500000 0.766073 0.724096
O O12 0.609630 0.665710 0.769462
O O13 0.500000 0.389257 0.837229
O O14 0.383829 0.500000 0.823193
O O15 0.366341 0.339986 0.881465
O O16 0.500000 0.110765 0.002494
O O17 0.611173 0.000000 0.974208
O O18 0.613165 0.181566 0.941543
O O19 0.750000 0.750000 0.431516
#
# Coordination Sequence:
#
# PCOD9369004 Si02
#       7
#    16  16  16  16  16  16  16
#     4  10  21  36  56  86 123 157 189 230 281 339
#     4  10  20  35  57  84 117 154 191 234 283 335
#     4  10  20  36  60  87 116 153 197 240 279 325
#     4  11  22  37  59  84 112 147 190 240 288 338
#     4  10  23  44  66  85 107 142 194 248 289 333
#     4  10  21  37  57  83 118 157 194 231 276 338
#     4  12  24  37  58  86 116 149 185 236 294 346
#
# _framework density 19.673506
#
# number of rings (size 3 to 8) (size 9 to 14) (size 15 to 20)
#    0.000    1.571    0.000    5.143    0.000    6.857 
#    0.000    0.714    0.000    0.857    0.000    0.000 
#    0.000    0.000    0.000    0.000    0.000    0.000 
#
# Total GULP energy -156562.503169 kJ/mol
# GULP energy per Si atom -5591.517970 kJ/mol
# Density = 1.962873 g / cm^3
# Si number density = 19.673506 Si / 1000 Ang^3
#
#
#
# Elastic Constant Matrix: (Units=GPa)
#
#
# Indices 1 2 3 4 5 6 
#
# 1 77.5424 58.1158 34.4236 0.0000 0.0000 0.0000
# 2 58.1158 120.3380 66.2637 0.0000 0.0000 0.0000
# 3 34.4236 66.2637 52.0314 0.0000 0.0000 0.0000
# 4 0.0000 0.0000 0.0000 34.1316 0.0000 0.0000
# 5 0.0000 0.0000 0.0000 0.0000 -130.8230 0.0000
# 6 0.0000 0.0000 0.0000 0.0000 0.0000 31.9278
#
#
#
# Elastic Compliance Matrix: (Units=1/GPa)
#
#
# Indices 1 2 3 4 5 6 
#
# 1 0.020367 -0.008088 -0.003174 0.000000 0.000000 0.000000
# 2 -0.008088 0.031029 -0.034165 0.000000 0.000000 0.000000
# 3 -0.003174 -0.034165 0.064830 0.000000 0.000000 0.000000
# 4 0.000000 0.000000 0.000000 0.029298 0.000000 0.000000
# 5 0.000000 0.000000 0.000000 0.000000 -0.007644 0.000000
# 6 0.000000 0.000000 0.000000 0.000000 0.000000 0.031321
#
#
# Mechanical properties :
#
#
# Convention : Reuss Voigt Hill
#
# Bulk Modulus (GPa) = 39.41573 63.05755 51.23664
# Shear Modulus (GPa) = 18.62102 -6.87880 5.87111
#
# Velocity S-wave (km/s) = 3.07987 -1.87192 1.72938
# Velocity P-wave (km/s) = 5.72065 5.23923 5.48522
#
# Compressibility (1/GPa) = 0.02537058
#
# Stress axis : x y z
#
# Youngs Moduli (GPa) = 49.09856 32.22774 15.42501
#
# Poissons Ratio (x) = 0.26067 0.04896
# Poissons Ratio (y) = 0.39713 0.52700
# Poissons Ratio (z) = 0.15584 1.10107
#
# Static dielectric constant tensor:
#      x y z
#    x 1.688000 0.000000 0.000000 
#    y 0.000000 1.710320 0.000000 
#    z 0.000000 0.000000 1.663550 
# 
# From -- ./inp_files/29472.got.cif
#   From: 2010.05.17/outbox.cif.g08.bks.cpg/sg42_15_cif.got.tgz:29472.got - 2010.06.03 19:03:34.
