data_PCOD9369680
_publ_section_title
;
Structure prediction by ZEFSAII (Michael W. Deem and Ramdas Pophale) SiO2 
 PCOD9369680
Probable space group: F M M 2
;
_chemical_formula_sum "Si O2"
_cell_formula_units_Z 96
_cell_length_a 23.367190
_cell_length_b 16.358895
_cell_length_c 11.845172
_cell_angle_alpha 90.000000
_cell_angle_beta 90.000000
_cell_angle_gamma 90.000000
_cell_volume 4527.952123
_symmetry_space_group_name_H-M "F M M 2"
_symmetry_group_IT_number 42
_symmetry_cell_setting 'orthorhombic'
loop_
_space_group_symop_operation_xyz
x,y,z
-x,-y,z
-x,y,z
x,-y,z
x,1/2+y,1/2+z
-x,1/2-y,1/2+z
-x,1/2+y,1/2+z
x,1/2-y,1/2+z
1/2+x,y,1/2+z
1/2-x,-y,1/2+z
1/2-x,y,1/2+z
1/2+x,-y,1/2+z
1/2+x,1/2+y,z
1/2-x,1/2-y,z
1/2-x,1/2+y,z
1/2+x,1/2-y,z
loop_
_atom_site_type_symbol
_atom_site_label
_atom_site_fract_x
_atom_site_fract_y
_atom_site_fract_z
Si Si1 0.632858 0.402001 0.750000
Si Si2 0.167836 0.091896 0.112204
Si Si3 0.434945 0.634580 0.977062
Si Si4 0.764790 0.155787 0.902681
Si Si5 0.067061 0.674397 0.038186
Si Si6 0.645451 0.904894 0.857602
O O1 0.632211 0.500000 0.732229
O O2 0.590805 0.377651 0.852747
O O3 0.695326 0.376900 0.799981
O O4 0.607778 0.356638 0.639965
O O5 0.160254 0.130827 0.234500
O O6 0.193030 0.000000 0.121009
O O7 0.104723 0.085613 0.061528
O O8 0.201171 0.143989 0.019511
O O9 0.500000 0.608467 0.978335
O O10 0.431178 0.728521 0.018235
O O11 0.750000 0.250000 0.884323
O O12 0.706091 0.106436 0.918802
O O13 0.094466 0.636410 0.925126
O O14 0.000000 0.651193 0.055878
O O15 0.632123 0.000000 0.842950
#
# Coordination Sequence:
#
# PCOD9369680 Si02
#       6
#    16  16  16  16  16  16
#     4  11  24  45  71 100 137 182 235 286 336 411
#     4  10  23  41  63  95 134 174 224 275 334 412
#     4  10  22  40  66  95 130 173 223 281 336 399
#     4  11  24  42  68  98 133 174 224 281 341 405
#     4  11  26  44  68 102 138 180 230 284 344 408
#     4  11  24  41  64  94 133 175 219 277 338 404
#
# _framework density 21.201637000000002
#
# number of rings (size 3 to 8) (size 9 to 14) (size 15 to 20)
#    0.000    1.333    0.000    6.000    7.000    4.667 
#    0.000    1.667    0.000    0.000    0.000    0.000 
#    0.000    0.000    0.000    0.000    0.000    0.000 
#
# Total GULP energy -134096.107624 kJ/mol
# GULP energy per Si atom -5587.337818 kJ/mol
# Density = 2.115338 g / cm^3
# Si number density = 21.201637 Si / 1000 Ang^3
#
#
#
# Elastic Constant Matrix: (Units=GPa)
#
#
# Indices 1 2 3 4 5 6 
#
# 1 82.9062 25.4804 19.7781 0.0000 0.0000 0.0000
# 2 25.4804 89.9720 27.3060 0.0000 0.0000 0.0000
# 3 19.7781 27.3060 76.2347 0.0000 0.0000 0.0000
# 4 0.0000 0.0000 0.0000 26.9741 0.0000 0.0000
# 5 0.0000 0.0000 0.0000 0.0000 16.7185 0.0000
# 6 0.0000 0.0000 0.0000 0.0000 0.0000 35.4079
#
#
#
# Elastic Compliance Matrix: (Units=1/GPa)
#
#
# Indices 1 2 3 4 5 6 
#
# 1 0.013595 -0.003119 -0.002410 0.000000 0.000000 0.000000
# 2 -0.003119 0.013186 -0.003914 0.000000 0.000000 0.000000
# 3 -0.002410 -0.003914 0.015144 0.000000 0.000000 0.000000
# 4 0.000000 0.000000 0.000000 0.037073 0.000000 0.000000
# 5 0.000000 0.000000 0.000000 0.000000 0.059814 0.000000
# 6 0.000000 0.000000 0.000000 0.000000 0.000000 0.028242
#
#
# Mechanical properties :
#
#
# Convention : Reuss Voigt Hill
#
# Bulk Modulus (GPa) = 43.40230 43.80467 43.60349
# Shear Modulus (GPa) = 25.82383 27.58998 26.70690
#
# Velocity S-wave (km/s) = 3.49379 3.61129 3.55302
# Velocity P-wave (km/s) = 6.06556 6.17206 6.11904
#
# Compressibility (1/GPa) = 0.02304025
#
# Stress axis : x y z
#
# Youngs Moduli (GPa) = 73.55484 75.84021 66.03068
#
# Poissons Ratio (x) = 0.23653 0.15914
# Poissons Ratio (y) = 0.22940 0.25843
# Poissons Ratio (z) = 0.17727 0.29682
#
# Static dielectric constant tensor:
#      x y z
#    x 1.771490 0.000000 0.000000 
#    y 0.000000 1.796270 0.000000 
#    z 0.000000 0.000000 1.799170 
# 
# From -- ./inp_files/10150.got.cif
#   From: 2010.05.17/outbox.cif.g08.bks.cpg/sg42_6_cif.got.tgz:10150.got - 2010.06.03 19:03:34.
