data_PCOD9369783
_publ_section_title
;
Structure prediction by ZEFSAII (Michael W. Deem and Ramdas Pophale) SiO2 
 PCOD9369783
Probable space group: F M M 2
;
_chemical_formula_sum "Si O2"
_cell_formula_units_Z 64
_cell_length_a 21.437982
_cell_length_b 13.085734
_cell_length_c 7.455222
_cell_angle_alpha 90.000000
_cell_angle_beta 90.000000
_cell_angle_gamma 90.000000
_cell_volume 2091.426325
_symmetry_space_group_name_H-M "F M M 2"
_symmetry_group_IT_number 42
_symmetry_cell_setting 'orthorhombic'
loop_
_space_group_symop_operation_xyz
x,y,z
-x,-y,z
-x,y,z
x,-y,z
x,1/2+y,1/2+z
-x,1/2-y,1/2+z
-x,1/2+y,1/2+z
x,1/2-y,1/2+z
1/2+x,y,1/2+z
1/2-x,-y,1/2+z
1/2-x,y,1/2+z
1/2+x,-y,1/2+z
1/2+x,1/2+y,z
1/2-x,1/2-y,z
1/2-x,1/2+y,z
1/2+x,1/2-y,z
loop_
_atom_site_type_symbol
_atom_site_label
_atom_site_fract_x
_atom_site_fract_y
_atom_site_fract_z
Si Si1 0.000000 0.867693 0.280710
Si Si2 0.400481 0.846036 0.491466
Si Si3 0.649799 0.377397 0.471336
Si Si4 0.500000 0.369575 0.702271
Si Si5 0.773491 0.883176 0.836276
O O1 0.062935 0.890804 0.164281
O O2 0.000000 0.897261 0.491197
O O3 0.000000 0.749414 0.236781
O O4 0.438409 0.893325 0.321633
O O5 0.398188 0.720210 0.481657
O O6 0.328261 0.873099 0.482357
O O7 0.630976 0.500000 0.453089
O O8 0.705553 0.332119 0.344339
O O9 0.688834 0.372857 0.654591
O O10 0.752630 0.000000 0.852495
#
# Coordination Sequence:
#
# PCOD9369783 Si02
#       5
#     8  16  16   8  16
#     4  11  23  42  65 104 139 172 235 296 337 408
#     4  11  23  42  76 100 133 191 228 278 356 413
#     4  10  23  44  68 103 144 179 228 290 348 420
#     4  11  23  42  65 104 139 172 235 296 337 408
#     4  10  23  44  68 103 144 179 228 290 348 420
#
# _framework density 30.601127999999999
#
# number of rings (size 3 to 8) (size 9 to 14) (size 15 to 20)
#    0.000    1.500    2.500    2.250    0.000    6.000 
#    0.000    5.000    0.000   18.000    0.000    0.000 
#    0.000    0.000    0.000    0.000    0.000    0.000 
#
# Total GULP energy -89320.148687 kJ/mol
# GULP energy per Si atom -5582.509293 kJ/mol
# Density = 3.053148 g / cm^3
# Si number density = 30.601128 Si / 1000 Ang^3
#
#
#
# Elastic Constant Matrix: (Units=GPa)
#
#
# Indices 1 2 3 4 5 6 
#
# 1 169.1279 65.0516 87.9101 0.0000 0.0000 0.0000
# 2 65.0516 225.4904 39.1483 0.0000 0.0000 0.0000
# 3 87.9101 39.1483 292.4882 0.0000 0.0000 0.0000
# 4 0.0000 0.0000 0.0000 -19.4049 0.0000 0.0000
# 5 0.0000 0.0000 0.0000 0.0000 50.0375 0.0000
# 6 0.0000 0.0000 0.0000 0.0000 0.0000 -80.6132
#
#
#
# Elastic Compliance Matrix: (Units=1/GPa)
#
#
# Indices 1 2 3 4 5 6 
#
# 1 0.007703 -0.001864 -0.002066 0.000000 0.000000 0.000000
# 2 -0.001864 0.004991 -0.000108 0.000000 0.000000 0.000000
# 3 -0.002066 -0.000108 0.004054 0.000000 0.000000 0.000000
# 4 0.000000 0.000000 0.000000 -0.051533 0.000000 0.000000
# 5 0.000000 0.000000 0.000000 0.000000 0.019985 0.000000
# 6 0.000000 0.000000 0.000000 0.000000 0.000000 -0.012405
#
#
# Mechanical properties :
#
#
# Convention : Reuss Voigt Hill
#
# Bulk Modulus (GPa) = 115.28818 119.03627 117.16223
# Shear Modulus (GPa) = -307.91360 23.00365 -142.45498
#
# Velocity S-wave (km/s) = -10.04192 2.74474 -6.83032
# Velocity P-wave (km/s) = 9.83347 7.00204 4.88204
#
# Compressibility (1/GPa) = 0.00867392
#
# Stress axis : x y z
#
# Youngs Moduli (GPa) = 129.81438 200.35431 246.65183
#
# Poissons Ratio (x) = 0.37339 0.50955
# Poissons Ratio (y) = 0.24193 0.02661
# Poissons Ratio (z) = 0.26818 0.02162
#
# Static dielectric constant tensor:
#      x y z
#    x 2.544660 0.000000 0.000000 
#    y 0.000000 2.438650 0.000000 
#    z 0.000000 0.000000 2.521950 
# 
# From -- ./inp_files/4117.got.cif
#   From: 2010.05.17/outbox.cif.g08.bks.cpg/sg42_3_cif.got.tgz:4117.got - 2010.06.03 19:03:34.
