data_PCOD9369332
_publ_section_title
;
Structure prediction by ZEFSAII (Michael W. Deem and Ramdas Pophale) SiO2 
 PCOD9369332
Probable space group: F M M 2
;
_chemical_formula_sum "Si O2"
_cell_formula_units_Z 96
_cell_length_a 11.037194
_cell_length_b 18.151347
_cell_length_c 25.615868
_cell_angle_alpha 90.000000
_cell_angle_beta 90.000000
_cell_angle_gamma 90.000000
_cell_volume 5131.881412
_symmetry_space_group_name_H-M "F M M 2"
_symmetry_group_IT_number 42
_symmetry_cell_setting 'orthorhombic'
loop_
_space_group_symop_operation_xyz
x,y,z
-x,-y,z
-x,y,z
x,-y,z
x,1/2+y,1/2+z
-x,1/2-y,1/2+z
-x,1/2+y,1/2+z
x,1/2-y,1/2+z
1/2+x,y,1/2+z
1/2-x,-y,1/2+z
1/2-x,y,1/2+z
1/2+x,-y,1/2+z
1/2+x,1/2+y,z
1/2-x,1/2-y,z
1/2-x,1/2+y,z
1/2+x,1/2-y,z
loop_
_atom_site_type_symbol
_atom_site_label
_atom_site_fract_x
_atom_site_fract_y
_atom_site_fract_z
Si Si1 0.500000 0.083303 0.570360
Si Si2 0.747314 0.161557 0.191964
Si Si3 0.856879 0.582243 0.975703
Si Si4 0.250866 0.662299 0.070908
Si Si5 0.000000 0.416409 0.696231
Si Si6 0.140616 0.089837 0.360423
Si Si7 0.364767 0.911399 0.287070
O O1 0.381282 0.128757 0.556698
O O2 0.500000 0.077987 0.633367
O O3 0.500000 0.000000 0.549546
O O4 0.750000 0.250000 0.195488
O O5 0.723753 0.141297 0.131189
O O6 0.651194 0.126867 0.231119
O O7 0.877444 0.127285 0.208507
O O8 0.803867 0.500000 0.983162
O O9 0.819947 0.612882 0.919075
O O10 0.000000 0.574620 0.969669
O O11 0.834190 0.629822 0.026652
O O12 0.250000 0.750000 0.069125
O O13 0.000000 0.500000 0.718237
O O14 0.248636 0.112304 0.321620
O O15 0.000000 0.112913 0.348716
O O16 0.137991 0.000000 0.360885
O O17 0.500000 0.894884 0.308360
O O18 0.356689 0.000000 0.281183
#
# Coordination Sequence:
#
# PCOD9369332 Si02
#       7
#     8  16  16  16   8  16  16
#     4   9  18  34  52  76 110 145 191 239 272 327
#     4  10  22  36  54  79 115 154 186 229 289 345
#     4   9  18  34  58  84 108 139 185 233 274 331
#     4  10  21  35  54  80 114 152 185 226 285 343
#     4   9  18  34  56  78 102 145 205 241 260 329
#     4   8  16  34  58  82 108 144 190 233 277 336
#     4  10  21  36  56  85 116 143 182 236 289 343
#
# _framework density 18.706589000000001
#
# number of rings (size 3 to 8) (size 9 to 14) (size 15 to 20)
#    0.000    2.667    0.000    2.000    3.500    2.667 
#    1.500    2.500    0.000    2.000    0.000    0.000 
#    0.000    0.000    0.000    0.000    0.000    0.000 
#
# Total GULP energy -133685.840721 kJ/mol
# GULP energy per Si atom -5570.243363 kJ/mol
# Density = 1.866401 g / cm^3
# Si number density = 18.706589 Si / 1000 Ang^3
#
#
#
# Elastic Constant Matrix: (Units=GPa)
#
#
# Indices 1 2 3 4 5 6 
#
# 1 84.1670 31.6054 46.8774 0.0000 0.0000 0.0000
# 2 31.6054 57.9244 27.2764 0.0000 0.0000 0.0000
# 3 46.8774 27.2764 113.5651 0.0000 0.0000 0.0000
# 4 0.0000 0.0000 0.0000 13.0264 0.0000 0.0000
# 5 0.0000 0.0000 0.0000 0.0000 42.8344 0.0000
# 6 0.0000 0.0000 0.0000 0.0000 0.0000 17.9907
#
#
#
# Elastic Compliance Matrix: (Units=1/GPa)
#
#
# Indices 1 2 3 4 5 6 
#
# 1 0.017618 -0.006978 -0.005597 0.000000 0.000000 0.000000
# 2 -0.006978 0.022229 -0.002459 0.000000 0.000000 0.000000
# 3 -0.005597 -0.002459 0.011706 0.000000 0.000000 0.000000
# 4 0.000000 0.000000 0.000000 0.076767 0.000000 0.000000
# 5 0.000000 0.000000 0.000000 0.000000 0.023346 0.000000
# 6 0.000000 0.000000 0.000000 0.000000 0.000000 0.055584
#
#
# Mechanical properties :
#
#
# Convention : Reuss Voigt Hill
#
# Bulk Modulus (GPa) = 46.53879 51.90831 49.22355
# Shear Modulus (GPa) = 20.45164 24.76346 22.60755
#
# Velocity S-wave (km/s) = 3.31007 3.64233 3.48017
# Velocity P-wave (km/s) = 6.28817 6.74520 6.52069
#
# Compressibility (1/GPa) = 0.02148745
#
# Stress axis : x y z
#
# Youngs Moduli (GPa) = 56.75885 44.98635 85.42464
#
# Poissons Ratio (x) = 0.31390 0.47809
# Poissons Ratio (y) = 0.39605 0.21004
# Poissons Ratio (z) = 0.31766 0.11061
#
# Static dielectric constant tensor:
#      x y z
#    x 1.307640 0.000000 0.000000 
#    y 0.000000 1.619380 0.000000 
#    z 0.000000 0.000000 1.657590 
# 
# From -- ./inp_files/28872.got.cif
#   From: 2010.05.17/outbox.cif.g08.bks.cpg/sg42_15_cif.got.tgz:28872.got - 2010.06.03 19:03:34.
