data_PCOD9369837
_publ_section_title
;
Structure prediction by ZEFSAII (Michael W. Deem and Ramdas Pophale) SiO2 
 PCOD9369837
Probable space group: F M M 2
;
_chemical_formula_sum "Si O2"
_cell_formula_units_Z 96
_cell_length_a 8.513107
_cell_length_b 26.225258
_cell_length_c 23.736889
_cell_angle_alpha 90.000000
_cell_angle_beta 90.000000
_cell_angle_gamma 90.000000
_cell_volume 5299.460511
_symmetry_space_group_name_H-M "F M M 2"
_symmetry_group_IT_number 42
_symmetry_cell_setting 'orthorhombic'
loop_
_space_group_symop_operation_xyz
x,y,z
-x,-y,z
-x,y,z
x,-y,z
x,1/2+y,1/2+z
-x,1/2-y,1/2+z
-x,1/2+y,1/2+z
x,1/2-y,1/2+z
1/2+x,y,1/2+z
1/2-x,-y,1/2+z
1/2-x,y,1/2+z
1/2+x,-y,1/2+z
1/2+x,1/2+y,z
1/2-x,1/2-y,z
1/2-x,1/2+y,z
1/2+x,1/2-y,z
loop_
_atom_site_type_symbol
_atom_site_label
_atom_site_fract_x
_atom_site_fract_y
_atom_site_fract_z
Si Si1 0.315778 0.000000 0.424750
Si Si2 0.190096 0.193677 0.303685
Si Si3 0.188620 0.912475 0.127662
Si Si4 0.675432 0.940518 0.247245
Si Si5 0.814960 0.500000 0.048965
Si Si6 0.680832 0.405521 0.356173
Si Si7 0.811334 0.194017 0.173376
O O1 0.222065 0.000000 0.483025
O O2 0.272647 0.051227 0.390119
O O3 0.500000 0.000000 0.436537
O O4 0.250000 0.250000 0.316647
O O5 0.242155 0.152446 0.350560
O O6 0.241573 0.182867 0.238382
O O7 0.000000 0.192404 0.303564
O O8 0.268375 0.934147 0.183881
O O9 0.243639 0.948864 0.077288
O O10 0.232528 0.852316 0.131616
O O11 0.000000 0.915877 0.131731
O O12 0.500000 0.918181 0.256021
O O13 0.803805 0.920142 0.290417
O O14 0.663182 0.000000 0.259493
O O15 0.000000 0.500000 0.059714
O O16 0.500000 0.406422 0.374705
O O17 0.750000 0.250000 0.157981
O O18 0.000000 0.196034 0.174819
#
# Coordination Sequence:
#
# PCOD9369837 Si02
#       7
#     8  16  16  16   8  16  16
#     4  12  26  43  60  83 108 142 188 232 284 334
#     4   9  18  32  50  79 115 152 187 220 267 326
#     4  11  21  36  57  81 113 150 185 228 279 331
#     4  11  21  31  48  81 115 146 185 225 272 334
#     4  12  26  43  60  83 108 142 188 232 284 334
#     4  11  21  36  57  81 113 150 185 228 279 331
#     4   9  18  32  50  79 115 152 187 220 267 326
#
# _framework density 18.115051999999999
#
# number of rings (size 3 to 8) (size 9 to 14) (size 15 to 20)
#    0.000    1.500    3.333    3.000    0.000    3.333 
#    0.000    0.000    0.000    1.000    0.000    7.000 
#    0.000    0.000    0.000    0.000    0.000    0.000 
#
# Total GULP energy -133788.294997 kJ/mol
# GULP energy per Si atom -5574.512292 kJ/mol
# Density = 1.807382 g / cm^3
# Si number density = 18.115052 Si / 1000 Ang^3
#
#
#
# Elastic Constant Matrix: (Units=GPa)
#
#
# Indices 1 2 3 4 5 6 
#
# 1 48.8691 25.0614 -2.1631 0.0000 0.0000 0.0000
# 2 25.0614 144.7198 33.5002 0.0000 0.0000 0.0000
# 3 -2.1631 33.5002 52.7850 0.0000 0.0000 0.0000
# 4 0.0000 0.0000 0.0000 10.5258 0.0000 0.0000
# 5 0.0000 0.0000 0.0000 0.0000 13.5735 0.0000
# 6 0.0000 0.0000 0.0000 0.0000 0.0000 25.8992
#
#
#
# Elastic Compliance Matrix: (Units=1/GPa)
#
#
# Indices 1 2 3 4 5 6 
#
# 1 0.023191 -0.004965 0.004102 0.000000 0.000000 0.000000
# 2 -0.004965 0.009163 -0.006019 0.000000 0.000000 0.000000
# 3 0.004102 -0.006019 0.022933 0.000000 0.000000 0.000000
# 4 0.000000 0.000000 0.000000 0.095005 0.000000 0.000000
# 5 0.000000 0.000000 0.000000 0.000000 0.073673 0.000000
# 6 0.000000 0.000000 0.000000 0.000000 0.000000 0.038611
#
#
# Mechanical properties :
#
#
# Convention : Reuss Voigt Hill
#
# Bulk Modulus (GPa) = 24.08398 39.90787 31.99592
# Shear Modulus (GPa) = 17.23061 22.66474 19.94767
#
# Velocity S-wave (km/s) = 3.08746 3.54100 3.32198
# Velocity P-wave (km/s) = 5.10233 6.22867 5.69342
#
# Compressibility (1/GPa) = 0.04152138
#
# Stress axis : x y z
#
# Youngs Moduli (GPa) = 43.12054 109.13410 43.60580
#
# Poissons Ratio (x) = 0.54190 -0.17886
# Poissons Ratio (y) = 0.21411 0.26246
# Poissons Ratio (z) = -0.17687 0.65686
#
# Static dielectric constant tensor:
#      x y z
#    x 1.648970 0.000000 0.000000 
#    y 0.000000 1.695590 0.000000 
#    z 0.000000 0.000000 1.584160 
# 
# From -- ./inp_files/28114.got.cif
#   From: 2010.05.17/outbox.cif.g08.bks.cpg/sg42_15_cif.got.tgz:28114.got - 2010.06.03 19:03:34.
