data_PCOD9369500
_publ_section_title
;
Structure prediction by ZEFSAII (Michael W. Deem and Ramdas Pophale) SiO2 
 PCOD9369500
Probable space group: F M M 2
;
_chemical_formula_sum "Si O2"
_cell_formula_units_Z 88
_cell_length_a 15.325630
_cell_length_b 31.709788
_cell_length_c 9.854206
_cell_angle_alpha 90.000000
_cell_angle_beta 90.000000
_cell_angle_gamma 90.000000
_cell_volume 4788.872911
_symmetry_space_group_name_H-M "F M M 2"
_symmetry_group_IT_number 42
_symmetry_cell_setting 'orthorhombic'
loop_
_space_group_symop_operation_xyz
x,y,z
-x,-y,z
-x,y,z
x,-y,z
x,1/2+y,1/2+z
-x,1/2-y,1/2+z
-x,1/2+y,1/2+z
x,1/2-y,1/2+z
1/2+x,y,1/2+z
1/2-x,-y,1/2+z
1/2-x,y,1/2+z
1/2+x,-y,1/2+z
1/2+x,1/2+y,z
1/2-x,1/2-y,z
1/2-x,1/2+y,z
1/2+x,1/2-y,z
loop_
_atom_site_type_symbol
_atom_site_label
_atom_site_fract_x
_atom_site_fract_y
_atom_site_fract_z
Si Si1 0.400977 0.000000 0.623301
Si Si2 0.804789 0.061244 0.318498
Si Si3 0.500000 0.304372 0.415664
Si Si4 0.000000 0.770244 0.113539
Si Si5 0.401171 0.500000 0.513754
Si Si6 0.302166 0.705792 0.082416
Si Si7 0.810987 0.659775 0.864680
Si Si8 0.852420 0.500000 0.318125
O O1 0.352855 0.959518 0.688483
O O2 0.399155 0.000000 0.461739
O O3 0.500000 0.000000 0.668665
O O4 0.804853 0.111038 0.324477
O O5 0.709365 0.041051 0.317503
O O6 0.852403 0.040228 0.448752
O O7 0.500000 0.276352 0.550877
O O8 0.500000 0.275643 0.277363
O O9 0.589362 0.330633 0.409162
O O10 0.092922 0.789340 0.062970
O O11 0.500000 0.500000 0.467296
O O12 0.400036 0.500000 0.675283
O O13 0.250000 0.750000 0.065478
O O14 0.291248 0.688982 0.234952
O O15 0.256898 0.673089 0.980588
#
# Coordination Sequence:
#
# PCOD9369500 Si02
#       8
#     8  16   8   8   8  16  16   8
#     4  10  21  38  63  88 120 158 194 242 299 362
#     4  10  21  39  59  88 120 160 197 236 297 364
#     4  10  22  40  62  91 116 165 195 266 281 376
#     4  10  22  40  62  82 124 153 211 241 317 348
#     4  10  21  38  65  88 120 154 194 246 299 358
#     4  11  23  42  61  92 119 166 200 255 301 362
#     4  11  25  37  66  90 126 154 210 247 304 353
#     4  10  21  38  63  84 122 154 194 244 299 353
#
# _framework density 18.375931000000001
#
# number of rings (size 3 to 8) (size 9 to 14) (size 15 to 20)
#    0.000    1.818    1.818    4.091   10.182    0.000 
#    0.000    0.000    2.000    0.000    0.000    0.000 
#    0.000    0.000    0.000    0.000    0.000    0.000 
#
# Total GULP energy -122735.159017 kJ/mol
# GULP energy per Si atom -5578.870864 kJ/mol
# Density = 1.833411 g / cm^3
# Si number density = 18.375931 Si / 1000 Ang^3
#
#
#
# Elastic Constant Matrix: (Units=GPa)
#
#
# Indices 1 2 3 4 5 6 
#
# 1 107.9502 11.0926 29.8613 0.0000 0.0000 0.0000
# 2 11.0926 71.3749 -4.4495 0.0000 0.0000 0.0000
# 3 29.8613 -4.4495 87.2620 0.0000 0.0000 0.0000
# 4 0.0000 0.0000 0.0000 0.5274 0.0000 0.0000
# 5 0.0000 0.0000 0.0000 0.0000 51.5628 0.0000
# 6 0.0000 0.0000 0.0000 0.0000 0.0000 -10.5952
#
#
#
# Elastic Compliance Matrix: (Units=1/GPa)
#
#
# Indices 1 2 3 4 5 6 
#
# 1 0.010472 -0.001857 -0.003678 0.000000 0.000000 0.000000
# 2 -0.001857 0.014384 0.001369 0.000000 0.000000 0.000000
# 3 -0.003678 0.001369 0.012788 0.000000 0.000000 0.000000
# 4 0.000000 0.000000 0.000000 1.896076 0.000000 0.000000
# 5 0.000000 0.000000 0.000000 0.000000 0.019394 0.000000
# 6 0.000000 0.000000 0.000000 0.000000 0.000000 -0.094382
#
#
# Mechanical properties :
#
#
# Convention : Reuss Voigt Hill
#
# Bulk Modulus (GPa) = 34.11533 37.73286 35.92409
# Shear Modulus (GPa) = 2.66406 23.63786 13.15096
#
# Velocity S-wave (km/s) = 1.20536 3.59046 2.67809
# Velocity P-wave (km/s) = 4.53241 6.14548 5.39952
#
# Compressibility (1/GPa) = 0.02931234
#
# Stress axis : x y z
#
# Youngs Moduli (GPa) = 95.49478 69.51961 78.19704
#
# Poissons Ratio (x) = 0.12908 0.28762
# Poissons Ratio (y) = 0.17731 -0.10704
# Poissons Ratio (z) = 0.35124 -0.09516
#
# Static dielectric constant tensor:
#      x y z
#    x 1.632410 0.000000 0.000000 
#    y 0.000000 1.599620 0.000000 
#    z 0.000000 0.000000 1.636570 
# 
# From -- ./inp_files/3673.got.cif
#   From: 2010.05.17/outbox.cif.g08.bks.cpg/sg42_2_cif.got.tgz:3673.got - 2010.06.03 19:03:34.
