data_PCOD9369929
_publ_section_title
;
Structure prediction by ZEFSAII (Michael W. Deem and Ramdas Pophale) SiO2 
 PCOD9369929
Probable space group: F M M 2
;
_chemical_formula_sum "Si O2"
_cell_formula_units_Z 104
_cell_length_a 25.207993
_cell_length_b 20.903570
_cell_length_c 8.808315
_cell_angle_alpha 90.000000
_cell_angle_beta 90.000000
_cell_angle_gamma 90.000000
_cell_volume 4641.427488
_symmetry_space_group_name_H-M "F M M 2"
_symmetry_group_IT_number 42
_symmetry_cell_setting 'orthorhombic'
loop_
_space_group_symop_operation_xyz
x,y,z
-x,-y,z
-x,y,z
x,-y,z
x,1/2+y,1/2+z
-x,1/2-y,1/2+z
-x,1/2+y,1/2+z
x,1/2-y,1/2+z
1/2+x,y,1/2+z
1/2-x,-y,1/2+z
1/2-x,y,1/2+z
1/2+x,-y,1/2+z
1/2+x,1/2+y,z
1/2-x,1/2-y,z
1/2-x,1/2+y,z
1/2+x,1/2-y,z
loop_
_atom_site_type_symbol
_atom_site_label
_atom_site_fract_x
_atom_site_fract_y
_atom_site_fract_z
Si Si1 0.287501 0.000000 0.736550
Si Si2 0.564038 0.428922 0.751325
Si Si3 0.560186 0.810204 0.704505
Si Si4 0.209741 0.807214 0.750773
Si Si5 0.100885 0.798208 0.885858
Si Si6 0.064688 0.930340 0.396193
Si Si7 0.736518 0.899357 0.994269
O O1 0.292931 0.944330 0.872042
O O2 0.271823 0.944023 0.606870
O O3 0.500000 0.425257 0.763007
O O4 0.580456 0.500000 0.803627
O O5 0.589390 0.371233 0.841146
O O6 0.577991 0.423463 0.573203
O O7 0.500000 0.824276 0.649942
O O8 0.596748 0.793725 0.564169
O O9 0.558546 0.749857 0.814745
O O10 0.581468 0.871493 0.794493
O O11 0.250000 0.750000 0.714417
O O12 0.155752 0.777906 0.812771
O O13 0.229741 0.851339 0.889682
O O14 0.202503 0.854263 0.606880
O O15 0.000000 0.930526 0.391865
O O16 0.083219 0.000000 0.339723
#
# Coordination Sequence:
#
# PCOD9369929 Si02
#       7
#     8  16  16  16  16  16  16
#     4   8  16  38  70  98 118 164 210 262 338 402
#     4   9  18  38  65  95 134 177 215 264 328 398
#     4  11  23  40  64  93 130 171 213 269 332 395
#     4  11  25  42  67  91 133 174 226 276 337 394
#     4  12  26  40  63  96 130 170 226 271 326 402
#     4   8  16  35  65  92 124 168 210 253 318 392
#     4   9  19  40  69  95 124 166 212 271 340 396
#
# _framework density 22.406898999999999
#
# number of rings (size 3 to 8) (size 9 to 14) (size 15 to 20)
#    0.000    2.154    0.000    3.692    4.308    1.846 
#    8.308    1.538    3.385    0.000    0.000    0.000 
#    0.000    0.000    0.000    0.000    0.000    0.000 
#
# Total GULP energy -144770.914262 kJ/mol
# GULP energy per Si atom -5568.112087 kJ/mol
# Density = 2.235590 g / cm^3
# Si number density = 22.406899 Si / 1000 Ang^3
#
#
#
# Elastic Constant Matrix: (Units=GPa)
#
#
# Indices 1 2 3 4 5 6 
#
# 1 38.4809 17.1745 -6.6527 0.0001 -0.0001 -0.0002
# 2 17.1745 125.0670 52.0390 0.0000 -0.0001 -0.0002
# 3 -6.6527 52.0390 90.5649 0.0004 -0.0005 -0.0008
# 4 0.0001 0.0000 0.0004 47.5680 -0.0001 -0.0001
# 5 -0.0001 -0.0001 -0.0005 -0.0001 21.6878 0.0001
# 6 -0.0002 -0.0002 -0.0008 -0.0001 0.0001 5.5391
#
#
#
# Elastic Compliance Matrix: (Units=1/GPa)
#
#
# Indices 1 2 3 4 5 6 
#
# 1 0.029977 -0.006614 0.006002 0.000000 0.000000 0.000001
# 2 -0.006614 0.011967 -0.007362 0.000000 0.000000 -0.000001
# 3 0.006002 -0.007362 0.015713 0.000000 0.000000 0.000002
# 4 0.000000 0.000000 0.000000 0.021023 0.000000 0.000000
# 5 0.000000 0.000000 0.000000 0.000000 0.046109 -0.000001
# 6 0.000001 -0.000001 0.000002 0.000000 -0.000001 0.180535
#
#
# Mechanical properties :
#
#
# Convention : Reuss Voigt Hill
#
# Bulk Modulus (GPa) = 23.97547 42.13714 33.05631
# Shear Modulus (GPa) = 14.91760 27.72911 21.32336
#
# Velocity S-wave (km/s) = 2.58303 3.52166 3.08822
# Velocity P-wave (km/s) = 4.42937 5.94831 5.24413
#
# Compressibility (1/GPa) = 0.04170929
#
# Stress axis : x y z
#
# Youngs Moduli (GPa) = 33.35939 83.56073 63.64092
#
# Poissons Ratio (x) = 0.55267 -0.38200
# Poissons Ratio (y) = 0.22064 0.46855
# Poissons Ratio (z) = -0.20024 0.61520
#
# Static dielectric constant tensor:
#      x y z
#    x 1.883890 0.000000 0.000000 
#    y 0.000000 1.800880 0.000000 
#    z 0.000000 0.000000 1.776690 
# 
# From -- ./inp_files/4261.got.cif
#   From: 2010.05.17/outbox.cif.g08.bks.cpg/sg42_3_cif.got.tgz:4261.got - 2010.06.03 19:03:34.
