data_PCOD9369618
_publ_section_title
;
Structure prediction by ZEFSAII (Michael W. Deem and Ramdas Pophale) SiO2 
 PCOD9369618
Probable space group: F M M 2
;
_chemical_formula_sum "Si O2"
_cell_formula_units_Z 116
_cell_length_a 23.211341
_cell_length_b 26.054580
_cell_length_c 10.174458
_cell_angle_alpha 90.000000
_cell_angle_beta 90.000000
_cell_angle_gamma 90.000000
_cell_volume 6153.122934
_symmetry_space_group_name_H-M "F M M 2"
_symmetry_group_IT_number 42
_symmetry_cell_setting 'orthorhombic'
loop_
_space_group_symop_operation_xyz
x,y,z
-x,-y,z
-x,y,z
x,-y,z
x,1/2+y,1/2+z
-x,1/2-y,1/2+z
-x,1/2+y,1/2+z
x,1/2-y,1/2+z
1/2+x,y,1/2+z
1/2-x,-y,1/2+z
1/2-x,y,1/2+z
1/2+x,-y,1/2+z
1/2+x,1/2+y,z
1/2-x,1/2-y,z
1/2-x,1/2+y,z
1/2+x,1/2-y,z
loop_
_atom_site_type_symbol
_atom_site_label
_atom_site_fract_x
_atom_site_fract_y
_atom_site_fract_z
Si Si1 0.433840 0.810489 0.164020
Si Si2 0.819154 0.055384 0.932000
Si Si3 0.500000 0.000000 0.164019
Si Si4 0.301712 0.835614 0.517717
Si Si5 0.698287 0.664386 0.310322
Si Si6 0.112194 0.924373 0.664019
Si Si7 0.387824 0.750000 0.414020
Si Si8 0.819155 0.944616 0.396037
O O1 0.500000 0.826183 0.164019
O O2 0.397006 0.862889 0.164019
O O3 0.421606 0.777411 0.295266
O O4 0.421605 0.777410 0.032776
O O5 0.850933 0.060979 0.792559
O O6 0.750000 0.054154 0.914018
O O7 0.836070 0.000000 0.990415
O O8 0.829885 0.107817 0.009421
O O9 0.551842 0.955221 0.164019
O O10 0.278706 0.827230 0.664020
O O11 0.249999 0.833032 0.414020
O O12 0.347751 0.792979 0.480402
O O13 0.652248 0.707021 0.347637
O O14 0.670114 0.607817 0.318617
O O15 0.149067 0.939021 0.535479
O O16 0.836072 0.000000 0.337623
#
# Coordination Sequence:
#
# PCOD9369618 Si02
#       8
#    16  16   4  16  16  16  16  16
#     4  12  26  44  66  95 124 177 225 284 333 390
#     4  10  22  37  62  93 136 168 211 273 336 402
#     4  12  24  40  76  96 138 164 236 294 316 384
#     4  11  25  39  62  97 133 173 216 267 334 405
#     4  11  25  39  62  97 133 173 216 267 334 405
#     4  12  22  42  67 103 128 174 228 277 334 391
#     4  12  24  42  66  90 130 170 222 276 328 404
#     4  10  22  37  62  93 136 168 211 273 336 402
#
# _framework density 18.852215000000001
#
# number of rings (size 3 to 8) (size 9 to 14) (size 15 to 20)
#    0.000    0.828    6.207    0.828    9.655    1.655 
#    0.000    0.000    0.000    0.000    0.000    0.966 
#    0.000    0.000    0.000    0.000    0.000    0.000 
#
# Total GULP energy -161645.521624 kJ/mol
# GULP energy per Si atom -5573.983504 kJ/mol
# Density = 1.880931 g / cm^3
# Si number density = 18.852215 Si / 1000 Ang^3
#
#
#
# Elastic Constant Matrix: (Units=GPa)
#
#
# Indices 1 2 3 4 5 6 
#
# 1 90.1750 23.2219 41.1163 0.0000 0.0000 0.0000
# 2 23.2219 143.6880 20.6656 0.0000 0.0000 0.0000
# 3 41.1163 20.6656 128.0425 0.0001 0.0001 -0.0001
# 4 0.0000 0.0000 0.0001 18.4516 -0.0001 -0.0001
# 5 0.0000 0.0000 0.0001 -0.0001 18.1958 0.0000
# 6 0.0000 0.0000 -0.0001 -0.0001 0.0000 32.0685
#
#
#
# Elastic Compliance Matrix: (Units=1/GPa)
#
#
# Indices 1 2 3 4 5 6 
#
# 1 0.013331 -0.001575 -0.004027 0.000000 0.000000 0.000000
# 2 -0.001575 0.007311 -0.000674 0.000000 0.000000 0.000000
# 3 -0.004027 -0.000674 0.009212 0.000000 0.000000 0.000000
# 4 0.000000 0.000000 0.000000 0.054196 0.000000 0.000000
# 5 0.000000 0.000000 0.000000 0.000000 0.054958 0.000000
# 6 0.000000 0.000000 0.000000 0.000000 0.000000 0.031183
#
#
# Mechanical properties :
#
#
# Convention : Reuss Voigt Hill
#
# Bulk Modulus (GPa) = 57.79731 59.10145 58.44938
# Shear Modulus (GPa) = 26.52377 32.20329 29.36353
#
# Velocity S-wave (km/s) = 3.75498 4.13752 3.95088
# Velocity P-wave (km/s) = 7.03736 7.36501 7.20305
#
# Compressibility (1/GPa) = 0.01730184
#
# Stress axis : x y z
#
# Youngs Moduli (GPa) = 75.01195 136.77876 108.55761
#
# Poissons Ratio (x) = 0.21548 0.43712
# Poissons Ratio (y) = 0.11817 0.07318
# Poissons Ratio (z) = 0.30204 0.09220
#
# Static dielectric constant tensor:
#      x y z
#    x 1.624370 0.000000 0.000000 
#    y 0.000000 1.707020 0.000000 
#    z 0.000000 0.000000 1.672780 
# 
# From -- ./inp_files/4872.got.cif
#   From: 2010.05.17/outbox.cif.g08.bks.cpg/sg42_3_cif.got.tgz:4872.got - 2010.06.03 19:03:34.
