data_PCOD9369267
_publ_section_title
;
Structure prediction by ZEFSAII (Michael W. Deem and Ramdas Pophale) SiO2 
 PCOD9369267
Probable space group: F M M 2
;
_chemical_formula_sum "Si O2"
_cell_formula_units_Z 96
_cell_length_a 16.911046
_cell_length_b 26.508867
_cell_length_c 11.588711
_cell_angle_alpha 90.000000
_cell_angle_beta 90.000000
_cell_angle_gamma 90.000000
_cell_volume 5195.134187
_symmetry_space_group_name_H-M "F M M 2"
_symmetry_group_IT_number 42
_symmetry_cell_setting 'orthorhombic'
loop_
_space_group_symop_operation_xyz
x,y,z
-x,-y,z
-x,y,z
x,-y,z
x,1/2+y,1/2+z
-x,1/2-y,1/2+z
-x,1/2+y,1/2+z
x,1/2-y,1/2+z
1/2+x,y,1/2+z
1/2-x,-y,1/2+z
1/2-x,y,1/2+z
1/2+x,-y,1/2+z
1/2+x,1/2+y,z
1/2-x,1/2-y,z
1/2-x,1/2+y,z
1/2+x,1/2-y,z
loop_
_atom_site_type_symbol
_atom_site_label
_atom_site_fract_x
_atom_site_fract_y
_atom_site_fract_z
Si Si1 0.091853 0.703114 0.603060
Si Si2 0.682913 0.347748 0.900738
Si Si3 0.154480 0.379867 0.973715
Si Si4 0.408058 0.815170 0.178650
Si Si5 0.798046 0.558256 0.542106
Si Si6 0.089913 0.901849 0.234006
O O1 0.145163 0.689952 0.493527
O O2 0.112298 0.756648 0.657883
O O3 0.097913 0.656308 0.691338
O O4 0.000000 0.706045 0.565912
O O5 0.777504 0.346182 0.911322
O O6 0.648418 0.337356 0.776417
O O7 0.662773 0.404199 0.947589
O O8 0.105755 0.404297 0.870060
O O9 0.105152 0.346162 0.061133
O O10 0.208297 0.420371 0.043434
O O11 0.500000 0.818325 0.213941
O O12 0.800048 0.500000 0.511053
O O13 0.844991 0.567942 0.660680
O O14 0.000000 0.917926 0.206978
#
# Coordination Sequence:
#
# PCOD9369267 Si02
#       6
#    16  16  16  16  16  16
#     4   9  20  36  57  83 118 163 196 233 282 344
#     4   9  21  38  58  87 118 151 200 238 284 345
#     4  10  22  38  55  92 113 154 185 246 294 341
#     4  11  22  38  59  84 122 162 191 231 297 348
#     4   9  21  41  64  84 112 153 196 243 300 347
#     4  10  20  39  60  86 119 149 199 242 281 350
#
# _framework density 18.478829000000001
#
# number of rings (size 3 to 8) (size 9 to 14) (size 15 to 20)
#    1.000    1.333    0.000    2.000    2.333    2.333 
#    0.000    0.000    0.000    2.500    0.000    0.000 
#    0.000    0.000    0.000    0.000    0.000    0.000 
#
# Total GULP energy -133745.232409 kJ/mol
# GULP energy per Si atom -5572.718017 kJ/mol
# Density = 1.843677 g / cm^3
# Si number density = 18.478829 Si / 1000 Ang^3
#
#
#
# Elastic Constant Matrix: (Units=GPa)
#
#
# Indices 1 2 3 4 5 6 
#
# 1 34.9353 6.5071 12.4990 0.0000 0.0000 0.0000
# 2 6.5071 69.6880 -2.7813 0.0000 0.0000 0.0000
# 3 12.4990 -2.7813 35.9649 0.0000 0.0000 0.0000
# 4 0.0000 0.0000 0.0000 8.4107 0.0000 0.0000
# 5 0.0000 0.0000 0.0000 0.0000 40.6561 0.0000
# 6 0.0000 0.0000 0.0000 0.0000 0.0000 10.5369
#
#
#
# Elastic Compliance Matrix: (Units=1/GPa)
#
#
# Indices 1 2 3 4 5 6 
#
# 1 0.033571 -0.003611 -0.011946 0.000000 0.000000 0.000000
# 2 -0.003611 0.014783 0.002398 0.000000 0.000000 0.000000
# 3 -0.011946 0.002398 0.032142 0.000000 0.000000 0.000000
# 4 0.000000 0.000000 0.000000 0.118896 0.000000 0.000000
# 5 0.000000 0.000000 0.000000 0.000000 0.024597 0.000000
# 6 0.000000 0.000000 0.000000 0.000000 0.000000 0.094905
#
#
# Mechanical properties :
#
#
# Convention : Reuss Voigt Hill
#
# Bulk Modulus (GPa) = 18.45810 19.22642 18.84226
# Shear Modulus (GPa) = 13.76380 20.21163 16.98772
#
# Velocity S-wave (km/s) = 2.73214 3.31081 3.03530
# Velocity P-wave (km/s) = 4.46803 5.00424 4.74372
#
# Compressibility (1/GPa) = 0.05417676
#
# Stress axis : x y z
#
# Youngs Moduli (GPa) = 29.78748 67.64706 31.11179
#
# Poissons Ratio (x) = 0.24431 0.37167
# Poissons Ratio (y) = 0.10758 -0.07462
# Poissons Ratio (z) = 0.35585 -0.16224
#
# Static dielectric constant tensor:
#      x y z
#    x 1.639970 0.000000 0.000000 
#    y 0.000000 1.620460 0.000000 
#    z 0.000000 0.000000 1.620310 
# 
# From -- ./inp_files/8821.got.cif
#   From: 2010.05.17/outbox.cif.g08.bks.cpg/sg42_5_cif.got.tgz:8821.got - 2010.06.03 19:03:34.
