data_PCOD9369082
_publ_section_title
;
Structure prediction by ZEFSAII (Michael W. Deem and Ramdas Pophale) SiO2 
 PCOD9369082
Probable space group: F M M 2
;
_chemical_formula_sum "Si O2"
_cell_formula_units_Z 96
_cell_length_a 8.567591
_cell_length_b 19.012340
_cell_length_c 31.860451
_cell_angle_alpha 90.000000
_cell_angle_beta 90.000000
_cell_angle_gamma 90.000000
_cell_volume 5189.747368
_symmetry_space_group_name_H-M "F M M 2"
_symmetry_group_IT_number 42
_symmetry_cell_setting 'orthorhombic'
loop_
_space_group_symop_operation_xyz
x,y,z
-x,-y,z
-x,y,z
x,-y,z
x,1/2+y,1/2+z
-x,1/2-y,1/2+z
-x,1/2+y,1/2+z
x,1/2-y,1/2+z
1/2+x,y,1/2+z
1/2-x,-y,1/2+z
1/2-x,y,1/2+z
1/2+x,-y,1/2+z
1/2+x,1/2+y,z
1/2-x,1/2-y,z
1/2-x,1/2+y,z
1/2+x,1/2-y,z
loop_
_atom_site_type_symbol
_atom_site_label
_atom_site_fract_x
_atom_site_fract_y
_atom_site_fract_z
Si Si1 0.812711 0.918361 0.047420
Si Si2 0.311643 0.418570 0.296416
Si Si3 0.311694 0.328433 0.375551
Si Si4 0.187584 0.670708 0.125784
Si Si5 0.187701 0.170643 0.470352
Si Si6 0.311885 0.418449 0.706532
O O1 0.745962 0.874020 0.086202
O O2 0.000000 0.915882 0.048825
O O3 0.763051 0.000000 0.049706
O O4 0.754789 0.881699 0.004856
O O5 0.500000 0.415592 0.295195
O O6 0.264556 0.500000 0.300358
O O7 0.256796 0.376363 0.337166
O O8 0.248209 0.392922 0.251694
O O9 0.500000 0.327725 0.374718
O O10 0.250000 0.250000 0.369498
O O11 0.266283 0.350776 0.422775
O O12 0.250000 0.750000 0.124202
O O13 0.239453 0.630537 0.168193
O O14 0.000000 0.672444 0.125167
O O15 0.250000 0.250000 0.477414
O O16 0.000000 0.171845 0.473133
O O17 0.500000 0.418726 0.707164
O O18 0.260050 0.500000 0.700615
#
# Coordination Sequence:
#
# PCOD9369082 Si02
#       6
#    16  16  16  16  16  16
#     4  11  24  40  58  82 111 141 177 222 270 322
#     4   9  18  33  53  77 106 140 178 220 265 313
#     4   9  19  34  53  78 107 141 179 219 263 313
#     4  11  23  39  59  82 110 143 180 222 268 321
#     4  10  20  36  58  81 109 145 183 224 270 320
#     4   9  19  36  56  78 105 139 179 221 266 317
#
# _framework density 18.498009
#
# number of rings (size 3 to 8) (size 9 to 14) (size 15 to 20)
#    0.000    2.167    0.000    2.500    0.000    6.000 
#    0.000    6.667    0.000    2.000    0.000    0.000 
#    0.000    0.000    0.000    0.000    0.000    0.000 
#
# Total GULP energy -133991.229042 kJ/mol
# GULP energy per Si atom -5582.967877 kJ/mol
# Density = 1.845591 g / cm^3
# Si number density = 18.498009 Si / 1000 Ang^3
#
#
#
# Elastic Constant Matrix: (Units=GPa)
#
#
# Indices 1 2 3 4 5 6 
#
# 1 29.6916 33.1038 38.4645 0.0000 0.0000 0.0000
# 2 33.1038 128.7222 123.4102 0.0000 0.0000 0.0000
# 3 38.4645 123.4102 209.7372 0.0000 0.0000 0.0000
# 4 0.0000 0.0000 0.0000 43.1634 0.0000 0.0000
# 5 0.0000 0.0000 0.0000 0.0000 31.3019 0.0000
# 6 0.0000 0.0000 0.0000 0.0000 0.0000 22.5423
#
#
#
# Elastic Compliance Matrix: (Units=1/GPa)
#
#
# Indices 1 2 3 4 5 6 
#
# 1 0.048348 -0.009023 -0.003558 0.000000 0.000000 0.000000
# 2 -0.009023 0.019507 -0.009823 0.000000 0.000000 0.000000
# 3 -0.003558 -0.009823 0.011200 0.000000 0.000000 0.000000
# 4 0.000000 0.000000 0.000000 0.023168 0.000000 0.000000
# 5 0.000000 0.000000 0.000000 0.000000 0.031947 0.000000
# 6 0.000000 0.000000 0.000000 0.000000 0.000000 0.044361
#
#
# Mechanical properties :
#
#
# Convention : Reuss Voigt Hill
#
# Bulk Modulus (GPa) = 29.19884 84.23422 56.71653
# Shear Modulus (GPa) = 21.29878 30.94636 26.12257
#
# Velocity S-wave (km/s) = 3.39692 4.09462 3.76198
# Velocity P-wave (km/s) = 5.58611 8.24562 7.04254
#
# Compressibility (1/GPa) = 0.03424794
#
# Stress axis : x y z
#
# Youngs Moduli (GPa) = 20.68320 51.26371 89.28324
#
# Poissons Ratio (x) = 0.46256 0.31763
# Poissons Ratio (y) = 0.18663 0.87705
# Poissons Ratio (z) = 0.07358 0.50357
#
# Static dielectric constant tensor:
#      x y z
#    x 1.631080 0.000000 0.000000 
#    y 0.000000 1.610910 0.000000 
#    z 0.000000 0.000000 1.633760 
# 
# From -- ./inp_files/31434.got.cif
#   From: 2010.05.17/outbox.cif.g08.bks.cpg/sg42_16_cif.got.tgz:31434.got - 2010.06.03 19:03:34.
