data_PCOD9369579
_publ_section_title
;
Structure prediction by ZEFSAII (Michael W. Deem and Ramdas Pophale) SiO2 
 PCOD9369579
Probable space group: F M M 2
;
_chemical_formula_sum "Si O2"
_cell_formula_units_Z 104
_cell_length_a 28.300839
_cell_length_b 14.633918
_cell_length_c 10.930757
_cell_angle_alpha 90.000000
_cell_angle_beta 90.000000
_cell_angle_gamma 90.000000
_cell_volume 4526.996592
_symmetry_space_group_name_H-M "F M M 2"
_symmetry_group_IT_number 42
_symmetry_cell_setting 'orthorhombic'
loop_
_space_group_symop_operation_xyz
x,y,z
-x,-y,z
-x,y,z
x,-y,z
x,1/2+y,1/2+z
-x,1/2-y,1/2+z
-x,1/2+y,1/2+z
x,1/2-y,1/2+z
1/2+x,y,1/2+z
1/2-x,-y,1/2+z
1/2-x,y,1/2+z
1/2+x,-y,1/2+z
1/2+x,1/2+y,z
1/2-x,1/2-y,z
1/2-x,1/2+y,z
1/2+x,1/2-y,z
loop_
_atom_site_type_symbol
_atom_site_label
_atom_site_fract_x
_atom_site_fract_y
_atom_site_fract_z
Si Si1 0.945268 0.145328 0.670830
Si Si2 0.554918 0.133715 0.652540
Si Si3 0.129745 0.347027 0.982913
Si Si4 0.613585 0.000000 0.820700
Si Si5 0.887284 0.360058 0.411041
Si Si6 0.722279 0.396094 0.897212
Si Si7 0.719268 0.887524 0.128337
O O1 0.942951 0.256416 0.669367
O O2 0.917599 0.114814 0.549036
O O3 0.917020 0.115604 0.790995
O O4 0.000000 0.118189 0.672223
O O5 0.500000 0.110222 0.640294
O O6 0.579528 0.079786 0.761290
O O7 0.584023 0.110205 0.530598
O O8 0.146022 0.419710 0.883925
O O9 0.119219 0.249209 0.926035
O O10 0.169084 0.345145 0.088878
O O11 0.834371 0.396611 0.407517
O O12 0.739140 0.500000 0.893011
O O13 0.733570 0.355984 0.764002
O O14 0.744701 0.358833 0.021564
O O15 0.715020 0.000000 0.132877
#
# Coordination Sequence:
#
# PCOD9369579 Si02
#       7
#    16  16  16   8  16  16  16
#     4  10  21  41  66  92 130 177 221 270 331 387
#     4  10  23  39  61  95 135 176 220 273 329 391
#     4  11  23  40  68  98 131 173 222 276 332 397
#     4  12  23  40  64  96 132 178 218 278 325 402
#     4  11  22  42  66  96 132 177 221 274 331 400
#     4  10  23  42  69  94 130 170 220 274 345 409
#     4  10  21  43  66  95 128 170 215 279 340 404
#
# _framework density 22.973289000000001
#
# number of rings (size 3 to 8) (size 9 to 14) (size 15 to 20)
#    0.000    1.538    3.846    0.692    1.077    3.692 
#    2.769    1.538    0.000    0.000    0.000    0.000 
#    0.000    0.000    0.000    0.000    0.000    0.000 
#
# Total GULP energy -144873.165496 kJ/mol
# GULP energy per Si atom -5572.044827 kJ/mol
# Density = 2.292100 g / cm^3
# Si number density = 22.973289 Si / 1000 Ang^3
#
#
#
# Elastic Constant Matrix: (Units=GPa)
#
#
# Indices 1 2 3 4 5 6 
#
# 1 79.4440 -19.5809 52.4757 0.0000 0.0000 0.0000
# 2 -19.5809 77.8535 -8.3741 0.0000 0.0000 0.0000
# 3 52.4757 -8.3741 122.3210 0.0000 0.0000 0.0000
# 4 0.0000 0.0000 0.0000 -24.8498 0.0000 0.0000
# 5 0.0000 0.0000 0.0000 0.0000 47.6342 0.0000
# 6 0.0000 0.0000 0.0000 0.0000 0.0000 24.5132
#
#
#
# Elastic Compliance Matrix: (Units=1/GPa)
#
#
# Indices 1 2 3 4 5 6 
#
# 1 0.018648 0.003858 -0.007736 0.000000 0.000000 0.000000
# 2 0.003858 0.013738 -0.000715 0.000000 0.000000 0.000000
# 3 -0.007736 -0.000715 0.011445 0.000000 0.000000 0.000000
# 4 0.000000 0.000000 0.000000 -0.040242 0.000000 0.000000
# 5 0.000000 0.000000 0.000000 0.000000 0.020993 0.000000
# 6 0.000000 0.000000 0.000000 0.000000 0.000000 0.040794
#
#
# Mechanical properties :
#
#
# Convention : Reuss Voigt Hill
#
# Bulk Modulus (GPa) = 28.86296 36.51778 32.69037
# Shear Modulus (GPa) = 58.06439 26.46602 42.26520
#
# Velocity S-wave (km/s) = 5.03285 3.39785 4.29389
# Velocity P-wave (km/s) = 6.80910 5.59679 6.23249
#
# Compressibility (1/GPa) = 0.03464648
#
# Stress axis : x y z
#
# Youngs Moduli (GPa) = 53.62409 72.79010 87.37409
#
# Poissons Ratio (x) = -0.28083 0.67593
# Poissons Ratio (y) = -0.20689 0.06244
# Poissons Ratio (z) = 0.41484 0.05202
#
# Static dielectric constant tensor:
#      x y z
#    x 1.811370 0.000000 0.000000 
#    y 0.000000 1.863090 0.000000 
#    z 0.000000 0.000000 1.895670 
# 
# From -- ./inp_files/10692.got.cif
#   From: 2010.05.17/outbox.cif.g08.bks.cpg/sg42_6_cif.got.tgz:10692.got - 2010.06.03 19:03:34.
