data_PCOD9369294
_publ_section_title
;
Structure prediction by ZEFSAII (Michael W. Deem and Ramdas Pophale) SiO2 
 PCOD9369294
Probable space group: F M M 2
;
_chemical_formula_sum "Si O2"
_cell_formula_units_Z 100
_cell_length_a 20.331187
_cell_length_b 8.021012
_cell_length_c 29.671945
_cell_angle_alpha 90.000000
_cell_angle_beta 90.000000
_cell_angle_gamma 90.000000
_cell_volume 4838.802722
_symmetry_space_group_name_H-M "F M M 2"
_symmetry_group_IT_number 42
_symmetry_cell_setting 'orthorhombic'
loop_
_space_group_symop_operation_xyz
x,y,z
-x,-y,z
-x,y,z
x,-y,z
x,1/2+y,1/2+z
-x,1/2-y,1/2+z
-x,1/2+y,1/2+z
x,1/2-y,1/2+z
1/2+x,y,1/2+z
1/2-x,-y,1/2+z
1/2-x,y,1/2+z
1/2+x,-y,1/2+z
1/2+x,1/2+y,z
1/2-x,1/2-y,z
1/2-x,1/2+y,z
1/2+x,1/2-y,z
loop_
_atom_site_type_symbol
_atom_site_label
_atom_site_fract_x
_atom_site_fract_y
_atom_site_fract_z
Si Si1 0.173349 0.698779 0.111630
Si Si2 0.074260 0.800867 0.189540
Si Si3 0.576517 0.202665 0.031672
Si Si4 0.573813 0.697004 0.792034
Si Si5 0.000000 0.000000 0.407194
Si Si6 0.405069 0.188438 0.430217
Si Si7 0.182085 0.189990 0.360440
O O1 0.172341 0.500000 0.110306
O O2 0.250000 0.750000 0.111199
O O3 0.131857 0.753360 0.155370
O O4 0.129165 0.757131 0.069079
O O5 0.085177 0.725776 0.239080
O O6 0.000000 0.747556 0.174389
O O7 0.073328 0.000000 0.193941
O O8 0.500000 0.243155 0.043147
O O9 0.579024 0.000000 0.026822
O O10 0.593335 0.283024 0.983665
O O11 0.500000 0.759663 0.802191
O O12 0.576195 0.500000 0.801321
O O13 0.625942 0.785782 0.823249
O O14 0.055528 0.848704 0.411047
O O15 0.336138 0.204274 0.404555
O O16 0.429351 0.000000 0.420826
O O17 0.250000 0.250000 0.339750
O O18 0.188481 0.000000 0.373423
#
# Coordination Sequence:
#
# PCOD9369294 Si02
#       7
#    16  16  16  16   4  16  16
#     4  11  24  40  62  89 127 169 209 257 313 377
#     4  10  21  40  64  93 125 159 204 262 318 376
#     4  10  20  40  64  91 123 162 211 267 321 378
#     4  10  22  40  66  97 126 160 209 259 318 384
#     4  12  22  44  64 102 132 164 216 280 316 386
#     4  12  24  41  68  98 132 172 216 267 328 384
#     4  12  26  45  64  92 131 172 216 264 320 386
#
# _framework density 20.666270000000001
#
# number of rings (size 3 to 8) (size 9 to 14) (size 15 to 20)
#    0.000    1.120    2.400    3.600    1.120    5.120 
#    0.000    4.800    0.000    0.000    0.000    0.000 
#    0.000    0.000    0.000    0.000    0.000    0.000 
#
# Total GULP energy -139397.717815 kJ/mol
# GULP energy per Si atom -5575.908713 kJ/mol
# Density = 2.061923 g / cm^3
# Si number density = 20.666270 Si / 1000 Ang^3
#
#
#
# Elastic Constant Matrix: (Units=GPa)
#
#
# Indices 1 2 3 4 5 6 
#
# 1 142.6202 35.4901 77.8657 0.0000 0.0000 0.0000
# 2 35.4901 105.2383 16.2908 0.0000 0.0000 0.0000
# 3 77.8657 16.2908 92.3090 0.0000 0.0000 0.0000
# 4 0.0000 0.0000 0.0000 16.3102 0.0000 0.0000
# 5 0.0000 0.0000 0.0000 0.0000 22.3702 0.0000
# 6 0.0000 0.0000 0.0000 0.0000 0.0000 14.2564
#
#
#
# Elastic Compliance Matrix: (Units=1/GPa)
#
#
# Indices 1 2 3 4 5 6 
#
# 1 0.013828 -0.002938 -0.011146 0.000000 0.000000 0.000000
# 2 -0.002938 0.010393 0.000644 0.000000 0.000000 0.000000
# 3 -0.011146 0.000644 0.020121 0.000000 0.000000 0.000000
# 4 0.000000 0.000000 0.000000 0.061311 0.000000 0.000000
# 5 0.000000 0.000000 0.000000 0.000000 0.044702 0.000000
# 6 0.000000 0.000000 0.000000 0.000000 0.000000 0.070144
#
#
# Mechanical properties :
#
#
# Convention : Reuss Voigt Hill
#
# Bulk Modulus (GPa) = 57.26336 66.60675 61.93505
# Shear Modulus (GPa) = 19.74717 24.62210 22.18464
#
# Velocity S-wave (km/s) = 3.09451 3.45543 3.27994
# Velocity P-wave (km/s) = 6.36685 6.94404 6.66170
#
# Compressibility (1/GPa) = 0.01746317
#
# Stress axis : x y z
#
# Youngs Moduli (GPa) = 72.31721 96.21565 49.69824
#
# Poissons Ratio (x) = 0.28267 0.55393
# Poissons Ratio (y) = 0.21246 -0.03201
# Poissons Ratio (z) = 0.80604 -0.06196
#
# Static dielectric constant tensor:
#      x y z
#    x 1.759750 0.000000 0.000000 
#    y 0.000000 1.728550 0.000000 
#    z 0.000000 0.000000 1.727810 
# 
# From -- ./inp_files/33034.got.cif
#   From: 2010.05.17/outbox.cif.g08.bks.cpg/sg42_17_cif.got.tgz:33034.got - 2010.06.03 19:03:34.
