data_PCOD9369782
_publ_section_title
;
Structure prediction by ZEFSAII (Michael W. Deem and Ramdas Pophale) SiO2 
 PCOD9369782
Probable space group: F M M 2
;
_chemical_formula_sum "Si O2"
_cell_formula_units_Z 48
_cell_length_a 18.296386
_cell_length_b 11.824421
_cell_length_c 9.695123
_cell_angle_alpha 90.000000
_cell_angle_beta 90.000000
_cell_angle_gamma 90.000000
_cell_volume 2097.483347
_symmetry_space_group_name_H-M "F M M 2"
_symmetry_group_IT_number 42
_symmetry_cell_setting 'orthorhombic'
loop_
_space_group_symop_operation_xyz
x,y,z
-x,-y,z
-x,y,z
x,-y,z
x,1/2+y,1/2+z
-x,1/2-y,1/2+z
-x,1/2+y,1/2+z
x,1/2-y,1/2+z
1/2+x,y,1/2+z
1/2-x,-y,1/2+z
1/2-x,y,1/2+z
1/2+x,-y,1/2+z
1/2+x,1/2+y,z
1/2-x,1/2-y,z
1/2-x,1/2+y,z
1/2+x,1/2-y,z
loop_
_atom_site_type_symbol
_atom_site_label
_atom_site_fract_x
_atom_site_fract_y
_atom_site_fract_z
Si Si1 0.620880 0.371049 0.091010
Si Si2 0.080542 0.309673 0.891299
Si Si3 0.236693 0.374787 0.927142
O O1 0.598782 0.500000 0.110305
O O2 0.597828 0.307770 0.229163
O O3 0.584169 0.313152 0.960011
O O4 0.707384 0.369416 0.055577
O O5 0.150381 0.372453 0.957331
O O6 0.000000 0.358134 0.913546
O O7 0.251462 0.500000 0.861660
O O8 0.250000 0.250000 0.857684
#
# Coordination Sequence:
#
# PCOD9369782 Si02
#       3
#    16  16  16
#     4  10  23  44  67  94 136 185 228 277 341 413
#     4  11  23  40  67 102 136 174 225 285 347 407
#     4   9  20  38  62  93 128 172 224 272 327 401
#
# _framework density 22.884567000000001
#
# number of rings (size 3 to 8) (size 9 to 14) (size 15 to 20)
#    0.000    2.000    0.000    2.000    0.000   16.667 
#    0.000   15.000    0.000   12.000    0.000    0.000 
#    0.000    0.000    0.000    0.000    0.000    0.000 
#
# Total GULP energy -66832.436188 kJ/mol
# GULP energy per Si atom -5569.369682 kJ/mol
# Density = 2.283248 g / cm^3
# Si number density = 22.884567 Si / 1000 Ang^3
#
#
#
# Elastic Constant Matrix: (Units=GPa)
#
#
# Indices 1 2 3 4 5 6 
#
# 1 196.3260 32.6666 36.0666 0.0000 0.0000 0.0000
# 2 32.6666 140.4831 66.2034 0.0000 0.0000 0.0000
# 3 36.0666 66.2034 117.3171 0.0000 0.0000 0.0000
# 4 0.0000 0.0000 0.0000 4.1269 0.0000 0.0000
# 5 0.0000 0.0000 0.0000 0.0000 17.9777 0.0000
# 6 0.0000 0.0000 0.0000 0.0000 0.0000 3.9329
#
#
#
# Elastic Compliance Matrix: (Units=1/GPa)
#
#
# Indices 1 2 3 4 5 6 
#
# 1 0.005442 -0.000650 -0.001306 0.000000 0.000000 0.000000
# 2 -0.000650 0.009775 -0.005316 0.000000 0.000000 0.000000
# 3 -0.001306 -0.005316 0.011925 0.000000 0.000000 0.000000
# 4 0.000000 0.000000 0.000000 0.242311 0.000000 0.000000
# 5 0.000000 0.000000 0.000000 0.000000 0.055625 0.000000
# 6 0.000000 0.000000 0.000000 0.000000 0.000000 0.254266
#
#
# Mechanical properties :
#
#
# Convention : Reuss Voigt Hill
#
# Bulk Modulus (GPa) = 79.38169 80.44438 79.91303
# Shear Modulus (GPa) = 8.36000 26.48680 17.42340
#
# Velocity S-wave (km/s) = 1.91339 3.40576 2.76227
# Velocity P-wave (km/s) = 6.29639 7.11998 6.72082
#
# Compressibility (1/GPa) = 0.01259736
#
# Stress axis : x y z
#
# Youngs Moduli (GPa) = 183.76773 102.30519 83.85405
#
# Poissons Ratio (x) = 0.06648 0.10953
# Poissons Ratio (y) = 0.11941 0.44579
# Poissons Ratio (z) = 0.24005 0.54388
#
# Static dielectric constant tensor:
#      x y z
#    x 1.904460 0.000000 0.000000 
#    y 0.000000 1.938090 0.000000 
#    z 0.000000 0.000000 1.806910 
# 
# From -- ./inp_files/2421.got.cif
#   From: 2010.05.17/outbox.cif.g08.bks.cpg/sg42_2_cif.got.tgz:2421.got - 2010.06.03 19:03:34.
