data_PCOD9369719
_publ_section_title
;
Structure prediction by ZEFSAII (Michael W. Deem and Ramdas Pophale) SiO2 
 PCOD9369719
Probable space group: F M M 2
;
_chemical_formula_sum "Si O2"
_cell_formula_units_Z 80
_cell_length_a 28.486301
_cell_length_b 11.472292
_cell_length_c 9.808698
_cell_angle_alpha 90.000000
_cell_angle_beta 90.000000
_cell_angle_gamma 90.000000
_cell_volume 3205.513532
_symmetry_space_group_name_H-M "F M M 2"
_symmetry_group_IT_number 42
_symmetry_cell_setting 'orthorhombic'
loop_
_space_group_symop_operation_xyz
x,y,z
-x,-y,z
-x,y,z
x,-y,z
x,1/2+y,1/2+z
-x,1/2-y,1/2+z
-x,1/2+y,1/2+z
x,1/2-y,1/2+z
1/2+x,y,1/2+z
1/2-x,-y,1/2+z
1/2-x,y,1/2+z
1/2+x,-y,1/2+z
1/2+x,1/2+y,z
1/2-x,1/2-y,z
1/2-x,1/2+y,z
1/2+x,1/2-y,z
loop_
_atom_site_type_symbol
_atom_site_label
_atom_site_fract_x
_atom_site_fract_y
_atom_site_fract_z
Si Si1 0.847167 0.625917 0.018670
Si Si2 0.261602 0.372829 0.719784
Si Si3 0.077690 0.632076 0.692602
Si Si4 0.171246 0.627311 0.534401
Si Si5 0.051572 0.804896 0.483677
O O1 0.838039 0.500000 0.949651
O O2 0.812593 0.628905 0.148788
O O3 0.837147 0.753013 0.952260
O O4 0.902950 0.629782 0.045033
O O5 0.256292 0.500000 0.789388
O O6 0.250000 0.250000 0.792782
O O7 0.222831 0.372853 0.598751
O O8 0.064653 0.500000 0.723550
O O9 0.132930 0.635183 0.656350
O O10 0.053345 0.681467 0.558850
O O11 0.062530 0.704118 0.823796
O O12 0.162272 0.500000 0.469412
O O13 0.000000 0.856701 0.503002
#
# Coordination Sequence:
#
# PCOD9369719 Si02
#       5
#    16  16  16  16  16
#     4   9  17  29  50  82 118 156 202 258 316 376
#     4   8  13  24  46  76 111 151 196 248 309 377
#     4  10  22  42  67  94 128 171 220 277 339 402
#     4   8  15  30  54  81 113 157 203 251 315 386
#     4  11  23  39  62  92 127 171 222 274 330 392
#
# _framework density 24.956999
#
# number of rings (size 3 to 8) (size 9 to 14) (size 15 to 20)
#    0.000    2.800    0.000    1.200    0.000    2.800 
#    0.000    5.000    0.000   37.200    0.000   44.800 
#    0.000    0.000    0.000    0.000    0.000    0.000 
#
# Total GULP energy -111538.324423 kJ/mol
# GULP energy per Si atom -5576.916221 kJ/mol
# Density = 2.490020 g / cm^3
# Si number density = 24.956999 Si / 1000 Ang^3
#
#
#
# Elastic Constant Matrix: (Units=GPa)
#
#
# Indices 1 2 3 4 5 6 
#
# 1 214.2428 22.5386 46.6434 0.0000 0.0000 0.0000
# 2 22.5386 212.6148 41.8194 0.0000 0.0000 0.0000
# 3 46.6434 41.8194 87.7926 0.0000 0.0000 0.0000
# 4 0.0000 0.0000 0.0000 -10.8636 0.0000 0.0000
# 5 0.0000 0.0000 0.0000 0.0000 23.3432 0.0000
# 6 0.0000 0.0000 0.0000 0.0000 0.0000 7.2531
#
#
#
# Elastic Compliance Matrix: (Units=1/GPa)
#
#
# Indices 1 2 3 4 5 6 
#
# 1 0.005278 -0.000009 -0.002800 0.000000 0.000000 0.000000
# 2 -0.000009 0.005190 -0.002467 0.000000 0.000000 0.000000
# 3 -0.002800 -0.002467 0.014053 0.000000 0.000000 0.000000
# 4 0.000000 0.000000 0.000000 -0.092050 0.000000 0.000000
# 5 0.000000 0.000000 0.000000 0.000000 0.042839 0.000000
# 6 0.000000 0.000000 0.000000 0.000000 0.000000 0.137873
#
#
# Mechanical properties :
#
#
# Convention : Reuss Voigt Hill
#
# Bulk Modulus (GPa) = 71.58820 81.85034 76.71927
# Shear Modulus (GPa) = 38.94356 30.85645 34.90001
#
# Velocity S-wave (km/s) = 3.95451 3.52004 3.74358
# Velocity P-wave (km/s) = 7.04257 7.02771 7.03514
#
# Compressibility (1/GPa) = 0.01396878
#
# Stress axis : x y z
#
# Youngs Moduli (GPa) = 189.46102 192.69383 71.15703
#
# Poissons Ratio (x) = 0.00169 0.19924
# Poissons Ratio (y) = 0.00166 0.17557
# Poissons Ratio (z) = 0.53050 0.47545
#
# Static dielectric constant tensor:
#      x y z
#    x 1.978010 0.000000 0.000000 
#    y 0.000000 2.086280 0.000000 
#    z 0.000000 0.000000 1.888300 
# 
# From -- ./inp_files/10922.got.cif
#   From: 2010.05.17/outbox.cif.g08.bks.cpg/sg42_6_cif.got.tgz:10922.got - 2010.06.03 19:03:34.
