data_PCOD9369570
_publ_section_title
;
Structure prediction by ZEFSAII (Michael W. Deem and Ramdas Pophale) SiO2 
 PCOD9369570
Probable space group: F M M 2
;
_chemical_formula_sum "Si O2"
_cell_formula_units_Z 112
_cell_length_a 26.946475
_cell_length_b 15.708650
_cell_length_c 11.837488
_cell_angle_alpha 90.000000
_cell_angle_beta 90.000000
_cell_angle_gamma 90.000000
_cell_volume 5010.722784
_symmetry_space_group_name_H-M "F M M 2"
_symmetry_group_IT_number 42
_symmetry_cell_setting 'orthorhombic'
loop_
_space_group_symop_operation_xyz
x,y,z
-x,-y,z
-x,y,z
x,-y,z
x,1/2+y,1/2+z
-x,1/2-y,1/2+z
-x,1/2+y,1/2+z
x,1/2-y,1/2+z
1/2+x,y,1/2+z
1/2-x,-y,1/2+z
1/2-x,y,1/2+z
1/2+x,-y,1/2+z
1/2+x,1/2+y,z
1/2-x,1/2-y,z
1/2-x,1/2+y,z
1/2+x,1/2-y,z
loop_
_atom_site_type_symbol
_atom_site_label
_atom_site_fract_x
_atom_site_fract_y
_atom_site_fract_z
Si Si1 0.339464 0.319937 0.977020
Si Si2 0.278544 0.842811 0.259783
Si Si3 0.616160 0.155627 0.878065
Si Si4 0.183583 0.091378 0.184586
Si Si5 0.631305 0.901460 0.118001
Si Si6 0.054574 0.399408 0.485699
Si Si7 0.054378 0.798128 0.761731
O O1 0.313591 0.361193 0.868141
O O2 0.346520 0.226015 0.929763
O O3 0.393983 0.353491 0.016984
O O4 0.308751 0.337906 0.088592
O O5 0.250000 0.750000 0.766982
O O6 0.232945 0.906712 0.257647
O O7 0.314392 0.864522 0.153047
O O8 0.639253 0.110846 0.769775
O O9 0.571215 0.213644 0.830221
O O10 0.612948 0.097024 0.987618
O O11 0.176401 0.000000 0.128303
O O12 0.594978 0.831789 0.175268
O O13 0.628335 0.000000 0.159261
O O14 0.059454 0.500000 0.501841
O O15 0.052004 0.373087 0.354534
O O16 0.000000 0.373776 0.533995
O O17 0.000000 0.786660 0.711356
#
# Coordination Sequence:
#
# PCOD9369570 Si02
#       7
#    16  16  16  16  16  16  16
#     4  11  23  42  69  93 131 178 233 278 336 418
#     4  12  24  45  67  98 132 184 234 284 343 414
#     4  11  23  46  66  97 133 182 224 281 339 418
#     4  12  27  43  65  97 135 178 226 285 346 405
#     4  12  25  43  71 104 141 180 231 296 354 412
#     4   9  17  33  61  97 133 165 210 279 344 395
#     4  10  21  40  67  99 133 177 227 274 338 419
#
# _framework density 22.352065
#
# number of rings (size 3 to 8) (size 9 to 14) (size 15 to 20)
#    0.000    1.000    4.286    3.429    2.000    3.714 
#    0.000    3.571    0.000    2.143    0.000    0.000 
#    0.000    0.000    0.000    0.000    0.000    0.000 
#
# Total GULP energy -155999.145344 kJ/mol
# GULP energy per Si atom -5571.398048 kJ/mol
# Density = 2.230119 g / cm^3
# Si number density = 22.352065 Si / 1000 Ang^3
#
#
#
# Elastic Constant Matrix: (Units=GPa)
#
#
# Indices 1 2 3 4 5 6 
#
# 1 98.3053 26.8280 9.7388 0.0000 0.0000 0.0000
# 2 26.8280 85.7201 8.9034 0.0000 0.0000 0.0000
# 3 9.7388 8.9034 62.2488 0.0000 0.0000 0.0000
# 4 0.0000 0.0000 0.0000 24.2589 0.0000 0.0000
# 5 0.0000 0.0000 0.0000 0.0000 5.0192 0.0000
# 6 0.0000 0.0000 0.0000 0.0000 0.0000 -10.7467
#
#
#
# Elastic Compliance Matrix: (Units=1/GPa)
#
#
# Indices 1 2 3 4 5 6 
#
# 1 0.011221 -0.003380 -0.001272 0.000000 0.000000 0.000000
# 2 -0.003380 0.012860 -0.001311 0.000000 0.000000 0.000000
# 3 -0.001272 -0.001311 0.016451 0.000000 0.000000 0.000000
# 4 0.000000 0.000000 0.000000 0.041222 0.000000 0.000000
# 5 0.000000 0.000000 0.000000 0.000000 0.199234 0.000000
# 6 0.000000 0.000000 0.000000 0.000000 0.000000 -0.093052
#
#
# Mechanical properties :
#
#
# Convention : Reuss Voigt Hill
#
# Bulk Modulus (GPa) = 34.95665 37.46831 36.21248
# Shear Modulus (GPa) = 23.87817 17.09322 20.48570
#
# Velocity S-wave (km/s) = 3.27199 2.76837 3.03066
# Velocity P-wave (km/s) = 5.47245 5.19785 5.33692
#
# Compressibility (1/GPa) = 0.02860686
#
# Stress axis : x y z
#
# Youngs Moduli (GPa) = 89.12066 77.76212 60.78646
#
# Poissons Ratio (x) = 0.26281 0.07733
# Poissons Ratio (y) = 0.30120 0.07966
# Poissons Ratio (z) = 0.11337 0.10191
#
# Static dielectric constant tensor:
#      x y z
#    x 1.897400 0.000000 0.000000 
#    y 0.000000 1.925830 0.000000 
#    z 0.000000 0.000000 1.855610 
# 
# From -- ./inp_files/11125.got.cif
#   From: 2010.05.17/outbox.cif.g08.bks.cpg/sg42_6_cif.got.tgz:11125.got - 2010.06.03 19:03:34.
