data_PCOD9369147
_publ_section_title
;
Structure prediction by ZEFSAII (Michael W. Deem and Ramdas Pophale) SiO2 
 PCOD9369147
Probable space group: F M M 2
;
_chemical_formula_sum "Si O2"
_cell_formula_units_Z 96
_cell_length_a 28.005372
_cell_length_b 17.823878
_cell_length_c 10.284461
_cell_angle_alpha 90.000000
_cell_angle_beta 90.000000
_cell_angle_gamma 90.000000
_cell_volume 5133.636124
_symmetry_space_group_name_H-M "F M M 2"
_symmetry_group_IT_number 42
_symmetry_cell_setting 'orthorhombic'
loop_
_space_group_symop_operation_xyz
x,y,z
-x,-y,z
-x,y,z
x,-y,z
x,1/2+y,1/2+z
-x,1/2-y,1/2+z
-x,1/2+y,1/2+z
x,1/2-y,1/2+z
1/2+x,y,1/2+z
1/2-x,-y,1/2+z
1/2-x,y,1/2+z
1/2+x,-y,1/2+z
1/2+x,1/2+y,z
1/2-x,1/2-y,z
1/2-x,1/2+y,z
1/2+x,1/2-y,z
loop_
_atom_site_type_symbol
_atom_site_label
_atom_site_fract_x
_atom_site_fract_y
_atom_site_fract_z
Si Si1 0.135613 0.715734 0.266450
Si Si2 0.304373 0.583883 0.101924
Si Si3 0.554163 0.089592 0.737881
Si Si4 0.107317 0.317360 0.531491
Si Si5 0.150744 0.374112 0.864817
Si Si6 0.194445 0.087389 0.638238
O O1 0.097812 0.697178 0.380403
O O2 0.113884 0.746806 0.130206
O O3 0.162237 0.787125 0.332425
O O4 0.169770 0.646181 0.234887
O O5 0.307319 0.500000 0.045201
O O6 0.341168 0.640652 0.035563
O O7 0.322909 0.581677 0.250234
O O8 0.249426 0.607431 0.107844
O O9 0.500000 0.109281 0.772610
O O10 0.569978 0.128812 0.603549
O O11 0.594248 0.115860 0.840035
O O12 0.557681 0.000000 0.725065
O O13 0.166623 0.402796 0.002943
O O14 0.193080 0.000000 0.680450
#
# Coordination Sequence:
#
# PCOD9369147 Si02
#       6
#    16  16  16  16  16  16
#     4  10  21  38  54  80 113 154 194 236 283 354
#     4   9  20  34  52  78 112 153 195 236 289 347
#     4   9  18  35  63  91 111 146 194 240 298 359
#     4  10  20  37  57  79 117 148 196 236 296 334
#     4  10  20  38  57  78 121 156 192 241 297 344
#     4  11  22  35  55  85 117 156 199 244 292 345
#
# _framework density 18.700195999999998
#
# number of rings (size 3 to 8) (size 9 to 14) (size 15 to 20)
#    0.000    2.500    1.667    3.000    2.333    4.000 
#    0.000    3.333    0.000    1.000    0.000    2.333 
#    0.000    0.000    0.000    0.000    0.000    0.000 
#
# Total GULP energy -133729.361311 kJ/mol
# GULP energy per Si atom -5572.056721 kJ/mol
# Density = 1.865763 g / cm^3
# Si number density = 18.700196 Si / 1000 Ang^3
#
#
#
# Elastic Constant Matrix: (Units=GPa)
#
#
# Indices 1 2 3 4 5 6 
#
# 1 118.5913 30.9942 38.5339 0.0000 0.0000 0.0000
# 2 30.9942 80.2193 12.2920 0.0000 0.0000 0.0000
# 3 38.5339 12.2920 83.8277 0.0000 0.0000 0.0000
# 4 0.0000 0.0000 0.0000 12.0280 0.0000 0.0000
# 5 0.0000 0.0000 0.0000 0.0000 2.1989 0.0000
# 6 0.0000 0.0000 0.0000 0.0000 0.0000 24.3086
#
#
#
# Elastic Compliance Matrix: (Units=1/GPa)
#
#
# Indices 1 2 3 4 5 6 
#
# 1 0.010789 -0.003487 -0.004448 0.000000 0.000000 0.000000
# 2 -0.003487 0.013879 -0.000432 0.000000 0.000000 0.000000
# 3 -0.004448 -0.000432 0.014037 0.000000 0.000000 0.000000
# 4 0.000000 0.000000 0.000000 0.083139 0.000000 0.000000
# 5 0.000000 0.000000 0.000000 0.000000 0.454776 0.000000
# 6 0.000000 0.000000 0.000000 0.000000 0.000000 0.041138
#
#
# Mechanical properties :
#
#
# Convention : Reuss Voigt Hill
#
# Bulk Modulus (GPa) = 45.51489 49.58649 47.55069
# Shear Modulus (GPa) = 7.79039 21.09498 14.44268
#
# Velocity S-wave (km/s) = 2.04328 3.36231 2.78209
# Velocity P-wave (km/s) = 5.47346 6.45350 5.98358
#
# Compressibility (1/GPa) = 0.02197083
#
# Stress axis : x y z
#
# Youngs Moduli (GPa) = 92.68707 72.04968 71.23847
#
# Poissons Ratio (x) = 0.25123 0.31688
# Poissons Ratio (y) = 0.32319 0.03080
# Poissons Ratio (z) = 0.41229 0.03115
#
# Static dielectric constant tensor:
#      x y z
#    x 1.622900 0.000000 0.000000 
#    y 0.000000 1.714730 0.000000 
#    z 0.000000 0.000000 1.679990 
# 
# From -- ./inp_files/10656.got.cif
#   From: 2010.05.17/outbox.cif.g08.bks.cpg/sg42_6_cif.got.tgz:10656.got - 2010.06.03 19:03:34.
