data_PCOD9369988
_publ_section_title
;
Structure prediction by ZEFSAII (Michael W. Deem and Ramdas Pophale) SiO2 
 PCOD9369988
Probable space group: F M M 2
;
_chemical_formula_sum "Si O2"
_cell_formula_units_Z 112
_cell_length_a 14.093679
_cell_length_b 25.142754
_cell_length_c 13.708695
_cell_angle_alpha 90.000000
_cell_angle_beta 90.000000
_cell_angle_gamma 90.000000
_cell_volume 4857.729593
_symmetry_space_group_name_H-M "F M M 2"
_symmetry_group_IT_number 42
_symmetry_cell_setting 'orthorhombic'
loop_
_space_group_symop_operation_xyz
x,y,z
-x,-y,z
-x,y,z
x,-y,z
x,1/2+y,1/2+z
-x,1/2-y,1/2+z
-x,1/2+y,1/2+z
x,1/2-y,1/2+z
1/2+x,y,1/2+z
1/2-x,-y,1/2+z
1/2-x,y,1/2+z
1/2+x,-y,1/2+z
1/2+x,1/2+y,z
1/2-x,1/2-y,z
1/2-x,1/2+y,z
1/2+x,1/2-y,z
loop_
_atom_site_type_symbol
_atom_site_label
_atom_site_fract_x
_atom_site_fract_y
_atom_site_fract_z
Si Si1 0.688100 0.558580 0.240350
Si Si2 0.107211 0.389383 0.015530
Si Si3 0.297034 0.058391 0.501632
Si Si4 0.602399 0.937526 0.226757
Si Si5 0.383935 0.721926 0.420635
Si Si6 0.885492 0.168351 0.010353
Si Si7 0.611331 0.330269 0.230031
O O1 0.655800 0.500000 0.270796
O O2 0.694461 0.557123 0.120994
O O3 0.795778 0.568853 0.276696
O O4 0.625027 0.609044 0.264543
O O5 0.187223 0.429664 0.977996
O O6 0.104223 0.400161 0.131626
O O7 0.000000 0.398465 0.979071
O O8 0.136327 0.329036 0.989305
O O9 0.354126 0.110899 0.472582
O O10 0.328251 0.000000 0.466938
O O11 0.500000 0.928849 0.277047
O O12 0.602914 0.000000 0.195005
O O13 0.500000 0.724174 0.418887
O O14 0.351526 0.779751 0.453636
O O15 0.348725 0.707276 0.313133
O O16 0.849025 0.174435 0.121600
O O17 0.000000 0.168518 0.011782
O O18 0.500000 0.318944 0.222411
#
# Coordination Sequence:
#
# PCOD9369988 Si02
#       7
#    16  16  16  16  16  16  16
#     4   8  14  25  42  69 106 142 176 216 263 319
#     4   9  16  27  46  72 103 137 172 217 269 315
#     4   9  17  29  49  77 105 139 182 220 264 325
#     4   8  13  23  42  68  98 134 178 226 268 307
#     4   9  18  32  50  75 106 140 181 224 268 325
#     4   9  18  33  54  79 109 145 181 224 274 318
#     4   9  17  30  49  75 107 140 176 221 271 323
#
# _framework density 23.056038999999998
#
# number of rings (size 3 to 8) (size 9 to 14) (size 15 to 20)
#    0.000    3.286    0.000    1.286    0.000    2.000 
#    0.000    4.286    0.000   15.429    0.000    6.000 
#    0.000    3.429    0.000   22.571    0.000    0.429 
#
# Total GULP energy -156279.876162 kJ/mol
# GULP energy per Si atom -5581.424149 kJ/mol
# Density = 2.300356 g / cm^3
# Si number density = 23.056039 Si / 1000 Ang^3
#
#
#
# Elastic Constant Matrix: (Units=GPa)
#
#
# Indices 1 2 3 4 5 6 
#
# 1 29.4104 19.2347 5.9002 0.0000 0.0000 0.0000
# 2 19.2347 176.2776 68.1081 0.0000 0.0000 0.0000
# 3 5.9002 68.1081 82.2323 0.0000 0.0000 0.0000
# 4 0.0000 0.0000 0.0000 30.2607 0.0000 0.0000
# 5 0.0000 0.0000 0.0000 0.0000 17.4513 0.0000
# 6 0.0000 0.0000 0.0000 0.0000 0.0000 35.0553
#
#
#
# Elastic Compliance Matrix: (Units=1/GPa)
#
#
# Indices 1 2 3 4 5 6 
#
# 1 0.036671 -0.004389 0.001004 0.000000 0.000000 0.000000
# 2 -0.004389 0.008868 -0.007030 0.000000 0.000000 0.000000
# 3 0.001004 -0.007030 0.017911 0.000000 0.000000 0.000000
# 4 0.000000 0.000000 0.000000 0.033046 0.000000 0.000000
# 5 0.000000 0.000000 0.000000 0.000000 0.057302 0.000000
# 6 0.000000 0.000000 0.000000 0.000000 0.000000 0.028526
#
#
# Mechanical properties :
#
#
# Convention : Reuss Voigt Hill
#
# Bulk Modulus (GPa) = 23.46320 52.71180 38.08750
# Shear Modulus (GPa) = 23.00318 29.53193 26.26756
#
# Velocity S-wave (km/s) = 3.16208 3.58282 3.37900
# Velocity P-wave (km/s) = 4.85081 6.32673 5.63728
#
# Compressibility (1/GPa) = 0.04261993
#
# Stress axis : x y z
#
# Youngs Moduli (GPa) = 27.26963 112.76590 55.83160
#
# Poissons Ratio (x) = 0.49498 -0.05607
# Poissons Ratio (y) = 0.11970 0.39249
# Poissons Ratio (z) = -0.02739 0.79273
#
# Static dielectric constant tensor:
#      x y z
#    x 1.899050 0.000000 0.000000 
#    y 0.000000 1.806380 0.000000 
#    z 0.000000 0.000000 1.939730 
# 
# From -- ./inp_files/14267.got.cif
#   From: 2010.05.17/outbox.cif.g08.bks.cpg/sg42_8_cif.got.tgz:14267.got - 2010.06.03 19:03:34.
