data_PCOD9369752
_publ_section_title
;
Structure prediction by ZEFSAII (Michael W. Deem and Ramdas Pophale) SiO2 
 PCOD9369752
Probable space group: F M M 2
;
_chemical_formula_sum "Si O2"
_cell_formula_units_Z 116
_cell_length_a 16.214915
_cell_length_b 27.376513
_cell_length_c 14.209121
_cell_angle_alpha 90.000000
_cell_angle_beta 90.000000
_cell_angle_gamma 90.000000
_cell_volume 6307.540088
_symmetry_space_group_name_H-M "F M M 2"
_symmetry_group_IT_number 42
_symmetry_cell_setting 'orthorhombic'
loop_
_space_group_symop_operation_xyz
x,y,z
-x,-y,z
-x,y,z
x,-y,z
x,1/2+y,1/2+z
-x,1/2-y,1/2+z
-x,1/2+y,1/2+z
x,1/2-y,1/2+z
1/2+x,y,1/2+z
1/2-x,-y,1/2+z
1/2-x,y,1/2+z
1/2+x,-y,1/2+z
1/2+x,1/2+y,z
1/2-x,1/2-y,z
1/2-x,1/2+y,z
1/2+x,1/2-y,z
loop_
_atom_site_type_symbol
_atom_site_label
_atom_site_fract_x
_atom_site_fract_y
_atom_site_fract_z
Si Si1 0.240596 0.103798 0.713120
Si Si2 0.098254 0.725834 0.339667
Si Si3 0.900958 0.887986 0.866615
Si Si4 0.854019 0.920685 0.381146
Si Si5 0.206109 0.055655 0.017182
Si Si6 0.806300 0.707191 0.152688
Si Si7 0.500000 0.000000 0.878079
Si Si8 0.598380 0.816378 0.967686
O O1 0.154987 0.096690 0.774483
O O2 0.313549 0.086514 0.779887
O O3 0.257213 0.077538 0.613922
O O4 0.244266 0.161485 0.692803
O O5 0.112354 0.670584 0.376784
O O6 0.142250 0.728760 0.239400
O O7 0.126880 0.769199 0.407771
O O8 0.000000 0.731024 0.327141
O O9 0.864162 0.914243 0.959658
O O10 0.000000 0.896524 0.854340
O O11 0.783130 0.942455 0.446949
O O12 0.876357 0.867029 0.419894
O O13 0.929060 0.957236 0.379114
O O14 0.178246 0.000000 0.032422
O O15 0.750000 0.750000 0.113230
O O16 0.864118 0.686567 0.071328
O O17 0.500000 0.814200 0.973740
#
# Coordination Sequence:
#
# PCOD9369752 Si02
#       8
#    16  16  16  16  16  16   4  16
#     4  10  23  40  63  94 127 165 211 265 324 378
#     4   9  20  39  60  88 127 164 202 256 312 369
#     4   9  21  43  66  92 126 172 216 263 318 392
#     4  11  23  43  64  89 126 162 210 269 324 378
#     4  11  23  41  63  91 127 162 207 270 330 377
#     4  11  22  35  61  93 124 163 209 249 312 393
#     4  12  24  44  68  92 122 170 220 264 322 384
#     4  11  22  38  62  91 125 162 208 261 316 377
#
# _framework density 18.390687
#
# number of rings (size 3 to 8) (size 9 to 14) (size 15 to 20)
#    0.000    1.655    2.759    1.241    2.897    3.034 
#    2.483    0.000    0.000    0.000    0.000    0.000 
#    0.000    0.000    0.000    0.000    0.000    0.000 
#
# Total GULP energy -161499.666312 kJ/mol
# GULP energy per Si atom -5568.954011 kJ/mol
# Density = 1.834883 g / cm^3
# Si number density = 18.390687 Si / 1000 Ang^3
#
#
#
# Elastic Constant Matrix: (Units=GPa)
#
#
# Indices 1 2 3 4 5 6 
#
# 1 68.9702 32.9037 11.1585 0.0000 0.0000 0.0000
# 2 32.9037 92.6317 25.6895 0.0000 0.0000 0.0000
# 3 11.1585 25.6895 72.2346 0.0000 0.0000 0.0000
# 4 0.0000 0.0000 0.0000 29.7038 0.0000 0.0000
# 5 0.0000 0.0000 0.0000 0.0000 27.1969 0.0000
# 6 0.0000 0.0000 0.0000 0.0000 0.0000 31.1444
#
#
#
# Elastic Compliance Matrix: (Units=1/GPa)
#
#
# Indices 1 2 3 4 5 6 
#
# 1 0.017477 -0.006057 -0.000546 0.000000 0.000000 0.000000
# 2 -0.006057 0.014076 -0.004070 0.000000 0.000000 0.000000
# 3 -0.000546 -0.004070 0.015376 0.000000 0.000000 0.000000
# 4 0.000000 0.000000 0.000000 0.033666 0.000000 0.000000
# 5 0.000000 0.000000 0.000000 0.000000 0.036769 0.000000
# 6 0.000000 0.000000 0.000000 0.000000 0.000000 0.032109
#
#
# Mechanical properties :
#
#
# Convention : Reuss Voigt Hill
#
# Bulk Modulus (GPa) = 39.08877 41.48219 40.28548
# Shear Modulus (GPa) = 27.87940 28.54799 28.21370
#
# Velocity S-wave (km/s) = 3.89775 3.94421 3.92105
# Velocity P-wave (km/s) = 6.44650 6.58388 6.51555
#
# Compressibility (1/GPa) = 0.02558280
#
# Stress axis : x y z
#
# Youngs Moduli (GPa) = 57.21900 71.04502 65.03795
#
# Poissons Ratio (x) = 0.43029 0.03550
# Poissons Ratio (y) = 0.34655 0.26472
# Poissons Ratio (z) = 0.03123 0.28917
#
# Static dielectric constant tensor:
#      x y z
#    x 1.607640 0.000000 0.000000 
#    y 0.000000 1.632670 0.000000 
#    z 0.000000 0.000000 1.622380 
# 
# From -- ./inp_files/15384.got.cif
#   From: 2010.05.17/outbox.cif.g08.bks.cpg/sg42_8_cif.got.tgz:15384.got - 2010.06.03 19:03:34.
