data_PCOD9369747
_publ_section_title
;
Structure prediction by ZEFSAII (Michael W. Deem and Ramdas Pophale) SiO2 
 PCOD9369747
Probable space group: F M M 2
;
_chemical_formula_sum "Si O2"
_cell_formula_units_Z 88
_cell_length_a 23.101298
_cell_length_b 23.101136
_cell_length_c 8.434112
_cell_angle_alpha 90.000000
_cell_angle_beta 90.000000
_cell_angle_gamma 90.000000
_cell_volume 4501.000728
_symmetry_space_group_name_H-M "F M M 2"
_symmetry_group_IT_number 42
_symmetry_cell_setting 'orthorhombic'
loop_
_space_group_symop_operation_xyz
x,y,z
-x,-y,z
-x,y,z
x,-y,z
x,1/2+y,1/2+z
-x,1/2-y,1/2+z
-x,1/2+y,1/2+z
x,1/2-y,1/2+z
1/2+x,y,1/2+z
1/2-x,-y,1/2+z
1/2-x,y,1/2+z
1/2+x,-y,1/2+z
1/2+x,1/2+y,z
1/2-x,1/2-y,z
1/2-x,1/2+y,z
1/2+x,1/2-y,z
loop_
_atom_site_type_symbol
_atom_site_label
_atom_site_fract_x
_atom_site_fract_y
_atom_site_fract_z
Si Si1 0.566248 0.336959 0.597740
Si Si2 0.221869 0.066692 0.930925
Si Si3 0.566691 0.778121 0.755351
Si Si4 0.750000 0.750000 0.843135
Si Si5 0.179242 0.179244 0.093136
Si Si6 0.336955 0.066249 0.088516
O O1 0.500000 0.357490 0.612466
O O2 0.578248 0.290320 0.735484
O O3 0.570963 0.301105 0.433813
O O4 0.611731 0.388270 0.593116
O O5 0.189981 0.114229 0.036807
O O6 0.198888 0.070964 0.752461
O O7 0.212953 0.000000 0.984425
O O8 0.290309 0.078250 0.950794
O O9 0.500000 0.787038 0.701850
O O10 0.614229 0.810009 0.649471
O O11 0.799445 0.778828 0.950937
O O12 0.778828 0.700555 0.735331
O O13 0.357483 0.000000 0.073777
#
# Coordination Sequence:
#
# PCOD9369747 Si02
#       6
#    16  16  16   8  16  16
#     4  10  23  42  63  89 120 159 202 246 297 357
#     4  10  23  40  60  88 122 160 198 242 300 356
#     4  10  23  40  60  88 122 160 198 242 300 356
#     4  10  24  34  56  94 120 154 192 250 304 350
#     4  11  22  38  58  87 122 156 198 245 298 360
#     4  10  23  42  63  89 120 159 202 246 297 357
#
# _framework density 19.551207999999999
#
# number of rings (size 3 to 8) (size 9 to 14) (size 15 to 20)
#    0.000    1.818    0.000    2.182   15.273    0.364 
#    0.000    0.000    0.000    2.727    0.000    0.000 
#    0.000    0.000    0.000    0.000    0.000    0.000 
#
# Total GULP energy -123028.198056 kJ/mol
# GULP energy per Si atom -5592.190821 kJ/mol
# Density = 1.950671 g / cm^3
# Si number density = 19.551208 Si / 1000 Ang^3
#
#
#
# Elastic Constant Matrix: (Units=GPa)
#
#
# Indices 1 2 3 4 5 6 
#
# 1 121.3527 72.8984 35.0078 -0.0001 0.0000 0.0000
# 2 72.8984 121.3377 35.0074 -0.0001 0.0000 0.0001
# 3 35.0078 35.0074 72.6641 -0.0002 -0.0002 -0.0001
# 4 -0.0001 -0.0001 -0.0002 24.1817 -0.0002 -0.0001
# 5 0.0000 0.0000 -0.0002 -0.0002 24.1835 0.0002
# 6 0.0000 0.0001 -0.0001 -0.0001 0.0002 37.8630
#
#
#
# Elastic Compliance Matrix: (Units=1/GPa)
#
#
# Indices 1 2 3 4 5 6 
#
# 1 0.013435 -0.007206 -0.003001 0.000000 0.000000 0.000000
# 2 -0.007206 0.013437 -0.003002 0.000000 0.000000 0.000000
# 3 -0.003001 -0.003002 0.016654 0.000000 0.000000 0.000000
# 4 0.000000 0.000000 0.000000 0.041354 0.000000 0.000000
# 5 0.000000 0.000000 0.000000 0.000000 0.041351 0.000000
# 6 0.000000 0.000000 0.000000 0.000000 0.000000 0.026411
#
#
# Mechanical properties :
#
#
# Convention : Reuss Voigt Hill
#
# Bulk Modulus (GPa) = 58.45141 66.79798 62.62470
# Shear Modulus (GPa) = 27.06212 28.74170 27.90191
#
# Velocity S-wave (km/s) = 3.72447 3.83831 3.78182
# Velocity P-wave (km/s) = 6.96111 7.34053 7.15334
#
# Compressibility (1/GPa) = 0.01710823
#
# Stress axis : x y z
#
# Youngs Moduli (GPa) = 74.43423 74.42382 60.04560
#
# Poissons Ratio (x) = 0.53627 0.18020
# Poissons Ratio (y) = 0.53634 0.18025
# Poissons Ratio (z) = 0.22338 0.22341
#
# Static dielectric constant tensor:
#      x y z
#    x 1.674510 0.000000 0.000000 
#    y 0.000000 1.674520 0.000000 
#    z 0.000000 0.000000 1.730440 
# 
# From -- ./inp_files/4620.got.cif
#   From: 2010.05.17/outbox.cif.g08.bks.cpg/sg42_3_cif.got.tgz:4620.got - 2010.06.03 19:03:34.
