data_PCOD9369860
_publ_section_title
;
Structure prediction by ZEFSAII (Michael W. Deem and Ramdas Pophale) SiO2 
 PCOD9369860
Probable space group: F M M 2
;
_chemical_formula_sum "Si O2"
_cell_formula_units_Z 72
_cell_length_a 18.366046
_cell_length_b 13.818350
_cell_length_c 15.002969
_cell_angle_alpha 90.000000
_cell_angle_beta 90.000000
_cell_angle_gamma 90.000000
_cell_volume 3807.580274
_symmetry_space_group_name_H-M "F M M 2"
_symmetry_group_IT_number 42
_symmetry_cell_setting 'orthorhombic'
loop_
_space_group_symop_operation_xyz
x,y,z
-x,-y,z
-x,y,z
x,-y,z
x,1/2+y,1/2+z
-x,1/2-y,1/2+z
-x,1/2+y,1/2+z
x,1/2-y,1/2+z
1/2+x,y,1/2+z
1/2-x,-y,1/2+z
1/2-x,y,1/2+z
1/2+x,-y,1/2+z
1/2+x,1/2+y,z
1/2-x,1/2-y,z
1/2-x,1/2+y,z
1/2+x,1/2-y,z
loop_
_atom_site_type_symbol
_atom_site_label
_atom_site_fract_x
_atom_site_fract_y
_atom_site_fract_z
Si Si1 0.214936 0.500000 0.836680
Si Si2 0.177826 0.500000 0.181583
Si Si3 0.789847 0.500000 0.522215
Si Si4 0.330082 0.212179 0.785554
Si Si5 0.832593 0.211269 0.980554
Si Si6 0.585740 0.689702 0.636019
O O1 0.290698 0.500000 0.781472
O O2 0.176061 0.400524 0.810108
O O3 0.231069 0.500000 0.941632
O O4 0.247604 0.500000 0.115734
O O5 0.129781 0.593378 0.161200
O O6 0.833722 0.599138 0.508461
O O7 0.250000 0.250000 0.754578
O O8 0.387876 0.232915 0.709449
O O9 0.346202 0.271292 0.876072
O O10 0.750000 0.250000 0.996908
O O11 0.886902 0.272562 0.040743
O O12 0.500000 0.674411 0.637875
#
# Coordination Sequence:
#
# PCOD9369860 Si02
#       6
#     8   8   8  16  16  16
#     4  12  20  35  65  95 113 143 202 254 294 340
#     4  12  21  36  62  86 119 154 200 244 285 350
#     4  12  20  35  65  95 113 143 202 254 294 340
#     4  11  21  39  63  90 118 151 199 248 296 340
#     4  11  21  39  63  90 118 151 199 248 296 340
#     4  12  25  40  57  87 127 162 193 234 295 360
#
# _framework density 18.909648000000001
#
# number of rings (size 3 to 8) (size 9 to 14) (size 15 to 20)
#    0.000    0.444    8.889    2.333    0.000    0.889 
#    0.000    2.222    0.000    0.000    0.000    0.000 
#    0.000    0.000    0.000    0.000    0.000    0.000 
#
# Total GULP energy -100664.541922 kJ/mol
# GULP energy per Si atom -5592.474551 kJ/mol
# Density = 1.886661 g / cm^3
# Si number density = 18.909648 Si / 1000 Ang^3
#
#
#
# Elastic Constant Matrix: (Units=GPa)
#
#
# Indices 1 2 3 4 5 6 
#
# 1 39.1702 -10.6475 24.0620 0.0000 0.0000 0.0000
# 2 -10.6475 81.0980 -16.3123 0.0000 0.0000 0.0000
# 3 24.0620 -16.3123 53.7090 0.0000 0.0000 0.0000
# 4 0.0000 0.0000 0.0000 21.0958 0.0000 0.0000
# 5 0.0000 0.0000 0.0000 0.0000 13.5193 0.0000
# 6 0.0000 0.0000 0.0000 0.0000 0.0000 7.6975
#
#
#
# Elastic Compliance Matrix: (Units=1/GPa)
#
#
# Indices 1 2 3 4 5 6 
#
# 1 0.035406 0.001553 -0.015390 0.000000 0.000000 0.000000
# 2 0.001553 0.013201 0.003314 0.000000 0.000000 0.000000
# 3 -0.015390 0.003314 0.026520 0.000000 0.000000 0.000000
# 4 0.000000 0.000000 0.000000 0.047403 0.000000 0.000000
# 5 0.000000 0.000000 0.000000 0.000000 0.073968 0.000000
# 6 0.000000 0.000000 0.000000 0.000000 0.000000 0.129913
#
#
# Mechanical properties :
#
#
# Convention : Reuss Voigt Hill
#
# Bulk Modulus (GPa) = 18.49125 18.68683 18.58904
# Shear Modulus (GPa) = 13.68041 20.25417 16.96729
#
# Velocity S-wave (km/s) = 2.69264 3.27632 2.99872
# Velocity P-wave (km/s) = 4.41215 4.92097 4.67349
#
# Compressibility (1/GPa) = 0.05407963
#
# Stress axis : x y z
#
# Youngs Moduli (GPa) = 28.24387 75.75086 37.70694
#
# Poissons Ratio (x) = -0.11763 0.58033
# Poissons Ratio (y) = -0.04386 -0.12495
# Poissons Ratio (z) = 0.43469 -0.25102
#
# Static dielectric constant tensor:
#      x y z
#    x 1.617030 0.000000 0.000000 
#    y 0.000000 1.687580 0.000000 
#    z 0.000000 0.000000 1.655270 
# 
# From -- ./inp_files/13706.got.cif
#   From: 2010.05.17/outbox.cif.g08.bks.cpg/sg42_7_cif.got.tgz:13706.got - 2010.06.03 19:03:34.
