data_PCOD9369642
_publ_section_title
;
Structure prediction by ZEFSAII (Michael W. Deem and Ramdas Pophale) SiO2 
 PCOD9369642
Probable space group: F M M 2
;
_chemical_formula_sum "Si O2"
_cell_formula_units_Z 96
_cell_length_a 17.452665
_cell_length_b 22.867277
_cell_length_c 11.786529
_cell_angle_alpha 90.000000
_cell_angle_beta 90.000000
_cell_angle_gamma 90.000000
_cell_volume 4703.943907
_symmetry_space_group_name_H-M "F M M 2"
_symmetry_group_IT_number 42
_symmetry_cell_setting 'orthorhombic'
loop_
_space_group_symop_operation_xyz
x,y,z
-x,-y,z
-x,y,z
x,-y,z
x,1/2+y,1/2+z
-x,1/2-y,1/2+z
-x,1/2+y,1/2+z
x,1/2-y,1/2+z
1/2+x,y,1/2+z
1/2-x,-y,1/2+z
1/2-x,y,1/2+z
1/2+x,-y,1/2+z
1/2+x,1/2+y,z
1/2-x,1/2-y,z
1/2-x,1/2+y,z
1/2+x,1/2-y,z
loop_
_atom_site_type_symbol
_atom_site_label
_atom_site_fract_x
_atom_site_fract_y
_atom_site_fract_z
Si Si1 0.417549 0.668829 0.924980
Si Si2 0.907595 0.929772 0.470001
Si Si3 0.916493 0.436800 0.597656
Si Si4 0.180061 0.371811 0.762388
Si Si5 0.641406 0.138124 0.187857
Si Si6 0.338821 0.736556 0.106656
O O1 0.500000 0.698428 0.936576
O O2 0.406947 0.643864 0.801331
O O3 0.414934 0.612854 0.005421
O O4 0.356585 0.711804 0.981859
O O5 0.855032 0.889596 0.384733
O O6 0.881014 0.910997 0.596951
O O7 0.000000 0.919112 0.456745
O O8 0.895218 0.000000 0.451627
O O9 0.909420 0.500000 0.544010
O O10 0.850348 0.424705 0.685388
O O11 0.000000 0.433729 0.656705
O O12 0.271087 0.366841 0.737566
O O13 0.144471 0.312597 0.703840
O O14 0.625105 0.200648 0.128175
O O15 0.250000 0.750000 0.114516
#
# Coordination Sequence:
#
# PCOD9369642 Si02
#       6
#    16  16  16  16  16  16
#     4  10  22  39  62  93 127 168 217 261 321 398
#     4  11  26  46  66  94 137 182 222 271 334 398
#     4   9  18  36  62  90 122 162 214 272 320 374
#     4  10  22  40  66  96 122 171 218 266 326 391
#     4  11  25  41  64  97 133 168 214 273 335 391
#     4   9  22  41  66  92 129 165 210 271 334 382
#
# _framework density 20.408407
#
# number of rings (size 3 to 8) (size 9 to 14) (size 15 to 20)
#    0.000    2.000    0.000    1.500    9.333    6.000 
#    0.000    1.667    0.000    0.000    0.000    0.000 
#    0.000    0.000    0.000    0.000    0.000    0.000 
#
# Total GULP energy -133630.855109 kJ/mol
# GULP energy per Si atom -5567.952296 kJ/mol
# Density = 2.036196 g / cm^3
# Si number density = 20.408407 Si / 1000 Ang^3
#
#
#
# Elastic Constant Matrix: (Units=GPa)
#
#
# Indices 1 2 3 4 5 6 
#
# 1 46.9446 39.9591 29.5372 0.0000 0.0000 0.0000
# 2 39.9591 75.5326 25.5356 0.0000 0.0000 0.0000
# 3 29.5372 25.5356 114.4216 0.0000 0.0000 0.0000
# 4 0.0000 0.0000 0.0000 -1.1933 0.0000 0.0000
# 5 0.0000 0.0000 0.0000 0.0000 26.8913 0.0000
# 6 0.0000 0.0000 0.0000 0.0000 0.0000 19.6522
#
#
#
# Elastic Compliance Matrix: (Units=1/GPa)
#
#
# Indices 1 2 3 4 5 6 
#
# 1 0.042778 -0.020440 -0.006481 0.000000 0.000000 0.000000
# 2 -0.020440 0.024086 -0.000099 0.000000 0.000000 0.000000
# 3 -0.006481 -0.000099 0.010435 0.000000 0.000000 0.000000
# 4 0.000000 0.000000 0.000000 -0.837987 0.000000 0.000000
# 5 0.000000 0.000000 0.000000 0.000000 0.037187 0.000000
# 6 0.000000 0.000000 0.000000 0.000000 0.000000 0.050885
#
#
# Mechanical properties :
#
#
# Convention : Reuss Voigt Hill
#
# Bulk Modulus (GPa) = 42.99433 47.44026 45.21729
# Shear Modulus (GPa) = -8.18566 18.52783 5.17109
#
# Velocity S-wave (km/s) = -2.00490 3.01633 1.59352
# Velocity P-wave (km/s) = 3.96903 5.95205 5.05866
#
# Compressibility (1/GPa) = 0.02325888
#
# Stress axis : x y z
#
# Youngs Moduli (GPa) = 23.37658 41.51792 95.83330
#
# Poissons Ratio (x) = 0.84861 0.62112
# Poissons Ratio (y) = 0.47781 0.00948
# Poissons Ratio (z) = 0.15151 0.00411
#
# Static dielectric constant tensor:
#      x y z
#    x 1.679390 0.000000 0.000000 
#    y 0.000000 1.747010 0.000000 
#    z 0.000000 0.000000 1.742450 
# 
# From -- ./inp_files/8816.got.cif
#   From: 2010.05.17/outbox.cif.g08.bks.cpg/sg42_5_cif.got.tgz:8816.got - 2010.06.03 19:03:34.
