data_PCOD9369089
_publ_section_title
;
Structure prediction by ZEFSAII (Michael W. Deem and Ramdas Pophale) SiO2 
 PCOD9369089
Probable space group: F M M 2
;
_chemical_formula_sum "Si O2"
_cell_formula_units_Z 80
_cell_length_a 8.688821
_cell_length_b 15.934566
_cell_length_c 29.712596
_cell_angle_alpha 90.000000
_cell_angle_beta 90.000000
_cell_angle_gamma 90.000000
_cell_volume 4113.785922
_symmetry_space_group_name_H-M "F M M 2"
_symmetry_group_IT_number 42
_symmetry_cell_setting 'orthorhombic'
loop_
_space_group_symop_operation_xyz
x,y,z
-x,-y,z
-x,y,z
x,-y,z
x,1/2+y,1/2+z
-x,1/2-y,1/2+z
-x,1/2+y,1/2+z
x,1/2-y,1/2+z
1/2+x,y,1/2+z
1/2-x,-y,1/2+z
1/2-x,y,1/2+z
1/2+x,-y,1/2+z
1/2+x,1/2+y,z
1/2-x,1/2-y,z
1/2-x,1/2+y,z
1/2+x,1/2-y,z
loop_
_atom_site_type_symbol
_atom_site_label
_atom_site_fract_x
_atom_site_fract_y
_atom_site_fract_z
Si Si1 0.822369 0.902959 0.478670
Si Si2 0.815252 0.844144 0.292993
Si Si3 0.185901 0.500000 0.730587
Si Si4 0.317755 0.657232 0.888859
Si Si5 0.313997 0.837840 0.073295
Si Si6 0.186090 0.000000 0.630259
O O1 0.727451 0.893242 0.433237
O O2 0.763001 0.851689 0.521522
O O3 0.000000 0.878112 0.469155
O O4 0.824269 0.000000 0.492971
O O5 0.750000 0.750000 0.284796
O O6 0.758041 0.872714 0.342354
O O7 0.000000 0.838508 0.293383
O O8 0.767463 0.915356 0.257352
O O9 0.251647 0.500000 0.680616
O O10 0.000000 0.500000 0.729019
O O11 0.500000 0.660762 0.883083
O O12 0.250000 0.750000 0.896355
O O13 0.500000 0.836638 0.072725
O O14 0.250000 0.750000 0.090459
O O15 0.264615 0.916720 0.103330
O O16 0.000000 0.000000 0.631163
#
# Coordination Sequence:
#
# PCOD9369089 Si02
#       6
#    16  16   8  16  16   8
#     4  10  20  36  58  83 119 161 198 238 289 346
#     4  10  21  40  62  87 118 156 197 241 292 350
#     4  10  24  42  63  88 117 151 192 241 301 356
#     4  11  22  36  55  84 119 155 198 242 287 344
#     4  10  21  39  62  88 117 156 197 239 289 348
#     4  10  22  42  63  86 117 151 194 241 295 354
#
# _framework density 19.446807
#
# number of rings (size 3 to 8) (size 9 to 14) (size 15 to 20)
#    0.000    1.800    1.000    4.200    1.400    6.000 
#    0.000    4.000    0.000    0.000    0.000    0.000 
#    0.000    0.000    0.000    0.000    0.000    0.000 
#
# Total GULP energy -111707.883926 kJ/mol
# GULP energy per Si atom -5585.394196 kJ/mol
# Density = 1.940255 g / cm^3
# Si number density = 19.446807 Si / 1000 Ang^3
#
#
#
# Elastic Constant Matrix: (Units=GPa)
#
#
# Indices 1 2 3 4 5 6 
#
# 1 50.7796 28.0219 32.4803 0.0000 0.0000 0.0000
# 2 28.0219 127.1541 83.3030 0.0000 0.0000 0.0000
# 3 32.4803 83.3030 137.8126 0.0000 0.0000 0.0000
# 4 0.0000 0.0000 0.0000 16.7050 0.0000 0.0000
# 5 0.0000 0.0000 0.0000 0.0000 30.0736 0.0000
# 6 0.0000 0.0000 0.0000 0.0000 0.0000 28.1181
#
#
#
# Elastic Compliance Matrix: (Units=1/GPa)
#
#
# Indices 1 2 3 4 5 6 
#
# 1 0.023692 -0.002588 -0.004020 0.000000 0.000000 0.000000
# 2 -0.002588 0.013303 -0.007432 0.000000 0.000000 0.000000
# 3 -0.004020 -0.007432 0.012696 0.000000 0.000000 0.000000
# 4 0.000000 0.000000 0.000000 0.059862 0.000000 0.000000
# 5 0.000000 0.000000 0.000000 0.000000 0.033252 0.000000
# 6 0.000000 0.000000 0.000000 0.000000 0.000000 0.035564
#
#
# Mechanical properties :
#
#
# Convention : Reuss Voigt Hill
#
# Bulk Modulus (GPa) = 46.26792 67.03963 56.65377
# Shear Modulus (GPa) = 23.40255 26.44209 24.92232
#
# Velocity S-wave (km/s) = 3.47279 3.69143 3.58378
# Velocity P-wave (km/s) = 6.31855 7.26065 6.80592
#
# Compressibility (1/GPa) = 0.02161325
#
# Stress axis : x y z
#
# Youngs Moduli (GPa) = 42.20822 75.16848 78.76679
#
# Poissons Ratio (x) = 0.19452 0.31661
# Poissons Ratio (y) = 0.10923 0.58536
# Poissons Ratio (z) = 0.16966 0.55862
#
# Static dielectric constant tensor:
#      x y z
#    x 1.665810 0.000000 0.000000 
#    y 0.000000 1.671620 0.000000 
#    z 0.000000 0.000000 1.665170 
# 
# From -- ./inp_files/31332.got.cif
#   From: 2010.05.17/outbox.cif.g08.bks.cpg/sg42_16_cif.got.tgz:31332.got - 2010.06.03 19:03:34.
