data_PCOD9369317
_publ_section_title
;
Structure prediction by ZEFSAII (Michael W. Deem and Ramdas Pophale) SiO2 
 PCOD9369317
Probable space group: F M M 2
;
_chemical_formula_sum "Si O2"
_cell_formula_units_Z 104
_cell_length_a 29.073836
_cell_length_b 22.960042
_cell_length_c 8.383523
_cell_angle_alpha 90.000000
_cell_angle_beta 90.000000
_cell_angle_gamma 90.000000
_cell_volume 5596.307565
_symmetry_space_group_name_H-M "F M M 2"
_symmetry_group_IT_number 42
_symmetry_cell_setting 'orthorhombic'
loop_
_space_group_symop_operation_xyz
x,y,z
-x,-y,z
-x,y,z
x,-y,z
x,1/2+y,1/2+z
-x,1/2-y,1/2+z
-x,1/2+y,1/2+z
x,1/2-y,1/2+z
1/2+x,y,1/2+z
1/2-x,-y,1/2+z
1/2-x,y,1/2+z
1/2+x,-y,1/2+z
1/2+x,1/2+y,z
1/2-x,1/2-y,z
1/2-x,1/2+y,z
1/2+x,1/2-y,z
loop_
_atom_site_type_symbol
_atom_site_label
_atom_site_fract_x
_atom_site_fract_y
_atom_site_fract_z
Si Si1 0.680127 0.066631 0.426630
Si Si2 0.398729 0.283735 0.270877
Si Si3 0.000000 0.780926 0.250550
Si Si4 0.769765 0.933188 0.589326
Si Si5 0.898841 0.838378 0.918183
Si Si6 0.306146 0.321290 0.426273
Si Si7 0.750000 0.250000 0.175853
Si Si8 0.000000 0.662636 0.400507
O O1 0.715455 0.079192 0.570417
O O2 0.711252 0.070325 0.267753
O O3 0.640201 0.113406 0.412419
O O4 0.663249 0.000000 0.440816
O O5 0.451030 0.298870 0.325342
O O6 0.393247 0.213997 0.291224
O O7 0.395599 0.305995 0.089558
O O8 0.358217 0.312044 0.372701
O O9 0.000000 0.711162 0.262646
O O10 0.000000 0.802261 0.068739
O O11 0.796135 0.886089 0.483959
O O12 0.776211 0.000000 0.533690
O O13 0.949850 0.866151 0.897986
O O14 0.272872 0.299775 0.283759
O O15 0.289825 0.278468 0.568830
#
# Coordination Sequence:
#
# PCOD9369317 Si02
#       8
#    16  16   8  16  16  16   8   8
#     4  10  23  41  58  77 108 146 188 227 266 319
#     4  10  21  33  56  83 113 144 177 220 277 323
#     4   8  16  34  50  76 111 143 177 215 260 331
#     4  10  23  40  57  75 106 149 189 226 260 317
#     4  10  21  36  57  85 111 145 179 224 272 328
#     4  11  22  36  52  80 109 146 178 224 270 329
#     4  10  24  34  50  78 120 140 174 220 282 324
#     4   8  16  34  55  78 111 139 178 219 268 321
#
# _framework density 18.583682
#
# number of rings (size 3 to 8) (size 9 to 14) (size 15 to 20)
#    0.000    2.154    0.000    1.846   12.923    0.000 
#    0.000    0.385    0.000    0.000    0.000    2.692 
#    0.000    0.000    0.000    0.000    0.000    0.000 
#
# Total GULP energy -145114.580185 kJ/mol
# GULP energy per Si atom -5581.330007 kJ/mol
# Density = 1.854139 g / cm^3
# Si number density = 18.583682 Si / 1000 Ang^3
#
#
#
# Elastic Constant Matrix: (Units=GPa)
#
#
# Indices 1 2 3 4 5 6 
#
# 1 134.8869 52.7655 26.7600 0.0001 0.0000 0.0000
# 2 52.7655 81.7244 20.5485 0.0002 -0.0001 0.0000
# 3 26.7600 20.5485 52.3169 0.0009 -0.0001 -0.0001
# 4 0.0001 0.0002 0.0009 19.9869 0.0000 0.0000
# 5 0.0000 -0.0001 -0.0001 0.0000 16.2679 0.0000
# 6 0.0000 0.0000 -0.0001 0.0000 0.0000 23.1904
#
#
#
# Elastic Compliance Matrix: (Units=1/GPa)
#
#
# Indices 1 2 3 4 5 6 
#
# 1 0.010314 -0.005917 -0.002951 0.000000 0.000000 0.000000
# 2 -0.005917 0.016972 -0.003639 0.000000 0.000000 0.000000
# 3 -0.002951 -0.003639 0.022053 -0.000001 0.000000 0.000000
# 4 0.000000 0.000000 -0.000001 0.050033 0.000000 0.000000
# 5 0.000000 0.000000 0.000000 0.000000 0.061471 0.000000
# 6 0.000000 0.000000 0.000000 0.000000 0.000000 0.043121
#
#
# Mechanical properties :
#
#
# Convention : Reuss Voigt Hill
#
# Bulk Modulus (GPa) = 41.11320 52.11957 46.61638
# Shear Modulus (GPa) = 21.08929 23.14599 22.11764
#
# Velocity S-wave (km/s) = 3.37238 3.53299 3.45362
# Velocity P-wave (km/s) = 6.11025 6.68951 6.40643
#
# Compressibility (1/GPa) = 0.02432309
#
# Stress axis : x y z
#
# Youngs Moduli (GPa) = 96.95750 58.92176 45.34448
#
# Poissons Ratio (x) = 0.34864 0.13383
# Poissons Ratio (y) = 0.57370 0.16503
# Poissons Ratio (z) = 0.28617 0.21444
#
# Static dielectric constant tensor:
#      x y z
#    x 1.673910 0.000000 0.000000 
#    y 0.000000 1.623100 0.000000 
#    z 0.000000 0.000000 1.691770 
# 
# From -- ./inp_files/5627.got.cif
#   From: 2010.05.17/outbox.cif.g08.bks.cpg/sg42_3_cif.got.tgz:5627.got - 2010.06.03 19:03:34.
