data_PCOD9369465
_publ_section_title
;
Structure prediction by ZEFSAII (Michael W. Deem and Ramdas Pophale) SiO2 
 PCOD9369465
Probable space group: F M M 2
;
_chemical_formula_sum "Si O2"
_cell_formula_units_Z 96
_cell_length_a 15.820992
_cell_length_b 7.589490
_cell_length_c 36.933143
_cell_angle_alpha 90.000000
_cell_angle_beta 90.000000
_cell_angle_gamma 90.000000
_cell_volume 4434.682903
_symmetry_space_group_name_H-M "F M M 2"
_symmetry_group_IT_number 42
_symmetry_cell_setting 'orthorhombic'
loop_
_space_group_symop_operation_xyz
x,y,z
-x,-y,z
-x,y,z
x,-y,z
x,1/2+y,1/2+z
-x,1/2-y,1/2+z
-x,1/2+y,1/2+z
x,1/2-y,1/2+z
1/2+x,y,1/2+z
1/2-x,-y,1/2+z
1/2-x,y,1/2+z
1/2+x,-y,1/2+z
1/2+x,1/2+y,z
1/2-x,1/2-y,z
1/2-x,1/2+y,z
1/2+x,1/2-y,z
loop_
_atom_site_type_symbol
_atom_site_label
_atom_site_fract_x
_atom_site_fract_y
_atom_site_fract_z
Si Si1 0.151002 0.788911 0.918200
Si Si2 0.151023 0.210892 0.763588
Si Si3 0.849099 0.208008 0.996652
Si Si4 0.599642 0.699475 0.840904
Si Si5 0.000000 0.292885 0.050486
Si Si6 0.500000 0.716663 0.632298
Si Si7 0.349883 0.788215 0.184271
O O1 0.250000 0.750000 0.919923
O O2 0.122903 0.715907 0.879326
O O3 0.132666 0.000000 0.916858
O O4 0.120601 0.719223 0.957301
O O5 0.250000 0.250000 0.762578
O O6 0.121437 0.283585 0.802271
O O7 0.121171 0.276661 0.724273
O O8 0.133331 0.000000 0.764369
O O9 0.750000 0.250000 0.003813
O O10 0.915688 0.250801 0.027765
O O11 0.850725 0.000000 0.992292
O O12 0.500000 0.682323 0.841324
O O13 0.638542 0.500000 0.840686
O O14 0.000000 0.217810 0.091051
O O15 0.000000 0.500000 0.055143
O O16 0.500000 0.500000 0.632366
O O17 0.584521 0.772691 0.653834
O O18 0.250000 0.750000 0.178309
O O19 0.355451 0.000000 0.185464
#
# Coordination Sequence:
#
# PCOD9369465 Si02
#       7
#    16  16  16  16   8   8  16
#     4   9  18  32  52  73 100 136 173 215 259 309
#     4   9  17  29  49  73  98 132 170 210 252 300
#     4  10  21  38  60  85 113 148 187 229 279 333
#     4   9  17  27  44  73 102 131 171 212 249 297
#     4  11  23  39  59  84 113 145 183 231 283 337
#     4   9  20  37  57  80 107 139 175 219 269 323
#     4   9  18  34  55  79 107 139 176 217 263 315
#
# _framework density 21.647545999999998
#
# number of rings (size 3 to 8) (size 9 to 14) (size 15 to 20)
#    0.000    2.667    0.000    1.250    2.333    1.333 
#    0.000    3.750    0.000    1.500    0.000    0.000 
#    0.000    0.000    0.000    0.000    0.000    0.000 
#
# Total GULP energy -133687.165719 kJ/mol
# GULP energy per Si atom -5570.298572 kJ/mol
# Density = 2.159828 g / cm^3
# Si number density = 21.647546 Si / 1000 Ang^3
#
#
#
# Elastic Constant Matrix: (Units=GPa)
#
#
# Indices 1 2 3 4 5 6 
#
# 1 88.8750 -2.6086 105.4111 0.0000 0.0000 0.0000
# 2 -2.6086 52.7648 12.4932 0.0000 0.0000 0.0000
# 3 105.4111 12.4932 272.9458 0.0000 0.0000 0.0000
# 4 0.0000 0.0000 0.0000 12.0824 0.0000 0.0000
# 5 0.0000 0.0000 0.0000 0.0000 42.6036 0.0000
# 6 0.0000 0.0000 0.0000 0.0000 0.0000 19.8416
#
#
#
# Elastic Compliance Matrix: (Units=1/GPa)
#
#
# Indices 1 2 3 4 5 6 
#
# 1 0.021228 0.003023 -0.008337 0.000000 0.000000 0.000000
# 2 0.003023 0.019590 -0.002064 0.000000 0.000000 0.000000
# 3 -0.008337 -0.002064 0.006978 0.000000 0.000000 0.000000
# 4 0.000000 0.000000 0.000000 0.082765 0.000000 0.000000
# 5 0.000000 0.000000 0.000000 0.000000 0.023472 0.000000
# 6 0.000000 0.000000 0.000000 0.000000 0.000000 0.050399
#
#
# Mechanical properties :
#
#
# Convention : Reuss Voigt Hill
#
# Bulk Modulus (GPa) = 30.26524 71.68632 50.97578
# Shear Modulus (GPa) = 21.72004 34.85817 28.28910
#
# Velocity S-wave (km/s) = 3.17100 4.01716 3.61890
# Velocity P-wave (km/s) = 5.23625 7.39621 6.40789
#
# Compressibility (1/GPa) = 0.03304120
#
# Stress axis : x y z
#
# Youngs Moduli (GPa) = 47.10674 51.04574 143.31062
#
# Poissons Ratio (x) = -0.15433 1.19474
# Poissons Ratio (y) = -0.14242 0.29584
# Poissons Ratio (z) = 0.39272 0.10537
#
# Static dielectric constant tensor:
#      x y z
#    x 1.718970 0.000000 0.000000 
#    y 0.000000 1.951370 0.000000 
#    z 0.000000 0.000000 1.897750 
# 
# From -- ./inp_files/34296.got.cif
#   From: 2010.05.17/outbox.cif.g08.bks.cpg/sg42_18_cif.got.tgz:34296.got - 2010.06.03 19:03:34.
