data_PCOD9369205
_publ_section_title
;
Structure prediction by ZEFSAII (Michael W. Deem and Ramdas Pophale) SiO2 
 PCOD9369205
Probable space group: F M M 2
;
_chemical_formula_sum "Si O2"
_cell_formula_units_Z 96
_cell_length_a 11.884123
_cell_length_b 17.730688
_cell_length_c 18.312436
_cell_angle_alpha 90.000000
_cell_angle_beta 90.000000
_cell_angle_gamma 90.000000
_cell_volume 3858.680726
_symmetry_space_group_name_H-M "F M M 2"
_symmetry_group_IT_number 42
_symmetry_cell_setting 'orthorhombic'
loop_
_space_group_symop_operation_xyz
x,y,z
-x,-y,z
-x,y,z
x,-y,z
x,1/2+y,1/2+z
-x,1/2-y,1/2+z
-x,1/2+y,1/2+z
x,1/2-y,1/2+z
1/2+x,y,1/2+z
1/2-x,-y,1/2+z
1/2-x,y,1/2+z
1/2+x,-y,1/2+z
1/2+x,1/2+y,z
1/2-x,1/2-y,z
1/2-x,1/2+y,z
1/2+x,1/2-y,z
loop_
_atom_site_type_symbol
_atom_site_label
_atom_site_fract_x
_atom_site_fract_y
_atom_site_fract_z
Si Si1 0.500000 0.591968 0.338300
Si Si2 0.624193 0.218386 0.086552
Si Si3 0.250089 0.409597 0.146464
Si Si4 0.680502 0.682734 0.431867
Si Si5 0.121199 0.409531 0.281704
Si Si6 0.877164 0.588850 0.455085
Si Si7 0.500000 0.591396 0.164398
O O1 0.500000 0.500000 0.347137
O O2 0.605224 0.631633 0.379490
O O3 0.500000 0.608330 0.251552
O O4 0.500000 0.242088 0.115636
O O5 0.750000 0.250000 0.109088
O O6 0.645765 0.131259 0.108358
O O7 0.617964 0.223710 0.998669
O O8 0.244444 0.500000 0.137203
O O9 0.225260 0.388198 0.231527
O O10 0.379274 0.386529 0.130204
O O11 0.750000 0.750000 0.393084
O O12 0.766452 0.630565 0.477907
O O13 0.115778 0.500000 0.274530
O O14 0.128853 0.396913 0.367709
O O15 0.000000 0.377458 0.258048
O O16 0.869106 0.500000 0.468407
O O17 0.000000 0.612948 0.480675
O O18 0.500000 0.500000 0.159852
#
# Coordination Sequence:
#
# PCOD9369205 Si02
#       7
#     8  16  16  16  16  16   8
#     4  11  22  42  71  98 135 177 225 278 331 406
#     4  11  26  46  67  90 125 178 223 269 339 402
#     4  10  20  37  64  94 127 165 220 275 322 388
#     4  11  24  40  63  90 127 171 221 271 339 398
#     4   8  14  28  53  85 120 157 198 252 323 381
#     4   9  18  34  59  90 123 162 207 259 323 399
#     4   9  20  38  63  98 134 179 215 262 346 404
#
# _framework density 24.878971
#
# number of rings (size 3 to 8) (size 9 to 14) (size 15 to 20)
#    0.000    2.167    0.833    3.000    2.333    5.667 
#    0.000    3.333    0.000    0.000    0.000    0.000 
#    0.000    0.000    0.000    0.000    0.000    0.000 
#
# Total GULP energy -133855.802894 kJ/mol
# GULP energy per Si atom -5577.325121 kJ/mol
# Density = 2.482235 g / cm^3
# Si number density = 24.878971 Si / 1000 Ang^3
#
#
#
# Elastic Constant Matrix: (Units=GPa)
#
#
# Indices 1 2 3 4 5 6 
#
# 1 190.2489 61.3614 18.2856 0.0000 0.0000 0.0000
# 2 61.3614 91.2413 0.1590 0.0000 0.0000 0.0000
# 3 18.2856 0.1590 60.3944 0.0000 0.0000 0.0000
# 4 0.0000 0.0000 0.0000 -7.5605 0.0000 0.0000
# 5 0.0000 0.0000 0.0000 0.0000 43.6780 0.0000
# 6 0.0000 0.0000 0.0000 0.0000 0.0000 45.6845
#
#
#
# Elastic Compliance Matrix: (Units=1/GPa)
#
#
# Indices 1 2 3 4 5 6 
#
# 1 0.006968 -0.004683 -0.002097 0.000000 0.000000 0.000000
# 2 -0.004683 0.014107 0.001381 0.000000 0.000000 0.000000
# 3 -0.002097 0.001381 0.017189 0.000000 0.000000 0.000000
# 4 0.000000 0.000000 0.000000 -0.132266 0.000000 0.000000
# 5 0.000000 0.000000 0.000000 0.000000 0.022895 0.000000
# 6 0.000000 0.000000 0.000000 0.000000 0.000000 0.021889
#
#
# Mechanical properties :
#
#
# Convention : Reuss Voigt Hill
#
# Bulk Modulus (GPa) = 36.40960 55.72183 46.06571
# Shear Modulus (GPa) = -170.85657 33.83230 -68.51213
#
# Velocity S-wave (km/s) = -8.29603 3.69165 -5.25338
# Velocity P-wave (km/s) = 8.78061 6.37313 4.27097
#
# Compressibility (1/GPa) = 0.02746529
#
# Stress axis : x y z
#
# Youngs Moduli (GPa) = 143.51049 70.88861 58.17599
#
# Poissons Ratio (x) = 0.33194 0.12202
# Poissons Ratio (y) = 0.67199 -0.08032
# Poissons Ratio (z) = 0.30100 -0.09787
#
# Static dielectric constant tensor:
#      x y z
#    x 2.105490 0.000000 0.000000 
#    y 0.000000 2.061030 0.000000 
#    z 0.000000 0.000000 2.007220 
# 
# From -- ./inp_files/24477.got.cif
#   From: 2010.05.17/outbox.cif.g08.bks.cpg/sg42_13_cif.got.tgz:24477.got - 2010.06.03 19:03:34.
