data_PCOD9369584
_publ_section_title
;
Structure prediction by ZEFSAII (Michael W. Deem and Ramdas Pophale) SiO2 
 PCOD9369584
Probable space group: F M M 2
;
_chemical_formula_sum "Si O2"
_cell_formula_units_Z 72
_cell_length_a 24.552186
_cell_length_b 14.619401
_cell_length_c 7.694644
_cell_angle_alpha 90.000000
_cell_angle_beta 90.000000
_cell_angle_gamma 90.000000
_cell_volume 2761.902071
_symmetry_space_group_name_H-M "F M M 2"
_symmetry_group_IT_number 42
_symmetry_cell_setting 'orthorhombic'
loop_
_space_group_symop_operation_xyz
x,y,z
-x,-y,z
-x,y,z
x,-y,z
x,1/2+y,1/2+z
-x,1/2-y,1/2+z
-x,1/2+y,1/2+z
x,1/2-y,1/2+z
1/2+x,y,1/2+z
1/2-x,-y,1/2+z
1/2-x,y,1/2+z
1/2+x,-y,1/2+z
1/2+x,1/2+y,z
1/2-x,1/2-y,z
1/2-x,1/2+y,z
1/2+x,1/2-y,z
loop_
_atom_site_type_symbol
_atom_site_label
_atom_site_fract_x
_atom_site_fract_y
_atom_site_fract_z
Si Si1 0.937992 0.639716 0.879360
Si Si2 0.791078 0.500000 0.666994
Si Si3 0.437223 0.854620 0.474326
Si Si4 0.143803 0.095729 0.675369
Si Si5 0.732538 0.148997 0.953663
O O1 0.923618 0.628714 0.676374
O O2 0.000000 0.607871 0.898374
O O3 0.937476 0.747048 0.929441
O O4 0.899761 0.595361 0.020357
O O5 0.780154 0.582532 0.521566
O O6 0.796816 0.417121 0.814832
O O7 0.500000 0.886584 0.444532
O O8 0.392250 0.893872 0.346015
O O9 0.189514 0.165121 0.612562
O O10 0.175809 0.000000 0.681718
O O11 0.750000 0.250000 0.899564
#
# Coordination Sequence:
#
# PCOD9369584 Si02
#       5
#    16   8  16  16  16
#     4  10  21  41  69 103 144 191 239 292 361 444
#     4  10  22  50  72 104 136 182 250 296 366 470
#     4  10  21  41  69 103 144 191 239 292 361 444
#     4  12  25  45  67 109 145 181 251 304 365 453
#     4  11  25  49  74 103 145 193 240 316 386 432
#
# _framework density 26.068992000000001
#
# number of rings (size 3 to 8) (size 9 to 14) (size 15 to 20)
#    0.000    1.333    4.444    1.333    0.000    6.222 
#    8.000    2.222    0.000    0.000    0.000    0.000 
#    0.000    0.000    0.000    0.000    0.000    0.000 
#
# Total GULP energy -100266.260736 kJ/mol
# GULP energy per Si atom -5570.347819 kJ/mol
# Density = 2.600966 g / cm^3
# Si number density = 26.068992 Si / 1000 Ang^3
#
#
#
# Elastic Constant Matrix: (Units=GPa)
#
#
# Indices 1 2 3 4 5 6 
#
# 1 97.8020 36.7725 82.4431 0.0000 0.0000 0.0000
# 2 36.7725 163.5105 23.3817 0.0000 0.0000 0.0000
# 3 82.4431 23.3817 168.0441 0.0000 0.0000 0.0000
# 4 0.0000 0.0000 0.0000 4.8922 0.0000 0.0000
# 5 0.0000 0.0000 0.0000 0.0000 54.0984 0.0000
# 6 0.0000 0.0000 0.0000 0.0000 0.0000 42.3522
#
#
#
# Elastic Compliance Matrix: (Units=1/GPa)
#
#
# Indices 1 2 3 4 5 6 
#
# 1 0.018740 -0.002959 -0.008782 0.000000 0.000000 0.000000
# 2 -0.002959 0.006707 0.000518 0.000000 0.000000 0.000000
# 3 -0.008782 0.000518 0.010187 0.000000 0.000000 0.000000
# 4 0.000000 0.000000 0.000000 0.204406 0.000000 0.000000
# 5 0.000000 0.000000 0.000000 0.000000 0.018485 0.000000
# 6 0.000000 0.000000 0.000000 0.000000 0.000000 0.023611
#
#
# Mechanical properties :
#
#
# Convention : Reuss Voigt Hill
#
# Bulk Modulus (GPa) = 75.81934 79.39456 77.60695
# Shear Modulus (GPa) = 16.18231 39.38586 27.78409
#
# Velocity S-wave (km/s) = 2.49419 3.89116 3.26819
# Velocity P-wave (km/s) = 6.11898 7.12108 6.63896
#
# Compressibility (1/GPa) = 0.01318925
#
# Stress axis : x y z
#
# Youngs Moduli (GPa) = 53.36046 149.09583 98.16034
#
# Poissons Ratio (x) = 0.44113 0.86209
# Poissons Ratio (y) = 0.15788 -0.05088
# Poissons Ratio (z) = 0.46864 -0.07728
#
# Static dielectric constant tensor:
#      x y z
#    x 2.127800 0.000000 0.000000 
#    y 0.000000 2.051650 0.000000 
#    z 0.000000 0.000000 2.085080 
# 
# From -- ./inp_files/5478.got.cif
#   From: 2010.05.17/outbox.cif.g08.bks.cpg/sg42_3_cif.got.tgz:5478.got - 2010.06.03 19:03:34.
