data_PCOD9369448
_publ_section_title
;
Structure prediction by ZEFSAII (Michael W. Deem and Ramdas Pophale) SiO2 
 PCOD9369448
Probable space group: F M M 2
;
_chemical_formula_sum "Si O2"
_cell_formula_units_Z 88
_cell_length_a 15.056413
_cell_length_b 22.633737
_cell_length_c 12.422330
_cell_angle_alpha 90.000000
_cell_angle_beta 90.000000
_cell_angle_gamma 90.000000
_cell_volume 4233.317543
_symmetry_space_group_name_H-M "F M M 2"
_symmetry_group_IT_number 42
_symmetry_cell_setting 'orthorhombic'
loop_
_space_group_symop_operation_xyz
x,y,z
-x,-y,z
-x,y,z
x,-y,z
x,1/2+y,1/2+z
-x,1/2-y,1/2+z
-x,1/2+y,1/2+z
x,1/2-y,1/2+z
1/2+x,y,1/2+z
1/2-x,-y,1/2+z
1/2-x,y,1/2+z
1/2+x,-y,1/2+z
1/2+x,1/2+y,z
1/2-x,1/2-y,z
1/2-x,1/2+y,z
1/2+x,1/2-y,z
loop_
_atom_site_type_symbol
_atom_site_label
_atom_site_fract_x
_atom_site_fract_y
_atom_site_fract_z
Si Si1 0.405416 0.269947 0.811270
Si Si2 0.853145 0.361744 0.877089
Si Si3 0.202786 0.570284 0.665118
Si Si4 0.331597 0.157889 0.494174
Si Si5 0.902370 0.070688 0.590102
Si Si6 0.750000 0.250000 0.658495
O O1 0.500000 0.276081 0.754907
O O2 0.394408 0.202093 0.850880
O O3 0.400901 0.312879 0.913876
O O4 0.322816 0.280985 0.733150
O O5 0.841097 0.400027 0.769509
O O6 0.755067 0.350424 0.921836
O O7 0.898888 0.396093 0.975458
O O8 0.194777 0.500000 0.669888
O O9 0.154625 0.597837 0.560035
O O10 0.309394 0.584533 0.652006
O O11 0.304096 0.205167 0.584800
O O12 0.000000 0.083744 0.640800
O O13 0.899025 0.000000 0.572166
#
# Coordination Sequence:
#
# PCOD9369448 Si02
#       6
#    16  16  16  16  16   8
#     4  12  24  38  63  94 124 164 209 260 321 379
#     4  11  19  37  58  89 124 163 204 259 310 374
#     4  10  21  37  64  91 123 172 211 253 322 386
#     4  11  21  41  63  85 129 163 206 259 318 372
#     4   9  19  35  56  87 122 157 208 263 303 361
#     4  12  20  44  60  90 126 166 204 260 318 378
#
# _framework density 20.787478
#
# number of rings (size 3 to 8) (size 9 to 14) (size 15 to 20)
#    0.000    1.273    5.455    1.091    0.000    1.455 
#    0.000    5.455    0.000    2.727    0.000    0.000 
#    0.000    0.000    0.000    0.000    0.000    0.000 
#
# Total GULP energy -122803.666865 kJ/mol
# GULP energy per Si atom -5581.984858 kJ/mol
# Density = 2.074016 g / cm^3
# Si number density = 20.787478 Si / 1000 Ang^3
#
#
#
# Elastic Constant Matrix: (Units=GPa)
#
#
# Indices 1 2 3 4 5 6 
#
# 1 63.2120 16.5449 13.8743 0.0000 0.0000 0.0000
# 2 16.5449 81.5274 16.8749 0.0000 0.0000 0.0000
# 3 13.8743 16.8749 57.4688 0.0000 0.0000 0.0000
# 4 0.0000 0.0000 0.0000 34.2540 0.0000 0.0000
# 5 0.0000 0.0000 0.0000 0.0000 -4.3011 0.0000
# 6 0.0000 0.0000 0.0000 0.0000 0.0000 57.9475
#
#
#
# Elastic Compliance Matrix: (Units=1/GPa)
#
#
# Indices 1 2 3 4 5 6 
#
# 1 0.017292 -0.002816 -0.003348 0.000000 0.000000 0.000000
# 2 -0.002816 0.013518 -0.003290 0.000000 0.000000 0.000000
# 3 -0.003348 -0.003290 0.019175 0.000000 0.000000 0.000000
# 4 0.000000 0.000000 0.000000 0.029194 0.000000 0.000000
# 5 0.000000 0.000000 0.000000 0.000000 -0.232497 0.000000
# 6 0.000000 0.000000 0.000000 0.000000 0.000000 0.017257
#
#
# Mechanical properties :
#
#
# Convention : Reuss Voigt Hill
#
# Bulk Modulus (GPa) = 32.17715 32.97736 32.57726
# Shear Modulus (GPa) = -46.81852 27.90767 -9.45542
#
# Velocity S-wave (km/s) = -4.75093 3.66802 -2.13506
# Velocity P-wave (km/s) = 3.81870 5.81701 3.10284
#
# Compressibility (1/GPa) = 0.03107795
#
# Stress axis : x y z
#
# Youngs Moduli (GPa) = 57.83134 73.97432 52.15159
#
# Poissons Ratio (x) = 0.20833 0.17459
# Poissons Ratio (y) = 0.16286 0.17155
# Poissons Ratio (z) = 0.19360 0.24334
#
# Static dielectric constant tensor:
#      x y z
#    x 1.764440 0.000000 0.000000 
#    y 0.000000 1.810050 0.000000 
#    z 0.000000 0.000000 1.772290 
# 
# From -- ./inp_files/7842.got.cif
#   From: 2010.05.17/outbox.cif.g08.bks.cpg/sg42_4_cif.got.tgz:7842.got - 2010.06.03 19:03:34.
