data_PCOD9369679
_publ_section_title
;
Structure prediction by ZEFSAII (Michael W. Deem and Ramdas Pophale) SiO2 
 PCOD9369679
Probable space group: F M M 2
;
_chemical_formula_sum "Si O2"
_cell_formula_units_Z 96
_cell_length_a 22.129527
_cell_length_b 24.537595
_cell_length_c 8.833554
_cell_angle_alpha 90.000000
_cell_angle_beta 90.000000
_cell_angle_gamma 90.000000
_cell_volume 4796.667268
_symmetry_space_group_name_H-M "F M M 2"
_symmetry_group_IT_number 42
_symmetry_cell_setting 'orthorhombic'
loop_
_space_group_symop_operation_xyz
x,y,z
-x,-y,z
-x,y,z
x,-y,z
x,1/2+y,1/2+z
-x,1/2-y,1/2+z
-x,1/2+y,1/2+z
x,1/2-y,1/2+z
1/2+x,y,1/2+z
1/2-x,-y,1/2+z
1/2-x,y,1/2+z
1/2+x,-y,1/2+z
1/2+x,1/2+y,z
1/2-x,1/2-y,z
1/2-x,1/2+y,z
1/2+x,1/2-y,z
loop_
_atom_site_type_symbol
_atom_site_label
_atom_site_fract_x
_atom_site_fract_y
_atom_site_fract_z
Si Si1 0.339044 0.000000 0.051651
Si Si2 0.000000 0.285535 0.350850
Si Si3 0.377334 0.616047 0.509928
Si Si4 0.000000 0.825003 0.495306
Si Si5 0.732959 0.000000 0.747384
Si Si6 0.196200 0.125525 0.212970
Si Si7 0.870801 0.204272 0.017924
Si Si8 0.682285 0.693537 0.707393
O O1 0.378479 0.947712 0.024727
O O2 0.303672 0.000000 0.209302
O O3 0.286575 0.000000 0.922665
O O4 0.000000 0.303997 0.173471
O O5 0.937907 0.298502 0.444031
O O6 0.000000 0.220688 0.366437
O O7 0.440448 0.640873 0.468400
O O8 0.326206 0.630882 0.386277
O O9 0.358230 0.641414 0.668759
O O10 0.710827 0.939250 0.688798
O O11 0.142849 0.149384 0.110114
O O12 0.250844 0.168529 0.181950
O O13 0.851401 0.257311 0.117174
O O14 0.823980 0.208465 0.880321
#
# Coordination Sequence:
#
# PCOD9369679 Si02
#       8
#     8   8  16   8   8  16  16  16
#     4  10  22  41  68  99 127 174 217 268 331 391
#     4  12  24  44  66  91 125 177 223 261 319 394
#     4  11  23  42  68  96 130 175 221 268 324 387
#     4  12  26  45  66  91 135 172 231 269 319 392
#     4  10  22  40  66  93 135 167 215 262 323 401
#     4  11  25  41  65  99 130 170 213 265 335 391
#     4  12  25  40  65  93 133 169 216 265 323 389
#     4  12  23  42  62  96 134 168 206 271 325 392
#
# _framework density 20.013895999999999
#
# number of rings (size 3 to 8) (size 9 to 14) (size 15 to 20)
#    0.000    0.667    5.000    2.500    4.667    1.667 
#    0.000    0.000    0.000    1.500    0.000    0.000 
#    0.000    0.000    0.000    0.000    0.000    0.000 
#
# Total GULP energy -133741.807449 kJ/mol
# GULP energy per Si atom -5572.575310 kJ/mol
# Density = 1.996834 g / cm^3
# Si number density = 20.013896 Si / 1000 Ang^3
#
#
#
# Elastic Constant Matrix: (Units=GPa)
#
#
# Indices 1 2 3 4 5 6 
#
# 1 91.2047 45.2767 -3.0090 -0.0001 -0.0006 0.0001
# 2 45.2767 98.7091 46.6074 -0.0001 -0.0004 0.0001
# 3 -3.0090 46.6074 63.9234 0.0000 -0.0001 -0.0002
# 4 -0.0001 -0.0001 0.0000 24.2880 0.0000 0.0000
# 5 -0.0006 -0.0004 -0.0001 0.0000 71.9311 -0.0001
# 6 0.0001 0.0001 -0.0002 0.0000 -0.0001 39.4237
#
#
#
# Elastic Compliance Matrix: (Units=1/GPa)
#
#
# Indices 1 2 3 4 5 6 
#
# 1 0.017778 -0.013039 0.010343 0.000000 0.000000 0.000000
# 2 -0.013039 0.025012 -0.018850 0.000000 0.000000 0.000000
# 3 0.010343 -0.018850 0.029875 0.000000 0.000000 0.000000
# 4 0.000000 0.000000 0.000000 0.041173 0.000000 0.000000
# 5 0.000000 0.000000 0.000000 0.000000 0.013902 0.000000
# 6 0.000000 0.000000 0.000000 0.000000 0.000000 0.025365
#
#
# Mechanical properties :
#
#
# Convention : Reuss Voigt Hill
#
# Bulk Modulus (GPa) = 33.81341 47.95417 40.88379
# Shear Modulus (GPa) = 24.26547 38.12604 31.19576
#
# Velocity S-wave (km/s) = 3.48578 4.36934 3.95233
# Velocity P-wave (km/s) = 5.75608 7.03330 6.42650
#
# Compressibility (1/GPa) = 0.02957407
#
# Stress axis : x y z
#
# Youngs Moduli (GPa) = 56.24828 39.98083 33.47316
#
# Poissons Ratio (x) = 0.52129 -0.34623
# Poissons Ratio (y) = 0.73340 0.63098
# Poissons Ratio (z) = -0.58180 0.75365
#
# Static dielectric constant tensor:
#      x y z
#    x 1.711470 0.000000 0.000000 
#    y 0.000000 1.721370 0.000000 
#    z 0.000000 0.000000 1.717070 
# 
# From -- ./inp_files/4780.got.cif
#   From: 2010.05.17/outbox.cif.g08.bks.cpg/sg42_3_cif.got.tgz:4780.got - 2010.06.03 19:03:34.
