data_PCOD9369200
_publ_section_title
;
Structure prediction by ZEFSAII (Michael W. Deem and Ramdas Pophale) SiO2 
 PCOD9369200
Probable space group: F M M 2
;
_chemical_formula_sum "Si O2"
_cell_formula_units_Z 96
_cell_length_a 13.790164
_cell_length_b 17.665956
_cell_length_c 19.011481
_cell_angle_alpha 90.000000
_cell_angle_beta 90.000000
_cell_angle_gamma 90.000000
_cell_volume 4631.509139
_symmetry_space_group_name_H-M "F M M 2"
_symmetry_group_IT_number 42
_symmetry_cell_setting 'orthorhombic'
loop_
_space_group_symop_operation_xyz
x,y,z
-x,-y,z
-x,y,z
x,-y,z
x,1/2+y,1/2+z
-x,1/2-y,1/2+z
-x,1/2+y,1/2+z
x,1/2-y,1/2+z
1/2+x,y,1/2+z
1/2-x,-y,1/2+z
1/2-x,y,1/2+z
1/2+x,-y,1/2+z
1/2+x,1/2+y,z
1/2-x,1/2-y,z
1/2-x,1/2+y,z
1/2+x,1/2-y,z
loop_
_atom_site_type_symbol
_atom_site_label
_atom_site_fract_x
_atom_site_fract_y
_atom_site_fract_z
Si Si1 0.391500 0.587469 0.473530
Si Si2 0.677222 0.855392 0.113394
Si Si3 0.753023 0.840008 0.365823
Si Si4 0.108157 0.817554 0.109537
Si Si5 0.612747 0.409896 0.764619
Si Si6 0.391959 0.586626 0.251418
O O1 0.500000 0.615822 0.455218
O O2 0.384379 0.500000 0.451588
O O3 0.379691 0.594145 0.557522
O O4 0.303999 0.632879 0.437306
O O5 0.788215 0.850826 0.084866
O O6 0.629653 0.771809 0.113305
O O7 0.669192 0.883881 0.193776
O O8 0.750000 0.750000 0.363726
O O9 0.651170 0.871570 0.336444
O O10 0.823325 0.876720 0.308006
O O11 0.103238 0.858121 0.185079
O O12 0.000000 0.829561 0.076762
O O13 0.500000 0.391026 0.753308
O O14 0.623037 0.500000 0.771477
O O15 0.500000 0.582596 0.281574
O O16 0.364177 0.500000 0.232273
#
# Coordination Sequence:
#
# PCOD9369200 Si02
#       6
#    16  16  16  16  16  16
#     4  11  25  45  69  95 125 168 221 273 324 386
#     4  11  22  39  66  97 132 169 211 266 327 384
#     4  12  25  40  62  93 126 169 211 268 326 383
#     4  10  21  36  61  96 133 167 207 259 320 384
#     4  11  23  40  64  94 127 166 213 264 322 388
#     4  10  20  37  63  94 128 166 212 266 319 376
#
# _framework density 20.727585999999999
#
# number of rings (size 3 to 8) (size 9 to 14) (size 15 to 20)
#    0.000    1.167    1.667    5.000    2.333    6.000 
#    0.000    0.833    0.000    1.000    0.000    0.000 
#    0.000    0.000    0.000    0.000    0.000    0.000 
#
# Total GULP energy -133845.993870 kJ/mol
# GULP energy per Si atom -5576.916411 kJ/mol
# Density = 2.068041 g / cm^3
# Si number density = 20.727586 Si / 1000 Ang^3
#
#
#
# Elastic Constant Matrix: (Units=GPa)
#
#
# Indices 1 2 3 4 5 6 
#
# 1 134.3078 26.8660 23.7091 0.0000 0.0000 0.0000
# 2 26.8660 61.6476 10.2514 0.0000 0.0000 0.0000
# 3 23.7091 10.2514 67.3209 0.0000 0.0000 0.0000
# 4 0.0000 0.0000 0.0000 37.7654 0.0000 0.0000
# 5 0.0000 0.0000 0.0000 0.0000 20.6408 0.0000
# 6 0.0000 0.0000 0.0000 0.0000 0.0000 22.5905
#
#
#
# Elastic Compliance Matrix: (Units=1/GPa)
#
#
# Indices 1 2 3 4 5 6 
#
# 1 0.008550 -0.003309 -0.002507 0.000000 0.000000 0.000000
# 2 -0.003309 0.017923 -0.001564 0.000000 0.000000 0.000000
# 3 -0.002507 -0.001564 0.015975 0.000000 0.000000 0.000000
# 4 0.000000 0.000000 0.000000 0.026479 0.000000 0.000000
# 5 0.000000 0.000000 0.000000 0.000000 0.048448 0.000000
# 6 0.000000 0.000000 0.000000 0.000000 0.000000 0.044266
#
#
# Mechanical properties :
#
#
# Convention : Reuss Voigt Hill
#
# Bulk Modulus (GPa) = 36.11645 42.76994 39.44319
# Shear Modulus (GPa) = 26.93493 29.69599 28.31546
#
# Velocity S-wave (km/s) = 3.60873 3.78918 3.70006
# Velocity P-wave (km/s) = 5.90136 6.31054 6.10938
#
# Compressibility (1/GPa) = 0.02768822
#
# Stress axis : x y z
#
# Youngs Moduli (GPa) = 116.95716 55.79285 62.59631
#
# Poissons Ratio (x) = 0.18463 0.15695
# Poissons Ratio (y) = 0.38704 0.09789
# Poissons Ratio (z) = 0.29324 0.08725
#
# Static dielectric constant tensor:
#      x y z
#    x 1.840730 0.000000 0.000000 
#    y 0.000000 1.683290 0.000000 
#    z 0.000000 0.000000 1.716110 
# 
# From -- ./inp_files/25096.got.cif
#   From: 2010.05.17/outbox.cif.g08.bks.cpg/sg42_13_cif.got.tgz:25096.got - 2010.06.03 19:03:34.
