data_PCOD9369177
_publ_section_title
;
Structure prediction by ZEFSAII (Michael W. Deem and Ramdas Pophale) SiO2 
 PCOD9369177
Probable space group: F M M 2
;
_chemical_formula_sum "Si O2"
_cell_formula_units_Z 88
_cell_length_a 20.894793
_cell_length_b 13.635782
_cell_length_c 13.649563
_cell_angle_alpha 90.000000
_cell_angle_beta 90.000000
_cell_angle_gamma 90.000000
_cell_volume 3888.990389
_symmetry_space_group_name_H-M "F M M 2"
_symmetry_group_IT_number 42
_symmetry_cell_setting 'orthorhombic'
loop_
_space_group_symop_operation_xyz
x,y,z
-x,-y,z
-x,y,z
x,-y,z
x,1/2+y,1/2+z
-x,1/2-y,1/2+z
-x,1/2+y,1/2+z
x,1/2-y,1/2+z
1/2+x,y,1/2+z
1/2-x,-y,1/2+z
1/2-x,y,1/2+z
1/2+x,-y,1/2+z
1/2+x,1/2+y,z
1/2-x,1/2-y,z
1/2-x,1/2+y,z
1/2+x,1/2-y,z
loop_
_atom_site_type_symbol
_atom_site_label
_atom_site_fract_x
_atom_site_fract_y
_atom_site_fract_z
Si Si1 0.574531 0.250659 0.595200
Si Si2 0.268782 0.115144 0.315659
Si Si3 0.657240 0.885927 0.502461
Si Si4 0.250000 0.250000 0.135609
Si Si5 0.924678 0.107990 0.258481
Si Si6 0.647334 0.387699 0.451540
O O1 0.500000 0.279665 0.598259
O O2 0.587342 0.155126 0.527306
O O3 0.596904 0.203445 0.698615
O O4 0.620372 0.331445 0.545833
O O5 0.328015 0.127324 0.388440
O O6 0.276344 0.171813 0.214980
O O7 0.207844 0.146406 0.384678
O O8 0.258769 0.000000 0.295856
O O9 0.706356 0.818812 0.565585
O O10 0.666333 0.000000 0.524941
O O11 0.909423 0.116777 0.372290
O O12 0.000000 0.104135 0.241469
O O13 0.897405 0.000000 0.228762
O O14 0.661949 0.500000 0.478279
#
# Coordination Sequence:
#
# PCOD9369177 Si02
#       6
#    16  16  16   8  16  16
#     4  11  22  36  58  86 116 155 201 246 290 339
#     4  10  22  38  58  87 120 151 187 236 294 354
#     4  11  24  40  58  86 121 153 191 240 293 352
#     4  12  20  36  64  88 114 152 192 234 292 354
#     4   9  18  33  54  81 112 148 194 243 289 344
#     4  10  20  37  61  88 118 153 193 240 296 354
#
# _framework density 22.627980000000001
#
# number of rings (size 3 to 8) (size 9 to 14) (size 15 to 20)
#    0.000    1.636    0.000    5.455    0.000    3.636 
#    0.000    0.909    0.000    2.182    0.000    5.091 
#    0.000    0.000    0.000    0.000    0.000    0.000 
#
# Total GULP energy -122721.134857 kJ/mol
# GULP energy per Si atom -5578.233403 kJ/mol
# Density = 2.257648 g / cm^3
# Si number density = 22.627980 Si / 1000 Ang^3
#
#
#
# Elastic Constant Matrix: (Units=GPa)
#
#
# Indices 1 2 3 4 5 6 
#
# 1 34.8795 14.9948 9.5289 0.0000 0.0000 0.0000
# 2 14.9948 124.5400 45.4365 0.0000 0.0000 0.0000
# 3 9.5289 45.4365 102.0351 0.0000 0.0000 0.0000
# 4 0.0000 0.0000 0.0000 144.8538 0.0000 0.0000
# 5 0.0000 0.0000 0.0000 0.0000 28.6776 0.0000
# 6 0.0000 0.0000 0.0000 0.0000 0.0000 27.8232
#
#
#
# Elastic Compliance Matrix: (Units=1/GPa)
#
#
# Indices 1 2 3 4 5 6 
#
# 1 0.030412 -0.003135 -0.001444 0.000000 0.000000 0.000000
# 2 -0.003135 0.009910 -0.004120 0.000000 0.000000 0.000000
# 3 -0.001444 -0.004120 0.011770 0.000000 0.000000 0.000000
# 4 0.000000 0.000000 0.000000 0.006904 0.000000 0.000000
# 5 0.000000 0.000000 0.000000 0.000000 0.034870 0.000000
# 6 0.000000 0.000000 0.000000 0.000000 0.000000 0.035941
#
#
# Mechanical properties :
#
#
# Convention : Reuss Voigt Hill
#
# Bulk Modulus (GPa) = 28.82329 44.59721 36.71025
# Shear Modulus (GPa) = 31.49185 53.03722 42.26453
#
# Velocity S-wave (km/s) = 3.73463 4.84661 4.32649
# Velocity P-wave (km/s) = 5.60019 7.14641 6.42002
#
# Compressibility (1/GPa) = 0.03469416
#
# Stress axis : x y z
#
# Youngs Moduli (GPa) = 32.88135 100.90603 84.96035
#
# Poissons Ratio (x) = 0.31632 0.12270
# Poissons Ratio (y) = 0.10308 0.35006
# Poissons Ratio (z) = 0.04749 0.41576
#
# Static dielectric constant tensor:
#      x y z
#    x 1.915880 0.000000 0.000000 
#    y 0.000000 1.785960 0.000000 
#    z 0.000000 0.000000 1.846780 
# 
# From -- ./inp_files/10063.got.cif
#   From: 2010.05.17/outbox.cif.g08.bks.cpg/sg42_6_cif.got.tgz:10063.got - 2010.06.03 19:03:34.
