data_PCOD9369784
_publ_section_title
;
Structure prediction by ZEFSAII (Michael W. Deem and Ramdas Pophale) SiO2 
 PCOD9369784
Probable space group: F M M 2
;
_chemical_formula_sum "Si O2"
_cell_formula_units_Z 88
_cell_length_a 12.821132
_cell_length_b 17.331501
_cell_length_c 17.941130
_cell_angle_alpha 90.000000
_cell_angle_beta 90.000000
_cell_angle_gamma 90.000000
_cell_volume 3986.688846
_symmetry_space_group_name_H-M "F M M 2"
_symmetry_group_IT_number 42
_symmetry_cell_setting 'orthorhombic'
loop_
_space_group_symop_operation_xyz
x,y,z
-x,-y,z
-x,y,z
x,-y,z
x,1/2+y,1/2+z
-x,1/2-y,1/2+z
-x,1/2+y,1/2+z
x,1/2-y,1/2+z
1/2+x,y,1/2+z
1/2-x,-y,1/2+z
1/2-x,y,1/2+z
1/2+x,-y,1/2+z
1/2+x,1/2+y,z
1/2-x,1/2-y,z
1/2-x,1/2+y,z
1/2+x,1/2-y,z
loop_
_atom_site_type_symbol
_atom_site_label
_atom_site_fract_x
_atom_site_fract_y
_atom_site_fract_z
Si Si1 0.830635 0.133401 0.468580
Si Si2 0.364439 0.500000 0.591626
Si Si3 0.621174 0.881893 0.232122
Si Si4 0.380296 0.307650 0.014215
Si Si5 0.121297 0.287220 0.680651
Si Si6 0.330318 0.413277 0.302763
O O1 0.704748 0.144139 0.469014
O O2 0.873515 0.217718 0.491165
O O3 0.862373 0.111468 0.385165
O O4 0.861880 0.068008 0.527186
O O5 0.370538 0.566321 0.658123
O O6 0.500000 0.881824 0.256408
O O7 0.657599 0.795246 0.211120
O O8 0.704623 0.910639 0.292147
O O9 0.500000 0.333916 0.007241
O O10 0.340094 0.313199 0.099692
O O11 0.128975 0.353777 0.741382
O O12 0.000000 0.271308 0.664551
O O13 0.365407 0.500000 0.286722
#
# Coordination Sequence:
#
# PCOD9369784 Si02
#       6
#    16   8  16  16  16  16
#     4  11  25  42  67 101 135 176 223 277 344 401
#     4  12  21  42  69  96 136 172 225 282 325 390
#     4  11  24  41  68 100 131 176 228 276 330 400
#     4  10  23  44  68  95 130 177 229 276 330 402
#     4  10  23  44  68  96 127 173 227 273 332 404
#     4  12  26  43  66  97 139 178 216 279 348 402
#
# _framework density 22.073457000000001
#
# number of rings (size 3 to 8) (size 9 to 14) (size 15 to 20)
#    0.000    1.091    3.636    1.909    7.636    2.545 
#    0.000    0.455    0.000    0.000    0.000    0.000 
#    0.000    0.000    0.000    0.000    0.000    0.000 
#
# Total GULP energy -122493.525073 kJ/mol
# GULP energy per Si atom -5567.887503 kJ/mol
# Density = 2.202322 g / cm^3
# Si number density = 22.073457 Si / 1000 Ang^3
#
#
#
# Elastic Constant Matrix: (Units=GPa)
#
#
# Indices 1 2 3 4 5 6 
#
# 1 64.8850 -17.3363 -10.6134 0.0000 0.0000 0.0000
# 2 -17.3363 138.7968 43.3807 0.0000 0.0000 0.0000
# 3 -10.6134 43.3807 111.0838 0.0000 0.0000 0.0000
# 4 0.0000 0.0000 0.0000 33.7473 0.0000 0.0000
# 5 0.0000 0.0000 0.0000 0.0000 -13.0793 0.0000
# 6 0.0000 0.0000 0.0000 0.0000 0.0000 -10.0689
#
#
#
# Elastic Compliance Matrix: (Units=1/GPa)
#
#
# Indices 1 2 3 4 5 6 
#
# 1 0.016015 0.001734 0.000853 0.000000 0.000000 0.000000
# 2 0.001734 0.008394 -0.003112 0.000000 0.000000 0.000000
# 3 0.000853 -0.003112 0.010299 0.000000 0.000000 0.000000
# 4 0.000000 0.000000 0.000000 0.029632 0.000000 0.000000
# 5 0.000000 0.000000 0.000000 0.000000 -0.076457 0.000000
# 6 0.000000 0.000000 0.000000 0.000000 0.000000 -0.099316
#
#
# Mechanical properties :
#
#
# Convention : Reuss Voigt Hill
#
# Bulk Modulus (GPa) = 29.71193 38.40308 34.05751
# Shear Modulus (GPa) = -50.42236 22.07545 -14.17346
#
# Velocity S-wave (km/s) = -4.78462 3.16585 -2.53673
# Velocity P-wave (km/s) = 4.12719 5.54969 2.62349
#
# Compressibility (1/GPa) = 0.03365651
#
# Stress axis : x y z
#
# Youngs Moduli (GPa) = 62.44288 119.13122 97.09494
#
# Poissons Ratio (x) = -0.20653 -0.08283
# Poissons Ratio (y) = -0.10826 0.30220
# Poissons Ratio (z) = -0.05327 0.37079
#
# Static dielectric constant tensor:
#      x y z
#    x 1.923860 0.000000 0.000000 
#    y 0.000000 1.763340 0.000000 
#    z 0.000000 0.000000 1.753610 
# 
# From -- ./inp_files/19922.got.cif
#   From: 2010.05.17/outbox.cif.g08.bks.cpg/sg42_10_cif.got.tgz:19922.got - 2010.06.03 19:03:34.
