data_PCOD9369065
_publ_section_title
;
Structure prediction by ZEFSAII (Michael W. Deem and Ramdas Pophale) SiO2 
 PCOD9369065
Probable space group: F M M 2
;
_chemical_formula_sum "Si O2"
_cell_formula_units_Z 96
_cell_length_a 17.829530
_cell_length_b 10.393917
_cell_length_c 28.733558
_cell_angle_alpha 90.000000
_cell_angle_beta 90.000000
_cell_angle_gamma 90.000000
_cell_volume 5324.864321
_symmetry_space_group_name_H-M "F M M 2"
_symmetry_group_IT_number 42
_symmetry_cell_setting 'orthorhombic'
loop_
_space_group_symop_operation_xyz
x,y,z
-x,-y,z
-x,y,z
x,-y,z
x,1/2+y,1/2+z
-x,1/2-y,1/2+z
-x,1/2+y,1/2+z
x,1/2-y,1/2+z
1/2+x,y,1/2+z
1/2-x,-y,1/2+z
1/2-x,y,1/2+z
1/2+x,-y,1/2+z
1/2+x,1/2+y,z
1/2-x,1/2-y,z
1/2-x,1/2+y,z
1/2+x,1/2-y,z
loop_
_atom_site_type_symbol
_atom_site_label
_atom_site_fract_x
_atom_site_fract_y
_atom_site_fract_z
Si Si1 0.659795 0.243423 0.342740
Si Si2 0.157120 0.500000 0.788552
Si Si3 0.179192 0.845499 0.031525
Si Si4 0.413203 0.152741 0.436633
Si Si5 0.410269 0.500000 0.187383
Si Si6 0.909454 0.500000 0.175880
Si Si7 0.909521 0.236262 0.123438
Si Si8 0.162925 0.500000 0.278501
O O1 0.750000 0.250000 0.348872
O O2 0.637139 0.374628 0.317932
O O3 0.622041 0.223640 0.392508
O O4 0.640587 0.125588 0.308233
O O5 0.117164 0.500000 0.739477
O O6 0.246427 0.500000 0.778098
O O7 0.250000 0.750000 0.030422
O O8 0.128905 0.799949 0.075011
O O9 0.196360 0.000000 0.035802
O O10 0.133227 0.827286 0.983739
O O11 0.500000 0.188442 0.443382
O O12 0.410002 0.000000 0.426318
O O13 0.500000 0.500000 0.186855
O O14 0.385531 0.626771 0.159957
O O15 0.889763 0.373900 0.145693
O O16 0.870417 0.500000 0.226516
O O17 0.000000 0.500000 0.182944
O O18 0.000000 0.232031 0.117938
#
# Coordination Sequence:
#
# PCOD9369065 Si02
#       8
#    16   8  16  16   8   8  16   8
#     4  10  20  37  57  85 118 155 194 240 292 342
#     4  10  22  34  55  84 119 156 193 242 292 342
#     4  11  24  41  64  91 118 152 194 240 292 352
#     4  10  21  39  64  89 113 150 197 240 286 351
#     4  10  20  36  57  82 113 156 201 238 286 344
#     4  10  22  36  57  88 121 154 195 250 298 342
#     4  10  21  39  61  86 118 157 198 243 294 345
#     4  10  20  36  57  80 117 160 199 236 288 344
#
# _framework density 18.028628000000001
#
# number of rings (size 3 to 8) (size 9 to 14) (size 15 to 20)
#    0.000    1.833    1.667    2.000    1.167    3.333 
#    1.500    0.000    0.000    0.000    0.000    0.000 
#    0.000    0.000    0.000    0.000    0.000    0.000 
#
# Total GULP energy -134002.798078 kJ/mol
# GULP energy per Si atom -5583.449920 kJ/mol
# Density = 1.798759 g / cm^3
# Si number density = 18.028628 Si / 1000 Ang^3
#
#
#
# Elastic Constant Matrix: (Units=GPa)
#
#
# Indices 1 2 3 4 5 6 
#
# 1 49.9102 58.2337 62.2318 0.0000 0.0000 0.0000
# 2 58.2337 179.6430 105.1075 0.0000 0.0000 0.0000
# 3 62.2318 105.1075 184.6536 0.0000 0.0000 0.0000
# 4 0.0000 0.0000 0.0000 21.6560 0.0000 0.0000
# 5 0.0000 0.0000 0.0000 0.0000 40.6817 0.0000
# 6 0.0000 0.0000 0.0000 0.0000 0.0000 12.6906
#
#
#
# Elastic Compliance Matrix: (Units=1/GPa)
#
#
# Indices 1 2 3 4 5 6 
#
# 1 0.040660 -0.007741 -0.009297 0.000000 0.000000 0.000000
# 2 -0.007741 0.009820 -0.002981 0.000000 0.000000 0.000000
# 3 -0.009297 -0.002981 0.010246 0.000000 0.000000 0.000000
# 4 0.000000 0.000000 0.000000 0.046176 0.000000 0.000000
# 5 0.000000 0.000000 0.000000 0.000000 0.024581 0.000000
# 6 0.000000 0.000000 0.000000 0.000000 0.000000 0.078799
#
#
# Mechanical properties :
#
#
# Convention : Reuss Voigt Hill
#
# Bulk Modulus (GPa) = 48.33696 96.15032 72.24364
# Shear Modulus (GPa) = 19.43897 27.58124 23.51011
#
# Velocity S-wave (km/s) = 3.28720 3.91558 3.61507
# Velocity P-wave (km/s) = 6.42472 8.59594 7.58839
#
# Compressibility (1/GPa) = 0.02068810
#
# Stress axis : x y z
#
# Youngs Moduli (GPa) = 24.59416 101.83311 97.60342
#
# Poissons Ratio (x) = 0.78828 0.90742
# Poissons Ratio (y) = 0.19038 0.29094
# Poissons Ratio (z) = 0.22865 0.30355
#
# Static dielectric constant tensor:
#      x y z
#    x 1.610520 0.000000 0.000000 
#    y 0.000000 1.613530 0.000000 
#    z 0.000000 0.000000 1.568700 
# 
# From -- ./inp_files/32829.got.cif
#   From: 2010.05.17/outbox.cif.g08.bks.cpg/sg42_17_cif.got.tgz:32829.got - 2010.06.03 19:03:34.
