data_PCOD9369349
_publ_section_title
;
Structure prediction by ZEFSAII (Michael W. Deem and Ramdas Pophale) SiO2 
 PCOD9369349
Probable space group: F M M 2
;
_chemical_formula_sum "Si O2"
_cell_formula_units_Z 80
_cell_length_a 9.486387
_cell_length_b 30.874863
_cell_length_c 14.934903
_cell_angle_alpha 90.000000
_cell_angle_beta 90.000000
_cell_angle_gamma 90.000000
_cell_volume 4374.297166
_symmetry_space_group_name_H-M "F M M 2"
_symmetry_group_IT_number 42
_symmetry_cell_setting 'orthorhombic'
loop_
_space_group_symop_operation_xyz
x,y,z
-x,-y,z
-x,y,z
x,-y,z
x,1/2+y,1/2+z
-x,1/2-y,1/2+z
-x,1/2+y,1/2+z
x,1/2-y,1/2+z
1/2+x,y,1/2+z
1/2-x,-y,1/2+z
1/2-x,y,1/2+z
1/2+x,-y,1/2+z
1/2+x,1/2+y,z
1/2-x,1/2-y,z
1/2-x,1/2+y,z
1/2+x,1/2-y,z
loop_
_atom_site_type_symbol
_atom_site_label
_atom_site_fract_x
_atom_site_fract_y
_atom_site_fract_z
Si Si1 0.329023 0.111756 0.880210
Si Si2 0.838711 0.708745 0.877070
Si Si3 0.170768 0.385978 0.087197
Si Si4 0.161856 0.708735 0.095925
Si Si5 0.330569 0.949166 0.244790
O O1 0.500000 0.108913 0.874032
O O2 0.287833 0.160731 0.851198
O O3 0.252634 0.075896 0.821821
O O4 0.287851 0.106849 0.984480
O O5 0.750000 0.750000 0.847321
O O6 0.000000 0.713565 0.848082
O O7 0.838708 0.708634 0.986515
O O8 0.220806 0.338673 0.120323
O O9 0.208884 0.424674 0.152862
O O10 0.000000 0.382628 0.086179
O O11 0.250000 0.750000 0.125885
O O12 0.000000 0.712689 0.125563
O O13 0.500000 0.944518 0.256819
O O14 0.298144 0.000000 0.242141
#
# Coordination Sequence:
#
# PCOD9369349 Si02
#       5
#    16  16  16  16  16
#     4   9  18  34  55  77 101 132 170 207 245 295
#     4   8  14  25  44  71 100 129 162 198 236 284
#     4   8  16  33  54  73  98 134 169 199 240 300
#     4   8  13  24  44  69  96 126 160 196 234 281
#     4  10  21  36  53  74  99 128 167 214 259 302
#
# _framework density 18.288653
#
# number of rings (size 3 to 8) (size 9 to 14) (size 15 to 20)
#    0.000    3.400    0.000    2.400    0.000    2.000 
#    0.000    8.000    0.000    4.800    0.000    0.000 
#    0.000    0.000    0.000    0.000    0.000    0.000 
#
# Total GULP energy -111445.513921 kJ/mol
# GULP energy per Si atom -5572.275696 kJ/mol
# Density = 1.824703 g / cm^3
# Si number density = 18.288653 Si / 1000 Ang^3
#
#
#
# Elastic Constant Matrix: (Units=GPa)
#
#
# Indices 1 2 3 4 5 6 
#
# 1 31.7991 67.8185 26.6600 0.0000 0.0000 0.0000
# 2 67.8185 218.1255 77.6018 0.0000 0.0000 0.0000
# 3 26.6600 77.6018 80.8073 0.0000 0.0000 0.0000
# 4 0.0000 0.0000 0.0000 37.4287 0.0000 0.0000
# 5 0.0000 0.0000 0.0000 0.0000 28.4701 0.0000
# 6 0.0000 0.0000 0.0000 0.0000 0.0000 32.7480
#
#
#
# Elastic Compliance Matrix: (Units=1/GPa)
#
#
# Indices 1 2 3 4 5 6 
#
# 1 0.094404 -0.027753 -0.004494 0.000000 0.000000 0.000000
# 2 -0.027753 0.015122 -0.005366 0.000000 0.000000 0.000000
# 3 -0.004494 -0.005366 0.019011 0.000000 0.000000 0.000000
# 4 0.000000 0.000000 0.000000 0.026717 0.000000 0.000000
# 5 0.000000 0.000000 0.000000 0.000000 0.035125 0.000000
# 6 0.000000 0.000000 0.000000 0.000000 0.000000 0.030536
#
#
# Mechanical properties :
#
#
# Convention : Reuss Voigt Hill
#
# Bulk Modulus (GPa) = 18.75774 74.98807 46.87290
# Shear Modulus (GPa) = 15.92803 30.30613 23.11708
#
# Velocity S-wave (km/s) = 2.95434 4.07517 3.55915
# Velocity P-wave (km/s) = 4.68148 7.95199 6.52497
#
# Compressibility (1/GPa) = 0.05331132
#
# Stress axis : x y z
#
# Youngs Moduli (GPa) = 10.59281 66.12700 52.60045
#
# Poissons Ratio (x) = 1.83520 0.23638
# Poissons Ratio (y) = 0.29398 0.28227
# Poissons Ratio (z) = 0.04760 0.35486
#
# Static dielectric constant tensor:
#      x y z
#    x 1.612390 0.000000 0.000000 
#    y 0.000000 1.630260 0.000000 
#    z 0.000000 0.000000 1.658410 
# 
# From -- ./inp_files/10936.got.cif
#   From: 2010.05.17/outbox.cif.g08.bks.cpg/sg42_6_cif.got.tgz:10936.got - 2010.06.03 19:03:34.
