data_PCOD9369708
_publ_section_title
;
Structure prediction by ZEFSAII (Michael W. Deem and Ramdas Pophale) SiO2 
 PCOD9369708
Probable space group: F M M 2
;
_chemical_formula_sum "Si O2"
_cell_formula_units_Z 112
_cell_length_a 23.332856
_cell_length_b 17.699321
_cell_length_c 13.498304
_cell_angle_alpha 90.000000
_cell_angle_beta 90.000000
_cell_angle_gamma 90.000000
_cell_volume 5574.471654
_symmetry_space_group_name_H-M "F M M 2"
_symmetry_group_IT_number 42
_symmetry_cell_setting 'orthorhombic'
loop_
_space_group_symop_operation_xyz
x,y,z
-x,-y,z
-x,y,z
x,-y,z
x,1/2+y,1/2+z
-x,1/2-y,1/2+z
-x,1/2+y,1/2+z
x,1/2-y,1/2+z
1/2+x,y,1/2+z
1/2-x,-y,1/2+z
1/2-x,y,1/2+z
1/2+x,-y,1/2+z
1/2+x,1/2+y,z
1/2-x,1/2-y,z
1/2-x,1/2+y,z
1/2+x,1/2-y,z
loop_
_atom_site_type_symbol
_atom_site_label
_atom_site_fract_x
_atom_site_fract_y
_atom_site_fract_z
Si Si1 0.565916 0.409460 0.293060
Si Si2 0.173676 0.087546 0.784411
Si Si3 0.934088 0.090292 0.651364
Si Si4 0.256503 0.584519 0.582522
Si Si5 0.332203 0.320358 0.974369
Si Si6 0.861430 0.353417 0.971968
Si Si7 0.567376 0.588461 0.060519
O O1 0.500000 0.386148 0.314632
O O2 0.568482 0.500000 0.307131
O O3 0.610733 0.372186 0.366849
O O4 0.577218 0.395070 0.177139
O O5 0.110160 0.103802 0.740878
O O6 0.215793 0.093705 0.690639
O O7 0.188873 0.144788 0.870853
O O8 0.175113 0.000000 0.818865
O O9 0.910056 0.133615 0.555694
O O10 0.000000 0.109079 0.673076
O O11 0.930815 0.000000 0.629913
O O12 0.231793 0.500000 0.574856
O O13 0.210041 0.647202 0.557684
O O14 0.309074 0.593256 0.505510
O O15 0.337734 0.231205 0.974433
O O16 0.393618 0.358046 0.995405
O O17 0.500000 0.598429 0.041301
O O18 0.580978 0.500000 0.043246
#
# Coordination Sequence:
#
# PCOD9369708 Si02
#       7
#    16  16  16  16  16  16  16
#     4   9  18  35  59  85 115 154 199 239 272 320
#     4   9  20  39  62  87 112 145 195 242 278 333
#     4   9  18  36  62  87 114 153 198 239 275 320
#     4  10  22  42  63  80 105 146 197 243 280 333
#     4  12  24  38  58  86 121 152 179 230 301 355
#     4  11  22  35  55  89 120 147 183 234 295 345
#     4   9  20  38  58  82 114 156 203 239 270 325
#
# _framework density 20.091591000000001
#
# number of rings (size 3 to 8) (size 9 to 14) (size 15 to 20)
#    0.000    2.143    0.000    5.143    0.000    6.286 
#    0.000    7.143    0.000    0.000    0.000    0.000 
#    0.000    0.000    0.000    0.000    0.000    0.000 
#
# Total GULP energy -156475.084871 kJ/mol
# GULP energy per Si atom -5588.395888 kJ/mol
# Density = 2.004586 g / cm^3
# Si number density = 20.091591 Si / 1000 Ang^3
#
#
#
# Elastic Constant Matrix: (Units=GPa)
#
#
# Indices 1 2 3 4 5 6 
#
# 1 45.8045 16.8099 15.8899 0.0000 0.0000 0.0000
# 2 16.8099 63.5391 31.6017 0.0000 0.0000 0.0000
# 3 15.8899 31.6017 39.8516 0.0000 0.0000 0.0000
# 4 0.0000 0.0000 0.0000 18.5023 0.0000 0.0000
# 5 0.0000 0.0000 0.0000 0.0000 18.8852 0.0000
# 6 0.0000 0.0000 0.0000 0.0000 0.0000 8.4644
#
#
#
# Elastic Compliance Matrix: (Units=1/GPa)
#
#
# Indices 1 2 3 4 5 6 
#
# 1 0.025636 -0.002804 -0.007998 0.000000 0.000000 0.000000
# 2 -0.002804 0.026295 -0.019733 0.000000 0.000000 0.000000
# 3 -0.007998 -0.019733 0.043930 0.000000 0.000000 0.000000
# 4 0.000000 0.000000 0.000000 0.054047 0.000000 0.000000
# 5 0.000000 0.000000 0.000000 0.000000 0.052952 0.000000
# 6 0.000000 0.000000 0.000000 0.000000 0.000000 0.118141
#
#
# Mechanical properties :
#
#
# Convention : Reuss Voigt Hill
#
# Bulk Modulus (GPa) = 28.74401 30.86645 29.80523
# Shear Modulus (GPa) = 12.70108 14.82998 13.76553
#
# Velocity S-wave (km/s) = 2.51700 2.71978 2.62036
# Velocity P-wave (km/s) = 4.77332 5.02585 4.90121
#
# Compressibility (1/GPa) = 0.03478985
#
# Stress axis : x y z
#
# Youngs Moduli (GPa) = 39.00832 38.03057 22.76350
#
# Poissons Ratio (x) = 0.10665 0.18206
# Poissons Ratio (y) = 0.10939 0.44919
# Poissons Ratio (z) = 0.31198 0.75046
#
# Static dielectric constant tensor:
#      x y z
#    x 1.720310 0.000000 0.000000 
#    y 0.000000 1.679480 0.000000 
#    z 0.000000 0.000000 1.697060 
# 
# From -- ./inp_files/16569.got.cif
#   From: 2010.05.17/outbox.cif.g08.bks.cpg/sg42_9_cif.got.tgz:16569.got - 2010.06.03 19:03:34.
