data_PCOD9369638
_publ_section_title
;
Structure prediction by ZEFSAII (Michael W. Deem and Ramdas Pophale) SiO2 
 PCOD9369638
Probable space group: F M M 2
;
_chemical_formula_sum "Si O2"
_cell_formula_units_Z 100
_cell_length_a 21.217790
_cell_length_b 7.718130
_cell_length_c 29.704549
_cell_angle_alpha 90.000000
_cell_angle_beta 90.000000
_cell_angle_gamma 90.000000
_cell_volume 4864.466299
_symmetry_space_group_name_H-M "F M M 2"
_symmetry_group_IT_number 42
_symmetry_cell_setting 'orthorhombic'
loop_
_space_group_symop_operation_xyz
x,y,z
-x,-y,z
-x,y,z
x,-y,z
x,1/2+y,1/2+z
-x,1/2-y,1/2+z
-x,1/2+y,1/2+z
x,1/2-y,1/2+z
1/2+x,y,1/2+z
1/2-x,-y,1/2+z
1/2-x,y,1/2+z
1/2+x,-y,1/2+z
1/2+x,1/2+y,z
1/2-x,1/2-y,z
1/2-x,1/2+y,z
1/2+x,1/2-y,z
loop_
_atom_site_type_symbol
_atom_site_label
_atom_site_fract_x
_atom_site_fract_y
_atom_site_fract_z
Si Si1 0.821465 0.792608 0.336820
Si Si2 0.398741 0.800711 0.751684
Si Si3 0.070744 0.790004 0.506621
Si Si4 0.000000 0.000000 0.730552
Si Si5 0.182090 0.695757 0.174451
Si Si6 0.821610 0.208535 0.438829
Si Si7 0.429738 0.703632 0.111060
O O1 0.750000 0.750000 0.323024
O O2 0.872613 0.739418 0.300108
O O3 0.830812 0.724913 0.387718
O O4 0.825879 0.000000 0.338803
O O5 0.445841 0.655561 0.733205
O O6 0.340343 0.804908 0.717124
O O7 0.423136 0.000000 0.754850
O O8 0.125474 0.727957 0.473389
O O9 0.078467 0.725259 0.557600
O O10 0.000000 0.740787 0.491491
O O11 0.073011 0.000000 0.508334
O O12 0.187558 0.500000 0.190018
O O13 0.250000 0.750000 0.156162
O O14 0.127212 0.710914 0.137467
O O15 0.750000 0.250000 0.452662
O O16 0.827040 0.000000 0.437417
O O17 0.500000 0.773451 0.122682
O O18 0.429217 0.500000 0.122288
#
# Coordination Sequence:
#
# PCOD9369638 Si02
#       7
#    16  16  16   4  16  16  16
#     4   9  19  35  60  87 118 159 203 254 308 368
#     4  11  24  43  65  93 129 167 212 258 308 370
#     4   9  18  35  57  81 112 155 202 249 302 368
#     4  12  26  44  64  94 128 172 208 260 312 378
#     4  12  25  42  64  94 124 159 208 257 310 372
#     4   9  18  34  56  85 115 152 200 247 304 364
#     4  10  22  39  61  86 119 159 202 250 311 374
#
# _framework density 20.55724
#
# number of rings (size 3 to 8) (size 9 to 14) (size 15 to 20)
#    0.000    1.920    0.800    2.640    2.240    3.520 
#    1.440    1.600    0.000    0.000    0.000    0.000 
#    0.000    0.000    0.000    0.000    0.000    0.000 
#
# Total GULP energy -139337.042580 kJ/mol
# GULP energy per Si atom -5573.481703 kJ/mol
# Density = 2.051045 g / cm^3
# Si number density = 20.557240 Si / 1000 Ang^3
#
#
#
# Elastic Constant Matrix: (Units=GPa)
#
#
# Indices 1 2 3 4 5 6 
#
# 1 140.8478 20.8338 63.2629 0.0000 0.0000 0.0007
# 2 20.8338 78.6853 0.3069 0.0000 0.0000 0.0013
# 3 63.2629 0.3069 68.7299 0.0000 0.0000 -0.0001
# 4 0.0000 0.0000 0.0000 18.4236 0.0001 0.0000
# 5 0.0000 0.0000 0.0000 0.0001 -60.2502 0.0000
# 6 0.0007 0.0013 -0.0001 0.0000 0.0000 67.3463
#
#
#
# Elastic Compliance Matrix: (Units=1/GPa)
#
#
# Indices 1 2 3 4 5 6 
#
# 1 0.012945 -0.003381 -0.011900 0.000000 0.000000 0.000000
# 2 -0.003381 0.013592 0.003051 0.000000 0.000000 0.000000
# 3 -0.011900 0.003051 0.025490 0.000000 0.000000 0.000000
# 4 0.000000 0.000000 0.000000 0.054278 0.000000 0.000000
# 5 0.000000 0.000000 0.000000 0.000000 -0.016597 0.000000
# 6 0.000000 0.000000 0.000000 0.000000 0.000000 0.014849
#
#
# Mechanical properties :
#
#
# Convention : Reuss Voigt Hill
#
# Bulk Modulus (GPa) = 36.27496 50.78558 43.53027
# Shear Modulus (GPa) = 36.17802 18.69457 27.43630
#
# Velocity S-wave (km/s) = 4.19963 3.01888 3.65722
# Velocity P-wave (km/s) = 6.41872 6.07533 6.24939
#
# Compressibility (1/GPa) = 0.02756722
#
# Stress axis : x y z
#
# Youngs Moduli (GPa) = 77.24919 73.57165 39.23130
#
# Poissons Ratio (x) = 0.24875 0.46687
# Poissons Ratio (y) = 0.26119 -0.11971
# Poissons Ratio (z) = 0.91929 -0.22450
#
# Static dielectric constant tensor:
#      x y z
#    x 1.754530 0.000000 0.000000 
#    y 0.000000 1.771620 0.000000 
#    z 0.000000 0.000000 1.731810 
# 
# From -- ./inp_files/33043.got.cif
#   From: 2010.05.17/outbox.cif.g08.bks.cpg/sg42_17_cif.got.tgz:33043.got - 2010.06.03 19:03:34.
