data_PCOD9369439
_publ_section_title
;
Structure prediction by ZEFSAII (Michael W. Deem and Ramdas Pophale) SiO2 
 PCOD9369439
Probable space group: F M M 2
;
_chemical_formula_sum "Si O2"
_cell_formula_units_Z 100
_cell_length_a 8.067682
_cell_length_b 30.074314
_cell_length_c 20.393599
_cell_angle_alpha 90.000000
_cell_angle_beta 90.000000
_cell_angle_gamma 90.000000
_cell_volume 4948.098960
_symmetry_space_group_name_H-M "F M M 2"
_symmetry_group_IT_number 42
_symmetry_cell_setting 'orthorhombic'
loop_
_space_group_symop_operation_xyz
x,y,z
-x,-y,z
-x,y,z
x,-y,z
x,1/2+y,1/2+z
-x,1/2-y,1/2+z
-x,1/2+y,1/2+z
x,1/2-y,1/2+z
1/2+x,y,1/2+z
1/2-x,-y,1/2+z
1/2-x,y,1/2+z
1/2+x,-y,1/2+z
1/2+x,1/2+y,z
1/2-x,1/2-y,z
1/2-x,1/2+y,z
1/2+x,1/2-y,z
loop_
_atom_site_type_symbol
_atom_site_label
_atom_site_fract_x
_atom_site_fract_y
_atom_site_fract_z
Si Si1 0.193166 0.564968 0.184770
Si Si2 0.688918 0.160021 0.720597
Si Si3 0.801875 0.800241 0.857335
Si Si4 0.309164 0.296756 0.592830
Si Si5 0.197463 0.550064 0.029107
Si Si6 0.695538 0.641087 0.979294
Si Si7 0.500000 0.500000 0.219136
O O1 0.203971 0.616083 0.207063
O O2 0.223445 0.560688 0.106181
O O3 0.347761 0.538110 0.215919
O O4 0.000000 0.550220 0.196183
O O5 0.500000 0.145334 0.724308
O O6 0.735085 0.185180 0.786865
O O7 0.709917 0.192090 0.658362
O O8 0.750000 0.750000 0.873655
O O9 0.745778 0.835172 0.912918
O O10 0.000000 0.801831 0.854676
O O11 0.500000 0.293558 0.610947
O O12 0.250000 0.250000 0.563654
O O13 0.283971 0.335502 0.540354
O O14 0.259964 0.500000 0.016733
O O15 0.000000 0.550436 0.018410
O O16 0.274639 0.588603 0.985069
O O17 0.500000 0.649804 0.986261
#
# Coordination Sequence:
#
# PCOD9369439 Si02
#       7
#    16  16  16  16  16  16   4
#     4  11  22  38  61  97 135 172 219 277 326 393
#     4  12  24  41  65  94 128 171 219 267 334 398
#     4  11  25  45  66  92 126 172 219 270 332 398
#     4  12  24  39  61  92 129 165 207 268 331 391
#     4  10  21  37  61  92 129 170 213 265 328 384
#     4  11  24  40  64  94 128 166 215 270 326 392
#     4  12  22  36  64  98 132 176 226 260 342 394
#
# _framework density 20.209781
#
# number of rings (size 3 to 8) (size 9 to 14) (size 15 to 20)
#    0.000    0.800    3.200    5.040    1.120    4.160 
#    0.000    0.000    1.760    0.000    0.000    0.000 
#    0.000    0.000    0.000    0.000    0.000    0.000 
#
# Total GULP energy -139460.201610 kJ/mol
# GULP energy per Si atom -5578.408064 kJ/mol
# Density = 2.016378 g / cm^3
# Si number density = 20.209781 Si / 1000 Ang^3
#
#
#
# Elastic Constant Matrix: (Units=GPa)
#
#
# Indices 1 2 3 4 5 6 
#
# 1 90.4620 15.1386 9.3737 0.0000 0.0000 0.0000
# 2 15.1386 130.8737 26.7597 0.0000 0.0000 0.0000
# 3 9.3737 26.7597 79.4928 0.0000 0.0000 0.0000
# 4 0.0000 0.0000 0.0000 33.5921 0.0000 0.0000
# 5 0.0000 0.0000 0.0000 0.0000 17.2893 0.0000
# 6 0.0000 0.0000 0.0000 0.0000 0.0000 38.1546
#
#
#
# Elastic Compliance Matrix: (Units=1/GPa)
#
#
# Indices 1 2 3 4 5 6 
#
# 1 0.011341 -0.001115 -0.000962 0.000000 0.000000 0.000000
# 2 -0.001115 0.008315 -0.002668 0.000000 0.000000 0.000000
# 3 -0.000962 -0.002668 0.013591 0.000000 0.000000 0.000000
# 4 0.000000 0.000000 0.000000 0.029769 0.000000 0.000000
# 5 0.000000 0.000000 0.000000 0.000000 0.057839 0.000000
# 6 0.000000 0.000000 0.000000 0.000000 0.000000 0.026209
#
#
# Mechanical properties :
#
#
# Convention : Reuss Voigt Hill
#
# Bulk Modulus (GPa) = 42.09147 44.81917 43.45532
# Shear Modulus (GPa) = 30.40006 34.44431 32.42219
#
# Velocity S-wave (km/s) = 3.88264 4.13284 4.00969
# Velocity P-wave (km/s) = 6.40097 6.70813 6.55635
#
# Compressibility (1/GPa) = 0.02375778
#
# Stress axis : x y z
#
# Youngs Moduli (GPa) = 88.17839 120.25855 73.57694
#
# Poissons Ratio (x) = 0.13410 0.07077
# Poissons Ratio (y) = 0.09833 0.19628
# Poissons Ratio (z) = 0.08482 0.32082
#
# Static dielectric constant tensor:
#      x y z
#    x 1.731110 0.000000 0.000000 
#    y 0.000000 1.757870 0.000000 
#    z 0.000000 0.000000 1.680260 
# 
# From -- ./inp_files/23819.got.cif
#   From: 2010.05.17/outbox.cif.g08.bks.cpg/sg42_12_cif.got.tgz:23819.got - 2010.06.03 19:03:34.
