data_PCOD9369373
_publ_section_title
;
Structure prediction by ZEFSAII (Michael W. Deem and Ramdas Pophale) SiO2 
 PCOD9369373
Probable space group: F M M 2
;
_chemical_formula_sum "Si O2"
_cell_formula_units_Z 96
_cell_length_a 14.906994
_cell_length_b 20.502629
_cell_length_c 14.539463
_cell_angle_alpha 90.000000
_cell_angle_beta 90.000000
_cell_angle_gamma 90.000000
_cell_volume 4443.733407
_symmetry_space_group_name_H-M "F M M 2"
_symmetry_group_IT_number 42
_symmetry_cell_setting 'orthorhombic'
loop_
_space_group_symop_operation_xyz
x,y,z
-x,-y,z
-x,y,z
x,-y,z
x,1/2+y,1/2+z
-x,1/2-y,1/2+z
-x,1/2+y,1/2+z
x,1/2-y,1/2+z
1/2+x,y,1/2+z
1/2-x,-y,1/2+z
1/2-x,y,1/2+z
1/2+x,-y,1/2+z
1/2+x,1/2+y,z
1/2-x,1/2-y,z
1/2-x,1/2+y,z
1/2+x,1/2-y,z
loop_
_atom_site_type_symbol
_atom_site_label
_atom_site_fract_x
_atom_site_fract_y
_atom_site_fract_z
Si Si1 0.269497 0.426088 0.066060
Si Si2 0.400044 0.422035 0.450116
Si Si3 0.403689 0.350964 0.811314
Si Si4 0.660922 0.207577 0.485633
Si Si5 0.208147 0.380844 0.769521
Si Si6 0.099227 0.233865 0.183471
O O1 0.290237 0.500000 0.034705
O O2 0.320871 0.367360 0.016225
O O3 0.290989 0.421358 0.174457
O O4 0.166818 0.411360 0.036008
O O5 0.500000 0.394955 0.463097
O O6 0.406205 0.500000 0.441415
O O7 0.355902 0.398084 0.354718
O O8 0.500000 0.385855 0.816902
O O9 0.308990 0.387104 0.808741
O O10 0.400609 0.306352 0.721518
O O11 0.397025 0.299293 0.894797
O O12 0.750000 0.250000 0.466208
O O13 0.616024 0.237073 0.575314
O O14 0.175114 0.309923 0.732853
O O15 0.000000 0.204646 0.201056
#
# Coordination Sequence:
#
# PCOD9369373 Si02
#       6
#    16  16  16  16  16  16
#     4  10  22  39  63  92 126 167 207 259 326 391
#     4  10  21  38  61  91 124 162 213 266 316 381
#     4  11  23  38  59  90 125 165 212 263 322 388
#     4  11  21  39  64  88 123 167 208 262 318 380
#     4  11  20  38  62  88 121 167 211 262 321 384
#     4  10  21  36  57  89 124 158 206 261 317 377
#
# _framework density 21.603456999999999
#
# number of rings (size 3 to 8) (size 9 to 14) (size 15 to 20)
#    0.000    1.500    1.667    5.000    0.000    0.667 
#    0.000    0.833    0.000   13.500    0.000    0.000 
#    0.000    0.000    0.000    0.000    0.000    0.000 
#
# Total GULP energy -133903.602440 kJ/mol
# GULP energy per Si atom -5579.316768 kJ/mol
# Density = 2.155429 g / cm^3
# Si number density = 21.603457 Si / 1000 Ang^3
#
#
#
# Elastic Constant Matrix: (Units=GPa)
#
#
# Indices 1 2 3 4 5 6 
#
# 1 84.8276 -3.2968 -8.8433 0.0000 0.0000 0.0000
# 2 -3.2968 37.8218 9.3223 0.0000 0.0000 0.0000
# 3 -8.8433 9.3223 61.9336 0.0000 0.0000 0.0000
# 4 0.0000 0.0000 0.0000 13.5534 0.0000 0.0000
# 5 0.0000 0.0000 0.0000 0.0000 17.8799 0.0000
# 6 0.0000 0.0000 0.0000 0.0000 0.0000 20.7328
#
#
#
# Elastic Compliance Matrix: (Units=1/GPa)
#
#
# Indices 1 2 3 4 5 6 
#
# 1 0.011982 0.000647 0.001614 0.000000 0.000000 0.000000
# 2 0.000647 0.027493 -0.004046 0.000000 0.000000 0.000000
# 3 0.001614 -0.004046 0.016986 0.000000 0.000000 0.000000
# 4 0.000000 0.000000 0.000000 0.073782 0.000000 0.000000
# 5 0.000000 0.000000 0.000000 0.000000 0.055929 0.000000
# 6 0.000000 0.000000 0.000000 0.000000 0.000000 0.048233
#
#
# Mechanical properties :
#
#
# Convention : Reuss Voigt Hill
#
# Bulk Modulus (GPa) = 18.90730 19.88304 19.39517
# Shear Modulus (GPa) = 19.56135 22.92661 21.24398
#
# Velocity S-wave (km/s) = 3.01237 3.26121 3.13926
# Velocity P-wave (km/s) = 4.56839 4.83780 4.70502
#
# Compressibility (1/GPa) = 0.05288962
#
# Stress axis : x y z
#
# Youngs Moduli (GPa) = 83.45880 36.37237 58.87302
#
# Poissons Ratio (x) = -0.02352 -0.09499
# Poissons Ratio (y) = -0.05398 0.23820
# Poissons Ratio (z) = -0.13466 0.14716
#
# Static dielectric constant tensor:
#      x y z
#    x 1.940520 0.000000 0.000000 
#    y 0.000000 1.799400 0.000000 
#    z 0.000000 0.000000 1.780340 
# 
# From -- ./inp_files/13992.got.cif
#   From: 2010.05.17/outbox.cif.g08.bks.cpg/sg42_7_cif.got.tgz:13992.got - 2010.06.03 19:03:34.
