data_PCOD9369105
_publ_section_title
;
Structure prediction by ZEFSAII (Michael W. Deem and Ramdas Pophale) SiO2 
 PCOD9369105
Probable space group: F M M 2
;
_chemical_formula_sum "Si O2"
_cell_formula_units_Z 80
_cell_length_a 8.676259
_cell_length_b 18.785502
_cell_length_c 26.081107
_cell_angle_alpha 90.000000
_cell_angle_beta 90.000000
_cell_angle_gamma 90.000000
_cell_volume 4250.904359
_symmetry_space_group_name_H-M "F M M 2"
_symmetry_group_IT_number 42
_symmetry_cell_setting 'orthorhombic'
loop_
_space_group_symop_operation_xyz
x,y,z
-x,-y,z
-x,y,z
x,-y,z
x,1/2+y,1/2+z
-x,1/2-y,1/2+z
-x,1/2+y,1/2+z
x,1/2-y,1/2+z
1/2+x,y,1/2+z
1/2-x,-y,1/2+z
1/2-x,y,1/2+z
1/2+x,-y,1/2+z
1/2+x,1/2+y,z
1/2-x,1/2-y,z
1/2-x,1/2+y,z
1/2+x,1/2-y,z
loop_
_atom_site_type_symbol
_atom_site_label
_atom_site_fract_x
_atom_site_fract_y
_atom_site_fract_z
Si Si1 0.316168 0.170372 0.478100
Si Si2 0.814517 0.328955 0.667340
Si Si3 0.686646 0.917448 0.882574
Si Si4 0.184839 0.083164 0.574075
Si Si5 0.185379 0.171904 0.284638
O O1 0.500000 0.173329 0.478744
O O2 0.250000 0.250000 0.478341
O O3 0.258152 0.128866 0.427883
O O4 0.256128 0.127868 0.527593
O O5 0.750000 0.250000 0.655976
O O6 0.746266 0.384011 0.626965
O O7 0.769339 0.346102 0.726212
O O8 0.000000 0.327949 0.663751
O O9 0.500000 0.913606 0.886409
O O10 0.732732 0.884203 0.827799
O O11 0.731139 0.000000 0.886817
O O12 0.000000 0.089318 0.572152
O O13 0.225884 0.000000 0.569462
O O14 0.250000 0.250000 0.296998
O O15 0.000000 0.175950 0.285306
#
# Coordination Sequence:
#
# PCOD9369105 Si02
#       5
#    16  16  16  16  16
#     4  12  25  41  62  86 113 147 190 236 283 338
#     4  10  20  36  59  86 117 152 193 237 280 332
#     4  10  21  38  59  85 119 154 188 231 284 338
#     4  11  24  41  60  84 116 151 187 232 287 341
#     4   9  19  35  57  84 114 152 193 234 280 331
#
# _framework density 18.819524999999999
#
# number of rings (size 3 to 8) (size 9 to 14) (size 15 to 20)
#    0.000    1.600    0.000    4.800    0.000    8.400 
#    0.000    2.000    0.000    0.000    0.000    0.000 
#    0.000    0.000    0.000    0.000    0.000    0.000 
#
# Total GULP energy -111808.378749 kJ/mol
# GULP energy per Si atom -5590.418937 kJ/mol
# Density = 1.877669 g / cm^3
# Si number density = 18.819525 Si / 1000 Ang^3
#
#
#
# Elastic Constant Matrix: (Units=GPa)
#
#
# Indices 1 2 3 4 5 6 
#
# 1 63.2646 69.7017 52.7426 0.0000 0.0000 0.0000
# 2 69.7017 195.9176 124.0262 0.0000 0.0000 0.0000
# 3 52.7426 124.0262 139.2124 0.0000 0.0000 0.0000
# 4 0.0000 0.0000 0.0000 -157.4067 0.0000 0.0000
# 5 0.0000 0.0000 0.0000 0.0000 31.3752 0.0000
# 6 0.0000 0.0000 0.0000 0.0000 0.0000 29.0962
#
#
#
# Elastic Compliance Matrix: (Units=1/GPa)
#
#
# Indices 1 2 3 4 5 6 
#
# 1 0.026850 -0.007139 -0.003812 0.000000 0.000000 0.000000
# 2 -0.007139 0.013605 -0.009416 0.000000 0.000000 0.000000
# 3 -0.003812 -0.009416 0.017016 0.000000 0.000000 0.000000
# 4 0.000000 0.000000 0.000000 -0.006353 0.000000 0.000000
# 5 0.000000 0.000000 0.000000 0.000000 0.031872 0.000000
# 6 0.000000 0.000000 0.000000 0.000000 0.000000 0.034369
#
#
# Mechanical properties :
#
#
# Convention : Reuss Voigt Hill
#
# Bulk Modulus (GPa) = 59.74835 99.03729 79.39282
# Shear Modulus (GPa) = 30.54850 -9.25880 10.64485
#
# Velocity S-wave (km/s) = 4.03331 -2.22047 2.38087
# Velocity P-wave (km/s) = 7.31485 6.79449 7.05947
#
# Compressibility (1/GPa) = 0.01673686
#
# Stress axis : x y z
#
# Youngs Moduli (GPa) = 37.24327 73.50247 58.76660
#
# Poissons Ratio (x) = 0.52475 0.22403
# Poissons Ratio (y) = 0.26589 0.55335
# Poissons Ratio (z) = 0.14198 0.69210
#
# Static dielectric constant tensor:
#      x y z
#    x 1.635330 0.000000 0.000000 
#    y 0.000000 1.618970 0.000000 
#    z 0.000000 0.000000 1.642580 
# 
# From -- ./inp_files/31243.got.cif
#   From: 2010.05.17/outbox.cif.g08.bks.cpg/sg42_16_cif.got.tgz:31243.got - 2010.06.03 19:03:34.
