data_PCOD9369675
_publ_section_title
;
Structure prediction by ZEFSAII (Michael W. Deem and Ramdas Pophale) SiO2 
 PCOD9369675
Probable space group: F M M 2
;
_chemical_formula_sum "Si O2"
_cell_formula_units_Z 68
_cell_length_a 7.503145
_cell_length_b 19.892847
_cell_length_c 20.600170
_cell_angle_alpha 90.000000
_cell_angle_beta 90.000000
_cell_angle_gamma 90.000000
_cell_volume 3074.759033
_symmetry_space_group_name_H-M "F M M 2"
_symmetry_group_IT_number 42
_symmetry_cell_setting 'orthorhombic'
loop_
_space_group_symop_operation_xyz
x,y,z
-x,-y,z
-x,y,z
x,-y,z
x,1/2+y,1/2+z
-x,1/2-y,1/2+z
-x,1/2+y,1/2+z
x,1/2-y,1/2+z
1/2+x,y,1/2+z
1/2-x,-y,1/2+z
1/2-x,y,1/2+z
1/2+x,-y,1/2+z
1/2+x,1/2+y,z
1/2-x,1/2-y,z
1/2-x,1/2+y,z
1/2+x,1/2-y,z
loop_
_atom_site_type_symbol
_atom_site_label
_atom_site_fract_x
_atom_site_fract_y
_atom_site_fract_z
Si Si1 0.288288 0.675761 0.138160
Si Si2 0.500000 0.500000 0.021428
Si Si3 0.787818 0.672838 0.866686
Si Si4 0.718324 0.422582 0.251387
Si Si5 0.705313 0.382747 0.505364
O O1 0.500000 0.668777 0.132060
O O2 0.250000 0.750000 0.164649
O O3 0.225521 0.617998 0.187369
O O4 0.207149 0.666231 0.067249
O O5 0.343021 0.441746 0.020386
O O6 0.750000 0.750000 0.850299
O O7 0.719468 0.619651 0.813830
O O8 0.000000 0.666105 0.865660
O O9 0.731950 0.654081 0.939520
O O10 0.500000 0.422987 0.251416
O O11 0.775577 0.500000 0.252205
O O12 0.500000 0.405985 0.495694
#
# Coordination Sequence:
#
# PCOD9369675 Si02
#       5
#    16   4  16  16  16
#     4  11  22  39  67  96 132 179 225 277 335 397
#     4  12  26  44  68 102 140 176 212 278 348 386
#     4  10  22  40  65  95 129 175 223 274 333 396
#     4   9  20  38  62  91 130 176 224 275 336 394
#     4  11  25  43  70 101 134 173 223 274 331 402
#
# _framework density 22.115556000000002
#
# number of rings (size 3 to 8) (size 9 to 14) (size 15 to 20)
#    0.000    1.647    1.176    2.471    4.941    1.882 
#    0.000    1.176    0.000    2.824    0.000    0.000 
#    0.000    0.000    0.000    0.000    0.000    0.000 
#
# Total GULP energy -94780.187814 kJ/mol
# GULP energy per Si atom -5575.305166 kJ/mol
# Density = 2.206522 g / cm^3
# Si number density = 22.115556 Si / 1000 Ang^3
#
#
#
# Elastic Constant Matrix: (Units=GPa)
#
#
# Indices 1 2 3 4 5 6 
#
# 1 99.9351 14.2014 1.4566 0.0000 0.0000 0.0000
# 2 14.2014 186.9332 69.9509 0.0000 0.0000 0.0000
# 3 1.4566 69.9509 149.1629 0.0000 0.0000 0.0000
# 4 0.0000 0.0000 0.0000 -250.3182 0.0000 0.0000
# 5 0.0000 0.0000 0.0000 0.0000 7.1027 0.0000
# 6 0.0000 0.0000 0.0000 0.0000 0.0000 37.5795
#
#
#
# Elastic Compliance Matrix: (Units=1/GPa)
#
#
# Indices 1 2 3 4 5 6 
#
# 1 0.010128 -0.000888 0.000318 0.000000 0.000000 0.000000
# 2 -0.000888 0.006566 -0.003070 0.000000 0.000000 0.000000
# 3 0.000318 -0.003070 0.008141 0.000000 0.000000 0.000000
# 4 0.000000 0.000000 0.000000 -0.003995 0.000000 0.000000
# 5 0.000000 0.000000 0.000000 0.000000 0.140792 0.000000
# 6 0.000000 0.000000 0.000000 0.000000 0.000000 0.026610
#
#
# Mechanical properties :
#
#
# Convention : Reuss Voigt Hill
#
# Bulk Modulus (GPa) = 56.97115 67.47210 62.22163
# Shear Modulus (GPa) = 24.82919 -17.76572 3.53174
#
# Velocity S-wave (km/s) = 3.35431 -2.83735 1.26507
# Velocity P-wave (km/s) = 6.38893 4.45433 5.50724
#
# Compressibility (1/GPa) = 0.01755274
#
# Stress axis : x y z
#
# Youngs Moduli (GPa) = 98.73524 152.30030 122.83652
#
# Poissons Ratio (x) = 0.13529 -0.03902
# Poissons Ratio (y) = 0.08771 0.37717
# Poissons Ratio (z) = -0.03137 0.46764
#
# Static dielectric constant tensor:
#      x y z
#    x 1.843770 0.000000 0.000000 
#    y 0.000000 1.844700 0.000000 
#    z 0.000000 0.000000 1.813920 
# 
# From -- ./inp_files/17945.got.cif
#   From: 2010.05.17/outbox.cif.g08.bks.cpg/sg42_9_cif.got.tgz:17945.got - 2010.06.03 19:03:34.
