data_PCOD9369359
_publ_section_title
;
Structure prediction by ZEFSAII (Michael W. Deem and Ramdas Pophale) SiO2 
 PCOD9369359
Probable space group: F M M 2
;
_chemical_formula_sum "Si O2"
_cell_formula_units_Z 88
_cell_length_a 9.600345
_cell_length_b 27.892516
_cell_length_c 17.329431
_cell_angle_alpha 90.000000
_cell_angle_beta 90.000000
_cell_angle_gamma 90.000000
_cell_volume 4640.436502
_symmetry_space_group_name_H-M "F M M 2"
_symmetry_group_IT_number 42
_symmetry_cell_setting 'orthorhombic'
loop_
_space_group_symop_operation_xyz
x,y,z
-x,-y,z
-x,y,z
x,-y,z
x,1/2+y,1/2+z
-x,1/2-y,1/2+z
-x,1/2+y,1/2+z
x,1/2-y,1/2+z
1/2+x,y,1/2+z
1/2-x,-y,1/2+z
1/2-x,y,1/2+z
1/2+x,-y,1/2+z
1/2+x,1/2+y,z
1/2-x,1/2-y,z
1/2-x,1/2+y,z
1/2+x,1/2-y,z
loop_
_atom_site_type_symbol
_atom_site_label
_atom_site_fract_x
_atom_site_fract_y
_atom_site_fract_z
Si Si1 0.164045 0.849291 0.970830
Si Si2 0.250000 0.250000 0.219379
Si Si3 0.341503 0.095338 0.749089
Si Si4 0.338349 0.947099 0.376324
Si Si5 0.334613 0.345175 0.628346
Si Si6 0.855084 0.690737 0.852080
O O1 0.183978 0.902668 0.934538
O O2 0.222872 0.811429 0.908005
O O3 0.000000 0.842267 0.985682
O O4 0.257197 0.844446 0.046546
O O5 0.310012 0.206570 0.169131
O O6 0.145881 0.227409 0.281657
O O7 0.500000 0.082243 0.725847
O O8 0.260646 0.057474 0.802017
O O9 0.245568 0.114963 0.679933
O O10 0.353000 0.140250 0.807517
O O11 0.500000 0.942741 0.351258
O O12 0.319631 0.000000 0.411810
O O13 0.500000 0.354217 0.623332
O O14 0.000000 0.695195 0.897237
#
# Coordination Sequence:
#
# PCOD9369359 Si02
#       6
#    16   8  16  16  16  16
#     4  10  21  36  55  80 111 145 179 223 278 330
#     4  10  22  36  56  80 104 138 188 236 274 320
#     4   9  18  33  54  80 109 140 175 219 270 323
#     4   9  18  35  59  84 109 141 184 229 274 330
#     4  11  22  37  57  80 111 149 186 227 277 328
#     4   9  18  34  54  75 101 134 175 220 266 320
#
# _framework density 18.963733999999999
#
# number of rings (size 3 to 8) (size 9 to 14) (size 15 to 20)
#    0.000    2.364    0.000    2.182    0.000    9.091 
#    0.000    0.909    0.000    3.273    0.000    0.000 
#    0.000    0.000    0.000    0.000    0.000    0.000 
#
# Total GULP energy -122510.955801 kJ/mol
# GULP energy per Si atom -5568.679809 kJ/mol
# Density = 1.892057 g / cm^3
# Si number density = 18.963734 Si / 1000 Ang^3
#
#
#
# Elastic Constant Matrix: (Units=GPa)
#
#
# Indices 1 2 3 4 5 6 
#
# 1 170.3411 39.2837 80.3599 0.0000 0.0000 0.0000
# 2 39.2837 74.0790 32.5315 0.0000 0.0000 0.0000
# 3 80.3599 32.5315 103.8311 0.0000 0.0000 0.0000
# 4 0.0000 0.0000 0.0000 17.9028 0.0000 0.0000
# 5 0.0000 0.0000 0.0000 0.0000 31.6158 0.0000
# 6 0.0000 0.0000 0.0000 0.0000 0.0000 -206.3215
#
#
#
# Elastic Compliance Matrix: (Units=1/GPa)
#
#
# Indices 1 2 3 4 5 6 
#
# 1 0.009521 -0.002102 -0.006710 0.000000 0.000000 0.000000
# 2 -0.002102 0.016117 -0.003423 0.000000 0.000000 0.000000
# 3 -0.006710 -0.003423 0.015897 0.000000 0.000000 0.000000
# 4 0.000000 0.000000 0.000000 0.055857 0.000000 0.000000
# 5 0.000000 0.000000 0.000000 0.000000 0.031630 0.000000
# 6 0.000000 0.000000 0.000000 0.000000 0.000000 -0.004847
#
#
# Mechanical properties :
#
#
# Convention : Reuss Voigt Hill
#
# Bulk Modulus (GPa) = 58.60054 72.51125 65.55590
# Shear Modulus (GPa) = 32.39759 -18.28883 7.05438
#
# Velocity S-wave (km/s) = 4.13776 -3.10887 1.93080
# Velocity P-wave (km/s) = 7.33461 5.04312 6.29403
#
# Compressibility (1/GPa) = 0.01706469
#
# Stress axis : x y z
#
# Youngs Moduli (GPa) = 105.03211 62.04663 62.90652
#
# Poissons Ratio (x) = 0.13043 0.42211
# Poissons Ratio (y) = 0.22080 0.21531
# Poissons Ratio (z) = 0.70477 0.21236
#
# Static dielectric constant tensor:
#      x y z
#    x 1.718010 0.000000 0.000000 
#    y 0.000000 1.709440 0.000000 
#    z 0.000000 0.000000 1.626900 
# 
# From -- ./inp_files/18394.got.cif
#   From: 2010.05.17/outbox.cif.g08.bks.cpg/sg42_10_cif.got.tgz:18394.got - 2010.06.03 19:03:34.
