data_PCOD9369307
_publ_section_title
;
Structure prediction by ZEFSAII (Michael W. Deem and Ramdas Pophale) SiO2 
 PCOD9369307
Probable space group: F M M 2
;
_chemical_formula_sum "Si O2"
_cell_formula_units_Z 88
_cell_length_a 15.796163
_cell_length_b 26.428169
_cell_length_c 12.203400
_cell_angle_alpha 90.000000
_cell_angle_beta 90.000000
_cell_angle_gamma 90.000000
_cell_volume 5094.476093
_symmetry_space_group_name_H-M "F M M 2"
_symmetry_group_IT_number 42
_symmetry_cell_setting 'orthorhombic'
loop_
_space_group_symop_operation_xyz
x,y,z
-x,-y,z
-x,y,z
x,-y,z
x,1/2+y,1/2+z
-x,1/2-y,1/2+z
-x,1/2+y,1/2+z
x,1/2-y,1/2+z
1/2+x,y,1/2+z
1/2-x,-y,1/2+z
1/2-x,y,1/2+z
1/2+x,-y,1/2+z
1/2+x,1/2+y,z
1/2-x,1/2-y,z
1/2-x,1/2+y,z
1/2+x,1/2-y,z
loop_
_atom_site_type_symbol
_atom_site_label
_atom_site_fract_x
_atom_site_fract_y
_atom_site_fract_z
Si Si1 0.500000 0.138955 0.580471
Si Si2 0.847029 0.608897 0.421116
Si Si3 0.500000 0.737802 0.204643
Si Si4 0.398454 0.000000 0.075098
Si Si5 0.653674 0.109014 0.989105
Si Si6 0.000000 0.139528 0.330949
Si Si7 0.095476 0.663390 0.204767
Si Si8 0.898482 0.500000 0.333708
O O1 0.416647 0.123224 0.513165
O O2 0.500000 0.199573 0.602273
O O3 0.500000 0.117996 0.705922
O O4 0.750220 0.615398 0.454452
O O5 0.863218 0.643574 0.314938
O O6 0.863038 0.550823 0.387308
O O7 0.500000 0.700033 0.307848
O O8 0.421232 0.776457 0.204371
O O9 0.362790 0.949164 0.021740
O O10 0.378655 0.000000 0.204420
O O11 0.500000 0.000000 0.063037
O O12 0.638911 0.143282 0.096271
O O13 0.583383 0.124021 0.898420
O O14 0.000000 0.640502 0.203280
O O15 0.000000 0.500000 0.345610
#
# Coordination Sequence:
#
# PCOD9369307 Si02
#       8
#     8  16   8   8  16   8  16   8
#     4  10  23  44  60  90 135 170 204 264 333 372
#     4  12  24  40  66  99 132 163 214 269 315 377
#     4   8  22  42  72  84 128 176 216 258 328 372
#     4  11  21  40  68  97 123 170 219 253 310 387
#     4  12  24  40  66  99 132 163 214 269 315 377
#     4  10  23  44  60  90 135 170 204 264 333 372
#     4  10  20  42  70  91 116 179 220 255 313 372
#     4  11  21  40  68  97 123 170 219 253 310 387
#
# _framework density 17.273610999999999
#
# number of rings (size 3 to 8) (size 9 to 14) (size 15 to 20)
#    1.091    0.182    5.455    0.545    2.545    2.909 
#    0.000    7.273    0.000    0.000    0.000    0.000 
#    0.000    0.000    0.000    0.000    0.000    0.000 
#
# Total GULP energy -122657.901879 kJ/mol
# GULP energy per Si atom -5575.359176 kJ/mol
# Density = 1.723430 g / cm^3
# Si number density = 17.273611 Si / 1000 Ang^3
#
#
#
# Elastic Constant Matrix: (Units=GPa)
#
#
# Indices 1 2 3 4 5 6 
#
# 1 126.0911 37.4914 56.5567 0.0000 0.0000 0.0000
# 2 37.4914 128.0571 42.1472 0.0000 0.0000 0.0000
# 3 56.5567 42.1472 112.7620 0.0000 0.0000 0.0000
# 4 0.0000 0.0000 0.0000 41.6613 0.0000 0.0000
# 5 0.0000 0.0000 0.0000 0.0000 26.9633 0.0000
# 6 0.0000 0.0000 0.0000 0.0000 0.0000 -48.3129
#
#
#
# Elastic Compliance Matrix: (Units=1/GPa)
#
#
# Indices 1 2 3 4 5 6 
#
# 1 0.010488 -0.001527 -0.004690 0.000000 0.000000 0.000000
# 2 -0.001527 0.009127 -0.002645 0.000000 0.000000 0.000000
# 3 -0.004690 -0.002645 0.012209 0.000000 0.000000 0.000000
# 4 0.000000 0.000000 0.000000 0.024003 0.000000 0.000000
# 5 0.000000 0.000000 0.000000 0.000000 0.037087 0.000000
# 6 0.000000 0.000000 0.000000 0.000000 0.000000 -0.020698
#
#
# Mechanical properties :
#
#
# Convention : Reuss Voigt Hill
#
# Bulk Modulus (GPa) = 70.92290 71.03342 70.97816
# Shear Modulus (GPa) = 52.83129 19.44334 36.13732
#
# Velocity S-wave (km/s) = 5.53637 3.35865 4.57886
# Velocity P-wave (km/s) = 9.05628 7.50017 8.31471
#
# Compressibility (1/GPa) = 0.01409982
#
# Stress axis : x y z
#
# Youngs Moduli (GPa) = 95.34362 109.56751 81.90572
#
# Poissons Ratio (x) = 0.16733 0.38411
# Poissons Ratio (y) = 0.14561 0.21667
# Poissons Ratio (z) = 0.44713 0.28985
#
# Static dielectric constant tensor:
#      x y z
#    x 1.570410 0.000000 0.000000 
#    y 0.000000 1.581170 0.000000 
#    z 0.000000 0.000000 1.796850 
# 
# From -- ./inp_files/8004.got.cif
#   From: 2010.05.17/outbox.cif.g08.bks.cpg/sg42_5_cif.got.tgz:8004.got - 2010.06.03 19:03:34.
