data_PCOD9369508
_publ_section_title
;
Structure prediction by ZEFSAII (Michael W. Deem and Ramdas Pophale) SiO2 
 PCOD9369508
Probable space group: F M M 2
;
_chemical_formula_sum "Si O2"
_cell_formula_units_Z 84
_cell_length_a 7.894527
_cell_length_b 20.175740
_cell_length_c 25.032321
_cell_angle_alpha 90.000000
_cell_angle_beta 90.000000
_cell_angle_gamma 90.000000
_cell_volume 3987.096126
_symmetry_space_group_name_H-M "F M M 2"
_symmetry_group_IT_number 42
_symmetry_cell_setting 'orthorhombic'
loop_
_space_group_symop_operation_xyz
x,y,z
-x,-y,z
-x,y,z
x,-y,z
x,1/2+y,1/2+z
-x,1/2-y,1/2+z
-x,1/2+y,1/2+z
x,1/2-y,1/2+z
1/2+x,y,1/2+z
1/2-x,-y,1/2+z
1/2-x,y,1/2+z
1/2+x,-y,1/2+z
1/2+x,1/2+y,z
1/2-x,1/2-y,z
1/2-x,1/2+y,z
1/2+x,1/2-y,z
loop_
_atom_site_type_symbol
_atom_site_label
_atom_site_fract_x
_atom_site_fract_y
_atom_site_fract_z
Si Si1 0.203209 0.678429 0.583560
Si Si2 0.500000 0.000000 0.507541
Si Si3 0.197126 0.604634 0.986742
Si Si4 0.299658 0.824771 0.877386
Si Si5 0.699049 0.574624 0.169889
Si Si6 0.306350 0.826260 0.258051
O O1 0.250000 0.750000 0.606382
O O2 0.286957 0.667424 0.526068
O O3 0.268564 0.619566 0.621872
O O4 0.000000 0.675551 0.579763
O O5 0.347254 0.056573 0.505778
O O6 0.235708 0.626067 0.925961
O O7 0.000000 0.581170 0.988898
O O8 0.500000 0.825501 0.866993
O O9 0.250000 0.750000 0.892787
O O10 0.212544 0.840392 0.821090
O O11 0.500000 0.567515 0.157985
O O12 0.769969 0.500000 0.174182
O O13 0.713029 0.618774 0.223020
O O14 0.500000 0.830583 0.241813
O O15 0.250000 0.750000 0.249924
#
# Coordination Sequence:
#
# PCOD9369508 Si02
#       6
#    16   4  16  16  16  16
#     4  11  23  40  68  98 130 170 217 273 328 388
#     4  12  26  44  68  90 144 176 220 268 324 396
#     4  11  25  43  67  99 132 177 221 265 327 392
#     4  10  21  38  65  95 126 163 213 269 326 384
#     4  10  23  42  64  90 128 171 213 263 327 388
#     4  11  22  38  64  92 124 165 215 269 325 382
#
# _framework density 21.067964
#
# number of rings (size 3 to 8) (size 9 to 14) (size 15 to 20)
#    0.000    1.333    0.952    5.429    4.000    4.952 
#    1.714    0.000    0.000    0.000    0.000    0.000 
#    0.000    0.000    0.000    0.000    0.000    0.000 
#
# Total GULP energy -117031.258976 kJ/mol
# GULP energy per Si atom -5572.917094 kJ/mol
# Density = 2.102001 g / cm^3
# Si number density = 21.067964 Si / 1000 Ang^3
#
#
#
# Elastic Constant Matrix: (Units=GPa)
#
#
# Indices 1 2 3 4 5 6 
#
# 1 79.5608 23.6212 3.5368 0.0000 0.0000 0.0000
# 2 23.6212 130.3030 48.4823 0.0000 0.0000 0.0000
# 3 3.5368 48.4823 78.8683 0.0000 0.0000 0.0000
# 4 0.0000 0.0000 0.0000 196.8074 0.0000 0.0000
# 5 0.0000 0.0000 0.0000 0.0000 15.1226 0.0000
# 6 0.0000 0.0000 0.0000 0.0000 0.0000 54.2851
#
#
#
# Elastic Compliance Matrix: (Units=1/GPa)
#
#
# Indices 1 2 3 4 5 6 
#
# 1 0.013364 -0.002852 0.001154 0.000000 0.000000 0.000000
# 2 -0.002852 0.010559 -0.006363 0.000000 0.000000 0.000000
# 3 0.001154 -0.006363 0.016539 0.000000 0.000000 0.000000
# 4 0.000000 0.000000 0.000000 0.005081 0.000000 0.000000
# 5 0.000000 0.000000 0.000000 0.000000 0.066126 0.000000
# 6 0.000000 0.000000 0.000000 0.000000 0.000000 0.018421
#
#
# Mechanical properties :
#
#
# Convention : Reuss Voigt Hill
#
# Bulk Modulus (GPa) = 41.08412 48.89029 44.98720
# Shear Modulus (GPa) = 32.39885 67.44914 49.92400
#
# Velocity S-wave (km/s) = 3.92577 5.66432 4.87320
# Velocity P-wave (km/s) = 6.33182 8.12624 7.28449
#
# Compressibility (1/GPa) = 0.02434031
#
# Stress axis : x y z
#
# Youngs Moduli (GPa) = 74.82537 94.70684 60.46291
#
# Poissons Ratio (x) = 0.27011 -0.06977
# Poissons Ratio (y) = 0.21340 0.38472
# Poissons Ratio (z) = -0.08634 0.60261
#
# Static dielectric constant tensor:
#      x y z
#    x 1.756440 0.000000 0.000000 
#    y 0.000000 1.664130 0.000000 
#    z 0.000000 0.000000 1.758020 
# 
# From -- ./inp_files/27813.got.cif
#   From: 2010.05.17/outbox.cif.g08.bks.cpg/sg42_14_cif.got.tgz:27813.got - 2010.06.03 19:03:34.
