data_PCOD9369290
_publ_section_title
;
Structure prediction by ZEFSAII (Michael W. Deem and Ramdas Pophale) SiO2 
 PCOD9369290
Probable space group: F M M 2
;
_chemical_formula_sum "Si O2"
_cell_formula_units_Z 72
_cell_length_a 26.766354
_cell_length_b 9.688981
_cell_length_c 14.608578
_cell_angle_alpha 90.000000
_cell_angle_beta 90.000000
_cell_angle_gamma 90.000000
_cell_volume 3788.569559
_symmetry_space_group_name_H-M "F M M 2"
_symmetry_group_IT_number 42
_symmetry_cell_setting 'orthorhombic'
loop_
_space_group_symop_operation_xyz
x,y,z
-x,-y,z
-x,y,z
x,-y,z
x,1/2+y,1/2+z
-x,1/2-y,1/2+z
-x,1/2+y,1/2+z
x,1/2-y,1/2+z
1/2+x,y,1/2+z
1/2-x,-y,1/2+z
1/2-x,y,1/2+z
1/2+x,-y,1/2+z
1/2+x,1/2+y,z
1/2-x,1/2-y,z
1/2-x,1/2+y,z
1/2+x,1/2-y,z
loop_
_atom_site_type_symbol
_atom_site_label
_atom_site_fract_x
_atom_site_fract_y
_atom_site_fract_z
Si Si1 0.741923 0.000000 0.365500
Si Si2 0.419100 0.229249 0.313547
Si Si3 0.846845 0.500000 0.254760
Si Si4 0.500000 0.663548 0.968865
Si Si5 0.750000 0.750000 0.493567
Si Si6 0.861165 0.000000 0.362116
Si Si7 0.000000 0.832926 0.658853
Si Si8 0.679523 0.000000 0.056394
O O1 0.726891 0.864934 0.424858
O O2 0.801159 0.000000 0.344431
O O3 0.711721 0.000000 0.272939
O O4 0.452938 0.196018 0.402297
O O5 0.392117 0.373190 0.324699
O O6 0.453287 0.211010 0.223217
O O7 0.373627 0.126238 0.301684
O O8 0.852369 0.500000 0.147130
O O9 0.500000 0.500000 0.990791
O O10 0.500000 0.755225 0.061147
O O11 0.712945 0.643046 0.547843
O O12 0.858465 0.000000 0.471906
O O13 0.000000 0.000000 0.648971
#
# Coordination Sequence:
#
# PCOD9369290 Si02
#       8
#     8  16   8   8   8   8   8   8
#     4  10  20  40  62  88 132 172 220 256 322 368
#     4  11  24  43  66  96 136 167 218 262 331 387
#     4  12  22  39  67  89 132 180 208 279 308 395
#     4  11  25  46  71  95 129 166 212 270 332 396
#     4   8  18  40  56  84 120 170 216 268 300 384
#     4  10  24  41  63  99 130 180 216 265 314 391
#     4  11  25  46  69 101 125 164 216 272 334 394
#     4  10  22  36  62  91 126 164 232 253 330 362
#
# _framework density 19.004532999999999
#
# number of rings (size 3 to 8) (size 9 to 14) (size 15 to 20)
#    0.000    1.778    2.222    3.333    6.222    3.556 
#    0.000    1.111    0.000    0.000    0.000    0.000 
#    0.000    0.000    0.000    0.000    0.000    0.000 
#
# Total GULP energy -100241.175791 kJ/mol
# GULP energy per Si atom -5568.954211 kJ/mol
# Density = 1.896128 g / cm^3
# Si number density = 19.004533 Si / 1000 Ang^3
#
#
#
# Elastic Constant Matrix: (Units=GPa)
#
#
# Indices 1 2 3 4 5 6 
#
# 1 97.0773 63.5161 58.7898 0.0000 0.0000 0.0000
# 2 63.5161 214.4199 67.8593 0.0000 0.0000 0.0000
# 3 58.7898 67.8593 126.7733 0.0000 0.0000 0.0000
# 4 0.0000 0.0000 0.0000 12.8889 0.0000 0.0000
# 5 0.0000 0.0000 0.0000 0.0000 11.1089 0.0000
# 6 0.0000 0.0000 0.0000 0.0000 0.0000 4.8576
#
#
#
# Elastic Compliance Matrix: (Units=1/GPa)
#
#
# Indices 1 2 3 4 5 6 
#
# 1 0.015613 -0.002810 -0.005737 0.000000 0.000000 0.000000
# 2 -0.002810 0.006120 -0.001973 0.000000 0.000000 0.000000
# 3 -0.005737 -0.001973 0.011605 0.000000 0.000000 0.000000
# 4 0.000000 0.000000 0.000000 0.077586 0.000000 0.000000
# 5 0.000000 0.000000 0.000000 0.000000 0.090018 0.000000
# 6 0.000000 0.000000 0.000000 0.000000 0.000000 0.205864
#
#
# Mechanical properties :
#
#
# Convention : Reuss Voigt Hill
#
# Bulk Modulus (GPa) = 81.30338 90.95564 86.12951
# Shear Modulus (GPa) = 11.57555 22.31145 16.94350
#
# Velocity S-wave (km/s) = 2.47066 3.43010 2.98912
# Velocity P-wave (km/s) = 7.14233 7.97818 7.57179
#
# Compressibility (1/GPa) = 0.01229961
#
# Stress axis : x y z
#
# Youngs Moduli (GPa) = 64.04760 163.38548 86.17212
#
# Poissons Ratio (x) = 0.45903 0.49434
# Poissons Ratio (y) = 0.17994 0.17004
# Poissons Ratio (z) = 0.36742 0.32241
#
# Static dielectric constant tensor:
#      x y z
#    x 1.685810 0.000000 0.000000 
#    y 0.000000 1.633960 0.000000 
#    z 0.000000 0.000000 1.648210 
# 
# From -- ./inp_files/12211.got.cif
#   From: 2010.05.17/outbox.cif.g08.bks.cpg/sg42_7_cif.got.tgz:12211.got - 2010.06.03 19:03:34.
