data_PCOD9369794
_publ_section_title
;
Structure prediction by ZEFSAII (Michael W. Deem and Ramdas Pophale) SiO2 
 PCOD9369794
Probable space group: F M M 2
;
_chemical_formula_sum "Si O2"
_cell_formula_units_Z 88
_cell_length_a 28.251508
_cell_length_b 16.993758
_cell_length_c 7.650797
_cell_angle_alpha 90.000000
_cell_angle_beta 90.000000
_cell_angle_gamma 90.000000
_cell_volume 3673.142208
_symmetry_space_group_name_H-M "F M M 2"
_symmetry_group_IT_number 42
_symmetry_cell_setting 'orthorhombic'
loop_
_space_group_symop_operation_xyz
x,y,z
-x,-y,z
-x,y,z
x,-y,z
x,1/2+y,1/2+z
-x,1/2-y,1/2+z
-x,1/2+y,1/2+z
x,1/2-y,1/2+z
1/2+x,y,1/2+z
1/2-x,-y,1/2+z
1/2-x,y,1/2+z
1/2+x,-y,1/2+z
1/2+x,1/2+y,z
1/2-x,1/2-y,z
1/2-x,1/2+y,z
1/2+x,1/2-y,z
loop_
_atom_site_type_symbol
_atom_site_label
_atom_site_fract_x
_atom_site_fract_y
_atom_site_fract_z
Si Si1 0.599151 0.670421 0.028240
Si Si2 0.000000 0.592107 0.515751
Si Si3 0.750000 0.250000 0.189168
Si Si4 0.397502 0.353230 0.445465
Si Si5 0.000000 0.410861 0.940596
Si Si6 0.829614 0.500000 0.019038
Si Si7 0.765787 0.000000 0.169016
Si Si8 0.197624 0.354321 0.449530
O O1 0.548030 0.638583 0.966973
O O2 0.605424 0.647089 0.232426
O O3 0.606482 0.763606 0.007592
O O4 0.642461 0.633700 0.919220
O O5 0.000000 0.500000 0.460394
O O6 0.000000 0.591333 0.728403
O O7 0.769258 0.324600 0.294643
O O8 0.794283 0.220755 0.077674
O O9 0.451061 0.374011 0.498746
O O10 0.361572 0.421092 0.509660
O O11 0.000000 0.500000 0.998623
O O12 0.795980 0.500000 0.846489
O O13 0.791584 0.500000 0.177096
O O14 0.781553 0.073936 0.054494
#
# Coordination Sequence:
#
# PCOD9369794 Si02
#       8
#    16   8   8  16   8   8   8  16
#     4  11  23  40  69  98 129 171 219 274 328 394
#     4   9  21  38  67 100 135 170 220 270 331 394
#     4  10  24  40  60  92 124 164 212 262 330 372
#     4  11  23  43  69  99 132 169 223 273 331 398
#     4   9  17  36  69 101 126 167 211 264 325 384
#     4  12  26  47  64  98 132 177 222 276 328 398
#     4  12  26  42  64  92 130 172 222 270 320 394
#     4  11  23  40  63  88 125 166 210 267 316 386
#
# _framework density 23.957688999999998
#
# number of rings (size 3 to 8) (size 9 to 14) (size 15 to 20)
#    0.000    1.273    2.727    2.727    7.636    0.000 
#    3.273    0.000    2.000    1.091    0.000    0.000 
#    0.000    0.000    0.000    0.000    0.000    0.000 
#
# Total GULP energy -123076.125445 kJ/mol
# GULP energy per Si atom -5594.369338 kJ/mol
# Density = 2.390316 g / cm^3
# Si number density = 23.957689 Si / 1000 Ang^3
#
#
#
# Elastic Constant Matrix: (Units=GPa)
#
#
# Indices 1 2 3 4 5 6 
#
# 1 242.8578 82.6476 34.3834 0.0000 0.0000 0.0000
# 2 82.6476 139.6067 21.5215 -0.0001 0.0000 0.0000
# 3 34.3834 21.5215 65.3329 -0.0001 0.0000 0.0000
# 4 0.0000 -0.0001 -0.0001 15.5906 0.0000 0.0000
# 5 0.0000 0.0000 0.0000 0.0000 11.9772 0.0000
# 6 0.0000 0.0000 0.0000 0.0000 0.0000 43.2241
#
#
#
# Elastic Compliance Matrix: (Units=1/GPa)
#
#
# Indices 1 2 3 4 5 6 
#
# 1 0.005365 -0.002888 -0.001872 0.000000 0.000000 0.000000
# 2 -0.002888 0.009100 -0.001478 0.000000 0.000000 0.000000
# 3 -0.001872 -0.001478 0.016779 0.000000 0.000000 0.000000
# 4 0.000000 0.000000 0.000000 0.064141 0.000000 0.000000
# 5 0.000000 0.000000 0.000000 0.000000 0.083492 0.000000
# 6 0.000000 0.000000 0.000000 0.000000 0.000000 0.023135
#
#
# Mechanical properties :
#
#
# Convention : Reuss Voigt Hill
#
# Bulk Modulus (GPa) = 53.28237 80.54470 66.91354
# Shear Modulus (GPa) = 22.65052 34.77470 28.71261
#
# Velocity S-wave (km/s) = 3.07813 3.81399 3.46565
# Velocity P-wave (km/s) = 5.90946 7.28615 6.63361
#
# Compressibility (1/GPa) = 0.01876793
#
# Stress axis : x y z
#
# Youngs Moduli (GPa) = 186.37719 109.88577 59.59984
#
# Poissons Ratio (x) = 0.31732 0.11160
# Poissons Ratio (y) = 0.53820 0.08809
# Poissons Ratio (z) = 0.34899 0.16241
#
# Static dielectric constant tensor:
#      x y z
#    x 2.076600 0.000000 0.000000 
#    y 0.000000 1.950820 0.000000 
#    z 0.000000 0.000000 1.962600 
# 
# From -- ./inp_files/5565.got.cif
#   From: 2010.05.17/outbox.cif.g08.bks.cpg/sg42_3_cif.got.tgz:5565.got - 2010.06.03 19:03:34.
