data_PCOD9369111
_publ_section_title
;
Structure prediction by ZEFSAII (Michael W. Deem and Ramdas Pophale) SiO2 
 PCOD9369111
Probable space group: F M M 2
;
_chemical_formula_sum "Si O2"
_cell_formula_units_Z 112
_cell_length_a 15.083343
_cell_length_b 23.223106
_cell_length_c 15.394682
_cell_angle_alpha 90.000000
_cell_angle_beta 90.000000
_cell_angle_gamma 90.000000
_cell_volume 5392.481129
_symmetry_space_group_name_H-M "F M M 2"
_symmetry_group_IT_number 42
_symmetry_cell_setting 'orthorhombic'
loop_
_space_group_symop_operation_xyz
x,y,z
-x,-y,z
-x,y,z
x,-y,z
x,1/2+y,1/2+z
-x,1/2-y,1/2+z
-x,1/2+y,1/2+z
x,1/2-y,1/2+z
1/2+x,y,1/2+z
1/2-x,-y,1/2+z
1/2-x,y,1/2+z
1/2+x,-y,1/2+z
1/2+x,1/2+y,z
1/2-x,1/2-y,z
1/2-x,1/2+y,z
1/2+x,1/2-y,z
loop_
_atom_site_type_symbol
_atom_site_label
_atom_site_fract_x
_atom_site_fract_y
_atom_site_fract_z
Si Si1 0.275849 0.935310 0.160460
Si Si2 0.856184 0.755228 0.888746
Si Si3 0.601183 0.435276 0.495396
Si Si4 0.357115 0.254024 0.091936
Si Si5 0.602089 0.130824 0.839319
Si Si6 0.602182 0.884094 0.645133
Si Si7 0.399078 0.341767 0.737507
O O1 0.185807 0.917937 0.108150
O O2 0.320339 0.888047 0.224246
O O3 0.266421 0.000000 0.196967
O O4 0.348747 0.936081 0.084860
O O5 0.750000 0.750000 0.887469
O O6 0.891892 0.699004 0.840226
O O7 0.884883 0.808903 0.829535
O O8 0.884389 0.751278 0.990039
O O9 0.500000 0.417532 0.514137
O O10 0.600338 0.500000 0.458475
O O11 0.646611 0.393879 0.425144
O O12 0.250000 0.250000 0.095081
O O13 0.388139 0.316629 0.124425
O O14 0.390488 0.204498 0.157691
O O15 0.500000 0.113372 0.848086
O O16 0.627083 0.107071 0.746523
O O17 0.500000 0.901385 0.628999
O O18 0.500000 0.364989 0.735625
#
# Coordination Sequence:
#
# PCOD9369111 Si02
#       7
#    16  16  16  16  16  16  16
#     4  11  24  42  62  89 125 165 212 260 312 379
#     4  11  23  36  59  91 128 169 209 251 306 379
#     4   9  19  37  63  93 121 153 201 262 319 369
#     4  11  22  40  64  94 131 169 207 256 315 375
#     4  10  20  36  59  88 119 153 200 256 309 366
#     4  11  23  40  63  89 125 165 208 260 317 376
#     4  12  23  39  65  95 131 168 206 260 320 379
#
# _framework density 20.769659999999998
#
# number of rings (size 3 to 8) (size 9 to 14) (size 15 to 20)
#    0.000    1.286    2.857    3.429    2.000    5.143 
#    0.000    1.429    0.000    0.000    0.000    2.000 
#    0.000    0.000    0.000    0.000    0.000    0.000 
#
# Total GULP energy -156148.120125 kJ/mol
# GULP energy per Si atom -5576.718576 kJ/mol
# Density = 2.072239 g / cm^3
# Si number density = 20.769660 Si / 1000 Ang^3
#
#
#
# Elastic Constant Matrix: (Units=GPa)
#
#
# Indices 1 2 3 4 5 6 
#
# 1 119.6084 8.7570 1.5069 0.0000 0.0000 0.0000
# 2 8.7570 64.9448 -2.4417 0.0000 0.0000 0.0000
# 3 1.5069 -2.4417 55.7586 0.0000 0.0000 0.0000
# 4 0.0000 0.0000 0.0000 28.1754 0.0000 0.0000
# 5 0.0000 0.0000 0.0000 0.0000 -690.5168 0.0000
# 6 0.0000 0.0000 0.0000 0.0000 0.0000 7.3466
#
#
#
# Elastic Compliance Matrix: (Units=1/GPa)
#
#
# Indices 1 2 3 4 5 6 
#
# 1 0.008448 -0.001150 -0.000279 0.000000 0.000000 0.000000
# 2 -0.001150 0.015580 0.000713 0.000000 0.000000 0.000000
# 3 -0.000279 0.000713 0.017973 0.000000 0.000000 0.000000
# 4 0.000000 0.000000 0.000000 0.035492 0.000000 0.000000
# 5 0.000000 0.000000 0.000000 0.000000 -0.001448 0.000000
# 6 0.000000 0.000000 0.000000 0.000000 0.000000 0.136117
#
#
# Mechanical properties :
#
#
# Convention : Reuss Voigt Hill
#
# Bulk Modulus (GPa) = 24.64813 28.43960 26.54386
# Shear Modulus (GPa) = 22.01521 -115.49967 -46.74223
#
# Velocity S-wave (km/s) = 3.25925 -7.46529 -4.74910
# Velocity P-wave (km/s) = 5.10458 7.78362 4.15500
#
# Compressibility (1/GPa) = 0.04057103
#
# Stress axis : x y z
#
# Youngs Moduli (GPa) = 118.36704 64.18687 55.63837
#
# Poissons Ratio (x) = 0.07379 0.01550
# Poissons Ratio (y) = 0.13608 -0.03969
# Poissons Ratio (z) = 0.03298 -0.04578
#
# Static dielectric constant tensor:
#      x y z
#    x 4.117020 0.000000 0.000000 
#    y 0.000000 1.816910 0.000000 
#    z 0.000000 0.000000 1.807230 
# 
# From -- ./inp_files/14208.got.cif
#   From: 2010.05.17/outbox.cif.g08.bks.cpg/sg42_8_cif.got.tgz:14208.got - 2010.06.03 19:03:34.
