data_PCOD9369874
_publ_section_title
;
Structure prediction by ZEFSAII (Michael W. Deem and Ramdas Pophale) SiO2 
 PCOD9369874
Probable space group: F M M 2
;
_chemical_formula_sum "Si O2"
_cell_formula_units_Z 80
_cell_length_a 8.836264
_cell_length_b 16.489799
_cell_length_c 29.429670
_cell_angle_alpha 90.000000
_cell_angle_beta 90.000000
_cell_angle_gamma 90.000000
_cell_volume 4288.144751
_symmetry_space_group_name_H-M "F M M 2"
_symmetry_group_IT_number 42
_symmetry_cell_setting 'orthorhombic'
loop_
_space_group_symop_operation_xyz
x,y,z
-x,-y,z
-x,y,z
x,-y,z
x,1/2+y,1/2+z
-x,1/2-y,1/2+z
-x,1/2+y,1/2+z
x,1/2-y,1/2+z
1/2+x,y,1/2+z
1/2-x,-y,1/2+z
1/2-x,y,1/2+z
1/2+x,-y,1/2+z
1/2+x,1/2+y,z
1/2-x,1/2-y,z
1/2-x,1/2+y,z
1/2+x,1/2-y,z
loop_
_atom_site_type_symbol
_atom_site_label
_atom_site_fract_x
_atom_site_fract_y
_atom_site_fract_z
Si Si1 0.682359 0.163886 0.362990
Si Si2 0.828014 0.592327 0.270294
Si Si3 0.681658 0.664278 0.037726
Si Si4 0.315653 0.500000 0.090608
Si Si5 0.820291 0.500000 0.694639
Si Si6 0.822891 0.406318 0.949343
O O1 0.500000 0.162898 0.363253
O O2 0.750000 0.250000 0.376543
O O3 0.734405 0.144885 0.311435
O O4 0.747006 0.102947 0.400237
O O5 0.834504 0.500000 0.289487
O O6 0.737709 0.577423 0.223850
O O7 0.000000 0.617552 0.259936
O O8 0.500000 0.668868 0.038718
O O9 0.750000 0.750000 0.053864
O O10 0.730363 0.583988 0.066112
O O11 0.738725 0.647860 0.986552
O O12 0.500000 0.500000 0.089964
O O13 0.265082 0.500000 0.143076
O O14 0.000000 0.500000 0.694716
O O15 0.811119 0.500000 0.963854
O O16 0.000000 0.384357 0.946880
#
# Coordination Sequence:
#
# PCOD9369874 Si02
#       6
#    16  16  16   8   8  16
#     4  11  22  36  54  78 114 154 192 233 284 340
#     4   8  17  35  54  77 105 140 181 224 279 338
#     4  11  22  40  62  87 120 158 198 242 294 349
#     4   9  20  39  62  87 116 153 194 239 302 359
#     4   9  17  33  60  85 106 139 186 237 282 341
#     4  11  23  38  57  85 116 149 196 241 285 345
#
# _framework density 18.656086999999999
#
# number of rings (size 3 to 8) (size 9 to 14) (size 15 to 20)
#    0.600    1.400    1.000    3.000    0.000    3.600 
#    0.000    5.000    0.000    4.800    0.000    0.000 
#    0.000    0.000    0.000    0.000    0.000    0.000 
#
# Total GULP energy -111432.914494 kJ/mol
# GULP energy per Si atom -5571.645725 kJ/mol
# Density = 1.861362 g / cm^3
# Si number density = 18.656087 Si / 1000 Ang^3
#
#
#
# Elastic Constant Matrix: (Units=GPa)
#
#
# Indices 1 2 3 4 5 6 
#
# 1 64.5314 32.1371 38.4775 0.0000 0.0000 0.0000
# 2 32.1371 89.9514 40.6707 0.0000 0.0000 0.0000
# 3 38.4775 40.6707 122.1922 0.0000 0.0000 0.0000
# 4 0.0000 0.0000 0.0000 13.9974 0.0000 0.0000
# 5 0.0000 0.0000 0.0000 0.0000 23.6319 0.0000
# 6 0.0000 0.0000 0.0000 0.0000 0.0000 23.0156
#
#
#
# Elastic Compliance Matrix: (Units=1/GPa)
#
#
# Indices 1 2 3 4 5 6 
#
# 1 0.021041 -0.005323 -0.004854 0.000000 0.000000 0.000000
# 2 -0.005323 0.014433 -0.003128 0.000000 0.000000 0.000000
# 3 -0.004854 -0.003128 0.010753 0.000000 0.000000 0.000000
# 4 0.000000 0.000000 0.000000 0.071442 0.000000 0.000000
# 5 0.000000 0.000000 0.000000 0.000000 0.042316 0.000000
# 6 0.000000 0.000000 0.000000 0.000000 0.000000 0.043449
#
#
# Mechanical properties :
#
#
# Convention : Reuss Voigt Hill
#
# Bulk Modulus (GPa) = 50.97249 55.47172 53.22210
# Shear Modulus (GPa) = 21.13420 23.15496 22.14458
#
# Velocity S-wave (km/s) = 3.36941 3.52681 3.44901
# Velocity P-wave (km/s) = 6.52064 6.81050 6.66715
#
# Compressibility (1/GPa) = 0.01961843
#
# Stress axis : x y z
#
# Youngs Moduli (GPa) = 47.52522 69.28576 92.99352
#
# Poissons Ratio (x) = 0.36879 0.45141
# Poissons Ratio (y) = 0.25296 0.29087
# Poissons Ratio (z) = 0.23070 0.21671
#
# Static dielectric constant tensor:
#      x y z
#    x 1.634930 0.000000 0.000000 
#    y 0.000000 1.685640 0.000000 
#    z 0.000000 0.000000 1.632000 
# 
# From -- ./inp_files/33597.got.cif
#   From: 2010.05.17/outbox.cif.g08.bks.cpg/sg42_17_cif.got.tgz:33597.got - 2010.06.03 19:03:34.
