data_PCOD9369578
_publ_section_title
;
Structure prediction by ZEFSAII (Michael W. Deem and Ramdas Pophale) SiO2 
 PCOD9369578
Probable space group: F M M 2
;
_chemical_formula_sum "Si O2"
_cell_formula_units_Z 88
_cell_length_a 13.451505
_cell_length_b 22.383404
_cell_length_c 15.390698
_cell_angle_alpha 90.000000
_cell_angle_beta 90.000000
_cell_angle_gamma 90.000000
_cell_volume 4633.992507
_symmetry_space_group_name_H-M "F M M 2"
_symmetry_group_IT_number 42
_symmetry_cell_setting 'orthorhombic'
loop_
_space_group_symop_operation_xyz
x,y,z
-x,-y,z
-x,y,z
x,-y,z
x,1/2+y,1/2+z
-x,1/2-y,1/2+z
-x,1/2+y,1/2+z
x,1/2-y,1/2+z
1/2+x,y,1/2+z
1/2-x,-y,1/2+z
1/2-x,y,1/2+z
1/2+x,-y,1/2+z
1/2+x,1/2+y,z
1/2-x,1/2-y,z
1/2-x,1/2+y,z
1/2+x,1/2-y,z
loop_
_atom_site_type_symbol
_atom_site_label
_atom_site_fract_x
_atom_site_fract_y
_atom_site_fract_z
Si Si1 0.212409 0.151937 0.183050
Si Si2 0.710419 0.625652 0.504213
Si Si3 0.500000 0.928564 0.272608
Si Si4 0.113807 0.733244 0.245886
Si Si5 0.750000 0.750000 0.410470
Si Si6 0.284578 0.570269 0.829813
Si Si7 0.500000 0.572149 0.564769
O O1 0.129083 0.201126 0.203463
O O2 0.315304 0.189602 0.191604
O O3 0.216335 0.104337 0.260270
O O4 0.219326 0.122707 0.088982
O O5 0.718289 0.693472 0.467958
O O6 0.750226 0.585202 0.426070
O O7 0.599777 0.603203 0.528231
O O8 0.602758 0.906929 0.313985
O O9 0.500000 0.920143 0.169093
O O10 0.500000 0.000000 0.286933
O O11 0.160855 0.735309 0.342704
O O12 0.000000 0.715712 0.245559
O O13 0.281490 0.500000 0.812870
O O14 0.500000 0.500000 0.547508
#
# Coordination Sequence:
#
# PCOD9369578 Si02
#       7
#    16  16   8  16   8  16   8
#     4  10  22  40  61  92 124 161 212 259 321 375
#     4  12  23  41  62  95 133 162 217 268 321 386
#     4   9  20  40  63  89 119 165 216 254 312 376
#     4  10  21  41  65  87 123 170 212 258 318 392
#     4  10  22  38  58  96 126 168 210 254 336 372
#     4  11  22  39  64  91 127 164 206 267 316 374
#     4  11  24  40  69  99 125 177 229 268 318 380
#
# _framework density 18.990105
#
# number of rings (size 3 to 8) (size 9 to 14) (size 15 to 20)
#    0.000    1.636    5.455    1.636    3.818    0.727 
#    1.636    0.000    0.000    0.000    0.000    0.000 
#    0.000    0.000    0.000    0.000    0.000    0.000 
#
# Total GULP energy -122841.200508 kJ/mol
# GULP energy per Si atom -5583.690932 kJ/mol
# Density = 1.894688 g / cm^3
# Si number density = 18.990105 Si / 1000 Ang^3
#
#
#
# Elastic Constant Matrix: (Units=GPa)
#
#
# Indices 1 2 3 4 5 6 
#
# 1 67.6584 5.1257 4.7716 0.0000 0.0000 0.0000
# 2 5.1257 83.0097 6.6752 0.0000 0.0000 0.0000
# 3 4.7716 6.6752 101.5431 0.0000 0.0000 0.0000
# 4 0.0000 0.0000 0.0000 18.7374 0.0000 0.0000
# 5 0.0000 0.0000 0.0000 0.0000 19.2239 0.0000
# 6 0.0000 0.0000 0.0000 0.0000 0.0000 29.3649
#
#
#
# Elastic Compliance Matrix: (Units=1/GPa)
#
#
# Indices 1 2 3 4 5 6 
#
# 1 0.014891 -0.000868 -0.000643 0.000000 0.000000 0.000000
# 2 -0.000868 0.012161 -0.000759 0.000000 0.000000 0.000000
# 3 -0.000643 -0.000759 0.009928 0.000000 0.000000 0.000000
# 4 0.000000 0.000000 0.000000 0.053369 0.000000 0.000000
# 5 0.000000 0.000000 0.000000 0.000000 0.052019 0.000000
# 6 0.000000 0.000000 0.000000 0.000000 0.000000 0.034054
#
#
# Mechanical properties :
#
#
# Convention : Reuss Voigt Hill
#
# Bulk Modulus (GPa) = 30.82397 31.70624 31.26511
# Shear Modulus (GPa) = 26.07217 29.17447 27.62332
#
# Velocity S-wave (km/s) = 3.70933 3.92382 3.81808
# Velocity P-wave (km/s) = 5.88323 6.10417 5.99472
#
# Compressibility (1/GPa) = 0.03244229
#
# Stress axis : x y z
#
# Youngs Moduli (GPa) = 67.15377 82.22751 100.72411
#
# Poissons Ratio (x) = 0.07136 0.06474
# Poissons Ratio (y) = 0.05828 0.07642
# Poissons Ratio (z) = 0.04316 0.06238
#
# Static dielectric constant tensor:
#      x y z
#    x 1.647010 0.000000 0.000000 
#    y 0.000000 1.706590 0.000000 
#    z 0.000000 0.000000 1.654600 
# 
# From -- ./inp_files/14145.got.cif
#   From: 2010.05.17/outbox.cif.g08.bks.cpg/sg42_8_cif.got.tgz:14145.got - 2010.06.03 19:03:34.
