data_PCOD9369762
_publ_section_title
;
Structure prediction by ZEFSAII (Michael W. Deem and Ramdas Pophale) SiO2 
 PCOD9369762
Probable space group: F M M 2
;
_chemical_formula_sum "Si O2"
_cell_formula_units_Z 96
_cell_length_a 20.155681
_cell_length_b 27.718847
_cell_length_c 8.975018
_cell_angle_alpha 90.000000
_cell_angle_beta 90.000000
_cell_angle_gamma 90.000000
_cell_volume 5014.272891
_symmetry_space_group_name_H-M "F M M 2"
_symmetry_group_IT_number 42
_symmetry_cell_setting 'orthorhombic'
loop_
_space_group_symop_operation_xyz
x,y,z
-x,-y,z
-x,y,z
x,-y,z
x,1/2+y,1/2+z
-x,1/2-y,1/2+z
-x,1/2+y,1/2+z
x,1/2-y,1/2+z
1/2+x,y,1/2+z
1/2-x,-y,1/2+z
1/2-x,y,1/2+z
1/2+x,-y,1/2+z
1/2+x,1/2+y,z
1/2-x,1/2-y,z
1/2-x,1/2+y,z
1/2+x,1/2-y,z
loop_
_atom_site_type_symbol
_atom_site_label
_atom_site_fract_x
_atom_site_fract_y
_atom_site_fract_z
Si Si1 0.685446 0.586276 0.208580
Si Si2 0.578228 0.381864 0.729079
Si Si3 0.314291 0.555463 0.879317
Si Si4 0.923328 0.945288 0.438771
Si Si5 0.189775 0.304969 0.629550
Si Si6 0.332728 0.709505 0.777488
O O1 0.753737 0.583211 0.300564
O O2 0.627767 0.563229 0.306717
O O3 0.667361 0.641139 0.167147
O O4 0.696195 0.558372 0.055233
O O5 0.500000 0.380567 0.759450
O O6 0.618328 0.416770 0.839861
O O7 0.588764 0.406305 0.567678
O O8 0.611164 0.329322 0.739548
O O9 0.315140 0.500000 0.829701
O O10 0.000000 0.940893 0.390313
O O11 0.914638 0.000000 0.497755
O O12 0.266399 0.302791 0.683176
O O13 0.183098 0.294081 0.453701
O O14 0.152234 0.263981 0.725058
#
# Coordination Sequence:
#
# PCOD9369762 Si02
#       6
#    16  16  16  16  16  16
#     4  12  23  41  64  98 129 164 211 270 321 375
#     4  11  24  43  64  91 130 170 215 264 316 380
#     4  12  24  39  64  95 129 168 213 266 318 375
#     4  10  23  42  64  90 126 174 217 258 317 383
#     4  11  22  39  68  94 126 157 206 263 316 382
#     4  11  23  41  65 100 121 164 207 258 323 380
#
# _framework density 19.145347999999998
#
# number of rings (size 3 to 8) (size 9 to 14) (size 15 to 20)
#    0.000    0.833    3.333    5.000    4.667    1.667 
#    0.000    1.667    0.000    0.000    0.000    0.000 
#    0.000    0.000    0.000    0.000    0.000    0.000 
#
# Total GULP energy -134152.126258 kJ/mol
# GULP energy per Si atom -5589.671927 kJ/mol
# Density = 1.910177 g / cm^3
# Si number density = 19.145348 Si / 1000 Ang^3
#
#
#
# Elastic Constant Matrix: (Units=GPa)
#
#
# Indices 1 2 3 4 5 6 
#
# 1 80.5932 39.2989 73.3542 0.0000 0.0001 0.0000
# 2 39.2989 144.9262 40.1326 0.0000 0.0000 0.0000
# 3 73.3542 40.1326 123.4866 0.0000 0.0004 0.0001
# 4 0.0000 0.0000 0.0000 33.2582 0.0000 0.0000
# 5 0.0001 0.0000 0.0004 0.0000 27.4575 0.0000
# 6 0.0000 0.0000 0.0001 0.0000 0.0000 28.8425
#
#
#
# Elastic Compliance Matrix: (Units=1/GPa)
#
#
# Indices 1 2 3 4 5 6 
#
# 1 0.028404 -0.003329 -0.015790 0.000000 0.000000 0.000000
# 2 -0.003329 0.007973 -0.000613 0.000000 0.000000 0.000000
# 3 -0.015790 -0.000613 0.017677 0.000000 0.000000 0.000000
# 4 0.000000 0.000000 0.000000 0.030068 0.000000 0.000000
# 5 0.000000 0.000000 0.000000 0.000000 0.036420 0.000000
# 6 0.000000 0.000000 0.000000 0.000000 0.000000 0.034671
#
#
# Mechanical properties :
#
#
# Convention : Reuss Voigt Hill
#
# Bulk Modulus (GPa) = 68.55299 72.73083 70.64191
# Shear Modulus (GPa) = 25.05750 30.99300 28.02525
#
# Velocity S-wave (km/s) = 3.62166 4.02783 3.83013
# Velocity P-wave (km/s) = 7.30568 7.72674 7.51916
#
# Compressibility (1/GPa) = 0.01458726
#
# Stress axis : x y z
#
# Youngs Moduli (GPa) = 35.20685 125.42758 56.56979
#
# Poissons Ratio (x) = 0.41760 0.89326
# Poissons Ratio (y) = 0.11722 0.03470
# Poissons Ratio (z) = 0.55593 0.07693
#
# Static dielectric constant tensor:
#      x y z
#    x 1.628500 0.000000 0.000000 
#    y 0.000000 1.705970 0.000000 
#    z 0.000000 0.000000 1.651110 
# 
# From -- ./inp_files/4158.got.cif
#   From: 2010.05.17/outbox.cif.g08.bks.cpg/sg42_3_cif.got.tgz:4158.got - 2010.06.03 19:03:34.
