data_PCOD9369919
_publ_section_title
;
Structure prediction by ZEFSAII (Michael W. Deem and Ramdas Pophale) SiO2 
 PCOD9369919
Probable space group: F M M 2
;
_chemical_formula_sum "Si O2"
_cell_formula_units_Z 96
_cell_length_a 7.301647
_cell_length_b 24.652391
_cell_length_c 20.387025
_cell_angle_alpha 90.000000
_cell_angle_beta 90.000000
_cell_angle_gamma 90.000000
_cell_volume 3669.726819
_symmetry_space_group_name_H-M "F M M 2"
_symmetry_group_IT_number 42
_symmetry_cell_setting 'orthorhombic'
loop_
_space_group_symop_operation_xyz
x,y,z
-x,-y,z
-x,y,z
x,-y,z
x,1/2+y,1/2+z
-x,1/2-y,1/2+z
-x,1/2+y,1/2+z
x,1/2-y,1/2+z
1/2+x,y,1/2+z
1/2-x,-y,1/2+z
1/2-x,y,1/2+z
1/2+x,-y,1/2+z
1/2+x,1/2+y,z
1/2-x,1/2-y,z
1/2-x,1/2+y,z
1/2+x,1/2-y,z
loop_
_atom_site_type_symbol
_atom_site_label
_atom_site_fract_x
_atom_site_fract_y
_atom_site_fract_z
Si Si1 0.277829 0.443502 0.152650
Si Si2 0.277492 0.560651 0.859902
Si Si3 0.778237 0.418792 0.504988
Si Si4 0.300937 0.312401 0.841887
Si Si5 0.784445 0.307424 0.551830
Si Si6 0.721825 0.828929 0.698071
O O1 0.500000 0.442196 0.151717
O O2 0.214432 0.500000 0.180372
O O3 0.220498 0.439749 0.076508
O O4 0.223415 0.391937 0.193644
O O5 0.500000 0.561387 0.852673
O O6 0.219469 0.500000 0.831935
O O7 0.217312 0.624661 0.844837
O O8 0.223123 0.556986 0.936595
O O9 0.717045 0.356323 0.508238
O O10 0.000000 0.423477 0.505275
O O11 0.500000 0.320682 0.872861
O O12 0.250000 0.250000 0.864365
O O13 0.304428 0.305161 0.763175
O O14 0.750000 0.250000 0.521298
O O15 0.714214 0.307799 0.626818
O O16 0.000000 0.316663 0.559217
O O17 0.500000 0.823775 0.702087
#
# Coordination Sequence:
#
# PCOD9369919 Si02
#       6
#    16  16  16  16  16  16
#     4   8  13  23  44  74 103 130 162 203 252 305
#     4   9  18  33  53  76 102 134 173 216 259 303
#     4   8  14  26  45  70  99 128 160 202 251 300
#     4  11  23  37  54  76 103 137 177 217 257 304
#     4   9  17  28  45  71  99 127 161 202 249 301
#     4   9  18  32  49  72 102 133 168 209 253 303
#
# _framework density 26.159986
#
# number of rings (size 3 to 8) (size 9 to 14) (size 15 to 20)
#    0.000    3.000    0.000    3.500    0.000    5.333 
#    0.000    0.000    0.000    2.500    0.000    0.000 
#    0.000    6.667    0.000    0.000    0.000    0.000 
#
# Total GULP energy -133645.128686 kJ/mol
# GULP energy per Si atom -5568.547029 kJ/mol
# Density = 2.610045 g / cm^3
# Si number density = 26.159986 Si / 1000 Ang^3
#
#
#
# Elastic Constant Matrix: (Units=GPa)
#
#
# Indices 1 2 3 4 5 6 
#
# 1 102.5060 2.2611 -5.1859 0.0000 0.0000 0.0000
# 2 2.2611 273.7292 29.8142 0.0000 0.0000 0.0000
# 3 -5.1859 29.8142 101.1768 0.0000 0.0000 0.0000
# 4 0.0000 0.0000 0.0000 -10.1067 0.0000 0.0000
# 5 0.0000 0.0000 0.0000 0.0000 -3.3934 0.0000
# 6 0.0000 0.0000 0.0000 0.0000 0.0000 1.2139
#
#
#
# Elastic Compliance Matrix: (Units=1/GPa)
#
#
# Indices 1 2 3 4 5 6 
#
# 1 0.009786 -0.000140 0.000543 0.000000 0.000000 0.000000
# 2 -0.000140 0.003776 -0.001120 0.000000 0.000000 0.000000
# 3 0.000543 -0.001120 0.010242 0.000000 0.000000 0.000000
# 4 0.000000 0.000000 0.000000 -0.098945 0.000000 0.000000
# 5 0.000000 0.000000 0.000000 0.000000 -0.294688 0.000000
# 6 0.000000 0.000000 0.000000 0.000000 0.000000 0.823779
#
#
# Mechanical properties :
#
#
# Convention : Reuss Voigt Hill
#
# Bulk Modulus (GPa) = 44.70314 59.02120 51.86217
# Shear Modulus (GPa) = 10.80285 27.57761 19.19023
#
# Velocity S-wave (km/s) = 2.03433 3.25035 2.71139
# Velocity P-wave (km/s) = 4.75851 6.05780 5.44704
#
# Compressibility (1/GPa) = 0.02236979
#
# Stress axis : x y z
#
# Youngs Moduli (GPa) = 102.18604 264.80328 97.64157
#
# Poissons Ratio (x) = 0.03706 -0.05300
# Poissons Ratio (y) = 0.01430 0.10936
# Poissons Ratio (z) = -0.05547 0.29657
#
# Static dielectric constant tensor:
#      x y z
#    x 2.105640 0.000000 0.000000 
#    y 0.000000 2.163710 0.000000 
#    z 0.000000 0.000000 1.975130 
# 
# From -- ./inp_files/28974.got.cif
#   From: 2010.05.17/outbox.cif.g08.bks.cpg/sg42_15_cif.got.tgz:28974.got - 2010.06.03 19:03:34.
