data_PCOD9369556
_publ_section_title
;
Structure prediction by ZEFSAII (Michael W. Deem and Ramdas Pophale) SiO2 
 PCOD9369556
Probable space group: F M M 2
;
_chemical_formula_sum "Si O2"
_cell_formula_units_Z 96
_cell_length_a 21.198304
_cell_length_b 16.585833
_cell_length_c 14.277319
_cell_angle_alpha 90.000000
_cell_angle_beta 90.000000
_cell_angle_gamma 90.000000
_cell_volume 5019.784432
_symmetry_space_group_name_H-M "F M M 2"
_symmetry_group_IT_number 42
_symmetry_cell_setting 'orthorhombic'
loop_
_space_group_symop_operation_xyz
x,y,z
-x,-y,z
-x,y,z
x,-y,z
x,1/2+y,1/2+z
-x,1/2-y,1/2+z
-x,1/2+y,1/2+z
x,1/2-y,1/2+z
1/2+x,y,1/2+z
1/2-x,-y,1/2+z
1/2-x,y,1/2+z
1/2+x,-y,1/2+z
1/2+x,1/2+y,z
1/2-x,1/2-y,z
1/2-x,1/2+y,z
1/2+x,1/2-y,z
loop_
_atom_site_type_symbol
_atom_site_label
_atom_site_fract_x
_atom_site_fract_y
_atom_site_fract_z
Si Si1 0.620177 0.589960 0.860850
Si Si2 0.750000 0.750000 0.601842
Si Si3 0.618563 0.809626 0.544519
Si Si4 0.742608 0.594529 0.735661
Si Si5 0.500000 0.303962 0.550402
Si Si6 0.114935 0.906591 0.234629
Si Si7 0.500000 0.632371 0.745297
Si Si8 0.000000 0.814032 0.328176
O O1 0.622495 0.500000 0.901277
O O2 0.686733 0.605274 0.810106
O O3 0.563564 0.594545 0.786662
O O4 0.606921 0.651076 0.944278
O O5 0.686656 0.767647 0.544959
O O6 0.737228 0.668799 0.662906
O O7 0.562589 0.748583 0.567203
O O8 0.618777 0.875047 0.627875
O O9 0.737839 0.500000 0.700591
O O10 0.813990 0.602116 0.774458
O O11 0.500000 0.369421 0.632840
O O12 0.500000 0.323367 0.440381
O O13 0.062779 0.855943 0.288545
O O14 0.097366 0.000000 0.236381
O O15 0.500000 0.723628 0.786824
#
# Coordination Sequence:
#
# PCOD9369556 Si02
#       8
#    16   8  16  16   8  16   8   8
#     4  11  23  40  62  89 124 168 210 259 316 375
#     4  10  22  36  64  92 124 170 206 260 334 372
#     4  11  21  37  61  94 121 159 212 259 308 381
#     4   9  21  39  61  90 126 167 213 258 312 384
#     4  12  24  38  58  92 122 152 208 254 304 372
#     4  10  21  40  63  89 123 161 204 263 317 364
#     4  12  23  42  61  88 125 161 203 261 308 380
#     4  12  23  38  63  90 121 159 203 255 314 384
#
# _framework density 19.124327000000001
#
# number of rings (size 3 to 8) (size 9 to 14) (size 15 to 20)
#    0.000    1.333    3.333    2.000    2.333    2.667 
#    0.000    4.167    0.000   10.000    0.000    0.000 
#    0.000    0.000    0.000    0.000    0.000    0.000 
#
# Total GULP energy -133954.113592 kJ/mol
# GULP energy per Si atom -5581.421400 kJ/mol
# Density = 1.908080 g / cm^3
# Si number density = 19.124327 Si / 1000 Ang^3
#
#
#
# Elastic Constant Matrix: (Units=GPa)
#
#
# Indices 1 2 3 4 5 6 
#
# 1 103.2965 16.0119 18.2020 0.0000 0.0000 0.0000
# 2 16.0119 57.5598 11.2285 0.0000 0.0000 0.0000
# 3 18.2020 11.2285 70.1545 0.0000 0.0000 0.0000
# 4 0.0000 0.0000 0.0000 15.9627 0.0000 0.0000
# 5 0.0000 0.0000 0.0000 0.0000 39.7935 0.0000
# 6 0.0000 0.0000 0.0000 0.0000 0.0000 27.5688
#
#
#
# Elastic Compliance Matrix: (Units=1/GPa)
#
#
# Indices 1 2 3 4 5 6 
#
# 1 0.010472 -0.002460 -0.002323 0.000000 0.000000 0.000000
# 2 -0.002460 0.018511 -0.002325 0.000000 0.000000 0.000000
# 3 -0.002323 -0.002325 0.015229 0.000000 0.000000 0.000000
# 4 0.000000 0.000000 0.000000 0.062646 0.000000 0.000000
# 5 0.000000 0.000000 0.000000 0.000000 0.025130 0.000000
# 6 0.000000 0.000000 0.000000 0.000000 0.000000 0.036273
#
#
# Mechanical properties :
#
#
# Convention : Reuss Voigt Hill
#
# Bulk Modulus (GPa) = 33.33720 35.76619 34.55169
# Shear Modulus (GPa) = 25.97753 29.03623 27.50688
#
# Velocity S-wave (km/s) = 3.68958 3.90075 3.79663
# Velocity P-wave (km/s) = 5.96828 6.24742 6.10944
#
# Compressibility (1/GPa) = 0.02999652
#
# Stress axis : x y z
#
# Youngs Moduli (GPa) = 95.49699 54.02214 65.66390
#
# Poissons Ratio (x) = 0.13288 0.15255
# Poissons Ratio (y) = 0.23490 0.15264
# Poissons Ratio (z) = 0.22186 0.12558
#
# Static dielectric constant tensor:
#      x y z
#    x 1.644560 0.000000 0.000000 
#    y 0.000000 1.665140 0.000000 
#    z 0.000000 0.000000 1.641520 
# 
# From -- ./inp_files/15874.got.cif
#   From: 2010.05.17/outbox.cif.g08.bks.cpg/sg42_8_cif.got.tgz:15874.got - 2010.06.03 19:03:34.
