data_PCOD9369765
_publ_section_title
;
Structure prediction by ZEFSAII (Michael W. Deem and Ramdas Pophale) SiO2 
 PCOD9369765
Probable space group: F M M 2
;
_chemical_formula_sum "Si O2"
_cell_formula_units_Z 96
_cell_length_a 23.152866
_cell_length_b 22.898506
_cell_length_c 9.163981
_cell_angle_alpha 90.000000
_cell_angle_beta 90.000000
_cell_angle_gamma 90.000000
_cell_volume 4858.431527
_symmetry_space_group_name_H-M "F M M 2"
_symmetry_group_IT_number 42
_symmetry_cell_setting 'orthorhombic'
loop_
_space_group_symop_operation_xyz
x,y,z
-x,-y,z
-x,y,z
x,-y,z
x,1/2+y,1/2+z
-x,1/2-y,1/2+z
-x,1/2+y,1/2+z
x,1/2-y,1/2+z
1/2+x,y,1/2+z
1/2-x,-y,1/2+z
1/2-x,y,1/2+z
1/2+x,-y,1/2+z
1/2+x,1/2+y,z
1/2-x,1/2-y,z
1/2-x,1/2+y,z
1/2+x,1/2-y,z
loop_
_atom_site_type_symbol
_atom_site_label
_atom_site_fract_x
_atom_site_fract_y
_atom_site_fract_z
Si Si1 0.843804 0.252178 0.651640
Si Si2 0.347388 0.357278 0.473522
Si Si3 0.069176 0.149464 0.230378
Si Si4 0.780035 0.176275 0.899404
Si Si5 0.168104 0.432746 0.252031
Si Si6 0.432604 0.934868 0.460237
O O1 0.870897 0.199738 0.556851
O O2 0.896458 0.289676 0.714925
O O3 0.806222 0.216895 0.771333
O O4 0.804736 0.294748 0.548438
O O5 0.395383 0.380046 0.362397
O O6 0.288870 0.331471 0.401560
O O7 0.328647 0.405154 0.591996
O O8 0.080052 0.113263 0.082162
O O9 0.000000 0.153931 0.252286
O O10 0.800331 0.110701 0.864082
O O11 0.187265 0.500000 0.256677
O O12 0.103000 0.428974 0.312408
O O13 0.500000 0.931604 0.428958
O O14 0.419403 0.000000 0.519518
#
# Coordination Sequence:
#
# PCOD9369765 Si02
#       6
#    16  16  16  16  16  16
#     4  11  23  40  62  93 124 165 211 260 311 382
#     4  11  26  39  63  93 127 172 212 260 320 388
#     4  11  24  41  61  93 131 167 213 270 327 373
#     4  11  24  40  67  93 127 167 216 259 317 391
#     4  10  23  42  64  96 130 164 212 270 328 377
#     4   9  19  39  66  91 122 170 218 260 317 390
#
# _framework density 19.759464999999999
#
# number of rings (size 3 to 8) (size 9 to 14) (size 15 to 20)
#    0.000    1.500    3.333    0.500    7.000    2.667 
#    0.000    4.167    0.000    0.000    0.000    0.000 
#    0.000    0.000    0.000    0.000    0.000    0.000 
#
# Total GULP energy -133881.673098 kJ/mol
# GULP energy per Si atom -5578.403046 kJ/mol
# Density = 1.971449 g / cm^3
# Si number density = 19.759465 Si / 1000 Ang^3
#
#
#
# Elastic Constant Matrix: (Units=GPa)
#
#
# Indices 1 2 3 4 5 6 
#
# 1 85.1367 25.6940 34.5219 0.0000 0.0000 0.0000
# 2 25.6940 117.7415 25.8219 -0.0001 0.0001 0.0000
# 3 34.5219 25.8219 77.7364 -0.0003 0.0001 0.0001
# 4 0.0000 -0.0001 -0.0003 28.2725 0.0001 0.0001
# 5 0.0000 0.0001 0.0001 0.0001 26.8818 0.0000
# 6 0.0000 0.0000 0.0001 0.0001 0.0000 25.8033
#
#
#
# Elastic Compliance Matrix: (Units=1/GPa)
#
#
# Indices 1 2 3 4 5 6 
#
# 1 0.014716 -0.001918 -0.005898 0.000000 0.000000 0.000000
# 2 -0.001918 0.009410 -0.002274 0.000000 0.000000 0.000000
# 3 -0.005898 -0.002274 0.016239 0.000000 0.000000 0.000000
# 4 0.000000 0.000000 0.000000 0.035370 0.000000 0.000000
# 5 0.000000 0.000000 0.000000 0.000000 0.037200 0.000000
# 6 0.000000 0.000000 0.000000 0.000000 0.000000 0.038755
#
#
# Mechanical properties :
#
#
# Convention : Reuss Voigt Hill
#
# Bulk Modulus (GPa) = 49.54216 50.29890 49.92053
# Shear Modulus (GPa) = 27.99564 29.16330 28.57947
#
# Velocity S-wave (km/s) = 3.76815 3.84593 3.80724
# Velocity P-wave (km/s) = 6.63770 6.72551 6.68175
#
# Compressibility (1/GPa) = 0.02018483
#
# Stress axis : x y z
#
# Youngs Moduli (GPa) = 67.95185 106.26472 61.58108
#
# Poissons Ratio (x) = 0.20380 0.36322
# Poissons Ratio (y) = 0.13032 0.14005
# Poissons Ratio (z) = 0.40080 0.24166
#
# Static dielectric constant tensor:
#      x y z
#    x 1.696550 0.000000 0.000000 
#    y 0.000000 1.737840 0.000000 
#    z 0.000000 0.000000 1.740970 
# 
# From -- ./inp_files/4732.got.cif
#   From: 2010.05.17/outbox.cif.g08.bks.cpg/sg42_3_cif.got.tgz:4732.got - 2010.06.03 19:03:34.
