data_PCOD9369062
_publ_section_title
;
Structure prediction by ZEFSAII (Michael W. Deem and Ramdas Pophale) SiO2 
 PCOD9369062
Probable space group: F M M 2
;
_chemical_formula_sum "Si O2"
_cell_formula_units_Z 112
_cell_length_a 17.948135
_cell_length_b 13.655283
_cell_length_c 23.167321
_cell_angle_alpha 90.000000
_cell_angle_beta 90.000000
_cell_angle_gamma 90.000000
_cell_volume 5678.006022
_symmetry_space_group_name_H-M "F M M 2"
_symmetry_group_IT_number 42
_symmetry_cell_setting 'orthorhombic'
loop_
_space_group_symop_operation_xyz
x,y,z
-x,-y,z
-x,y,z
x,-y,z
x,1/2+y,1/2+z
-x,1/2-y,1/2+z
-x,1/2+y,1/2+z
x,1/2-y,1/2+z
1/2+x,y,1/2+z
1/2-x,-y,1/2+z
1/2-x,y,1/2+z
1/2+x,-y,1/2+z
1/2+x,1/2+y,z
1/2-x,1/2-y,z
1/2-x,1/2+y,z
1/2+x,1/2-y,z
loop_
_atom_site_type_symbol
_atom_site_label
_atom_site_fract_x
_atom_site_fract_y
_atom_site_fract_z
Si Si1 0.300174 0.616243 0.004360
Si Si2 0.414088 0.618342 0.102571
Si Si3 0.379992 0.384497 0.791222
Si Si4 0.705385 0.387112 0.308314
Si Si5 0.156607 0.616089 0.938716
Si Si6 0.083254 0.789610 0.227927
Si Si7 0.581170 0.690060 0.916952
O O1 0.293254 0.500000 0.012104
O O2 0.349806 0.651773 0.058246
O O3 0.216136 0.647638 0.987920
O O4 0.352195 0.635588 0.949147
O O5 0.500000 0.638262 0.083264
O O6 0.408704 0.500000 0.109602
O O7 0.403556 0.670933 0.163876
O O8 0.396247 0.500000 0.792653
O O9 0.290725 0.370955 0.791675
O O10 0.412263 0.327136 0.736479
O O11 0.411007 0.333395 0.849236
O O12 0.687787 0.500000 0.297552
O O13 0.696998 0.371155 0.376684
O O14 0.646072 0.328802 0.270938
O O15 0.137874 0.500000 0.944838
O O16 0.091380 0.695517 0.933333
O O17 0.000000 0.822695 0.245103
O O18 0.500000 0.655086 0.936098
#
# Coordination Sequence:
#
# PCOD9369062 Si02
#       7
#    16  16  16  16  16  16  16
#     4  10  20  37  62  88 115 151 195 246 298 348
#     4   9  19  37  60  89 124 157 197 251 302 349
#     4  11  23  38  55  82 121 163 204 245 293 355
#     4  10  20  36  57  79 113 156 196 242 291 347
#     4  10  21  37  57  83 117 156 196 241 291 349
#     4  11  22  36  59  90 122 156 196 246 302 356
#     4  12  23  35  56  86 120 157 195 243 299 355
#
# _framework density 19.725234
#
# number of rings (size 3 to 8) (size 9 to 14) (size 15 to 20)
#    0.000    1.571    2.857    2.571    0.000    3.714 
#    0.000    4.286    0.000    2.571    0.000    2.000 
#    0.000    0.000    0.000    0.000    0.000    0.000 
#
# Total GULP energy -156223.422423 kJ/mol
# GULP energy per Si atom -5579.407944 kJ/mol
# Density = 1.968034 g / cm^3
# Si number density = 19.725234 Si / 1000 Ang^3
#
#
#
# Elastic Constant Matrix: (Units=GPa)
#
#
# Indices 1 2 3 4 5 6 
#
# 1 71.6680 35.2718 25.5527 0.0000 0.0000 0.0000
# 2 35.2718 50.0576 36.2876 0.0000 0.0000 0.0000
# 3 25.5527 36.2876 78.7449 0.0000 0.0000 0.0000
# 4 0.0000 0.0000 0.0000 28.0861 0.0000 0.0000
# 5 0.0000 0.0000 0.0000 0.0000 23.3092 0.0000
# 6 0.0000 0.0000 0.0000 0.0000 0.0000 18.9329
#
#
#
# Elastic Compliance Matrix: (Units=1/GPa)
#
#
# Indices 1 2 3 4 5 6 
#
# 1 0.021361 -0.015056 0.000007 0.000000 0.000000 0.000000
# 2 -0.015056 0.040611 -0.013829 0.000000 0.000000 0.000000
# 3 0.000007 -0.013829 0.019070 0.000000 0.000000 0.000000
# 4 0.000000 0.000000 0.000000 0.035605 0.000000 0.000000
# 5 0.000000 0.000000 0.000000 0.000000 0.042901 0.000000
# 6 0.000000 0.000000 0.000000 0.000000 0.000000 0.052818
#
#
# Mechanical properties :
#
#
# Convention : Reuss Voigt Hill
#
# Bulk Modulus (GPa) = 42.94656 43.85497 43.40077
# Shear Modulus (GPa) = 17.99317 20.95620 19.47469
#
# Velocity S-wave (km/s) = 3.02353 3.26299 3.14554
# Velocity P-wave (km/s) = 5.83169 6.03965 5.93658
#
# Compressibility (1/GPa) = 0.02328475
#
# Stress axis : x y z
#
# Youngs Moduli (GPa) = 46.81466 24.62417 52.43946
#
# Poissons Ratio (x) = 0.37075 -0.00035
# Poissons Ratio (y) = 0.70485 0.72516
# Poissons Ratio (z) = -0.00031 0.34052
#
# Static dielectric constant tensor:
#      x y z
#    x 2.288670 0.000000 0.000000 
#    y 0.000000 1.741810 0.000000 
#    z 0.000000 0.000000 1.668680 
# 
# From -- ./inp_files/29497.got.cif
#   From: 2010.05.17/outbox.cif.g08.bks.cpg/sg42_15_cif.got.tgz:29497.got - 2010.06.03 19:03:34.
