data_PCOD9369092
_publ_section_title
;
Structure prediction by ZEFSAII (Michael W. Deem and Ramdas Pophale) SiO2 
 PCOD9369092
Probable space group: F M M 2
;
_chemical_formula_sum "Si O2"
_cell_formula_units_Z 72
_cell_length_a 10.060067
_cell_length_b 15.004621
_cell_length_c 27.475881
_cell_angle_alpha 90.000000
_cell_angle_beta 90.000000
_cell_angle_gamma 90.000000
_cell_volume 4147.415343
_symmetry_space_group_name_H-M "F M M 2"
_symmetry_group_IT_number 42
_symmetry_cell_setting 'orthorhombic'
loop_
_space_group_symop_operation_xyz
x,y,z
-x,-y,z
-x,y,z
x,-y,z
x,1/2+y,1/2+z
-x,1/2-y,1/2+z
-x,1/2+y,1/2+z
x,1/2-y,1/2+z
1/2+x,y,1/2+z
1/2-x,-y,1/2+z
1/2-x,y,1/2+z
1/2+x,-y,1/2+z
1/2+x,1/2+y,z
1/2-x,1/2-y,z
1/2-x,1/2+y,z
1/2+x,1/2-y,z
loop_
_atom_site_type_symbol
_atom_site_label
_atom_site_fract_x
_atom_site_fract_y
_atom_site_fract_z
Si Si1 0.000000 0.100336 0.732528
Si Si2 0.500000 0.394550 0.101988
Si Si3 0.147154 0.000000 0.356034
Si Si4 0.149350 0.330629 0.512687
Si Si5 0.773642 0.651568 0.782405
Si Si6 0.841062 0.000000 0.946379
Si Si7 0.000000 0.200411 0.205148
O O1 0.866151 0.111299 0.764325
O O2 0.000000 0.191620 0.700893
O O3 0.000000 0.000000 0.710801
O O4 0.500000 0.500000 0.109390
O O5 0.624125 0.366957 0.067527
O O6 0.500000 0.344139 0.152712
O O7 0.163782 0.914752 0.321114
O O8 0.258777 0.000000 0.397104
O O9 0.000000 0.000000 0.378012
O O10 0.250000 0.250000 0.511037
O O11 0.189052 0.412671 0.478497
O O12 0.000000 0.301592 0.497181
O O13 0.750000 0.750000 0.803840
O O14 0.872541 0.668816 0.736802
O O15 0.000000 0.000000 0.937418
#
# Coordination Sequence:
#
# PCOD9369092 Si02
#       7
#     8   8   8  16  16   8   8
#     4  10  20  36  58  84 119 170 194 240 293 346
#     4  10  20  38  68  89 112 167 206 233 296 375
#     4  12  24  38  60  90 120 157 213 248 294 358
#     4   9  19  40  64  89 121 147 196 255 300 358
#     4  10  22  39  56  86 128 161 199 245 290 350
#     4  10  22  42  62  88 114 161 201 244 314 372
#     4  10  22  38  62  85 125 165 202 241 289 353
#
# _framework density 17.360209999999999
#
# number of rings (size 3 to 8) (size 9 to 14) (size 15 to 20)
#    0.667    1.333    3.333    0.000    3.111    4.444 
#    0.000    2.222    2.444    0.000    0.000    0.000 
#    0.000    0.000    0.000    0.000    0.000    0.000 
#
# Total GULP energy -100293.876687 kJ/mol
# GULP energy per Si atom -5571.882038 kJ/mol
# Density = 1.732070 g / cm^3
# Si number density = 17.360210 Si / 1000 Ang^3
#
#
#
# Elastic Constant Matrix: (Units=GPa)
#
#
# Indices 1 2 3 4 5 6 
#
# 1 75.1803 57.3445 28.6606 0.0000 0.0000 0.0000
# 2 57.3445 174.2622 75.0700 0.0000 0.0000 0.0000
# 3 28.6606 75.0700 100.5022 0.0000 0.0000 0.0000
# 4 0.0000 0.0000 0.0000 -10.1857 0.0000 0.0000
# 5 0.0000 0.0000 0.0000 0.0000 9.8981 0.0000
# 6 0.0000 0.0000 0.0000 0.0000 0.0000 23.3795
#
#
#
# Elastic Compliance Matrix: (Units=1/GPa)
#
#
# Indices 1 2 3 4 5 6 
#
# 1 0.017832 -0.005422 -0.001035 0.000000 0.000000 0.000000
# 2 -0.005422 0.010110 -0.006005 0.000000 0.000000 0.000000
# 3 -0.001035 -0.006005 0.014731 0.000000 0.000000 0.000000
# 4 0.000000 0.000000 0.000000 -0.098177 0.000000 0.000000
# 5 0.000000 0.000000 0.000000 0.000000 0.101030 0.000000
# 6 0.000000 0.000000 0.000000 0.000000 0.000000 0.042773
#
#
# Mechanical properties :
#
#
# Convention : Reuss Voigt Hill
#
# Bulk Modulus (GPa) = 56.34618 74.67721 65.51169
# Shear Modulus (GPa) = 41.96803 17.20967 29.58885
#
# Velocity S-wave (km/s) = 4.92213 3.15195 4.13292
# Velocity P-wave (km/s) = 8.05175 7.50707 7.78417
#
# Compressibility (1/GPa) = 0.01774743
#
# Stress axis : x y z
#
# Youngs Moduli (GPa) = 56.08018 98.91568 67.88487
#
# Poissons Ratio (x) = 0.53631 0.07028
# Poissons Ratio (y) = 0.30406 0.40766
# Poissons Ratio (z) = 0.05806 0.59401
#
# Static dielectric constant tensor:
#      x y z
#    x 1.600700 0.000000 0.000000 
#    y 0.000000 1.583930 0.000000 
#    z 0.000000 0.000000 1.552700 
# 
# From -- ./inp_files/33566.got.cif
#   From: 2010.05.17/outbox.cif.g08.bks.cpg/sg42_17_cif.got.tgz:33566.got - 2010.06.03 19:03:34.
