data_PCOD9369802
_publ_section_title
;
Structure prediction by ZEFSAII (Michael W. Deem and Ramdas Pophale) SiO2 
 PCOD9369802
Probable space group: F M M 2
;
_chemical_formula_sum "Si O2"
_cell_formula_units_Z 68
_cell_length_a 7.813855
_cell_length_b 19.673727
_cell_length_c 20.549042
_cell_angle_alpha 90.000000
_cell_angle_beta 90.000000
_cell_angle_gamma 90.000000
_cell_volume 3158.955938
_symmetry_space_group_name_H-M "F M M 2"
_symmetry_group_IT_number 42
_symmetry_cell_setting 'orthorhombic'
loop_
_space_group_symop_operation_xyz
x,y,z
-x,-y,z
-x,y,z
x,-y,z
x,1/2+y,1/2+z
-x,1/2-y,1/2+z
-x,1/2+y,1/2+z
x,1/2-y,1/2+z
1/2+x,y,1/2+z
1/2-x,-y,1/2+z
1/2-x,y,1/2+z
1/2+x,-y,1/2+z
1/2+x,1/2+y,z
1/2-x,1/2-y,z
1/2-x,1/2+y,z
1/2+x,1/2-y,z
loop_
_atom_site_type_symbol
_atom_site_label
_atom_site_fract_x
_atom_site_fract_y
_atom_site_fract_z
Si Si1 0.699606 0.175692 0.174800
Si Si2 0.795028 0.673525 0.439519
Si Si3 0.809390 0.888391 0.305131
Si Si4 0.500000 0.000000 0.301543
Si Si5 0.292865 0.577880 0.057588
O O1 0.500000 0.175932 0.189514
O O2 0.750000 0.250000 0.149301
O O3 0.796383 0.158193 0.241094
O O4 0.736413 0.118299 0.121381
O O5 0.750000 0.750000 0.459502
O O6 0.713920 0.655473 0.370400
O O7 0.737021 0.619633 0.494012
O O8 0.000000 0.667722 0.433587
O O9 0.000000 0.919270 0.306045
O O10 0.652650 0.941231 0.302307
O O11 0.500000 0.576885 0.057128
O O12 0.232703 0.500000 0.057266
#
# Coordination Sequence:
#
# PCOD9369802 Si02
#       5
#    16  16  16   4  16
#     4  12  25  45  69 100 139 182 236 292 347 420
#     4  11  23  43  70 101 141 183 235 292 347 418
#     4  12  26  45  74 105 142 183 231 288 349 415
#     4  12  26  48  68 110 144 184 228 286 360 410
#     4  10  24  43  68  99 139 184 231 289 353 416
#
# _framework density 21.526098999999999
#
# number of rings (size 3 to 8) (size 9 to 14) (size 15 to 20)
#    0.000    0.706    2.353    4.588    3.294    4.235 
#    0.000    0.000    0.000    0.000    0.000    0.000 
#    0.000    0.000    0.000    0.000    0.000    0.000 
#
# Total GULP energy -94876.503515 kJ/mol
# GULP energy per Si atom -5580.970795 kJ/mol
# Density = 2.147710 g / cm^3
# Si number density = 21.526099 Si / 1000 Ang^3
#
#
#
# Elastic Constant Matrix: (Units=GPa)
#
#
# Indices 1 2 3 4 5 6 
#
# 1 141.5793 38.4357 21.4098 0.0000 0.0000 0.0000
# 2 38.4357 183.2536 63.2509 0.0000 0.0000 0.0000
# 3 21.4098 63.2509 141.1841 0.0000 0.0000 0.0000
# 4 0.0000 0.0000 0.0000 -45.3712 0.0000 0.0000
# 5 0.0000 0.0000 0.0000 0.0000 25.5115 0.0000
# 6 0.0000 0.0000 0.0000 0.0000 0.0000 18.9115
#
#
#
# Elastic Compliance Matrix: (Units=1/GPa)
#
#
# Indices 1 2 3 4 5 6 
#
# 1 0.007521 -0.001400 -0.000513 0.000000 0.000000 0.000000
# 2 -0.001400 0.006716 -0.002796 0.000000 0.000000 0.000000
# 3 -0.000513 -0.002796 0.008414 0.000000 0.000000 0.000000
# 4 0.000000 0.000000 0.000000 -0.022040 0.000000 0.000000
# 5 0.000000 0.000000 0.000000 0.000000 0.039198 0.000000
# 6 0.000000 0.000000 0.000000 0.000000 0.000000 0.052878
#
#
# Mechanical properties :
#
#
# Convention : Reuss Voigt Hill
#
# Bulk Modulus (GPa) = 75.58228 79.13442 77.35835
# Shear Modulus (GPa) = 46.94152 22.67174 34.80663
#
# Velocity S-wave (km/s) = 4.67484 3.24886 4.02549
# Velocity P-wave (km/s) = 8.02041 7.13550 7.59086
#
# Compressibility (1/GPa) = 0.01323061
#
# Stress axis : x y z
#
# Youngs Moduli (GPa) = 132.96212 148.90268 118.85602
#
# Poissons Ratio (x) = 0.20851 0.06099
# Poissons Ratio (y) = 0.18619 0.33236
# Poissons Ratio (z) = 0.06823 0.41638
#
# Static dielectric constant tensor:
#      x y z
#    x 1.773190 0.000000 0.000000 
#    y 0.000000 1.757180 0.000000 
#    z 0.000000 0.000000 1.745360 
# 
# From -- ./inp_files/23230.got.cif
#   From: 2010.05.17/outbox.cif.g08.bks.cpg/sg42_12_cif.got.tgz:23230.got - 2010.06.03 19:03:34.
