data_PCOD9369697
_publ_section_title
;
Structure prediction by ZEFSAII (Michael W. Deem and Ramdas Pophale) SiO2 
 PCOD9369697
Probable space group: F M M 2
;
_chemical_formula_sum "Si O2"
_cell_formula_units_Z 88
_cell_length_a 16.606741
_cell_length_b 22.806553
_cell_length_c 10.940407
_cell_angle_alpha 90.000000
_cell_angle_beta 90.000000
_cell_angle_gamma 90.000000
_cell_volume 4143.597304
_symmetry_space_group_name_H-M "F M M 2"
_symmetry_group_IT_number 42
_symmetry_cell_setting 'orthorhombic'
loop_
_space_group_symop_operation_xyz
x,y,z
-x,-y,z
-x,y,z
x,-y,z
x,1/2+y,1/2+z
-x,1/2-y,1/2+z
-x,1/2+y,1/2+z
x,1/2-y,1/2+z
1/2+x,y,1/2+z
1/2-x,-y,1/2+z
1/2-x,y,1/2+z
1/2+x,-y,1/2+z
1/2+x,1/2+y,z
1/2-x,1/2-y,z
1/2-x,1/2+y,z
1/2+x,1/2-y,z
loop_
_atom_site_type_symbol
_atom_site_label
_atom_site_fract_x
_atom_site_fract_y
_atom_site_fract_z
Si Si1 0.090985 0.286013 0.782970
Si Si2 0.906859 0.088423 0.400006
Si Si3 0.286153 0.000000 0.761504
Si Si4 0.783429 0.191099 0.070188
Si Si5 0.088940 0.656047 0.392099
Si Si6 0.660112 0.902494 0.163441
O O1 0.103584 0.342349 0.869373
O O2 0.156731 0.288324 0.677193
O O3 0.092908 0.224240 0.852463
O O4 0.000000 0.291121 0.730818
O O5 0.846664 0.051037 0.317621
O O6 0.886078 0.078023 0.541695
O O7 0.000000 0.074045 0.375142
O O8 0.224283 0.050468 0.708857
O O9 0.750000 0.250000 0.006944
O O10 0.710492 0.155019 0.125864
O O11 0.836360 0.149310 0.983396
O O12 0.102330 0.615891 0.274126
O O13 0.000000 0.644694 0.444952
#
# Coordination Sequence:
#
# PCOD9369697 Si02
#       6
#    16  16   8  16  16  16
#     4  10  22  41  66  99 137 178 219 265 332 407
#     4  11  24  46  71  98 133 180 225 272 333 403
#     4  12  25  44  67  98 128 168 228 288 325 380
#     4  12  23  38  67  99 141 176 214 268 337 397
#     4  11  25  43  65  99 137 175 215 269 336 406
#     4  12  25  42  70  98 132 171 226 281 334 387
#
# _framework density 21.237584999999999
#
# number of rings (size 3 to 8) (size 9 to 14) (size 15 to 20)
#    0.000    0.727    3.636    4.091    2.545    0.000 
#    0.000    1.364    0.000    0.000    0.000    0.000 
#    0.000    0.000    0.000    0.000    0.000    0.000 
#
# Total GULP energy -122534.981655 kJ/mol
# GULP energy per Si atom -5569.771893 kJ/mol
# Density = 2.118925 g / cm^3
# Si number density = 21.237585 Si / 1000 Ang^3
#
#
#
# Elastic Constant Matrix: (Units=GPa)
#
#
# Indices 1 2 3 4 5 6 
#
# 1 74.5745 12.7560 29.4083 0.0000 0.0000 0.0000
# 2 12.7560 93.4459 2.5596 0.0000 0.0000 0.0000
# 3 29.4083 2.5596 43.2044 0.0000 0.0000 0.0000
# 4 0.0000 0.0000 0.0000 4.2362 0.0000 0.0000
# 5 0.0000 0.0000 0.0000 0.0000 20.9676 0.0000
# 6 0.0000 0.0000 0.0000 0.0000 0.0000 4.2098
#
#
#
# Elastic Compliance Matrix: (Units=1/GPa)
#
#
# Indices 1 2 3 4 5 6 
#
# 1 0.018777 -0.002217 -0.012650 0.000000 0.000000 0.000000
# 2 -0.002217 0.010980 0.000858 0.000000 0.000000 0.000000
# 3 -0.012650 0.000858 0.031705 0.000000 0.000000 0.000000
# 4 0.000000 0.000000 0.000000 0.236058 0.000000 0.000000
# 5 0.000000 0.000000 0.000000 0.000000 0.047693 0.000000
# 6 0.000000 0.000000 0.000000 0.000000 0.000000 0.237542
#
#
# Mechanical properties :
#
#
# Convention : Reuss Voigt Hill
#
# Bulk Modulus (GPa) = 29.89846 33.40808 31.65327
# Shear Modulus (GPa) = 8.03960 16.98277 12.51119
#
# Velocity S-wave (km/s) = 1.94776 2.83089 2.42978
# Velocity P-wave (km/s) = 4.37801 5.14296 4.77583
#
# Compressibility (1/GPa) = 0.03344653
#
# Stress axis : x y z
#
# Youngs Moduli (GPa) = 53.25669 91.07079 31.54044
#
# Poissons Ratio (x) = 0.20188 0.39898
# Poissons Ratio (y) = 0.11805 -0.02707
# Poissons Ratio (z) = 0.67368 -0.07817
#
# Static dielectric constant tensor:
#      x y z
#    x 1.817120 0.000000 0.000000 
#    y 0.000000 1.746350 0.000000 
#    z 0.000000 0.000000 1.767650 
# 
# From -- ./inp_files/7841.got.cif
#   From: 2010.05.17/outbox.cif.g08.bks.cpg/sg42_4_cif.got.tgz:7841.got - 2010.06.03 19:03:34.
