data_PCOD9369528
_publ_section_title
;
Structure prediction by ZEFSAII (Michael W. Deem and Ramdas Pophale) SiO2 
 PCOD9369528
Probable space group: F M M 2
;
_chemical_formula_sum "Si O2"
_cell_formula_units_Z 112
_cell_length_a 14.221199
_cell_length_b 31.960469
_cell_length_c 12.403128
_cell_angle_alpha 90.000000
_cell_angle_beta 90.000000
_cell_angle_gamma 90.000000
_cell_volume 5637.422480
_symmetry_space_group_name_H-M "F M M 2"
_symmetry_group_IT_number 42
_symmetry_cell_setting 'orthorhombic'
loop_
_space_group_symop_operation_xyz
x,y,z
-x,-y,z
-x,y,z
x,-y,z
x,1/2+y,1/2+z
-x,1/2-y,1/2+z
-x,1/2+y,1/2+z
x,1/2-y,1/2+z
1/2+x,y,1/2+z
1/2-x,-y,1/2+z
1/2-x,y,1/2+z
1/2+x,-y,1/2+z
1/2+x,1/2+y,z
1/2-x,1/2-y,z
1/2-x,1/2+y,z
1/2+x,1/2-y,z
loop_
_atom_site_type_symbol
_atom_site_label
_atom_site_fract_x
_atom_site_fract_y
_atom_site_fract_z
Si Si1 0.638380 0.253481 0.619320
Si Si2 0.894158 0.305478 0.334576
Si Si3 0.752465 0.113405 0.063082
Si Si4 0.811333 0.307330 0.930914
Si Si5 0.109056 0.048822 0.662760
Si Si6 0.605080 0.835474 0.703987
Si Si7 0.394468 0.097763 0.377363
O O1 0.750000 0.250000 0.633194
O O2 0.606219 0.281696 0.720111
O O3 0.627929 0.275911 0.504500
O O4 0.603091 0.206221 0.629963
O O5 0.796305 0.294218 0.396899
O O6 0.885325 0.355965 0.323429
O O7 0.000000 0.298404 0.381539
O O8 0.679328 0.079122 0.101116
O O9 0.818228 0.132734 0.156870
O O10 0.701300 0.152516 0.007079
O O11 0.820613 0.095041 0.972141
O O12 0.862850 0.319083 0.820737
O O13 0.116897 0.062726 0.787285
O O14 0.000000 0.056059 0.631386
O O15 0.130226 0.000000 0.648552
O O16 0.500000 0.853261 0.707434
O O17 0.500000 0.095808 0.421927
#
# Coordination Sequence:
#
# PCOD9369528 Si02
#       7
#    16  16  16  16  16  16  16
#     4  12  23  39  58  81 122 162 210 261 309 358
#     4  10  21  39  62  87 117 158 209 261 308 355
#     4  11  21  40  65  91 124 160 195 250 307 365
#     4  11  23  40  61  84 120 163 207 256 307 368
#     4  10  22  41  66  98 128 154 193 242 295 368
#     4  12  27  42  60  88 121 161 211 264 308 354
#     4   9  19  36  63  92 120 160 205 246 298 362
#
# _framework density 19.867235999999998
#
# number of rings (size 3 to 8) (size 9 to 14) (size 15 to 20)
#    0.000    1.286    2.857    3.429    2.000    2.857 
#    0.000    0.000    0.000    1.286    0.000    0.000 
#    0.000    0.000    0.000    0.000    0.000    0.000 
#
# Total GULP energy -156495.793749 kJ/mol
# GULP energy per Si atom -5589.135491 kJ/mol
# Density = 1.982202 g / cm^3
# Si number density = 19.867236 Si / 1000 Ang^3
#
#
#
# Elastic Constant Matrix: (Units=GPa)
#
#
# Indices 1 2 3 4 5 6 
#
# 1 95.3840 67.7731 37.2468 0.0000 0.0000 0.0000
# 2 67.7731 106.2309 57.0663 0.0000 0.0000 0.0000
# 3 37.2468 57.0663 70.8655 0.0000 0.0000 0.0000
# 4 0.0000 0.0000 0.0000 19.6037 0.0000 0.0000
# 5 0.0000 0.0000 0.0000 0.0000 21.9947 0.0000
# 6 0.0000 0.0000 0.0000 0.0000 0.0000 23.1994
#
#
#
# Elastic Compliance Matrix: (Units=1/GPa)
#
#
# Indices 1 2 3 4 5 6 
#
# 1 0.019183 -0.012023 -0.000401 0.000000 0.000000 0.000000
# 2 -0.012023 0.024126 -0.013109 0.000000 0.000000 0.000000
# 3 -0.000401 -0.013109 0.024878 0.000000 0.000000 0.000000
# 4 0.000000 0.000000 0.000000 0.051011 0.000000 0.000000
# 5 0.000000 0.000000 0.000000 0.000000 0.045465 0.000000
# 6 0.000000 0.000000 0.000000 0.000000 0.000000 0.043104
#
#
# Mechanical properties :
#
#
# Convention : Reuss Voigt Hill
#
# Bulk Modulus (GPa) = 58.40443 66.29477 62.34960
# Shear Modulus (GPa) = 18.90073 20.31918 19.60996
#
# Velocity S-wave (km/s) = 3.08775 3.20151 3.14514
# Velocity P-wave (km/s) = 6.49411 6.86350 6.68135
#
# Compressibility (1/GPa) = 0.01712199
#
# Stress axis : x y z
#
# Youngs Moduli (GPa) = 52.12864 41.44928 40.19649
#
# Poissons Ratio (x) = 0.49836 0.01610
# Poissons Ratio (y) = 0.62676 0.52692
# Poissons Ratio (z) = 0.02088 0.54334
#
# Static dielectric constant tensor:
#      x y z
#    x 1.724610 0.000000 0.000000 
#    y 0.000000 1.692980 0.000000 
#    z 0.000000 0.000000 1.726220 
# 
# From -- ./inp_files/8119.got.cif
#   From: 2010.05.17/outbox.cif.g08.bks.cpg/sg42_5_cif.got.tgz:8119.got - 2010.06.03 19:03:34.
