data_PCOD9369715
_publ_section_title
;
Structure prediction by ZEFSAII (Michael W. Deem and Ramdas Pophale) SiO2 
 PCOD9369715
Probable space group: F M M 2
;
_chemical_formula_sum "Si O2"
_cell_formula_units_Z 96
_cell_length_a 11.200858
_cell_length_b 18.065510
_cell_length_c 25.403355
_cell_angle_alpha 90.000000
_cell_angle_beta 90.000000
_cell_angle_gamma 90.000000
_cell_volume 5140.348872
_symmetry_space_group_name_H-M "F M M 2"
_symmetry_group_IT_number 42
_symmetry_cell_setting 'orthorhombic'
loop_
_space_group_symop_operation_xyz
x,y,z
-x,-y,z
-x,y,z
x,-y,z
x,1/2+y,1/2+z
-x,1/2-y,1/2+z
-x,1/2+y,1/2+z
x,1/2-y,1/2+z
1/2+x,y,1/2+z
1/2-x,-y,1/2+z
1/2-x,y,1/2+z
1/2+x,-y,1/2+z
1/2+x,1/2+y,z
1/2-x,1/2-y,z
1/2-x,1/2+y,z
1/2+x,1/2-y,z
loop_
_atom_site_type_symbol
_atom_site_label
_atom_site_fract_x
_atom_site_fract_y
_atom_site_fract_z
Si Si1 0.500000 0.084574 0.609840
Si Si2 0.748294 0.661770 0.105375
Si Si3 0.358971 0.415192 0.707458
Si Si4 0.279341 0.336434 0.289138
Si Si5 0.641749 0.083040 0.006052
Si Si6 0.500000 0.084964 0.735642
Si Si7 0.146578 0.186923 0.407098
O O1 0.617059 0.129644 0.595038
O O2 0.500000 0.080848 0.673098
O O3 0.500000 0.000000 0.589846
O O4 0.750000 0.750000 0.106315
O O5 0.796718 0.630768 0.160937
O O6 0.824074 0.629297 0.057387
O O7 0.500000 0.414317 0.698044
O O8 0.315069 0.500000 0.704843
O O9 0.331018 0.381741 0.764896
O O10 0.250000 0.250000 0.280976
O O11 0.387023 0.368859 0.254945
O O12 0.320288 0.344726 0.349448
O O13 0.500000 0.075832 0.006677
O O14 0.669116 0.127689 0.952943
O O15 0.694350 0.000000 0.007528
O O16 0.500000 0.000000 0.756088
O O17 0.250000 0.250000 0.415053
O O18 0.000000 0.206130 0.407644
#
# Coordination Sequence:
#
# PCOD9369715 Si02
#       7
#     8  16  16  16  16   8  16
#     4  11  24  40  62  91 128 168 214 264 315 378
#     4  12  25  39  64  92 126 165 211 261 317 382
#     4  11  24  40  61  90 128 168 206 255 317 384
#     4  11  23  37  63  91 126 162 206 257 312 373
#     4  10  22  42  66  90 122 162 208 260 317 383
#     4  11  22  38  60  89 124 166 210 258 307 366
#     4  10  22  42  66  95 125 164 212 263 319 376
#
# _framework density 18.675775000000002
#
# number of rings (size 3 to 8) (size 9 to 14) (size 15 to 20)
#    0.000    1.167    2.500    3.500    3.500    3.333 
#    1.500    0.000    0.000    0.000    0.000    0.000 
#    0.000    0.000    0.000    0.000    0.000    0.000 
#
# Total GULP energy -133874.980470 kJ/mol
# GULP energy per Si atom -5578.124186 kJ/mol
# Density = 1.863327 g / cm^3
# Si number density = 18.675775 Si / 1000 Ang^3
#
#
#
# Elastic Constant Matrix: (Units=GPa)
#
#
# Indices 1 2 3 4 5 6 
#
# 1 61.8471 35.8135 20.2894 0.0000 0.0000 0.0000
# 2 35.8135 147.0467 66.9872 0.0000 0.0000 0.0000
# 3 20.2894 66.9872 95.4987 0.0000 0.0000 0.0000
# 4 0.0000 0.0000 0.0000 82.7844 0.0000 0.0000
# 5 0.0000 0.0000 0.0000 0.0000 5.5515 0.0000
# 6 0.0000 0.0000 0.0000 0.0000 0.0000 22.2473
#
#
#
# Elastic Compliance Matrix: (Units=1/GPa)
#
#
# Indices 1 2 3 4 5 6 
#
# 1 0.018910 -0.004079 -0.001157 0.000000 0.000000 0.000000
# 2 -0.004079 0.010874 -0.006761 0.000000 0.000000 0.000000
# 3 -0.001157 -0.006761 0.015459 0.000000 0.000000 0.000000
# 4 0.000000 0.000000 0.000000 0.012080 0.000000 0.000000
# 5 0.000000 0.000000 0.000000 0.000000 0.180132 0.000000
# 6 0.000000 0.000000 0.000000 0.000000 0.000000 0.044949
#
#
# Mechanical properties :
#
#
# Convention : Reuss Voigt Hill
#
# Bulk Modulus (GPa) = 47.05637 61.17474 54.11556
# Shear Modulus (GPa) = 15.94998 34.20346 25.07672
#
# Velocity S-wave (km/s) = 2.92558 4.28417 3.66832
# Velocity P-wave (km/s) = 6.05501 7.56964 6.85429
#
# Compressibility (1/GPa) = 0.02125111
#
# Stress axis : x y z
#
# Youngs Moduli (GPa) = 52.88160 91.96358 64.68524
#
# Poissons Ratio (x) = 0.37509 0.07481
# Poissons Ratio (y) = 0.21569 0.43733
# Poissons Ratio (z) = 0.06116 0.62176
#
# Static dielectric constant tensor:
#      x y z
#    x 1.978170 0.000000 0.000000 
#    y 0.000000 1.654090 0.000000 
#    z 0.000000 0.000000 1.615980 
# 
# From -- ./inp_files/28856.got.cif
#   From: 2010.05.17/outbox.cif.g08.bks.cpg/sg42_15_cif.got.tgz:28856.got - 2010.06.03 19:03:34.
