data_PCOD9369337
_publ_section_title
;
Structure prediction by ZEFSAII (Michael W. Deem and Ramdas Pophale) SiO2 
 PCOD9369337
Probable space group: F M M 2
;
_chemical_formula_sum "Si O2"
_cell_formula_units_Z 96
_cell_length_a 27.421531
_cell_length_b 17.449878
_cell_length_c 8.494330
_cell_angle_alpha 90.000000
_cell_angle_beta 90.000000
_cell_angle_gamma 90.000000
_cell_volume 4064.557041
_symmetry_space_group_name_H-M "F M M 2"
_symmetry_group_IT_number 42
_symmetry_cell_setting 'orthorhombic'
loop_
_space_group_symop_operation_xyz
x,y,z
-x,-y,z
-x,y,z
x,-y,z
x,1/2+y,1/2+z
-x,1/2-y,1/2+z
-x,1/2+y,1/2+z
x,1/2-y,1/2+z
1/2+x,y,1/2+z
1/2-x,-y,1/2+z
1/2-x,y,1/2+z
1/2+x,-y,1/2+z
1/2+x,1/2+y,z
1/2-x,1/2-y,z
1/2-x,1/2+y,z
1/2+x,1/2-y,z
loop_
_atom_site_type_symbol
_atom_site_label
_atom_site_fract_x
_atom_site_fract_y
_atom_site_fract_z
Si Si1 0.606457 0.091335 0.889420
Si Si2 0.179509 0.637818 0.292863
Si Si3 0.556371 0.408849 0.069870
Si Si4 0.921031 0.585492 0.223837
Si Si5 0.213796 0.586839 0.785256
Si Si6 0.699054 0.771066 0.555086
O O1 0.588483 0.121174 0.717912
O O2 0.665758 0.095527 0.894036
O O3 0.595696 0.000000 0.889860
O O4 0.579378 0.121989 0.047451
O O5 0.136841 0.580757 0.256050
O O6 0.230260 0.597468 0.341839
O O7 0.186613 0.696603 0.151001
O O8 0.162458 0.696438 0.428845
O O9 0.500000 0.402802 0.117980
O O10 0.569127 0.500000 0.055214
O O11 0.560160 0.378985 0.888714
O O12 0.942464 0.500000 0.211679
O O13 0.210387 0.500000 0.719826
O O14 0.208119 0.657014 0.666982
O O15 0.750000 0.750000 0.968921
#
# Coordination Sequence:
#
# PCOD9369337 Si02
#       6
#    16  16  16  16  16  16
#     4   9  19  34  54  85 121 153 196 245 296 363
#     4  11  23  37  55  80 119 161 202 245 299 351
#     4   9  18  35  58  86 124 161 194 250 317 365
#     4  10  21  36  57  90 123 154 205 257 298 364
#     4  10  21  35  57  83 117 160 199 244 301 357
#     4  10  22  37  52  76 112 157 207 251 287 351
#
# _framework density 23.618808999999999
#
# number of rings (size 3 to 8) (size 9 to 14) (size 15 to 20)
#    0.000    2.167    0.000    3.000    7.000    3.333 
#    0.000    3.333    0.000    0.000    0.000    4.667 
#    0.000    0.000    0.000    0.000    0.000    0.000 
#
# Total GULP energy -133632.050031 kJ/mol
# GULP energy per Si atom -5568.002085 kJ/mol
# Density = 2.356505 g / cm^3
# Si number density = 23.618809 Si / 1000 Ang^3
#
#
#
# Elastic Constant Matrix: (Units=GPa)
#
#
# Indices 1 2 3 4 5 6 
#
# 1 79.4623 12.7191 35.6635 0.0000 0.0000 0.0000
# 2 12.7191 80.9058 20.1761 0.0000 0.0000 0.0000
# 3 35.6635 20.1761 143.8908 0.0001 0.0000 0.0000
# 4 0.0000 0.0000 0.0001 23.8641 0.0000 0.0000
# 5 0.0000 0.0000 0.0000 0.0000 23.0463 0.0000
# 6 0.0000 0.0000 0.0000 0.0000 0.0000 2.4998
#
#
#
# Elastic Compliance Matrix: (Units=1/GPa)
#
#
# Indices 1 2 3 4 5 6 
#
# 1 0.014314 -0.001415 -0.003349 0.000000 0.000000 0.000000
# 2 -0.001415 0.012948 -0.001465 0.000000 0.000000 0.000000
# 3 -0.003349 -0.001465 0.007985 0.000000 0.000000 0.000000
# 4 0.000000 0.000000 0.000000 0.041904 0.000000 0.000000
# 5 0.000000 0.000000 0.000000 0.000000 0.043391 0.000000
# 6 0.000000 0.000000 0.000000 0.000000 0.000000 0.400035
#
#
# Mechanical properties :
#
#
# Convention : Reuss Voigt Hill
#
# Bulk Modulus (GPa) = 43.88112 49.04184 46.46148
# Shear Modulus (GPa) = 9.24844 25.59537 17.42190
#
# Velocity S-wave (km/s) = 1.98096 3.29551 2.71888
# Velocity P-wave (km/s) = 4.88380 5.94050 5.43788
#
# Compressibility (1/GPa) = 0.02278885
#
# Stress axis : x y z
#
# Youngs Moduli (GPa) = 69.86007 77.23317 125.23077
#
# Poissons Ratio (x) = 0.10929 0.41945
# Poissons Ratio (y) = 0.09886 0.18344
# Poissons Ratio (z) = 0.23399 0.11313
#
# Static dielectric constant tensor:
#      x y z
#    x 1.948540 0.000000 0.000000 
#    y 0.000000 1.869140 0.000000 
#    z 0.000000 0.000000 2.009620 
# 
# From -- ./inp_files/5167.got.cif
#   From: 2010.05.17/outbox.cif.g08.bks.cpg/sg42_3_cif.got.tgz:5167.got - 2010.06.03 19:03:34.
