data_PCOD9369737
_publ_section_title
;
Structure prediction by ZEFSAII (Michael W. Deem and Ramdas Pophale) SiO2 
 PCOD9369737
Probable space group: F M M 2
;
_chemical_formula_sum "Si O2"
_cell_formula_units_Z 56
_cell_length_a 19.698572
_cell_length_b 10.027874
_cell_length_c 11.311640
_cell_angle_alpha 90.000000
_cell_angle_beta 90.000000
_cell_angle_gamma 90.000000
_cell_volume 2234.442522
_symmetry_space_group_name_H-M "F M M 2"
_symmetry_group_IT_number 42
_symmetry_cell_setting 'orthorhombic'
loop_
_space_group_symop_operation_xyz
x,y,z
-x,-y,z
-x,y,z
x,-y,z
x,1/2+y,1/2+z
-x,1/2-y,1/2+z
-x,1/2+y,1/2+z
x,1/2-y,1/2+z
1/2+x,y,1/2+z
1/2-x,-y,1/2+z
1/2-x,y,1/2+z
1/2+x,-y,1/2+z
1/2+x,1/2+y,z
1/2-x,1/2-y,z
1/2-x,1/2+y,z
1/2+x,1/2-y,z
loop_
_atom_site_type_symbol
_atom_site_label
_atom_site_fract_x
_atom_site_fract_y
_atom_site_fract_z
Si Si1 0.348463 0.777516 0.472630
Si Si2 0.723266 0.000000 0.320544
Si Si3 0.856215 0.500000 0.675307
Si Si4 0.500000 0.696959 0.905711
Si Si5 0.500000 0.500000 0.130728
Si Si6 0.352516 0.000000 0.074623
Si Si7 0.000000 0.500000 0.183736
O O1 0.423004 0.750775 0.414964
O O2 0.326391 0.632052 0.511126
O O3 0.303562 0.867769 0.386593
O O4 0.350594 0.870511 0.590230
O O5 0.800550 0.000000 0.276135
O O6 0.680622 0.000000 0.201383
O O7 0.934485 0.500000 0.712205
O O8 0.500000 0.620709 0.779122
O O9 0.500000 0.617608 0.032943
O O10 0.433431 0.000000 0.101370
#
# Coordination Sequence:
#
# PCOD9369737 Si02
#       7
#    16   8   8   8   4   8   4
#     4  10  22  44  74 115 155 200 261 321 382 462
#     4  11  23  47  75 104 152 210 263 319 392 468
#     4   9  20  43  76 108 146 209 256 314 400 463
#     4   9  15  37  74 108 157 199 248 323 378 427
#     4   7  14  32  72 112 141 188 265 312 367 466
#     4  12  24  41  76 117 154 212 257 316 395 456
#     4  11  18  38  78 114 157 210 261 308 385 466
#
# _framework density 25.062180999999999
#
# number of rings (size 3 to 8) (size 9 to 14) (size 15 to 20)
#    0.000    2.000    2.857    2.571    0.000    1.143 
#    0.000   15.714    0.000    0.000    0.000    8.000 
#    0.000    0.000    0.000    0.000    0.000    0.000 
#
# Total GULP energy -78260.981229 kJ/mol
# GULP energy per Si atom -5590.070088 kJ/mol
# Density = 2.500514 g / cm^3
# Si number density = 25.062181 Si / 1000 Ang^3
#
#
#
# Elastic Constant Matrix: (Units=GPa)
#
#
# Indices 1 2 3 4 5 6 
#
# 1 210.4280 50.7455 88.7378 0.0000 0.0000 0.0000
# 2 50.7455 202.6674 86.2552 0.0000 0.0000 0.0000
# 3 88.7378 86.2552 130.4711 0.0000 0.0000 0.0000
# 4 0.0000 0.0000 0.0000 -0.2932 0.0000 0.0000
# 5 0.0000 0.0000 0.0000 0.0000 67.5787 0.0000
# 6 0.0000 0.0000 0.0000 0.0000 0.0000 57.3909
#
#
#
# Elastic Compliance Matrix: (Units=1/GPa)
#
#
# Indices 1 2 3 4 5 6 
#
# 1 0.006683 0.000363 -0.004785 0.000000 0.000000 0.000000
# 2 0.000363 0.006886 -0.004799 0.000000 0.000000 0.000000
# 3 -0.004785 -0.004799 0.014092 0.000000 0.000000 0.000000
# 4 0.000000 0.000000 0.000000 -3.410852 0.000000 0.000000
# 5 0.000000 0.000000 0.000000 0.000000 0.014798 0.000000
# 6 0.000000 0.000000 0.000000 0.000000 0.000000 0.017424
#
#
# Mechanical properties :
#
#
# Convention : Reuss Voigt Hill
#
# Bulk Modulus (GPa) = 108.48498 110.56038 109.52268
# Shear Modulus (GPa) = -1.50175 46.12382 22.31104
#
# Velocity S-wave (km/s) = -0.77493 4.29461 2.98690
# Velocity P-wave (km/s) = 6.52531 8.29469 7.46262
#
# Compressibility (1/GPa) = 0.00921787
#
# Stress axis : x y z
#
# Youngs Moduli (GPa) = 149.64380 145.22575 70.96201
#
# Poissons Ratio (x) = -0.05277 0.33957
# Poissons Ratio (y) = -0.05438 0.34058
# Poissons Ratio (z) = 0.71608 0.69700
#
# Static dielectric constant tensor:
#      x y z
#    x 1.951320 0.000000 0.000000 
#    y 0.000000 1.988550 0.000000 
#    z 0.000000 0.000000 1.897900 
# 
# From -- ./inp_files/9200.got.cif
#   From: 2010.05.17/outbox.cif.g08.bks.cpg/sg42_5_cif.got.tgz:9200.got - 2010.06.03 19:03:34.
