data_PCOD9369966
_publ_section_title
;
Structure prediction by ZEFSAII (Michael W. Deem and Ramdas Pophale) SiO2 
 PCOD9369966
Probable space group: F M M 2
;
_chemical_formula_sum "Si O2"
_cell_formula_units_Z 88
_cell_length_a 15.253114
_cell_length_b 12.451916
_cell_length_c 20.130035
_cell_angle_alpha 90.000000
_cell_angle_beta 90.000000
_cell_angle_gamma 90.000000
_cell_volume 3823.307497
_symmetry_space_group_name_H-M "F M M 2"
_symmetry_group_IT_number 42
_symmetry_cell_setting 'orthorhombic'
loop_
_space_group_symop_operation_xyz
x,y,z
-x,-y,z
-x,y,z
x,-y,z
x,1/2+y,1/2+z
-x,1/2-y,1/2+z
-x,1/2+y,1/2+z
x,1/2-y,1/2+z
1/2+x,y,1/2+z
1/2-x,-y,1/2+z
1/2-x,y,1/2+z
1/2+x,-y,1/2+z
1/2+x,1/2+y,z
1/2-x,1/2-y,z
1/2-x,1/2+y,z
1/2+x,1/2-y,z
loop_
_atom_site_type_symbol
_atom_site_label
_atom_site_fract_x
_atom_site_fract_y
_atom_site_fract_z
Si Si1 0.898403 0.121376 0.852400
Si Si2 0.350861 0.275839 0.725216
Si Si3 0.597438 0.175305 0.591314
Si Si4 0.602407 0.000000 0.957302
Si Si5 0.743543 0.500000 0.063034
Si Si6 0.401125 0.000000 0.165653
Si Si7 0.353651 0.228897 0.963304
O O1 0.860343 0.215071 0.804656
O O2 0.892257 0.167229 0.926675
O O3 0.000000 0.113051 0.834780
O O4 0.859474 0.000000 0.848021
O O5 0.250000 0.250000 0.711446
O O6 0.397912 0.203070 0.669562
O O7 0.386568 0.393563 0.707721
O O8 0.500000 0.132739 0.577871
O O9 0.612951 0.274680 0.540158
O O10 0.678071 0.099158 0.572649
O O11 0.614052 0.119790 0.927501
O O12 0.500000 0.000000 0.981618
O O13 0.694461 0.000000 0.999107
O O14 0.818943 0.500000 0.117527
O O15 0.500000 0.000000 0.138215
O O16 0.250000 0.250000 0.961519
#
# Coordination Sequence:
#
# PCOD9369966 Si02
#       7
#    16  16  16   8   8   8  16
#     4  11  25  46  75 109 146 196 253 302 367 450
#     4  12  24  46  70 104 144 188 245 304 363 431
#     4  12  25  44  71 104 148 194 241 307 374 435
#     4  12  25  45  73 105 146 194 248 306 366 435
#     4  12  24  44  66 106 150 188 250 294 370 444
#     4  12  23  41  71 101 138 188 244 304 356 425
#     4  12  26  48  71 107 147 195 251 305 373 442
#
# _framework density 23.016722000000001
#
# number of rings (size 3 to 8) (size 9 to 14) (size 15 to 20)
#    0.000    0.182    4.545    6.000    2.545    0.000 
#    0.000    0.909    0.000    0.000    0.000    0.000 
#    0.000    0.000    0.000    0.000    0.000    0.000 
#
# Total GULP energy -122638.844806 kJ/mol
# GULP energy per Si atom -5574.492946 kJ/mol
# Density = 2.296434 g / cm^3
# Si number density = 23.016722 Si / 1000 Ang^3
#
#
#
# Elastic Constant Matrix: (Units=GPa)
#
#
# Indices 1 2 3 4 5 6 
#
# 1 192.8219 41.8136 22.9944 0.0000 0.0000 0.0000
# 2 41.8136 102.9064 23.4407 0.0000 0.0000 0.0000
# 3 22.9944 23.4407 75.5806 0.0000 0.0000 0.0000
# 4 0.0000 0.0000 0.0000 -39.6128 0.0000 0.0000
# 5 0.0000 0.0000 0.0000 0.0000 31.8590 0.0000
# 6 0.0000 0.0000 0.0000 0.0000 0.0000 69.7414
#
#
#
# Elastic Compliance Matrix: (Units=1/GPa)
#
#
# Indices 1 2 3 4 5 6 
#
# 1 0.005772 -0.002093 -0.001107 0.000000 0.000000 0.000000
# 2 -0.002093 0.011215 -0.002842 0.000000 0.000000 0.000000
# 3 -0.001107 -0.002842 0.014449 0.000000 0.000000 0.000000
# 4 0.000000 0.000000 0.000000 -0.025244 0.000000 0.000000
# 5 0.000000 0.000000 0.000000 0.000000 0.031388 0.000000
# 6 0.000000 0.000000 0.000000 0.000000 0.000000 0.014339
#
#
# Mechanical properties :
#
#
# Convention : Reuss Voigt Hill
#
# Bulk Modulus (GPa) = 51.67122 60.86735 56.26928
# Shear Modulus (GPa) = 70.96910 31.26820 51.11865
#
# Velocity S-wave (km/s) = 5.55884 3.68978 4.71779
# Velocity P-wave (km/s) = 7.98117 6.68243 7.36050
#
# Compressibility (1/GPa) = 0.01935313
#
# Stress axis : x y z
#
# Youngs Moduli (GPa) = 173.24894 89.16350 69.20928
#
# Poissons Ratio (x) = 0.18664 0.07661
# Poissons Ratio (y) = 0.36264 0.19666
# Poissons Ratio (z) = 0.19177 0.25336
#
# Static dielectric constant tensor:
#      x y z
#    x 1.785960 0.000000 0.000000 
#    y 0.000000 2.472530 0.000000 
#    z 0.000000 0.000000 1.992550 
# 
# From -- ./inp_files/29333.got.cif
#   From: 2010.05.17/outbox.cif.g08.bks.cpg/sg42_15_cif.got.tgz:29333.got - 2010.06.03 19:03:34.
