data_PCOD9369353
_publ_section_title
;
Structure prediction by ZEFSAII (Michael W. Deem and Ramdas Pophale) SiO2 
 PCOD9369353
Probable space group: F M M 2
;
_chemical_formula_sum "Si O2"
_cell_formula_units_Z 96
_cell_length_a 14.447991
_cell_length_b 11.443097
_cell_length_c 25.259215
_cell_angle_alpha 90.000000
_cell_angle_beta 90.000000
_cell_angle_gamma 90.000000
_cell_volume 4176.100016
_symmetry_space_group_name_H-M "F M M 2"
_symmetry_group_IT_number 42
_symmetry_cell_setting 'orthorhombic'
loop_
_space_group_symop_operation_xyz
x,y,z
-x,-y,z
-x,y,z
x,-y,z
x,1/2+y,1/2+z
-x,1/2-y,1/2+z
-x,1/2+y,1/2+z
x,1/2-y,1/2+z
1/2+x,y,1/2+z
1/2-x,-y,1/2+z
1/2-x,y,1/2+z
1/2+x,-y,1/2+z
1/2+x,1/2+y,z
1/2-x,1/2-y,z
1/2-x,1/2+y,z
1/2+x,1/2-y,z
loop_
_atom_site_type_symbol
_atom_site_label
_atom_site_fract_x
_atom_site_fract_y
_atom_site_fract_z
Si Si1 0.395456 0.861779 0.726420
Si Si2 0.651379 0.133643 0.609553
Si Si3 0.887763 0.741588 0.955081
Si Si4 0.856594 0.128902 0.561422
Si Si5 0.613814 0.253810 0.334735
Si Si6 0.895541 0.000000 0.835872
Si Si7 0.895665 0.500000 0.463277
O O1 0.500000 0.811756 0.720492
O O2 0.342644 0.838126 0.672059
O O3 0.358399 0.825426 0.783529
O O4 0.403304 0.000000 0.728608
O O5 0.752813 0.126656 0.584148
O O6 0.603535 0.248188 0.584051
O O7 0.611761 0.000000 0.603612
O O8 0.857920 0.714417 0.894707
O O9 0.000000 0.747803 0.954279
O O10 0.854539 0.871643 0.973539
O O11 0.859053 0.648245 0.998426
O O12 0.896203 0.000000 0.573961
O O13 0.500000 0.253651 0.336520
O O14 0.647851 0.122771 0.322784
O O15 0.903483 0.000000 0.899493
O O16 0.000000 0.000000 0.813556
O O17 0.000000 0.500000 0.485840
#
# Coordination Sequence:
#
# PCOD9369353 Si02
#       7
#    16  16  16  16  16   8   8
#     4   9  17  31  53  79 103 132 178 227 266 313
#     4   9  20  39  57  71  98 144 190 227 265 315
#     4   9  17  29  50  82 116 145 173 212 265 326
#     4  10  21  36  54  76 105 142 182 225 273 320
#     4   8  14  26  46  76 111 140 165 205 264 324
#     4   7  10  20  38  63 104 146 170 190 236 315
#     4   7  12  24  42  71 108 144 181 208 238 307
#
# _framework density 22.987956000000001
#
# number of rings (size 3 to 8) (size 9 to 14) (size 15 to 20)
#    0.000    3.333    0.000    2.000    1.167    1.667 
#    1.500    1.667    0.000    4.000    0.000    2.333 
#    0.000    0.000    0.000    0.000    0.000    1.333 
#
# Total GULP energy -133697.565859 kJ/mol
# GULP energy per Si atom -5570.731911 kJ/mol
# Density = 2.293563 g / cm^3
# Si number density = 22.987956 Si / 1000 Ang^3
#
#
#
# Elastic Constant Matrix: (Units=GPa)
#
#
# Indices 1 2 3 4 5 6 
#
# 1 82.8098 7.4622 38.0300 0.0000 0.0000 0.0000
# 2 7.4622 136.0722 62.4562 0.0000 0.0000 0.0000
# 3 38.0300 62.4562 176.0751 0.0000 0.0000 0.0000
# 4 0.0000 0.0000 0.0000 43.0432 0.0000 0.0000
# 5 0.0000 0.0000 0.0000 0.0000 26.9814 0.0000
# 6 0.0000 0.0000 0.0000 0.0000 0.0000 0.2671
#
#
#
# Elastic Compliance Matrix: (Units=1/GPa)
#
#
# Indices 1 2 3 4 5 6 
#
# 1 0.013463 0.000712 -0.003161 0.000000 0.000000 0.000000
# 2 0.000712 0.008816 -0.003281 0.000000 0.000000 0.000000
# 3 -0.003161 -0.003281 0.007526 0.000000 0.000000 0.000000
# 4 0.000000 0.000000 0.000000 0.023232 0.000000 0.000000
# 5 0.000000 0.000000 0.000000 0.000000 0.037063 0.000000
# 6 0.000000 0.000000 0.000000 0.000000 0.000000 3.743366
#
#
# Mechanical properties :
#
#
# Convention : Reuss Voigt Hill
#
# Bulk Modulus (GPa) = 54.50616 67.87264 61.18940
# Shear Modulus (GPa) = 1.29835 33.19228 17.24531
#
# Velocity S-wave (km/s) = 0.75234 3.80399 2.74193
# Velocity P-wave (km/s) = 4.95146 6.99165 6.05806
#
# Compressibility (1/GPa) = 0.01834655
#
# Stress axis : x y z
#
# Youngs Moduli (GPa) = 74.27687 113.43105 132.87545
#
# Poissons Ratio (x) = -0.08080 0.41996
# Poissons Ratio (y) = -0.05291 0.43596
# Poissons Ratio (z) = 0.23476 0.37217
#
# Static dielectric constant tensor:
#      x y z
#    x 1.927390 0.000000 0.000000 
#    y 0.000000 1.925170 0.000000 
#    z 0.000000 0.000000 1.834960 
# 
# From -- ./inp_files/26439.got.cif
#   From: 2010.05.17/outbox.cif.g08.bks.cpg/sg42_14_cif.got.tgz:26439.got - 2010.06.03 19:03:34.
