data_PCOD9369220
_publ_section_title
;
Structure prediction by ZEFSAII (Michael W. Deem and Ramdas Pophale) SiO2 
 PCOD9369220
Probable space group: F M M 2
;
_chemical_formula_sum "Si O2"
_cell_formula_units_Z 96
_cell_length_a 24.242268
_cell_length_b 8.848108
_cell_length_c 25.612640
_cell_angle_alpha 90.000000
_cell_angle_beta 90.000000
_cell_angle_gamma 90.000000
_cell_volume 5493.865316
_symmetry_space_group_name_H-M "F M M 2"
_symmetry_group_IT_number 42
_symmetry_cell_setting 'orthorhombic'
loop_
_space_group_symop_operation_xyz
x,y,z
-x,-y,z
-x,y,z
x,-y,z
x,1/2+y,1/2+z
-x,1/2-y,1/2+z
-x,1/2+y,1/2+z
x,1/2-y,1/2+z
1/2+x,y,1/2+z
1/2-x,-y,1/2+z
1/2-x,y,1/2+z
1/2+x,-y,1/2+z
1/2+x,1/2+y,z
1/2-x,1/2-y,z
1/2-x,1/2+y,z
1/2+x,1/2-y,z
loop_
_atom_site_type_symbol
_atom_site_label
_atom_site_fract_x
_atom_site_fract_y
_atom_site_fract_z
Si Si1 0.500000 0.182653 0.630780
Si Si2 0.809218 0.319983 0.262369
Si Si3 0.119768 0.818423 0.474522
Si Si4 0.881889 0.818766 0.173747
Si Si5 0.809621 0.819003 0.884271
Si Si6 0.189057 0.181345 0.070186
Si Si7 0.000000 0.681584 0.014935
O O1 0.555863 0.229315 0.660146
O O2 0.500000 0.245784 0.572210
O O3 0.500000 0.000000 0.627474
O O4 0.805677 0.500000 0.257833
O O5 0.750000 0.250000 0.247480
O O6 0.855793 0.257301 0.224314
O O7 0.819309 0.282120 0.323254
O O8 0.144417 0.750608 0.421611
O O9 0.155700 0.752222 0.522069
O O10 0.056080 0.776657 0.485011
O O11 0.124373 0.000000 0.473871
O O12 0.843866 0.784316 0.123482
O O13 0.881533 0.000000 0.180710
O O14 0.750000 0.750000 0.898851
O O15 0.807682 0.000000 0.889998
O O16 0.250000 0.250000 0.072272
O O17 0.191703 0.000000 0.064160
O O18 0.000000 0.500000 0.021124
#
# Coordination Sequence:
#
# PCOD9369220 Si02
#       7
#     8  16  16  16  16  16   8
#     4  10  20  38  59  82 111 149 190 228 274 329
#     4  10  21  37  59  84 113 147 186 230 280 333
#     4  11  22  37  57  82 111 145 186 230 277 331
#     4  10  21  36  57  83 112 146 187 228 275 330
#     4  10  21  38  59  84 112 147 186 229 281 334
#     4  11  22  35  53  80 113 146 180 226 278 333
#     4  10  22  38  57  82 111 147 188 230 278 327
#
# _framework density 17.474036000000002
#
# number of rings (size 3 to 8) (size 9 to 14) (size 15 to 20)
#    0.000    1.667    1.667    3.000    0.000    6.000 
#    0.000    0.833    0.000    5.000    0.000    0.000 
#    0.000    0.000    0.000    0.000    0.000    0.000 
#
# Total GULP energy -134098.531328 kJ/mol
# GULP energy per Si atom -5587.438805 kJ/mol
# Density = 1.743426 g / cm^3
# Si number density = 17.474036 Si / 1000 Ang^3
#
#
#
# Elastic Constant Matrix: (Units=GPa)
#
#
# Indices 1 2 3 4 5 6 
#
# 1 193.3921 57.9331 94.8593 0.0000 0.0000 0.0000
# 2 57.9331 44.6306 47.4010 0.0000 0.0000 0.0000
# 3 94.8593 47.4010 105.5388 0.0000 0.0000 0.0000
# 4 0.0000 0.0000 0.0000 33.3487 0.0000 0.0000
# 5 0.0000 0.0000 0.0000 0.0000 20.2362 0.0000
# 6 0.0000 0.0000 0.0000 0.0000 0.0000 19.4095
#
#
#
# Elastic Compliance Matrix: (Units=1/GPa)
#
#
# Indices 1 2 3 4 5 6 
#
# 1 0.010197 -0.006697 -0.006158 0.000000 0.000000 0.000000
# 2 -0.006697 0.047241 -0.015198 0.000000 0.000000 0.000000
# 3 -0.006158 -0.015198 0.021836 0.000000 0.000000 0.000000
# 4 0.000000 0.000000 0.000000 0.029986 0.000000 0.000000
# 5 0.000000 0.000000 0.000000 0.000000 0.049416 0.000000
# 6 0.000000 0.000000 0.000000 0.000000 0.000000 0.051521
#
#
# Mechanical properties :
#
#
# Convention : Reuss Voigt Hill
#
# Bulk Modulus (GPa) = 43.16239 82.66092 62.91166
# Shear Modulus (GPa) = 18.24649 24.15678 21.20163
#
# Velocity S-wave (km/s) = 3.23492 3.72215 3.48706
# Velocity P-wave (km/s) = 6.22153 8.11666 7.23145
#
# Compressibility (1/GPa) = 0.02316832
#
# Stress axis : x y z
#
# Youngs Moduli (GPa) = 98.06520 21.16827 45.79630
#
# Poissons Ratio (x) = 0.14176 0.28200
# Poissons Ratio (y) = 0.65672 0.69602
# Poissons Ratio (z) = 0.60386 0.32172
#
# Static dielectric constant tensor:
#      x y z
#    x 1.578320 0.000000 0.000000 
#    y 0.000000 1.591300 0.000000 
#    z 0.000000 0.000000 1.571890 
# 
# From -- ./inp_files/28058.got.cif
#   From: 2010.05.17/outbox.cif.g08.bks.cpg/sg42_15_cif.got.tgz:28058.got - 2010.06.03 19:03:34.
