data_PCOD9369835
_publ_section_title
;
Structure prediction by ZEFSAII (Michael W. Deem and Ramdas Pophale) SiO2 
 PCOD9369835
Probable space group: F M M 2
;
_chemical_formula_sum "Si O2"
_cell_formula_units_Z 56
_cell_length_a 21.789819
_cell_length_b 11.261513
_cell_length_c 8.868983
_cell_angle_alpha 90.000000
_cell_angle_beta 90.000000
_cell_angle_gamma 90.000000
_cell_volume 2176.327189
_symmetry_space_group_name_H-M "F M M 2"
_symmetry_group_IT_number 42
_symmetry_cell_setting 'orthorhombic'
loop_
_space_group_symop_operation_xyz
x,y,z
-x,-y,z
-x,y,z
x,-y,z
x,1/2+y,1/2+z
-x,1/2-y,1/2+z
-x,1/2+y,1/2+z
x,1/2-y,1/2+z
1/2+x,y,1/2+z
1/2-x,-y,1/2+z
1/2-x,y,1/2+z
1/2+x,-y,1/2+z
1/2+x,1/2+y,z
1/2-x,1/2-y,z
1/2-x,1/2+y,z
1/2+x,1/2-y,z
loop_
_atom_site_type_symbol
_atom_site_label
_atom_site_fract_x
_atom_site_fract_y
_atom_site_fract_z
Si Si1 0.110946 0.862805 0.651610
Si Si2 0.500000 0.252196 0.280163
Si Si3 0.380020 0.000000 0.628394
Si Si4 0.000000 0.000000 0.929756
Si Si5 0.500000 0.500000 0.345505
Si Si6 0.819548 0.206645 0.952037
O O1 0.059811 0.761341 0.678364
O O2 0.156628 0.848579 0.794925
O O3 0.143609 0.825053 0.498331
O O4 0.088457 0.000000 0.645006
O O5 0.500000 0.363207 0.391842
O O6 0.500000 0.127182 0.357960
O O7 0.336128 0.112438 0.586220
O O8 0.433780 0.000000 0.505038
O O9 0.430525 0.000000 0.765510
O O10 0.750000 0.250000 0.944156
#
# Coordination Sequence:
#
# PCOD9369835 Si02
#       6
#    16   8   8   4   4  16
#     4  12  26  47  74 106 143 192 245 303 369 431
#     4  12  20  42  72 106 142 185 241 311 372 431
#     4  11  22  44  72  98 144 203 232 290 390 427
#     4  11  20  42  78  93 148 195 238 303 380 435
#     4  11  24  38  70 105 148 189 244 301 376 445
#     4  12  26  48  72 103 146 193 243 293 359 445
#
# _framework density 25.731425000000002
#
# number of rings (size 3 to 8) (size 9 to 14) (size 15 to 20)
#    0.000    0.286    8.571    0.857    2.000    1.143 
#    5.143    0.000    0.000    0.000    0.000    0.000 
#    0.000    0.000    0.000    0.000    0.000    0.000 
#
# Total GULP energy -78125.573842 kJ/mol
# GULP energy per Si atom -5580.398132 kJ/mol
# Density = 2.567286 g / cm^3
# Si number density = 25.731425 Si / 1000 Ang^3
#
#
#
# Elastic Constant Matrix: (Units=GPa)
#
#
# Indices 1 2 3 4 5 6 
#
# 1 148.3597 22.3940 8.9967 0.0000 0.0000 0.0000
# 2 22.3940 182.1887 25.1981 0.0000 0.0000 0.0000
# 3 8.9967 25.1981 52.5722 0.0000 0.0000 0.0000
# 4 0.0000 0.0000 0.0000 32.3461 0.0000 0.0000
# 5 0.0000 0.0000 0.0000 0.0000 26.2249 0.0000
# 6 0.0000 0.0000 0.0000 0.0000 0.0000 134.6020
#
#
#
# Elastic Compliance Matrix: (Units=1/GPa)
#
#
# Indices 1 2 3 4 5 6 
#
# 1 0.006901 -0.000734 -0.000829 0.000000 0.000000 0.000000
# 2 -0.000734 0.005956 -0.002729 0.000000 0.000000 0.000000
# 3 -0.000829 -0.002729 0.020472 0.000000 0.000000 0.000000
# 4 0.000000 0.000000 0.000000 0.030916 0.000000 0.000000
# 5 0.000000 0.000000 0.000000 0.000000 0.038132 0.000000
# 6 0.000000 0.000000 0.000000 0.000000 0.000000 0.007429
#
#
# Mechanical properties :
#
#
# Convention : Reuss Voigt Hill
#
# Bulk Modulus (GPa) = 40.41284 55.14426 47.77855
# Shear Modulus (GPa) = 39.48225 60.40340 49.94283
#
# Velocity S-wave (km/s) = 3.92139 4.85031 4.41038
# Velocity P-wave (km/s) = 6.02020 7.26943 6.67411
#
# Compressibility (1/GPa) = 0.02474461
#
# Stress axis : x y z
#
# Youngs Moduli (GPa) = 144.89811 167.88423 48.84812
#
# Poissons Ratio (x) = 0.12316 0.04052
# Poissons Ratio (y) = 0.10629 0.13333
# Poissons Ratio (z) = 0.12018 0.45823
#
# Static dielectric constant tensor:
#      x y z
#    x 1.920240 0.000000 0.000000 
#    y 0.000000 2.311270 0.000000 
#    z 0.000000 0.000000 2.173980 
# 
# From -- ./inp_files/6639.got.cif
#   From: 2010.05.17/outbox.cif.g08.bks.cpg/sg42_4_cif.got.tgz:6639.got - 2010.06.03 19:03:34.
