data_PCOD9369423
_publ_section_title
;
Structure prediction by ZEFSAII (Michael W. Deem and Ramdas Pophale) SiO2 
 PCOD9369423
Probable space group: F M M 2
;
_chemical_formula_sum "Si O2"
_cell_formula_units_Z 104
_cell_length_a 19.760548
_cell_length_b 7.436087
_cell_length_c 30.758017
_cell_angle_alpha 90.000000
_cell_angle_beta 90.000000
_cell_angle_gamma 90.000000
_cell_volume 4519.618516
_symmetry_space_group_name_H-M "F M M 2"
_symmetry_group_IT_number 42
_symmetry_cell_setting 'orthorhombic'
loop_
_space_group_symop_operation_xyz
x,y,z
-x,-y,z
-x,y,z
x,-y,z
x,1/2+y,1/2+z
-x,1/2-y,1/2+z
-x,1/2+y,1/2+z
x,1/2-y,1/2+z
1/2+x,y,1/2+z
1/2-x,-y,1/2+z
1/2-x,y,1/2+z
1/2+x,-y,1/2+z
1/2+x,1/2+y,z
1/2-x,1/2-y,z
1/2-x,1/2+y,z
1/2+x,1/2-y,z
loop_
_atom_site_type_symbol
_atom_site_label
_atom_site_fract_x
_atom_site_fract_y
_atom_site_fract_z
Si Si1 0.176252 0.214143 0.588300
Si Si2 0.422447 0.780815 0.014247
Si Si3 0.855052 0.710803 0.831093
Si Si4 0.654120 0.790289 0.184416
Si Si5 0.578875 0.280765 0.416293
Si Si6 0.250000 0.250000 0.260924
Si Si7 0.500000 0.783956 0.291295
Si Si8 0.500000 0.199794 0.692630
O O1 0.250000 0.250000 0.569719
O O2 0.122120 0.284447 0.554173
O O3 0.174813 0.285314 0.637505
O O4 0.165155 0.000000 0.593008
O O5 0.500000 0.729514 0.020801
O O6 0.419389 0.000000 0.014321
O O7 0.403007 0.725804 0.965350
O O8 0.834220 0.500000 0.830213
O O9 0.866158 0.776641 0.880456
O O10 0.805474 0.809967 0.797645
O O11 0.931717 0.724111 0.814232
O O12 0.692439 0.694845 0.224545
O O13 0.572549 0.785675 0.182674
O O14 0.674015 0.000000 0.189984
O O15 0.500000 0.224193 0.407900
O O16 0.577670 0.500000 0.414428
O O17 0.500000 0.697594 0.244352
O O18 0.500000 0.000000 0.287332
O O19 0.500000 0.000000 0.673657
#
# Coordination Sequence:
#
# PCOD9369423 Si02
#       8
#    16  16  16  16  16   8   8   8
#     4  10  21  37  59  86 118 158 196 238 291 354
#     4   8  15  30  56  87 114 144 193 247 293 341
#     4  11  22  38  61  86 115 156 204 243 289 352
#     4  11  24  41  60  85 119 157 198 246 300 348
#     4   8  14  29  56  87 113 144 191 247 294 345
#     4  12  24  36  58  84 126 154 202 240 298 340
#     4  12  24  38  60  87 118 151 195 244 297 349
#     4  12  26  42  64  87 112 151 201 248 297 355
#
# _framework density 23.010791999999999
#
# number of rings (size 3 to 8) (size 9 to 14) (size 15 to 20)
#    0.000    1.846    3.077    2.769    1.077    1.846 
#    1.385    0.000    0.000    0.923    0.000    0.000 
#    0.000    0.000    0.000    0.000    0.000    0.000 
#
# Total GULP energy -144858.501194 kJ/mol
# GULP energy per Si atom -5571.480815 kJ/mol
# Density = 2.295842 g / cm^3
# Si number density = 23.010792 Si / 1000 Ang^3
#
#
#
# Elastic Constant Matrix: (Units=GPa)
#
#
# Indices 1 2 3 4 5 6 
#
# 1 147.6918 4.4419 88.2562 0.0000 0.0000 0.0000
# 2 4.4419 100.6103 15.3071 0.0000 0.0000 0.0000
# 3 88.2562 15.3071 192.1657 0.0000 0.0000 0.0000
# 4 0.0000 0.0000 0.0000 20.4045 0.0000 0.0000
# 5 0.0000 0.0000 0.0000 0.0000 -80.6667 0.0000
# 6 0.0000 0.0000 0.0000 0.0000 0.0000 -0.7047
#
#
#
# Elastic Compliance Matrix: (Units=1/GPa)
#
#
# Indices 1 2 3 4 5 6 
#
# 1 0.009338 0.000243 -0.004308 0.000000 0.000000 0.000000
# 2 0.000243 0.010068 -0.000914 0.000000 0.000000 0.000000
# 3 -0.004308 -0.000914 0.007255 0.000000 0.000000 0.000000
# 4 0.000000 0.000000 0.000000 0.049009 0.000000 0.000000
# 5 0.000000 0.000000 0.000000 0.000000 -0.012397 0.000000
# 6 0.000000 0.000000 0.000000 0.000000 0.000000 -1.419082
#
#
# Mechanical properties :
#
#
# Convention : Reuss Voigt Hill
#
# Bulk Modulus (GPa) = 59.86683 72.94204 66.40444
# Shear Modulus (GPa) = -3.73055 9.97080 3.12012
#
# Velocity S-wave (km/s) = -1.27465 2.08387 1.16571
# Velocity P-wave (km/s) = 4.88948 6.12845 5.54369
#
# Compressibility (1/GPa) = 0.01670374
#
# Stress axis : x y z
#
# Youngs Moduli (GPa) = 107.09085 99.32852 137.83311
#
# Poissons Ratio (x) = -0.02415 0.59378
# Poissons Ratio (y) = -0.02604 0.12593
# Poissons Ratio (z) = 0.46135 0.09075
#
# Static dielectric constant tensor:
#      x y z
#    x 2.029740 0.000000 0.000000 
#    y 0.000000 1.775200 0.000000 
#    z 0.000000 0.000000 1.861350 
# 
# From -- ./inp_files/34731.got.cif
#   From: 2010.05.17/outbox.cif.g08.bks.cpg/sg42_18_cif.got.tgz:34731.got - 2010.06.03 19:03:34.
