data_PCOD9369900
_publ_section_title
;
Structure prediction by ZEFSAII (Michael W. Deem and Ramdas Pophale) SiO2 
 PCOD9369900
Probable space group: F M M 2
;
_chemical_formula_sum "Si O2"
_cell_formula_units_Z 72
_cell_length_a 22.499035
_cell_length_b 16.223382
_cell_length_c 9.441487
_cell_angle_alpha 90.000000
_cell_angle_beta 90.000000
_cell_angle_gamma 90.000000
_cell_volume 3446.241319
_symmetry_space_group_name_H-M "F M M 2"
_symmetry_group_IT_number 42
_symmetry_cell_setting 'orthorhombic'
loop_
_space_group_symop_operation_xyz
x,y,z
-x,-y,z
-x,y,z
x,-y,z
x,1/2+y,1/2+z
-x,1/2-y,1/2+z
-x,1/2+y,1/2+z
x,1/2-y,1/2+z
1/2+x,y,1/2+z
1/2-x,-y,1/2+z
1/2-x,y,1/2+z
1/2+x,-y,1/2+z
1/2+x,1/2+y,z
1/2-x,1/2-y,z
1/2-x,1/2+y,z
1/2+x,1/2-y,z
loop_
_atom_site_type_symbol
_atom_site_label
_atom_site_fract_x
_atom_site_fract_y
_atom_site_fract_z
Si Si1 0.820417 0.595551 0.659470
Si Si2 0.750000 0.750000 0.057110
Si Si3 0.569139 0.187873 0.200928
Si Si4 0.134963 0.316679 0.906257
Si Si5 0.565515 0.404224 0.974333
O O1 0.803104 0.500000 0.628987
O O2 0.770473 0.666959 0.641004
O O3 0.846119 0.603150 0.818040
O O4 0.875566 0.621997 0.557498
O O5 0.805092 0.725297 0.960417
O O6 0.500000 0.207774 0.187322
O O7 0.601938 0.258500 0.292267
O O8 0.574240 0.110897 0.307927
O O9 0.596094 0.172546 0.046982
O O10 0.500000 0.367166 0.010631
O O11 0.561542 0.500000 0.006284
#
# Coordination Sequence:
#
# PCOD9369900 Si02
#       5
#    16   8  16  16  16
#     4  11  25  45  70 102 141 188 236 292 357 418
#     4  12  24  46  70  94 140 186 236 286 348 418
#     4  11  22  39  66 101 139 182 233 285 353 420
#     4  12  24  41  66  99 132 184 231 294 339 419
#     4   9  19  39  66  98 139 184 230 284 352 424
#
# _framework density 20.892327999999999
#
# number of rings (size 3 to 8) (size 9 to 14) (size 15 to 20)
#    0.000    1.111    4.444    1.333    0.000    5.333 
#    0.000    2.222    0.000    0.000    0.000    0.000 
#    0.000    0.889    0.000    0.000    0.000    0.000 
#
# Total GULP energy -100395.214808 kJ/mol
# GULP energy per Si atom -5577.511934 kJ/mol
# Density = 2.084478 g / cm^3
# Si number density = 20.892328 Si / 1000 Ang^3
#
#
#
# Elastic Constant Matrix: (Units=GPa)
#
#
# Indices 1 2 3 4 5 6 
#
# 1 123.8116 52.8334 54.1892 0.0000 0.0000 0.0000
# 2 52.8334 85.2322 39.6746 0.0000 0.0000 0.0000
# 3 54.1892 39.6746 131.9361 0.0000 0.0000 0.0000
# 4 0.0000 0.0000 0.0000 26.1627 0.0000 0.0000
# 5 0.0000 0.0000 0.0000 0.0000 8.4392 0.0000
# 6 0.0000 0.0000 0.0000 0.0000 0.0000 16.1820
#
#
#
# Elastic Compliance Matrix: (Units=1/GPa)
#
#
# Indices 1 2 3 4 5 6 
#
# 1 0.011999 -0.005981 -0.003130 0.000000 0.000000 0.000000
# 2 -0.005981 0.016624 -0.002542 0.000000 0.000000 0.000000
# 3 -0.003130 -0.002542 0.009629 0.000000 0.000000 0.000000
# 4 0.000000 0.000000 0.000000 0.038222 0.000000 0.000000
# 5 0.000000 0.000000 0.000000 0.000000 0.118495 0.000000
# 6 0.000000 0.000000 0.000000 0.000000 0.000000 0.061797
#
#
# Mechanical properties :
#
#
# Convention : Reuss Voigt Hill
#
# Bulk Modulus (GPa) = 66.90854 70.48603 68.69728
# Shear Modulus (GPa) = 17.54058 23.10897 20.32477
#
# Velocity S-wave (km/s) = 2.90068 3.32941 3.12241
# Velocity P-wave (km/s) = 6.58130 6.97072 6.77881
#
# Compressibility (1/GPa) = 0.01494578
#
# Stress axis : x y z
#
# Youngs Moduli (GPa) = 83.34200 60.15564 103.84908
#
# Poissons Ratio (x) = 0.35979 0.32501
# Poissons Ratio (y) = 0.49846 0.26402
# Poissons Ratio (z) = 0.26083 0.15294
#
# Static dielectric constant tensor:
#      x y z
#    x 1.785450 0.000000 0.000000 
#    y 0.000000 1.799870 0.000000 
#    z 0.000000 0.000000 1.752310 
# 
# From -- ./inp_files/4514.got.cif
#   From: 2010.05.17/outbox.cif.g08.bks.cpg/sg42_3_cif.got.tgz:4514.got - 2010.06.03 19:03:34.
