data_PCOD9369952
_publ_section_title
;
Structure prediction by ZEFSAII (Michael W. Deem and Ramdas Pophale) SiO2 
 PCOD9369952
Probable space group: F M M 2
;
_chemical_formula_sum "Si O2"
_cell_formula_units_Z 80
_cell_length_a 26.578117
_cell_length_b 17.745568
_cell_length_c 7.594338
_cell_angle_alpha 90.000000
_cell_angle_beta 90.000000
_cell_angle_gamma 90.000000
_cell_volume 3581.822300
_symmetry_space_group_name_H-M "F M M 2"
_symmetry_group_IT_number 42
_symmetry_cell_setting 'orthorhombic'
loop_
_space_group_symop_operation_xyz
x,y,z
-x,-y,z
-x,y,z
x,-y,z
x,1/2+y,1/2+z
-x,1/2-y,1/2+z
-x,1/2+y,1/2+z
x,1/2-y,1/2+z
1/2+x,y,1/2+z
1/2-x,-y,1/2+z
1/2-x,y,1/2+z
1/2+x,-y,1/2+z
1/2+x,1/2+y,z
1/2-x,1/2-y,z
1/2-x,1/2+y,z
1/2+x,1/2-y,z
loop_
_atom_site_type_symbol
_atom_site_label
_atom_site_fract_x
_atom_site_fract_y
_atom_site_fract_z
Si Si1 0.622331 0.415404 0.525780
Si Si2 0.941711 0.148384 0.836461
Si Si3 0.400923 0.695195 0.207762
Si Si4 0.282843 0.087477 0.252428
Si Si5 0.706466 0.687830 0.077510
O O1 0.614431 0.500000 0.460253
O O2 0.590870 0.402799 0.705278
O O3 0.605691 0.357252 0.377400
O O4 0.680425 0.407917 0.584736
O O5 0.933705 0.232963 0.760395
O O6 0.000000 0.127456 0.830039
O O7 0.922975 0.152275 0.038167
O O8 0.344690 0.721488 0.152762
O O9 0.304739 0.142083 0.400902
O O10 0.229637 0.124045 0.204039
O O11 0.279538 0.000000 0.306681
O O12 0.750000 0.750000 0.051977
#
# Coordination Sequence:
#
# PCOD9369952 Si02
#       5
#    16  16  16  16  16
#     4  11  26  48  72 105 147 187 236 294 351 420
#     4  12  26  47  75 106 139 183 238 297 361 424
#     4  12  26  45  74 107 140 188 237 290 355 424
#     4  11  24  43  65  99 146 193 228 276 349 420
#     4  12  25  39  68 105 142 183 237 290 336 413
#
# _framework density 22.335000000000001
#
# number of rings (size 3 to 8) (size 9 to 14) (size 15 to 20)
#    0.000    0.400    4.000    4.200    2.800    5.200 
#    0.000    0.000    0.000    0.000    0.000    0.000 
#    0.000    0.000    0.000    0.000    0.000    0.000 
#
# Total GULP energy -112049.995252 kJ/mol
# GULP energy per Si atom -5602.499763 kJ/mol
# Density = 2.228416 g / cm^3
# Si number density = 22.335000 Si / 1000 Ang^3
#
#
#
# Elastic Constant Matrix: (Units=GPa)
#
#
# Indices 1 2 3 4 5 6 
#
# 1 94.1902 -7.0394 11.2314 0.0000 0.0000 0.0000
# 2 -7.0394 84.6612 14.6890 0.0000 0.0000 0.0000
# 3 11.2314 14.6890 106.3739 -0.0001 0.0000 0.0000
# 4 0.0000 0.0000 -0.0001 24.7116 0.0000 0.0000
# 5 0.0000 0.0000 0.0000 0.0000 25.8231 0.0000
# 6 0.0000 0.0000 0.0000 0.0000 0.0000 -0.6844
#
#
#
# Elastic Compliance Matrix: (Units=1/GPa)
#
#
# Indices 1 2 3 4 5 6 
#
# 1 0.010856 0.001129 -0.001302 0.000000 0.000000 0.000000
# 2 0.001129 0.012219 -0.001806 0.000000 0.000000 0.000000
# 3 -0.001302 -0.001806 0.009788 0.000000 0.000000 0.000000
# 4 0.000000 0.000000 0.000000 0.040467 0.000000 -0.000001
# 5 0.000000 0.000000 0.000000 0.000000 0.038725 0.000000
# 6 0.000000 0.000000 0.000000 -0.000001 0.000000 -1.461077
#
#
# Mechanical properties :
#
#
# Convention : Reuss Voigt Hill
#
# Bulk Modulus (GPa) = 34.59816 35.88748 35.24282
# Shear Modulus (GPa) = -3.74412 27.72633 11.99110
#
# Velocity S-wave (km/s) = -1.29614 3.52715 2.31957
# Velocity P-wave (km/s) = 3.64475 5.71755 4.79451
#
# Compressibility (1/GPa) = 0.02890327
#
# Stress axis : x y z
#
# Youngs Moduli (GPa) = 92.11134 81.83933 102.16865
#
# Poissons Ratio (x) = -0.09237 0.13304
# Poissons Ratio (y) = -0.10396 0.18457
# Poissons Ratio (z) = 0.11994 0.14784
#
# Static dielectric constant tensor:
#      x y z
#    x 1.796400 0.000000 0.000000 
#    y 0.000000 1.788750 0.000000 
#    z 0.000000 0.000000 1.850970 
# 
# From -- ./inp_files/5513.got.cif
#   From: 2010.05.17/outbox.cif.g08.bks.cpg/sg42_3_cif.got.tgz:5513.got - 2010.06.03 19:03:34.
