data_PCOD9369858
_publ_section_title
;
Structure prediction by ZEFSAII (Michael W. Deem and Ramdas Pophale) SiO2 
 PCOD9369858
Probable space group: F M M 2
;
_chemical_formula_sum "Si O2"
_cell_formula_units_Z 104
_cell_length_a 28.289389
_cell_length_b 20.611915
_cell_length_c 9.382724
_cell_angle_alpha 90.000000
_cell_angle_beta 90.000000
_cell_angle_gamma 90.000000
_cell_volume 5471.052116
_symmetry_space_group_name_H-M "F M M 2"
_symmetry_group_IT_number 42
_symmetry_cell_setting 'orthorhombic'
loop_
_space_group_symop_operation_xyz
x,y,z
-x,-y,z
-x,y,z
x,-y,z
x,1/2+y,1/2+z
-x,1/2-y,1/2+z
-x,1/2+y,1/2+z
x,1/2-y,1/2+z
1/2+x,y,1/2+z
1/2-x,-y,1/2+z
1/2-x,y,1/2+z
1/2+x,-y,1/2+z
1/2+x,1/2+y,z
1/2-x,1/2-y,z
1/2-x,1/2+y,z
1/2+x,1/2-y,z
loop_
_atom_site_type_symbol
_atom_site_label
_atom_site_fract_x
_atom_site_fract_y
_atom_site_fract_z
Si Si1 0.445899 0.389160 0.079960
Si Si2 0.279856 0.574402 0.958905
Si Si3 0.197057 0.111932 0.644236
Si Si4 0.150503 0.173616 0.073772
Si Si5 0.693296 0.256785 0.804556
Si Si6 0.445299 0.000000 0.815265
Si Si7 0.946155 0.000000 0.843870
Si Si8 0.875759 0.000000 0.580541
O O1 0.500000 0.364969 0.082389
O O2 0.405586 0.335104 0.077084
O O3 0.439146 0.436873 0.215090
O O4 0.440888 0.436864 0.943969
O O5 0.273507 0.500000 0.000344
O O6 0.281832 0.580285 0.788926
O O7 0.237360 0.615758 0.025214
O O8 0.327258 0.604954 0.024288
O O9 0.182476 0.182422 0.699493
O O10 0.156767 0.064059 0.588337
O O11 0.171418 0.194975 0.225591
O O12 0.169620 0.223317 0.953524
O O13 0.750000 0.250000 0.817794
O O14 0.500000 0.000000 0.864958
O O15 0.408442 0.000000 0.942384
O O16 0.908258 0.000000 0.720277
O O17 0.000000 0.000000 0.788271
#
# Coordination Sequence:
#
# PCOD9369858 Si02
#       8
#    16  16  16  16  16   8   8   8
#     4   9  20  41  63  90 116 155 204 252 308 375
#     4  11  21  38  55  85 121 158 202 244 309 350
#     4  11  24  36  56  82 124 163 201 253 294 365
#     4  11  24  38  65  84 119 164 206 254 299 360
#     4  11  23  41  58  87 121 169 214 247 294 363
#     4   9  21  39  63  91 123 156 198 255 321 380
#     4   9  17  33  61  87 121 156 194 243 303 370
#     4  12  21  36  56  96 126 154 201 256 318 360
#
# _framework density 19.009139999999999
#
# number of rings (size 3 to 8) (size 9 to 14) (size 15 to 20)
#    0.000    1.538    3.077    3.462    4.308    2.462 
#    0.000    0.769    0.000    1.846    0.000    0.000 
#    0.000    0.000    0.000    0.000    0.000    0.000 
#
# Total GULP energy -145256.625109 kJ/mol
# GULP energy per Si atom -5586.793273 kJ/mol
# Density = 1.896587 g / cm^3
# Si number density = 19.009140 Si / 1000 Ang^3
#
#
#
# Elastic Constant Matrix: (Units=GPa)
#
#
# Indices 1 2 3 4 5 6 
#
# 1 145.4117 17.2255 52.6684 0.0000 0.0000 0.0000
# 2 17.2255 35.0089 12.4110 0.0000 0.0000 0.0000
# 3 52.6684 12.4110 66.4937 0.0001 0.0000 -0.0001
# 4 0.0000 0.0000 0.0001 11.3300 0.0000 0.0000
# 5 0.0000 0.0000 0.0000 0.0000 33.2679 0.0000
# 6 0.0000 0.0000 -0.0001 0.0000 0.0000 21.8945
#
#
#
# Elastic Compliance Matrix: (Units=1/GPa)
#
#
# Indices 1 2 3 4 5 6 
#
# 1 0.009802 -0.002217 -0.007350 0.000000 0.000000 0.000000
# 2 -0.002217 0.031090 -0.004047 0.000000 0.000000 0.000000
# 3 -0.007350 -0.004047 0.021616 0.000000 0.000000 0.000000
# 4 0.000000 0.000000 0.000000 0.088261 0.000000 0.000000
# 5 0.000000 0.000000 0.000000 0.000000 0.030059 0.000000
# 6 0.000000 0.000000 0.000000 0.000000 0.000000 0.045673
#
#
# Mechanical properties :
#
#
# Convention : Reuss Voigt Hill
#
# Bulk Modulus (GPa) = 28.34476 45.72492 37.03484
# Shear Modulus (GPa) = 18.83317 24.27246 21.55282
#
# Velocity S-wave (km/s) = 3.15102 3.57723 3.37087
# Velocity P-wave (km/s) = 5.30868 6.41627 5.88857
#
# Compressibility (1/GPa) = 0.03527989
#
# Stress axis : x y z
#
# Youngs Moduli (GPa) = 102.02126 32.16501 46.26166
#
# Poissons Ratio (x) = 0.07132 0.34003
# Poissons Ratio (y) = 0.22620 0.18721
# Poissons Ratio (z) = 0.74986 0.13016
#
# Static dielectric constant tensor:
#      x y z
#    x 1.669950 0.000000 0.000000 
#    y 0.000000 1.667840 0.000000 
#    z 0.000000 0.000000 1.654780 
# 
# From -- ./inp_files/4385.got.cif
#   From: 2010.05.17/outbox.cif.g08.bks.cpg/sg42_3_cif.got.tgz:4385.got - 2010.06.03 19:03:34.
