data_PCOD9369654
_publ_section_title
;
Structure prediction by ZEFSAII (Michael W. Deem and Ramdas Pophale) SiO2 
 PCOD9369654
Probable space group: F M M 2
;
_chemical_formula_sum "Si O2"
_cell_formula_units_Z 96
_cell_length_a 32.716656
_cell_length_b 14.442921
_cell_length_c 10.597931
_cell_angle_alpha 90.000000
_cell_angle_beta 90.000000
_cell_angle_gamma 90.000000
_cell_volume 5007.777574
_symmetry_space_group_name_H-M "F M M 2"
_symmetry_group_IT_number 42
_symmetry_cell_setting 'orthorhombic'
loop_
_space_group_symop_operation_xyz
x,y,z
-x,-y,z
-x,y,z
x,-y,z
x,1/2+y,1/2+z
-x,1/2-y,1/2+z
-x,1/2+y,1/2+z
x,1/2-y,1/2+z
1/2+x,y,1/2+z
1/2-x,-y,1/2+z
1/2-x,y,1/2+z
1/2+x,-y,1/2+z
1/2+x,1/2+y,z
1/2-x,1/2-y,z
1/2-x,1/2+y,z
1/2+x,1/2-y,z
loop_
_atom_site_type_symbol
_atom_site_label
_atom_site_fract_x
_atom_site_fract_y
_atom_site_fract_z
Si Si1 0.500000 0.612717 0.567020
Si Si2 0.653502 0.252920 0.678236
Si Si3 0.215660 0.100556 0.085246
Si Si4 0.274173 0.155541 0.308966
Si Si5 0.411634 0.605449 0.269412
Si Si6 0.000000 0.612633 0.778519
Si Si7 0.910892 0.394403 0.072242
O O1 0.500000 0.500000 0.561666
O O2 0.500000 0.648307 0.422666
O O3 0.544317 0.636197 0.624099
O O4 0.686397 0.189487 0.603916
O O5 0.679831 0.314849 0.774816
O O6 0.623360 0.177558 0.738092
O O7 0.625081 0.323814 0.602740
O O8 0.252489 0.111530 0.186019
O O9 0.195985 0.000000 0.111508
O O10 0.229078 0.101542 0.939677
O O11 0.250000 0.250000 0.332528
O O12 0.403321 0.500000 0.225751
O O13 0.456347 0.636438 0.218908
O O14 0.415339 0.601126 0.420991
O O15 0.000000 0.500000 0.785191
O O16 0.902247 0.500000 0.115910
#
# Coordination Sequence:
#
# PCOD9369654 Si02
#       7
#     8  16  16  16  16   8  16
#     4   7  12  27  48  70  98 136 180 220 253 295
#     4  11  21  33  53  82 111 135 170 222 273 321
#     4  11  23  40  60  81 107 142 179 220 271 328
#     4  10  22  40  58  79 108 141 179 223 269 324
#     4   9  17  31  50  74 105 142 179 217 260 307
#     4   7  12  25  46  70 100 138 180 218 251 295
#     4   9  18  32  51  74 104 141 179 218 261 306
#
# _framework density 19.170180999999999
#
# number of rings (size 3 to 8) (size 9 to 14) (size 15 to 20)
#    0.000    2.500    0.000    5.500    0.000    3.333 
#    0.000    3.333    0.000    0.000    0.000    0.000 
#    0.000   12.000    0.000    0.000    0.000    0.000 
#
# Total GULP energy -133618.381101 kJ/mol
# GULP energy per Si atom -5567.432546 kJ/mol
# Density = 1.912655 g / cm^3
# Si number density = 19.170181 Si / 1000 Ang^3
#
#
#
# Elastic Constant Matrix: (Units=GPa)
#
#
# Indices 1 2 3 4 5 6 
#
# 1 116.1654 37.5865 39.0212 0.0000 0.0000 0.0000
# 2 37.5865 97.3955 29.4341 0.0000 0.0000 0.0000
# 3 39.0212 29.4341 70.1498 0.0000 0.0000 0.0000
# 4 0.0000 0.0000 0.0000 12.8984 0.0000 0.0000
# 5 0.0000 0.0000 0.0000 0.0000 16.6235 0.0000
# 6 0.0000 0.0000 0.0000 0.0000 0.0000 23.4172
#
#
#
# Elastic Compliance Matrix: (Units=1/GPa)
#
#
# Indices 1 2 3 4 5 6 
#
# 1 0.011215 -0.002797 -0.005065 0.000000 0.000000 0.000000
# 2 -0.002797 0.012456 -0.003670 0.000000 0.000000 0.000000
# 3 -0.005065 -0.003670 0.018612 0.000000 0.000000 0.000000
# 4 0.000000 0.000000 0.000000 0.077529 0.000000 0.000000
# 5 0.000000 0.000000 0.000000 0.000000 0.060156 0.000000
# 6 0.000000 0.000000 0.000000 0.000000 0.000000 0.042704
#
#
# Mechanical properties :
#
#
# Convention : Reuss Voigt Hill
#
# Bulk Modulus (GPa) = 52.03253 55.08826 53.56039
# Shear Modulus (GPa) = 19.83005 22.43242 21.13123
#
# Velocity S-wave (km/s) = 3.21973 3.42449 3.32369
# Velocity P-wave (km/s) = 6.40497 6.66596 6.53676
#
# Compressibility (1/GPa) = 0.01921875
#
# Stress axis : x y z
#
# Youngs Moduli (GPa) = 89.16808 80.28117 53.72748
#
# Poissons Ratio (x) = 0.22458 0.27210
# Poissons Ratio (y) = 0.24944 0.19720
# Poissons Ratio (z) = 0.45159 0.29467
#
# Static dielectric constant tensor:
#      x y z
#    x 1.728910 0.000000 0.000000 
#    y 0.000000 1.676420 0.000000 
#    z 0.000000 0.000000 1.660810 
# 
# From -- ./inp_files/11057.got.cif
#   From: 2010.05.17/outbox.cif.g08.bks.cpg/sg42_6_cif.got.tgz:11057.got - 2010.06.03 19:03:34.
