data_PCOD9369592
_publ_section_title
;
Structure prediction by ZEFSAII (Michael W. Deem and Ramdas Pophale) SiO2 
 PCOD9369592
Probable space group: F M M 2
;
_chemical_formula_sum "Si O2"
_cell_formula_units_Z 68
_cell_length_a 23.062391
_cell_length_b 16.576153
_cell_length_c 8.533377
_cell_angle_alpha 90.000000
_cell_angle_beta 90.000000
_cell_angle_gamma 90.000000
_cell_volume 3262.188186
_symmetry_space_group_name_H-M "F M M 2"
_symmetry_group_IT_number 42
_symmetry_cell_setting 'orthorhombic'
loop_
_space_group_symop_operation_xyz
x,y,z
-x,-y,z
-x,y,z
x,-y,z
x,1/2+y,1/2+z
-x,1/2-y,1/2+z
-x,1/2+y,1/2+z
x,1/2-y,1/2+z
1/2+x,y,1/2+z
1/2-x,-y,1/2+z
1/2-x,y,1/2+z
1/2+x,-y,1/2+z
1/2+x,1/2+y,z
1/2-x,1/2-y,z
1/2-x,1/2+y,z
1/2+x,1/2-y,z
loop_
_atom_site_type_symbol
_atom_site_label
_atom_site_fract_x
_atom_site_fract_y
_atom_site_fract_z
Si Si1 0.086497 0.147030 0.969150
Si Si2 0.500000 0.000000 0.399018
Si Si3 0.564279 0.820151 0.833901
Si Si4 0.825665 0.097106 0.486207
Si Si5 0.295027 0.402675 0.842892
O O1 0.070415 0.225699 0.869603
O O2 0.155130 0.131561 0.954278
O O3 0.050670 0.070708 0.907834
O O4 0.070658 0.162230 0.149913
O O5 0.500000 0.847309 0.884706
O O6 0.615354 0.864500 0.925773
O O7 0.769704 0.123970 0.386261
O O8 0.812531 0.118215 0.666029
O O9 0.830311 0.000000 0.474702
O O10 0.295495 0.500000 0.857377
#
# Coordination Sequence:
#
# PCOD9369592 Si02
#       5
#    16   4  16  16  16
#     4  12  25  44  71  99 139 179 227 276 340 401
#     4  12  24  44  72 102 130 188 222 270 340 412
#     4  12  25  43  65 100 140 175 225 282 337 397
#     4  10  23  41  67 100 138 179 228 280 341 400
#     4  10  21  42  67  99 133 179 230 282 333 403
#
# _framework density 20.844905000000001
#
# number of rings (size 3 to 8) (size 9 to 14) (size 15 to 20)
#    0.000    0.941    3.529    2.824    1.647    3.294 
#    2.118    4.706    0.000    1.412    0.000    0.000 
#    0.000    0.000    0.000    0.000    0.000    0.000 
#
# Total GULP energy -94868.337300 kJ/mol
# GULP energy per Si atom -5580.490429 kJ/mol
# Density = 2.079746 g / cm^3
# Si number density = 20.844905 Si / 1000 Ang^3
#
#
#
# Elastic Constant Matrix: (Units=GPa)
#
#
# Indices 1 2 3 4 5 6 
#
# 1 228.5507 56.5647 59.1191 0.0000 0.0000 0.0000
# 2 56.5647 51.1483 34.1831 0.0000 0.0000 0.0000
# 3 59.1191 34.1831 51.0686 -0.0001 0.0000 0.0000
# 4 0.0000 0.0000 -0.0001 14.1954 0.0000 0.0000
# 5 0.0000 0.0000 0.0000 0.0000 29.6073 0.0000
# 6 0.0000 0.0000 0.0000 0.0000 0.0000 17.8661
#
#
#
# Elastic Compliance Matrix: (Units=1/GPa)
#
#
# Indices 1 2 3 4 5 6 
#
# 1 0.006671 -0.004010 -0.005039 0.000000 0.000000 0.000000
# 2 -0.004010 0.037787 -0.020650 0.000000 0.000000 0.000000
# 3 -0.005039 -0.020650 0.039237 0.000000 0.000000 0.000000
# 4 0.000000 0.000000 0.000000 0.070445 0.000000 0.000000
# 5 0.000000 0.000000 0.000000 0.000000 0.033776 0.000000
# 6 0.000000 0.000000 0.000000 0.000000 0.000000 0.055972
#
#
# Mechanical properties :
#
#
# Convention : Reuss Voigt Hill
#
# Bulk Modulus (GPa) = 41.15831 70.05570 55.60700
# Shear Modulus (GPa) = 16.05730 24.39380 20.22555
#
# Velocity S-wave (km/s) = 2.77848 3.42461 3.11832
# Velocity P-wave (km/s) = 5.48463 7.02270 6.30077
#
# Compressibility (1/GPa) = 0.02429643
#
# Stress axis : x y z
#
# Youngs Moduli (GPa) = 149.89673 26.46416 25.48639
#
# Poissons Ratio (x) = 0.10613 0.12841
# Poissons Ratio (y) = 0.60115 0.52630
# Poissons Ratio (z) = 0.75526 0.54649
#
# Static dielectric constant tensor:
#      x y z
#    x 1.749310 0.000000 0.000000 
#    y 0.000000 1.722450 0.000000 
#    z 0.000000 0.000000 1.735810 
# 
# From -- ./inp_files/3276.got.cif
#   From: 2010.05.17/outbox.cif.g08.bks.cpg/sg42_2_cif.got.tgz:3276.got - 2010.06.03 19:03:34.
