data_PCOD9369815
_publ_section_title
;
Structure prediction by ZEFSAII (Michael W. Deem and Ramdas Pophale) SiO2 
 PCOD9369815
Probable space group: F M M 2
;
_chemical_formula_sum "Si O2"
_cell_formula_units_Z 64
_cell_length_a 16.823551
_cell_length_b 29.308593
_cell_length_c 5.279158
_cell_angle_alpha 90.000000
_cell_angle_beta 90.000000
_cell_angle_gamma 90.000000
_cell_volume 2603.018767
_symmetry_space_group_name_H-M "F M M 2"
_symmetry_group_IT_number 42
_symmetry_cell_setting 'orthorhombic'
loop_
_space_group_symop_operation_xyz
x,y,z
-x,-y,z
-x,y,z
x,-y,z
x,1/2+y,1/2+z
-x,1/2-y,1/2+z
-x,1/2+y,1/2+z
x,1/2-y,1/2+z
1/2+x,y,1/2+z
1/2-x,-y,1/2+z
1/2-x,y,1/2+z
1/2+x,-y,1/2+z
1/2+x,1/2+y,z
1/2-x,1/2-y,z
1/2-x,1/2+y,z
1/2+x,1/2-y,z
loop_
_atom_site_type_symbol
_atom_site_label
_atom_site_fract_x
_atom_site_fract_y
_atom_site_fract_z
Si Si1 0.092469 0.857534 0.290670
Si Si2 0.196655 0.603554 0.154748
Si Si3 0.658603 0.231054 0.556455
Si Si4 0.409147 0.450139 0.963760
O O1 0.125660 0.862188 0.576926
O O2 0.146554 0.820486 0.146192
O O3 0.000000 0.844384 0.284183
O O4 0.098610 0.907426 0.155998
O O5 0.250618 0.608008 0.403016
O O6 0.149340 0.557817 0.227877
O O7 0.621619 0.240218 0.285026
O O8 0.750000 0.250000 0.531538
O O9 0.500000 0.449048 0.873143
O O10 0.394024 0.500000 0.079834
#
# Coordination Sequence:
#
# PCOD9369815 Si02
#       4
#    16  16  16  16
#     4  11  26  48  79 117 158 206 264 323 391 472
#     4  12  26  45  74 106 149 196 251 316 383 456
#     4  10  25  44  73 106 150 198 257 314 387 462
#     4  10  24  49  78 111 158 212 266 324 390 465
#
# _framework density 24.586836999999999
#
# number of rings (size 3 to 8) (size 9 to 14) (size 15 to 20)
#    0.000    1.250    2.500    0.750   10.500    3.000 
#    0.000    2.500    0.000    0.000    0.000    0.000 
#    0.000    0.000    0.000    0.000    0.000    0.000 
#
# Total GULP energy -89266.006513 kJ/mol
# GULP energy per Si atom -5579.125407 kJ/mol
# Density = 2.453088 g / cm^3
# Si number density = 24.586837 Si / 1000 Ang^3
#
#
#
# Elastic Constant Matrix: (Units=GPa)
#
#
# Indices 1 2 3 4 5 6 
#
# 1 121.3214 46.5619 37.7191 0.0001 -0.0091 0.0001
# 2 46.5619 168.8110 31.5571 -0.0005 0.0005 0.0001
# 3 37.7191 31.5571 128.8280 0.0017 -0.0156 0.0001
# 4 0.0001 -0.0005 0.0017 36.3404 -0.0009 0.0000
# 5 -0.0091 0.0005 -0.0156 -0.0009 34.2305 0.0002
# 6 0.0001 0.0001 0.0001 0.0000 0.0002 34.6247
#
#
#
# Elastic Compliance Matrix: (Units=1/GPa)
#
#
# Indices 1 2 3 4 5 6 
#
# 1 0.009840 -0.002280 -0.002322 0.000000 0.000002 0.000000
# 2 -0.002280 0.006736 -0.000983 0.000000 -0.000001 0.000000
# 3 -0.002322 -0.000983 0.008683 0.000000 0.000003 0.000000
# 4 0.000000 0.000000 0.000000 0.027518 0.000001 0.000000
# 5 0.000002 -0.000001 0.000003 0.000001 0.029214 0.000000
# 6 0.000000 0.000000 0.000000 0.000000 0.000000 0.028881
#
#
# Mechanical properties :
#
#
# Convention : Reuss Voigt Hill
#
# Bulk Modulus (GPa) = 70.97673 72.29296 71.63484
# Shear Modulus (GPa) = 39.45168 41.24729 40.34948
#
# Velocity S-wave (km/s) = 4.01007 4.10032 4.05545
# Velocity P-wave (km/s) = 7.09728 7.20304 7.15035
#
# Compressibility (1/GPa) = 0.01408913
#
# Stress axis : x y z
#
# Youngs Moduli (GPa) = 101.63014 148.44952 115.16816
#
# Poissons Ratio (x) = 0.33844 0.26747
# Poissons Ratio (y) = 0.23170 0.11316
# Poissons Ratio (z) = 0.23603 0.14586
#
# Static dielectric constant tensor:
#      x y z
#    x 1.924510 0.000000 0.000000 
#    y 0.000000 2.028400 0.000000 
#    z 0.000000 0.000000 2.021970 
# 
# From -- ./inp_files/575.got.cif
#   From: 2010.05.17/outbox.cif.g08.bks.cpg/sg42_1_cif.got.tgz:575.got - 2010.06.03 19:03:34.
