data_PCOD9369648
_publ_section_title
;
Structure prediction by ZEFSAII (Michael W. Deem and Ramdas Pophale) SiO2 
 PCOD9369648
Probable space group: F M M 2
;
_chemical_formula_sum "Si O2"
_cell_formula_units_Z 96
_cell_length_a 13.574856
_cell_length_b 14.406099
_cell_length_c 22.868509
_cell_angle_alpha 90.000000
_cell_angle_beta 90.000000
_cell_angle_gamma 90.000000
_cell_volume 4472.182073
_symmetry_space_group_name_H-M "F M M 2"
_symmetry_group_IT_number 42
_symmetry_cell_setting 'orthorhombic'
loop_
_space_group_symop_operation_xyz
x,y,z
-x,-y,z
-x,y,z
x,-y,z
x,1/2+y,1/2+z
-x,1/2-y,1/2+z
-x,1/2+y,1/2+z
x,1/2-y,1/2+z
1/2+x,y,1/2+z
1/2-x,-y,1/2+z
1/2-x,y,1/2+z
1/2+x,-y,1/2+z
1/2+x,1/2+y,z
1/2-x,1/2-y,z
1/2-x,1/2+y,z
1/2+x,1/2-y,z
loop_
_atom_site_type_symbol
_atom_site_label
_atom_site_fract_x
_atom_site_fract_y
_atom_site_fract_z
Si Si1 0.390289 0.897404 0.314490
Si Si2 0.000000 0.109124 0.093695
Si Si3 0.306108 0.110537 0.980403
Si Si4 0.711190 0.607379 0.091322
Si Si5 0.500000 0.394052 0.235519
Si Si6 0.719292 0.854428 0.727142
Si Si7 0.611277 0.297995 0.932389
O O1 0.500000 0.886612 0.287162
O O2 0.300926 0.896818 0.269410
O O3 0.379237 0.818465 0.363158
O O4 0.389709 0.000000 0.343369
O O5 0.895109 0.153019 0.077777
O O6 0.000000 0.108844 0.164668
O O7 0.000000 0.000000 0.076264
O O8 0.369762 0.189841 0.948097
O O9 0.195188 0.136157 0.959653
O O10 0.329441 0.000000 0.971508
O O11 0.300045 0.137232 0.049613
O O12 0.700714 0.500000 0.074700
O O13 0.724696 0.608322 0.160867
O O14 0.500000 0.500000 0.254973
O O15 0.607793 0.357042 0.251710
O O16 0.750000 0.750000 0.720746
O O17 0.500000 0.324174 0.949432
#
# Coordination Sequence:
#
# PCOD9369648 Si02
#       7
#    16   8  16  16   8  16  16
#     4  10  22  43  69  93 124 170 222 276 331 391
#     4   7  12  26  52  81 114 155 205 248 287 363
#     4  10  22  39  65  94 126 163 209 265 321 378
#     4   9  18  35  57  88 125 166 210 254 317 388
#     4   9  18  38  60  85 121 167 211 250 308 385
#     4  11  23  35  62  94 133 168 209 270 323 387
#     4  10  23  42  65  91 124 165 218 267 314 379
#
# _framework density 21.466031000000001
#
# number of rings (size 3 to 8) (size 9 to 14) (size 15 to 20)
#    0.000    2.333    0.000    3.000    7.000    1.333 
#    0.000    0.833    0.000    1.000    0.000    0.000 
#    0.000    0.000    0.000    0.000    0.000    0.000 
#
# Total GULP energy -133657.339127 kJ/mol
# GULP energy per Si atom -5569.055797 kJ/mol
# Density = 2.141717 g / cm^3
# Si number density = 21.466031 Si / 1000 Ang^3
#
#
#
# Elastic Constant Matrix: (Units=GPa)
#
#
# Indices 1 2 3 4 5 6 
#
# 1 114.3219 11.9222 41.9803 0.0000 0.0000 0.0000
# 2 11.9222 81.1252 10.3129 0.0000 0.0000 0.0000
# 3 41.9803 10.3129 72.8899 0.0000 0.0000 0.0000
# 4 0.0000 0.0000 0.0000 26.8592 0.0000 0.0000
# 5 0.0000 0.0000 0.0000 0.0000 29.6752 0.0000
# 6 0.0000 0.0000 0.0000 0.0000 0.0000 45.9904
#
#
#
# Elastic Compliance Matrix: (Units=1/GPa)
#
#
# Indices 1 2 3 4 5 6 
#
# 1 0.011149 -0.000837 -0.006303 0.000000 0.000000 0.000000
# 2 -0.000837 0.012615 -0.001303 0.000000 0.000000 0.000000
# 3 -0.006303 -0.001303 0.017534 0.000000 0.000000 0.000000
# 4 0.000000 0.000000 0.000000 0.037231 0.000000 0.000000
# 5 0.000000 0.000000 0.000000 0.000000 0.033698 0.000000
# 6 0.000000 0.000000 0.000000 0.000000 0.000000 0.021744
#
#
# Mechanical properties :
#
#
# Convention : Reuss Voigt Hill
#
# Bulk Modulus (GPa) = 40.96242 44.08531 42.52386
# Shear Modulus (GPa) = 31.44778 34.11305 32.78042
#
# Velocity S-wave (km/s) = 3.83169 3.99076 3.91203
# Velocity P-wave (km/s) = 6.22090 6.46658 6.34493
#
# Compressibility (1/GPa) = 0.02441262
#
# Stress axis : x y z
#
# Youngs Moduli (GPa) = 89.69443 79.26901 57.03330
#
# Poissons Ratio (x) = 0.06637 0.35946
# Poissons Ratio (y) = 0.07510 0.07430
# Poissons Ratio (z) = 0.56532 0.10326
#
# Static dielectric constant tensor:
#      x y z
#    x 1.784680 0.000000 0.000000 
#    y 0.000000 1.850510 0.000000 
#    z 0.000000 0.000000 1.886710 
# 
# From -- ./inp_files/25139.got.cif
#   From: 2010.05.17/outbox.cif.g08.bks.cpg/sg42_13_cif.got.tgz:25139.got - 2010.06.03 19:03:34.
