data_PCOD9369334
_publ_section_title
;
Structure prediction by ZEFSAII (Michael W. Deem and Ramdas Pophale) SiO2 
 PCOD9369334
Probable space group: F M M 2
;
_chemical_formula_sum "Si O2"
_cell_formula_units_Z 100
_cell_length_a 30.225790
_cell_length_b 7.758398
_cell_length_c 20.533096
_cell_angle_alpha 90.000000
_cell_angle_beta 90.000000
_cell_angle_gamma 90.000000
_cell_volume 4815.087163
_symmetry_space_group_name_H-M "F M M 2"
_symmetry_group_IT_number 42
_symmetry_cell_setting 'orthorhombic'
loop_
_space_group_symop_operation_xyz
x,y,z
-x,-y,z
-x,y,z
x,-y,z
x,1/2+y,1/2+z
-x,1/2-y,1/2+z
-x,1/2+y,1/2+z
x,1/2-y,1/2+z
1/2+x,y,1/2+z
1/2-x,-y,1/2+z
1/2-x,y,1/2+z
1/2+x,-y,1/2+z
1/2+x,1/2+y,z
1/2-x,1/2-y,z
1/2-x,1/2+y,z
1/2+x,1/2-y,z
loop_
_atom_site_type_symbol
_atom_site_label
_atom_site_fract_x
_atom_site_fract_y
_atom_site_fract_z
Si Si1 0.636668 0.206690 0.333200
Si Si2 0.299835 0.794421 0.446314
Si Si3 0.834586 0.203548 0.586004
Si Si4 0.298921 0.206592 0.221795
Si Si5 0.567647 0.299086 0.114620
Si Si6 0.500000 0.500000 0.576034
Si Si7 0.049874 0.205948 0.264968
O O1 0.662116 0.271789 0.397183
O O2 0.664060 0.274090 0.270959
O O3 0.585489 0.243305 0.319187
O O4 0.640853 0.000000 0.334383
O O5 0.250000 0.750000 0.424807
O O6 0.309161 0.729977 0.518889
O O7 0.302857 0.000000 0.448119
O O8 0.807384 0.269359 0.648545
O O9 0.882569 0.290014 0.588199
O O10 0.842079 0.000000 0.594660
O O11 0.250000 0.250000 0.244730
O O12 0.302332 0.000000 0.221165
O O13 0.552557 0.500000 0.109831
O O14 0.538102 0.154696 0.079979
O O15 0.565901 0.248235 0.191802
O O16 0.000000 0.275092 0.274029
O O17 0.047465 0.000000 0.266231
#
# Coordination Sequence:
#
# PCOD9369334 Si02
#       7
#    16  16  16  16  16   4  16
#     4  10  22  39  61  87 121 162 209 262 321 384
#     4  11  24  42  63  89 123 169 217 264 321 393
#     4  11  22  39  63  90 125 168 211 264 328 382
#     4  10  21  35  56  87 120 154 202 258 322 387
#     4  11  22  37  61  97 131 170 217 267 320 389
#     4  12  22  36  64  94 136 172 218 260 334 374
#     4  10  21  36  59  92 126 160 207 260 318 382
#
# _framework density 20.768056000000001
#
# number of rings (size 3 to 8) (size 9 to 14) (size 15 to 20)
#    0.000    1.440    3.200    2.160    1.120    4.800 
#    0.000    0.000    1.760    0.000    0.000    0.000 
#    0.000    0.000    0.000    0.000    0.000    0.000 
#
# Total GULP energy -139358.059935 kJ/mol
# GULP energy per Si atom -5574.322397 kJ/mol
# Density = 2.072079 g / cm^3
# Si number density = 20.768056 Si / 1000 Ang^3
#
#
#
# Elastic Constant Matrix: (Units=GPa)
#
#
# Indices 1 2 3 4 5 6 
#
# 1 111.4439 0.8539 17.5340 0.0000 0.0000 -0.0001
# 2 0.8539 73.6134 -1.2978 0.0000 0.0000 0.0000
# 3 17.5340 -1.2978 74.2312 0.0000 0.0000 0.0000
# 4 0.0000 0.0000 0.0000 19.0400 0.0000 0.0000
# 5 0.0000 0.0000 0.0000 0.0000 70.2513 0.0000
# 6 -0.0001 0.0000 0.0000 0.0000 0.0000 29.2699
#
#
#
# Elastic Compliance Matrix: (Units=1/GPa)
#
#
# Indices 1 2 3 4 5 6 
#
# 1 0.009321 -0.000147 -0.002204 0.000000 0.000000 0.000000
# 2 -0.000147 0.013591 0.000272 0.000000 0.000000 0.000000
# 3 -0.002204 0.000272 0.013997 0.000000 0.000000 0.000000
# 4 0.000000 0.000000 0.000000 0.052521 0.000000 0.000000
# 5 0.000000 0.000000 0.000000 0.000000 0.014235 0.000000
# 6 0.000000 0.000000 0.000000 0.000000 0.000000 0.034165
#
#
# Mechanical properties :
#
#
# Convention : Reuss Voigt Hill
#
# Bulk Modulus (GPa) = 30.53339 32.60765 31.57052
# Shear Modulus (GPa) = 32.70023 39.85879 36.27951
#
# Velocity S-wave (km/s) = 3.97236 4.38566 4.18412
# Velocity P-wave (km/s) = 5.98110 6.43275 6.21103
#
# Compressibility (1/GPa) = 0.03275103
#
# Stress axis : x y z
#
# Youngs Moduli (GPa) = 107.28391 73.57814 71.44463
#
# Poissons Ratio (x) = 0.01081 0.15748
# Poissons Ratio (y) = 0.01577 -0.01946
# Poissons Ratio (z) = 0.23648 -0.02004
#
# Static dielectric constant tensor:
#      x y z
#    x 1.749970 0.000000 0.000000 
#    y 0.000000 1.755020 0.000000 
#    z 0.000000 0.000000 1.746560 
# 
# From -- ./inp_files/23799.got.cif
#   From: 2010.05.17/outbox.cif.g08.bks.cpg/sg42_12_cif.got.tgz:23799.got - 2010.06.03 19:03:34.
