data_PCOD9369063
_publ_section_title
;
Structure prediction by ZEFSAII (Michael W. Deem and Ramdas Pophale) SiO2 
 PCOD9369063
Probable space group: F M M 2
;
_chemical_formula_sum "Si O2"
_cell_formula_units_Z 80
_cell_length_a 7.492644
_cell_length_b 16.163170
_cell_length_c 30.162632
_cell_angle_alpha 90.000000
_cell_angle_beta 90.000000
_cell_angle_gamma 90.000000
_cell_volume 3652.841890
_symmetry_space_group_name_H-M "F M M 2"
_symmetry_group_IT_number 42
_symmetry_cell_setting 'orthorhombic'
loop_
_space_group_symop_operation_xyz
x,y,z
-x,-y,z
-x,y,z
x,-y,z
x,1/2+y,1/2+z
-x,1/2-y,1/2+z
-x,1/2+y,1/2+z
x,1/2-y,1/2+z
1/2+x,y,1/2+z
1/2-x,-y,1/2+z
1/2-x,y,1/2+z
1/2+x,-y,1/2+z
1/2+x,1/2+y,z
1/2-x,1/2-y,z
1/2-x,1/2+y,z
1/2+x,1/2-y,z
loop_
_atom_site_type_symbol
_atom_site_label
_atom_site_fract_x
_atom_site_fract_y
_atom_site_fract_z
Si Si1 0.285621 0.000000 0.120570
Si Si2 0.213631 0.000000 0.224606
Si Si3 0.285595 0.347310 0.561805
Si Si4 0.786778 0.847072 0.462987
Si Si5 0.716317 0.405909 0.368810
Si Si6 0.286435 0.159097 0.777804
O O1 0.246332 0.000000 0.172436
O O2 0.220042 0.083935 0.096415
O O3 0.500000 0.000000 0.116001
O O4 0.282149 0.083282 0.248251
O O5 0.000000 0.000000 0.230806
O O6 0.500000 0.353480 0.560529
O O7 0.250000 0.250000 0.571194
O O8 0.218391 0.368787 0.512050
O O9 0.750000 0.750000 0.457789
O O10 0.715990 0.888728 0.418298
O O11 0.000000 0.861944 0.464063
O O12 0.500000 0.397418 0.371169
O O13 0.754918 0.500000 0.355987
O O14 0.781505 0.349421 0.328469
O O15 0.500000 0.150448 0.780073
O O16 0.250000 0.250000 0.759670
#
# Coordination Sequence:
#
# PCOD9369063 Si02
#       6
#     8   8  16  16  16  16
#     4  10  22  38  57  79 105 135 174 224 269 310
#     4  10  22  40  57  77 105 137 176 218 265 322
#     4   9  19  35  54  79 109 139 174 216 260 309
#     4   9  17  29  49  75 104 137 172 208 249 301
#     4   9  16  28  50  78 106 138 175 210 248 304
#     4  10  20  36  57  80 107 139 175 215 260 311
#
# _framework density 21.900755
#
# number of rings (size 3 to 8) (size 9 to 14) (size 15 to 20)
#    0.000    2.600    1.000    0.600    1.400    2.400 
#    0.000    4.000    0.000    1.800    0.000    0.000 
#    0.000    0.000    0.000    0.000    0.000    0.000 
#
# Total GULP energy -111599.841809 kJ/mol
# GULP energy per Si atom -5579.992090 kJ/mol
# Density = 2.185091 g / cm^3
# Si number density = 21.900755 Si / 1000 Ang^3
#
#
#
# Elastic Constant Matrix: (Units=GPa)
#
#
# Indices 1 2 3 4 5 6 
#
# 1 62.9521 1.1405 5.7291 0.0000 0.0000 0.0000
# 2 1.1405 152.0843 108.3319 0.0000 0.0000 0.0000
# 3 5.7291 108.3319 162.0077 0.0000 0.0000 0.0000
# 4 0.0000 0.0000 0.0000 21.4029 0.0000 0.0000
# 5 0.0000 0.0000 0.0000 0.0000 10.3788 0.0000
# 6 0.0000 0.0000 0.0000 0.0000 0.0000 18.7459
#
#
#
# Elastic Compliance Matrix: (Units=1/GPa)
#
#
# Indices 1 2 3 4 5 6 
#
# 1 0.015960 0.000539 -0.000925 0.000000 0.000000 0.000000
# 2 0.000539 0.012574 -0.008427 0.000000 0.000000 0.000000
# 3 -0.000925 -0.008427 0.011840 0.000000 0.000000 0.000000
# 4 0.000000 0.000000 0.000000 0.046723 0.000000 0.000000
# 5 0.000000 0.000000 0.000000 0.000000 0.096350 0.000000
# 6 0.000000 0.000000 0.000000 0.000000 0.000000 0.053345
#
#
# Mechanical properties :
#
#
# Convention : Reuss Voigt Hill
#
# Bulk Modulus (GPa) = 43.95967 67.49411 55.72689
# Shear Modulus (GPa) = 19.08398 27.56170 23.32284
#
# Velocity S-wave (km/s) = 2.95513 3.55136 3.26687
# Velocity P-wave (km/s) = 5.63555 6.90661 6.30320
#
# Compressibility (1/GPa) = 0.02274812
#
# Stress axis : x y z
#
# Youngs Moduli (GPa) = 62.65857 79.52922 84.45723
#
# Poissons Ratio (x) = -0.04288 0.07811
# Poissons Ratio (y) = -0.03378 0.71173
# Poissons Ratio (z) = 0.05795 0.67020
#
# Static dielectric constant tensor:
#      x y z
#    x 1.878810 0.000000 0.000000 
#    y 0.000000 1.778170 0.000000 
#    z 0.000000 0.000000 1.798710 
# 
# From -- ./inp_files/28642.got.cif
#   From: 2010.05.17/outbox.cif.g08.bks.cpg/sg42_15_cif.got.tgz:28642.got - 2010.06.03 19:03:34.
