data_PCOD9370628
_publ_section_title
;
Structure prediction by ZEFSAII (Michael W. Deem and Ramdas Pophale) SiO2 
 PCOD9370628
Probable space group: F D D 2
;
_chemical_formula_sum "Si O2"
_cell_formula_units_Z 112
_cell_length_a 18.469743
_cell_length_b 10.489897
_cell_length_c 30.135992
_cell_angle_alpha 90.000000
_cell_angle_beta 90.000000
_cell_angle_gamma 90.000000
_cell_volume 5838.718916
_symmetry_space_group_name_H-M "F D D 2"
_symmetry_group_IT_number 43
_symmetry_cell_setting 'orthorhombic'
loop_
_space_group_symop_operation_xyz
x,y,z
-x,-y,z
1/4-x,1/4+y,1/4+z
1/4+x,1/4-y,1/4+z
x,1/2+y,1/2+z
-x,1/2-y,1/2+z
1/4-x,3/4+y,3/4+z
1/4+x,3/4-y,3/4+z
1/2+x,y,1/2+z
1/2-x,-y,1/2+z
3/4-x,1/4+y,3/4+z
3/4+x,1/4-y,3/4+z
1/2+x,1/2+y,z
1/2-x,1/2-y,z
3/4-x,3/4+y,1/4+z
3/4+x,3/4-y,1/4+z
loop_
_atom_site_type_symbol
_atom_site_label
_atom_site_fract_x
_atom_site_fract_y
_atom_site_fract_z
Si Si1 0.416031 0.494321 0.270680
Si Si2 0.442415 0.248937 0.224221
Si Si3 0.079646 0.218285 0.776937
Si Si4 0.251104 0.952314 0.380918
Si Si5 0.164642 0.491865 0.225040
Si Si6 0.625370 0.011686 0.126512
Si Si7 0.980448 0.646884 0.546700
O O1 0.500000 0.500000 0.287323
O O2 0.416799 0.393550 0.230531
O O3 0.394974 0.640314 0.261219
O O4 0.354611 0.428086 0.300312
O O5 0.495961 0.209619 0.263779
O O6 0.491916 0.251646 0.180570
O O7 0.380739 0.141365 0.224665
O O8 0.086810 0.227294 0.830194
O O9 0.121707 0.104327 0.751610
O O10 0.173301 0.888324 0.373161
O O11 0.313666 0.846075 0.380617
O O12 0.266095 0.049085 0.341368
O O13 0.170477 0.520523 0.172303
O O14 0.236749 0.467800 0.253548
O O15 0.000000 0.500000 0.542108
#
# Coordination Sequence:
#
# PCOD9370628 Si02
#       7
#    16  16  16  16  16  16  16
#     4  10  23  40  64  87 130 170 206 262 342 397
#     4  10  21  41  63  90 127 173 207 261 329 401
#     4  11  20  37  67  90 125 167 211 267 319 392
#     4  10  20  37  64  91 124 165 221 262 317 400
#     4  11  22  39  65  96 125 167 223 272 323 387
#     4  10  20  37  62  96 124 165 216 272 322 391
#     4  12  23  40  66  96 130 169 220 284 332 393
#
# _framework density 19.182290999999999
#
# number of rings (size 3 to 8) (size 9 to 14) (size 15 to 20)
#    0.000    1.429    5.714    0.429    0.000    2.286 
#    0.000    2.857   22.000    0.000    0.000    0.000 
#    0.000    0.000    0.000    0.000    0.000    0.000 
#
# Total GULP energy -155872.685703 kJ/mol
# GULP energy per Si atom -5566.881632 kJ/mol
# Density = 1.913863 g / cm^3
# Si number density = 19.182291 Si / 1000 Ang^3
#
#
#
# Elastic Constant Matrix: (Units=GPa)
#
#
# Indices 1 2 3 4 5 6 
#
# 1 53.5695 16.7527 27.4799 0.0000 0.0000 0.0000
# 2 16.7527 93.9787 24.1152 0.0000 0.0000 0.0000
# 3 27.4799 24.1152 148.8346 0.0000 0.0000 0.0000
# 4 0.0000 0.0000 0.0000 29.0909 0.0000 0.0000
# 5 0.0000 0.0000 0.0000 0.0000 24.3197 0.0000
# 6 0.0000 0.0000 0.0000 0.0000 0.0000 12.9235
#
#
#
# Elastic Compliance Matrix: (Units=1/GPa)
#
#
# Indices 1 2 3 4 5 6 
#
# 1 0.021360 -0.002917 -0.003471 0.000000 0.000000 0.000000
# 2 -0.002917 0.011501 -0.001325 0.000000 0.000000 0.000000
# 3 -0.003471 -0.001325 0.007574 0.000000 0.000000 0.000000
# 4 0.000000 0.000000 0.000000 0.034375 0.000000 0.000000
# 5 0.000000 0.000000 0.000000 0.000000 0.041119 0.000000
# 6 0.000000 0.000000 0.000000 0.000000 0.000000 0.077378
#
#
# Mechanical properties :
#
#
# Convention : Reuss Voigt Hill
#
# Bulk Modulus (GPa) = 39.98515 48.11980 44.05247
# Shear Modulus (GPa) = 23.03407 28.46917 25.75162
#
# Velocity S-wave (km/s) = 3.46901 3.85663 3.66795
# Velocity P-wave (km/s) = 6.07746 6.70608 6.39949
#
# Compressibility (1/GPa) = 0.02500929
#
# Stress axis : x y z
#
# Youngs Moduli (GPa) = 46.81609 86.95160 132.02321
#
# Poissons Ratio (x) = 0.25363 0.45828
# Poissons Ratio (y) = 0.13656 0.17491
# Poissons Ratio (z) = 0.16251 0.11520
#
# Static dielectric constant tensor:
#      x y z
#    x 1.688930 0.000000 0.000000 
#    y 0.000000 1.709900 0.000000 
#    z 0.000000 0.000000 1.710410 
# 
# From -- ./inp_files/26417.got.cif
#   From: 2010.05.17/outbox.cif.g08.bks.cpg/sg43_14_cif.got.tgz:26417.got - 2010.06.03 19:21:55.
