data_PCOD9370770
_publ_section_title
;
Structure prediction by ZEFSAII (Michael W. Deem and Ramdas Pophale) SiO2 
 PCOD9370770
Probable space group: F D D 2
;
_chemical_formula_sum "Si O2"
_cell_formula_units_Z 104
_cell_length_a 26.481622
_cell_length_b 21.015783
_cell_length_c 8.013734
_cell_angle_alpha 90.000000
_cell_angle_beta 90.000000
_cell_angle_gamma 90.000000
_cell_volume 4459.899582
_symmetry_space_group_name_H-M "F D D 2"
_symmetry_group_IT_number 43
_symmetry_cell_setting 'orthorhombic'
loop_
_space_group_symop_operation_xyz
x,y,z
-x,-y,z
1/4-x,1/4+y,1/4+z
1/4+x,1/4-y,1/4+z
x,1/2+y,1/2+z
-x,1/2-y,1/2+z
1/4-x,3/4+y,3/4+z
1/4+x,3/4-y,3/4+z
1/2+x,y,1/2+z
1/2-x,-y,1/2+z
3/4-x,1/4+y,3/4+z
3/4+x,1/4-y,3/4+z
1/2+x,1/2+y,z
1/2-x,1/2-y,z
3/4-x,3/4+y,1/4+z
3/4+x,3/4-y,1/4+z
loop_
_atom_site_type_symbol
_atom_site_label
_atom_site_fract_x
_atom_site_fract_y
_atom_site_fract_z
Si Si1 0.788861 0.627630 0.584150
Si Si2 0.520574 0.285878 0.149096
Si Si3 0.500000 0.000000 0.237460
Si Si4 0.075025 0.573086 0.476743
Si Si5 0.928439 0.787717 0.906262
Si Si6 0.582121 0.003292 0.010616
Si Si7 0.106108 0.241859 0.434996
O O1 0.736638 0.591111 0.538210
O O2 0.801373 0.660672 0.407625
O O3 0.801925 0.682242 0.716446
O O4 0.826596 0.570829 0.632767
O O5 0.535877 0.222246 0.245845
O O6 0.467142 0.278907 0.057541
O O7 0.565798 0.292060 0.015510
O O8 0.467468 0.954065 0.355306
O O9 0.541649 0.965714 0.120485
O O10 0.093463 0.641278 0.411468
O O11 0.117028 0.521861 0.524842
O O12 0.882072 0.740134 0.874711
O O13 0.603818 0.978314 0.834303
#
# Coordination Sequence:
#
# PCOD9370770 Si02
#       7
#    16  16   8  16  16  16  16
#     4  10  22  47  72 103 147 185 248 304 369 464
#     4  10  20  39  71 107 137 180 245 296 364 442
#     4  12  28  48  66 110 154 192 244 308 372 446
#     4  10  26  45  69 105 151 189 253 303 374 451
#     4  10  22  43  67 104 140 186 242 298 366 445
#     4  10  26  46  67 107 145 194 243 304 372 441
#     4  10  22  47  71 105 144 197 246 303 379 444
#
# _framework density 23.318909999999999
#
# number of rings (size 3 to 8) (size 9 to 14) (size 15 to 20)
#    0.000    1.846    1.538    0.000    8.615    4.923 
#   22.154    0.000    0.000    0.000    0.000    0.000 
#    0.000    0.000    0.000    0.000    0.000    0.000 
#
# Total GULP energy -144979.873861 kJ/mol
# GULP energy per Si atom -5576.148995 kJ/mol
# Density = 2.326584 g / cm^3
# Si number density = 23.318910 Si / 1000 Ang^3
#
#
#
# Elastic Constant Matrix: (Units=GPa)
#
#
# Indices 1 2 3 4 5 6 
#
# 1 125.3825 34.1178 69.8035 0.0002 -0.0002 -0.0002
# 2 34.1178 52.8394 34.4512 0.0007 -0.0007 -0.0005
# 3 69.8035 34.4512 115.8112 0.0028 -0.0020 -0.0017
# 4 0.0002 0.0007 0.0028 19.6702 -0.0012 -0.0011
# 5 -0.0002 -0.0007 -0.0020 -0.0012 61.9956 0.0012
# 6 -0.0002 -0.0005 -0.0017 -0.0011 0.0012 16.0592
#
#
#
# Elastic Compliance Matrix: (Units=1/GPa)
#
#
# Indices 1 2 3 4 5 6 
#
# 1 0.012639 -0.003962 -0.006439 0.000001 0.000000 -0.000001
# 2 -0.003962 0.024721 -0.004966 0.000000 0.000000 0.000000
# 3 -0.006439 -0.004966 0.013993 -0.000002 0.000000 0.000001
# 4 0.000001 0.000000 -0.000002 0.050838 0.000001 0.000003
# 5 0.000000 0.000000 0.000000 0.000001 0.016130 -0.000001
# 6 -0.000001 0.000000 0.000001 0.000003 -0.000001 0.062270
#
#
# Mechanical properties :
#
#
# Convention : Reuss Voigt Hill
#
# Bulk Modulus (GPa) = 48.49984 63.41979 55.95982
# Shear Modulus (GPa) = 22.91494 29.92236 26.41865
#
# Velocity S-wave (km/s) = 3.13817 3.58604 3.36955
# Velocity P-wave (km/s) = 5.82876 6.66348 6.26005
#
# Compressibility (1/GPa) = 0.02061862
#
# Stress axis : x y z
#
# Youngs Moduli (GPa) = 79.12313 40.45077 71.46448
#
# Poissons Ratio (x) = 0.16028 0.46016
# Poissons Ratio (y) = 0.31351 0.35488
# Poissons Ratio (z) = 0.50947 0.20087
#
# Static dielectric constant tensor:
#      x y z
#    x 1.921140 0.000000 0.000000 
#    y 0.000000 1.900700 0.000000 
#    z 0.000000 0.000000 1.977940 
# 
# From -- ./inp_files/4757.got.cif
#   From: 2010.05.17/outbox.cif.g08.bks.cpg/sg43_3_cif.got.tgz:4757.got - 2010.06.03 19:21:55.
