data_PCOD9370328
_publ_section_title
;
Structure prediction by ZEFSAII (Michael W. Deem and Ramdas Pophale) SiO2 
 PCOD9370328
Probable space group: F D D 2
;
_chemical_formula_sum "Si O2"
_cell_formula_units_Z 120
_cell_length_a 19.494255
_cell_length_b 11.684263
_cell_length_c 25.815921
_cell_angle_alpha 90.000000
_cell_angle_beta 90.000000
_cell_angle_gamma 90.000000
_cell_volume 5880.247284
_symmetry_space_group_name_H-M "F D D 2"
_symmetry_group_IT_number 43
_symmetry_cell_setting 'orthorhombic'
loop_
_space_group_symop_operation_xyz
x,y,z
-x,-y,z
1/4-x,1/4+y,1/4+z
1/4+x,1/4-y,1/4+z
x,1/2+y,1/2+z
-x,1/2-y,1/2+z
1/4-x,3/4+y,3/4+z
1/4+x,3/4-y,3/4+z
1/2+x,y,1/2+z
1/2-x,-y,1/2+z
3/4-x,1/4+y,3/4+z
3/4+x,1/4-y,3/4+z
1/2+x,1/2+y,z
1/2-x,1/2-y,z
3/4-x,3/4+y,1/4+z
3/4+x,3/4-y,1/4+z
loop_
_atom_site_type_symbol
_atom_site_label
_atom_site_fract_x
_atom_site_fract_y
_atom_site_fract_z
Si Si1 0.013764 0.133450 0.684740
Si Si2 0.470282 0.370653 0.035811
Si Si3 0.582099 0.194978 0.074628
Si Si4 0.868829 0.143670 0.877713
Si Si5 0.932539 0.686200 0.763747
Si Si6 0.500000 0.000000 0.691918
Si Si7 0.132908 0.766651 0.710354
Si Si8 0.823445 0.594947 0.566311
O O1 0.050305 0.158748 0.629719
O O2 0.056169 0.199332 0.729970
O O3 0.936941 0.184191 0.686949
O O4 0.000000 0.000000 0.693680
O O5 0.500000 0.500000 0.048968
O O6 0.526965 0.274653 0.044680
O O7 0.407294 0.340586 0.074046
O O8 0.436550 0.389759 0.979998
O O9 0.610458 0.088731 0.041174
O O10 0.647654 0.280428 0.079714
O O11 0.798462 0.172142 0.907531
O O12 0.903752 0.261029 0.861746
O O13 0.911744 0.066394 0.916397
O O14 0.950901 0.580407 0.725558
O O15 0.993749 0.674876 0.805483
O O16 0.109536 0.696107 0.762016
#
# Coordination Sequence:
#
# PCOD9370328 Si02
#       8
#    16  16  16  16  16   8  16  16
#     4  11  25  46  65  92 137 189 229 277 358 436
#     4  11  20  34  59 103 135 162 224 293 332 407
#     4  12  20  40  69  98 134 177 237 290 349 419
#     4  11  17  31  58  94 132 177 213 270 356 402
#     4  11  22  39  68  98 133 179 232 290 340 408
#     4  12  16  32  62  98 128 168 220 280 354 392
#     4  10  20  36  60  92 131 174 222 275 342 407
#     4  10  19  33  62 102 133 163 225 291 334 404
#
# _framework density 20.407304
#
# number of rings (size 3 to 8) (size 9 to 14) (size 15 to 20)
#    0.000    1.067    8.667    0.800    0.000    0.000 
#    2.400    1.333    2.933    3.200    0.000    0.000 
#    0.000    0.000    0.000    0.000    0.000    0.000 
#
# Total GULP energy -167372.864823 kJ/mol
# GULP energy per Si atom -5579.095494 kJ/mol
# Density = 2.036086 g / cm^3
# Si number density = 20.407304 Si / 1000 Ang^3
#
#
#
# Elastic Constant Matrix: (Units=GPa)
#
#
# Indices 1 2 3 4 5 6 
#
# 1 71.0181 38.4587 48.9126 0.0000 0.0000 0.0000
# 2 38.4587 115.2541 55.5076 0.0000 0.0000 0.0000
# 3 48.9126 55.5076 104.9807 0.0000 0.0000 0.0000
# 4 0.0000 0.0000 0.0000 18.5942 0.0000 0.0000
# 5 0.0000 0.0000 0.0000 0.0000 42.1478 0.0000
# 6 0.0000 0.0000 0.0000 0.0000 0.0000 19.7247
#
#
#
# Elastic Compliance Matrix: (Units=1/GPa)
#
#
# Indices 1 2 3 4 5 6 
#
# 1 0.021560 -0.003161 -0.008374 0.000000 0.000000 0.000000
# 2 -0.003161 0.012104 -0.004927 0.000000 0.000000 0.000000
# 3 -0.008374 -0.004927 0.016032 0.000000 0.000000 0.000000
# 4 0.000000 0.000000 0.000000 0.053780 0.000000 0.000000
# 5 0.000000 0.000000 0.000000 0.000000 0.023726 0.000000
# 6 0.000000 0.000000 0.000000 0.000000 0.000000 0.050698
#
#
# Mechanical properties :
#
#
# Convention : Reuss Voigt Hill
#
# Bulk Modulus (GPa) = 59.62242 64.11229 61.86736
# Shear Modulus (GPa) = 23.10362 25.98494 24.54428
#
# Velocity S-wave (km/s) = 3.36836 3.57223 3.47179
# Velocity P-wave (km/s) = 6.66389 6.96412 6.81566
#
# Compressibility (1/GPa) = 0.01677221
#
# Stress axis : x y z
#
# Youngs Moduli (GPa) = 46.38171 82.61488 62.37443
#
# Poissons Ratio (x) = 0.26118 0.52231
# Poissons Ratio (y) = 0.14663 0.30732
# Poissons Ratio (z) = 0.38839 0.40705
#
# Static dielectric constant tensor:
#      x y z
#    x 1.762360 0.000000 0.000000 
#    y 0.000000 1.803700 0.000000 
#    z 0.000000 0.000000 1.771300 
# 
# From -- ./inp_files/22441.got.cif
#   From: 2010.05.17/outbox.cif.g08.bks.cpg/sg43_12_cif.got.tgz:22441.got - 2010.06.03 19:21:55.
