data_PCOD9370001
_publ_section_title
;
Structure prediction by ZEFSAII (Michael W. Deem and Ramdas Pophale) SiO2 
 PCOD9370001
Probable space group: F M M 2
;
_chemical_formula_sum "Si O2"
_cell_formula_units_Z 24
_cell_length_a 9.000000
_cell_length_b 24.000000
_cell_length_c 24.000000
_cell_angle_alpha 90.000000
_cell_angle_beta 90.000000
_cell_angle_gamma 90.000000
_cell_volume 5184.000000
_symmetry_space_group_name_H-M "F M M 2"
_symmetry_group_IT_number 42
_symmetry_cell_setting 'orthorhombic'
loop_
_space_group_symop_operation_xyz
x,y,z
-x,-y,z
-x,y,z
x,-y,z
x,1/2+y,1/2+z
-x,1/2-y,1/2+z
-x,1/2+y,1/2+z
x,1/2-y,1/2+z
1/2+x,y,1/2+z
1/2-x,-y,1/2+z
1/2-x,y,1/2+z
1/2+x,-y,1/2+z
1/2+x,1/2+y,z
1/2-x,1/2-y,z
1/2-x,1/2+y,z
1/2+x,1/2-y,z
loop_
_atom_site_type_symbol
_atom_site_label
_atom_site_fract_x
_atom_site_fract_y
_atom_site_fract_z
Si Si1 0.677517 0.405147 0.177970
Si Si2 0.678214 0.309972 0.862902
Si Si3 0.322257 0.892011 0.457505
Si Si4 0.822646 0.810567 0.740825
Si Si5 0.173470 0.064334 0.563351
Si Si6 0.174810 0.500000 0.382996
Si Si7 0.321915 0.000000 0.763683
O O1 0.500000 0.401239 0.177519
O O2 0.752135 0.347040 0.192724
O O3 0.735348 0.427457 0.119552
O O4 0.724641 0.447097 0.227017
O O5 0.500000 0.306126 0.865056
O O6 0.750000 0.250000 0.863366
O O7 0.727741 0.342940 0.916992
O O8 0.713722 0.335856 0.802297
O O9 0.500000 0.888541 0.467536
O O10 0.236960 0.896968 0.515004
O O11 0.293974 0.946690 0.420667
O O12 0.750000 0.750000 0.739760
O O13 0.000000 0.807177 0.735833
O O14 0.000000 0.074639 0.573655
O O15 0.190754 0.000000 0.545173
O O16 0.259964 0.500000 0.325297
O O17 0.000000 0.500000 0.369681
O O18 0.500000 0.000000 0.766110
#
# Coordination Sequence:
#
# PCOD9370001 Si02
#       7
#    16  16  16  16  16   8   8
#     4  11  22  38  58  82 113 151 192 235 285 340
#     4   9  19  35  57  84 114 149 187 226 276 333
#     4  10  20  36  57  81 110 147 188 228 278 339
#     4  10  20  37  60  87 118 151 190 234 283 340
#     4  11  23  38  57  82 111 148 191 236 286 340
#     4  10  20  33  54  81 111 144 180 228 283 340
#     4  10  22  35  52  81 115 146 182 230 285 340
#
# _framework density 4.6296299999999997
#
# number of rings (size 3 to 8) (size 9 to 14) (size 15 to 20)
#    0.000    1.833    1.667    2.500    0.000    5.333 
#    0.000    0.833    0.000    2.000    0.000    0.000 
#    0.000    0.000    0.000    0.000    0.000    0.000 
#
# Total GULP energy -133885.625564 kJ/mol
# GULP energy per Si atom -5578.567732 kJ/mol
# Density = 0.461909 g / cm^3
# Si number density = 4.629630 Si / 1000 Ang^3
#
#
#
# Elastic Constant Matrix: (Units=GPa)
#
#
# Indices 1 2 3 4 5 6 
#
# 1 35.8154 22.7364 31.9217 0.0000 0.0000 0.0000
# 2 22.7364 47.0453 9.7909 0.0000 0.0000 0.0000
# 3 31.9217 9.7909 36.5215 0.0000 0.0000 0.0000
# 4 0.0000 0.0000 0.0000 17.7157 0.0000 0.0000
# 5 0.0000 0.0000 0.0000 0.0000 34.4272 0.0000
# 6 0.0000 0.0000 0.0000 0.0000 0.0000 20.5980
#
#
#
# Elastic Compliance Matrix: (Units=1/GPa)
#
#
# Indices 1 2 3 4 5 6 
#
# 1 0.295114 -0.094198 -0.232692 0.000000 0.000000 0.000000
# 2 -0.094198 0.052579 0.068238 0.000000 0.000000 0.000000
# 3 -0.232692 0.068238 0.212472 0.000000 0.000000 0.000000
# 4 0.000000 0.000000 0.000000 0.056447 0.000000 0.000000
# 5 0.000000 0.000000 0.000000 0.000000 0.029047 0.000000
# 6 0.000000 0.000000 0.000000 0.000000 0.000000 0.048548
#
#
# Mechanical properties :
#
#
# Convention : Reuss Voigt Hill
#
# Bulk Modulus (GPa) = 23.33063 27.58670 25.45867
# Shear Modulus (GPa) = 4.07897 18.21040 11.14469
#
# Velocity S-wave (km/s) = 1.48574 3.13926 2.45585
# Velocity P-wave (km/s) = 3.94577 5.29803 4.67109
#
# Compressibility (1/GPa) = 0.04286210
#
# Stress axis : x y z
#
# Youngs Moduli (GPa) = 3.38852 19.01883 4.70651
#
# Poissons Ratio (x) = 1.79154 1.09517
# Poissons Ratio (y) = 0.31919 -0.32116
# Poissons Ratio (z) = 0.78848 -1.29781
#
# Static dielectric constant tensor:
#      x y z
#    x 1.612020 0.000000 0.000000 
#    y 0.000000 1.607200 0.000000 
#    z 0.000000 0.000000 1.620130 
# 
# From -- ./inp_files/28089.got.cif
#   From: 2010.05.17/outbox.ucp.g08.bks.cvg/sg42_15_cif.got.tgz:28089.got - 2010.06.11 16:29:10.
