data_PCOD9370706
_publ_section_title
;
Structure prediction by ZEFSAII (Michael W. Deem and Ramdas Pophale) SiO2 
 PCOD9370706
Probable space group: F D D 2
;
_chemical_formula_sum "Si O2"
_cell_formula_units_Z 96
_cell_length_a 7.106591
_cell_length_b 25.198950
_cell_length_c 21.107641
_cell_angle_alpha 90.000000
_cell_angle_beta 90.000000
_cell_angle_gamma 90.000000
_cell_volume 3779.927460
_symmetry_space_group_name_H-M "F D D 2"
_symmetry_group_IT_number 43
_symmetry_cell_setting 'orthorhombic'
loop_
_space_group_symop_operation_xyz
x,y,z
-x,-y,z
1/4-x,1/4+y,1/4+z
1/4+x,1/4-y,1/4+z
x,1/2+y,1/2+z
-x,1/2-y,1/2+z
1/4-x,3/4+y,3/4+z
1/4+x,3/4-y,3/4+z
1/2+x,y,1/2+z
1/2-x,-y,1/2+z
3/4-x,1/4+y,3/4+z
3/4+x,1/4-y,3/4+z
1/2+x,1/2+y,z
1/2-x,1/2-y,z
3/4-x,3/4+y,1/4+z
3/4+x,3/4-y,1/4+z
loop_
_atom_site_type_symbol
_atom_site_label
_atom_site_fract_x
_atom_site_fract_y
_atom_site_fract_z
Si Si1 0.924332 0.298454 0.145700
Si Si2 0.447931 0.775312 0.528345
Si Si3 0.764099 0.950369 0.460103
Si Si4 0.861159 0.624287 0.362437
Si Si5 0.568391 0.340018 0.351768
Si Si6 0.453459 0.232471 0.390734
O O1 0.029902 0.263382 0.200495
O O2 0.711285 0.301132 0.171705
O O3 0.945535 0.359934 0.123576
O O4 0.963712 0.263197 0.082252
O O5 0.250000 0.750000 0.511726
O O6 0.397649 0.833000 0.555459
O O7 0.567400 0.780373 0.465069
O O8 0.613838 0.913435 0.423872
O O9 0.811281 0.925312 0.527629
O O10 0.646925 0.644686 0.368730
O O11 0.989931 0.676237 0.357263
O O12 0.589562 0.282716 0.384137
O O13 0.250000 0.250000 0.364612
#
# Coordination Sequence:
#
# PCOD9370706 Si02
#       6
#    16  16  16  16  16  16
#     4   9  21  37  62  92 127 175 216 278 335 391
#     4  11  24  44  63  98 137 175 230 280 345 403
#     4   9  18  36  63  99 125 170 228 273 333 407
#     4   9  20  39  66  94 132 179 217 279 345 405
#     4  10  20  38  67 104 131 168 232 283 337 409
#     4  10  23  41  70 101 129 180 229 273 345 414
#
# _framework density 25.397313
#
# number of rings (size 3 to 8) (size 9 to 14) (size 15 to 20)
#    0.000    2.333    0.000    2.000   14.000    0.000 
#    9.000   11.667    0.000    0.000    0.000    0.000 
#    0.000    0.000    0.000    0.000    0.000    0.000 
#
# Total GULP energy -133814.619719 kJ/mol
# GULP energy per Si atom -5575.609155 kJ/mol
# Density = 2.533951 g / cm^3
# Si number density = 25.397313 Si / 1000 Ang^3
#
#
#
# Elastic Constant Matrix: (Units=GPa)
#
#
# Indices 1 2 3 4 5 6 
#
# 1 45.9569 37.1924 -8.9154 0.0000 0.0000 0.0000
# 2 37.1924 281.0606 54.6849 0.0000 0.0000 0.0000
# 3 -8.9154 54.6849 61.5193 0.0000 0.0000 0.0000
# 4 0.0000 0.0000 0.0000 49.9505 0.0000 0.0000
# 5 0.0000 0.0000 0.0000 0.0000 4.2191 0.0000
# 6 0.0000 0.0000 0.0000 0.0000 0.0000 48.1301
#
#
#
# Elastic Compliance Matrix: (Units=1/GPa)
#
#
# Indices 1 2 3 4 5 6 
#
# 1 0.027849 -0.005405 0.008841 0.000000 0.000000 0.000000
# 2 -0.005405 0.005351 -0.005540 0.000000 0.000000 0.000000
# 3 0.008841 -0.005540 0.022461 0.000000 0.000000 0.000000
# 4 0.000000 0.000000 0.000000 0.020020 0.000000 0.000000
# 5 0.000000 0.000000 0.000000 0.000000 0.237020 0.000000
# 6 0.000000 0.000000 0.000000 0.000000 0.000000 0.020777
#
#
# Mechanical properties :
#
#
# Convention : Reuss Voigt Hill
#
# Bulk Modulus (GPa) = 19.43566 61.60671 40.52118
# Shear Modulus (GPa) = 14.09096 40.83159 27.46127
#
# Velocity S-wave (km/s) = 2.35802 4.01398 3.29183
# Velocity P-wave (km/s) = 3.88367 6.76702 5.51704
#
# Compressibility (1/GPa) = 0.05145183
#
# Stress axis : x y z
#
# Youngs Moduli (GPa) = 35.90788 186.87645 44.52196
#
# Poissons Ratio (x) = 1.01013 -0.39361
# Poissons Ratio (y) = 0.19409 0.24665
# Poissons Ratio (z) = -0.31745 1.03530
#
# Static dielectric constant tensor:
#      x y z
#    x 2.027770 0.000000 0.000000 
#    y 0.000000 2.144340 0.000000 
#    z 0.000000 0.000000 2.008720 
# 
# From -- ./inp_files/16484.got.cif
#   From: 2010.05.17/outbox.cif.g08.bks.cpg/sg43_9_cif.got.tgz:16484.got - 2010.06.03 19:21:55.
