data_PCOD9370672
_publ_section_title
;
Structure prediction by ZEFSAII (Michael W. Deem and Ramdas Pophale) SiO2 
 PCOD9370672
Probable space group: F D D 2
;
_chemical_formula_sum "Si O2"
_cell_formula_units_Z 120
_cell_length_a 7.862266
_cell_length_b 28.946102
_cell_length_c 21.941469
_cell_angle_alpha 90.000000
_cell_angle_beta 90.000000
_cell_angle_gamma 90.000000
_cell_volume 4993.482380
_symmetry_space_group_name_H-M "F D D 2"
_symmetry_group_IT_number 43
_symmetry_cell_setting 'orthorhombic'
loop_
_space_group_symop_operation_xyz
x,y,z
-x,-y,z
1/4-x,1/4+y,1/4+z
1/4+x,1/4-y,1/4+z
x,1/2+y,1/2+z
-x,1/2-y,1/2+z
1/4-x,3/4+y,3/4+z
1/4+x,3/4-y,3/4+z
1/2+x,y,1/2+z
1/2-x,-y,1/2+z
3/4-x,1/4+y,3/4+z
3/4+x,1/4-y,3/4+z
1/2+x,1/2+y,z
1/2-x,1/2-y,z
3/4-x,3/4+y,1/4+z
3/4+x,3/4-y,1/4+z
loop_
_atom_site_type_symbol
_atom_site_label
_atom_site_fract_x
_atom_site_fract_y
_atom_site_fract_z
Si Si1 0.691857 0.048072 0.738430
Si Si2 0.686011 0.024537 0.148679
Si Si3 0.676446 0.836003 0.001459
Si Si4 0.787795 0.611437 0.514687
Si Si5 0.441410 0.232241 0.759081
Si Si6 0.052287 0.664713 0.109704
Si Si7 0.592973 0.828674 0.236238
Si Si8 0.500000 0.000000 0.846172
O O1 0.695889 0.010788 0.685307
O O2 0.567808 0.091303 0.727127
O O3 0.883966 0.065991 0.747874
O O4 0.630673 0.025098 0.800808
O O5 0.500000 0.000000 0.147575
O O6 0.664603 0.070410 0.189330
O O7 0.738471 0.029510 0.079288
O O8 0.692472 0.890614 0.015835
O O9 0.569602 0.816102 0.056690
O O10 0.704219 0.568379 0.479383
O O11 0.676532 0.628946 0.573207
O O12 0.982980 0.592895 0.519532
O O13 0.250000 0.250000 0.758144
O O14 0.560780 0.274279 0.738584
O O15 0.162668 0.708476 0.131823
O O16 0.930268 0.652386 0.166557
#
# Coordination Sequence:
#
# PCOD9370672 Si02
#       8
#    16  16  16  16  16  16  16   8
#     4   9  19  38  64  97 130 169 238 293 349 425
#     4   9  18  37  67  95 126 172 231 287 346 427
#     4  10  20  40  69  97 130 181 237 292 361 437
#     4  10  23  45  63  96 140 179 233 299 366 448
#     4  11  23  43  66  93 138 187 233 287 368 445
#     4  11  23  43  70  96 142 183 240 305 370 445
#     4  11  25  43  65 101 142 185 241 301 375 449
#     4  10  20  38  62 100 138 174 228 296 348 436
#
# _framework density 24.031324000000001
#
# number of rings (size 3 to 8) (size 9 to 14) (size 15 to 20)
#    0.000    1.867    1.333    2.000    0.933    4.267 
#    7.200    9.333    0.000    0.000    0.000    0.000 
#    0.000    0.000    0.000    0.000    0.000    0.000 
#
# Total GULP energy -167392.895079 kJ/mol
# GULP energy per Si atom -5579.763169 kJ/mol
# Density = 2.397663 g / cm^3
# Si number density = 24.031324 Si / 1000 Ang^3
#
#
#
# Elastic Constant Matrix: (Units=GPa)
#
#
# Indices 1 2 3 4 5 6 
#
# 1 101.8276 53.3324 43.2412 0.0000 0.0000 0.0000
# 2 53.3324 142.6947 0.3135 0.0000 0.0000 0.0000
# 3 43.2412 0.3135 83.7000 0.0000 0.0000 0.0000
# 4 0.0000 0.0000 0.0000 22.1605 0.0000 0.0000
# 5 0.0000 0.0000 0.0000 0.0000 22.5624 0.0000
# 6 0.0000 0.0000 0.0000 0.0000 0.0000 39.5860
#
#
#
# Elastic Compliance Matrix: (Units=1/GPa)
#
#
# Indices 1 2 3 4 5 6 
#
# 1 0.016757 -0.006244 -0.008634 0.000000 0.000000 0.000000
# 2 -0.006244 0.009335 0.003191 0.000000 0.000000 0.000000
# 3 -0.008634 0.003191 0.016396 0.000000 0.000000 0.000000
# 4 0.000000 0.000000 0.000000 0.045125 0.000000 0.000000
# 5 0.000000 0.000000 0.000000 0.000000 0.044322 0.000000
# 6 0.000000 0.000000 0.000000 0.000000 0.000000 0.025261
#
#
# Mechanical properties :
#
#
# Convention : Reuss Voigt Hill
#
# Bulk Modulus (GPa) = 52.31808 57.99960 55.15884
# Shear Modulus (GPa) = 26.74638 32.28413 29.51525
#
# Velocity S-wave (km/s) = 3.33975 3.66924 3.50837
# Velocity P-wave (km/s) = 6.05723 6.49142 6.27808
#
# Compressibility (1/GPa) = 0.01911385
#
# Stress axis : x y z
#
# Youngs Moduli (GPa) = 59.67596 107.12737 60.99104
#
# Poissons Ratio (x) = 0.66891 0.52658
# Poissons Ratio (y) = 0.37262 -0.19461
# Poissons Ratio (z) = 0.51523 -0.34183
#
# Static dielectric constant tensor:
#      x y z
#    x 1.914050 0.000000 0.000000 
#    y 0.000000 2.026950 0.000000 
#    z 0.000000 0.000000 1.887940 
# 
# From -- ./inp_files/20544.got.cif
#   From: 2010.05.17/outbox.cif.g08.bks.cpg/sg43_11_cif.got.tgz:20544.got - 2010.06.03 19:21:55.
