data_PCOD9370995
_publ_section_title
;
Structure prediction by ZEFSAII (Michael W. Deem and Ramdas Pophale) SiO2 
 PCOD9370995
Probable space group: F D D 2
;
_chemical_formula_sum "Si O2"
_cell_formula_units_Z 104
_cell_length_a 30.231765
_cell_length_b 18.867952
_cell_length_c 7.362186
_cell_angle_alpha 90.000000
_cell_angle_beta 90.000000
_cell_angle_gamma 90.000000
_cell_volume 4199.475493
_symmetry_space_group_name_H-M "F D D 2"
_symmetry_group_IT_number 43
_symmetry_cell_setting 'orthorhombic'
loop_
_space_group_symop_operation_xyz
x,y,z
-x,-y,z
1/4-x,1/4+y,1/4+z
1/4+x,1/4-y,1/4+z
x,1/2+y,1/2+z
-x,1/2-y,1/2+z
1/4-x,3/4+y,3/4+z
1/4+x,3/4-y,3/4+z
1/2+x,y,1/2+z
1/2-x,-y,1/2+z
3/4-x,1/4+y,3/4+z
3/4+x,1/4-y,3/4+z
1/2+x,1/2+y,z
1/2-x,1/2-y,z
3/4-x,3/4+y,1/4+z
3/4+x,3/4-y,1/4+z
loop_
_atom_site_type_symbol
_atom_site_label
_atom_site_fract_x
_atom_site_fract_y
_atom_site_fract_z
Si Si1 0.157403 0.024758 0.211660
Si Si2 0.613110 0.538560 0.591545
Si Si3 0.298020 0.409524 0.686936
Si Si4 0.000000 0.000000 0.967387
Si Si5 0.225164 0.854815 0.407693
Si Si6 0.490828 0.250580 0.233195
Si Si7 0.342455 0.305503 0.194844
O O1 0.137092 0.011164 0.410633
O O2 0.153851 0.109717 0.178141
O O3 0.207527 0.005072 0.154510
O O4 0.128498 0.978599 0.074877
O O5 0.650163 0.594427 0.663627
O O6 0.567786 0.580257 0.550726
O O7 0.709639 0.520067 0.813673
O O8 0.600924 0.481355 0.747446
O O9 0.270568 0.349423 0.791123
O O10 0.269180 0.428671 0.508957
O O11 0.954891 0.035093 0.039806
O O12 0.019806 0.059595 0.836443
O O13 0.225558 0.934826 0.477444
#
# Coordination Sequence:
#
# PCOD9370995 Si02
#       7
#    16  16  16   8  16  16  16
#     4  12  26  47  72 112 145 190 253 297 371 453
#     4  11  25  44  75 105 143 196 239 306 370 438
#     4  10  21  42  67 101 137 183 231 303 360 422
#     4  10  20  48  66  94 146 196 222 298 370 424
#     4   9  22  42  68  97 140 188 237 289 359 434
#     4  10  21  43  66 101 143 179 238 305 353 431
#     4  11  25  49  72 106 150 190 245 305 366 444
#
# _framework density 24.764997000000001
#
# number of rings (size 3 to 8) (size 9 to 14) (size 15 to 20)
#    0.923    0.615    3.077    0.923    2.154    3.692 
#    8.308    0.769    0.000    0.000    0.000    0.000 
#    0.000    0.000    0.000    0.000    0.000    0.000 
#
# Total GULP energy -145123.490187 kJ/mol
# GULP energy per Si atom -5581.672699 kJ/mol
# Density = 2.470863 g / cm^3
# Si number density = 24.764997 Si / 1000 Ang^3
#
#
#
# Elastic Constant Matrix: (Units=GPa)
#
#
# Indices 1 2 3 4 5 6 
#
# 1 154.0169 40.0545 16.6124 0.0000 0.0000 0.0000
# 2 40.0545 91.9840 6.6131 0.0000 0.0000 0.0000
# 3 16.6124 6.6131 79.7525 0.0000 0.0000 0.0000
# 4 0.0000 0.0000 0.0000 8.3842 0.0000 0.0000
# 5 0.0000 0.0000 0.0000 0.0000 31.7684 0.0000
# 6 0.0000 0.0000 0.0000 0.0000 0.0000 35.8846
#
#
#
# Elastic Compliance Matrix: (Units=1/GPa)
#
#
# Indices 1 2 3 4 5 6 
#
# 1 0.007452 -0.003152 -0.001291 0.000000 0.000000 0.000000
# 2 -0.003152 0.012270 -0.000361 0.000000 0.000000 0.000000
# 3 -0.001291 -0.000361 0.012838 0.000000 0.000000 0.000000
# 4 0.000000 0.000000 0.000000 0.119272 0.000000 0.000000
# 5 0.000000 0.000000 0.000000 0.000000 0.031478 0.000000
# 6 0.000000 0.000000 0.000000 0.000000 0.000000 0.027867
#
#
# Mechanical properties :
#
#
# Convention : Reuss Voigt Hill
#
# Bulk Modulus (GPa) = 43.56954 50.25705 46.91329
# Shear Modulus (GPa) = 21.88811 32.70566 27.29688
#
# Velocity S-wave (km/s) = 2.97616 3.63800 3.32360
# Velocity P-wave (km/s) = 5.42599 6.16315 5.80628
#
# Compressibility (1/GPa) = 0.02295182
#
# Stress axis : x y z
#
# Youngs Moduli (GPa) = 134.19631 81.49978 77.89617
#
# Poissons Ratio (x) = 0.25689 0.10055
# Poissons Ratio (y) = 0.42300 0.02811
# Poissons Ratio (z) = 0.17322 0.02941
#
# Static dielectric constant tensor:
#      x y z
#    x 2.002620 0.000000 0.000000 
#    y 0.000000 2.037150 0.000000 
#    z 0.000000 0.000000 2.091580 
# 
# From -- ./inp_files/4251.got.cif
#   From: 2010.05.17/outbox.cif.g08.bks.cpg/sg43_3_cif.got.tgz:4251.got - 2010.06.03 19:21:55.
