data_PCOD9370351
_publ_section_title
;
Structure prediction by ZEFSAII (Michael W. Deem and Ramdas Pophale) SiO2 
 PCOD9370351
Probable space group: F D D 2
;
_chemical_formula_sum "Si O2"
_cell_formula_units_Z 112
_cell_length_a 15.351398
_cell_length_b 30.555525
_cell_length_c 12.327643
_cell_angle_alpha 90.000000
_cell_angle_beta 90.000000
_cell_angle_gamma 90.000000
_cell_volume 5782.527815
_symmetry_space_group_name_H-M "F D D 2"
_symmetry_group_IT_number 43
_symmetry_cell_setting 'orthorhombic'
loop_
_space_group_symop_operation_xyz
x,y,z
-x,-y,z
1/4-x,1/4+y,1/4+z
1/4+x,1/4-y,1/4+z
x,1/2+y,1/2+z
-x,1/2-y,1/2+z
1/4-x,3/4+y,3/4+z
1/4+x,3/4-y,3/4+z
1/2+x,y,1/2+z
1/2-x,-y,1/2+z
3/4-x,1/4+y,3/4+z
3/4+x,1/4-y,3/4+z
1/2+x,1/2+y,z
1/2-x,1/2-y,z
3/4-x,3/4+y,1/4+z
3/4+x,3/4-y,1/4+z
loop_
_atom_site_type_symbol
_atom_site_label
_atom_site_fract_x
_atom_site_fract_y
_atom_site_fract_z
Si Si1 0.253854 0.347018 0.393040
Si Si2 0.063152 0.821779 0.242867
Si Si3 0.277965 0.431306 0.853461
Si Si4 0.578106 0.213264 0.901512
Si Si5 0.222573 0.798545 0.108405
Si Si6 0.417779 0.469919 0.005237
Si Si7 0.115550 0.385759 0.937165
O O1 0.262556 0.398498 0.405565
O O2 0.350402 0.325439 0.392935
O O3 0.209582 0.328482 0.502595
O O4 0.203946 0.327158 0.291614
O O5 0.137929 0.795939 0.182417
O O6 0.105720 0.856230 0.328097
O O7 0.996722 0.794117 0.313071
O O8 0.217026 0.458009 0.768231
O O9 0.344227 0.462688 0.916045
O O10 0.212188 0.405822 0.934299
O O11 0.333158 0.395664 0.783767
O O12 0.627928 0.256394 0.861996
O O13 0.250000 0.750000 0.075531
O O14 0.297845 0.824177 0.174098
O O15 0.500000 0.500000 0.971038
#
# Coordination Sequence:
#
# PCOD9370351 Si02
#       7
#    16  16  16  16  16  16  16
#     4  10  19  38  58  82 115 159 197 240 298 357
#     4  10  19  35  58  89 115 152 201 248 293 352
#     4  11  21  42  62  85 125 160 203 240 303 368
#     4  10  20  36  63  84 117 158 200 243 304 341
#     4  11  20  32  61  92 116 143 205 260 288 345
#     4  10  24  41  59  87 125 162 190 253 312 352
#     4  10  20  38  61  84 117 164 192 249 300 351
#
# _framework density 19.368691999999999
#
# number of rings (size 3 to 8) (size 9 to 14) (size 15 to 20)
#    0.000    1.714    4.286    3.000    2.000    0.000 
#    7.714    4.286    0.000    0.000    0.000    0.000 
#    0.000    0.000    0.000    0.000    0.000    0.000 
#
# Total GULP energy -156268.829750 kJ/mol
# GULP energy per Si atom -5581.029634 kJ/mol
# Density = 1.932461 g / cm^3
# Si number density = 19.368692 Si / 1000 Ang^3
#
#
#
# Elastic Constant Matrix: (Units=GPa)
#
#
# Indices 1 2 3 4 5 6 
#
# 1 97.4435 10.7970 38.6850 0.0000 0.0000 0.0000
# 2 10.7970 47.7257 10.3465 0.0000 0.0000 0.0000
# 3 38.6850 10.3465 48.9966 0.0000 0.0000 0.0000
# 4 0.0000 0.0000 0.0000 23.5693 0.0000 0.0000
# 5 0.0000 0.0000 0.0000 0.0000 43.7167 0.0000
# 6 0.0000 0.0000 0.0000 0.0000 0.0000 16.2995
#
#
#
# Elastic Compliance Matrix: (Units=1/GPa)
#
#
# Indices 1 2 3 4 5 6 
#
# 1 0.014982 -0.000865 -0.011646 0.000000 0.000000 0.000000
# 2 -0.000865 0.022008 -0.003965 0.000000 0.000000 0.000000
# 3 -0.011646 -0.003965 0.030442 0.000000 0.000000 0.000000
# 4 0.000000 0.000000 0.000000 0.042428 0.000000 0.000000
# 5 0.000000 0.000000 0.000000 0.000000 0.022875 0.000000
# 6 0.000000 0.000000 0.000000 0.000000 0.000000 0.061352
#
#
# Mechanical properties :
#
#
# Convention : Reuss Voigt Hill
#
# Bulk Modulus (GPa) = 29.00163 34.86919 31.93541
# Shear Modulus (GPa) = 20.96169 25.67292 23.31731
#
# Velocity S-wave (km/s) = 3.29332 3.64467 3.47344
# Velocity P-wave (km/s) = 5.42837 5.97942 5.71055
#
# Compressibility (1/GPa) = 0.03448083
#
# Stress axis : x y z
#
# Youngs Moduli (GPa) = 66.74838 45.43767 32.84947
#
# Poissons Ratio (x) = 0.03928 0.38257
# Poissons Ratio (y) = 0.05771 0.13024
# Poissons Ratio (z) = 0.77736 0.18015
#
# Static dielectric constant tensor:
#      x y z
#    x 1.691430 0.000000 0.000000 
#    y 0.000000 1.696530 0.000000 
#    z 0.000000 0.000000 1.664660 
# 
# From -- ./inp_files/8270.got.cif
#   From: 2010.05.17/outbox.cif.g08.bks.cpg/sg43_5_cif.got.tgz:8270.got - 2010.06.03 19:21:55.
