data_PCOD9370196
_publ_section_title
;
Structure prediction by ZEFSAII (Michael W. Deem and Ramdas Pophale) SiO2 
 PCOD9370196
Probable space group: F D D 2
;
_chemical_formula_sum "Si O2"
_cell_formula_units_Z 96
_cell_length_a 12.550150
_cell_length_b 12.948149
_cell_length_c 25.161906
_cell_angle_alpha 90.000000
_cell_angle_beta 90.000000
_cell_angle_gamma 90.000000
_cell_volume 4088.840226
_symmetry_space_group_name_H-M "F D D 2"
_symmetry_group_IT_number 43
_symmetry_cell_setting 'orthorhombic'
loop_
_space_group_symop_operation_xyz
x,y,z
-x,-y,z
1/4-x,1/4+y,1/4+z
1/4+x,1/4-y,1/4+z
x,1/2+y,1/2+z
-x,1/2-y,1/2+z
1/4-x,3/4+y,3/4+z
1/4+x,3/4-y,3/4+z
1/2+x,y,1/2+z
1/2-x,-y,1/2+z
3/4-x,1/4+y,3/4+z
3/4+x,1/4-y,3/4+z
1/2+x,1/2+y,z
1/2-x,1/2-y,z
3/4-x,3/4+y,1/4+z
3/4+x,3/4-y,1/4+z
loop_
_atom_site_type_symbol
_atom_site_label
_atom_site_fract_x
_atom_site_fract_y
_atom_site_fract_z
Si Si1 0.124058 0.537917 0.466820
Si Si2 0.075017 0.767519 0.488472
Si Si3 0.623013 0.757486 0.545717
Si Si4 0.076109 0.900472 0.395397
Si Si5 0.166078 0.478573 0.579083
Si Si6 0.379861 0.540491 0.857257
O O1 0.115437 0.660817 0.463998
O O2 0.193229 0.506801 0.518067
O O3 0.171160 0.490903 0.413230
O O4 0.000000 0.500000 0.476671
O O5 0.115684 0.859309 0.451650
O O6 0.103408 0.761946 0.550772
O O7 0.946273 0.766659 0.494197
O O8 0.750000 0.750000 0.535321
O O9 0.601178 0.682394 0.595569
O O10 0.600590 0.872559 0.568392
O O11 0.006684 0.807872 0.369517
O O12 0.000000 0.000000 0.403918
O O13 0.121755 0.586112 0.600754
O O14 0.500000 0.500000 0.866099
#
# Coordination Sequence:
#
# PCOD9370196 Si02
#       6
#    16  16  16  16  16  16
#     4  10  18  34  64  89 124 150 204 264 308 365
#     4  11  21  41  66  88 127 170 208 258 319 376
#     4   9  20  40  63  92 123 160 210 261 306 369
#     4   9  20  40  59  85 130 158 207 260 300 378
#     4   9  18  36  62  87 121 157 200 258 315 363
#     4  10  22  37  59  95 127 163 206 258 319 372
#
# _framework density 23.478541
#
# number of rings (size 3 to 8) (size 9 to 14) (size 15 to 20)
#    0.000    2.667    1.667    2.000    0.000    0.000 
#   15.000    7.500    0.000    0.000    0.000    0.000 
#    0.000    0.000    0.000    0.000    0.000    0.000 
#
# Total GULP energy -133831.072731 kJ/mol
# GULP energy per Si atom -5576.294697 kJ/mol
# Density = 2.342510 g / cm^3
# Si number density = 23.478541 Si / 1000 Ang^3
#
#
#
# Elastic Constant Matrix: (Units=GPa)
#
#
# Indices 1 2 3 4 5 6 
#
# 1 51.0594 17.9366 8.1165 0.0000 0.0000 0.0000
# 2 17.9366 111.0700 79.7067 0.0000 0.0000 0.0000
# 3 8.1165 79.7067 171.0176 0.0000 0.0000 0.0000
# 4 0.0000 0.0000 0.0000 39.1489 0.0000 0.0000
# 5 0.0000 0.0000 0.0000 0.0000 32.4786 0.0000
# 6 0.0000 0.0000 0.0000 0.0000 0.0000 10.8268
#
#
#
# Elastic Compliance Matrix: (Units=1/GPa)
#
#
# Indices 1 2 3 4 5 6 
#
# 1 0.020849 -0.003992 0.000871 0.000000 0.000000 0.000000
# 2 -0.003992 0.014292 -0.006472 0.000000 0.000000 0.000000
# 3 0.000871 -0.006472 0.008822 0.000000 0.000000 0.000000
# 4 0.000000 0.000000 0.000000 0.025543 0.000000 0.000000
# 5 0.000000 0.000000 0.000000 0.000000 0.030789 0.000000
# 6 0.000000 0.000000 0.000000 0.000000 0.000000 0.092363
#
#
# Mechanical properties :
#
#
# Convention : Reuss Voigt Hill
#
# Bulk Modulus (GPa) = 40.35815 60.51850 50.43832
# Shear Modulus (GPa) = 22.71645 31.65001 27.18323
#
# Velocity S-wave (km/s) = 3.11391 3.67555 3.40632
# Velocity P-wave (km/s) = 5.49138 6.62155 6.08277
#
# Compressibility (1/GPa) = 0.02477814
#
# Stress axis : x y z
#
# Youngs Moduli (GPa) = 47.96418 69.96762 113.34856
#
# Poissons Ratio (x) = 0.27931 -0.09873
# Poissons Ratio (y) = 0.19147 0.73357
# Poissons Ratio (z) = -0.04178 0.45282
#
# Static dielectric constant tensor:
#      x y z
#    x 2.039050 0.000000 0.000000 
#    y 0.000000 1.874290 0.000000 
#    z 0.000000 0.000000 1.870720 
# 
# From -- ./inp_files/22071.got.cif
#   From: 2010.05.17/outbox.cif.g08.bks.cpg/sg43_12_cif.got.tgz:22071.got - 2010.06.03 19:21:55.
