data_PCOD9370046
_publ_section_title
;
Structure prediction by ZEFSAII (Michael W. Deem and Ramdas Pophale) SiO2 
 PCOD9370046
Probable space group: F D D 2
;
_chemical_formula_sum "Si O2"
_cell_formula_units_Z 80
_cell_length_a 17.193256
_cell_length_b 8.172131
_cell_length_c 21.828902
_cell_angle_alpha 90.000000
_cell_angle_beta 90.000000
_cell_angle_gamma 90.000000
_cell_volume 3067.081671
_symmetry_space_group_name_H-M "F D D 2"
_symmetry_group_IT_number 43
_symmetry_cell_setting 'orthorhombic'
loop_
_space_group_symop_operation_xyz
x,y,z
-x,-y,z
1/4-x,1/4+y,1/4+z
1/4+x,1/4-y,1/4+z
x,1/2+y,1/2+z
-x,1/2-y,1/2+z
1/4-x,3/4+y,3/4+z
1/4+x,3/4-y,3/4+z
1/2+x,y,1/2+z
1/2-x,-y,1/2+z
3/4-x,1/4+y,3/4+z
3/4+x,1/4-y,3/4+z
1/2+x,1/2+y,z
1/2-x,1/2-y,z
3/4-x,3/4+y,1/4+z
3/4+x,3/4-y,1/4+z
loop_
_atom_site_type_symbol
_atom_site_label
_atom_site_fract_x
_atom_site_fract_y
_atom_site_fract_z
Si Si1 0.689904 0.572522 0.542340
Si Si2 0.799710 0.913443 0.126187
Si Si3 0.193287 0.446824 0.433491
Si Si4 0.275891 0.059342 0.813253
Si Si5 0.630270 0.470765 0.754652
O O1 0.736798 0.547395 0.606096
O O2 0.753724 0.596000 0.490364
O O3 0.617632 0.691140 0.553764
O O4 0.652793 0.400792 0.518034
O O5 0.750000 0.750000 0.139303
O O6 0.870916 0.925432 0.173056
O O7 0.847479 0.877322 0.063210
O O8 0.247237 0.467273 0.374091
O O9 0.154455 0.625420 0.447110
O O10 0.250000 0.250000 0.819081
O O11 0.223315 0.983503 0.758822
#
# Coordination Sequence:
#
# PCOD9370046 Si02
#       5
#    16  16  16  16  16
#     4   9  16  26  41  69  97 120 160 198 231 292
#     4   8  15  25  39  66  96 121 154 197 240 287
#     4  10  16  26  45  70  98 124 148 198 250 278
#     4   9  16  26  42  68  97 124 155 197 239 285
#     4   8  15  25  39  65  96 121 154 196 241 288
#
# _framework density 26.083427
#
# number of rings (size 3 to 8) (size 9 to 14) (size 15 to 20)
#    0.000    3.200    0.000    4.200    0.000    0.000 
#    0.000    0.000    0.000    0.000    0.000  110.600 
#    0.000    0.000    0.000    0.000    0.000    0.000 
#
# Total GULP energy -111875.020359 kJ/mol
# GULP energy per Si atom -5593.751018 kJ/mol
# Density = 2.602406 g / cm^3
# Si number density = 26.083427 Si / 1000 Ang^3
#
#
#
# Elastic Constant Matrix: (Units=GPa)
#
#
# Indices 1 2 3 4 5 6 
#
# 1 279.5258 56.3526 91.0348 0.0000 0.0000 0.0000
# 2 56.3526 69.8149 21.1883 0.0000 0.0000 0.0000
# 3 91.0348 21.1883 101.7446 0.0000 0.0000 0.0000
# 4 0.0000 0.0000 0.0000 -13.1625 0.0000 0.0000
# 5 0.0000 0.0000 0.0000 0.0000 44.7295 0.0000
# 6 0.0000 0.0000 0.0000 0.0000 0.0000 35.2072
#
#
#
# Elastic Compliance Matrix: (Units=1/GPa)
#
#
# Indices 1 2 3 4 5 6 
#
# 1 0.005660 -0.003236 -0.004390 0.000000 0.000000 0.000000
# 2 -0.003236 0.017140 -0.000674 0.000000 0.000000 0.000000
# 3 -0.004390 -0.000674 0.013897 0.000000 0.000000 0.000000
# 4 0.000000 0.000000 0.000000 -0.075973 0.000000 0.000000
# 5 0.000000 0.000000 0.000000 0.000000 0.022357 0.000000
# 6 0.000000 0.000000 0.000000 0.000000 0.000000 0.028403
#
#
# Mechanical properties :
#
#
# Convention : Reuss Voigt Hill
#
# Bulk Modulus (GPa) = 49.76000 87.58184 68.67092
# Shear Modulus (GPa) = 143.75299 32.18882 87.97090
#
# Velocity S-wave (km/s) = 7.43185 3.51675 5.81377
# Velocity P-wave (km/s) = 9.63130 7.08099 8.45288
#
# Compressibility (1/GPa) = 0.02009646
#
# Stress axis : x y z
#
# Youngs Moduli (GPa) = 176.69271 58.34267 71.95923
#
# Poissons Ratio (x) = 0.18879 0.31590
# Poissons Ratio (y) = 0.57176 0.04851
# Poissons Ratio (z) = 0.77567 0.03933
#
# Static dielectric constant tensor:
#      x y z
#    x 2.048470 0.000000 0.000000 
#    y 0.000000 2.099820 0.000000 
#    z 0.000000 0.000000 2.136200 
# 
# From -- ./inp_files/20935.got.cif
#   From: 2010.05.17/outbox.cif.g08.bks.cpg/sg43_11_cif.got.tgz:20935.got - 2010.06.03 19:21:55.
