data_PCOD9370583
_publ_section_title
;
Structure prediction by ZEFSAII (Michael W. Deem and Ramdas Pophale) SiO2 
 PCOD9370583
Probable space group: F D D 2
;
_chemical_formula_sum "Si O2"
_cell_formula_units_Z 120
_cell_length_a 10.498431
_cell_length_b 22.455090
_cell_length_c 24.093016
_cell_angle_alpha 90.000000
_cell_angle_beta 90.000000
_cell_angle_gamma 90.000000
_cell_volume 5679.765002
_symmetry_space_group_name_H-M "F D D 2"
_symmetry_group_IT_number 43
_symmetry_cell_setting 'orthorhombic'
loop_
_space_group_symop_operation_xyz
x,y,z
-x,-y,z
1/4-x,1/4+y,1/4+z
1/4+x,1/4-y,1/4+z
x,1/2+y,1/2+z
-x,1/2-y,1/2+z
1/4-x,3/4+y,3/4+z
1/4+x,3/4-y,3/4+z
1/2+x,y,1/2+z
1/2-x,-y,1/2+z
3/4-x,1/4+y,3/4+z
3/4+x,1/4-y,3/4+z
1/2+x,1/2+y,z
1/2-x,1/2-y,z
3/4-x,3/4+y,1/4+z
3/4+x,3/4-y,1/4+z
loop_
_atom_site_type_symbol
_atom_site_label
_atom_site_fract_x
_atom_site_fract_y
_atom_site_fract_z
Si Si1 0.205577 0.834126 0.557710
Si Si2 0.805608 0.671687 0.558989
Si Si3 0.787267 0.660549 0.436741
Si Si4 0.192613 0.961075 0.351356
Si Si5 0.355445 0.298788 0.333188
Si Si6 0.030861 0.208424 0.869951
Si Si7 0.000000 0.500000 0.204339
Si Si8 0.629016 0.218461 0.661452
O O1 0.205134 0.903041 0.577379
O O2 0.235539 0.806337 0.497284
O O3 0.306449 0.804556 0.602458
O O4 0.058893 0.815298 0.566883
O O5 0.754372 0.681850 0.497602
O O6 0.683198 0.670258 0.600015
O O7 0.892650 0.726231 0.577315
O O8 0.887613 0.611839 0.553610
O O9 0.676767 0.679803 0.395398
O O10 0.815650 0.590194 0.435880
O O11 0.913179 0.690001 0.410136
O O12 0.269079 0.981816 0.405943
O O13 0.250000 0.250000 0.316904
O O14 0.488207 0.264917 0.333683
O O15 0.140669 0.228242 0.911875
O O16 0.750000 0.250000 0.690067
#
# Coordination Sequence:
#
# PCOD9370583 Si02
#       8
#    16  16  16  16  16  16   8  16
#     4  10  21  39  63  90 128 164 213 280 310 393
#     4  11  23  35  64  89 118 166 203 260 324 384
#     4  10  21  36  59  90 117 154 212 253 309 382
#     4  10  20  36  61  89 116 157 210 251 318 379
#     4  10  23  41  59  84 131 162 198 272 319 376
#     4  10  25  38  60  97 124 164 222 264 317 407
#     4  12  22  40  72  92 122 188 214 264 352 386
#     4   9  17  36  59  84 119 155 201 262 306 365
#
# _framework density 21.127635000000001
#
# number of rings (size 3 to 8) (size 9 to 14) (size 15 to 20)
#    0.000    1.867    3.333    0.800    9.333    0.533 
#    0.000    2.667    0.000    0.000    0.000    0.000 
#    0.000    0.000    0.000    0.000    0.000    0.000 
#
# Total GULP energy -167004.783236 kJ/mol
# GULP energy per Si atom -5566.826108 kJ/mol
# Density = 2.107955 g / cm^3
# Si number density = 21.127635 Si / 1000 Ang^3
#
#
#
# Elastic Constant Matrix: (Units=GPa)
#
#
# Indices 1 2 3 4 5 6 
#
# 1 68.3164 26.2760 4.6532 0.0000 0.0000 0.0000
# 2 26.2760 109.6500 15.7655 0.0000 0.0000 0.0000
# 3 4.6532 15.7655 53.5124 0.0000 0.0000 0.0000
# 4 0.0000 0.0000 0.0000 -52.6006 0.0000 0.0000
# 5 0.0000 0.0000 0.0000 0.0000 -3.8261 0.0000
# 6 0.0000 0.0000 0.0000 0.0000 0.0000 23.5154
#
#
#
# Elastic Compliance Matrix: (Units=1/GPa)
#
#
# Indices 1 2 3 4 5 6 
#
# 1 0.016128 -0.003825 -0.000275 0.000000 0.000000 0.000000
# 2 -0.003825 0.010431 -0.002740 0.000000 0.000000 0.000000
# 3 -0.000275 -0.002740 0.019519 0.000000 0.000000 0.000000
# 4 0.000000 0.000000 0.000000 -0.019011 0.000000 0.000000
# 5 0.000000 0.000000 0.000000 0.000000 -0.261362 0.000000
# 6 0.000000 0.000000 0.000000 0.000000 0.000000 0.042525
#
#
# Mechanical properties :
#
#
# Convention : Reuss Voigt Hill
#
# Bulk Modulus (GPa) = 30.86901 36.09645 33.48273
# Shear Modulus (GPa) = -29.88812 5.73669 -12.07572
#
# Velocity S-wave (km/s) = -3.76526 1.64959 -2.39333
# Velocity P-wave (km/s) = 2.06408 4.55524 2.87139
#
# Compressibility (1/GPa) = 0.03239495
#
# Stress axis : x y z
#
# Youngs Moduli (GPa) = 62.00478 95.87191 51.23329
#
# Poissons Ratio (x) = 0.36673 0.01411
# Poissons Ratio (y) = 0.23718 0.14040
# Poissons Ratio (z) = 0.01708 0.26272
#
# Static dielectric constant tensor:
#      x y z
#    x 1.775350 0.000000 0.000000 
#    y 0.000000 1.853850 0.000000 
#    z 0.000000 0.000000 1.765340 
# 
# From -- ./inp_files/25259.got.cif
#   From: 2010.05.17/outbox.cif.g08.bks.cpg/sg43_13_cif.got.tgz:25259.got - 2010.06.03 19:21:55.
