data_PCOD9370384
_publ_section_title
;
Structure prediction by ZEFSAII (Michael W. Deem and Ramdas Pophale) SiO2 
 PCOD9370384
Probable space group: F D D 2
;
_chemical_formula_sum "Si O2"
_cell_formula_units_Z 88
_cell_length_a 25.113127
_cell_length_b 18.948160
_cell_length_c 7.150456
_cell_angle_alpha 90.000000
_cell_angle_beta 90.000000
_cell_angle_gamma 90.000000
_cell_volume 3402.526958
_symmetry_space_group_name_H-M "F D D 2"
_symmetry_group_IT_number 43
_symmetry_cell_setting 'orthorhombic'
loop_
_space_group_symop_operation_xyz
x,y,z
-x,-y,z
1/4-x,1/4+y,1/4+z
1/4+x,1/4-y,1/4+z
x,1/2+y,1/2+z
-x,1/2-y,1/2+z
1/4-x,3/4+y,3/4+z
1/4+x,3/4-y,3/4+z
1/2+x,y,1/2+z
1/2-x,-y,1/2+z
3/4-x,1/4+y,3/4+z
3/4+x,1/4-y,3/4+z
1/2+x,1/2+y,z
1/2-x,1/2-y,z
3/4-x,3/4+y,1/4+z
3/4+x,3/4-y,1/4+z
loop_
_atom_site_type_symbol
_atom_site_label
_atom_site_fract_x
_atom_site_fract_y
_atom_site_fract_z
Si Si1 0.917913 0.000458 0.536710
Si Si2 0.821265 0.001803 0.063759
Si Si3 0.750000 0.750000 0.448786
Si Si4 0.830327 0.591684 0.874065
Si Si5 0.729331 0.595862 0.389269
Si Si6 0.043255 0.856637 0.568905
O O1 0.949673 0.987064 0.339861
O O2 0.913966 0.924940 0.628478
O O3 0.861862 0.042143 0.516015
O O4 0.952372 0.062436 0.629875
O O5 0.799771 0.949506 0.230394
O O6 0.853108 0.060721 0.176978
O O7 0.781400 0.051437 0.945707
O O8 0.836623 0.942769 0.916089
O O9 0.741884 0.677026 0.338167
O O10 0.766367 0.581390 0.872088
O O11 0.701840 0.603125 0.594440
#
# Coordination Sequence:
#
# PCOD9370384 Si02
#       6
#    16  16   8  16  16  16
#     4  11  22  41  67  94 138 181 226 285 350 408
#     4  11  20  39  67 100 126 177 233 276 336 417
#     4  10  20  42  60  88 138 178 206 286 348 380
#     4  11  23  38  69 100 131 184 230 278 356 423
#     4  10  19  36  64  93 125 177 220 270 347 403
#     4  10  22  44  69  93 138 178 223 290 353 401
#
# _framework density 25.863132
#
# number of rings (size 3 to 8) (size 9 to 14) (size 15 to 20)
#    0.000    1.455    9.091    0.000    5.091    0.000 
#    3.273    3.636    0.000    0.000    0.000    0.000 
#    0.000    0.000    0.000    0.000    0.000    0.000 
#
# Total GULP energy -122725.614944 kJ/mol
# GULP energy per Si atom -5578.437043 kJ/mol
# Density = 2.580427 g / cm^3
# Si number density = 25.863132 Si / 1000 Ang^3
#
#
#
# Elastic Constant Matrix: (Units=GPa)
#
#
# Indices 1 2 3 4 5 6 
#
# 1 91.3408 23.3119 16.2086 0.0001 0.0000 0.0000
# 2 23.3119 242.2497 33.2756 -0.0001 0.0000 0.0000
# 3 16.2086 33.2756 78.4519 -0.0010 -0.0001 0.0002
# 4 0.0001 -0.0001 -0.0010 30.3503 -0.0001 0.0002
# 5 0.0000 0.0000 -0.0001 -0.0001 18.0034 0.0000
# 6 0.0000 0.0000 0.0002 0.0002 0.0000 23.7270
#
#
#
# Elastic Compliance Matrix: (Units=1/GPa)
#
#
# Indices 1 2 3 4 5 6 
#
# 1 0.011520 -0.000830 -0.002028 0.000000 0.000000 0.000000
# 2 -0.000830 0.004443 -0.001713 0.000000 0.000000 0.000000
# 3 -0.002028 -0.001713 0.013892 0.000000 0.000000 0.000000
# 4 0.000000 0.000000 0.000000 0.032949 0.000000 0.000000
# 5 0.000000 0.000000 0.000000 0.000000 0.055545 0.000000
# 6 0.000000 0.000000 0.000000 0.000000 0.000000 0.042146
#
#
# Mechanical properties :
#
#
# Convention : Reuss Voigt Hill
#
# Bulk Modulus (GPa) = 48.27887 61.95938 55.11913
# Shear Modulus (GPa) = 28.32200 37.03257 32.67729
#
# Velocity S-wave (km/s) = 3.31278 3.78811 3.55839
# Velocity P-wave (km/s) = 5.77410 6.56823 6.18393
#
# Compressibility (1/GPa) = 0.02071300
#
# Stress axis : x y z
#
# Youngs Moduli (GPa) = 86.80771 225.06536 71.98243
#
# Poissons Ratio (x) = 0.18680 0.14598
# Poissons Ratio (y) = 0.07205 0.12331
# Poissons Ratio (z) = 0.17605 0.38556
#
# Static dielectric constant tensor:
#      x y z
#    x 2.179460 0.000000 0.000000 
#    y 0.000000 2.028070 0.000000 
#    z 0.000000 0.000000 2.077700 
# 
# From -- ./inp_files/4687.got.cif
#   From: 2010.05.17/outbox.cif.g08.bks.cpg/sg43_3_cif.got.tgz:4687.got - 2010.06.03 19:21:55.
