data_PCOD9370054
_publ_section_title
;
Structure prediction by ZEFSAII (Michael W. Deem and Ramdas Pophale) SiO2 
 PCOD9370054
Probable space group: F D D 2
;
_chemical_formula_sum "Si O2"
_cell_formula_units_Z 104
_cell_length_a 17.011188
_cell_length_b 9.338375
_cell_length_c 26.895284
_cell_angle_alpha 90.000000
_cell_angle_beta 90.000000
_cell_angle_gamma 90.000000
_cell_volume 4272.500170
_symmetry_space_group_name_H-M "F D D 2"
_symmetry_group_IT_number 43
_symmetry_cell_setting 'orthorhombic'
loop_
_space_group_symop_operation_xyz
x,y,z
-x,-y,z
1/4-x,1/4+y,1/4+z
1/4+x,1/4-y,1/4+z
x,1/2+y,1/2+z
-x,1/2-y,1/2+z
1/4-x,3/4+y,3/4+z
1/4+x,3/4-y,3/4+z
1/2+x,y,1/2+z
1/2-x,-y,1/2+z
3/4-x,1/4+y,3/4+z
3/4+x,1/4-y,3/4+z
1/2+x,1/2+y,z
1/2-x,1/2-y,z
3/4-x,3/4+y,1/4+z
3/4+x,3/4-y,1/4+z
loop_
_atom_site_type_symbol
_atom_site_label
_atom_site_fract_x
_atom_site_fract_y
_atom_site_fract_z
Si Si1 0.373259 0.639541 0.334900
Si Si2 0.469447 0.810510 0.788041
Si Si3 0.456219 0.194191 0.057363
Si Si4 0.750000 0.750000 0.994097
Si Si5 0.653605 0.534765 0.694693
Si Si6 0.821081 0.870575 0.111217
Si Si7 0.917301 0.040812 0.967309
O O1 0.445146 0.621997 0.295702
O O2 0.335371 0.796175 0.324261
O O3 0.296020 0.543730 0.325729
O O4 0.410580 0.646475 0.390335
O O5 0.474944 0.637436 0.775947
O O6 0.436781 0.784437 0.842612
O O7 0.402493 0.851265 0.750041
O O8 0.399488 0.308474 0.084563
O O9 0.452180 0.190543 0.996361
O O10 0.684383 0.823095 0.960972
O O11 0.646194 0.361957 0.692008
O O12 0.750000 0.750000 0.108027
O O13 0.822134 0.891428 0.170627
O O14 0.000000 0.000000 0.993718
#
# Coordination Sequence:
#
# PCOD9370054 Si02
#       7
#    16  16  16   8  16  16  16
#     4  11  21  32  53  83 116 149 185 226 291 346
#     4  11  18  34  55  76 115 137 180 235 275 338
#     4  11  20  30  51  87 119 140 182 234 287 347
#     4  10  16  28  48  82 106 128 166 220 288 312
#     4  11  19  32  54  80 115 145 175 238 289 336
#     4  11  16  32  50  85 112 138 175 237 291 322
#     4  10  21  31  56  83 106 143 191 233 288 334
#
# _framework density 24.341719999999999
#
# number of rings (size 3 to 8) (size 9 to 14) (size 15 to 20)
#    0.000    1.231    8.462    1.846    2.154    0.000 
#    0.000    0.000    3.385    2.769    0.000    0.000 
#    0.000    0.000    0.000    0.000    0.000    0.000 
#
# Total GULP energy -144742.423877 kJ/mol
# GULP energy per Si atom -5567.016303 kJ/mol
# Density = 2.428632 g / cm^3
# Si number density = 24.341720 Si / 1000 Ang^3
#
#
#
# Elastic Constant Matrix: (Units=GPa)
#
#
# Indices 1 2 3 4 5 6 
#
# 1 189.6290 9.1296 66.1190 0.0000 0.0000 0.0000
# 2 9.1296 17.3583 6.9064 0.0000 0.0000 0.0000
# 3 66.1190 6.9064 142.3674 0.0000 0.0000 0.0000
# 4 0.0000 0.0000 0.0000 30.9999 0.0000 0.0000
# 5 0.0000 0.0000 0.0000 0.0000 43.8992 0.0000
# 6 0.0000 0.0000 0.0000 0.0000 0.0000 30.1532
#
#
#
# Elastic Compliance Matrix: (Units=1/GPa)
#
#
# Indices 1 2 3 4 5 6 
#
# 1 0.006375 -0.002218 -0.002853 0.000000 0.000000 0.000000
# 2 -0.002218 0.059514 -0.001857 0.000000 0.000000 0.000000
# 3 -0.002853 -0.001857 0.008439 0.000000 0.000000 0.000000
# 4 0.000000 0.000000 0.000000 0.032258 0.000000 0.000000
# 5 0.000000 0.000000 0.000000 0.000000 0.022779 0.000000
# 6 0.000000 0.000000 0.000000 0.000000 0.000000 0.033164
#
#
# Mechanical properties :
#
#
# Convention : Reuss Voigt Hill
#
# Bulk Modulus (GPa) = 16.53638 57.07386 36.80512
# Shear Modulus (GPa) = 25.43960 38.82378 32.13169
#
# Velocity S-wave (km/s) = 3.23631 3.99801 3.63716
# Velocity P-wave (km/s) = 4.55776 6.69403 5.72639
#
# Compressibility (1/GPa) = 0.06047271
#
# Stress axis : x y z
#
# Youngs Moduli (GPa) = 156.86151 16.80263 118.49403
#
# Poissons Ratio (x) = 0.03726 0.33808
# Poissons Ratio (y) = 0.34788 0.22006
# Poissons Ratio (z) = 0.44755 0.03120
#
# Static dielectric constant tensor:
#      x y z
#    x 2.057970 0.000000 0.000000 
#    y 0.000000 2.056460 0.000000 
#    z 0.000000 0.000000 2.455170 
# 
# From -- ./inp_files/25688.got.cif
#   From: 2010.05.17/outbox.cif.g08.bks.cpg/sg43_13_cif.got.tgz:25688.got - 2010.06.03 19:21:55.
