data_PCOD9370638
_publ_section_title
;
Structure prediction by ZEFSAII (Michael W. Deem and Ramdas Pophale) SiO2 
 PCOD9370638
Probable space group: F D D 2
;
_chemical_formula_sum "Si O2"
_cell_formula_units_Z 88
_cell_length_a 30.590355
_cell_length_b 11.041759
_cell_length_c 10.051262
_cell_angle_alpha 90.000000
_cell_angle_beta 90.000000
_cell_angle_gamma 90.000000
_cell_volume 3395.028110
_symmetry_space_group_name_H-M "F D D 2"
_symmetry_group_IT_number 43
_symmetry_cell_setting 'orthorhombic'
loop_
_space_group_symop_operation_xyz
x,y,z
-x,-y,z
1/4-x,1/4+y,1/4+z
1/4+x,1/4-y,1/4+z
x,1/2+y,1/2+z
-x,1/2-y,1/2+z
1/4-x,3/4+y,3/4+z
1/4+x,3/4-y,3/4+z
1/2+x,y,1/2+z
1/2-x,-y,1/2+z
3/4-x,1/4+y,3/4+z
3/4+x,1/4-y,3/4+z
1/2+x,1/2+y,z
1/2-x,1/2-y,z
3/4-x,3/4+y,1/4+z
3/4+x,3/4-y,1/4+z
loop_
_atom_site_type_symbol
_atom_site_label
_atom_site_fract_x
_atom_site_fract_y
_atom_site_fract_z
Si Si1 0.908303 0.416670 0.830450
Si Si2 0.578778 0.454336 0.608200
Si Si3 0.184096 0.094637 0.437396
Si Si4 0.328467 0.130823 0.116708
Si Si5 0.000000 0.000000 0.906816
Si Si6 0.726305 0.022325 0.465649
O O1 0.854932 0.421188 0.829343
O O2 0.926526 0.522881 0.740149
O O3 0.937455 0.303110 0.785367
O O4 0.917172 0.460846 0.981096
O O5 0.620601 0.372620 0.647864
O O6 0.572477 0.543484 0.731179
O O7 0.540634 0.356630 0.595783
O O8 0.176833 0.007089 0.566894
O O9 0.234095 0.059078 0.409293
O O10 0.295995 0.201266 0.216441
O O11 0.990394 0.123724 0.822437
#
# Coordination Sequence:
#
# PCOD9370638 Si02
#       6
#    16  16  16  16   8  16
#     4  11  22  40  66  95 130 179 221 274 350 407
#     4  10  20  37  65  91 124 180 214 280 341 404
#     4  10  21  41  60  99 135 166 230 286 324 418
#     4   9  17  35  61  86 124 168 224 264 342 404
#     4   8  18  36  58  84 122 168 200 280 324 384
#     4  10  22  41  64 101 133 170 236 275 336 416
#
# _framework density 25.920255999999998
#
# number of rings (size 3 to 8) (size 9 to 14) (size 15 to 20)
#    0.000    2.182    0.000    4.909    0.000    2.909 
#   26.182    0.000    4.000    2.182    0.000    0.000 
#    0.000    0.000    0.000    0.000    0.000    0.000 
#
# Total GULP energy -122774.320876 kJ/mol
# GULP energy per Si atom -5580.650949 kJ/mol
# Density = 2.586126 g / cm^3
# Si number density = 25.920256 Si / 1000 Ang^3
#
#
#
# Elastic Constant Matrix: (Units=GPa)
#
#
# Indices 1 2 3 4 5 6 
#
# 1 122.8507 80.5763 50.5912 0.0000 0.0000 0.0000
# 2 80.5763 153.8852 48.0035 0.0000 0.0000 0.0000
# 3 50.5912 48.0035 79.1662 0.0000 0.0000 0.0000
# 4 0.0000 0.0000 0.0000 -18.5219 0.0000 0.0000
# 5 0.0000 0.0000 0.0000 0.0000 50.4388 0.0000
# 6 0.0000 0.0000 0.0000 0.0000 0.0000 76.1501
#
#
#
# Elastic Compliance Matrix: (Units=1/GPa)
#
#
# Indices 1 2 3 4 5 6 
#
# 1 0.014171 -0.005667 -0.005620 0.000000 0.000000 0.000000
# 2 -0.005667 0.010281 -0.002612 0.000000 0.000000 0.000000
# 3 -0.005620 -0.002612 0.017807 0.000000 0.000000 0.000000
# 4 0.000000 0.000000 0.000000 -0.053990 0.000000 0.000000
# 5 0.000000 0.000000 0.000000 0.000000 0.019826 0.000000
# 6 0.000000 0.000000 0.000000 0.000000 0.000000 0.013132
#
#
# Mechanical properties :
#
#
# Convention : Reuss Voigt Hill
#
# Bulk Modulus (GPa) = 69.15389 79.36047 74.25718
# Shear Modulus (GPa) = 92.85869 33.39547 63.12708
#
# Velocity S-wave (km/s) = 5.99187 3.59331 4.94037
# Velocity P-wave (km/s) = 8.63756 6.92095 7.82646
#
# Compressibility (1/GPa) = 0.01446050
#
# Stress axis : x y z
#
# Youngs Moduli (GPa) = 70.56503 97.27026 56.15800
#
# Poissons Ratio (x) = 0.55125 0.31560
# Poissons Ratio (y) = 0.39991 0.14669
# Poissons Ratio (z) = 0.39656 0.25408
#
# Static dielectric constant tensor:
#      x y z
#    x 1.169350 0.000000 0.000000 
#    y 0.000000 1.996420 0.000000 
#    z 0.000000 0.000000 2.035640 
# 
# From -- ./inp_files/8217.got.cif
#   From: 2010.05.17/outbox.cif.g08.bks.cpg/sg43_5_cif.got.tgz:8217.got - 2010.06.03 19:21:55.
