data_PCOD9370041
_publ_section_title
;
Structure prediction by ZEFSAII (Michael W. Deem and Ramdas Pophale) SiO2 
 PCOD9370041
Probable space group: F D D 2
;
_chemical_formula_sum "Si O2"
_cell_formula_units_Z 104
_cell_length_a 7.002235
_cell_length_b 28.789138
_cell_length_c 21.149403
_cell_angle_alpha 90.000000
_cell_angle_beta 90.000000
_cell_angle_gamma 90.000000
_cell_volume 4263.472402
_symmetry_space_group_name_H-M "F D D 2"
_symmetry_group_IT_number 43
_symmetry_cell_setting 'orthorhombic'
loop_
_space_group_symop_operation_xyz
x,y,z
-x,-y,z
1/4-x,1/4+y,1/4+z
1/4+x,1/4-y,1/4+z
x,1/2+y,1/2+z
-x,1/2-y,1/2+z
1/4-x,3/4+y,3/4+z
1/4+x,3/4-y,3/4+z
1/2+x,y,1/2+z
1/2-x,-y,1/2+z
3/4-x,1/4+y,3/4+z
3/4+x,1/4-y,3/4+z
1/2+x,1/2+y,z
1/2-x,1/2-y,z
3/4-x,3/4+y,1/4+z
3/4+x,3/4-y,1/4+z
loop_
_atom_site_type_symbol
_atom_site_label
_atom_site_fract_x
_atom_site_fract_y
_atom_site_fract_z
Si Si1 0.732192 0.574958 0.116170
Si Si2 0.932196 0.152864 0.353723
Si Si3 0.706768 0.408537 0.243473
Si Si4 0.315070 0.329124 0.077630
Si Si5 0.274006 0.493604 0.527678
Si Si6 0.000000 0.000000 0.916639
Si Si7 0.226976 0.486842 0.234651
O O1 0.623656 0.623470 0.110208
O O2 0.698150 0.541656 0.056688
O O3 0.698608 0.544057 0.177435
O O4 0.957069 0.588051 0.118105
O O5 0.927625 0.118407 0.293170
O O6 0.023417 0.140907 0.421545
O O7 0.008080 0.202103 0.327357
O O8 0.672612 0.463884 0.242671
O O9 0.920415 0.404521 0.272961
O O10 0.201722 0.294665 0.124274
O O11 0.469974 0.295516 0.046371
O O12 0.500000 0.500000 0.520096
O O13 0.172607 0.485157 0.461688
O O14 0.000000 0.500000 0.221968
#
# Coordination Sequence:
#
# PCOD9370041 Si02
#       7
#    16  16  16  16  16   8  16
#     4  10  18  32  62  88 121 171 227 261 338 405
#     4  10  19  35  60  98 125 175 228 280 338 418
#     4  10  18  32  61  91 133 168 224 284 340 404
#     4  10  21  32  57  99 126 168 230 278 329 409
#     4  10  23  41  64  95 131 174 225 278 335 413
#     4  12  24  42  62  98 140 170 218 288 346 400
#     4  10  15  33  53  87 127 164 222 276 323 405
#
# _framework density 24.393263999999999
#
# number of rings (size 3 to 8) (size 9 to 14) (size 15 to 20)
#    0.000    1.846    6.923    0.462    2.154    3.692 
#    0.000    1.538    0.000    0.000   12.000    0.000 
#    0.000    0.000    0.000    0.000    0.000    0.000 
#
# Total GULP energy -145471.014206 kJ/mol
# GULP energy per Si atom -5595.039008 kJ/mol
# Density = 2.433774 g / cm^3
# Si number density = 24.393264 Si / 1000 Ang^3
#
#
#
# Elastic Constant Matrix: (Units=GPa)
#
#
# Indices 1 2 3 4 5 6 
#
# 1 82.4156 18.7539 38.8175 0.0000 0.0000 0.0000
# 2 18.7539 176.5908 74.6650 0.0000 0.0000 0.0000
# 3 38.8175 74.6650 163.8337 0.0000 0.0000 0.0000
# 4 0.0000 0.0000 0.0000 48.7937 0.0000 0.0000
# 5 0.0000 0.0000 0.0000 0.0000 20.1187 0.0000
# 6 0.0000 0.0000 0.0000 0.0000 0.0000 11.9795
#
#
#
# Elastic Compliance Matrix: (Units=1/GPa)
#
#
# Indices 1 2 3 4 5 6 
#
# 1 0.013659 -0.000102 -0.003190 0.000000 0.000000 0.000000
# 2 -0.000102 0.007015 -0.003173 0.000000 0.000000 0.000000
# 3 -0.003190 -0.003173 0.008306 0.000000 0.000000 0.000000
# 4 0.000000 0.000000 0.000000 0.020494 0.000000 0.000000
# 5 0.000000 0.000000 0.000000 0.000000 0.049705 0.000000
# 6 0.000000 0.000000 0.000000 0.000000 0.000000 0.083476
#
#
# Mechanical properties :
#
#
# Convention : Reuss Voigt Hill
#
# Bulk Modulus (GPa) = 62.30303 76.36808 69.33555
# Shear Modulus (GPa) = 24.88365 35.55197 30.21781
#
# Velocity S-wave (km/s) = 3.19737 3.82180 3.52344
# Velocity P-wave (km/s) = 6.26318 7.13091 6.71108
#
# Compressibility (1/GPa) = 0.01605058
#
# Stress axis : x y z
#
# Youngs Moduli (GPa) = 73.21055 142.54785 120.40133
#
# Poissons Ratio (x) = 0.01452 0.38407
# Poissons Ratio (y) = 0.00746 0.38203
# Poissons Ratio (z) = 0.23353 0.45230
#
# Static dielectric constant tensor:
#      x y z
#    x 2.025130 0.000000 0.000000 
#    y 0.000000 1.915380 0.000000 
#    z 0.000000 0.000000 1.922920 
# 
# From -- ./inp_files/16561.got.cif
#   From: 2010.05.17/outbox.cif.g08.bks.cpg/sg43_9_cif.got.tgz:16561.got - 2010.06.03 19:21:55.
