data_PCOD9370265
_publ_section_title
;
Structure prediction by ZEFSAII (Michael W. Deem and Ramdas Pophale) SiO2 
 PCOD9370265
Probable space group: F D D 2
;
_chemical_formula_sum "Si O2"
_cell_formula_units_Z 120
_cell_length_a 30.885779
_cell_length_b 14.073261
_cell_length_c 14.080245
_cell_angle_alpha 90.000000
_cell_angle_beta 90.000000
_cell_angle_gamma 90.000000
_cell_volume 6120.170390
_symmetry_space_group_name_H-M "F D D 2"
_symmetry_group_IT_number 43
_symmetry_cell_setting 'orthorhombic'
loop_
_space_group_symop_operation_xyz
x,y,z
-x,-y,z
1/4-x,1/4+y,1/4+z
1/4+x,1/4-y,1/4+z
x,1/2+y,1/2+z
-x,1/2-y,1/2+z
1/4-x,3/4+y,3/4+z
1/4+x,3/4-y,3/4+z
1/2+x,y,1/2+z
1/2-x,-y,1/2+z
3/4-x,1/4+y,3/4+z
3/4+x,1/4-y,3/4+z
1/2+x,1/2+y,z
1/2-x,1/2-y,z
3/4-x,3/4+y,1/4+z
3/4+x,3/4-y,1/4+z
loop_
_atom_site_type_symbol
_atom_site_label
_atom_site_fract_x
_atom_site_fract_y
_atom_site_fract_z
Si Si1 0.379594 0.324077 0.407090
Si Si2 0.569564 0.829828 0.520028
Si Si3 0.750000 0.250000 0.321535
Si Si4 0.489436 0.791703 0.152934
Si Si5 0.415029 0.880211 0.247072
Si Si6 0.345834 0.235839 0.795990
Si Si7 0.832590 0.501640 0.473216
Si Si8 0.086912 0.932758 0.845058
O O1 0.390921 0.238315 0.480382
O O2 0.335516 0.342570 0.347684
O O3 0.385162 0.419037 0.465534
O O4 0.413330 0.310582 0.320944
O O5 0.533552 0.762252 0.565588
O O6 0.556881 0.885380 0.424987
O O7 0.750877 0.151906 0.379464
O O8 0.704151 0.246872 0.269795
O O9 0.451905 0.801348 0.231742
O O10 0.534359 0.745918 0.183035
O O11 0.373689 0.831292 0.294996
O O12 0.402943 0.927151 0.144839
O O13 0.431415 0.969391 0.306414
O O14 0.867888 0.540685 0.398418
O O15 0.842962 0.394354 0.511135
#
# Coordination Sequence:
#
# PCOD9370265 Si02
#       8
#    16  16   8  16  16  16  16  16
#     4  10  18  39  58  91 112 169 198 246 301 378
#     4  10  20  37  67  82 127 160 206 245 317 364
#     4  10  20  32  58  76 120 144 204 242 306 350
#     4  11  20  38  57  89 113 167 192 265 302 365
#     4  11  21  35  62  86 124 152 208 248 317 360
#     4  11  20  37  57  89 115 159 198 255 303 366
#     4  10  22  38  64  84 128 154 212 244 311 365
#     4  10  21  40  60  93 116 170 198 253 307 379
#
# _framework density 19.607298
#
# number of rings (size 3 to 8) (size 9 to 14) (size 15 to 20)
#    0.000    1.600    4.000    3.200    0.000    0.000 
#    2.400    5.333    0.000   11.200    0.000    0.000 
#    0.000    0.000    0.000    0.000    0.000    0.000 
#
# Total GULP energy -167115.664364 kJ/mol
# GULP energy per Si atom -5570.522145 kJ/mol
# Density = 1.956267 g / cm^3
# Si number density = 19.607298 Si / 1000 Ang^3
#
#
#
# Elastic Constant Matrix: (Units=GPa)
#
#
# Indices 1 2 3 4 5 6 
#
# 1 66.7150 18.4624 33.2552 0.0000 0.0000 0.0000
# 2 18.4624 61.3819 18.0260 0.0000 0.0000 0.0000
# 3 33.2552 18.0260 63.9385 0.0000 0.0000 0.0000
# 4 0.0000 0.0000 0.0000 33.8807 0.0000 0.0000
# 5 0.0000 0.0000 0.0000 0.0000 16.2210 0.0000
# 6 0.0000 0.0000 0.0000 0.0000 0.0000 25.4354
#
#
#
# Elastic Compliance Matrix: (Units=1/GPa)
#
#
# Indices 1 2 3 4 5 6 
#
# 1 0.020854 -0.003366 -0.009898 0.000000 0.000000 0.000000
# 2 -0.003366 0.018305 -0.003410 0.000000 0.000000 0.000000
# 3 -0.009898 -0.003410 0.021749 0.000000 0.000000 0.000000
# 4 0.000000 0.000000 0.000000 0.029515 0.000000 0.000000
# 5 0.000000 0.000000 0.000000 0.000000 0.061649 0.000000
# 6 0.000000 0.000000 0.000000 0.000000 0.000000 0.039315
#
#
# Mechanical properties :
#
#
# Convention : Reuss Voigt Hill
#
# Bulk Modulus (GPa) = 36.28239 36.83585 36.55912
# Shear Modulus (GPa) = 21.37462 23.26021 22.31741
#
# Velocity S-wave (km/s) = 3.30530 3.44801 3.37741
# Velocity P-wave (km/s) = 5.75425 5.88891 5.82197
#
# Compressibility (1/GPa) = 0.02756158
#
# Stress axis : x y z
#
# Youngs Moduli (GPa) = 47.95196 54.62905 45.97848
#
# Poissons Ratio (x) = 0.18388 0.45508
# Poissons Ratio (y) = 0.16140 0.15679
# Poissons Ratio (z) = 0.47461 0.18629
#
# Static dielectric constant tensor:
#      x y z
#    x 1.718800 0.000000 0.000000 
#    y 0.000000 1.731880 0.000000 
#    z 0.000000 0.000000 1.713500 
# 
# From -- ./inp_files/10374.got.cif
#   From: 2010.05.17/outbox.cif.g08.bks.cpg/sg43_6_cif.got.tgz:10374.got - 2010.06.03 19:21:55.
