data_PCOD9370037
_publ_section_title
;
Structure prediction by ZEFSAII (Michael W. Deem and Ramdas Pophale) SiO2 
 PCOD9370037
Probable space group: F D D 2
;
_chemical_formula_sum "Si O2"
_cell_formula_units_Z 88
_cell_length_a 17.347770
_cell_length_b 27.587442
_cell_length_c 7.219352
_cell_angle_alpha 90.000000
_cell_angle_beta 90.000000
_cell_angle_gamma 90.000000
_cell_volume 3455.041802
_symmetry_space_group_name_H-M "F D D 2"
_symmetry_group_IT_number 43
_symmetry_cell_setting 'orthorhombic'
loop_
_space_group_symop_operation_xyz
x,y,z
-x,-y,z
1/4-x,1/4+y,1/4+z
1/4+x,1/4-y,1/4+z
x,1/2+y,1/2+z
-x,1/2-y,1/2+z
1/4-x,3/4+y,3/4+z
1/4+x,3/4-y,3/4+z
1/2+x,y,1/2+z
1/2-x,-y,1/2+z
3/4-x,1/4+y,3/4+z
3/4+x,1/4-y,3/4+z
1/2+x,1/2+y,z
1/2-x,1/2-y,z
3/4-x,3/4+y,1/4+z
3/4+x,3/4-y,1/4+z
loop_
_atom_site_type_symbol
_atom_site_label
_atom_site_fract_x
_atom_site_fract_y
_atom_site_fract_z
Si Si1 0.500000 0.500000 0.640121
Si Si2 0.038641 0.417323 0.587657
Si Si3 0.165615 0.491379 0.674422
Si Si4 0.486983 0.686875 0.173749
Si Si5 0.109937 0.062648 0.904922
Si Si6 0.860069 0.331111 0.431306
O O1 0.562776 0.529934 0.761738
O O2 0.443001 0.543029 0.568084
O O3 0.086065 0.462702 0.659115
O O4 0.050704 0.365673 0.679376
O O5 0.063720 0.410539 0.373367
O O6 0.948334 0.427958 0.578415
O O7 0.179413 0.521919 0.855997
O O8 0.228066 0.450731 0.621661
O O9 0.172801 0.529012 0.501793
O O10 0.556376 0.685072 0.016731
O O11 0.131117 0.116235 0.839410
#
# Coordination Sequence:
#
# PCOD9370037 Si02
#       6
#     8  16  16  16  16  16
#     4  10  16  30  48  76 102 126 178 234 254 298
#     4   9  17  30  52  79 102 135 181 225 258 315
#     4  11  19  33  54  80 108 139 177 223 273 315
#     4  10  20  32  54  79 110 135 179 221 269 323
#     4  10  15  27  48  80  95 128 179 226 248 303
#     4   9  17  28  50  79  98 131 178 222 259 306
#
# _framework density 25.470023999999999
#
# number of rings (size 3 to 8) (size 9 to 14) (size 15 to 20)
#    0.000    2.182    7.273    0.000    0.000    0.000 
#    0.000    0.000   12.000    0.000    4.727    0.000 
#    0.000    0.000    0.000    0.000    0.000    0.000 
#
# Total GULP energy -122856.679315 kJ/mol
# GULP energy per Si atom -5584.394514 kJ/mol
# Density = 2.541205 g / cm^3
# Si number density = 25.470024 Si / 1000 Ang^3
#
#
#
# Elastic Constant Matrix: (Units=GPa)
#
#
# Indices 1 2 3 4 5 6 
#
# 1 51.6492 45.8056 5.6322 0.0000 0.0000 0.0000
# 2 45.8056 189.9389 17.1252 0.0000 0.0000 0.0000
# 3 5.6322 17.1252 50.4458 -0.0001 0.0000 0.0001
# 4 0.0000 0.0000 -0.0001 1.3257 0.0000 0.0000
# 5 0.0000 0.0000 0.0000 0.0000 6.4669 0.0000
# 6 0.0000 0.0000 0.0001 0.0000 0.0000 54.0258
#
#
#
# Elastic Compliance Matrix: (Units=1/GPa)
#
#
# Indices 1 2 3 4 5 6 
#
# 1 0.024657 -0.005878 -0.000757 0.000001 0.000000 0.000000
# 2 -0.005878 0.006832 -0.001663 0.000000 0.000000 0.000000
# 3 -0.000757 -0.001663 0.020472 0.000002 0.000000 0.000000
# 4 0.000001 0.000000 0.000002 0.754314 -0.000006 0.000000
# 5 0.000000 0.000000 0.000000 -0.000006 0.154633 0.000000
# 6 0.000000 0.000000 0.000000 0.000000 0.000000 0.018510
#
#
# Mechanical properties :
#
#
# Convention : Reuss Voigt Hill
#
# Bulk Modulus (GPa) = 28.27692 47.68444 37.98068
# Shear Modulus (GPa) = 4.96128 27.26174 16.11151
#
# Velocity S-wave (km/s) = 1.39718 3.27516 2.51782
# Velocity P-wave (km/s) = 3.70526 5.75019 4.83703
#
# Compressibility (1/GPa) = 0.03536453
#
# Stress axis : x y z
#
# Youngs Moduli (GPa) = 40.55654 146.36284 48.84617
#
# Poissons Ratio (x) = 0.86032 0.03700
# Poissons Ratio (y) = 0.23839 0.08124
# Poissons Ratio (z) = 0.03072 0.24343
#
# Static dielectric constant tensor:
#      x y z
#    x 2.104440 0.000000 0.000000 
#    y 0.000000 2.034960 0.000000 
#    z 0.000000 0.000000 1.983950 
# 
# From -- ./inp_files/2925.got.cif
#   From: 2010.05.17/outbox.cif.g08.bks.cpg/sg43_2_cif.got.tgz:2925.got - 2010.06.03 19:21:55.
