data_PCOD9370459
_publ_section_title
;
Structure prediction by ZEFSAII (Michael W. Deem and Ramdas Pophale) SiO2 
 PCOD9370459
Probable space group: F D D 2
;
_chemical_formula_sum "Si O2"
_cell_formula_units_Z 120
_cell_length_a 13.392984
_cell_length_b 30.547383
_cell_length_c 12.866558
_cell_angle_alpha 90.000000
_cell_angle_beta 90.000000
_cell_angle_gamma 90.000000
_cell_volume 5263.974080
_symmetry_space_group_name_H-M "F D D 2"
_symmetry_group_IT_number 43
_symmetry_cell_setting 'orthorhombic'
loop_
_space_group_symop_operation_xyz
x,y,z
-x,-y,z
1/4-x,1/4+y,1/4+z
1/4+x,1/4-y,1/4+z
x,1/2+y,1/2+z
-x,1/2-y,1/2+z
1/4-x,3/4+y,3/4+z
1/4+x,3/4-y,3/4+z
1/2+x,y,1/2+z
1/2-x,-y,1/2+z
3/4-x,1/4+y,3/4+z
3/4+x,1/4-y,3/4+z
1/2+x,1/2+y,z
1/2-x,1/2-y,z
3/4-x,3/4+y,1/4+z
3/4+x,3/4-y,1/4+z
loop_
_atom_site_type_symbol
_atom_site_label
_atom_site_fract_x
_atom_site_fract_y
_atom_site_fract_z
Si Si1 0.052212 0.359306 0.947580
Si Si2 0.347395 0.053186 0.401237
Si Si3 0.127819 0.579893 0.970564
Si Si4 0.250000 0.250000 0.778062
Si Si5 0.082197 0.791279 0.630774
Si Si6 0.419866 0.308793 0.794228
Si Si7 0.999969 0.575054 0.544122
Si Si8 0.586412 0.855733 0.416830
O O1 0.097153 0.341484 0.840683
O O2 0.118452 0.399021 0.992671
O O3 0.056648 0.322148 0.035105
O O4 0.941719 0.379678 0.933727
O O5 0.234296 0.066039 0.424239
O O6 0.406944 0.044773 0.512086
O O7 0.397954 0.097567 0.354982
O O8 0.360549 0.007437 0.344637
O O9 0.056974 0.537263 0.963358
O O10 0.335757 0.276574 0.837222
O O11 0.165927 0.813373 0.706441
O O12 0.985353 0.786355 0.704267
O O13 0.498041 0.325953 0.877460
O O14 0.060739 0.579313 0.651018
O O15 0.949921 0.622125 0.521619
#
# Coordination Sequence:
#
# PCOD9370459 Si02
#       8
#    16  16  16   8  16  16  16  16
#     4  11  22  39  62  93 122 171 212 266 315 398
#     4  10  22  39  60  91 126 169 204 265 319 390
#     4  11  24  39  64  91 129 171 218 258 327 387
#     4  10  22  40  60  92 122 168 210 272 312 384
#     4  11  19  40  61  91 123 162 204 268 321 375
#     4  10  19  39  61  89 121 161 213 262 326 369
#     4   9  20  35  60  86 117 160 200 250 311 380
#     4   9  20  35  60  89 118 160 207 252 316 378
#
# _framework density 22.796464
#
# number of rings (size 3 to 8) (size 9 to 14) (size 15 to 20)
#    0.800    1.067    4.000    0.400    1.867    0.000 
#    7.200    0.000    0.000    0.000    3.467    0.000 
#    0.000    0.000    0.000    0.000    0.000    0.000 
#
# Total GULP energy -167137.957280 kJ/mol
# GULP energy per Si atom -5571.265243 kJ/mol
# Density = 2.274458 g / cm^3
# Si number density = 22.796464 Si / 1000 Ang^3
#
#
#
# Elastic Constant Matrix: (Units=GPa)
#
#
# Indices 1 2 3 4 5 6 
#
# 1 138.6579 36.6638 19.7106 0.0000 0.0000 0.0000
# 2 36.6638 118.9237 19.7419 0.0000 0.0000 0.0000
# 3 19.7106 19.7419 31.9323 0.0000 0.0000 0.0000
# 4 0.0000 0.0000 0.0000 9.6590 0.0000 0.0000
# 5 0.0000 0.0000 0.0000 0.0000 13.7645 0.0000
# 6 0.0000 0.0000 0.0000 0.0000 0.0000 37.6441
#
#
#
# Elastic Compliance Matrix: (Units=1/GPa)
#
#
# Indices 1 2 3 4 5 6 
#
# 1 0.008273 -0.001898 -0.003933 0.000000 0.000000 0.000000
# 2 -0.001898 0.009806 -0.004891 0.000000 0.000000 0.000000
# 3 -0.003933 -0.004891 0.036768 0.000000 0.000000 0.000000
# 4 0.000000 0.000000 0.000000 0.103531 0.000000 0.000000
# 5 0.000000 0.000000 0.000000 0.000000 0.072651 0.000000
# 6 0.000000 0.000000 0.000000 0.000000 0.000000 0.026565
#
#
# Mechanical properties :
#
#
# Convention : Reuss Voigt Hill
#
# Bulk Modulus (GPa) = 29.93774 49.08294 39.51034
# Shear Modulus (GPa) = 17.23125 26.44002 21.83563
#
# Velocity S-wave (km/s) = 2.75230 3.40932 3.09828
# Velocity P-wave (km/s) = 4.82300 6.08898 5.49259
#
# Compressibility (1/GPa) = 0.03340266
#
# Stress axis : x y z
#
# Youngs Moduli (GPa) = 120.87687 101.98153 27.19759
#
# Poissons Ratio (x) = 0.19351 0.10698
# Poissons Ratio (y) = 0.22937 0.13302
# Poissons Ratio (z) = 0.47545 0.49879
#
# Static dielectric constant tensor:
#      x y z
#    x 1.888820 0.000000 0.000000 
#    y 0.000000 1.910770 0.000000 
#    z 0.000000 0.000000 1.911640 
# 
# From -- ./inp_files/13991.got.cif
#   From: 2010.05.17/outbox.cif.g08.bks.cpg/sg43_7_cif.got.tgz:13991.got - 2010.06.03 19:21:55.
