data_PCOD9370594
_publ_section_title
;
Structure prediction by ZEFSAII (Michael W. Deem and Ramdas Pophale) SiO2 
 PCOD9370594
Probable space group: F D D 2
;
_chemical_formula_sum "Si O2"
_cell_formula_units_Z 120
_cell_length_a 22.860441
_cell_length_b 31.125816
_cell_length_c 7.264622
_cell_angle_alpha 90.000000
_cell_angle_beta 90.000000
_cell_angle_gamma 90.000000
_cell_volume 5169.140914
_symmetry_space_group_name_H-M "F D D 2"
_symmetry_group_IT_number 43
_symmetry_cell_setting 'orthorhombic'
loop_
_space_group_symop_operation_xyz
x,y,z
-x,-y,z
1/4-x,1/4+y,1/4+z
1/4+x,1/4-y,1/4+z
x,1/2+y,1/2+z
-x,1/2-y,1/2+z
1/4-x,3/4+y,3/4+z
1/4+x,3/4-y,3/4+z
1/2+x,y,1/2+z
1/2-x,-y,1/2+z
3/4-x,1/4+y,3/4+z
3/4+x,1/4-y,3/4+z
1/2+x,1/2+y,z
1/2-x,1/2-y,z
3/4-x,3/4+y,1/4+z
3/4+x,3/4-y,1/4+z
loop_
_atom_site_type_symbol
_atom_site_label
_atom_site_fract_x
_atom_site_fract_y
_atom_site_fract_z
Si Si1 0.578765 0.042376 0.062110
Si Si2 0.559690 0.841695 0.650799
Si Si3 0.660954 0.678797 0.260557
Si Si4 0.864919 0.296866 0.181078
Si Si5 0.756970 0.050522 0.364236
Si Si6 0.208565 0.465028 0.437120
Si Si7 0.022319 0.390448 0.004111
Si Si8 0.000000 0.000000 0.871114
O O1 0.551834 0.023428 0.252720
O O2 0.639356 0.067700 0.018797
O O3 0.530096 0.076278 0.004683
O O4 0.584243 0.998966 0.945515
O O5 0.580326 0.877243 0.503865
O O6 0.513150 0.806745 0.580542
O O7 0.526445 0.870929 0.800487
O O8 0.642372 0.687221 0.472648
O O9 0.603736 0.694060 0.150023
O O10 0.715823 0.710386 0.220096
O O11 0.933104 0.291961 0.223992
O O12 0.830282 0.332458 0.297520
O O13 0.739038 0.099784 0.382084
O O14 0.707893 0.015814 0.406733
O O15 0.773891 0.042194 0.150570
#
# Coordination Sequence:
#
# PCOD9370594 Si02
#       8
#    16  16  16  16  16  16  16   8
#     4  12  22  42  68 100 132 171 234 273 336 413
#     4  10  21  41  73  91 128 183 226 274 325 423
#     4  10  25  44  64 102 139 174 223 281 352 406
#     4  10  20  40  67  92 126 183 227 261 337 438
#     4  10  21  39  63  96 125 171 226 278 335 402
#     4  10  21  41  65  94 130 175 224 276 340 400
#     4  10  20  36  63  94 124 168 223 268 322 402
#     4  12  28  42  66 108 146 170 214 306 354 378
#
# _framework density 23.214690000000001
#
# number of rings (size 3 to 8) (size 9 to 14) (size 15 to 20)
#    0.000    1.600    2.667    3.200    7.467    0.000 
#    2.400    1.333    0.000    0.000    0.000    0.000 
#    0.000    0.000    0.000    0.000    0.000    0.000 
#
# Total GULP energy -167486.862581 kJ/mol
# GULP energy per Si atom -5582.895419 kJ/mol
# Density = 2.316185 g / cm^3
# Si number density = 23.214690 Si / 1000 Ang^3
#
#
#
# Elastic Constant Matrix: (Units=GPa)
#
#
# Indices 1 2 3 4 5 6 
#
# 1 118.0542 61.3470 21.1453 -0.0022 0.0024 0.0010
# 2 61.3470 177.0970 14.2349 0.0041 0.0021 -0.0041
# 3 21.1453 14.2349 30.7840 -0.0122 0.0107 0.0009
# 4 -0.0022 0.0041 -0.0122 32.9750 0.0098 -0.0082
# 5 0.0024 0.0021 0.0107 0.0098 23.8059 -0.0022
# 6 0.0010 -0.0041 0.0009 -0.0082 -0.0022 43.1549
#
#
#
# Elastic Compliance Matrix: (Units=1/GPa)
#
#
# Indices 1 2 3 4 5 6 
#
# 1 0.011372 -0.003439 -0.006221 -0.000001 0.000002 0.000000
# 2 -0.003439 0.006905 -0.000830 -0.000001 0.000000 0.000001
# 3 -0.006221 -0.000830 0.037142 0.000013 -0.000016 -0.000001
# 4 -0.000001 -0.000001 0.000013 0.030326 -0.000012 0.000006
# 5 0.000002 0.000000 -0.000016 -0.000012 0.042006 0.000002
# 6 0.000000 0.000001 -0.000001 0.000006 0.000002 0.023172
#
#
# Mechanical properties :
#
#
# Convention : Reuss Voigt Hill
#
# Bulk Modulus (GPa) = 29.03855 57.70995 43.37425
# Shear Modulus (GPa) = 27.26517 35.26768 31.26642
#
# Velocity S-wave (km/s) = 3.43079 3.90192 3.67391
# Velocity P-wave (km/s) = 5.31315 6.72407 6.05981
#
# Compressibility (1/GPa) = 0.03443699
#
# Stress axis : x y z
#
# Youngs Moduli (GPa) = 87.93346 144.82746 26.92394
#
# Poissons Ratio (x) = 0.49811 0.16750
# Poissons Ratio (y) = 0.30243 0.02236
# Poissons Ratio (z) = 0.54704 0.12026
#
# Static dielectric constant tensor:
#      x y z
#    x 1.915240 0.000000 0.000010 
#    y 0.000000 1.891950 0.000000 
#    z 0.000010 0.000000 1.959440 
# 
# From -- ./inp_files/3995.got.cif
#   From: 2010.05.17/outbox.cif.g08.bks.cpg/sg43_2_cif.got.tgz:3995.got - 2010.06.03 19:21:55.
