data_PCOD9370997
_publ_section_title
;
Structure prediction by ZEFSAII (Michael W. Deem and Ramdas Pophale) SiO2 
 PCOD9370997
Probable space group: F D D 2
;
_chemical_formula_sum "Si O2"
_cell_formula_units_Z 120
_cell_length_a 27.319326
_cell_length_b 12.307328
_cell_length_c 16.515698
_cell_angle_alpha 90.000000
_cell_angle_beta 90.000000
_cell_angle_gamma 90.000000
_cell_volume 5553.038552
_symmetry_space_group_name_H-M "F D D 2"
_symmetry_group_IT_number 43
_symmetry_cell_setting 'orthorhombic'
loop_
_space_group_symop_operation_xyz
x,y,z
-x,-y,z
1/4-x,1/4+y,1/4+z
1/4+x,1/4-y,1/4+z
x,1/2+y,1/2+z
-x,1/2-y,1/2+z
1/4-x,3/4+y,3/4+z
1/4+x,3/4-y,3/4+z
1/2+x,y,1/2+z
1/2-x,-y,1/2+z
3/4-x,1/4+y,3/4+z
3/4+x,1/4-y,3/4+z
1/2+x,1/2+y,z
1/2-x,1/2-y,z
3/4-x,3/4+y,1/4+z
3/4+x,3/4-y,1/4+z
loop_
_atom_site_type_symbol
_atom_site_label
_atom_site_fract_x
_atom_site_fract_y
_atom_site_fract_z
Si Si1 0.489561 0.121217 0.129510
Si Si2 0.989535 0.123535 0.813825
Si Si3 0.750000 0.750000 0.599780
Si Si4 0.398573 0.907506 0.802446
Si Si5 0.596987 0.769279 0.030459
Si Si6 0.811823 0.960618 0.619160
Si Si7 0.606787 0.820743 0.376709
Si Si8 0.851755 0.085801 0.401623
O O1 0.469866 0.116105 0.221911
O O2 0.447510 0.177838 0.079026
O O3 0.544514 0.168485 0.133198
O O4 0.500000 0.000000 0.099149
O O5 0.951517 0.168319 0.878451
O O6 0.032490 0.211816 0.810826
O O7 0.000000 0.000000 0.836077
O O8 0.793699 0.687514 0.553035
O O9 0.779601 0.851851 0.640048
O O10 0.385985 0.782359 0.818520
O O11 0.377937 0.943153 0.715883
O O12 0.374660 0.970794 0.878333
O O13 0.623131 0.680173 0.084900
O O14 0.572500 0.719776 0.949591
O O15 0.632863 0.858645 0.987635
O O16 0.865111 0.915505 0.593387
#
# Coordination Sequence:
#
# PCOD9370997 Si02
#       8
#    16  16   8  16  16  16  16  16
#     4  11  24  41  69 104 137 184 246 301 359 436
#     4  11  24  41  67  98 142 190 233 295 377 446
#     4  10  20  48  74  98 130 198 242 304 356 436
#     4  11  26  46  76 102 145 187 246 302 373 442
#     4  10  24  42  70 103 143 188 240 304 371 434
#     4   9  22  42  70  95 136 182 244 296 368 421
#     4  12  26  47  70 105 149 194 240 304 379 452
#     4   9  24  45  70 106 135 185 249 306 359 437
#
# _framework density 21.60979
#
# number of rings (size 3 to 8) (size 9 to 14) (size 15 to 20)
#    0.800    0.800    1.333    2.400    4.667    5.333 
#    0.000    0.000    0.000    0.000    0.000    0.000 
#    0.000    0.000    0.000    0.000    0.000    0.000 
#
# Total GULP energy -167125.795558 kJ/mol
# GULP energy per Si atom -5570.859852 kJ/mol
# Density = 2.156060 g / cm^3
# Si number density = 21.609790 Si / 1000 Ang^3
#
#
#
# Elastic Constant Matrix: (Units=GPa)
#
#
# Indices 1 2 3 4 5 6 
#
# 1 118.1873 29.3625 34.2113 0.0000 0.0000 0.0000
# 2 29.3625 84.0094 25.3945 0.0000 0.0000 0.0000
# 3 34.2113 25.3945 50.3668 0.0000 0.0000 0.0000
# 4 0.0000 0.0000 0.0000 22.9931 0.0000 0.0000
# 5 0.0000 0.0000 0.0000 0.0000 31.9492 0.0000
# 6 0.0000 0.0000 0.0000 0.0000 0.0000 33.0205
#
#
#
# Elastic Compliance Matrix: (Units=1/GPa)
#
#
# Indices 1 2 3 4 5 6 
#
# 1 0.010766 -0.001831 -0.006389 0.000000 0.000000 0.000000
# 2 -0.001831 0.014355 -0.005994 0.000000 0.000000 0.000000
# 3 -0.006389 -0.005994 0.027216 0.000000 0.000000 0.000000
# 4 0.000000 0.000000 0.000000 0.043491 0.000000 0.000000
# 5 0.000000 0.000000 0.000000 0.000000 0.031300 0.000000
# 6 0.000000 0.000000 0.000000 0.000000 0.000000 0.030284
#
#
# Mechanical properties :
#
#
# Convention : Reuss Voigt Hill
#
# Bulk Modulus (GPa) = 41.82636 47.83336 44.82986
# Shear Modulus (GPa) = 25.79841 28.49891 27.14866
#
# Velocity S-wave (km/s) = 3.45893 3.63546 3.54830
# Velocity P-wave (km/s) = 5.94555 6.30914 6.13004
#
# Compressibility (1/GPa) = 0.02390837
#
# Stress axis : x y z
#
# Youngs Moduli (GPa) = 92.88874 69.66026 36.74290
#
# Poissons Ratio (x) = 0.12758 0.23475
# Poissons Ratio (y) = 0.17012 0.22023
# Poissons Ratio (z) = 0.59347 0.41754
#
# Static dielectric constant tensor:
#      x y z
#    x 2.003900 0.000000 0.000000 
#    y 0.000000 1.843380 0.000000 
#    z 0.000000 0.000000 1.804220 
# 
# From -- ./inp_files/15100.got.cif
#   From: 2010.05.17/outbox.cif.g08.bks.cpg/sg43_8_cif.got.tgz:15100.got - 2010.06.03 19:21:55.
