data_PCOD9370454
_publ_section_title
;
Structure prediction by ZEFSAII (Michael W. Deem and Ramdas Pophale) SiO2 
 PCOD9370454
Probable space group: F D D 2
;
_chemical_formula_sum "Si O2"
_cell_formula_units_Z 112
_cell_length_a 12.035115
_cell_length_b 13.929129
_cell_length_c 28.423895
_cell_angle_alpha 90.000000
_cell_angle_beta 90.000000
_cell_angle_gamma 90.000000
_cell_volume 4764.943936
_symmetry_space_group_name_H-M "F D D 2"
_symmetry_group_IT_number 43
_symmetry_cell_setting 'orthorhombic'
loop_
_space_group_symop_operation_xyz
x,y,z
-x,-y,z
1/4-x,1/4+y,1/4+z
1/4+x,1/4-y,1/4+z
x,1/2+y,1/2+z
-x,1/2-y,1/2+z
1/4-x,3/4+y,3/4+z
1/4+x,3/4-y,3/4+z
1/2+x,y,1/2+z
1/2-x,-y,1/2+z
3/4-x,1/4+y,3/4+z
3/4+x,1/4-y,3/4+z
1/2+x,1/2+y,z
1/2-x,1/2-y,z
3/4-x,3/4+y,1/4+z
3/4+x,3/4-y,1/4+z
loop_
_atom_site_type_symbol
_atom_site_label
_atom_site_fract_x
_atom_site_fract_y
_atom_site_fract_z
Si Si1 0.733980 0.361509 0.153410
Si Si2 0.634528 0.510318 0.716384
Si Si3 0.267989 0.988879 0.058902
Si Si4 0.623478 0.214533 0.655478
Si Si5 0.338624 0.834783 0.379561
Si Si6 0.649870 0.671320 0.055147
Si Si7 0.470985 0.609453 0.222503
O O1 0.750000 0.250000 0.142072
O O2 0.826495 0.390860 0.193374
O O3 0.739741 0.424096 0.105086
O O4 0.621518 0.383721 0.181799
O O5 0.500000 0.500000 0.721096
O O6 0.667271 0.439339 0.674076
O O7 0.677138 0.474575 0.766682
O O8 0.352762 0.067827 0.080264
O O9 0.180058 0.064679 0.037067
O O10 0.312527 0.919275 0.018715
O O11 0.750000 0.250000 0.660620
O O12 0.551364 0.308722 0.640550
O O13 0.611737 0.151976 0.608189
O O14 0.577798 0.161209 0.700233
O O15 0.250000 0.750000 0.379767
O O16 0.750000 0.750000 0.062000
O O17 0.500000 0.500000 0.233856
#
# Coordination Sequence:
#
# PCOD9370454 Si02
#       7
#    16  16  16  16  16  16  16
#     4  11  27  47  73 106 149 190 243 307 374 445
#     4   9  21  39  69 101 137 174 235 288 354 421
#     4  11  23  46  69 100 147 191 236 301 364 447
#     4  11  23  44  73 101 141 187 241 303 354 434
#     4  10  21  38  70 106 135 173 235 294 356 422
#     4  10  19  38  70 102 135 171 242 303 345 414
#     4  12  29  48  70 102 153 197 240 303 380 445
#
# _framework density 23.504999999999999
#
# number of rings (size 3 to 8) (size 9 to 14) (size 15 to 20)
#    0.000    1.429    2.857    2.143   12.000    1.714 
#    2.571    0.714    0.000    0.000    0.000    0.000 
#    0.000    0.000    0.000    0.000    0.000    0.000 
#
# Total GULP energy -156051.607958 kJ/mol
# GULP energy per Si atom -5573.271713 kJ/mol
# Density = 2.345150 g / cm^3
# Si number density = 23.505000 Si / 1000 Ang^3
#
#
#
# Elastic Constant Matrix: (Units=GPa)
#
#
# Indices 1 2 3 4 5 6 
#
# 1 48.9870 9.8969 12.2237 0.0000 0.0000 0.0000
# 2 9.8969 161.0404 24.0721 0.0000 0.0000 0.0000
# 3 12.2237 24.0721 117.8632 0.0000 0.0000 0.0000
# 4 0.0000 0.0000 0.0000 274.0105 0.0000 0.0000
# 5 0.0000 0.0000 0.0000 0.0000 21.4898 0.0000
# 6 0.0000 0.0000 0.0000 0.0000 0.0000 26.1204
#
#
#
# Elastic Compliance Matrix: (Units=1/GPa)
#
#
# Indices 1 2 3 4 5 6 
#
# 1 0.021111 -0.001001 -0.001985 0.000000 0.000000 0.000000
# 2 -0.001001 0.006453 -0.001214 0.000000 0.000000 0.000000
# 3 -0.001985 -0.001214 0.008938 0.000000 0.000000 0.000000
# 4 0.000000 0.000000 0.000000 0.003649 0.000000 0.000000
# 5 0.000000 0.000000 0.000000 0.000000 0.046534 0.000000
# 6 0.000000 0.000000 0.000000 0.000000 0.000000 0.038284
#
#
# Mechanical properties :
#
#
# Convention : Reuss Voigt Hill
#
# Bulk Modulus (GPa) = 35.58432 46.69733 41.14083
# Shear Modulus (GPa) = 35.02959 83.10400 59.06680
#
# Velocity S-wave (km/s) = 3.86463 5.95253 5.01837
# Velocity P-wave (km/s) = 5.92332 8.19473 7.14980
#
# Compressibility (1/GPa) = 0.02810227
#
# Stress axis : x y z
#
# Youngs Moduli (GPa) = 47.36848 154.97628 111.87872
#
# Poissons Ratio (x) = 0.15508 0.22209
# Poissons Ratio (y) = 0.04740 0.13583
# Poissons Ratio (z) = 0.09403 0.18815
#
# Static dielectric constant tensor:
#      x y z
#    x 2.531490 0.000000 0.000000 
#    y 0.000000 1.947480 0.000000 
#    z 0.000000 0.000000 1.970770 
# 
# From -- ./inp_files/29098.got.cif
#   From: 2010.05.17/outbox.cif.g08.bks.cpg/sg43_15_cif.got.tgz:29098.got - 2010.06.03 19:21:55.
