data_PCOD9370195
_publ_section_title
;
Structure prediction by ZEFSAII (Michael W. Deem and Ramdas Pophale) SiO2 
 PCOD9370195
Probable space group: F D D 2
;
_chemical_formula_sum "Si O2"
_cell_formula_units_Z 88
_cell_length_a 18.440645
_cell_length_b 26.077411
_cell_length_c 7.406405
_cell_angle_alpha 90.000000
_cell_angle_beta 90.000000
_cell_angle_gamma 90.000000
_cell_volume 3561.623727
_symmetry_space_group_name_H-M "F D D 2"
_symmetry_group_IT_number 43
_symmetry_cell_setting 'orthorhombic'
loop_
_space_group_symop_operation_xyz
x,y,z
-x,-y,z
1/4-x,1/4+y,1/4+z
1/4+x,1/4-y,1/4+z
x,1/2+y,1/2+z
-x,1/2-y,1/2+z
1/4-x,3/4+y,3/4+z
1/4+x,3/4-y,3/4+z
1/2+x,y,1/2+z
1/2-x,-y,1/2+z
3/4-x,1/4+y,3/4+z
3/4+x,1/4-y,3/4+z
1/2+x,1/2+y,z
1/2-x,1/2-y,z
3/4-x,3/4+y,1/4+z
3/4+x,3/4-y,1/4+z
loop_
_atom_site_type_symbol
_atom_site_label
_atom_site_fract_x
_atom_site_fract_y
_atom_site_fract_z
Si Si1 0.000000 0.500000 0.149071
Si Si2 0.567769 0.395920 0.722123
Si Si3 0.464429 0.316629 0.885880
Si Si4 0.695427 0.476191 0.242013
Si Si5 0.274654 0.386867 0.565346
Si Si6 0.156186 0.807314 0.102454
O O1 0.032972 0.451751 0.253062
O O2 0.060825 0.525275 0.020585
O O3 0.531230 0.353961 0.846657
O O4 0.652731 0.402638 0.736150
O O5 0.553664 0.377974 0.515373
O O6 0.437739 0.299684 0.687208
O O7 0.487140 0.265401 0.987965
O O8 0.717861 0.433052 0.101577
O O9 0.627988 0.514485 0.220158
O O10 0.342351 0.406875 0.444265
O O11 0.223723 0.338401 0.518705
#
# Coordination Sequence:
#
# PCOD9370195 Si02
#       6
#     8  16  16  16  16  16
#     4  10  18  34  64  88 122 158 220 258 318 382
#     4  10  20  37  63  96 120 171 210 271 308 402
#     4  11  23  39  66  90 132 163 224 255 337 374
#     4  11  21  41  62  93 123 173 209 275 323 398
#     4  10  21  37  61  92 127 160 219 266 323 387
#     4  11  22  36  62  92 122 168 212 272 318 391
#
# _framework density 24.707833000000001
#
# number of rings (size 3 to 8) (size 9 to 14) (size 15 to 20)
#    0.000    1.455    3.636    3.273    2.545    2.909 
#    0.000    0.000    0.000    0.000    0.000    0.000 
#    0.000    0.000    0.000    0.000    0.000    0.000 
#
# Total GULP energy -123032.340998 kJ/mol
# GULP energy per Si atom -5592.379136 kJ/mol
# Density = 2.465160 g / cm^3
# Si number density = 24.707833 Si / 1000 Ang^3
#
#
#
# Elastic Constant Matrix: (Units=GPa)
#
#
# Indices 1 2 3 4 5 6 
#
# 1 113.5422 47.4047 19.6853 0.0000 -0.0004 0.0001
# 2 47.4047 127.0104 18.6436 -0.0001 0.0000 0.0001
# 3 19.6853 18.6436 48.9060 0.0003 -0.0016 0.0001
# 4 0.0000 -0.0001 0.0003 30.6734 -0.0003 0.0000
# 5 -0.0004 0.0000 -0.0016 -0.0003 -20.2638 0.0001
# 6 0.0001 0.0001 0.0001 0.0000 0.0001 66.0336
#
#
#
# Elastic Compliance Matrix: (Units=1/GPa)
#
#
# Indices 1 2 3 4 5 6 
#
# 1 0.010829 -0.003604 -0.002985 0.000000 0.000000 0.000000
# 2 -0.003604 0.009539 -0.002186 0.000000 0.000000 0.000000
# 3 -0.002985 -0.002186 0.022482 0.000000 -0.000002 0.000000
# 4 0.000000 0.000000 0.000000 0.032601 -0.000001 0.000000
# 5 0.000000 0.000000 -0.000002 -0.000001 -0.049349 0.000000
# 6 0.000000 0.000000 0.000000 0.000000 0.000000 0.015144
#
#
# Mechanical properties :
#
#
# Convention : Reuss Voigt Hill
#
# Bulk Modulus (GPa) = 39.52376 51.21398 45.36887
# Shear Modulus (GPa) = 74.37067 28.87031 51.62049
#
# Velocity S-wave (km/s) = 5.49230 3.42199 4.57577
# Velocity P-wave (km/s) = 7.50011 6.03210 6.80580
#
# Compressibility (1/GPa) = 0.02530124
#
# Stress axis : x y z
#
# Youngs Moduli (GPa) = 92.34089 104.82970 44.47947
#
# Poissons Ratio (x) = 0.37778 0.13278
# Poissons Ratio (y) = 0.33277 0.09723
# Poissons Ratio (z) = 0.27566 0.22915
#
# Static dielectric constant tensor:
#      x y z
#    x 1.979610 0.000000 0.000000 
#    y 0.000000 1.939650 0.000000 
#    z 0.000000 0.000000 1.946140 
# 
# From -- ./inp_files/2915.got.cif
#   From: 2010.05.17/outbox.cif.g08.bks.cpg/sg43_2_cif.got.tgz:2915.got - 2010.06.03 19:21:55.
