data_PCOD9370704
_publ_section_title
;
Structure prediction by ZEFSAII (Michael W. Deem and Ramdas Pophale) SiO2 
 PCOD9370704
Probable space group: F D D 2
;
_chemical_formula_sum "Si O2"
_cell_formula_units_Z 112
_cell_length_a 12.602595
_cell_length_b 30.662724
_cell_length_c 14.065570
_cell_angle_alpha 90.000000
_cell_angle_beta 90.000000
_cell_angle_gamma 90.000000
_cell_volume 5435.356698
_symmetry_space_group_name_H-M "F D D 2"
_symmetry_group_IT_number 43
_symmetry_cell_setting 'orthorhombic'
loop_
_space_group_symop_operation_xyz
x,y,z
-x,-y,z
1/4-x,1/4+y,1/4+z
1/4+x,1/4-y,1/4+z
x,1/2+y,1/2+z
-x,1/2-y,1/2+z
1/4-x,3/4+y,3/4+z
1/4+x,3/4-y,3/4+z
1/2+x,y,1/2+z
1/2-x,-y,1/2+z
3/4-x,1/4+y,3/4+z
3/4+x,1/4-y,3/4+z
1/2+x,1/2+y,z
1/2-x,1/2-y,z
3/4-x,3/4+y,1/4+z
3/4+x,3/4-y,1/4+z
loop_
_atom_site_type_symbol
_atom_site_label
_atom_site_fract_x
_atom_site_fract_y
_atom_site_fract_z
Si Si1 0.709597 0.533654 0.813600
Si Si2 0.203849 0.703263 0.272297
Si Si3 0.313796 0.568713 0.818311
Si Si4 0.370230 0.644205 0.946021
Si Si5 0.518419 0.323878 0.761775
Si Si6 0.703073 0.201998 0.048288
Si Si7 0.529167 0.081534 0.204162
O O1 0.716568 0.481711 0.830357
O O2 0.827093 0.548384 0.782964
O O3 0.621345 0.549859 0.739992
O O4 0.682306 0.556541 0.914417
O O5 0.250000 0.750000 0.296627
O O6 0.220666 0.694830 0.161072
O O7 0.260833 0.669550 0.341755
O O8 0.078225 0.706713 0.291073
O O9 0.347497 0.594578 0.913844
O O10 0.219312 0.595621 0.766147
O O11 0.417273 0.568146 0.751251
O O12 0.401410 0.667751 0.846706
O O13 0.267193 0.666156 0.990639
O O14 0.457322 0.369273 0.740049
O O15 0.750000 0.250000 0.025563
#
# Coordination Sequence:
#
# PCOD9370704 Si02
#       7
#    16  16  16  16  16  16  16
#     4  11  23  44  71 104 134 177 233 287 332 414
#     4  10  20  38  66  95 126 172 217 271 337 396
#     4  11  24  44  72  97 140 179 231 288 335 410
#     4  11  24  47  69  94 137 185 223 281 357 402
#     4  10  23  42  69  95 134 179 219 281 343 404
#     4  10  22  45  66  92 140 179 215 281 353 411
#     4  11  22  41  71 103 129 170 232 285 337 395
#
# _framework density 20.605822
#
# number of rings (size 3 to 8) (size 9 to 14) (size 15 to 20)
#    0.000    1.429    2.857    2.143    6.000    0.000 
#   12.857    0.000    0.000    0.000    0.000    0.000 
#    0.000    0.000    0.000    0.000    0.000    0.000 
#
# Total GULP energy -156436.209081 kJ/mol
# GULP energy per Si atom -5587.007467 kJ/mol
# Density = 2.055892 g / cm^3
# Si number density = 20.605822 Si / 1000 Ang^3
#
#
#
# Elastic Constant Matrix: (Units=GPa)
#
#
# Indices 1 2 3 4 5 6 
#
# 1 94.9169 38.4742 26.5320 0.0000 0.0000 0.0000
# 2 38.4742 74.2301 30.7192 0.0000 0.0000 0.0000
# 3 26.5320 30.7192 48.3302 0.0000 0.0000 0.0000
# 4 0.0000 0.0000 0.0000 32.3763 0.0000 0.0000
# 5 0.0000 0.0000 0.0000 0.0000 25.7495 0.0000
# 6 0.0000 0.0000 0.0000 0.0000 0.0000 28.0840
#
#
#
# Elastic Compliance Matrix: (Units=1/GPa)
#
#
# Indices 1 2 3 4 5 6 
#
# 1 0.013925 -0.005501 -0.004148 0.000000 0.000000 0.000000
# 2 -0.005501 0.020453 -0.009980 0.000000 0.000000 0.000000
# 3 -0.004148 -0.009980 0.029312 0.000000 0.000000 0.000000
# 4 0.000000 0.000000 0.000000 0.030887 0.000000 0.000000
# 5 0.000000 0.000000 0.000000 0.000000 0.038836 0.000000
# 6 0.000000 0.000000 0.000000 0.000000 0.000000 0.035607
#
#
# Mechanical properties :
#
#
# Convention : Reuss Voigt Hill
#
# Bulk Modulus (GPa) = 40.93116 45.43645 43.18380
# Shear Modulus (GPa) = 23.10310 25.35876 24.23093
#
# Velocity S-wave (km/s) = 3.35205 3.51188 3.43290
# Velocity P-wave (km/s) = 5.90667 6.20827 6.05934
#
# Compressibility (1/GPa) = 0.02443127
#
# Stress axis : x y z
#
# Youngs Moduli (GPa) = 71.81476 48.89269 34.11601
#
# Poissons Ratio (x) = 0.26895 0.14151
# Poissons Ratio (y) = 0.39503 0.34049
# Poissons Ratio (z) = 0.29789 0.48797
#
# Static dielectric constant tensor:
#      x y z
#    x 1.742990 0.000000 0.000000 
#    y 0.000000 1.774110 0.000000 
#    z 0.000000 0.000000 1.731860 
# 
# From -- ./inp_files/9768.got.cif
#   From: 2010.05.17/outbox.cif.g08.bks.cpg/sg43_5_cif.got.tgz:9768.got - 2010.06.03 19:21:55.
