data_PCOD9370042
_publ_section_title
;
Structure prediction by ZEFSAII (Michael W. Deem and Ramdas Pophale) SiO2 
 PCOD9370042
Probable space group: F D D 2
;
_chemical_formula_sum "Si O2"
_cell_formula_units_Z 96
_cell_length_a 11.090759
_cell_length_b 29.803179
_cell_length_c 10.451729
_cell_angle_alpha 90.000000
_cell_angle_beta 90.000000
_cell_angle_gamma 90.000000
_cell_volume 3454.713205
_symmetry_space_group_name_H-M "F D D 2"
_symmetry_group_IT_number 43
_symmetry_cell_setting 'orthorhombic'
loop_
_space_group_symop_operation_xyz
x,y,z
-x,-y,z
1/4-x,1/4+y,1/4+z
1/4+x,1/4-y,1/4+z
x,1/2+y,1/2+z
-x,1/2-y,1/2+z
1/4-x,3/4+y,3/4+z
1/4+x,3/4-y,3/4+z
1/2+x,y,1/2+z
1/2-x,-y,1/2+z
3/4-x,1/4+y,3/4+z
3/4+x,1/4-y,3/4+z
1/2+x,1/2+y,z
1/2-x,1/2-y,z
3/4-x,3/4+y,1/4+z
3/4+x,3/4-y,1/4+z
loop_
_atom_site_type_symbol
_atom_site_label
_atom_site_fract_x
_atom_site_fract_y
_atom_site_fract_z
Si Si1 0.711440 0.529560 0.242210
Si Si2 0.070658 0.695569 0.820412
Si Si3 0.500000 0.000000 0.384002
Si Si4 0.354430 0.417367 0.908053
Si Si5 0.117823 0.927309 0.577123
Si Si6 0.478022 0.392778 0.166244
Si Si7 0.750000 0.750000 0.677323
O O1 0.733601 0.487682 0.145227
O O2 0.841791 0.553412 0.216874
O O3 0.621988 0.572454 0.218765
O O4 0.625495 0.506763 0.349724
O O5 0.159014 0.723139 0.726882
O O6 0.016056 0.655801 0.732205
O O7 0.145616 0.667971 0.926075
O O8 0.585399 0.040679 0.336017
O O9 0.330686 0.374297 0.823316
O O10 0.237585 0.430444 0.989125
O O11 0.446428 0.396416 0.014774
O O12 0.015660 0.957215 0.516576
#
# Coordination Sequence:
#
# PCOD9370042 Si02
#       7
#    16  16   8  16  16  16   8
#     4  11  21  47  75 104 153 209 257 324 404 478
#     4  11  18  35  63 105 145 192 256 324 387 469
#     4  10  15  34  69  98 142 202 259 312 391 476
#     4  10  21  45  70 114 158 201 271 337 397 493
#     4  11  26  49  77 112 162 202 265 337 405 486
#     4  10  19  34  67 103 142 187 263 317 379 483
#     4  12  27  54  75 112 172 194 271 342 385 502
#
# _framework density 27.788125000000001
#
# number of rings (size 3 to 8) (size 9 to 14) (size 15 to 20)
#    0.000    1.333    6.667    4.000    0.000    2.667 
#    9.000    0.833    0.000    0.000    0.000    0.000 
#    0.000    0.000    0.000    0.000    0.000    0.000 
#
# Total GULP energy -133955.523850 kJ/mol
# GULP energy per Si atom -5581.480160 kJ/mol
# Density = 2.772488 g / cm^3
# Si number density = 27.788125 Si / 1000 Ang^3
#
#
#
# Elastic Constant Matrix: (Units=GPa)
#
#
# Indices 1 2 3 4 5 6 
#
# 1 69.8315 41.8735 52.2981 0.0000 0.0000 0.0000
# 2 41.8735 279.7271 62.1420 0.0000 0.0000 0.0000
# 3 52.2981 62.1420 83.6729 0.0000 0.0000 0.0000
# 4 0.0000 0.0000 0.0000 30.5634 0.0000 0.0000
# 5 0.0000 0.0000 0.0000 0.0000 34.6424 0.0000
# 6 0.0000 0.0000 0.0000 0.0000 0.0000 45.4385
#
#
#
# Elastic Compliance Matrix: (Units=1/GPa)
#
#
# Indices 1 2 3 4 5 6 
#
# 1 0.026951 -0.000350 -0.016585 0.000000 0.000000 0.000000
# 2 -0.000350 0.004286 -0.002964 0.000000 0.000000 0.000000
# 3 -0.016585 -0.002964 0.024519 0.000000 0.000000 0.000000
# 4 0.000000 0.000000 0.000000 0.032719 0.000000 0.000000
# 5 0.000000 0.000000 0.000000 0.000000 0.028866 0.000000
# 6 0.000000 0.000000 0.000000 0.000000 0.000000 0.022008
#
#
# Mechanical properties :
#
#
# Convention : Reuss Voigt Hill
#
# Bulk Modulus (GPa) = 62.66867 82.87321 72.77094
# Shear Modulus (GPa) = 27.10509 40.59004 33.84757
#
# Velocity S-wave (km/s) = 3.12656 3.82605 3.49386
# Velocity P-wave (km/s) = 5.96952 7.02896 6.52079
#
# Compressibility (1/GPa) = 0.01595694
#
# Stress axis : x y z
#
# Youngs Moduli (GPa) = 37.10422 233.32791 40.78447
#
# Poissons Ratio (x) = 0.08165 0.67643
# Poissons Ratio (y) = 0.01298 0.12090
# Poissons Ratio (z) = 0.61539 0.69164
#
# Static dielectric constant tensor:
#      x y z
#    x 2.168580 0.000000 0.000000 
#    y 0.000000 2.155710 0.000000 
#    z 0.000000 0.000000 2.307430 
# 
# From -- ./inp_files/6287.got.cif
#   From: 2010.05.17/outbox.cif.g08.bks.cpg/sg43_4_cif.got.tgz:6287.got - 2010.06.03 19:21:55.
