data_PCOD9370446
_publ_section_title
;
Structure prediction by ZEFSAII (Michael W. Deem and Ramdas Pophale) SiO2 
 PCOD9370446
Probable space group: F D D 2
;
_chemical_formula_sum "Si O2"
_cell_formula_units_Z 128
_cell_length_a 25.133882
_cell_length_b 8.721967
_cell_length_c 24.211553
_cell_angle_alpha 90.000000
_cell_angle_beta 90.000000
_cell_angle_gamma 90.000000
_cell_volume 5307.581336
_symmetry_space_group_name_H-M "F D D 2"
_symmetry_group_IT_number 43
_symmetry_cell_setting 'orthorhombic'
loop_
_space_group_symop_operation_xyz
x,y,z
-x,-y,z
1/4-x,1/4+y,1/4+z
1/4+x,1/4-y,1/4+z
x,1/2+y,1/2+z
-x,1/2-y,1/2+z
1/4-x,3/4+y,3/4+z
1/4+x,3/4-y,3/4+z
1/2+x,y,1/2+z
1/2-x,-y,1/2+z
3/4-x,1/4+y,3/4+z
3/4+x,1/4-y,3/4+z
1/2+x,1/2+y,z
1/2-x,1/2-y,z
3/4-x,3/4+y,1/4+z
3/4+x,3/4-y,1/4+z
loop_
_atom_site_type_symbol
_atom_site_label
_atom_site_fract_x
_atom_site_fract_y
_atom_site_fract_z
Si Si1 0.467243 0.745439 0.789280
Si Si2 0.354189 0.178972 0.611658
Si Si3 0.695523 0.170079 0.440426
Si Si4 0.040182 0.169175 0.470470
Si Si5 0.333225 0.238008 0.827049
Si Si6 0.807392 0.277793 0.792024
Si Si7 0.674935 0.469125 0.701426
Si Si8 0.432035 0.910344 0.329473
O O1 0.500000 0.500000 0.710305
O O2 0.444021 0.892014 0.819720
O O3 0.447681 0.735271 0.725899
O O4 0.528652 0.712763 0.800924
O O5 0.381330 0.345207 0.601835
O O6 0.400178 0.066986 0.588676
O O7 0.330211 0.134347 0.671484
O O8 0.698907 0.174516 0.374742
O O9 0.638804 0.252787 0.450500
O O10 0.694571 0.163631 0.566470
O O11 0.051068 0.072883 0.525652
O O12 0.053644 0.338395 0.495131
O O13 0.978091 0.173180 0.450845
O O14 0.374925 0.363289 0.808264
O O15 0.750000 0.250000 0.818291
O O16 0.819218 0.130110 0.756088
O O17 0.683033 0.369182 0.645244
#
# Coordination Sequence:
#
# PCOD9370446 Si02
#       8
#    16  16  16  16  16  16  16  16
#     4  11  21  38  72  98 124 176 233 287 331 399
#     4  11  21  40  70  96 133 175 227 279 348 410
#     4  11  23  44  64  96 138 182 229 287 345 417
#     4  10  21  39  65  95 133 179 221 272 349 416
#     4  10  26  44  63  98 145 180 215 285 358 423
#     4   9  19  36  62  94 131 167 222 285 340 400
#     4  10  19  38  65  95 131 171 227 284 337 407
#     4  10  21  39  64 100 127 175 226 284 336 398
#
# _framework density 24.116444999999999
#
# number of rings (size 3 to 8) (size 9 to 14) (size 15 to 20)
#    0.000    1.750    3.750    0.750    5.250    0.500 
#    4.500    2.500    5.500    0.000    0.000    0.000 
#    0.000    0.000    0.000    0.000    0.000    0.000 
#
# Total GULP energy -178580.799057 kJ/mol
# GULP energy per Si atom -5580.649971 kJ/mol
# Density = 2.406155 g / cm^3
# Si number density = 24.116445 Si / 1000 Ang^3
#
#
#
# Elastic Constant Matrix: (Units=GPa)
#
#
# Indices 1 2 3 4 5 6 
#
# 1 150.1620 17.9982 46.2002 0.0000 0.0000 0.0000
# 2 17.9982 52.6038 38.8345 0.0000 0.0000 0.0000
# 3 46.2002 38.8345 146.2775 0.0000 0.0000 0.0000
# 4 0.0000 0.0000 0.0000 24.4593 0.0000 0.0000
# 5 0.0000 0.0000 0.0000 0.0000 26.7423 0.0000
# 6 0.0000 0.0000 0.0000 0.0000 0.0000 33.1092
#
#
#
# Elastic Compliance Matrix: (Units=1/GPa)
#
#
# Indices 1 2 3 4 5 6 
#
# 1 0.007419 -0.001006 -0.002076 0.000000 0.000000 0.000000
# 2 -0.001006 0.023780 -0.005996 0.000000 0.000000 0.000000
# 3 -0.002076 -0.005996 0.009084 0.000000 0.000000 0.000000
# 4 0.000000 0.000000 0.000000 0.040884 0.000000 0.000000
# 5 0.000000 0.000000 0.000000 0.000000 0.037394 0.000000
# 6 0.000000 0.000000 0.000000 0.000000 0.000000 0.030203
#
#
# Mechanical properties :
#
#
# Convention : Reuss Voigt Hill
#
# Bulk Modulus (GPa) = 45.19156 61.67882 53.43519
# Shear Modulus (GPa) = 28.68692 33.26284 30.97488
#
# Velocity S-wave (km/s) = 3.45268 3.71787 3.58772
# Velocity P-wave (km/s) = 5.88848 6.63785 6.27436
#
# Compressibility (1/GPa) = 0.02212803
#
# Stress axis : x y z
#
# Youngs Moduli (GPa) = 134.79313 42.05139 110.08557
#
# Poissons Ratio (x) = 0.04229 0.22856
# Poissons Ratio (y) = 0.13555 0.66005
# Poissons Ratio (z) = 0.27985 0.25213
#
# Static dielectric constant tensor:
#      x y z
#    x 1.987130 0.000000 0.000000 
#    y 0.000000 1.985580 0.000000 
#    z 0.000000 0.000000 1.948390 
# 
# From -- ./inp_files/22883.got.cif
#   From: 2010.05.17/outbox.cif.g08.bks.cpg/sg43_12_cif.got.tgz:22883.got - 2010.06.03 19:21:55.
