data_PCOD9370355
_publ_section_title
;
Structure prediction by ZEFSAII (Michael W. Deem and Ramdas Pophale) SiO2 
 PCOD9370355
Probable space group: F D D 2
;
_chemical_formula_sum "Si O2"
_cell_formula_units_Z 120
_cell_length_a 31.280958
_cell_length_b 20.312102
_cell_length_c 7.758145
_cell_angle_alpha 90.000000
_cell_angle_beta 90.000000
_cell_angle_gamma 90.000000
_cell_volume 4929.385761
_symmetry_space_group_name_H-M "F D D 2"
_symmetry_group_IT_number 43
_symmetry_cell_setting 'orthorhombic'
loop_
_space_group_symop_operation_xyz
x,y,z
-x,-y,z
1/4-x,1/4+y,1/4+z
1/4+x,1/4-y,1/4+z
x,1/2+y,1/2+z
-x,1/2-y,1/2+z
1/4-x,3/4+y,3/4+z
1/4+x,3/4-y,3/4+z
1/2+x,y,1/2+z
1/2-x,-y,1/2+z
3/4-x,1/4+y,3/4+z
3/4+x,1/4-y,3/4+z
1/2+x,1/2+y,z
1/2-x,1/2-y,z
3/4-x,3/4+y,1/4+z
3/4+x,3/4-y,1/4+z
loop_
_atom_site_type_symbol
_atom_site_label
_atom_site_fract_x
_atom_site_fract_y
_atom_site_fract_z
Si Si1 0.951951 0.736025 0.332510
Si Si2 0.137968 0.746631 0.682944
Si Si3 0.862089 0.935002 0.570617
Si Si4 0.933384 0.596863 0.191837
Si Si5 0.956898 0.901991 0.953576
Si Si6 0.250000 0.250000 0.933894
Si Si7 0.272063 0.919327 0.932956
Si Si8 0.398692 0.323426 0.722002
O O1 0.905133 0.764762 0.288336
O O2 0.953843 0.667560 0.224414
O O3 0.961225 0.713394 0.524712
O O4 0.988297 0.787249 0.285981
O O5 0.122234 0.774680 0.496962
O O6 0.167403 0.684591 0.625986
O O7 0.167311 0.803345 0.768458
O O8 0.814626 0.904903 0.542601
O O9 0.896980 0.876327 0.566168
O O10 0.858865 0.851198 0.831163
O O11 0.964139 0.544374 0.098252
O O12 0.992798 0.886473 0.093651
O O13 0.976835 0.947372 0.805695
O O14 0.938660 0.837704 0.850706
O O15 0.362596 0.997667 0.941269
#
# Coordination Sequence:
#
# PCOD9370355 Si02
#       8
#    16  16  16  16  16   8  16  16
#     4  12  22  38  62  93 124 167 213 271 328 397
#     4   9  20  39  66  88 120 167 229 262 325 399
#     4  10  21  40  63  98 127 178 218 285 324 411
#     4  10  19  36  64  91 116 163 219 271 313 405
#     4  10  19  35  61  90 123 163 210 270 317 398
#     4  10  20  34  58  96 120 156 220 266 324 376
#     4  12  25  38  62  97 136 166 218 277 341 384
#     4  10  20  40  69  91 128 172 229 265 336 399
#
# _framework density 24.343805
#
# number of rings (size 3 to 8) (size 9 to 14) (size 15 to 20)
#    0.000    1.600    4.000    4.000    0.000    0.000 
#    2.400    0.000    0.000    5.600    0.000    0.000 
#    0.000    0.000    0.000    0.000    0.000    0.000 
#
# Total GULP energy -167401.552857 kJ/mol
# GULP energy per Si atom -5580.051762 kJ/mol
# Density = 2.428840 g / cm^3
# Si number density = 24.343805 Si / 1000 Ang^3
#
#
#
# Elastic Constant Matrix: (Units=GPa)
#
#
# Indices 1 2 3 4 5 6 
#
# 1 90.7742 -4.3784 5.5015 0.0001 0.0000 0.0000
# 2 -4.3784 79.1548 -4.0357 0.0001 0.0000 0.0000
# 3 5.5015 -4.0357 39.8422 0.0003 0.0000 0.0001
# 4 0.0001 0.0001 0.0003 7.5447 0.0000 0.0001
# 5 0.0000 0.0000 0.0000 0.0000 44.1035 0.0000
# 6 0.0000 0.0000 0.0001 0.0001 0.0000 35.5868
#
#
#
# Elastic Compliance Matrix: (Units=1/GPa)
#
#
# Indices 1 2 3 4 5 6 
#
# 1 0.011132 0.000540 -0.001482 0.000000 0.000000 0.000000
# 2 0.000540 0.012725 0.001214 0.000000 0.000000 0.000000
# 3 -0.001482 0.001214 0.025427 -0.000001 0.000000 0.000000
# 4 0.000000 0.000000 -0.000001 0.132543 0.000000 0.000000
# 5 0.000000 0.000000 0.000000 0.000000 0.022674 0.000000
# 6 0.000000 0.000000 0.000000 0.000000 0.000000 0.028100
#
#
# Mechanical properties :
#
#
# Convention : Reuss Voigt Hill
#
# Bulk Modulus (GPa) = 20.06884 22.66066 21.36475
# Shear Modulus (GPa) = 20.10722 31.62592 25.86657
#
# Velocity S-wave (km/s) = 2.87709 3.60826 3.26322
# Velocity P-wave (km/s) = 4.39302 5.16606 4.79515
#
# Compressibility (1/GPa) = 0.04982850
#
# Stress axis : x y z
#
# Youngs Moduli (GPa) = 89.82911 78.58379 39.32866
#
# Poissons Ratio (x) = -0.04245 0.05830
# Poissons Ratio (y) = -0.04852 -0.04776
# Poissons Ratio (z) = 0.13317 -0.09543
#
# Static dielectric constant tensor:
#      x y z
#    x 2.003140 0.000000 0.000000 
#    y 0.000000 2.117130 0.000000 
#    z 0.000000 0.000000 1.976400 
# 
# From -- ./inp_files/4832.got.cif
#   From: 2010.05.17/outbox.cif.g08.bks.cpg/sg43_3_cif.got.tgz:4832.got - 2010.06.03 19:21:55.
