data_PCOD9370568
_publ_section_title
;
Structure prediction by ZEFSAII (Michael W. Deem and Ramdas Pophale) SiO2 
 PCOD9370568
Probable space group: F D D 2
;
_chemical_formula_sum "Si O2"
_cell_formula_units_Z 96
_cell_length_a 11.462130
_cell_length_b 16.839697
_cell_length_c 24.230222
_cell_angle_alpha 90.000000
_cell_angle_beta 90.000000
_cell_angle_gamma 90.000000
_cell_volume 4676.888281
_symmetry_space_group_name_H-M "F D D 2"
_symmetry_group_IT_number 43
_symmetry_cell_setting 'orthorhombic'
loop_
_space_group_symop_operation_xyz
x,y,z
-x,-y,z
1/4-x,1/4+y,1/4+z
1/4+x,1/4-y,1/4+z
x,1/2+y,1/2+z
-x,1/2-y,1/2+z
1/4-x,3/4+y,3/4+z
1/4+x,3/4-y,3/4+z
1/2+x,y,1/2+z
1/2-x,-y,1/2+z
3/4-x,1/4+y,3/4+z
3/4+x,1/4-y,3/4+z
1/2+x,1/2+y,z
1/2-x,1/2-y,z
3/4-x,3/4+y,1/4+z
3/4+x,3/4-y,1/4+z
loop_
_atom_site_type_symbol
_atom_site_label
_atom_site_fract_x
_atom_site_fract_y
_atom_site_fract_z
Si Si1 0.357770 0.999445 0.620870
Si Si2 0.323243 0.396291 0.217759
Si Si3 0.801685 0.674777 0.636174
Si Si4 0.074973 0.844168 0.762366
Si Si5 0.956722 0.756430 0.162650
Si Si6 0.250000 0.250000 0.533284
Si Si7 0.750000 0.250000 0.576377
O O1 0.311246 0.082059 0.646199
O O2 0.500000 0.000000 0.625581
O O3 0.299366 0.931140 0.657450
O O4 0.327270 0.975712 0.558282
O O5 0.209444 0.367100 0.249060
O O6 0.406412 0.322664 0.204478
O O7 0.394240 0.466425 0.248027
O O8 0.750000 0.750000 0.670768
O O9 0.730189 0.680767 0.578486
O O10 0.934973 0.703916 0.631517
O O11 0.019301 0.816302 0.704242
O O12 0.018169 0.922296 0.788885
O O13 0.859625 0.738221 0.117210
#
# Coordination Sequence:
#
# PCOD9370568 Si02
#       7
#    16  16  16  16  16   8   8
#     4  12  20  39  65  96 128 175 229 281 335 407
#     4  12  21  38  68  98 125 176 239 280 332 402
#     4  10  24  39  64  98 142 168 215 287 348 408
#     4  12  25  38  69  95 133 177 231 286 341 409
#     4  12  21  44  66  98 133 175 228 282 344 408
#     4  10  20  36  57  96 129 170 206 288 330 394
#     4  12  24  44  63 104 131 178 228 292 342 410
#
# _framework density 20.526467
#
# number of rings (size 3 to 8) (size 9 to 14) (size 15 to 20)
#    0.500    0.000    5.833    4.000    0.000    1.333 
#    0.000    1.667    0.000    0.000    0.000    0.000 
#    0.000    0.000    0.000    0.000    0.000    0.000 
#
# Total GULP energy -133661.464769 kJ/mol
# GULP energy per Si atom -5569.227699 kJ/mol
# Density = 2.047975 g / cm^3
# Si number density = 20.526467 Si / 1000 Ang^3
#
#
#
# Elastic Constant Matrix: (Units=GPa)
#
#
# Indices 1 2 3 4 5 6 
#
# 1 39.9285 16.3836 0.6123 0.0000 0.0000 0.0000
# 2 16.3836 113.9957 35.8434 0.0000 0.0000 0.0000
# 3 0.6123 35.8434 85.1759 0.0000 0.0000 0.0000
# 4 0.0000 0.0000 0.0000 24.2668 0.0000 0.0000
# 5 0.0000 0.0000 0.0000 0.0000 2.0172 0.0000
# 6 0.0000 0.0000 0.0000 0.0000 0.0000 34.0183
#
#
#
# Elastic Compliance Matrix: (Units=1/GPa)
#
#
# Indices 1 2 3 4 5 6 
#
# 1 0.026813 -0.004371 0.001647 0.000000 0.000000 0.000000
# 2 -0.004371 0.010823 -0.004523 0.000000 0.000000 0.000000
# 3 0.001647 -0.004523 0.013632 0.000000 0.000000 0.000000
# 4 0.000000 0.000000 0.000000 0.041209 0.000000 0.000000
# 5 0.000000 0.000000 0.000000 0.000000 0.495731 0.000000
# 6 0.000000 0.000000 0.000000 0.000000 0.000000 0.029396
#
#
# Mechanical properties :
#
#
# Convention : Reuss Voigt Hill
#
# Bulk Modulus (GPa) = 27.19409 38.30875 32.75142
# Shear Modulus (GPa) = 7.75969 24.47785 16.11877
#
# Velocity S-wave (km/s) = 1.94642 3.45701 2.80530
# Velocity P-wave (km/s) = 4.28117 5.88542 5.14619
#
# Compressibility (1/GPa) = 0.03677269
#
# Stress axis : x y z
#
# Youngs Moduli (GPa) = 37.29504 92.39876 73.35742
#
# Poissons Ratio (x) = 0.40391 -0.12081
# Poissons Ratio (y) = 0.16303 0.33179
# Poissons Ratio (z) = -0.06142 0.41791
#
# Static dielectric constant tensor:
#      x y z
#    x 1.744930 0.000000 0.000000 
#    y 0.000000 1.791000 0.000000 
#    z 0.000000 0.000000 1.775460 
# 
# From -- ./inp_files/25088.got.cif
#   From: 2010.05.17/outbox.cif.g08.bks.cpg/sg43_13_cif.got.tgz:25088.got - 2010.06.03 19:21:55.
