data_PCOD9370735
_publ_section_title
;
Structure prediction by ZEFSAII (Michael W. Deem and Ramdas Pophale) SiO2 
 PCOD9370735
Probable space group: F D D 2
;
_chemical_formula_sum "Si O2"
_cell_formula_units_Z 72
_cell_length_a 13.027413
_cell_length_b 7.866876
_cell_length_c 29.512086
_cell_angle_alpha 90.000000
_cell_angle_beta 90.000000
_cell_angle_gamma 90.000000
_cell_volume 3024.547393
_symmetry_space_group_name_H-M "F D D 2"
_symmetry_group_IT_number 43
_symmetry_cell_setting 'orthorhombic'
loop_
_space_group_symop_operation_xyz
x,y,z
-x,-y,z
1/4-x,1/4+y,1/4+z
1/4+x,1/4-y,1/4+z
x,1/2+y,1/2+z
-x,1/2-y,1/2+z
1/4-x,3/4+y,3/4+z
1/4+x,3/4-y,3/4+z
1/2+x,y,1/2+z
1/2-x,-y,1/2+z
3/4-x,1/4+y,3/4+z
3/4+x,1/4-y,3/4+z
1/2+x,1/2+y,z
1/2-x,1/2-y,z
3/4-x,3/4+y,1/4+z
3/4+x,3/4-y,1/4+z
loop_
_atom_site_type_symbol
_atom_site_label
_atom_site_fract_x
_atom_site_fract_y
_atom_site_fract_z
Si Si1 0.500000 0.500000 0.096190
Si Si2 0.393752 0.659093 0.418754
Si Si3 0.377786 0.032964 0.417056
Si Si4 0.862759 0.590907 0.719373
Si Si5 0.339274 0.607635 0.320944
O O1 0.584084 0.599892 0.126756
O O2 0.549557 0.338411 0.070436
O O3 0.343273 0.484223 0.435888
O O4 0.493423 0.669454 0.451789
O O5 0.410909 0.631335 0.364943
O O6 0.340677 0.841005 0.421706
O O7 0.354705 0.148559 0.460556
O O8 0.500000 0.000000 0.409730
O O9 0.880174 0.641730 0.770810
O O10 0.250000 0.750000 0.327218
#
# Coordination Sequence:
#
# PCOD9370735 Si02
#       5
#     8  16  16  16  16
#     4  12  24  38  66 104 134 174 250 292 352 456
#     4  10  20  39  63  91 133 175 226 289 343 432
#     4  10  22  40  66  93 135 182 223 298 363 416
#     4  10  22  41  65  92 135 179 232 290 366 429
#     4  12  23  38  66  99 130 185 233 288 367 443
#
# _framework density 23.805215
#
# number of rings (size 3 to 8) (size 9 to 14) (size 15 to 20)
#    0.000    1.333    6.667    0.000    4.667    0.000 
#    0.000    2.222    0.000   10.667    0.000    0.000 
#    0.000    0.000    0.000    0.000    0.000    0.000 
#
# Total GULP energy -100396.450548 kJ/mol
# GULP energy per Si atom -5577.580586 kJ/mol
# Density = 2.375103 g / cm^3
# Si number density = 23.805215 Si / 1000 Ang^3
#
#
#
# Elastic Constant Matrix: (Units=GPa)
#
#
# Indices 1 2 3 4 5 6 
#
# 1 70.6290 35.7899 8.3155 0.0000 0.0000 0.0000
# 2 35.7899 236.4788 32.8830 0.0000 0.0000 0.0000
# 3 8.3155 32.8830 161.0191 0.0000 0.0000 0.0000
# 4 0.0000 0.0000 0.0000 11.5670 0.0000 0.0000
# 5 0.0000 0.0000 0.0000 0.0000 14.0521 0.0000
# 6 0.0000 0.0000 0.0000 0.0000 0.0000 57.3778
#
#
#
# Elastic Compliance Matrix: (Units=1/GPa)
#
#
# Indices 1 2 3 4 5 6 
#
# 1 0.015351 -0.002278 -0.000328 0.000000 0.000000 0.000000
# 2 -0.002278 0.004690 -0.000840 0.000000 0.000000 0.000000
# 3 -0.000328 -0.000840 0.006399 0.000000 0.000000 0.000000
# 4 0.000000 0.000000 0.000000 0.086453 0.000000 0.000000
# 5 0.000000 0.000000 0.000000 0.000000 0.071164 0.000000
# 6 0.000000 0.000000 0.000000 0.000000 0.000000 0.017428
#
#
# Mechanical properties :
#
#
# Convention : Reuss Voigt Hill
#
# Bulk Modulus (GPa) = 51.15277 69.12264 60.13770
# Shear Modulus (GPa) = 23.26734 42.67527 32.97131
#
# Velocity S-wave (km/s) = 3.12974 4.23861 3.72566
# Velocity P-wave (km/s) = 5.88176 7.28383 6.62002
#
# Compressibility (1/GPa) = 0.01954928
#
# Stress axis : x y z
#
# Youngs Moduli (GPa) = 65.14110 213.20717 156.27565
#
# Poissons Ratio (x) = 0.48564 0.05120
# Poissons Ratio (y) = 0.14838 0.13130
# Poissons Ratio (z) = 0.02134 0.17914
#
# Static dielectric constant tensor:
#      x y z
#    x 2.277390 0.000000 0.000000 
#    y 0.000000 1.989630 0.000000 
#    z 0.000000 0.000000 1.860510 
# 
# From -- ./inp_files/22003.got.cif
#   From: 2010.05.17/outbox.cif.g08.bks.cpg/sg43_12_cif.got.tgz:22003.got - 2010.06.03 19:21:55.
