data_PCOD9370058
_publ_section_title
;
Structure prediction by ZEFSAII (Michael W. Deem and Ramdas Pophale) SiO2 
 PCOD9370058
Probable space group: F D D 2
;
_chemical_formula_sum "Si O2"
_cell_formula_units_Z 88
_cell_length_a 26.908530
_cell_length_b 18.788675
_cell_length_c 6.953156
_cell_angle_alpha 90.000000
_cell_angle_beta 90.000000
_cell_angle_gamma 90.000000
_cell_volume 3515.346190
_symmetry_space_group_name_H-M "F D D 2"
_symmetry_group_IT_number 43
_symmetry_cell_setting 'orthorhombic'
loop_
_space_group_symop_operation_xyz
x,y,z
-x,-y,z
1/4-x,1/4+y,1/4+z
1/4+x,1/4-y,1/4+z
x,1/2+y,1/2+z
-x,1/2-y,1/2+z
1/4-x,3/4+y,3/4+z
1/4+x,3/4-y,3/4+z
1/2+x,y,1/2+z
1/2-x,-y,1/2+z
3/4-x,1/4+y,3/4+z
3/4+x,1/4-y,3/4+z
1/2+x,1/2+y,z
1/2-x,1/2-y,z
3/4-x,3/4+y,1/4+z
3/4+x,3/4-y,1/4+z
loop_
_atom_site_type_symbol
_atom_site_label
_atom_site_fract_x
_atom_site_fract_y
_atom_site_fract_z
Si Si1 0.057730 0.634501 0.096780
Si Si2 0.623845 0.516700 0.042469
Si Si3 0.816794 0.597977 0.380033
Si Si4 0.500000 0.500000 0.579069
Si Si5 0.330162 0.839541 0.087331
Si Si6 0.788206 0.460409 0.848004
O O1 0.114001 0.650041 0.163199
O O2 0.027778 0.706764 0.137560
O O3 0.061806 0.630447 0.859548
O O4 0.032451 0.562903 0.172274
O O5 0.649078 0.472435 0.873087
O O6 0.592449 0.587105 0.025902
O O7 0.588837 0.459081 0.148751
O O8 0.669845 0.537879 0.183442
O O9 0.762669 0.579489 0.304926
O O10 0.540986 0.453634 0.463274
O O11 0.310413 0.916363 0.025553
#
# Coordination Sequence:
#
# PCOD9370058 Si02
#       6
#    16  16  16   8  16  16
#     4  10  20  29  50  81 107 133 176 219 268 315
#     4  10  18  31  49  82 106 131 177 229 259 316
#     4  10  18  31  51  78 105 136 173 225 268 312
#     4  12  18  32  56  80 104 138 176 218 276 308
#     4  10  16  29  49  79 103 127 171 230 258 306
#     4  10  17  30  49  77 108 132 165 226 271 303
#
# _framework density 25.033094999999999
#
# number of rings (size 3 to 8) (size 9 to 14) (size 15 to 20)
#    0.000    2.182    7.273    1.091    0.000    0.000 
#    0.000    0.000    4.000    0.000    0.000    0.000 
#    0.000    0.000    0.000    0.000    0.000    0.000 
#
# Total GULP energy -123066.470595 kJ/mol
# GULP energy per Si atom -5593.930482 kJ/mol
# Density = 2.497612 g / cm^3
# Si number density = 25.033095 Si / 1000 Ang^3
#
#
#
# Elastic Constant Matrix: (Units=GPa)
#
#
# Indices 1 2 3 4 5 6 
#
# 1 127.2881 67.9125 14.8708 0.0000 0.0000 0.0002
# 2 67.9125 212.5598 31.2899 -0.0008 0.0000 -0.0015
# 3 14.8708 31.2899 77.2533 -0.0017 0.0000 -0.0035
# 4 0.0000 -0.0008 -0.0017 13.4865 -0.0001 -0.0024
# 5 0.0000 0.0000 0.0000 -0.0001 7.8901 -0.0003
# 6 0.0002 -0.0015 -0.0035 -0.0024 -0.0003 -144.0220
#
#
#
# Elastic Compliance Matrix: (Units=1/GPa)
#
#
# Indices 1 2 3 4 5 6 
#
# 1 0.009500 -0.002941 -0.000637 0.000000 0.000000 0.000000
# 2 -0.002941 0.005914 -0.001829 0.000000 0.000000 0.000000
# 3 -0.000637 -0.001829 0.013808 0.000002 0.000000 0.000000
# 4 0.000000 0.000000 0.000002 0.074148 0.000001 -0.000001
# 5 0.000000 0.000000 0.000000 0.000001 0.126741 0.000000
# 6 0.000000 0.000000 0.000000 -0.000001 0.000000 -0.006943
#
#
# Mechanical properties :
#
#
# Convention : Reuss Voigt Hill
#
# Bulk Modulus (GPa) = 54.33000 71.69418 63.01209
# Shear Modulus (GPa) = 20.82312 -4.32721 8.24796
#
# Velocity S-wave (km/s) = 2.88726 -1.31619 1.81713
# Velocity P-wave (km/s) = 5.73284 5.13733 5.44323
#
# Compressibility (1/GPa) = 0.01840604
#
# Stress axis : x y z
#
# Youngs Moduli (GPa) = 105.26319 169.10264 72.42230
#
# Poissons Ratio (x) = 0.49740 0.04616
# Poissons Ratio (y) = 0.30962 0.13246
# Poissons Ratio (z) = 0.06709 0.30928
#
# Static dielectric constant tensor:
#      x y z
#    x 1.963350 0.000000 0.000000 
#    y 0.000000 1.983510 0.000000 
#    z 0.000000 0.000000 2.075780 
# 
# From -- ./inp_files/6250.got.cif
#   From: 2010.05.17/outbox.cif.g08.bks.cpg/sg43_4_cif.got.tgz:6250.got - 2010.06.03 19:21:55.
