data_PCOD9370740
_publ_section_title
;
Structure prediction by ZEFSAII (Michael W. Deem and Ramdas Pophale) SiO2 
 PCOD9370740
Probable space group: F D D 2
;
_chemical_formula_sum "Si O2"
_cell_formula_units_Z 96
_cell_length_a 19.366651
_cell_length_b 10.515786
_cell_length_c 23.024420
_cell_angle_alpha 90.000000
_cell_angle_beta 90.000000
_cell_angle_gamma 90.000000
_cell_volume 4689.051090
_symmetry_space_group_name_H-M "F D D 2"
_symmetry_group_IT_number 43
_symmetry_cell_setting 'orthorhombic'
loop_
_space_group_symop_operation_xyz
x,y,z
-x,-y,z
1/4-x,1/4+y,1/4+z
1/4+x,1/4-y,1/4+z
x,1/2+y,1/2+z
-x,1/2-y,1/2+z
1/4-x,3/4+y,3/4+z
1/4+x,3/4-y,3/4+z
1/2+x,y,1/2+z
1/2-x,-y,1/2+z
3/4-x,1/4+y,3/4+z
3/4+x,1/4-y,3/4+z
1/2+x,1/2+y,z
1/2-x,1/2-y,z
3/4-x,3/4+y,1/4+z
3/4+x,3/4-y,1/4+z
loop_
_atom_site_type_symbol
_atom_site_label
_atom_site_fract_x
_atom_site_fract_y
_atom_site_fract_z
Si Si1 0.217311 0.451406 0.066260
Si Si2 0.395528 0.720778 0.434311
Si Si3 0.851883 0.821924 0.047286
Si Si4 0.221768 0.381738 0.756589
Si Si5 0.247507 0.107873 0.336456
Si Si6 0.918451 0.203740 0.199604
O O1 0.173973 0.494118 0.121637
O O2 0.183515 0.315455 0.051387
O O3 0.298647 0.424478 0.072447
O O4 0.207024 0.541839 0.011240
O O5 0.366390 0.830742 0.477493
O O6 0.463266 0.673537 0.468356
O O7 0.344182 0.600982 0.430825
O O8 0.922267 0.818456 0.083580
O O9 0.250000 0.250000 0.785604
O O10 0.208688 0.498750 0.799731
O O11 0.156309 0.353641 0.715868
O O12 0.250000 0.250000 0.310222
O O13 0.211175 0.112565 0.398897
#
# Coordination Sequence:
#
# PCOD9370740 Si02
#       6
#    16  16  16  16  16  16
#     4  10  20  39  64  91 124 166 220 264 312 385
#     4   9  19  38  66  89 121 166 216 269 310 376
#     4   9  22  40  57  93 125 170 217 254 322 390
#     4   9  20  43  67  89 121 171 219 252 313 392
#     4  11  24  42  60  95 135 162 205 267 330 384
#     4  10  21  38  63  95 119 161 217 266 314 381
#
# _framework density 20.473224999999999
#
# number of rings (size 3 to 8) (size 9 to 14) (size 15 to 20)
#    0.000    2.333    0.000    2.000    4.667    0.000 
#   18.000    2.500    0.000    0.000    0.000    0.000 
#    0.000    0.000    0.000    0.000    0.000    0.000 
#
# Total GULP energy -133757.997991 kJ/mol
# GULP energy per Si atom -5573.249916 kJ/mol
# Density = 2.042663 g / cm^3
# Si number density = 20.473225 Si / 1000 Ang^3
#
#
#
# Elastic Constant Matrix: (Units=GPa)
#
#
# Indices 1 2 3 4 5 6 
#
# 1 73.7722 3.6830 12.4050 0.0000 0.0000 0.0000
# 2 3.6830 68.3211 36.4503 0.0000 0.0000 0.0000
# 3 12.4050 36.4503 102.5689 0.0000 0.0000 0.0000
# 4 0.0000 0.0000 0.0000 12.8030 0.0000 0.0000
# 5 0.0000 0.0000 0.0000 0.0000 22.3555 0.0000
# 6 0.0000 0.0000 0.0000 0.0000 0.0000 12.0429
#
#
#
# Elastic Compliance Matrix: (Units=1/GPa)
#
#
# Indices 1 2 3 4 5 6 
#
# 1 0.013838 0.000181 -0.001738 0.000000 0.000000 0.000000
# 2 0.000181 0.018063 -0.006441 0.000000 0.000000 0.000000
# 3 -0.001738 -0.006441 0.012249 0.000000 0.000000 0.000000
# 4 0.000000 0.000000 0.000000 0.078107 0.000000 0.000000
# 5 0.000000 0.000000 0.000000 0.000000 0.044732 0.000000
# 6 0.000000 0.000000 0.000000 0.000000 0.000000 0.083037
#
#
# Mechanical properties :
#
#
# Convention : Reuss Voigt Hill
#
# Bulk Modulus (GPa) = 35.51804 38.85987 37.18896
# Shear Modulus (GPa) = 18.15495 22.24852 20.20173
#
# Velocity S-wave (km/s) = 2.98109 3.30011 3.14465
# Velocity P-wave (km/s) = 5.40698 5.79163 5.60261
#
# Compressibility (1/GPa) = 0.02815471
#
# Stress axis : x y z
#
# Youngs Moduli (GPa) = 72.26235 55.36034 81.64065
#
# Poissons Ratio (x) = -0.01004 0.14190
# Poissons Ratio (y) = -0.01310 0.52586
# Poissons Ratio (z) = 0.12560 0.35659
#
# Static dielectric constant tensor:
#      x y z
#    x 1.783170 0.000000 0.000000 
#    y 0.000000 1.777810 0.000000 
#    z 0.000000 0.000000 1.751280 
# 
# From -- ./inp_files/17128.got.cif
#   From: 2010.05.17/outbox.cif.g08.bks.cpg/sg43_9_cif.got.tgz:17128.got - 2010.06.03 19:21:55.
