data_PCOD9370835
_publ_section_title
;
Structure prediction by ZEFSAII (Michael W. Deem and Ramdas Pophale) SiO2 
 PCOD9370835
Probable space group: F D D 2
;
_chemical_formula_sum "Si O2"
_cell_formula_units_Z 112
_cell_length_a 30.143436
_cell_length_b 15.658432
_cell_length_c 9.472187
_cell_angle_alpha 90.000000
_cell_angle_beta 90.000000
_cell_angle_gamma 90.000000
_cell_volume 4470.862250
_symmetry_space_group_name_H-M "F D D 2"
_symmetry_group_IT_number 43
_symmetry_cell_setting 'orthorhombic'
loop_
_space_group_symop_operation_xyz
x,y,z
-x,-y,z
1/4-x,1/4+y,1/4+z
1/4+x,1/4-y,1/4+z
x,1/2+y,1/2+z
-x,1/2-y,1/2+z
1/4-x,3/4+y,3/4+z
1/4+x,3/4-y,3/4+z
1/2+x,y,1/2+z
1/2-x,-y,1/2+z
3/4-x,1/4+y,3/4+z
3/4+x,1/4-y,3/4+z
1/2+x,1/2+y,z
1/2-x,1/2-y,z
3/4-x,3/4+y,1/4+z
3/4+x,3/4-y,1/4+z
loop_
_atom_site_type_symbol
_atom_site_label
_atom_site_fract_x
_atom_site_fract_y
_atom_site_fract_z
Si Si1 0.753049 0.940944 0.898280
Si Si2 0.000000 0.000000 0.201019
Si Si3 0.250000 0.250000 0.963619
Si Si4 0.049782 0.232834 0.913428
Si Si5 0.661401 0.499158 0.063960
Si Si6 0.180862 0.293893 0.205632
Si Si7 0.619590 0.075441 0.847347
Si Si8 0.926712 0.595026 0.845050
O O1 0.756611 0.000569 0.761202
O O2 0.797205 0.958295 0.989487
O O3 0.750607 0.838691 0.878177
O O4 0.713670 0.971302 0.000573
O O5 0.023627 0.929591 0.298334
O O6 0.960612 0.973273 0.094672
O O7 0.208263 0.259784 0.071062
O O8 0.073498 0.146013 0.951252
O O9 0.074957 0.321058 0.939475
O O10 0.617029 0.503673 0.969339
O O11 0.668421 0.397236 0.077833
O O12 0.646415 0.546573 0.207995
O O13 0.651290 0.123375 0.955733
O O14 0.597231 0.988683 0.903735
#
# Coordination Sequence:
#
# PCOD9370835 Si02
#       8
#    16   8   8  16  16  16  16  16
#     4  11  25  43  67  96 136 172 224 273 340 402
#     4  11  20  41  70  98 130 180 230 274 320 422
#     4   9  22  41  62  98 136 172 206 286 344 386
#     4  11  26  43  67 102 133 178 223 278 341 408
#     4  11  21  39  69  98 128 176 232 269 323 403
#     4  10  20  40  68  98 132 174 229 271 329 397
#     4  10  22  41  63 101 129 176 221 288 320 397
#     4  11  25  42  66  96 138 175 229 274 350 386
#
# _framework density 25.051096000000001
#
# number of rings (size 3 to 8) (size 9 to 14) (size 15 to 20)
#    0.000    1.429    2.857    2.571    8.000    1.714 
#    0.000    2.857    0.000    0.000    0.000    0.000 
#    0.000    0.000    0.000    0.000    0.000    0.000 
#
# Total GULP energy -156751.073110 kJ/mol
# GULP energy per Si atom -5598.252611 kJ/mol
# Density = 2.499408 g / cm^3
# Si number density = 25.051096 Si / 1000 Ang^3
#
#
#
# Elastic Constant Matrix: (Units=GPa)
#
#
# Indices 1 2 3 4 5 6 
#
# 1 72.2538 16.7651 -17.2078 0.0000 0.0000 0.0000
# 2 16.7651 182.1146 6.4304 0.0000 0.0000 0.0000
# 3 -17.2078 6.4304 59.2832 0.0000 0.0000 0.0000
# 4 0.0000 0.0000 0.0000 33.6782 0.0000 0.0000
# 5 0.0000 0.0000 0.0000 0.0000 13.8377 0.0000
# 6 0.0000 0.0000 0.0000 0.0000 0.0000 33.9318
#
#
#
# Elastic Compliance Matrix: (Units=1/GPa)
#
#
# Indices 1 2 3 4 5 6 
#
# 1 0.015303 -0.001572 0.004612 0.000000 0.000000 0.000000
# 2 -0.001572 0.005674 -0.001072 0.000000 0.000000 0.000000
# 3 0.004612 -0.001072 0.018323 0.000000 0.000000 0.000000
# 4 0.000000 0.000000 0.000000 0.029693 0.000000 0.000000
# 5 0.000000 0.000000 0.000000 0.000000 0.072266 0.000000
# 6 0.000000 0.000000 0.000000 0.000000 0.000000 0.029471
#
#
# Mechanical properties :
#
#
# Convention : Reuss Voigt Hill
#
# Bulk Modulus (GPa) = 23.12754 36.18079 29.65416
# Shear Modulus (GPa) = 27.59314 36.80047 32.19680
#
# Velocity S-wave (km/s) = 3.32245 3.83693 3.58892
# Velocity P-wave (km/s) = 4.89596 5.83982 5.38860
#
# Compressibility (1/GPa) = 0.04323850
#
# Stress axis : x y z
#
# Youngs Moduli (GPa) = 65.34554 176.25584 54.57548
#
# Poissons Ratio (x) = 0.27701 -0.25173
# Poissons Ratio (y) = 0.10270 0.05848
# Poissons Ratio (z) = -0.30140 0.18888
#
# Static dielectric constant tensor:
#      x y z
#    x 1.991380 0.000000 0.000000 
#    y 0.000000 1.951280 0.000000 
#    z 0.000000 0.000000 2.028910 
# 
# From -- ./inp_files/8326.got.cif
#   From: 2010.05.17/outbox.cif.g08.bks.cpg/sg43_5_cif.got.tgz:8326.got - 2010.06.03 19:21:55.
