data_PCOD9370658
_publ_section_title
;
Structure prediction by ZEFSAII (Michael W. Deem and Ramdas Pophale) SiO2 
 PCOD9370658
Probable space group: F D D 2
;
_chemical_formula_sum "Si O2"
_cell_formula_units_Z 112
_cell_length_a 17.005507
_cell_length_b 12.559740
_cell_length_c 27.095437
_cell_angle_alpha 90.000000
_cell_angle_beta 90.000000
_cell_angle_gamma 90.000000
_cell_volume 5787.172043
_symmetry_space_group_name_H-M "F D D 2"
_symmetry_group_IT_number 43
_symmetry_cell_setting 'orthorhombic'
loop_
_space_group_symop_operation_xyz
x,y,z
-x,-y,z
1/4-x,1/4+y,1/4+z
1/4+x,1/4-y,1/4+z
x,1/2+y,1/2+z
-x,1/2-y,1/2+z
1/4-x,3/4+y,3/4+z
1/4+x,3/4-y,3/4+z
1/2+x,y,1/2+z
1/2-x,-y,1/2+z
3/4-x,1/4+y,3/4+z
3/4+x,1/4-y,3/4+z
1/2+x,1/2+y,z
1/2-x,1/2-y,z
3/4-x,3/4+y,1/4+z
3/4+x,3/4-y,1/4+z
loop_
_atom_site_type_symbol
_atom_site_label
_atom_site_fract_x
_atom_site_fract_y
_atom_site_fract_z
Si Si1 0.850077 0.869926 0.513220
Si Si2 0.818810 0.820691 0.728070
Si Si3 0.240781 0.457665 0.813652
Si Si4 0.078448 0.568080 0.567529
Si Si5 0.030118 0.117684 0.671549
Si Si6 0.190397 0.462308 0.489500
Si Si7 0.656392 0.271528 0.924605
O O1 0.897711 0.790175 0.548745
O O2 0.756682 0.889255 0.517013
O O3 0.868980 0.826691 0.458074
O O4 0.886207 0.987812 0.514454
O O5 0.750000 0.750000 0.704114
O O6 0.780254 0.903742 0.765773
O O7 0.879273 0.869283 0.688856
O O8 0.291991 0.563715 0.821710
O O9 0.238501 0.391486 0.864367
O O10 0.137876 0.535239 0.524553
O O11 0.120413 0.536337 0.618976
O O12 0.000000 0.500000 0.559785
O O13 0.986009 0.208910 0.702712
O O14 0.000000 0.000000 0.684178
O O15 0.142732 0.377859 0.456368
O O16 0.750000 0.250000 0.919761
#
# Coordination Sequence:
#
# PCOD9370658 Si02
#       7
#    16  16  16  16  16  16  16
#     4   9  19  37  61  82 120 158 208 258 303 371
#     4   9  20  38  59  88 120 160 209 266 310 373
#     4  11  21  40  62  89 126 164 211 267 322 379
#     4  11  22  36  63  90 125 165 205 256 330 387
#     4  11  21  37  64  88 122 169 212 259 328 386
#     4  10  20  38  59  89 121 160 208 255 317 384
#     4   9  18  36  57  84 120 158 197 255 310 377
#
# _framework density 19.353149999999999
#
# number of rings (size 3 to 8) (size 9 to 14) (size 15 to 20)
#    0.000    2.000    1.429    3.000    2.000    0.000 
#    5.143    0.714    9.429    0.000    0.000    0.000 
#    0.000    0.000    0.000    0.000    0.000    0.000 
#
# Total GULP energy -155910.239463 kJ/mol
# GULP energy per Si atom -5568.222838 kJ/mol
# Density = 1.930910 g / cm^3
# Si number density = 19.353150 Si / 1000 Ang^3
#
#
#
# Elastic Constant Matrix: (Units=GPa)
#
#
# Indices 1 2 3 4 5 6 
#
# 1 70.1910 24.0358 31.3635 0.0000 0.0000 0.0000
# 2 24.0358 74.2484 20.3823 0.0000 0.0000 0.0000
# 3 31.3635 20.3823 64.8349 0.0000 0.0000 0.0000
# 4 0.0000 0.0000 0.0000 24.3709 0.0000 0.0000
# 5 0.0000 0.0000 0.0000 0.0000 26.2756 0.0000
# 6 0.0000 0.0000 0.0000 0.0000 0.0000 32.0592
#
#
#
# Elastic Compliance Matrix: (Units=1/GPa)
#
#
# Indices 1 2 3 4 5 6 
#
# 1 0.019210 -0.004014 -0.008031 0.000000 0.000000 0.000000
# 2 -0.004014 0.015579 -0.002956 0.000000 0.000000 0.000000
# 3 -0.008031 -0.002956 0.020238 0.000000 0.000000 0.000000
# 4 0.000000 0.000000 0.000000 0.041033 0.000000 0.000000
# 5 0.000000 0.000000 0.000000 0.000000 0.038058 0.000000
# 6 0.000000 0.000000 0.000000 0.000000 0.000000 0.031192
#
#
# Mechanical properties :
#
#
# Convention : Reuss Voigt Hill
#
# Bulk Modulus (GPa) = 39.95926 40.09306 40.02616
# Shear Modulus (GPa) = 24.55157 25.44064 24.99610
#
# Velocity S-wave (km/s) = 3.56562 3.62960 3.59775
# Velocity P-wave (km/s) = 6.13545 6.19087 6.16322
#
# Compressibility (1/GPa) = 0.02502549
#
# Stress axis : x y z
#
# Youngs Moduli (GPa) = 52.05687 64.18828 49.41239
#
# Poissons Ratio (x) = 0.25766 0.39682
# Poissons Ratio (y) = 0.20896 0.14606
# Poissons Ratio (z) = 0.41805 0.18973
#
# Static dielectric constant tensor:
#      x y z
#    x 1.735510 0.000000 0.000000 
#    y 0.000000 1.698100 0.000000 
#    z 0.000000 0.000000 1.691480 
# 
# From -- ./inp_files/22419.got.cif
#   From: 2010.05.17/outbox.cif.g08.bks.cpg/sg43_12_cif.got.tgz:22419.got - 2010.06.03 19:21:55.
