data_PCOD9370649
_publ_section_title
;
Structure prediction by ZEFSAII (Michael W. Deem and Ramdas Pophale) SiO2 
 PCOD9370649
Probable space group: F D D 2
;
_chemical_formula_sum "Si O2"
_cell_formula_units_Z 104
_cell_length_a 18.400699
_cell_length_b 9.311608
_cell_length_c 26.871769
_cell_angle_alpha 90.000000
_cell_angle_beta 90.000000
_cell_angle_gamma 90.000000
_cell_volume 4604.211481
_symmetry_space_group_name_H-M "F D D 2"
_symmetry_group_IT_number 43
_symmetry_cell_setting 'orthorhombic'
loop_
_space_group_symop_operation_xyz
x,y,z
-x,-y,z
1/4-x,1/4+y,1/4+z
1/4+x,1/4-y,1/4+z
x,1/2+y,1/2+z
-x,1/2-y,1/2+z
1/4-x,3/4+y,3/4+z
1/4+x,3/4-y,3/4+z
1/2+x,y,1/2+z
1/2-x,-y,1/2+z
3/4-x,1/4+y,3/4+z
3/4+x,1/4-y,3/4+z
1/2+x,1/2+y,z
1/2-x,1/2-y,z
3/4-x,3/4+y,1/4+z
3/4+x,3/4-y,1/4+z
loop_
_atom_site_type_symbol
_atom_site_label
_atom_site_fract_x
_atom_site_fract_y
_atom_site_fract_z
Si Si1 0.095698 0.768557 0.960440
Si Si2 0.586833 0.471304 0.738544
Si Si3 0.949955 0.770392 0.170602
Si Si4 0.367436 0.513020 0.423058
Si Si5 0.869047 0.138908 0.587815
Si Si6 0.000000 0.500000 0.415921
Si Si7 0.917255 0.060021 0.312815
O O1 0.079989 0.604700 0.946369
O O2 0.028951 0.872198 0.950195
O O3 0.156642 0.830688 0.921512
O O4 0.127092 0.758861 0.015715
O O5 0.500000 0.500000 0.742459
O O6 0.589517 0.313861 0.715836
O O7 0.620965 0.582624 0.699196
O O8 0.620148 0.501125 0.791983
O O9 0.940445 0.668778 0.121786
O O10 0.034183 0.785065 0.182475
O O11 0.382950 0.516188 0.365103
O O12 0.808655 0.184680 0.627856
O O13 0.846444 0.984175 0.564681
O O14 0.000000 0.000000 0.311198
#
# Coordination Sequence:
#
# PCOD9370649 Si02
#       7
#    16  16  16  16  16   8  16
#     4  11  24  44  68  95 140 177 231 287 349 415
#     4  10  20  37  68  91 126 177 228 274 344 409
#     4  10  23  41  65  98 132 174 231 287 346 415
#     4  11  22  43  65  97 132 175 227 289 335 414
#     4  11  21  41  67  94 132 181 226 281 350 422
#     4  10  24  44  66 102 140 178 230 298 346 414
#     4  12  25  40  67  99 134 180 234 282 349 423
#
# _framework density 22.588016
#
# number of rings (size 3 to 8) (size 9 to 14) (size 15 to 20)
#    0.000    1.231    3.846    2.308    2.154    2.462 
#    8.308    0.000    0.000    0.000    0.000    0.000 
#    0.000    0.000    0.000    0.000    0.000    0.000 
#
# Total GULP energy -145235.612909 kJ/mol
# GULP energy per Si atom -5585.985112 kJ/mol
# Density = 2.253660 g / cm^3
# Si number density = 22.588016 Si / 1000 Ang^3
#
#
#
# Elastic Constant Matrix: (Units=GPa)
#
#
# Indices 1 2 3 4 5 6 
#
# 1 31.6221 24.9715 19.6693 0.0000 0.0000 0.0000
# 2 24.9715 115.1147 39.4095 0.0000 0.0000 0.0000
# 3 19.6693 39.4095 146.7338 0.0000 0.0000 0.0000
# 4 0.0000 0.0000 0.0000 37.0801 0.0000 0.0000
# 5 0.0000 0.0000 0.0000 0.0000 29.6468 0.0000
# 6 0.0000 0.0000 0.0000 0.0000 0.0000 31.8916
#
#
#
# Elastic Compliance Matrix: (Units=1/GPa)
#
#
# Indices 1 2 3 4 5 6 
#
# 1 0.039562 -0.007452 -0.003302 0.000000 0.000000 0.000000
# 2 -0.007452 0.010970 -0.001947 0.000000 0.000000 0.000000
# 3 -0.003302 -0.001947 0.007781 0.000000 0.000000 0.000000
# 4 0.000000 0.000000 0.000000 0.026969 0.000000 0.000000
# 5 0.000000 0.000000 0.000000 0.000000 0.033730 0.000000
# 6 0.000000 0.000000 0.000000 0.000000 0.000000 0.031356
#
#
# Mechanical properties :
#
#
# Convention : Reuss Voigt Hill
#
# Bulk Modulus (GPa) = 30.38523 51.28570 40.83546
# Shear Modulus (GPa) = 26.77523 33.68507 30.23015
#
# Velocity S-wave (km/s) = 3.44666 3.86590 3.66228
# Velocity P-wave (km/s) = 5.41483 6.53307 6.00006
#
# Compressibility (1/GPa) = 0.03291073
#
# Stress axis : x y z
#
# Youngs Moduli (GPa) = 25.27700 91.15624 128.52299
#
# Poissons Ratio (x) = 0.67926 0.42435
# Poissons Ratio (y) = 0.18836 0.25030
# Poissons Ratio (z) = 0.08346 0.17753
#
# Static dielectric constant tensor:
#      x y z
#    x 1.883350 0.000000 0.000000 
#    y 0.000000 1.850630 0.000000 
#    z 0.000000 0.000000 1.794120 
# 
# From -- ./inp_files/26340.got.cif
#   From: 2010.05.17/outbox.cif.g08.bks.cpg/sg43_14_cif.got.tgz:26340.got - 2010.06.03 19:21:55.
