data_PCOD9370826
_publ_section_title
;
Structure prediction by ZEFSAII (Michael W. Deem and Ramdas Pophale) SiO2 
 PCOD9370826
Probable space group: F D D 2
;
_chemical_formula_sum "Si O2"
_cell_formula_units_Z 104
_cell_length_a 17.614388
_cell_length_b 26.460234
_cell_length_c 11.080460
_cell_angle_alpha 90.000000
_cell_angle_beta 90.000000
_cell_angle_gamma 90.000000
_cell_volume 5164.389974
_symmetry_space_group_name_H-M "F D D 2"
_symmetry_group_IT_number 43
_symmetry_cell_setting 'orthorhombic'
loop_
_space_group_symop_operation_xyz
x,y,z
-x,-y,z
1/4-x,1/4+y,1/4+z
1/4+x,1/4-y,1/4+z
x,1/2+y,1/2+z
-x,1/2-y,1/2+z
1/4-x,3/4+y,3/4+z
1/4+x,3/4-y,3/4+z
1/2+x,y,1/2+z
1/2-x,-y,1/2+z
3/4-x,1/4+y,3/4+z
3/4+x,1/4-y,3/4+z
1/2+x,1/2+y,z
1/2-x,1/2-y,z
3/4-x,3/4+y,1/4+z
3/4+x,3/4-y,1/4+z
loop_
_atom_site_type_symbol
_atom_site_label
_atom_site_fract_x
_atom_site_fract_y
_atom_site_fract_z
Si Si1 0.788988 0.805377 0.760220
Si Si2 0.057576 0.453191 0.288391
Si Si3 0.807976 0.607059 0.629285
Si Si4 0.281600 0.554232 0.879273
Si Si5 0.899639 0.273198 0.070053
Si Si6 0.250000 0.250000 0.420832
Si Si7 0.222834 0.647982 0.772035
O O1 0.750000 0.750000 0.757110
O O2 0.738628 0.845865 0.684285
O O3 0.867632 0.799041 0.690028
O O4 0.804246 0.816146 0.900895
O O5 0.138414 0.471197 0.344587
O O6 0.034540 0.409923 0.382207
O O7 0.000000 0.500000 0.295918
O O8 0.773752 0.577173 0.514040
O O9 0.817287 0.566210 0.734085
O O10 0.892530 0.619935 0.580382
O O11 0.212661 0.517790 0.849565
O O12 0.280924 0.603816 0.796413
O O13 0.826054 0.250062 0.001397
O O14 0.245275 0.199633 0.340259
#
# Coordination Sequence:
#
# PCOD9370826 Si02
#       7
#    16  16  16  16  16   8  16
#     4  11  23  43  69  96 134 178 221 276 340 395
#     4  10  24  46  64  97 137 174 215 281 342 396
#     4  10  23  44  66 101 133 176 228 276 331 400
#     4  11  25  42  69 101 132 177 228 276 329 406
#     4  11  24  41  69  97 135 175 223 277 331 401
#     4  10  20  40  68 100 128 176 220 270 340 390
#     4  10  21  41  70  95 133 172 224 272 334 403
#
# _framework density 20.137906999999998
#
# number of rings (size 3 to 8) (size 9 to 14) (size 15 to 20)
#    0.000    1.538    1.538    2.769    6.462    1.231 
#    5.538    0.000    0.000    0.000    0.000    0.000 
#    0.000    0.000    0.000    0.000    0.000    0.000 
#
# Total GULP energy -145198.268700 kJ/mol
# GULP energy per Si atom -5584.548796 kJ/mol
# Density = 2.009207 g / cm^3
# Si number density = 20.137907 Si / 1000 Ang^3
#
#
#
# Elastic Constant Matrix: (Units=GPa)
#
#
# Indices 1 2 3 4 5 6 
#
# 1 91.7406 65.8486 57.4213 0.0000 0.0000 0.0000
# 2 65.8486 98.3017 64.7699 0.0000 0.0000 0.0000
# 3 57.4213 64.7699 178.9232 0.0000 0.0000 0.0000
# 4 0.0000 0.0000 0.0000 382.5368 0.0000 0.0000
# 5 0.0000 0.0000 0.0000 0.0000 21.0969 0.0000
# 6 0.0000 0.0000 0.0000 0.0000 0.0000 38.6094
#
#
#
# Elastic Compliance Matrix: (Units=1/GPa)
#
#
# Indices 1 2 3 4 5 6 
#
# 1 0.021652 -0.013034 -0.002230 0.000000 0.000000 0.000000
# 2 -0.013034 0.021206 -0.003493 0.000000 0.000000 0.000000
# 3 -0.002230 -0.003493 0.007569 0.000000 0.000000 0.000000
# 4 0.000000 0.000000 0.000000 0.002614 0.000000 0.000000
# 5 0.000000 0.000000 0.000000 0.000000 0.047400 0.000000
# 6 0.000000 0.000000 0.000000 0.000000 0.000000 0.025900
#
#
# Mechanical properties :
#
#
# Convention : Reuss Voigt Hill
#
# Bulk Modulus (GPa) = 77.45308 82.78278 80.11793
# Shear Modulus (GPa) = 29.73339 100.51034 65.12186
#
# Velocity S-wave (km/s) = 3.84668 7.07244 5.69282
# Velocity P-wave (km/s) = 7.63375 10.38700 9.11493
#
# Compressibility (1/GPa) = 0.01291104
#
# Stress axis : x y z
#
# Youngs Moduli (GPa) = 46.18546 47.15727 132.11186
#
# Poissons Ratio (x) = 0.61466 0.29465
# Poissons Ratio (y) = 0.60199 0.46152
# Poissons Ratio (z) = 0.10301 0.16474
#
# Static dielectric constant tensor:
#      x y z
#    x 1.749490 0.000000 0.000000 
#    y 0.000000 1.212400 0.000000 
#    z 0.000000 0.000000 1.737520 
# 
# From -- ./inp_files/6779.got.cif
#   From: 2010.05.17/outbox.cif.g08.bks.cpg/sg43_4_cif.got.tgz:6779.got - 2010.06.03 19:21:55.
