data_PCOD9370133
_publ_section_title
;
Structure prediction by ZEFSAII (Michael W. Deem and Ramdas Pophale) SiO2 
 PCOD9370133
Probable space group: F D D 2
;
_chemical_formula_sum "Si O2"
_cell_formula_units_Z 104
_cell_length_a 9.087355
_cell_length_b 22.376346
_cell_length_c 19.980545
_cell_angle_alpha 90.000000
_cell_angle_beta 90.000000
_cell_angle_gamma 90.000000
_cell_volume 4062.879979
_symmetry_space_group_name_H-M "F D D 2"
_symmetry_group_IT_number 43
_symmetry_cell_setting 'orthorhombic'
loop_
_space_group_symop_operation_xyz
x,y,z
-x,-y,z
1/4-x,1/4+y,1/4+z
1/4+x,1/4-y,1/4+z
x,1/2+y,1/2+z
-x,1/2-y,1/2+z
1/4-x,3/4+y,3/4+z
1/4+x,3/4-y,3/4+z
1/2+x,y,1/2+z
1/2-x,-y,1/2+z
3/4-x,1/4+y,3/4+z
3/4+x,1/4-y,3/4+z
1/2+x,1/2+y,z
1/2-x,1/2-y,z
3/4-x,3/4+y,1/4+z
3/4+x,3/4-y,1/4+z
loop_
_atom_site_type_symbol
_atom_site_label
_atom_site_fract_x
_atom_site_fract_y
_atom_site_fract_z
Si Si1 0.532630 0.251149 0.745110
Si Si2 0.428778 0.213317 0.017956
Si Si3 0.000000 0.500000 0.391160
Si Si4 0.777498 0.864214 0.933820
Si Si5 0.843047 0.918705 0.214276
Si Si6 0.573362 0.893471 0.819170
Si Si7 0.750000 0.750000 0.673349
Si Si8 0.000000 0.500000 0.615074
O O1 0.642930 0.218332 0.693482
O O2 0.519050 0.321793 0.723482
O O3 0.375012 0.227448 0.724290
O O4 0.606735 0.244722 0.817167
O O5 0.366481 0.218898 0.092969
O O6 0.555092 0.164077 0.015800
O O7 0.288117 0.187736 0.980214
O O8 0.515069 0.272905 0.997814
O O9 0.673614 0.854193 0.868943
O O10 0.952285 0.856993 0.924584
O O11 0.925503 0.884660 0.275536
O O12 0.963151 0.943712 0.162019
O O13 0.538838 0.947298 0.871520
#
# Coordination Sequence:
#
# PCOD9370133 Si02
#       8
#    16  16   8  16  16  16   8   8
#     4  10  24  42  66 105 140 185 232 294 353 420
#     4  12  21  42  71 105 138 187 239 283 357 437
#     4  11  18  40  70  92 138 187 234 272 356 441
#     4  11  26  39  68 113 143 175 240 315 348 421
#     4  12  23  46  73  96 143 197 232 295 362 436
#     4  11  22  45  72 102 137 185 246 285 362 440
#     4  10  17  42  72  98 129 188 230 278 344 448
#     4  11  25  44  66  96 141 189 238 278 360 429
#
# _framework density 25.597605999999999
#
# number of rings (size 3 to 8) (size 9 to 14) (size 15 to 20)
#    0.000    0.923    7.692    0.000    2.154    1.231 
#    2.769    6.154    0.000    0.000    0.000    0.000 
#    0.000    0.000    0.000    0.000    0.000    0.000 
#
# Total GULP energy -145047.314609 kJ/mol
# GULP energy per Si atom -5578.742870 kJ/mol
# Density = 2.553935 g / cm^3
# Si number density = 25.597606 Si / 1000 Ang^3
#
#
#
# Elastic Constant Matrix: (Units=GPa)
#
#
# Indices 1 2 3 4 5 6 
#
# 1 154.1463 18.4405 71.0967 0.0000 0.0000 0.0000
# 2 18.4405 69.5164 29.7079 0.0000 0.0000 0.0000
# 3 71.0967 29.7079 148.3867 0.0000 0.0000 0.0000
# 4 0.0000 0.0000 0.0000 -20.1138 0.0000 0.0000
# 5 0.0000 0.0000 0.0000 0.0000 84.3773 0.0000
# 6 0.0000 0.0000 0.0000 0.0000 0.0000 32.3313
#
#
#
# Elastic Compliance Matrix: (Units=1/GPa)
#
#
# Indices 1 2 3 4 5 6 
#
# 1 0.008347 -0.000552 -0.003889 0.000000 0.000000 0.000000
# 2 -0.000552 0.015768 -0.002892 0.000000 0.000000 0.000000
# 3 -0.003889 -0.002892 0.009181 0.000000 0.000000 0.000000
# 4 0.000000 0.000000 0.000000 -0.049717 0.000000 0.000000
# 5 0.000000 0.000000 0.000000 0.000000 0.011852 0.000000
# 6 0.000000 0.000000 0.000000 0.000000 0.000000 0.030930
#
#
# Mechanical properties :
#
#
# Convention : Reuss Voigt Hill
#
# Bulk Modulus (GPa) = 53.67810 67.83773 60.75791
# Shear Modulus (GPa) = 105.85053 36.17257 71.01155
#
# Velocity S-wave (km/s) = 6.43751 3.76323 5.27273
# Velocity P-wave (km/s) = 8.73332 6.74104 7.80104
#
# Compressibility (1/GPa) = 0.01862957
#
# Stress axis : x y z
#
# Youngs Moduli (GPa) = 119.80335 63.42131 108.91607
#
# Poissons Ratio (x) = 0.03503 0.42355
# Poissons Ratio (y) = 0.06617 0.31500
# Poissons Ratio (z) = 0.46588 0.18342
#
# Static dielectric constant tensor:
#      x y z
#    x 1.884500 0.000000 0.000000 
#    y 0.000000 2.179680 0.000000 
#    z 0.000000 0.000000 1.989800 
# 
# From -- ./inp_files/16583.got.cif
#   From: 2010.05.17/outbox.cif.g08.bks.cpg/sg43_9_cif.got.tgz:16583.got - 2010.06.03 19:21:55.
