data_PCOD9370988
_publ_section_title
;
Structure prediction by ZEFSAII (Michael W. Deem and Ramdas Pophale) SiO2 
 PCOD9370988
Probable space group: F D D 2
;
_chemical_formula_sum "Si O2"
_cell_formula_units_Z 112
_cell_length_a 12.606950
_cell_length_b 28.749838
_cell_length_c 13.750914
_cell_angle_alpha 90.000000
_cell_angle_beta 90.000000
_cell_angle_gamma 90.000000
_cell_volume 4983.988117
_symmetry_space_group_name_H-M "F D D 2"
_symmetry_group_IT_number 43
_symmetry_cell_setting 'orthorhombic'
loop_
_space_group_symop_operation_xyz
x,y,z
-x,-y,z
1/4-x,1/4+y,1/4+z
1/4+x,1/4-y,1/4+z
x,1/2+y,1/2+z
-x,1/2-y,1/2+z
1/4-x,3/4+y,3/4+z
1/4+x,3/4-y,3/4+z
1/2+x,y,1/2+z
1/2-x,-y,1/2+z
3/4-x,1/4+y,3/4+z
3/4+x,1/4-y,3/4+z
1/2+x,1/2+y,z
1/2-x,1/2-y,z
3/4-x,3/4+y,1/4+z
3/4+x,3/4-y,1/4+z
loop_
_atom_site_type_symbol
_atom_site_label
_atom_site_fract_x
_atom_site_fract_y
_atom_site_fract_z
Si Si1 0.510420 0.175540 0.600020
Si Si2 0.931214 0.635708 0.405000
Si Si3 0.048029 0.571095 0.939267
Si Si4 0.013328 0.215843 0.539990
Si Si5 0.306549 0.103605 0.959247
Si Si6 0.490785 0.050289 0.719863
Si Si7 0.932479 0.956765 0.649470
O O1 0.497723 0.145697 0.501612
O O2 0.626929 0.164913 0.642597
O O3 0.415094 0.157360 0.670431
O O4 0.490346 0.229843 0.573236
O O5 0.825031 0.667011 0.417607
O O6 0.004274 0.649575 0.314817
O O7 0.935667 0.597246 0.959017
O O8 0.027192 0.549163 0.833452
O O9 0.072100 0.539589 0.032729
O O10 0.007882 0.184868 0.637177
O O11 0.115951 0.194837 0.484615
O O12 0.923717 0.210047 0.460271
O O13 0.277852 0.154661 0.919532
O O14 0.500000 0.000000 0.672569
O O15 0.000000 0.000000 0.685465
#
# Coordination Sequence:
#
# PCOD9370988 Si02
#       7
#    16  16  16  16  16  16  16
#     4  11  26  48  69 107 143 193 233 304 352 441
#     4  11  26  44  73  99 148 183 236 295 375 408
#     4  10  24  42  73 101 135 188 243 283 352 427
#     4  11  25  47  73 101 148 184 247 291 360 433
#     4  11  27  47  70 107 143 191 235 302 355 432
#     4  10  20  46  68  99 135 185 233 293 346 427
#     4  12  27  42  76 107 141 184 240 298 361 421
#
# _framework density 22.471964
#
# number of rings (size 3 to 8) (size 9 to 14) (size 15 to 20)
#    0.000    1.143    2.857    2.143   16.000    0.000 
#    2.571    0.000    0.000    0.000    0.000    0.000 
#    0.000    0.000    0.000    0.000    0.000    0.000 
#
# Total GULP energy -156147.624158 kJ/mol
# GULP energy per Si atom -5576.700863 kJ/mol
# Density = 2.242082 g / cm^3
# Si number density = 22.471964 Si / 1000 Ang^3
#
#
#
# Elastic Constant Matrix: (Units=GPa)
#
#
# Indices 1 2 3 4 5 6 
#
# 1 78.1514 30.8629 54.3032 0.0000 0.0000 0.0000
# 2 30.8629 98.4199 40.3072 0.0000 0.0000 0.0000
# 3 54.3032 40.3072 104.7335 0.0000 0.0000 0.0000
# 4 0.0000 0.0000 0.0000 6.7075 0.0000 0.0000
# 5 0.0000 0.0000 0.0000 0.0000 46.8164 0.0000
# 6 0.0000 0.0000 0.0000 0.0000 0.0000 20.1122
#
#
#
# Elastic Compliance Matrix: (Units=1/GPa)
#
#
# Indices 1 2 3 4 5 6 
#
# 1 0.020492 -0.002463 -0.009677 0.000000 0.000000 0.000000
# 2 -0.002463 0.012358 -0.003479 0.000000 0.000000 0.000000
# 3 -0.009677 -0.003479 0.015905 0.000000 0.000000 0.000000
# 4 0.000000 0.000000 0.000000 0.149087 0.000000 0.000000
# 5 0.000000 0.000000 0.000000 0.000000 0.021360 0.000000
# 6 0.000000 0.000000 0.000000 0.000000 0.000000 0.049721
#
#
# Mechanical properties :
#
#
# Convention : Reuss Voigt Hill
#
# Bulk Modulus (GPa) = 57.08911 59.13904 58.11408
# Shear Modulus (GPa) = 16.33990 25.11601 20.72795
#
# Velocity S-wave (km/s) = 2.69945 3.34677 3.04039
# Velocity P-wave (km/s) = 5.93092 6.42716 6.18402
#
# Compressibility (1/GPa) = 0.01751648
#
# Stress axis : x y z
#
# Youngs Moduli (GPa) = 48.79835 80.92165 62.87526
#
# Poissons Ratio (x) = 0.19930 0.60846
# Poissons Ratio (y) = 0.12018 0.21874
# Poissons Ratio (z) = 0.47224 0.28152
#
# Static dielectric constant tensor:
#      x y z
#    x 1.881260 0.000000 0.000000 
#    y 0.000000 2.092910 0.000000 
#    z 0.000000 0.000000 1.805840 
# 
# From -- ./inp_files/9795.got.cif
#   From: 2010.05.17/outbox.cif.g08.bks.cpg/sg43_5_cif.got.tgz:9795.got - 2010.06.03 19:21:55.
