data_PCOD9370635
_publ_section_title
;
Structure prediction by ZEFSAII (Michael W. Deem and Ramdas Pophale) SiO2 
 PCOD9370635
Probable space group: F D D 2
;
_chemical_formula_sum "Si O2"
_cell_formula_units_Z 88
_cell_length_a 26.160637
_cell_length_b 20.378585
_cell_length_c 7.083712
_cell_angle_alpha 90.000000
_cell_angle_beta 90.000000
_cell_angle_gamma 90.000000
_cell_volume 3776.445624
_symmetry_space_group_name_H-M "F D D 2"
_symmetry_group_IT_number 43
_symmetry_cell_setting 'orthorhombic'
loop_
_space_group_symop_operation_xyz
x,y,z
-x,-y,z
1/4-x,1/4+y,1/4+z
1/4+x,1/4-y,1/4+z
x,1/2+y,1/2+z
-x,1/2-y,1/2+z
1/4-x,3/4+y,3/4+z
1/4+x,3/4-y,3/4+z
1/2+x,y,1/2+z
1/2-x,-y,1/2+z
3/4-x,1/4+y,3/4+z
3/4+x,1/4-y,3/4+z
1/2+x,1/2+y,z
1/2-x,1/2-y,z
3/4-x,3/4+y,1/4+z
3/4+x,3/4-y,1/4+z
loop_
_atom_site_type_symbol
_atom_site_label
_atom_site_fract_x
_atom_site_fract_y
_atom_site_fract_z
Si Si1 0.991567 0.895275 0.094400
Si Si2 0.389180 0.501679 0.716159
Si Si3 0.526160 0.299947 0.821819
Si Si4 0.750000 0.250000 0.521285
Si Si5 0.711528 0.069325 0.136028
Si Si6 0.868192 0.654096 0.325090
O O1 0.935893 0.909690 0.179180
O O2 0.032137 0.883830 0.259767
O O3 0.009155 0.943164 0.927009
O O4 0.984934 0.831903 0.958861
O O5 0.448112 0.495118 0.651021
O O6 0.341465 0.469837 0.604529
O O7 0.378590 0.578226 0.765684
O O8 0.389508 0.453718 0.899021
O O9 0.529956 0.327912 0.610091
O O10 0.509426 0.225031 0.818294
O O11 0.580473 0.316885 0.915680
#
# Coordination Sequence:
#
# PCOD9370635 Si02
#       6
#    16  16  16   8  16  16
#     4  11  21  41  67  93 133 175 224 271 343 403
#     4  10  20  37  67  93 131 177 221 274 347 399
#     4  11  20  37  68  93 132 171 218 280 330 391
#     4  10  22  40  72  92 140 184 208 290 362 390
#     4  11  22  39  69 102 127 176 237 273 320 427
#     4  10  20  37  64  97 126 175 221 271 335 405
#
# _framework density 23.302333999999998
#
# number of rings (size 3 to 8) (size 9 to 14) (size 15 to 20)
#    0.000    1.455    5.455    1.091    0.000    0.000 
#    0.000    6.364   24.000    0.000    0.000    0.000 
#    0.000    0.000    0.000    0.000    0.000    0.000 
#
# Total GULP energy -122504.947285 kJ/mol
# GULP energy per Si atom -5568.406695 kJ/mol
# Density = 2.324930 g / cm^3
# Si number density = 23.302334 Si / 1000 Ang^3
#
#
#
# Elastic Constant Matrix: (Units=GPa)
#
#
# Indices 1 2 3 4 5 6 
#
# 1 191.8293 16.4917 22.6913 0.0005 -0.0001 -0.0002
# 2 16.4917 79.0925 17.0312 0.0017 -0.0005 -0.0007
# 3 22.6913 17.0312 86.9545 0.0034 -0.0005 -0.0011
# 4 0.0005 0.0017 0.0034 21.0499 -0.0004 -0.0006
# 5 -0.0001 -0.0005 -0.0005 -0.0004 14.4690 0.0001
# 6 -0.0002 -0.0007 -0.0011 -0.0006 0.0001 26.4505
#
#
#
# Elastic Compliance Matrix: (Units=1/GPa)
#
#
# Indices 1 2 3 4 5 6 
#
# 1 0.005435 -0.000864 -0.001249 0.000000 0.000000 0.000000
# 2 -0.000864 0.013338 -0.002387 -0.000001 0.000000 0.000000
# 3 -0.001249 -0.002387 0.012294 -0.000002 0.000000 0.000000
# 4 0.000000 -0.000001 -0.000002 0.047506 0.000001 0.000001
# 5 0.000000 0.000000 0.000000 0.000001 0.069113 0.000000
# 6 0.000000 0.000000 0.000000 0.000001 0.000000 0.037806
#
#
# Mechanical properties :
#
#
# Convention : Reuss Voigt Hill
#
# Bulk Modulus (GPa) = 45.31846 52.25607 48.78726
# Shear Modulus (GPa) = 24.77117 32.50471 28.63794
#
# Velocity S-wave (km/s) = 3.26396 3.73890 3.50947
# Velocity P-wave (km/s) = 5.80472 6.41195 6.11588
#
# Compressibility (1/GPa) = 0.02206607
#
# Stress axis : x y z
#
# Youngs Moduli (GPa) = 183.99207 74.97608 81.34256
#
# Poissons Ratio (x) = 0.06480 0.10160
# Poissons Ratio (y) = 0.15903 0.19415
# Poissons Ratio (z) = 0.22981 0.17895
#
# Static dielectric constant tensor:
#      x y z
#    x 2.037840 0.000000 0.000000 
#    y 0.000000 2.911640 0.000000 
#    z 0.000000 0.000000 1.900990 
# 
# From -- ./inp_files/3220.got.cif
#   From: 2010.05.17/outbox.cif.g08.bks.cpg/sg43_2_cif.got.tgz:3220.got - 2010.06.03 19:21:55.
