data_PCOD9370920
_publ_section_title
;
Structure prediction by ZEFSAII (Michael W. Deem and Ramdas Pophale) SiO2 
 PCOD9370920
Probable space group: F D D 2
;
_chemical_formula_sum "Si O2"
_cell_formula_units_Z 72
_cell_length_a 33.170013
_cell_length_b 10.409207
_cell_length_c 10.166006
_cell_angle_alpha 90.000000
_cell_angle_beta 90.000000
_cell_angle_gamma 90.000000
_cell_volume 3510.052793
_symmetry_space_group_name_H-M "F D D 2"
_symmetry_group_IT_number 43
_symmetry_cell_setting 'orthorhombic'
loop_
_space_group_symop_operation_xyz
x,y,z
-x,-y,z
1/4-x,1/4+y,1/4+z
1/4+x,1/4-y,1/4+z
x,1/2+y,1/2+z
-x,1/2-y,1/2+z
1/4-x,3/4+y,3/4+z
1/4+x,3/4-y,3/4+z
1/2+x,y,1/2+z
1/2-x,-y,1/2+z
3/4-x,1/4+y,3/4+z
3/4+x,1/4-y,3/4+z
1/2+x,1/2+y,z
1/2-x,1/2-y,z
3/4-x,3/4+y,1/4+z
3/4+x,3/4-y,1/4+z
loop_
_atom_site_type_symbol
_atom_site_label
_atom_site_fract_x
_atom_site_fract_y
_atom_site_fract_z
Si Si1 0.000000 0.500000 0.508631
Si Si2 0.288215 0.629371 0.999237
Si Si3 0.162306 0.590079 0.379572
Si Si4 0.044019 0.842041 0.350092
Si Si5 0.069745 0.066881 0.812091
O O1 0.988059 0.389445 0.613731
O O2 0.961393 0.499846 0.413544
O O3 0.254737 0.596221 0.108679
O O4 0.304899 0.771721 0.031695
O O5 0.321104 0.522679 0.973161
O O6 0.182531 0.579986 0.236799
O O7 0.114257 0.580314 0.372612
O O8 0.175829 0.725383 0.438153
O O9 0.054498 0.709381 0.277324
#
# Coordination Sequence:
#
# PCOD9370920 Si02
#       5
#     8  16  16  16  16
#     4  10  20  42  68  94 128 180 208 278 330 394
#     4  10  24  45  70  96 139 171 235 268 339 399
#     4  12  24  45  66 101 135 180 220 282 330 402
#     4  10  23  45  64 101 129 175 224 280 319 412
#     4  12  23  44  71  95 141 174 225 277 339 390
#
# _framework density 20.512512000000001
#
# number of rings (size 3 to 8) (size 9 to 14) (size 15 to 20)
#    0.000    1.333    4.444    1.333    0.000    5.333 
#   16.000    0.000    0.000    0.000    0.000    0.000 
#    0.000    0.000    0.000    0.000    0.000    0.000 
#
# Total GULP energy -100387.522059 kJ/mol
# GULP energy per Si atom -5577.084559 kJ/mol
# Density = 2.046582 g / cm^3
# Si number density = 20.512512 Si / 1000 Ang^3
#
#
#
# Elastic Constant Matrix: (Units=GPa)
#
#
# Indices 1 2 3 4 5 6 
#
# 1 104.3805 34.6015 25.0544 0.0000 0.0000 0.0000
# 2 34.6015 165.1799 14.9637 0.0000 0.0000 0.0000
# 3 25.0544 14.9637 52.1069 0.0000 0.0000 0.0000
# 4 0.0000 0.0000 0.0000 31.9033 0.0000 0.0000
# 5 0.0000 0.0000 0.0000 0.0000 5.2749 0.0000
# 6 0.0000 0.0000 0.0000 0.0000 0.0000 -12.5489
#
#
#
# Elastic Compliance Matrix: (Units=1/GPa)
#
#
# Indices 1 2 3 4 5 6 
#
# 1 0.011407 -0.001943 -0.004927 0.000000 0.000000 0.000000
# 2 -0.001943 0.006547 -0.000946 0.000000 0.000000 0.000000
# 3 -0.004927 -0.000946 0.021832 0.000000 0.000000 0.000000
# 4 0.000000 0.000000 0.000000 0.031345 0.000000 0.000000
# 5 0.000000 0.000000 0.000000 0.000000 0.189579 0.000000
# 6 0.000000 0.000000 0.000000 0.000000 0.000000 -0.079688
#
#
# Mechanical properties :
#
#
# Convention : Reuss Voigt Hill
#
# Bulk Modulus (GPa) = 41.40060 52.32294 46.86177
# Shear Modulus (GPa) = 24.42558 21.39569 22.91064
#
# Velocity S-wave (km/s) = 3.45449 3.23314 3.34565
# Velocity P-wave (km/s) = 6.01151 6.28497 6.14976
#
# Compressibility (1/GPa) = 0.02415424
#
# Stress axis : x y z
#
# Youngs Moduli (GPa) = 87.66488 152.74783 45.80469
#
# Poissons Ratio (x) = 0.29682 0.22567
# Poissons Ratio (y) = 0.17035 0.04332
# Poissons Ratio (z) = 0.43191 0.14445
#
# Static dielectric constant tensor:
#      x y z
#    x 1.733670 0.000000 0.000000 
#    y 0.000000 1.749910 0.000000 
#    z 0.000000 0.000000 1.754830 
# 
# From -- ./inp_files/8168.got.cif
#   From: 2010.05.17/outbox.cif.g08.bks.cpg/sg43_5_cif.got.tgz:8168.got - 2010.06.03 19:21:55.
