data_PCOD9370175
_publ_section_title
;
Structure prediction by ZEFSAII (Michael W. Deem and Ramdas Pophale) SiO2 
 PCOD9370175
Probable space group: F D D 2
;
_chemical_formula_sum "Si O2"
_cell_formula_units_Z 88
_cell_length_a 22.022876
_cell_length_b 21.818784
_cell_length_c 7.238958
_cell_angle_alpha 90.000000
_cell_angle_beta 90.000000
_cell_angle_gamma 90.000000
_cell_volume 3478.408898
_symmetry_space_group_name_H-M "F D D 2"
_symmetry_group_IT_number 43
_symmetry_cell_setting 'orthorhombic'
loop_
_space_group_symop_operation_xyz
x,y,z
-x,-y,z
1/4-x,1/4+y,1/4+z
1/4+x,1/4-y,1/4+z
x,1/2+y,1/2+z
-x,1/2-y,1/2+z
1/4-x,3/4+y,3/4+z
1/4+x,3/4-y,3/4+z
1/2+x,y,1/2+z
1/2-x,-y,1/2+z
3/4-x,1/4+y,3/4+z
3/4+x,1/4-y,3/4+z
1/2+x,1/2+y,z
1/2-x,1/2-y,z
3/4-x,3/4+y,1/4+z
3/4+x,3/4-y,1/4+z
loop_
_atom_site_type_symbol
_atom_site_label
_atom_site_fract_x
_atom_site_fract_y
_atom_site_fract_z
Si Si1 0.803171 0.593791 0.516330
Si Si2 0.089035 0.684692 0.335239
Si Si3 0.062329 0.392696 0.614707
Si Si4 0.290136 0.958654 0.561415
Si Si5 0.116095 0.557235 0.238218
Si Si6 0.750000 0.250000 0.639900
O O1 0.826471 0.585667 0.300778
O O2 0.864477 0.608724 0.626641
O O3 0.743565 0.636561 0.510485
O O4 0.779792 0.529752 0.595392
O O5 0.126846 0.630663 0.240210
O O6 0.114327 0.754198 0.343081
O O7 0.023824 0.684554 0.239125
O O8 0.053035 0.332496 0.487642
O O9 0.043093 0.454722 0.506831
O O10 0.345021 0.957777 0.420481
O O11 0.045415 0.542890 0.274663
#
# Coordination Sequence:
#
# PCOD9370175 Si02
#       6
#    16  16  16  16  16   8
#     4  10  20  32  56  82 116 144 190 241 299 349
#     4  10  20  32  56  82 116 144 190 241 299 349
#     4  11  19  33  54  90 111 143 189 248 288 350
#     4  10  18  34  52  82 112 146 182 236 294 346
#     4  11  19  33  54  90 111 143 189 248 288 350
#     4  12  16  28  56  84 104 126 184 236 280 320
#
# _framework density 25.298925000000001
#
# number of rings (size 3 to 8) (size 9 to 14) (size 15 to 20)
#    0.000    1.455    9.091    0.000    0.000    0.000 
#    0.000    0.000   12.000    0.000    0.000    0.000 
#    0.000    0.000    0.000    0.000    0.000    0.000 
#
# Total GULP energy -122722.420438 kJ/mol
# GULP energy per Si atom -5578.291838 kJ/mol
# Density = 2.524134 g / cm^3
# Si number density = 25.298925 Si / 1000 Ang^3
#
#
#
# Elastic Constant Matrix: (Units=GPa)
#
#
# Indices 1 2 3 4 5 6 
#
# 1 181.6689 40.7697 13.1202 -0.0005 -0.0012 -0.0048
# 2 40.7697 152.8359 13.4867 -0.0014 -0.0007 -0.0031
# 3 13.1202 13.4867 71.8354 -0.0045 -0.0040 -0.0177
# 4 -0.0005 -0.0014 -0.0045 -17.5897 0.0039 0.0214
# 5 -0.0012 -0.0007 -0.0040 0.0039 12.2176 0.0115
# 6 -0.0048 -0.0031 -0.0177 0.0214 0.0115 35.2363
#
#
#
# Elastic Compliance Matrix: (Units=1/GPa)
#
#
# Indices 1 2 3 4 5 6 
#
# 1 0.005899 -0.001504 -0.000795 0.000000 0.000000 0.000000
# 2 -0.001504 0.007036 -0.001046 0.000000 0.000000 0.000000
# 3 -0.000795 -0.001046 0.014262 -0.000004 0.000005 0.000007
# 4 0.000000 0.000000 -0.000004 -0.056851 0.000018 0.000035
# 5 0.000000 0.000000 0.000005 0.000018 0.081849 -0.000027
# 6 0.000000 0.000000 0.000007 0.000035 -0.000027 0.028380
#
#
# Mechanical properties :
#
#
# Convention : Reuss Voigt Hill
#
# Bulk Modulus (GPa) = 48.76178 60.12149 54.44163
# Shear Modulus (GPa) = 53.13378 28.57041 40.85210
#
# Velocity S-wave (km/s) = 4.58781 3.36417 4.02279
# Velocity P-wave (km/s) = 6.88332 6.23749 6.56834
#
# Compressibility (1/GPa) = 0.02050787
#
# Stress axis : x y z
#
# Youngs Moduli (GPa) = 169.50983 142.11860 70.11433
#
# Poissons Ratio (x) = 0.21368 0.05575
# Poissons Ratio (y) = 0.25486 0.07337
# Poissons Ratio (z) = 0.13479 0.14872
#
# Static dielectric constant tensor:
#      x y z
#    x 2.032710 -0.000010 0.000000 
#    y -0.000010 2.228180 -0.000010 
#    z 0.000000 -0.000010 2.041380 
# 
# From -- ./inp_files/3678.got.cif
#   From: 2010.05.17/outbox.cif.g08.bks.cpg/sg43_2_cif.got.tgz:3678.got - 2010.06.03 19:21:55.
