data_PCOD9370025
_publ_section_title
;
Structure prediction by ZEFSAII (Michael W. Deem and Ramdas Pophale) SiO2 
 PCOD9370025
Probable space group: F M M 2
;
_chemical_formula_sum "Si O2"
_cell_formula_units_Z 28
_cell_length_a 24.000000
_cell_length_b 15.000000
_cell_length_c 15.000000
_cell_angle_alpha 90.000000
_cell_angle_beta 90.000000
_cell_angle_gamma 90.000000
_cell_volume 5400.000000
_symmetry_space_group_name_H-M "F M M 2"
_symmetry_group_IT_number 42
_symmetry_cell_setting 'orthorhombic'
loop_
_space_group_symop_operation_xyz
x,y,z
-x,-y,z
-x,y,z
x,-y,z
x,1/2+y,1/2+z
-x,1/2-y,1/2+z
-x,1/2+y,1/2+z
x,1/2-y,1/2+z
1/2+x,y,1/2+z
1/2-x,-y,1/2+z
1/2-x,y,1/2+z
1/2+x,-y,1/2+z
1/2+x,1/2+y,z
1/2-x,1/2-y,z
1/2-x,1/2+y,z
1/2+x,1/2-y,z
loop_
_atom_site_type_symbol
_atom_site_label
_atom_site_fract_x
_atom_site_fract_y
_atom_site_fract_z
Si Si1 0.292669 0.813685 0.643390
Si Si2 0.399229 0.606987 0.950404
Si Si3 0.936826 0.607602 0.920776
Si Si4 0.904203 0.731254 0.082643
Si Si5 0.732243 0.606312 0.960258
Si Si6 0.934447 0.602311 0.245669
Si Si7 0.826931 0.606176 0.823552
O O1 0.250000 0.750000 0.692973
O O2 0.340155 0.754370 0.598721
O O3 0.261441 0.861279 0.561857
O O4 0.317604 0.875012 0.719737
O O5 0.406607 0.500000 0.972686
O O6 0.332712 0.624471 0.938823
O O7 0.423177 0.621628 0.850790
O O8 0.421603 0.675149 0.028460
O O9 0.934775 0.500000 0.930512
O O10 0.888060 0.637408 0.853910
O O11 0.000000 0.631112 0.893762
O O12 0.921815 0.655466 0.013029
O O13 0.919263 0.684009 0.178313
O O14 0.737739 0.500000 0.960189
O O15 0.778338 0.641543 0.890281
O O16 0.910500 0.500000 0.227294
O O17 0.000000 0.593657 0.234526
O O18 0.826505 0.500000 0.834536
#
# Coordination Sequence:
#
# PCOD9370025 Si02
#       7
#    16  16  16  16  16  16  16
#     4  11  24  37  57  93 133 166 206 262 321 392
#     4   9  21  41  65  93 129 174 218 268 330 397
#     4  10  22  42  66  92 125 167 218 276 329 382
#     4  11  23  38  64  95 126 172 218 265 330 390
#     4   9  19  40  65  88 122 166 211 261 320 388
#     4  10  22  41  65  95 128 167 222 281 330 385
#     4  10  22  40  64  92 125 169 214 262 327 389
#
# _framework density 5.1851849999999997
#
# number of rings (size 3 to 8) (size 9 to 14) (size 15 to 20)
#    0.000    2.000    0.000    2.143    4.000    4.571 
#    0.000    2.143    0.000    0.857    0.000   16.000 
#    0.000    0.000    0.000    0.000    0.000    0.000 
#
# Total GULP energy -155906.862785 kJ/mol
# GULP energy per Si atom -5568.102242 kJ/mol
# Density = 0.517338 g / cm^3
# Si number density = 5.185185 Si / 1000 Ang^3
#
#
#
# Elastic Constant Matrix: (Units=GPa)
#
#
# Indices 1 2 3 4 5 6 
#
# 1 75.6582 31.8540 33.5240 0.0000 0.0000 0.0000
# 2 31.8540 66.5275 37.0055 0.0000 0.0000 0.0000
# 3 33.5240 37.0055 89.0623 0.0000 0.0000 0.0000
# 4 0.0000 0.0000 0.0000 29.4362 0.0000 0.0000
# 5 0.0000 0.0000 0.0000 0.0000 22.6025 0.0000
# 6 0.0000 0.0000 0.0000 0.0000 0.0000 20.9764
#
#
#
# Elastic Compliance Matrix: (Units=1/GPa)
#
#
# Indices 1 2 3 4 5 6 
#
# 1 0.017619 -0.006174 -0.004067 0.000000 0.000000 0.000000
# 2 -0.006174 0.021713 -0.006698 0.000000 0.000000 0.000000
# 3 -0.004067 -0.006698 0.015542 0.000000 0.000000 0.000000
# 4 0.000000 0.000000 0.000000 0.033972 0.000000 0.000000
# 5 0.000000 0.000000 0.000000 0.000000 0.044243 0.000000
# 6 0.000000 0.000000 0.000000 0.000000 0.000000 0.047673
#
#
# Mechanical properties :
#
#
# Convention : Reuss Voigt Hill
#
# Bulk Modulus (GPa) = 47.62644 48.44610 48.03627
# Shear Modulus (GPa) = 22.55944 23.19398 22.87671
#
# Velocity S-wave (km/s) = 3.30159 3.34770 3.32472
# Velocity P-wave (km/s) = 6.12753 6.19285 6.16028
#
# Compressibility (1/GPa) = 0.02099674
#
# Stress axis : x y z
#
# Youngs Moduli (GPa) = 56.75817 46.05493 64.34272
#
# Poissons Ratio (x) = 0.28434 0.26165
# Poissons Ratio (y) = 0.35042 0.43096
# Poissons Ratio (z) = 0.23081 0.30847
#
# Static dielectric constant tensor:
#      x y z
#    x 1.786100 0.000000 0.000000 
#    y 0.000000 1.792030 0.000000 
#    z 0.000000 0.000000 1.739190 
# 
# From -- ./inp_files/14278.got.cif
#   From: 2010.05.17/outbox.ucp.g08.bks.cvg/sg42_8_cif.got.tgz:14278.got - 2010.06.11 16:29:10.
