data_PCOD9370941
_publ_section_title
;
Structure prediction by ZEFSAII (Michael W. Deem and Ramdas Pophale) SiO2 
 PCOD9370941
Probable space group: F D D 2
;
_chemical_formula_sum "Si O2"
_cell_formula_units_Z 72
_cell_length_a 20.541557
_cell_length_b 11.639187
_cell_length_c 14.399590
_cell_angle_alpha 90.000000
_cell_angle_beta 90.000000
_cell_angle_gamma 90.000000
_cell_volume 3442.755108
_symmetry_space_group_name_H-M "F D D 2"
_symmetry_group_IT_number 43
_symmetry_cell_setting 'orthorhombic'
loop_
_space_group_symop_operation_xyz
x,y,z
-x,-y,z
1/4-x,1/4+y,1/4+z
1/4+x,1/4-y,1/4+z
x,1/2+y,1/2+z
-x,1/2-y,1/2+z
1/4-x,3/4+y,3/4+z
1/4+x,3/4-y,3/4+z
1/2+x,y,1/2+z
1/2-x,-y,1/2+z
3/4-x,1/4+y,3/4+z
3/4+x,1/4-y,3/4+z
1/2+x,1/2+y,z
1/2-x,1/2-y,z
3/4-x,3/4+y,1/4+z
3/4+x,3/4-y,1/4+z
loop_
_atom_site_type_symbol
_atom_site_label
_atom_site_fract_x
_atom_site_fract_y
_atom_site_fract_z
Si Si1 0.057064 0.696052 0.464550
Si Si2 0.500000 0.500000 0.094506
Si Si3 0.577182 0.488186 0.845281
Si Si4 0.789449 0.635690 0.664453
Si Si5 0.616874 0.035828 0.728848
O O1 0.013595 0.615261 0.534501
O O2 0.089147 0.601594 0.401734
O O3 0.118806 0.745080 0.517175
O O4 0.016051 0.787632 0.406175
O O5 0.560883 0.488079 0.161587
O O6 0.500000 0.500000 0.820358
O O7 0.596300 0.381578 0.914023
O O8 0.750000 0.750000 0.690752
O O9 0.831825 0.662779 0.570879
O O10 0.835818 0.573983 0.740686
#
# Coordination Sequence:
#
# PCOD9370941 Si02
#       5
#    16   8  16  16  16
#     4  11  23  42  69 102 137 179 236 282 350 404
#     4  10  20  42  76 106 130 184 232 290 338 424
#     4  11  22  42  74 100 136 180 236 287 341 419
#     4  12  25  43  67 103 142 182 228 287 341 421
#     4  11  22  43  72 102 138 182 232 287 348 408
#
# _framework density 20.913481999999998
#
# number of rings (size 3 to 8) (size 9 to 14) (size 15 to 20)
#    0.000    0.889    4.444    4.000    0.000    1.778 
#    0.000    3.333    0.000    0.000    0.000    0.000 
#    0.000    0.000    0.000    0.000    0.000    0.000 
#
# Total GULP energy -100220.946609 kJ/mol
# GULP energy per Si atom -5567.830367 kJ/mol
# Density = 2.086588 g / cm^3
# Si number density = 20.913482 Si / 1000 Ang^3
#
#
#
# Elastic Constant Matrix: (Units=GPa)
#
#
# Indices 1 2 3 4 5 6 
#
# 1 139.6093 54.8350 51.0685 0.0000 0.0000 0.0000
# 2 54.8350 127.7249 30.3985 0.0000 0.0000 0.0000
# 3 51.0685 30.3985 65.9590 0.0000 0.0000 0.0000
# 4 0.0000 0.0000 0.0000 -13.3172 0.0000 0.0000
# 5 0.0000 0.0000 0.0000 0.0000 -414.2368 0.0000
# 6 0.0000 0.0000 0.0000 0.0000 0.0000 69.9193
#
#
#
# Elastic Compliance Matrix: (Units=1/GPa)
#
#
# Indices 1 2 3 4 5 6 
#
# 1 0.010934 -0.003010 -0.007079 0.000000 0.000000 0.000000
# 2 -0.003010 0.009622 -0.002104 0.000000 0.000000 0.000000
# 3 -0.007079 -0.002104 0.021612 0.000000 0.000000 0.000000
# 4 0.000000 0.000000 0.000000 -0.075091 0.000000 0.000000
# 5 0.000000 0.000000 0.000000 0.000000 -0.002414 0.000000
# 6 0.000000 0.000000 0.000000 0.000000 0.000000 0.014302
#
#
# Mechanical properties :
#
#
# Convention : Reuss Voigt Hill
#
# Bulk Modulus (GPa) = 56.23527 67.32189 61.77858
# Shear Modulus (GPa) = 538.87774 -58.39419 240.24177
#
# Velocity S-wave (km/s) = 16.06952 -5.28984 10.72956
# Velocity P-wave (km/s) = 19.26795 2.24707 13.53153
#
# Compressibility (1/GPa) = 0.01778243
#
# Stress axis : x y z
#
# Youngs Moduli (GPa) = 91.45496 103.92565 46.27150
#
# Poissons Ratio (x) = 0.31277 0.32755
# Poissons Ratio (y) = 0.27524 0.09738
# Poissons Ratio (z) = 0.64740 0.21871
#
# Static dielectric constant tensor:
#      x y z
#    x 2.017560 0.000000 0.000000 
#    y 0.000000 1.983330 0.000000 
#    z 0.000000 0.000000 1.808850 
# 
# From -- ./inp_files/9447.got.cif
#   From: 2010.05.17/outbox.cif.g08.bks.cpg/sg43_5_cif.got.tgz:9447.got - 2010.06.03 19:21:55.
