data_PCOD9370762
_publ_section_title
;
Structure prediction by ZEFSAII (Michael W. Deem and Ramdas Pophale) SiO2 
 PCOD9370762
Probable space group: F D D 2
;
_chemical_formula_sum "Si O2"
_cell_formula_units_Z 48
_cell_length_a 26.197555
_cell_length_b 7.837551
_cell_length_c 9.036913
_cell_angle_alpha 90.000000
_cell_angle_beta 90.000000
_cell_angle_gamma 90.000000
_cell_volume 1855.501210
_symmetry_space_group_name_H-M "F D D 2"
_symmetry_group_IT_number 43
_symmetry_cell_setting 'orthorhombic'
loop_
_space_group_symop_operation_xyz
x,y,z
-x,-y,z
1/4-x,1/4+y,1/4+z
1/4+x,1/4-y,1/4+z
x,1/2+y,1/2+z
-x,1/2-y,1/2+z
1/4-x,3/4+y,3/4+z
1/4+x,3/4-y,3/4+z
1/2+x,y,1/2+z
1/2-x,-y,1/2+z
3/4-x,1/4+y,3/4+z
3/4+x,1/4-y,3/4+z
1/2+x,1/2+y,z
1/2-x,1/2-y,z
3/4-x,3/4+y,1/4+z
3/4+x,3/4-y,1/4+z
loop_
_atom_site_type_symbol
_atom_site_label
_atom_site_fract_x
_atom_site_fract_y
_atom_site_fract_z
Si Si1 0.366283 0.923261 0.520170
Si Si2 0.797326 0.879477 0.443008
Si Si3 0.509021 0.797723 0.408669
O O1 0.373243 0.737665 0.601337
O O2 0.346806 0.791522 0.874527
O O3 0.307666 0.970934 0.552716
O O4 0.750000 0.750000 0.457159
O O5 0.778511 0.013420 0.318208
O O6 0.793262 0.965795 0.602077
O O7 0.500000 0.000000 0.418348
#
# Coordination Sequence:
#
# PCOD9370762 Si02
#       3
#    16  16  16
#     4  10  20  39  68  98 136 188 236 296 375 442
#     4  10  20  40  65  91 135 177 229 294 363 437
#     4  10  22  40  65  96 134 181 235 300 365 438
#
# _framework density 25.869022999999999
#
# number of rings (size 3 to 8) (size 9 to 14) (size 15 to 20)
#    0.000    2.000    3.333    0.000    0.000    1.333 
#    0.000   20.000    0.000    0.000    0.000    0.000 
#    0.000    0.000    0.000    0.000    0.000    0.000 
#
# Total GULP energy -66816.422551 kJ/mol
# GULP energy per Si atom -5568.035213 kJ/mol
# Density = 2.581014 g / cm^3
# Si number density = 25.869023 Si / 1000 Ang^3
#
#
#
# Elastic Constant Matrix: (Units=GPa)
#
#
# Indices 1 2 3 4 5 6 
#
# 1 119.3586 30.3452 24.3712 0.0000 0.0000 0.0000
# 2 30.3452 46.5188 30.7184 0.0000 0.0000 0.0000
# 3 24.3712 30.7184 72.3034 0.0000 0.0000 0.0000
# 4 0.0000 0.0000 0.0000 38.9742 0.0000 0.0000
# 5 0.0000 0.0000 0.0000 0.0000 51.7876 0.0000
# 6 0.0000 0.0000 0.0000 0.0000 0.0000 56.5408
#
#
#
# Elastic Compliance Matrix: (Units=1/GPa)
#
#
# Indices 1 2 3 4 5 6 
#
# 1 0.010080 -0.006021 -0.000840 0.000000 0.000000 0.000000
# 2 -0.006021 0.033476 -0.012193 0.000000 0.000000 0.000000
# 3 -0.000840 -0.012193 0.019294 0.000000 0.000000 0.000000
# 4 0.000000 0.000000 0.000000 0.025658 0.000000 0.000000
# 5 0.000000 0.000000 0.000000 0.000000 0.019310 0.000000
# 6 0.000000 0.000000 0.000000 0.000000 0.000000 0.017686
#
#
# Mechanical properties :
#
#
# Convention : Reuss Voigt Hill
#
# Bulk Modulus (GPa) = 40.41589 45.45006 42.93297
# Shear Modulus (GPa) = 29.09361 39.64358 34.36860
#
# Velocity S-wave (km/s) = 3.35722 3.91893 3.64890
# Velocity P-wave (km/s) = 5.53941 6.17129 5.86387
#
# Compressibility (1/GPa) = 0.02474274
#
# Stress axis : x y z
#
# Youngs Moduli (GPa) = 99.20283 29.87222 51.83003
#
# Poissons Ratio (x) = 0.17987 0.04352
# Poissons Ratio (y) = 0.59732 0.63196
# Poissons Ratio (z) = 0.08330 0.36423
#
# Static dielectric constant tensor:
#      x y z
#    x 1.967200 0.000000 0.000000 
#    y 0.000000 2.194860 0.000000 
#    z 0.000000 0.000000 2.315490 
# 
# From -- ./inp_files/1699.got.cif
#   From: 2010.05.17/outbox.cif.g08.bks.cpg/sg43_1_cif.got.tgz:1699.got - 2010.06.03 19:21:55.
