data_PCOD9370040
_publ_section_title
;
Structure prediction by ZEFSAII (Michael W. Deem and Ramdas Pophale) SiO2 
 PCOD9370040
Probable space group: F D D 2
;
_chemical_formula_sum "Si O2"
_cell_formula_units_Z 88
_cell_length_a 6.966601
_cell_length_b 16.620894
_cell_length_c 30.315394
_cell_angle_alpha 90.000000
_cell_angle_beta 90.000000
_cell_angle_gamma 90.000000
_cell_volume 3510.253933
_symmetry_space_group_name_H-M "F D D 2"
_symmetry_group_IT_number 43
_symmetry_cell_setting 'orthorhombic'
loop_
_space_group_symop_operation_xyz
x,y,z
-x,-y,z
1/4-x,1/4+y,1/4+z
1/4+x,1/4-y,1/4+z
x,1/2+y,1/2+z
-x,1/2-y,1/2+z
1/4-x,3/4+y,3/4+z
1/4+x,3/4-y,3/4+z
1/2+x,y,1/2+z
1/2-x,-y,1/2+z
3/4-x,1/4+y,3/4+z
3/4+x,1/4-y,3/4+z
1/2+x,1/2+y,z
1/2-x,1/2-y,z
3/4-x,3/4+y,1/4+z
3/4+x,3/4-y,1/4+z
loop_
_atom_site_type_symbol
_atom_site_label
_atom_site_fract_x
_atom_site_fract_y
_atom_site_fract_z
Si Si1 0.667829 0.885736 0.196200
Si Si2 0.061964 0.093313 0.510994
Si Si3 0.750000 0.250000 0.621114
Si Si4 0.843123 0.366753 0.547542
Si Si5 0.474886 0.313961 0.431864
Si Si6 0.524404 0.278554 0.340254
O O1 0.699011 0.820180 0.157256
O O2 0.687428 0.869639 0.248995
O O3 0.443332 0.908059 0.190311
O O4 0.780926 0.968481 0.187708
O O5 0.214070 0.088153 0.549512
O O6 0.881874 0.141579 0.531350
O O7 0.136371 0.132929 0.466794
O O8 0.000000 0.000000 0.502409
O O9 0.882071 0.297478 0.584143
O O10 0.832657 0.449324 0.574667
O O11 0.438340 0.324845 0.381022
O O12 0.750000 0.250000 0.349439
#
# Coordination Sequence:
#
# PCOD9370040 Si02
#       6
#    16  16   8  16  16  16
#     4  10  19  27  47  76 102 125 166 203 254 303
#     4   8  16  26  45  71  94 123 162 207 248 289
#     4  12  18  30  50  76 102 138 162 210 264 294
#     4   9  17  28  43  68 101 124 157 207 250 295
#     4  10  15  29  45  69  99 123 154 209 242 291
#     4   9  14  27  44  67  96 121 154 207 244 279
#
# _framework density 25.069412
#
# number of rings (size 3 to 8) (size 9 to 14) (size 15 to 20)
#    0.000    2.909    3.636    3.273    0.000    0.000 
#    0.000    0.000    0.000    8.727    0.000    0.000 
#    0.000    0.000    0.000    0.000    0.000    0.000 
#
# Total GULP energy -122648.242650 kJ/mol
# GULP energy per Si atom -5574.920120 kJ/mol
# Density = 2.501235 g / cm^3
# Si number density = 25.069412 Si / 1000 Ang^3
#
#
#
# Elastic Constant Matrix: (Units=GPa)
#
#
# Indices 1 2 3 4 5 6 
#
# 1 53.7084 18.5283 45.6656 0.0000 0.0000 0.0000
# 2 18.5283 108.7268 108.7180 0.0000 0.0000 0.0000
# 3 45.6656 108.7180 296.2855 0.0000 0.0000 0.0000
# 4 0.0000 0.0000 0.0000 69.0421 0.0000 0.0000
# 5 0.0000 0.0000 0.0000 0.0000 28.3671 0.0000
# 6 0.0000 0.0000 0.0000 0.0000 0.0000 28.5463
#
#
#
# Elastic Compliance Matrix: (Units=1/GPa)
#
#
# Indices 1 2 3 4 5 6 
#
# 1 0.021448 -0.000552 -0.003103 0.000000 0.000000 0.000000
# 2 -0.000552 0.014542 -0.005251 0.000000 0.000000 0.000000
# 3 -0.003103 -0.005251 0.005780 0.000000 0.000000 0.000000
# 4 0.000000 0.000000 0.000000 0.014484 0.000000 0.000000
# 5 0.000000 0.000000 0.000000 0.000000 0.035252 0.000000
# 6 0.000000 0.000000 0.000000 0.000000 0.000000 0.035031
#
#
# Mechanical properties :
#
#
# Convention : Reuss Voigt Hill
#
# Bulk Modulus (GPa) = 41.74007 89.39386 65.56696
# Shear Modulus (GPa) = 32.82242 44.24501 38.53372
#
# Velocity S-wave (km/s) = 3.62230 4.20563 3.92482
# Velocity P-wave (km/s) = 5.84642 7.70189 6.83739
#
# Compressibility (1/GPa) = 0.02395779
#
# Stress axis : x y z
#
# Youngs Moduli (GPa) = 46.62450 68.76688 173.00649
#
# Poissons Ratio (x) = 0.03797 0.53686
# Poissons Ratio (y) = 0.02574 0.90843
# Poissons Ratio (z) = 0.14468 0.36108
#
# Static dielectric constant tensor:
#      x y z
#    x 2.181930 0.000000 0.000000 
#    y 0.000000 1.948380 0.000000 
#    z 0.000000 0.000000 2.028860 
# 
# From -- ./inp_files/28537.got.cif
#   From: 2010.05.17/outbox.cif.g08.bks.cpg/sg43_15_cif.got.tgz:28537.got - 2010.06.03 19:21:55.
