data_PCOD9370403
_publ_section_title
;
Structure prediction by ZEFSAII (Michael W. Deem and Ramdas Pophale) SiO2 
 PCOD9370403
Probable space group: F D D 2
;
_chemical_formula_sum "Si O2"
_cell_formula_units_Z 112
_cell_length_a 13.945152
_cell_length_b 23.835637
_cell_length_c 14.674778
_cell_angle_alpha 90.000000
_cell_angle_beta 90.000000
_cell_angle_gamma 90.000000
_cell_volume 4877.772660
_symmetry_space_group_name_H-M "F D D 2"
_symmetry_group_IT_number 43
_symmetry_cell_setting 'orthorhombic'
loop_
_space_group_symop_operation_xyz
x,y,z
-x,-y,z
1/4-x,1/4+y,1/4+z
1/4+x,1/4-y,1/4+z
x,1/2+y,1/2+z
-x,1/2-y,1/2+z
1/4-x,3/4+y,3/4+z
1/4+x,3/4-y,3/4+z
1/2+x,y,1/2+z
1/2-x,-y,1/2+z
3/4-x,1/4+y,3/4+z
3/4+x,1/4-y,3/4+z
1/2+x,1/2+y,z
1/2-x,1/2-y,z
3/4-x,3/4+y,1/4+z
3/4+x,3/4-y,1/4+z
loop_
_atom_site_type_symbol
_atom_site_label
_atom_site_fract_x
_atom_site_fract_y
_atom_site_fract_z
Si Si1 0.632320 0.567286 0.068130
Si Si2 0.114535 0.326479 0.519719
Si Si3 0.408987 0.346254 0.759507
Si Si4 0.380845 0.222141 0.707257
Si Si5 0.855472 0.549394 0.473355
Si Si6 0.253484 0.681575 0.375320
Si Si7 0.850711 0.560489 0.265605
O O1 0.590377 0.566998 0.170028
O O2 0.598830 0.621449 0.011888
O O3 0.747628 0.579600 0.069405
O O4 0.615913 0.508248 0.020885
O O5 0.158714 0.303644 0.613235
O O6 0.109148 0.394313 0.522885
O O7 0.011009 0.295219 0.513043
O O8 0.387581 0.289420 0.703737
O O9 0.317604 0.359726 0.820166
O O10 0.433554 0.397332 0.695423
O O11 0.488913 0.199089 0.720916
O O12 0.318328 0.207592 0.795911
O O13 0.887792 0.548432 0.367771
O O14 0.172349 0.712708 0.438770
#
# Coordination Sequence:
#
# PCOD9370403 Si02
#       7
#    16  16  16  16  16  16  16
#     4   9  18  37  62  87 125 163 217 269 323 389
#     4  10  19  37  62  84 130 170 209 265 333 387
#     4  10  22  42  62  95 125 167 217 277 321 401
#     4  10  23  39  58  94 132 164 215 269 330 406
#     4   9  20  37  60  91 123 168 217 266 326 393
#     4  11  22  41  69  91 130 172 217 279 337 388
#     4   9  19  37  61  89 122 167 211 276 325 380
#
# _framework density 22.961297999999999
#
# number of rings (size 3 to 8) (size 9 to 14) (size 15 to 20)
#    0.000    2.286    1.429    0.429    2.000    1.714 
#    2.571    5.714    3.143    0.000    0.000    0.000 
#    0.000    0.000    0.000    0.000    0.000    0.000 
#
# Total GULP energy -156295.085155 kJ/mol
# GULP energy per Si atom -5581.967327 kJ/mol
# Density = 2.290904 g / cm^3
# Si number density = 22.961298 Si / 1000 Ang^3
#
#
#
# Elastic Constant Matrix: (Units=GPa)
#
#
# Indices 1 2 3 4 5 6 
#
# 1 77.6381 -6.0180 18.9237 0.0000 0.0000 0.0000
# 2 -6.0180 58.6989 46.8633 0.0000 0.0000 0.0000
# 3 18.9237 46.8633 155.2921 0.0000 0.0000 0.0000
# 4 0.0000 0.0000 0.0000 26.7552 0.0000 0.0000
# 5 0.0000 0.0000 0.0000 0.0000 30.6392 0.0000
# 6 0.0000 0.0000 0.0000 0.0000 0.0000 26.4023
#
#
#
# Elastic Compliance Matrix: (Units=1/GPa)
#
#
# Indices 1 2 3 4 5 6 
#
# 1 0.013842 0.003644 -0.002786 0.000000 0.000000 0.000000
# 2 0.003644 0.023402 -0.007506 0.000000 0.000000 0.000000
# 3 -0.002786 -0.007506 0.009044 0.000000 0.000000 0.000000
# 4 0.000000 0.000000 0.000000 0.037376 0.000000 0.000000
# 5 0.000000 0.000000 0.000000 0.000000 0.032638 0.000000
# 6 0.000000 0.000000 0.000000 0.000000 0.000000 0.037875
#
#
# Mechanical properties :
#
#
# Convention : Reuss Voigt Hill
#
# Bulk Modulus (GPa) = 30.31173 45.68521 37.99847
# Shear Modulus (GPa) = 28.01552 32.21669 30.11610
#
# Velocity S-wave (km/s) = 3.49681 3.74984 3.62553
# Velocity P-wave (km/s) = 5.43447 6.21999 5.84045
#
# Compressibility (1/GPa) = 0.03299053
#
# Stress axis : x y z
#
# Youngs Moduli (GPa) = 72.24470 42.73070 110.56796
#
# Poissons Ratio (x) = -0.15569 0.30807
# Poissons Ratio (y) = -0.26323 0.82995
# Poissons Ratio (z) = 0.20129 0.32075
#
# Static dielectric constant tensor:
#      x y z
#    x 1.945300 0.000000 0.000000 
#    y 0.000000 1.852660 0.000000 
#    z 0.000000 0.000000 1.867680 
# 
# From -- ./inp_files/10190.got.cif
#   From: 2010.05.17/outbox.cif.g08.bks.cpg/sg43_6_cif.got.tgz:10190.got - 2010.06.03 19:21:55.
