data_PCOD9370164
_publ_section_title
;
Structure prediction by ZEFSAII (Michael W. Deem and Ramdas Pophale) SiO2 
 PCOD9370164
Probable space group: F D D 2
;
_chemical_formula_sum "Si O2"
_cell_formula_units_Z 120
_cell_length_a 8.553290
_cell_length_b 27.389096
_cell_length_c 25.244163
_cell_angle_alpha 90.000000
_cell_angle_beta 90.000000
_cell_angle_gamma 90.000000
_cell_volume 5913.871328
_symmetry_space_group_name_H-M "F D D 2"
_symmetry_group_IT_number 43
_symmetry_cell_setting 'orthorhombic'
loop_
_space_group_symop_operation_xyz
x,y,z
-x,-y,z
1/4-x,1/4+y,1/4+z
1/4+x,1/4-y,1/4+z
x,1/2+y,1/2+z
-x,1/2-y,1/2+z
1/4-x,3/4+y,3/4+z
1/4+x,3/4-y,3/4+z
1/2+x,y,1/2+z
1/2-x,-y,1/2+z
3/4-x,1/4+y,3/4+z
3/4+x,1/4-y,3/4+z
1/2+x,1/2+y,z
1/2-x,1/2-y,z
3/4-x,3/4+y,1/4+z
3/4+x,3/4-y,1/4+z
loop_
_atom_site_type_symbol
_atom_site_label
_atom_site_fract_x
_atom_site_fract_y
_atom_site_fract_z
Si Si1 0.315691 0.013907 0.946760
Si Si2 0.250000 0.250000 0.509631
Si Si3 0.253722 0.026677 0.336626
Si Si4 0.752220 0.074014 0.019132
Si Si5 0.646641 0.132373 0.869549
Si Si6 0.112352 0.341278 0.448274
Si Si7 0.443370 0.614104 0.474364
Si Si8 0.042305 0.947342 0.740991
O O1 0.322659 0.070427 0.961492
O O2 0.500000 0.000000 0.937599
O O3 0.226998 0.999356 0.892850
O O4 0.253371 0.979635 0.993846
O O5 0.102623 0.243501 0.548354
O O6 0.212132 0.297110 0.474478
O O7 0.162190 0.077697 0.346547
O O8 0.397902 0.042745 0.300668
O O9 0.822760 0.081540 0.076859
O O10 0.852432 0.109377 0.980781
O O11 0.574664 0.094299 0.014752
O O12 0.816410 0.149572 0.890366
O O13 0.537721 0.127139 0.920966
O O14 0.934107 0.326012 0.457385
O O15 0.351679 0.661174 0.492619
O O16 0.000000 0.000000 0.717711
#
# Coordination Sequence:
#
# PCOD9370164 Si02
#       8
#    16   8  16  16  16  16  16  16
#     4  10  18  39  68 100 126 166 222 275 327 404
#     4  10  18  32  66  96 118 168 216 284 314 386
#     4  11  19  37  71  99 124 159 240 279 324 380
#     4  10  20  39  69  97 130 172 225 270 332 411
#     4  11  20  41  69  95 127 183 226 266 334 400
#     4  10  22  38  66  91 136 163 228 275 321 399
#     4  10  23  41  66  98 137 174 219 278 342 408
#     4  11  26  43  62  98 141 169 215 287 342 394
#
# _framework density 20.291277000000001
#
# number of rings (size 3 to 8) (size 9 to 14) (size 15 to 20)
#    0.000    1.600    7.333    0.000    7.467    0.000 
#    4.800    4.000    0.000    0.000    0.000    0.000 
#    0.000    0.000    0.000    0.000    0.000    0.000 
#
# Total GULP energy -167530.725533 kJ/mol
# GULP energy per Si atom -5584.357518 kJ/mol
# Density = 2.024509 g / cm^3
# Si number density = 20.291277 Si / 1000 Ang^3
#
#
#
# Elastic Constant Matrix: (Units=GPa)
#
#
# Indices 1 2 3 4 5 6 
#
# 1 60.3586 30.3212 22.1546 0.0000 0.0000 0.0000
# 2 30.3212 71.8945 2.1756 0.0000 0.0000 0.0000
# 3 22.1546 2.1756 58.9428 0.0000 0.0000 0.0000
# 4 0.0000 0.0000 0.0000 16.2135 0.0000 0.0000
# 5 0.0000 0.0000 0.0000 0.0000 31.5845 0.0000
# 6 0.0000 0.0000 0.0000 0.0000 0.0000 40.3452
#
#
#
# Elastic Compliance Matrix: (Units=1/GPa)
#
#
# Indices 1 2 3 4 5 6 
#
# 1 0.025056 -0.010294 -0.009038 0.000000 0.000000 0.000000
# 2 -0.010294 0.018154 0.003199 0.000000 0.000000 0.000000
# 3 -0.009038 0.003199 0.020244 0.000000 0.000000 0.000000
# 4 0.000000 0.000000 0.000000 0.061677 0.000000 0.000000
# 5 0.000000 0.000000 0.000000 0.000000 0.031661 0.000000
# 6 0.000000 0.000000 0.000000 0.000000 0.000000 0.024786
#
#
# Mechanical properties :
#
#
# Convention : Reuss Voigt Hill
#
# Bulk Modulus (GPa) = 32.06227 33.38875 32.72551
# Shear Modulus (GPa) = 22.29755 26.73162 24.51458
#
# Velocity S-wave (km/s) = 3.31852 3.63353 3.47959
# Velocity P-wave (km/s) = 5.52438 5.83899 5.68386
#
# Compressibility (1/GPa) = 0.03118931
#
# Stress axis : x y z
#
# Youngs Moduli (GPa) = 39.91053 55.08481 49.39614
#
# Poissons Ratio (x) = 0.56703 0.44643
# Poissons Ratio (y) = 0.41083 -0.15802
# Poissons Ratio (z) = 0.36070 -0.17622
#
# Static dielectric constant tensor:
#      x y z
#    x 1.758350 0.000000 0.000000 
#    y 0.000000 1.726530 0.000000 
#    z 0.000000 0.000000 1.714150 
# 
# From -- ./inp_files/24557.got.cif
#   From: 2010.05.17/outbox.cif.g08.bks.cpg/sg43_13_cif.got.tgz:24557.got - 2010.06.03 19:21:55.
