data_PCOD9370484
_publ_section_title
;
Structure prediction by ZEFSAII (Michael W. Deem and Ramdas Pophale) SiO2 
 PCOD9370484
Probable space group: F D D 2
;
_chemical_formula_sum "Si O2"
_cell_formula_units_Z 112
_cell_length_a 25.091166
_cell_length_b 20.006621
_cell_length_c 9.219924
_cell_angle_alpha 90.000000
_cell_angle_beta 90.000000
_cell_angle_gamma 90.000000
_cell_volume 4628.304565
_symmetry_space_group_name_H-M "F D D 2"
_symmetry_group_IT_number 43
_symmetry_cell_setting 'orthorhombic'
loop_
_space_group_symop_operation_xyz
x,y,z
-x,-y,z
1/4-x,1/4+y,1/4+z
1/4+x,1/4-y,1/4+z
x,1/2+y,1/2+z
-x,1/2-y,1/2+z
1/4-x,3/4+y,3/4+z
1/4+x,3/4-y,3/4+z
1/2+x,y,1/2+z
1/2-x,-y,1/2+z
3/4-x,1/4+y,3/4+z
3/4+x,1/4-y,3/4+z
1/2+x,1/2+y,z
1/2-x,1/2-y,z
3/4-x,3/4+y,1/4+z
3/4+x,3/4-y,1/4+z
loop_
_atom_site_type_symbol
_atom_site_label
_atom_site_fract_x
_atom_site_fract_y
_atom_site_fract_z
Si Si1 0.079327 0.146482 0.500000
Si Si2 0.692271 0.009639 0.383121
Si Si3 0.442025 0.063529 0.770119
Si Si4 0.850708 0.837280 0.100250
Si Si5 0.808368 0.164701 0.933392
Si Si6 0.221322 0.655650 0.331594
Si Si7 0.211908 0.541285 0.713271
O O1 0.141737 0.137628 0.523997
O O2 0.069997 0.126523 0.332058
O O3 0.067464 0.225324 0.526814
O O4 0.035024 0.105671 0.590167
O O5 0.633297 0.978712 0.394651
O O6 0.731604 0.961324 0.293558
O O7 0.696957 0.081295 0.306726
O O8 0.716173 0.023068 0.542568
O O9 0.494529 0.085887 0.683975
O O10 0.427125 0.992014 0.704802
O O11 0.458503 0.053606 0.937608
O O12 0.901372 0.885591 0.063693
O O13 0.818959 0.887850 0.207719
O O14 0.809324 0.819921 0.973590
#
# Coordination Sequence:
#
# PCOD9370484 Si02
#       7
#    16  16  16  16  16  16  16
#     4  10  19  40  62  87 124 164 219 265 323 410
#     4  10  22  41  63  91 133 170 229 274 334 410
#     4  10  21  40  63  90 128 166 215 274 329 399
#     4  11  21  39  60  94 130 159 215 279 334 390
#     4  10  21  37  63  96 122 167 213 272 336 389
#     4   9  23  39  60  90 127 170 216 266 330 402
#     4  10  21  40  64  92 127 175 220 274 338 410
#
# _framework density 24.198927999999999
#
# number of rings (size 3 to 8) (size 9 to 14) (size 15 to 20)
#    0.000    2.000    2.857    0.000    0.000    5.714 
#    0.000    0.000    0.000    1.714    0.000    0.000 
#    0.000    0.000    0.000    0.000    0.000    0.000 
#
# Total GULP energy -156186.329925 kJ/mol
# GULP energy per Si atom -5578.083212 kJ/mol
# Density = 2.414385 g / cm^3
# Si number density = 24.198928 Si / 1000 Ang^3
#
#
#
# Elastic Constant Matrix: (Units=GPa)
#
#
# Indices 1 2 3 4 5 6 
#
# 1 174.9488 18.1351 50.7976 -0.0001 0.0001 0.0000
# 2 18.1351 56.8758 9.5990 0.0001 0.0000 0.0000
# 3 50.7976 9.5990 53.5485 0.0001 -0.0001 0.0000
# 4 -0.0001 0.0001 0.0001 20.6257 0.0000 0.0000
# 5 0.0001 0.0000 -0.0001 0.0000 36.6699 0.0000
# 6 0.0000 0.0000 0.0000 0.0000 0.0000 25.9720
#
#
#
# Elastic Compliance Matrix: (Units=1/GPa)
#
#
# Indices 1 2 3 4 5 6 
#
# 1 0.007982 -0.001307 -0.007338 0.000000 0.000000 0.000000
# 2 -0.001307 0.018345 -0.002049 0.000000 0.000000 0.000000
# 3 -0.007338 -0.002049 0.026003 0.000000 0.000000 0.000000
# 4 0.000000 0.000000 0.000000 0.048483 0.000000 0.000000
# 5 0.000000 0.000000 0.000000 0.000000 0.027270 0.000000
# 6 0.000000 0.000000 0.000000 0.000000 0.000000 0.038503
#
#
# Mechanical properties :
#
#
# Convention : Reuss Voigt Hill
#
# Bulk Modulus (GPa) = 32.31773 49.15961 40.73867
# Shear Modulus (GPa) = 25.21605 30.44294 27.82949
#
# Velocity S-wave (km/s) = 3.23155 3.55072 3.39489
# Velocity P-wave (km/s) = 5.22570 6.09664 5.67789
#
# Compressibility (1/GPa) = 0.03094277
#
# Stress axis : x y z
#
# Youngs Moduli (GPa) = 125.28270 54.51194 38.45767
#
# Poissons Ratio (x) = 0.07123 0.28219
# Poissons Ratio (y) = 0.16371 0.07879
# Poissons Ratio (z) = 0.91928 0.11169
#
# Static dielectric constant tensor:
#      x y z
#    x 1.984340 0.000000 0.000000 
#    y 0.000000 2.018240 0.000000 
#    z 0.000000 0.000000 1.921600 
# 
# From -- ./inp_files/7587.got.cif
#   From: 2010.05.17/outbox.cif.g08.bks.cpg/sg43_4_cif.got.tgz:7587.got - 2010.06.03 19:21:55.
