data_PCOD9370736
_publ_section_title
;
Structure prediction by ZEFSAII (Michael W. Deem and Ramdas Pophale) SiO2 
 PCOD9370736
Probable space group: F D D 2
;
_chemical_formula_sum "Si O2"
_cell_formula_units_Z 96
_cell_length_a 10.501528
_cell_length_b 17.070885
_cell_length_c 24.922309
_cell_angle_alpha 90.000000
_cell_angle_beta 90.000000
_cell_angle_gamma 90.000000
_cell_volume 4467.831725
_symmetry_space_group_name_H-M "F D D 2"
_symmetry_group_IT_number 43
_symmetry_cell_setting 'orthorhombic'
loop_
_space_group_symop_operation_xyz
x,y,z
-x,-y,z
1/4-x,1/4+y,1/4+z
1/4+x,1/4-y,1/4+z
x,1/2+y,1/2+z
-x,1/2-y,1/2+z
1/4-x,3/4+y,3/4+z
1/4+x,3/4-y,3/4+z
1/2+x,y,1/2+z
1/2-x,-y,1/2+z
3/4-x,1/4+y,3/4+z
3/4+x,1/4-y,3/4+z
1/2+x,1/2+y,z
1/2-x,1/2-y,z
3/4-x,3/4+y,1/4+z
3/4+x,3/4-y,1/4+z
loop_
_atom_site_type_symbol
_atom_site_label
_atom_site_fract_x
_atom_site_fract_y
_atom_site_fract_z
Si Si1 0.500000 0.000000 0.565760
Si Si2 0.829971 0.674034 0.116591
Si Si3 0.349024 0.858453 0.533339
Si Si4 0.860564 0.019253 0.673642
Si Si5 0.632292 0.907109 0.661966
Si Si6 0.553957 0.268730 0.099514
Si Si7 0.750000 0.750000 0.502853
O O1 0.593559 0.054441 0.530445
O O2 0.413365 0.049659 0.607131
O O3 0.750000 0.750000 0.137129
O O4 0.792617 0.656470 0.054776
O O5 0.794754 0.591819 0.143206
O O6 0.980254 0.692425 0.120797
O O7 0.368768 0.807925 0.481239
O O8 0.434514 0.821220 0.580565
O O9 0.768432 0.944897 0.675011
O O10 0.000000 0.000000 0.650688
O O11 0.628184 0.816448 0.645210
O O12 0.538453 0.930633 0.711249
O O13 0.635318 0.260730 0.045167
#
# Coordination Sequence:
#
# PCOD9370736 Si02
#       7
#     8  16  16  16  16  16   8
#     4   9  18  38  64  90 126 164 222 282 307 396
#     4  10  23  42  63  92 131 169 220 277 325 403
#     4  10  20  39  63  92 127 171 222 269 334 397
#     4  12  24  40  64  94 132 174 216 280 345 396
#     4  10  22  41  62  97 128 172 228 271 331 414
#     4  10  22  39  64  92 129 175 222 273 334 400
#     4  11  22  40  70  86 134 184 216 280 347 388
#
# _framework density 21.486933000000001
#
# number of rings (size 3 to 8) (size 9 to 14) (size 15 to 20)
#    0.000    1.667    3.333    1.500    5.833    0.000 
#    3.000    0.000    0.000    0.000    0.000    0.000 
#    0.000    0.000    0.000    0.000    0.000    0.000 
#
# Total GULP energy -133698.590594 kJ/mol
# GULP energy per Si atom -5570.774608 kJ/mol
# Density = 2.143803 g / cm^3
# Si number density = 21.486933 Si / 1000 Ang^3
#
#
#
# Elastic Constant Matrix: (Units=GPa)
#
#
# Indices 1 2 3 4 5 6 
#
# 1 70.0791 25.2583 11.9346 0.0000 0.0000 0.0000
# 2 25.2583 70.5165 21.7762 0.0000 0.0000 0.0000
# 3 11.9346 21.7762 72.9228 0.0000 0.0000 0.0000
# 4 0.0000 0.0000 0.0000 17.4602 0.0000 0.0000
# 5 0.0000 0.0000 0.0000 0.0000 28.5166 0.0000
# 6 0.0000 0.0000 0.0000 0.0000 0.0000 34.9449
#
#
#
# Elastic Compliance Matrix: (Units=1/GPa)
#
#
# Indices 1 2 3 4 5 6 
#
# 1 0.016455 -0.005576 -0.001028 0.000000 0.000000 0.000000
# 2 -0.005576 0.017512 -0.004317 0.000000 0.000000 0.000000
# 3 -0.001028 -0.004317 0.015170 0.000000 0.000000 0.000000
# 4 0.000000 0.000000 0.000000 0.057273 0.000000 0.000000
# 5 0.000000 0.000000 0.000000 0.000000 0.035067 0.000000
# 6 0.000000 0.000000 0.000000 0.000000 0.000000 0.028616
#
#
# Mechanical properties :
#
#
# Convention : Reuss Voigt Hill
#
# Bulk Modulus (GPa) = 36.63708 36.82851 36.73280
# Shear Modulus (GPa) = 24.87151 26.48762 25.67957
#
# Velocity S-wave (km/s) = 3.40592 3.51484 3.46081
# Velocity P-wave (km/s) = 5.70569 5.80080 5.75344
#
# Compressibility (1/GPa) = 0.02729475
#
# Stress axis : x y z
#
# Youngs Moduli (GPa) = 60.77363 57.10520 65.91801
#
# Poissons Ratio (x) = 0.31845 0.06774
# Poissons Ratio (y) = 0.33890 0.28454
# Poissons Ratio (z) = 0.06246 0.24650
#
# Static dielectric constant tensor:
#      x y z
#    x 2.073560 0.000000 0.000000 
#    y 0.000000 1.875270 0.000000 
#    z 0.000000 0.000000 1.783650 
# 
# From -- ./inp_files/25091.got.cif
#   From: 2010.05.17/outbox.cif.g08.bks.cpg/sg43_13_cif.got.tgz:25091.got - 2010.06.03 19:21:55.
