data_PCOD9370976
_publ_section_title
;
Structure prediction by ZEFSAII (Michael W. Deem and Ramdas Pophale) SiO2 
 PCOD9370976
Probable space group: F D D 2
;
_chemical_formula_sum "Si O2"
_cell_formula_units_Z 112
_cell_length_a 14.431057
_cell_length_b 26.062194
_cell_length_c 12.459235
_cell_angle_alpha 90.000000
_cell_angle_beta 90.000000
_cell_angle_gamma 90.000000
_cell_volume 4685.980669
_symmetry_space_group_name_H-M "F D D 2"
_symmetry_group_IT_number 43
_symmetry_cell_setting 'orthorhombic'
loop_
_space_group_symop_operation_xyz
x,y,z
-x,-y,z
1/4-x,1/4+y,1/4+z
1/4+x,1/4-y,1/4+z
x,1/2+y,1/2+z
-x,1/2-y,1/2+z
1/4-x,3/4+y,3/4+z
1/4+x,3/4-y,3/4+z
1/2+x,y,1/2+z
1/2-x,-y,1/2+z
3/4-x,1/4+y,3/4+z
3/4+x,1/4-y,3/4+z
1/2+x,1/2+y,z
1/2-x,1/2-y,z
3/4-x,3/4+y,1/4+z
3/4+x,3/4-y,1/4+z
loop_
_atom_site_type_symbol
_atom_site_label
_atom_site_fract_x
_atom_site_fract_y
_atom_site_fract_z
Si Si1 0.000000 0.500000 0.302251
Si Si2 0.814714 0.636751 0.787033
Si Si3 0.090254 0.936498 0.414261
Si Si4 0.250000 0.750000 0.978667
Si Si5 0.371280 0.491226 0.615362
Si Si6 0.058439 0.287582 0.423621
Si Si7 0.952233 0.597526 0.426939
Si Si8 0.238022 0.095189 0.380209
O O1 0.085564 0.486064 0.223797
O O2 0.992650 0.448694 0.372977
O O3 0.818870 0.587491 0.861850
O O4 0.722471 0.642498 0.718474
O O5 0.828102 0.687119 0.858855
O O6 0.906061 0.642925 0.712710
O O7 0.105383 0.978490 0.506004
O O8 0.032999 0.956897 0.312838
O O9 0.162328 0.768680 0.912546
O O10 0.261837 0.495608 0.628974
O O11 0.090918 0.162112 0.176134
O O12 0.042189 0.298096 0.551874
O O13 0.963037 0.655373 0.376614
O O14 0.987191 0.607490 0.547077
#
# Coordination Sequence:
#
# PCOD9370976 Si02
#       8
#     8  16  16   8  16  16  16  16
#     4  12  21  46  77  98 154 196 237 308 395 446
#     4  12  24  44  72 107 141 198 245 309 372 455
#     4  12  25  44  75 106 150 191 251 306 375 455
#     4  12  21  52  73  96 146 202 239 318 379 444
#     4  12  25  46  70 110 147 190 250 308 367 458
#     4  10  24  42  73 103 147 187 254 306 373 449
#     4  10  23  44  72 101 148 194 238 314 381 450
#     4  10  20  45  65 102 147 182 250 310 359 452
#
# _framework density 23.901078999999999
#
# number of rings (size 3 to 8) (size 9 to 14) (size 15 to 20)
#    0.857    0.000    5.714    1.714    4.000    0.000 
#    5.143    0.714    0.000    0.000    0.000    0.000 
#    0.000    0.000    0.000    0.000    0.000    0.000 
#
# Total GULP energy -156448.473387 kJ/mol
# GULP energy per Si atom -5587.445478 kJ/mol
# Density = 2.384668 g / cm^3
# Si number density = 23.901079 Si / 1000 Ang^3
#
#
#
# Elastic Constant Matrix: (Units=GPa)
#
#
# Indices 1 2 3 4 5 6 
#
# 1 89.7293 11.3664 22.7299 0.0000 0.0000 0.0000
# 2 11.3664 45.7126 7.7470 0.0000 0.0000 0.0000
# 3 22.7299 7.7470 34.8682 0.0000 0.0000 0.0000
# 4 0.0000 0.0000 0.0000 39.8003 0.0000 0.0000
# 5 0.0000 0.0000 0.0000 0.0000 18.5988 0.0000
# 6 0.0000 0.0000 0.0000 0.0000 0.0000 29.7650
#
#
#
# Elastic Compliance Matrix: (Units=1/GPa)
#
#
# Indices 1 2 3 4 5 6 
#
# 1 0.013513 -0.001940 -0.008378 0.000000 0.000000 0.000000
# 2 -0.001940 0.023010 -0.003848 0.000000 0.000000 0.000000
# 3 -0.008378 -0.003848 0.034995 0.000000 0.000000 0.000000
# 4 0.000000 0.000000 0.000000 0.025125 0.000000 0.000000
# 5 0.000000 0.000000 0.000000 0.000000 0.053767 0.000000
# 6 0.000000 0.000000 0.000000 0.000000 0.000000 0.033597
#
#
# Mechanical properties :
#
#
# Convention : Reuss Voigt Hill
#
# Bulk Modulus (GPa) = 23.15477 28.22187 25.68832
# Shear Modulus (GPa) = 22.05231 26.19728 24.12479
#
# Velocity S-wave (km/s) = 3.04081 3.31429 3.18049
# Velocity P-wave (km/s) = 4.69441 5.14582 4.92529
#
# Compressibility (1/GPa) = 0.04318764
#
# Stress axis : x y z
#
# Youngs Moduli (GPa) = 74.00518 43.45882 28.57516
#
# Poissons Ratio (x) = 0.08432 0.23939
# Poissons Ratio (y) = 0.14358 0.10995
# Poissons Ratio (z) = 0.61998 0.16721
#
# Static dielectric constant tensor:
#      x y z
#    x 1.901370 0.000000 0.000000 
#    y 0.000000 1.999940 0.000000 
#    z 0.000000 0.000000 1.894930 
# 
# From -- ./inp_files/6363.got.cif
#   From: 2010.05.17/outbox.cif.g08.bks.cpg/sg43_4_cif.got.tgz:6363.got - 2010.06.03 19:21:55.
