data_PCOD9370369
_publ_section_title
;
Structure prediction by ZEFSAII (Michael W. Deem and Ramdas Pophale) SiO2 
 PCOD9370369
Probable space group: F D D 2
;
_chemical_formula_sum "Si O2"
_cell_formula_units_Z 64
_cell_length_a 8.142680
_cell_length_b 12.779443
_cell_length_c 28.005673
_cell_angle_alpha 90.000000
_cell_angle_beta 90.000000
_cell_angle_gamma 90.000000
_cell_volume 2914.239944
_symmetry_space_group_name_H-M "F D D 2"
_symmetry_group_IT_number 43
_symmetry_cell_setting 'orthorhombic'
loop_
_space_group_symop_operation_xyz
x,y,z
-x,-y,z
1/4-x,1/4+y,1/4+z
1/4+x,1/4-y,1/4+z
x,1/2+y,1/2+z
-x,1/2-y,1/2+z
1/4-x,3/4+y,3/4+z
1/4+x,3/4-y,3/4+z
1/2+x,y,1/2+z
1/2-x,-y,1/2+z
3/4-x,1/4+y,3/4+z
3/4+x,1/4-y,3/4+z
1/2+x,1/2+y,z
1/2-x,1/2-y,z
3/4-x,3/4+y,1/4+z
3/4+x,3/4-y,1/4+z
loop_
_atom_site_type_symbol
_atom_site_label
_atom_site_fract_x
_atom_site_fract_y
_atom_site_fract_z
Si Si1 0.198813 0.125251 0.762910
Si Si2 0.578875 0.791498 0.207013
Si Si3 0.875323 0.340285 0.920572
Si Si4 0.790371 0.131156 0.364844
O O1 0.250000 0.250000 0.759712
O O2 0.489386 0.361104 0.746944
O O3 0.283785 0.061012 0.720155
O O4 0.249198 0.079005 0.814022
O O5 0.750000 0.750000 0.224913
O O6 0.476051 0.691803 0.187224
O O7 0.583983 0.854368 0.157577
O O8 0.750000 0.250000 0.904323
O O9 0.021815 0.372732 0.884205
O O10 0.750000 0.250000 0.354596
#
# Coordination Sequence:
#
# PCOD9370369 Si02
#       4
#    16  16  16  16
#     4   8  18  36  56  79 111 148 186 229 276 329
#     4  10  20  37  57  82 116 149 183 231 282 333
#     4  10  20  35  57  83 114 150 184 229 281 328
#     4  10  19  36  58  82 113 147 187 231 277 332
#
# _framework density 21.961127000000001
#
# number of rings (size 3 to 8) (size 9 to 14) (size 15 to 20)
#    0.000    2.500    0.000    3.750    0.000    2.000 
#    0.000   26.250    0.000    0.000    0.000    0.000 
#    0.000    0.000    0.000    0.000    0.000    0.000 
#
# Total GULP energy -89085.297363 kJ/mol
# GULP energy per Si atom -5567.831085 kJ/mol
# Density = 2.191114 g / cm^3
# Si number density = 21.961127 Si / 1000 Ang^3
#
#
#
# Elastic Constant Matrix: (Units=GPa)
#
#
# Indices 1 2 3 4 5 6 
#
# 1 98.9446 -4.6575 52.3049 0.0000 0.0000 0.0000
# 2 -4.6575 23.1372 -3.0817 0.0000 0.0000 0.0000
# 3 52.3049 -3.0817 146.1322 0.0000 0.0000 0.0000
# 4 0.0000 0.0000 0.0000 -10.6085 0.0000 0.0000
# 5 0.0000 0.0000 0.0000 0.0000 10.0235 0.0000
# 6 0.0000 0.0000 0.0000 0.0000 0.0000 28.4154
#
#
#
# Elastic Compliance Matrix: (Units=1/GPa)
#
#
# Indices 1 2 3 4 5 6 
#
# 1 0.012551 0.001934 -0.004452 0.000000 0.000000 0.000000
# 2 0.001934 0.043640 0.000228 0.000000 0.000000 0.000000
# 3 -0.004452 0.000228 0.008441 0.000000 0.000000 0.000000
# 4 0.000000 0.000000 0.000000 -0.094264 0.000000 0.000000
# 5 0.000000 0.000000 0.000000 0.000000 0.099766 0.000000
# 6 0.000000 0.000000 0.000000 0.000000 0.000000 0.035192
#
#
# Mechanical properties :
#
#
# Convention : Reuss Voigt Hill
#
# Bulk Modulus (GPa) = 16.65206 39.70506 28.17856
# Shear Modulus (GPa) = 38.48441 20.47597 29.48019
#
# Velocity S-wave (km/s) = 4.19069 3.05679 3.66783
# Velocity P-wave (km/s) = 5.56910 5.52970 5.54943
#
# Compressibility (1/GPa) = 0.06005264
#
# Stress axis : x y z
#
# Youngs Moduli (GPa) = 79.67557 22.91474 118.46556
#
# Poissons Ratio (x) = -0.04431 0.52736
# Poissons Ratio (y) = -0.15406 -0.02704
# Poissons Ratio (z) = 0.35468 -0.00523
#
# Static dielectric constant tensor:
#      x y z
#    x 1.753910 0.000000 0.000000 
#    y 0.000000 3.071200 0.000000 
#    z 0.000000 0.000000 1.910480 
# 
# From -- ./inp_files/17878.got.cif
#   From: 2010.05.17/outbox.cif.g08.bks.cpg/sg43_9_cif.got.tgz:17878.got - 2010.06.03 19:21:55.
