data_PCOD9370580
_publ_section_title
;
Structure prediction by ZEFSAII (Michael W. Deem and Ramdas Pophale) SiO2 
 PCOD9370580
Probable space group: F D D 2
;
_chemical_formula_sum "Si O2"
_cell_formula_units_Z 112
_cell_length_a 28.707182
_cell_length_b 11.464437
_cell_length_c 14.164246
_cell_angle_alpha 90.000000
_cell_angle_beta 90.000000
_cell_angle_gamma 90.000000
_cell_volume 4661.618790
_symmetry_space_group_name_H-M "F D D 2"
_symmetry_group_IT_number 43
_symmetry_cell_setting 'orthorhombic'
loop_
_space_group_symop_operation_xyz
x,y,z
-x,-y,z
1/4-x,1/4+y,1/4+z
1/4+x,1/4-y,1/4+z
x,1/2+y,1/2+z
-x,1/2-y,1/2+z
1/4-x,3/4+y,3/4+z
1/4+x,3/4-y,3/4+z
1/2+x,y,1/2+z
1/2-x,-y,1/2+z
3/4-x,1/4+y,3/4+z
3/4+x,1/4-y,3/4+z
1/2+x,1/2+y,z
1/2-x,1/2-y,z
3/4-x,3/4+y,1/4+z
3/4+x,3/4-y,1/4+z
loop_
_atom_site_type_symbol
_atom_site_label
_atom_site_fract_x
_atom_site_fract_y
_atom_site_fract_z
Si Si1 0.276334 0.510993 0.717150
Si Si2 0.800542 0.217600 0.390965
Si Si3 0.922523 0.731759 0.149299
Si Si4 0.569758 0.223006 0.869060
Si Si5 0.909555 0.378914 0.315207
Si Si6 0.369119 0.643507 0.240377
Si Si7 0.299187 0.789391 0.108278
O O1 0.287313 0.526748 0.827803
O O2 0.225138 0.527882 0.669793
O O3 0.315348 0.579489 0.657907
O O4 0.285847 0.375531 0.692401
O O5 0.750000 0.250000 0.356024
O O6 0.825579 0.341031 0.404032
O O7 0.799024 0.163884 0.494666
O O8 0.828691 0.133556 0.321852
O O9 0.928671 0.769905 0.257375
O O10 0.872442 0.739465 0.096507
O O11 0.573923 0.079493 0.894362
O O12 0.616249 0.234003 0.928337
O O13 0.880179 0.286995 0.250681
O O14 0.419011 0.609257 0.288768
O O15 0.250000 0.750000 0.065209
#
# Coordination Sequence:
#
# PCOD9370580 Si02
#       7
#    16  16  16  16  16  16  16
#     4  10  21  40  61  86 119 156 200 256 308 359
#     4  11  21  36  60  90 120 159 209 256 304 364
#     4  11  22  36  59  89 119 158 202 251 307 367
#     4  11  22  36  60  90 119 155 203 252 306 370
#     4  10  21  39  60  85 121 161 203 249 303 364
#     4  10  20  36  60  91 123 157 201 259 312 363
#     4   9  19  37  62  87 117 156 204 255 307 361
#
# _framework density 24.025988999999999
#
# number of rings (size 3 to 8) (size 9 to 14) (size 15 to 20)
#    0.000    1.714    0.000    6.857    0.000    3.429 
#    0.000    1.429    0.000    8.571    0.000    0.000 
#    0.000    0.000    0.000    0.000    0.000    0.000 
#
# Total GULP energy -155876.600171 kJ/mol
# GULP energy per Si atom -5567.021435 kJ/mol
# Density = 2.397130 g / cm^3
# Si number density = 24.025989 Si / 1000 Ang^3
#
#
#
# Elastic Constant Matrix: (Units=GPa)
#
#
# Indices 1 2 3 4 5 6 
#
# 1 104.6055 -1.2464 51.4593 0.0000 0.0000 0.0000
# 2 -1.2464 16.4519 27.3356 0.0000 0.0000 0.0000
# 3 51.4593 27.3356 207.0262 0.0000 0.0000 0.0000
# 4 0.0000 0.0000 0.0000 28.3169 0.0000 0.0000
# 5 0.0000 0.0000 0.0000 0.0000 12.4080 0.0000
# 6 0.0000 0.0000 0.0000 0.0000 0.0000 17.7424
#
#
#
# Elastic Compliance Matrix: (Units=1/GPa)
#
#
# Indices 1 2 3 4 5 6 
#
# 1 0.011523 0.007215 -0.003817 0.000000 0.000000 0.000000
# 2 0.007215 0.082384 -0.012671 0.000000 0.000000 0.000000
# 3 -0.003817 -0.012671 0.007452 0.000000 0.000000 0.000000
# 4 0.000000 0.000000 0.000000 0.035315 0.000000 0.000000
# 5 0.000000 0.000000 0.000000 0.000000 0.080593 0.000000
# 6 0.000000 0.000000 0.000000 0.000000 0.000000 0.056362
#
#
# Mechanical properties :
#
#
# Convention : Reuss Voigt Hill
#
# Bulk Modulus (GPa) = 12.07541 53.68674 32.88107
# Shear Modulus (GPa) = 15.63575 28.39580 22.01578
#
# Velocity S-wave (km/s) = 2.55382 3.44158 3.03038
# Velocity P-wave (km/s) = 3.70579 6.17951 5.09506
#
# Compressibility (1/GPa) = 0.08281291
#
# Stress axis : x y z
#
# Youngs Moduli (GPa) = 86.77991 12.13832 134.18885
#
# Poissons Ratio (x) = -0.08758 0.51220
# Poissons Ratio (y) = -0.62612 1.70035
# Poissons Ratio (z) = 0.33124 0.15381
#
# Static dielectric constant tensor:
#      x y z
#    x 2.034650 0.000000 0.000000 
#    y 0.000000 2.047500 0.000000 
#    z 0.000000 0.000000 2.006990 
# 
# From -- ./inp_files/11715.got.cif
#   From: 2010.05.17/outbox.cif.g08.bks.cpg/sg43_6_cif.got.tgz:11715.got - 2010.06.03 19:21:55.
