data_PCOD9370325
_publ_section_title
;
Structure prediction by ZEFSAII (Michael W. Deem and Ramdas Pophale) SiO2 
 PCOD9370325
Probable space group: F D D 2
;
_chemical_formula_sum "Si O2"
_cell_formula_units_Z 120
_cell_length_a 19.558634
_cell_length_b 14.427737
_cell_length_c 22.678325
_cell_angle_alpha 90.000000
_cell_angle_beta 90.000000
_cell_angle_gamma 90.000000
_cell_volume 6399.524583
_symmetry_space_group_name_H-M "F D D 2"
_symmetry_group_IT_number 43
_symmetry_cell_setting 'orthorhombic'
loop_
_space_group_symop_operation_xyz
x,y,z
-x,-y,z
1/4-x,1/4+y,1/4+z
1/4+x,1/4-y,1/4+z
x,1/2+y,1/2+z
-x,1/2-y,1/2+z
1/4-x,3/4+y,3/4+z
1/4+x,3/4-y,3/4+z
1/2+x,y,1/2+z
1/2-x,-y,1/2+z
3/4-x,1/4+y,3/4+z
3/4+x,1/4-y,3/4+z
1/2+x,1/2+y,z
1/2-x,1/2-y,z
3/4-x,3/4+y,1/4+z
3/4+x,3/4-y,1/4+z
loop_
_atom_site_type_symbol
_atom_site_label
_atom_site_fract_x
_atom_site_fract_y
_atom_site_fract_z
Si Si1 0.819462 0.196001 0.899620
Si Si2 0.827291 0.478829 0.548697
Si Si3 0.250000 0.750000 0.689043
Si Si4 0.600317 0.360439 0.007059
Si Si5 0.556668 0.931642 0.113847
Si Si6 0.445537 0.884855 0.331263
Si Si7 0.483648 0.270161 0.079000
Si Si8 0.359782 0.786680 0.493166
O O1 0.750000 0.250000 0.911121
O O2 0.862183 0.237287 0.845830
O O3 0.871794 0.200427 0.953592
O O4 0.799509 0.094196 0.874400
O O5 0.831026 0.580850 0.522479
O O6 0.757872 0.436027 0.574113
O O7 0.848363 0.395475 0.505601
O O8 0.202702 0.685137 0.729046
O O9 0.294475 0.686553 0.644111
O O10 0.557976 0.304993 0.056777
O O11 0.625879 0.921696 0.077530
O O12 0.523244 0.828882 0.111151
O O13 0.583862 0.971711 0.176474
O O14 0.500000 0.000000 0.089596
O O15 0.434738 0.966964 0.283781
O O16 0.436050 0.268502 0.019352
#
# Coordination Sequence:
#
# PCOD9370325 Si02
#       8
#    16  16   8  16  16  16  16  16
#     4  11  21  38  57  90 125 161 202 249 302 374
#     4  11  19  34  56  86 123 147 192 250 303 363
#     4  12  18  34  60  96 120 142 188 258 326 352
#     4  12  22  34  62  86 125 166 189 246 323 361
#     4  11  23  39  60  83 120 160 200 250 308 362
#     4  11  20  35  57  91 120 144 206 259 297 369
#     4  10  22  39  58  92 126 154 207 257 304 375
#     4  10  19  33  60  90 115 147 194 253 315 353
#
# _framework density 18.751393
#
# number of rings (size 3 to 8) (size 9 to 14) (size 15 to 20)
#    0.000    1.067    4.000    6.400    0.000    0.000 
#    2.400    0.000    0.000    0.000    0.000    0.000 
#    0.000    0.000    0.000    0.000    0.000    0.000 
#
# Total GULP energy -167118.214022 kJ/mol
# GULP energy per Si atom -5570.607134 kJ/mol
# Density = 1.870871 g / cm^3
# Si number density = 18.751393 Si / 1000 Ang^3
#
#
#
# Elastic Constant Matrix: (Units=GPa)
#
#
# Indices 1 2 3 4 5 6 
#
# 1 86.2741 26.0322 4.9471 0.0000 0.0000 0.0000
# 2 26.0322 55.5432 11.2364 0.0000 0.0000 0.0000
# 3 4.9471 11.2364 41.6653 0.0000 0.0000 0.0000
# 4 0.0000 0.0000 0.0000 6.7502 0.0000 0.0000
# 5 0.0000 0.0000 0.0000 0.0000 13.7946 0.0000
# 6 0.0000 0.0000 0.0000 0.0000 0.0000 40.4718
#
#
#
# Elastic Compliance Matrix: (Units=1/GPa)
#
#
# Indices 1 2 3 4 5 6 
#
# 1 0.013501 -0.006350 0.000109 0.000000 0.000000 0.000000
# 2 -0.006350 0.022029 -0.005187 0.000000 0.000000 0.000000
# 3 0.000109 -0.005187 0.025387 0.000000 0.000000 0.000000
# 4 0.000000 0.000000 0.000000 0.148144 0.000000 0.000000
# 5 0.000000 0.000000 0.000000 0.000000 0.072492 0.000000
# 6 0.000000 0.000000 0.000000 0.000000 0.000000 0.024709
#
#
# Mechanical properties :
#
#
# Convention : Reuss Voigt Hill
#
# Bulk Modulus (GPa) = 26.27285 29.76821 28.02053
# Shear Modulus (GPa) = 14.62829 21.62112 18.12471
#
# Velocity S-wave (km/s) = 2.79609 3.39933 3.11236
# Velocity P-wave (km/s) = 4.94628 5.59615 5.28122
#
# Compressibility (1/GPa) = 0.03806211
#
# Stress axis : x y z
#
# Youngs Moduli (GPa) = 74.07060 45.39408 39.39078
#
# Poissons Ratio (x) = 0.28824 -0.00431
# Poissons Ratio (y) = 0.47032 0.20432
# Poissons Ratio (z) = -0.00810 0.23546
#
# Static dielectric constant tensor:
#      x y z
#    x 1.689470 0.000000 0.000000 
#    y 0.000000 1.675450 0.000000 
#    z 0.000000 0.000000 1.671530 
# 
# From -- ./inp_files/17717.got.cif
#   From: 2010.05.17/outbox.cif.g08.bks.cpg/sg43_9_cif.got.tgz:17717.got - 2010.06.03 19:21:55.
