data_PCOD9370533
_publ_section_title
;
Structure prediction by ZEFSAII (Michael W. Deem and Ramdas Pophale) SiO2 
 PCOD9370533
Probable space group: F D D 2
;
_chemical_formula_sum "Si O2"
_cell_formula_units_Z 112
_cell_length_a 25.832611
_cell_length_b 23.076079
_cell_length_c 9.986170
_cell_angle_alpha 90.000000
_cell_angle_beta 90.000000
_cell_angle_gamma 90.000000
_cell_volume 5952.909447
_symmetry_space_group_name_H-M "F D D 2"
_symmetry_group_IT_number 43
_symmetry_cell_setting 'orthorhombic'
loop_
_space_group_symop_operation_xyz
x,y,z
-x,-y,z
1/4-x,1/4+y,1/4+z
1/4+x,1/4-y,1/4+z
x,1/2+y,1/2+z
-x,1/2-y,1/2+z
1/4-x,3/4+y,3/4+z
1/4+x,3/4-y,3/4+z
1/2+x,y,1/2+z
1/2-x,-y,1/2+z
3/4-x,1/4+y,3/4+z
3/4+x,1/4-y,3/4+z
1/2+x,1/2+y,z
1/2-x,1/2-y,z
3/4-x,3/4+y,1/4+z
3/4+x,3/4-y,1/4+z
loop_
_atom_site_type_symbol
_atom_site_label
_atom_site_fract_x
_atom_site_fract_y
_atom_site_fract_z
Si Si1 0.652940 0.026380 0.424820
Si Si2 0.171177 0.410643 0.602971
Si Si3 0.178463 0.605987 0.935732
Si Si4 0.717201 0.085581 0.640666
Si Si5 0.213137 0.800075 0.659886
Si Si6 0.722934 0.030602 0.164215
Si Si7 0.023308 0.057469 0.219721
O O1 0.673547 0.075185 0.528452
O O2 0.596350 0.042773 0.368207
O O3 0.693078 0.025431 0.302910
O O4 0.655060 0.963383 0.501536
O O5 0.123384 0.393705 0.695846
O O6 0.224271 0.431382 0.672249
O O7 0.184038 0.348824 0.534372
O O8 0.188710 0.582989 0.784994
O O9 0.224968 0.650455 0.954862
O O10 0.186944 0.557572 0.048307
O O11 0.753948 0.141796 0.635089
O O12 0.755991 0.031998 0.624813
O O13 0.250000 0.750000 0.604493
O O14 0.208362 0.791099 0.820944
O O15 0.000000 0.000000 0.288286
#
# Coordination Sequence:
#
# PCOD9370533 Si02
#       7
#    16  16  16  16  16  16  16
#     4  11  21  36  59  83 113 152 192 242 300 355
#     4  10  20  36  58  82 113 153 198 240 296 368
#     4  10  20  36  59  83 112 150 192 243 295 351
#     4  10  20  36  58  83 111 150 194 238 295 366
#     4  10  20  33  54  84 112 142 190 241 285 343
#     4  10  22  37  55  84 116 148 192 245 298 354
#     4   9  17  32  53  81 108 137 186 239 281 341
#
# _framework density 18.814330000000002
#
# number of rings (size 3 to 8) (size 9 to 14) (size 15 to 20)
#    0.000    2.000    0.000    6.857    0.000    3.429 
#    0.000    2.857    0.000    4.286    0.000    0.000 
#    0.000    0.000    0.000    0.000    0.000    0.000 
#
# Total GULP energy -155990.804309 kJ/mol
# GULP energy per Si atom -5571.100154 kJ/mol
# Density = 1.877151 g / cm^3
# Si number density = 18.814330 Si / 1000 Ang^3
#
#
#
# Elastic Constant Matrix: (Units=GPa)
#
#
# Indices 1 2 3 4 5 6 
#
# 1 113.9838 21.0353 29.0413 0.0001 0.0000 0.0000
# 2 21.0353 77.0624 21.7836 0.0001 -0.0001 0.0000
# 3 29.0413 21.7836 36.8806 0.0001 0.0000 0.0000
# 4 0.0001 0.0001 0.0001 18.8447 0.0000 0.0000
# 5 0.0000 -0.0001 0.0000 0.0000 19.6459 0.0000
# 6 0.0000 0.0000 0.0000 0.0000 0.0000 24.0317
#
#
#
# Elastic Compliance Matrix: (Units=1/GPa)
#
#
# Indices 1 2 3 4 5 6 
#
# 1 0.011003 -0.000665 -0.008272 0.000000 0.000000 0.000000
# 2 -0.000665 0.015618 -0.008701 0.000000 0.000000 0.000000
# 3 -0.008272 -0.008701 0.038767 0.000000 0.000000 0.000000
# 4 0.000000 0.000000 0.000000 0.053065 0.000000 0.000000
# 5 0.000000 0.000000 0.000000 0.000000 0.050901 0.000000
# 6 0.000000 0.000000 0.000000 0.000000 0.000000 0.041612
#
#
# Mechanical properties :
#
#
# Convention : Reuss Voigt Hill
#
# Bulk Modulus (GPa) = 33.20842 41.29414 37.25128
# Shear Modulus (GPa) = 19.51001 22.90889 21.20945
#
# Velocity S-wave (km/s) = 3.22370 3.49324 3.36118
# Velocity P-wave (km/s) = 5.61652 6.18597 5.90811
#
# Compressibility (1/GPa) = 0.03011285
#
# Stress axis : x y z
#
# Youngs Moduli (GPa) = 90.88071 64.03048 25.79525
#
# Poissons Ratio (x) = 0.04261 0.21337
# Poissons Ratio (y) = 0.06047 0.22443
# Poissons Ratio (z) = 0.75172 0.55710
#
# Static dielectric constant tensor:
#      x y z
#    x 1.701970 0.000000 0.000000 
#    y 0.000000 1.744810 0.000000 
#    z 0.000000 0.000000 1.666520 
# 
# From -- ./inp_files/7246.got.cif
#   From: 2010.05.17/outbox.cif.g08.bks.cpg/sg43_4_cif.got.tgz:7246.got - 2010.06.03 19:21:55.
