data_PCOD9370491
_publ_section_title
;
Structure prediction by ZEFSAII (Michael W. Deem and Ramdas Pophale) SiO2 
 PCOD9370491
Probable space group: F D D 2
;
_chemical_formula_sum "Si O2"
_cell_formula_units_Z 80
_cell_length_a 13.018154
_cell_length_b 18.258279
_cell_length_c 13.690678
_cell_angle_alpha 90.000000
_cell_angle_beta 90.000000
_cell_angle_gamma 90.000000
_cell_volume 3254.124765
_symmetry_space_group_name_H-M "F D D 2"
_symmetry_group_IT_number 43
_symmetry_cell_setting 'orthorhombic'
loop_
_space_group_symop_operation_xyz
x,y,z
-x,-y,z
1/4-x,1/4+y,1/4+z
1/4+x,1/4-y,1/4+z
x,1/2+y,1/2+z
-x,1/2-y,1/2+z
1/4-x,3/4+y,3/4+z
1/4+x,3/4-y,3/4+z
1/2+x,y,1/2+z
1/2-x,-y,1/2+z
3/4-x,1/4+y,3/4+z
3/4+x,1/4-y,3/4+z
1/2+x,1/2+y,z
1/2-x,1/2-y,z
3/4-x,3/4+y,1/4+z
3/4+x,3/4-y,1/4+z
loop_
_atom_site_type_symbol
_atom_site_label
_atom_site_fract_x
_atom_site_fract_y
_atom_site_fract_z
Si Si1 0.229659 0.332600 0.178780
Si Si2 0.695426 0.602651 0.577179
Si Si3 0.113105 0.969797 0.674340
Si Si4 0.696454 0.956800 0.748697
Si Si5 0.319138 0.166182 0.400441
O O1 0.250000 0.250000 0.148500
O O2 0.130612 0.383636 0.156168
O O3 0.322599 0.376856 0.131975
O O4 0.236103 0.330009 0.296823
O O5 0.651762 0.520323 0.583755
O O6 0.606020 0.663049 0.585701
O O7 0.771789 0.604533 0.669041
O O8 0.756161 0.619817 0.479053
O O9 0.199372 0.995249 0.755456
O O10 0.000000 0.000000 0.693861
O O11 0.609406 0.008522 0.700136
#
# Coordination Sequence:
#
# PCOD9370491 Si02
#       5
#    16  16  16  16  16
#     4  11  24  43  71 102 140 199 243 309 367 445
#     4  10  19  40  69 102 139 183 232 307 363 432
#     4   9  23  47  65 100 152 184 249 301 374 448
#     4   9  21  39  69 101 140 183 237 305 363 442
#     4  11  21  41  70 103 141 181 250 304 366 440
#
# _framework density 24.584185000000002
#
# number of rings (size 3 to 8) (size 9 to 14) (size 15 to 20)
#    1.200    0.800    0.000    4.200    0.000    0.800 
#   14.400    6.000    4.400    0.000    0.000    0.000 
#    0.000    0.000    0.000    0.000    0.000    0.000 
#
# Total GULP energy -111590.404637 kJ/mol
# GULP energy per Si atom -5579.520232 kJ/mol
# Density = 2.452823 g / cm^3
# Si number density = 24.584185 Si / 1000 Ang^3
#
#
#
# Elastic Constant Matrix: (Units=GPa)
#
#
# Indices 1 2 3 4 5 6 
#
# 1 143.9011 42.6315 22.8634 0.0000 0.0000 0.0000
# 2 42.6315 174.1557 27.3272 0.0000 0.0000 0.0000
# 3 22.8634 27.3272 63.2123 0.0000 0.0000 0.0000
# 4 0.0000 0.0000 0.0000 33.2079 0.0000 0.0000
# 5 0.0000 0.0000 0.0000 0.0000 25.1434 0.0000
# 6 0.0000 0.0000 0.0000 0.0000 0.0000 35.7928
#
#
#
# Elastic Compliance Matrix: (Units=1/GPa)
#
#
# Indices 1 2 3 4 5 6 
#
# 1 0.007750 -0.001563 -0.002127 0.000000 0.000000 0.000000
# 2 -0.001563 0.006475 -0.002234 0.000000 0.000000 0.000000
# 3 -0.002127 -0.002234 0.017555 0.000000 0.000000 0.000000
# 4 0.000000 0.000000 0.000000 0.030113 0.000000 0.000000
# 5 0.000000 0.000000 0.000000 0.000000 0.039772 0.000000
# 6 0.000000 0.000000 0.000000 0.000000 0.000000 0.027939
#
#
# Mechanical properties :
#
#
# Convention : Reuss Voigt Hill
#
# Bulk Modulus (GPa) = 50.17248 62.99038 56.58143
# Shear Modulus (GPa) = 33.76161 38.05861 35.91011
#
# Velocity S-wave (km/s) = 3.70983 3.93885 3.82606
# Velocity P-wave (km/s) = 6.22922 6.80911 6.52561
#
# Compressibility (1/GPa) = 0.01993125
#
# Stress axis : x y z
#
# Youngs Moduli (GPa) = 129.02577 154.43527 56.96428
#
# Poissons Ratio (x) = 0.24144 0.12119
# Poissons Ratio (y) = 0.20172 0.12725
# Poissons Ratio (z) = 0.27449 0.34498
#
# Static dielectric constant tensor:
#      x y z
#    x 2.008190 0.000000 0.000000 
#    y 0.000000 2.037080 0.000000 
#    z 0.000000 0.000000 1.946390 
# 
# From -- ./inp_files/13796.got.cif
#   From: 2010.05.17/outbox.cif.g08.bks.cpg/sg43_7_cif.got.tgz:13796.got - 2010.06.03 19:21:55.
