data_PCOD9370595
_publ_section_title
;
Structure prediction by ZEFSAII (Michael W. Deem and Ramdas Pophale) SiO2 
 PCOD9370595
Probable space group: F D D 2
;
_chemical_formula_sum "Si O2"
_cell_formula_units_Z 80
_cell_length_a 24.356602
_cell_length_b 5.726554
_cell_length_c 24.389958
_cell_angle_alpha 90.000000
_cell_angle_beta 90.000000
_cell_angle_gamma 90.000000
_cell_volume 3401.896625
_symmetry_space_group_name_H-M "F D D 2"
_symmetry_group_IT_number 43
_symmetry_cell_setting 'orthorhombic'
loop_
_space_group_symop_operation_xyz
x,y,z
-x,-y,z
1/4-x,1/4+y,1/4+z
1/4+x,1/4-y,1/4+z
x,1/2+y,1/2+z
-x,1/2-y,1/2+z
1/4-x,3/4+y,3/4+z
1/4+x,3/4-y,3/4+z
1/2+x,y,1/2+z
1/2-x,-y,1/2+z
3/4-x,1/4+y,3/4+z
3/4+x,1/4-y,3/4+z
1/2+x,1/2+y,z
1/2-x,1/2-y,z
3/4-x,3/4+y,1/4+z
3/4+x,3/4-y,1/4+z
loop_
_atom_site_type_symbol
_atom_site_label
_atom_site_fract_x
_atom_site_fract_y
_atom_site_fract_z
Si Si1 0.000000 0.500000 0.415870
Si Si2 0.862784 0.918085 0.128102
Si Si3 0.618768 0.974459 0.980953
Si Si4 0.250000 0.750000 0.230621
Si Si5 0.303904 0.401819 0.933620
Si Si6 0.306752 0.208198 0.540618
O O1 0.942561 0.513781 0.383331
O O2 0.000905 0.748981 0.448271
O O3 0.920975 0.789371 0.132168
O O4 0.864837 0.090089 0.180955
O O5 0.851621 0.067265 0.074396
O O6 0.559319 0.983314 0.008710
O O7 0.642844 0.742989 0.954050
O O8 0.665135 0.054198 0.022817
O O9 0.250000 0.250000 0.922145
O O10 0.291162 0.567107 0.985529
O O11 0.250000 0.250000 0.572610
#
# Coordination Sequence:
#
# PCOD9370595 Si02
#       6
#     8  16  16   8  16  16
#     4  10  20  36  64 104 130 179 239 300 348 432
#     4  10  24  38  67 103 138 178 240 296 370 431
#     4  10  22  42  66  96 136 185 230 299 367 429
#     4  10  20  40  68  94 138 187 237 284 374 430
#     4  11  22  43  70  97 143 185 234 300 375 439
#     4  11  24  40  68 106 136 182 252 305 355 450
#
# _framework density 23.516292
#
# number of rings (size 3 to 8) (size 9 to 14) (size 15 to 20)
#    0.000    1.600    4.000    0.000    7.000    1.600 
#    0.000    0.000   13.200    0.000    0.000    0.000 
#    0.000    0.000    0.000    0.000    0.000    0.000 
#
# Total GULP energy -111624.181678 kJ/mol
# GULP energy per Si atom -5581.209084 kJ/mol
# Density = 2.346277 g / cm^3
# Si number density = 23.516292 Si / 1000 Ang^3
#
#
#
# Elastic Constant Matrix: (Units=GPa)
#
#
# Indices 1 2 3 4 5 6 
#
# 1 125.3172 10.5380 16.8758 -0.0008 0.0005 0.0022
# 2 10.5380 68.9285 13.8219 -0.0026 0.0002 0.0015
# 3 16.8758 13.8219 53.2440 -0.0005 0.0002 0.0002
# 4 -0.0008 -0.0026 -0.0005 4.5332 0.0001 0.0002
# 5 0.0005 0.0002 0.0002 0.0001 10.1622 -0.0002
# 6 0.0022 0.0015 0.0002 0.0002 -0.0002 43.4843
#
#
#
# Elastic Compliance Matrix: (Units=1/GPa)
#
#
# Indices 1 2 3 4 5 6 
#
# 1 0.008376 -0.000789 -0.002450 0.000001 0.000000 0.000000
# 2 -0.000789 0.015379 -0.003742 0.000008 0.000000 0.000000
# 3 -0.002450 -0.003742 0.020529 0.000000 0.000000 0.000000
# 4 0.000001 0.000008 0.000000 0.220597 -0.000002 -0.000001
# 5 0.000000 0.000000 0.000000 -0.000002 0.098404 0.000000
# 6 0.000000 0.000000 0.000000 -0.000001 0.000000 0.022997
#
#
# Mechanical properties :
#
#
# Convention : Reuss Voigt Hill
#
# Bulk Modulus (GPa) = 32.97973 36.66235 34.82104
# Shear Modulus (GPa) = 12.18467 25.38619 18.78543
#
# Velocity S-wave (km/s) = 2.27873 3.28916 2.82942
# Velocity P-wave (km/s) = 4.58019 5.48168 5.05109
#
# Compressibility (1/GPa) = 0.03032166
#
# Stress axis : x y z
#
# Youngs Moduli (GPa) = 119.38815 65.02442 48.71062
#
# Poissons Ratio (x) = 0.05132 0.11934
# Poissons Ratio (y) = 0.09423 0.18228
# Poissons Ratio (z) = 0.29249 0.24333
#
# Static dielectric constant tensor:
#      x y z
#    x 1.902680 0.000000 0.000000 
#    y 0.000000 1.947550 0.000000 
#    z 0.000000 0.000000 1.859200 
# 
# From -- ./inp_files/23569.got.cif
#   From: 2010.05.17/outbox.cif.g08.bks.cpg/sg43_12_cif.got.tgz:23569.got - 2010.06.03 19:21:55.
