data_PCOD9370987
_publ_section_title
;
Structure prediction by ZEFSAII (Michael W. Deem and Ramdas Pophale) SiO2 
 PCOD9370987
Probable space group: F D D 2
;
_chemical_formula_sum "Si O2"
_cell_formula_units_Z 72
_cell_length_a 12.669317
_cell_length_b 25.627515
_cell_length_c 8.599432
_cell_angle_alpha 90.000000
_cell_angle_beta 90.000000
_cell_angle_gamma 90.000000
_cell_volume 2792.090339
_symmetry_space_group_name_H-M "F D D 2"
_symmetry_group_IT_number 43
_symmetry_cell_setting 'orthorhombic'
loop_
_space_group_symop_operation_xyz
x,y,z
-x,-y,z
1/4-x,1/4+y,1/4+z
1/4+x,1/4-y,1/4+z
x,1/2+y,1/2+z
-x,1/2-y,1/2+z
1/4-x,3/4+y,3/4+z
1/4+x,3/4-y,3/4+z
1/2+x,y,1/2+z
1/2-x,-y,1/2+z
3/4-x,1/4+y,3/4+z
3/4+x,1/4-y,3/4+z
1/2+x,1/2+y,z
1/2-x,1/2-y,z
3/4-x,3/4+y,1/4+z
3/4+x,3/4-y,1/4+z
loop_
_atom_site_type_symbol
_atom_site_label
_atom_site_fract_x
_atom_site_fract_y
_atom_site_fract_z
Si Si1 0.177153 0.041062 0.430890
Si Si2 0.250000 0.250000 0.918018
Si Si3 0.471577 0.390034 0.218273
Si Si4 0.692798 0.930757 0.847002
Si Si5 0.888968 0.601564 0.170617
O O1 0.090832 0.022741 0.555123
O O2 0.262652 0.078604 0.508949
O O3 0.116017 0.078984 0.313102
O O4 0.220382 0.991615 0.336650
O O5 0.298188 0.302193 0.996506
O O6 0.581726 0.418368 0.263089
O O7 0.428142 0.384852 0.042532
O O8 0.782317 0.888165 0.821686
O O9 0.680840 0.922712 0.034446
#
# Coordination Sequence:
#
# PCOD9370987 Si02
#       5
#    16   8  16  16  16
#     4  11  23  45  72 100 147 208 243 321 406 463
#     4  10  20  46  66  98 148 206 248 320 414 450
#     4  12  22  45  72 104 144 199 265 304 398 478
#     4  11  23  47  70 102 156 196 246 328 398 454
#     4  11  24  41  74 105 142 199 258 313 390 481
#
# _framework density 25.787132
#
# number of rings (size 3 to 8) (size 9 to 14) (size 15 to 20)
#    0.000    0.889    6.667    1.333    0.000    1.778 
#   20.000    0.000    4.889    0.000    0.000    0.000 
#    0.000    0.000    0.000    0.000    0.000    0.000 
#
# Total GULP energy -100686.698262 kJ/mol
# GULP energy per Si atom -5593.705459 kJ/mol
# Density = 2.572844 g / cm^3
# Si number density = 25.787132 Si / 1000 Ang^3
#
#
#
# Elastic Constant Matrix: (Units=GPa)
#
#
# Indices 1 2 3 4 5 6 
#
# 1 90.3928 41.1355 39.9345 0.0000 0.0000 0.0000
# 2 41.1355 191.2085 31.3454 0.0000 0.0000 0.0000
# 3 39.9345 31.3454 100.7958 0.0000 0.0000 0.0000
# 4 0.0000 0.0000 0.0000 47.2240 0.0000 0.0000
# 5 0.0000 0.0000 0.0000 0.0000 46.2221 0.0000
# 6 0.0000 0.0000 0.0000 0.0000 0.0000 41.2163
#
#
#
# Elastic Compliance Matrix: (Units=1/GPa)
#
#
# Indices 1 2 3 4 5 6 
#
# 1 0.014280 -0.002260 -0.004955 0.000000 0.000000 0.000000
# 2 -0.002260 0.005868 -0.000930 0.000000 0.000000 0.000000
# 3 -0.004955 -0.000930 0.012173 0.000000 0.000000 0.000000
# 4 0.000000 0.000000 0.000000 0.021176 0.000000 0.000000
# 5 0.000000 0.000000 0.000000 0.000000 0.021635 0.000000
# 6 0.000000 0.000000 0.000000 0.000000 0.000000 0.024262
#
#
# Mechanical properties :
#
#
# Convention : Reuss Voigt Hill
#
# Bulk Modulus (GPa) = 62.37108 67.46976 64.92042
# Shear Modulus (GPa) = 41.31275 44.93124 43.12199
#
# Velocity S-wave (km/s) = 4.00693 4.17872 4.09373
# Velocity P-wave (km/s) = 6.75623 7.03585 6.89746
#
# Compressibility (1/GPa) = 0.01603307
#
# Stress axis : x y z
#
# Youngs Moduli (GPa) = 70.02651 170.40221 82.14724
#
# Poissons Ratio (x) = 0.38509 0.40704
# Poissons Ratio (y) = 0.15825 0.07637
# Poissons Ratio (z) = 0.34698 0.15841
#
# Static dielectric constant tensor:
#      x y z
#    x 2.069100 0.000000 0.000000 
#    y 0.000000 2.117610 0.000000 
#    z 0.000000 0.000000 2.183800 
# 
# From -- ./inp_files/2333.got.cif
#   From: 2010.05.17/outbox.cif.g08.bks.cpg/sg43_2_cif.got.tgz:2333.got - 2010.06.03 19:21:55.
