data_PCOD9370842
_publ_section_title
;
Structure prediction by ZEFSAII (Michael W. Deem and Ramdas Pophale) SiO2 
 PCOD9370842
Probable space group: F D D 2
;
_chemical_formula_sum "Si O2"
_cell_formula_units_Z 88
_cell_length_a 30.320023
_cell_length_b 5.150111
_cell_length_c 23.842471
_cell_angle_alpha 90.000000
_cell_angle_beta 90.000000
_cell_angle_gamma 90.000000
_cell_volume 3723.037228
_symmetry_space_group_name_H-M "F D D 2"
_symmetry_group_IT_number 43
_symmetry_cell_setting 'orthorhombic'
loop_
_space_group_symop_operation_xyz
x,y,z
-x,-y,z
1/4-x,1/4+y,1/4+z
1/4+x,1/4-y,1/4+z
x,1/2+y,1/2+z
-x,1/2-y,1/2+z
1/4-x,3/4+y,3/4+z
1/4+x,3/4-y,3/4+z
1/2+x,y,1/2+z
1/2-x,-y,1/2+z
3/4-x,1/4+y,3/4+z
3/4+x,1/4-y,3/4+z
1/2+x,1/2+y,z
1/2-x,1/2-y,z
3/4-x,3/4+y,1/4+z
3/4+x,3/4-y,1/4+z
loop_
_atom_site_type_symbol
_atom_site_label
_atom_site_fract_x
_atom_site_fract_y
_atom_site_fract_z
Si Si1 0.221989 0.484627 0.510730
Si Si2 0.702960 0.901743 0.266433
Si Si3 0.361520 0.609943 0.668696
Si Si4 0.176660 0.903799 0.117123
Si Si5 0.000000 0.000000 0.439351
Si Si6 0.205223 0.083880 0.890755
O O1 0.250000 0.250000 0.534809
O O2 0.181150 0.481562 0.552478
O O3 0.211504 0.415862 0.446663
O O4 0.250000 0.750000 0.511779
O O5 0.750000 0.750000 0.258527
O O6 0.659827 0.831894 0.230000
O O7 0.713085 0.167804 0.233881
O O8 0.696866 0.939905 0.332263
O O9 0.334056 0.395026 0.632791
O O10 0.411547 0.511595 0.660679
O O11 0.357847 0.894143 0.641832
O O12 0.224012 0.948624 0.148764
O O13 0.250000 0.250000 0.882726
#
# Coordination Sequence:
#
# PCOD9370842 Si02
#       6
#    16  16  16  16   8  16
#     4  11  24  43  71 102 143 190 238 292 370 438
#     4  11  22  44  75 103 144 191 247 303 366 445
#     4  11  27  45  73 110 145 191 255 305 368 437
#     4  11  23  44  72 109 144 185 243 307 363 435
#     4  10  20  40  70 102 142 184 244 294 362 430
#     4  11  27  50  72 106 151 205 242 307 376 451
#
# _framework density 23.636617999999999
#
# number of rings (size 3 to 8) (size 9 to 14) (size 15 to 20)
#    0.000    1.091    3.636    1.636    5.091    4.364 
#    6.545    0.000    0.000    0.000    0.000    0.000 
#    0.000    0.000    0.000    0.000    0.000    0.000 
#
# Total GULP energy -122490.291698 kJ/mol
# GULP energy per Si atom -5567.740532 kJ/mol
# Density = 2.358282 g / cm^3
# Si number density = 23.636618 Si / 1000 Ang^3
#
#
#
# Elastic Constant Matrix: (Units=GPa)
#
#
# Indices 1 2 3 4 5 6 
#
# 1 131.1819 10.3012 61.4446 0.0021 0.0057 0.0025
# 2 10.3012 61.6849 24.2849 0.0073 0.0433 0.0223
# 3 61.4446 24.2849 203.4637 0.0022 0.0123 0.0049
# 4 0.0021 0.0073 0.0022 24.0092 0.0108 0.0118
# 5 0.0057 0.0433 0.0123 0.0108 -12.1856 -0.0061
# 6 0.0025 0.0223 0.0049 0.0118 -0.0061 21.9637
#
#
#
# Elastic Compliance Matrix: (Units=1/GPa)
#
#
# Indices 1 2 3 4 5 6 
#
# 1 0.008891 -0.000449 -0.002631 0.000000 0.000000 0.000000
# 2 -0.000449 0.017033 -0.001898 -0.000005 0.000058 -0.000017
# 3 -0.002631 -0.001898 0.005936 0.000000 -0.000002 0.000001
# 4 0.000000 -0.000005 0.000000 0.041651 0.000037 -0.000022
# 5 0.000000 0.000058 -0.000002 0.000037 -0.082064 -0.000023
# 6 0.000000 -0.000017 0.000001 -0.000022 -0.000023 0.045530
#
#
# Mechanical properties :
#
#
# Convention : Reuss Voigt Hill
#
# Bulk Modulus (GPa) = 45.65216 65.37689 55.51453
# Shear Modulus (GPa) = 92.19377 26.77745 59.48561
#
# Velocity S-wave (km/s) = 6.25214 3.36948 5.02209
# Velocity P-wave (km/s) = 8.45430 6.54653 7.56083
#
# Compressibility (1/GPa) = 0.02190477
#
# Stress axis : x y z
#
# Youngs Moduli (GPa) = 112.47623 58.70829 168.46281
#
# Poissons Ratio (x) = 0.02635 0.44329
# Poissons Ratio (y) = 0.05048 0.31966
# Poissons Ratio (z) = 0.29597 0.11140
#
# Static dielectric constant tensor:
#      x y z
#    x 2.380360 0.000030 0.000000 
#    y 0.000030 1.950580 0.000000 
#    z 0.000000 0.000000 1.876780 
# 
# From -- ./inp_files/22945.got.cif
#   From: 2010.05.17/outbox.cif.g08.bks.cpg/sg43_12_cif.got.tgz:22945.got - 2010.06.03 19:21:55.
