data_PCOD9370850
_publ_section_title
;
Structure prediction by ZEFSAII (Michael W. Deem and Ramdas Pophale) SiO2 
 PCOD9370850
Probable space group: F D D 2
;
_chemical_formula_sum "Si O2"
_cell_formula_units_Z 72
_cell_length_a 13.860452
_cell_length_b 10.104543
_cell_length_c 23.510159
_cell_angle_alpha 90.000000
_cell_angle_beta 90.000000
_cell_angle_gamma 90.000000
_cell_volume 3292.680835
_symmetry_space_group_name_H-M "F D D 2"
_symmetry_group_IT_number 43
_symmetry_cell_setting 'orthorhombic'
loop_
_space_group_symop_operation_xyz
x,y,z
-x,-y,z
1/4-x,1/4+y,1/4+z
1/4+x,1/4-y,1/4+z
x,1/2+y,1/2+z
-x,1/2-y,1/2+z
1/4-x,3/4+y,3/4+z
1/4+x,3/4-y,3/4+z
1/2+x,y,1/2+z
1/2-x,-y,1/2+z
3/4-x,1/4+y,3/4+z
3/4+x,1/4-y,3/4+z
1/2+x,1/2+y,z
1/2-x,1/2-y,z
3/4-x,3/4+y,1/4+z
3/4+x,3/4-y,1/4+z
loop_
_atom_site_type_symbol
_atom_site_label
_atom_site_fract_x
_atom_site_fract_y
_atom_site_fract_z
Si Si1 0.093199 0.091004 0.704790
Si Si2 0.365568 0.078425 0.307696
Si Si3 0.519961 0.769021 0.388375
Si Si4 0.708751 0.113638 0.907482
Si Si5 0.250000 0.750000 0.725873
O O1 0.061486 0.241851 0.698431
O O2 0.133479 0.048536 0.766680
O O3 0.171134 0.051772 0.656189
O O4 0.000000 0.000000 0.696132
O O5 0.464353 0.134660 0.334636
O O6 0.284979 0.071717 0.357910
O O7 0.333063 0.194597 0.265399
O O8 0.604883 0.661570 0.384201
O O9 0.534942 0.876731 0.438668
O O10 0.750000 0.250000 0.933617
#
# Coordination Sequence:
#
# PCOD9370850 Si02
#       5
#    16  16  16  16   8
#     4  11  26  42  74 111 145 194 253 303 363 443
#     4  10  22  44  74 101 145 196 242 296 386 420
#     4  10  22  42  76 100 146 187 250 295 364 442
#     4  10  22  46  76 102 148 191 240 303 367 442
#     4  10  20  40  72 106 134 192 238 300 362 440
#
# _framework density 21.866679000000001
#
# number of rings (size 3 to 8) (size 9 to 14) (size 15 to 20)
#    0.000    1.778    3.333    0.667   14.000    0.000 
#    0.000   11.111    4.889    0.000    0.000    0.000 
#    0.000    0.000    0.000    0.000    0.000    0.000 
#
# Total GULP energy -100403.429380 kJ/mol
# GULP energy per Si atom -5577.968299 kJ/mol
# Density = 2.181691 g / cm^3
# Si number density = 21.866679 Si / 1000 Ang^3
#
#
#
# Elastic Constant Matrix: (Units=GPa)
#
#
# Indices 1 2 3 4 5 6 
#
# 1 104.0088 32.8811 34.7937 0.0000 0.0000 0.0000
# 2 32.8811 171.5162 55.7128 0.0000 0.0000 0.0000
# 3 34.7937 55.7128 91.4237 0.0000 0.0000 0.0000
# 4 0.0000 0.0000 0.0000 8.0263 0.0000 0.0000
# 5 0.0000 0.0000 0.0000 0.0000 45.2253 0.0000
# 6 0.0000 0.0000 0.0000 0.0000 0.0000 30.9781
#
#
#
# Elastic Compliance Matrix: (Units=1/GPa)
#
#
# Indices 1 2 3 4 5 6 
#
# 1 0.011139 -0.000946 -0.003663 0.000000 0.000000 0.000000
# 2 -0.000946 0.007350 -0.004119 0.000000 0.000000 0.000000
# 3 -0.003663 -0.004119 0.014842 0.000000 0.000000 0.000000
# 4 0.000000 0.000000 0.000000 0.124590 0.000000 0.000000
# 5 0.000000 0.000000 0.000000 0.000000 0.022112 0.000000
# 6 0.000000 0.000000 0.000000 0.000000 0.000000 0.032281
#
#
# Mechanical properties :
#
#
# Convention : Reuss Voigt Hill
#
# Bulk Modulus (GPa) = 62.98941 68.19154 65.59047
# Shear Modulus (GPa) = 21.27116 33.08336 27.17726
#
# Velocity S-wave (km/s) = 3.12230 3.89390 3.52925
# Velocity P-wave (km/s) = 6.47047 7.17422 6.83141
#
# Compressibility (1/GPa) = 0.01587569
#
# Stress axis : x y z
#
# Youngs Moduli (GPa) = 89.77582 136.06278 67.37587
#
# Poissons Ratio (x) = 0.12866 0.24679
# Poissons Ratio (y) = 0.08489 0.27751
# Poissons Ratio (z) = 0.32884 0.56043
#
# Static dielectric constant tensor:
#      x y z
#    x 1.880720 0.000000 0.000000 
#    y 0.000000 1.818950 0.000000 
#    z 0.000000 0.000000 1.832750 
# 
# From -- ./inp_files/20899.got.cif
#   From: 2010.05.17/outbox.cif.g08.bks.cpg/sg43_11_cif.got.tgz:20899.got - 2010.06.03 19:21:55.
