data_PCOD9370593
_publ_section_title
;
Structure prediction by ZEFSAII (Michael W. Deem and Ramdas Pophale) SiO2 
 PCOD9370593
Probable space group: F D D 2
;
_chemical_formula_sum "Si O2"
_cell_formula_units_Z 120
_cell_length_a 9.494097
_cell_length_b 23.503457
_cell_length_c 27.204667
_cell_angle_alpha 90.000000
_cell_angle_beta 90.000000
_cell_angle_gamma 90.000000
_cell_volume 6070.560950
_symmetry_space_group_name_H-M "F D D 2"
_symmetry_group_IT_number 43
_symmetry_cell_setting 'orthorhombic'
loop_
_space_group_symop_operation_xyz
x,y,z
-x,-y,z
1/4-x,1/4+y,1/4+z
1/4+x,1/4-y,1/4+z
x,1/2+y,1/2+z
-x,1/2-y,1/2+z
1/4-x,3/4+y,3/4+z
1/4+x,3/4-y,3/4+z
1/2+x,y,1/2+z
1/2-x,-y,1/2+z
3/4-x,1/4+y,3/4+z
3/4+x,1/4-y,3/4+z
1/2+x,1/2+y,z
1/2-x,1/2-y,z
3/4-x,3/4+y,1/4+z
3/4+x,3/4-y,1/4+z
loop_
_atom_site_type_symbol
_atom_site_label
_atom_site_fract_x
_atom_site_fract_y
_atom_site_fract_z
Si Si1 0.740022 0.182250 0.490620
Si Si2 0.596556 0.277264 0.084506
Si Si3 0.614034 0.376380 0.401944
Si Si4 0.311253 0.876324 0.757491
Si Si5 0.527196 0.746878 0.687231
Si Si6 0.000000 0.500000 0.497845
Si Si7 0.244268 0.590264 0.300241
Si Si8 0.596656 0.862013 0.707053
O O1 0.750000 0.250000 0.497515
O O2 0.812535 0.168042 0.438335
O O3 0.584682 0.155324 0.490820
O O4 0.831497 0.152412 0.534447
O O5 0.750000 0.250000 0.095068
O O6 0.610379 0.333434 0.052335
O O7 0.513861 0.281252 0.135724
O O8 0.516814 0.227112 0.056473
O O9 0.649889 0.438052 0.425266
O O10 0.687723 0.379600 0.348361
O O11 0.444457 0.371632 0.409999
O O12 0.287985 0.810245 0.773215
O O13 0.430578 0.875821 0.714433
O O14 0.381192 0.735143 0.713121
O O15 0.608993 0.794350 0.717636
O O16 0.330680 0.607761 0.252711
#
# Coordination Sequence:
#
# PCOD9370593 Si02
#       8
#    16  16  16  16  16   8  16  16
#     4  11  22  40  62  92 132 172 209 275 339 397
#     4  11  20  35  63  96 119 156 219 272 312 382
#     4  10  21  40  61  90 124 162 222 268 322 395
#     4  11  22  39  61  92 135 166 211 267 336 393
#     4  10  20  36  63  90 122 159 221 268 314 383
#     4  10  22  40  60  92 126 178 204 268 334 394
#     4  10  21  38  63  91 121 165 219 266 321 395
#     4  10  21  36  61  89 123 165 202 276 328 376
#
# _framework density 19.767531000000002
#
# number of rings (size 3 to 8) (size 9 to 14) (size 15 to 20)
#    0.000    1.600    4.000    2.000    0.000    2.133 
#    0.000    2.667    0.000    3.200    0.000    0.000 
#    0.000    0.000    0.000    0.000    0.000    0.000 
#
# Total GULP energy -167031.294928 kJ/mol
# GULP energy per Si atom -5567.709831 kJ/mol
# Density = 1.972254 g / cm^3
# Si number density = 19.767531 Si / 1000 Ang^3
#
#
#
# Elastic Constant Matrix: (Units=GPa)
#
#
# Indices 1 2 3 4 5 6 
#
# 1 108.2368 13.8975 27.3201 0.0000 0.0000 0.0000
# 2 13.8975 68.3480 29.1565 0.0000 0.0000 0.0000
# 3 27.3201 29.1565 75.0369 0.0000 0.0000 0.0000
# 4 0.0000 0.0000 0.0000 24.1372 0.0000 0.0000
# 5 0.0000 0.0000 0.0000 0.0000 17.6037 0.0000
# 6 0.0000 0.0000 0.0000 0.0000 0.0000 26.1363
#
#
#
# Elastic Compliance Matrix: (Units=1/GPa)
#
#
# Indices 1 2 3 4 5 6 
#
# 1 0.010194 -0.000587 -0.003483 0.000000 0.000000 0.000000
# 2 -0.000587 0.017572 -0.006614 0.000000 0.000000 0.000000
# 3 -0.003483 -0.006614 0.017165 0.000000 0.000000 0.000000
# 4 0.000000 0.000000 0.000000 0.041430 0.000000 0.000000
# 5 0.000000 0.000000 0.000000 0.000000 0.056806 0.000000
# 6 0.000000 0.000000 0.000000 0.000000 0.000000 0.038261
#
#
# Mechanical properties :
#
#
# Convention : Reuss Voigt Hill
#
# Bulk Modulus (GPa) = 42.44130 43.59666 43.01898
# Shear Modulus (GPa) = 23.73606 25.65862 24.69734
#
# Velocity S-wave (km/s) = 3.46896 3.60671 3.53850
# Velocity P-wave (km/s) = 6.12876 6.28069 6.20519
#
# Compressibility (1/GPa) = 0.02356195
#
# Stress axis : x y z
#
# Youngs Moduli (GPa) = 98.10095 56.90931 58.25789
#
# Poissons Ratio (x) = 0.03339 0.20294
# Poissons Ratio (y) = 0.05756 0.38533
# Poissons Ratio (z) = 0.34172 0.37641
#
# Static dielectric constant tensor:
#      x y z
#    x 1.797070 0.000000 0.000000 
#    y 0.000000 1.825790 0.000000 
#    z 0.000000 0.000000 1.717010 
# 
# From -- ./inp_files/24479.got.cif
#   From: 2010.05.17/outbox.cif.g08.bks.cpg/sg43_13_cif.got.tgz:24479.got - 2010.06.03 19:21:55.
