data_PCOD9370569
_publ_section_title
;
Structure prediction by ZEFSAII (Michael W. Deem and Ramdas Pophale) SiO2 
 PCOD9370569
Probable space group: F D D 2
;
_chemical_formula_sum "Si O2"
_cell_formula_units_Z 96
_cell_length_a 26.444422
_cell_length_b 7.754763
_cell_length_c 26.344171
_cell_angle_alpha 90.000000
_cell_angle_beta 90.000000
_cell_angle_gamma 90.000000
_cell_volume 5402.405082
_symmetry_space_group_name_H-M "F D D 2"
_symmetry_group_IT_number 43
_symmetry_cell_setting 'orthorhombic'
loop_
_space_group_symop_operation_xyz
x,y,z
-x,-y,z
1/4-x,1/4+y,1/4+z
1/4+x,1/4-y,1/4+z
x,1/2+y,1/2+z
-x,1/2-y,1/2+z
1/4-x,3/4+y,3/4+z
1/4+x,3/4-y,3/4+z
1/2+x,y,1/2+z
1/2-x,-y,1/2+z
3/4-x,1/4+y,3/4+z
3/4+x,1/4-y,3/4+z
1/2+x,1/2+y,z
1/2-x,1/2-y,z
3/4-x,3/4+y,1/4+z
3/4+x,3/4-y,1/4+z
loop_
_atom_site_type_symbol
_atom_site_label
_atom_site_fract_x
_atom_site_fract_y
_atom_site_fract_z
Si Si1 0.369707 0.277785 0.150760
Si Si2 0.111862 0.890774 0.014860
Si Si3 0.985148 0.305267 0.994380
Si Si4 0.684390 0.886608 0.605864
Si Si5 0.459112 0.370523 0.085357
Si Si6 0.461384 0.234648 0.891352
O O1 0.375636 0.273073 0.211402
O O2 0.347459 0.464329 0.134011
O O3 0.423837 0.267671 0.123627
O O4 0.330664 0.129917 0.132870
O O5 0.074031 0.735285 0.999856
O O6 0.158604 0.848380 0.051625
O O7 0.077160 0.017773 0.048515
O O8 0.000000 0.500000 0.986648
O O9 0.010118 0.245981 0.046530
O O10 0.011211 0.218717 0.945012
O O11 0.741217 0.963728 0.603035
O O12 0.687221 0.707936 0.637825
O O13 0.500000 0.500000 0.110252
#
# Coordination Sequence:
#
# PCOD9370569 Si02
#       6
#    16  16  16  16  16  16
#     4  11  20  37  63  80 114 161 192 238 301 359
#     4  10  20  36  58  79 116 149 194 241 306 350
#     4  11  19  34  59  84 111 149 197 251 284 351
#     4  10  22  36  53  92 117 142 194 260 293 348
#     4   9  21  36  54  85 113 148 197 239 290 356
#     4  11  20  36  60  85 114 148 201 247 291 356
#
# _framework density 17.769864999999999
#
# number of rings (size 3 to 8) (size 9 to 14) (size 15 to 20)
#    0.000    1.667    5.000    0.500    2.333    0.000 
#    3.000    0.000    0.000    4.000    0.000    0.000 
#    0.000    0.000    0.000    0.000    0.000    0.000 
#
# Total GULP energy -133660.115832 kJ/mol
# GULP energy per Si atom -5569.171493 kJ/mol
# Density = 1.772942 g / cm^3
# Si number density = 17.769865 Si / 1000 Ang^3
#
#
#
# Elastic Constant Matrix: (Units=GPa)
#
#
# Indices 1 2 3 4 5 6 
#
# 1 110.7620 30.5628 67.6482 0.0000 0.0000 0.0000
# 2 30.5628 58.6443 32.9461 0.0000 0.0000 -0.0002
# 3 67.6482 32.9461 84.3335 0.0000 0.0000 0.0000
# 4 0.0000 0.0000 0.0000 16.6036 0.0000 0.0000
# 5 0.0000 0.0000 0.0000 0.0000 43.5746 0.0000
# 6 0.0000 -0.0002 0.0000 0.0000 0.0000 21.4492
#
#
#
# Elastic Compliance Matrix: (Units=1/GPa)
#
#
# Indices 1 2 3 4 5 6 
#
# 1 0.017818 -0.001610 -0.013664 0.000000 0.000000 0.000000
# 2 -0.001610 0.021992 -0.007300 0.000000 0.000000 0.000000
# 3 -0.013664 -0.007300 0.025670 0.000000 0.000000 0.000000
# 4 0.000000 0.000000 0.000000 0.060228 0.000000 0.000000
# 5 0.000000 0.000000 0.000000 0.000000 0.022949 0.000000
# 6 0.000000 0.000000 0.000000 0.000000 0.000000 0.046622
#
#
# Mechanical properties :
#
#
# Convention : Reuss Voigt Hill
#
# Bulk Modulus (GPa) = 49.18234 57.33933 53.26084
# Shear Modulus (GPa) = 20.22629 24.49766 22.36197
#
# Velocity S-wave (km/s) = 3.37743 3.71699 3.55127
# Velocity P-wave (km/s) = 6.55339 7.12454 6.84493
#
# Compressibility (1/GPa) = 0.02033250
#
# Stress axis : x y z
#
# Youngs Moduli (GPa) = 56.12436 45.47083 38.95605
#
# Poissons Ratio (x) = 0.07319 0.53228
# Poissons Ratio (y) = 0.09034 0.28439
# Poissons Ratio (z) = 0.76686 0.33196
#
# Static dielectric constant tensor:
#      x y z
#    x 1.634000 0.000000 0.000000 
#    y 0.000000 1.637090 0.000000 
#    z 0.000000 0.000000 1.622530 
# 
# From -- ./inp_files/20353.got.cif
#   From: 2010.05.17/outbox.cif.g08.bks.cpg/sg43_11_cif.got.tgz:20353.got - 2010.06.03 19:21:55.
