data_PCOD9370016
_publ_section_title
;
Structure prediction by ZEFSAII (Michael W. Deem and Ramdas Pophale) SiO2 
 PCOD9370016
Probable space group: F M M 2
;
_chemical_formula_sum "Si O2"
_cell_formula_units_Z 24
_cell_length_a 21.000000
_cell_length_b 9.000000
_cell_length_c 27.000000
_cell_angle_alpha 90.000000
_cell_angle_beta 90.000000
_cell_angle_gamma 90.000000
_cell_volume 5103.000000
_symmetry_space_group_name_H-M "F M M 2"
_symmetry_group_IT_number 42
_symmetry_cell_setting 'orthorhombic'
loop_
_space_group_symop_operation_xyz
x,y,z
-x,-y,z
-x,y,z
x,-y,z
x,1/2+y,1/2+z
-x,1/2-y,1/2+z
-x,1/2+y,1/2+z
x,1/2-y,1/2+z
1/2+x,y,1/2+z
1/2-x,-y,1/2+z
1/2-x,y,1/2+z
1/2+x,-y,1/2+z
1/2+x,1/2+y,z
1/2-x,1/2-y,z
1/2-x,1/2+y,z
1/2+x,1/2-y,z
loop_
_atom_site_type_symbol
_atom_site_label
_atom_site_fract_x
_atom_site_fract_y
_atom_site_fract_z
Si Si1 0.923389 0.325193 0.129760
Si Si2 0.321681 0.176838 0.221088
Si Si3 0.427878 0.821060 0.789852
Si Si4 0.685952 0.178525 0.957372
Si Si5 0.927994 0.676556 0.398264
Si Si6 0.684059 0.321238 0.066416
O O1 0.923070 0.500000 0.115190
O O2 0.873680 0.313468 0.176039
O O3 0.883076 0.226135 0.091099
O O4 0.000000 0.286928 0.136903
O O5 0.250000 0.250000 0.214816
O O6 0.365067 0.258578 0.262503
O O7 0.312472 0.000000 0.230847
O O8 0.500000 0.789302 0.767821
O O9 0.428233 0.742225 0.843032
O O10 0.423402 0.000000 0.793660
O O11 0.750000 0.250000 0.934249
O O12 0.624080 0.232551 0.928393
O O13 0.690718 0.000000 0.959916
O O14 0.681861 0.251072 0.011770
O O15 0.913721 0.500000 0.397956
O O16 0.000000 0.694920 0.418341
O O17 0.690679 0.500000 0.066123
O O18 0.750000 0.250000 0.089226
#
# Coordination Sequence:
#
# PCOD9370016 Si02
#       6
#    16  16  16  16  16  16
#     4  10  22  40  61  86 116 150 189 234 285 340
#     4  11  23  39  60  86 116 151 191 235 285 339
#     4  10  21  38  60  86 116 150 190 236 286 339
#     4  11  22  38  60  85 116 152 192 237 286 339
#     4  10  21  38  60  86 117 152 191 235 284 339
#     4  11  22  38  60  85 115 151 192 236 285 339
#
# _framework density 4.7031159999999996
#
# number of rings (size 3 to 8) (size 9 to 14) (size 15 to 20)
#    0.000    1.500    0.000    6.500    0.000    7.000 
#    0.000    3.333    0.000    0.000    0.000    0.000 
#    0.000    0.000    0.000    0.000    0.000    0.000 
#
# Total GULP energy -133748.941418 kJ/mol
# GULP energy per Si atom -5572.872559 kJ/mol
# Density = 0.469241 g / cm^3
# Si number density = 4.703116 Si / 1000 Ang^3
#
#
#
# Elastic Constant Matrix: (Units=GPa)
#
#
# Indices 1 2 3 4 5 6 
#
# 1 199.8402 88.6919 48.0923 0.0000 0.0000 0.0000
# 2 88.6919 165.1276 41.1978 0.0000 0.0000 0.0000
# 3 48.0923 41.1978 44.9102 0.0000 0.0000 0.0000
# 4 0.0000 0.0000 0.0000 24.4320 0.0000 0.0000
# 5 0.0000 0.0000 0.0000 0.0000 38.4422 0.0000
# 6 0.0000 0.0000 0.0000 0.0000 0.0000 45.6176
#
#
#
# Elastic Compliance Matrix: (Units=1/GPa)
#
#
# Indices 1 2 3 4 5 6 
#
# 1 0.007534 -0.002637 -0.005648 0.000000 0.000000 0.000000
# 2 -0.002637 0.008776 -0.005227 0.000000 0.000000 0.000000
# 3 -0.005648 -0.005227 0.033110 0.000000 0.000000 0.000000
# 4 0.000000 0.000000 0.000000 0.040930 0.000000 0.000000
# 5 0.000000 0.000000 0.000000 0.000000 0.026013 0.000000
# 6 0.000000 0.000000 0.000000 0.000000 0.000000 0.021921
#
#
# Mechanical properties :
#
#
# Convention : Reuss Voigt Hill
#
# Bulk Modulus (GPa) = 44.65216 85.09358 64.87287
# Shear Modulus (GPa) = 28.93946 37.15809 33.04878
#
# Velocity S-wave (km/s) = 3.92639 4.44913 4.19591
# Velocity P-wave (km/s) = 6.65900 8.46899 7.61794
#
# Compressibility (1/GPa) = 0.02239534
#
# Stress axis : x y z
#
# Youngs Moduli (GPa) = 132.73640 113.94086 30.20242
#
# Poissons Ratio (x) = 0.30049 0.17059
# Poissons Ratio (y) = 0.35006 0.15786
# Poissons Ratio (z) = 0.74973 0.59555
#
# Static dielectric constant tensor:
#      x y z
#    x 1.674590 0.000000 0.000000 
#    y 0.000000 1.625670 0.000000 
#    z 0.000000 0.000000 1.717150 
# 
# From -- ./inp_files/31457.got.cif
#   From: 2010.05.17/outbox.ucp.g08.bks.cvg/sg42_16_cif.got.tgz:31457.got - 2010.06.11 16:29:10.
