data_PCOD9370241
_publ_section_title
;
Structure prediction by ZEFSAII (Michael W. Deem and Ramdas Pophale) SiO2 
 PCOD9370241
Probable space group: F D D 2
;
_chemical_formula_sum "Si O2"
_cell_formula_units_Z 88
_cell_length_a 8.938624
_cell_length_b 26.840623
_cell_length_c 18.328742
_cell_angle_alpha 90.000000
_cell_angle_beta 90.000000
_cell_angle_gamma 90.000000
_cell_volume 4397.399466
_symmetry_space_group_name_H-M "F D D 2"
_symmetry_group_IT_number 43
_symmetry_cell_setting 'orthorhombic'
loop_
_space_group_symop_operation_xyz
x,y,z
-x,-y,z
1/4-x,1/4+y,1/4+z
1/4+x,1/4-y,1/4+z
x,1/2+y,1/2+z
-x,1/2-y,1/2+z
1/4-x,3/4+y,3/4+z
1/4+x,3/4-y,3/4+z
1/2+x,y,1/2+z
1/2-x,-y,1/2+z
3/4-x,1/4+y,3/4+z
3/4+x,1/4-y,3/4+z
1/2+x,1/2+y,z
1/2-x,1/2-y,z
3/4-x,3/4+y,1/4+z
3/4+x,3/4-y,1/4+z
loop_
_atom_site_type_symbol
_atom_site_label
_atom_site_fract_x
_atom_site_fract_y
_atom_site_fract_z
Si Si1 0.039383 0.163475 0.345560
Si Si2 0.754313 0.469742 0.431532
Si Si3 0.500000 0.000000 0.549247
Si Si4 0.483616 0.390217 0.682421
Si Si5 0.276578 0.164725 0.096730
Si Si6 0.964985 0.171155 0.179115
O O1 0.159067 0.208239 0.343009
O O2 0.981183 0.154651 0.263202
O O3 0.121237 0.115923 0.379697
O O4 0.893300 0.172809 0.394545
O O5 0.874483 0.474876 0.497378
O O6 0.672511 0.417051 0.441090
O O7 0.856698 0.459868 0.359950
O O8 0.666617 0.521026 0.428014
O O9 0.627637 0.381550 0.630756
O O10 0.517395 0.408125 0.763406
O O11 0.132355 0.171810 0.146303
#
# Coordination Sequence:
#
# PCOD9370241 Si02
#       6
#    16  16   8  16  16  16
#     4  11  22  37  60  91 116 158 198 257 294 359
#     4   9  18  36  63  79 114 163 198 232 292 375
#     4  10  18  42  62  84 118 174 206 224 308 392
#     4  10  21  35  59  86 122 147 194 255 301 332
#     4  10  18  37  60  85 113 160 194 241 286 367
#     4  11  20  39  64  83 117 164 207 228 303 369
#
# _framework density 20.011827
#
# number of rings (size 3 to 8) (size 9 to 14) (size 15 to 20)
#    1.091    0.727    3.636    3.273    0.000    0.727 
#    3.273    0.000   12.000    0.000    0.000    0.000 
#    0.000    0.000    0.000    0.000    0.000    0.000 
#
# Total GULP energy -122590.069256 kJ/mol
# GULP energy per Si atom -5572.275875 kJ/mol
# Density = 1.996628 g / cm^3
# Si number density = 20.011827 Si / 1000 Ang^3
#
#
#
# Elastic Constant Matrix: (Units=GPa)
#
#
# Indices 1 2 3 4 5 6 
#
# 1 45.6442 15.9045 14.8716 0.0000 0.0000 0.0000
# 2 15.9045 47.1962 7.9967 0.0000 0.0000 0.0000
# 3 14.8716 7.9967 102.9556 0.0000 0.0000 0.0000
# 4 0.0000 0.0000 0.0000 26.5674 0.0000 0.0000
# 5 0.0000 0.0000 0.0000 0.0000 -170.3260 0.0000
# 6 0.0000 0.0000 0.0000 0.0000 0.0000 32.3473
#
#
#
# Elastic Compliance Matrix: (Units=1/GPa)
#
#
# Indices 1 2 3 4 5 6 
#
# 1 0.025756 -0.008157 -0.003087 0.000000 0.000000 0.000000
# 2 -0.008157 0.024054 -0.000690 0.000000 0.000000 0.000000
# 3 -0.003087 -0.000690 0.010212 0.000000 0.000000 0.000000
# 4 0.000000 0.000000 0.000000 0.037640 0.000000 0.000000
# 5 0.000000 0.000000 0.000000 0.000000 -0.005871 0.000000
# 6 0.000000 0.000000 0.000000 0.000000 0.000000 0.030914
#
#
# Mechanical properties :
#
#
# Convention : Reuss Voigt Hill
#
# Bulk Modulus (GPa) = 27.65831 30.37127 29.01479
# Shear Modulus (GPa) = 31.52088 -11.81404 9.85342
#
# Velocity S-wave (km/s) = 3.97307 -2.43235 2.22137
# Velocity P-wave (km/s) = 5.90746 2.70576 4.59452
#
# Compressibility (1/GPa) = 0.03615550
#
# Stress axis : x y z
#
# Youngs Moduli (GPa) = 38.82518 41.57364 97.92000
#
# Poissons Ratio (x) = 0.33910 0.30227
# Poissons Ratio (y) = 0.31668 0.06757
# Poissons Ratio (z) = 0.11985 0.02869
#
# Static dielectric constant tensor:
#      x y z
#    x 1.741280 0.000000 0.000000 
#    y 0.000000 1.747020 0.000000 
#    z 0.000000 0.000000 1.670610 
# 
# From -- ./inp_files/12876.got.cif
#   From: 2010.05.17/outbox.cif.g08.bks.cpg/sg43_7_cif.got.tgz:12876.got - 2010.06.03 19:21:55.
