data_PCOD9370654
_publ_section_title
;
Structure prediction by ZEFSAII (Michael W. Deem and Ramdas Pophale) SiO2 
 PCOD9370654
Probable space group: F D D 2
;
_chemical_formula_sum "Si O2"
_cell_formula_units_Z 120
_cell_length_a 20.808714
_cell_length_b 11.451248
_cell_length_c 26.558424
_cell_angle_alpha 90.000000
_cell_angle_beta 90.000000
_cell_angle_gamma 90.000000
_cell_volume 6328.493838
_symmetry_space_group_name_H-M "F D D 2"
_symmetry_group_IT_number 43
_symmetry_cell_setting 'orthorhombic'
loop_
_space_group_symop_operation_xyz
x,y,z
-x,-y,z
1/4-x,1/4+y,1/4+z
1/4+x,1/4-y,1/4+z
x,1/2+y,1/2+z
-x,1/2-y,1/2+z
1/4-x,3/4+y,3/4+z
1/4+x,3/4-y,3/4+z
1/2+x,y,1/2+z
1/2-x,-y,1/2+z
3/4-x,1/4+y,3/4+z
3/4+x,1/4-y,3/4+z
1/2+x,1/2+y,z
1/2-x,1/2-y,z
3/4-x,3/4+y,1/4+z
3/4+x,3/4-y,1/4+z
loop_
_atom_site_type_symbol
_atom_site_label
_atom_site_fract_x
_atom_site_fract_y
_atom_site_fract_z
Si Si1 0.000000 0.500000 0.625000
Si Si2 0.470991 0.129627 0.171747
Si Si3 0.925713 0.720815 0.797180
Si Si4 0.576366 0.834341 0.688178
Si Si5 0.427816 0.784068 0.581988
Si Si6 0.205171 0.636974 0.535685
Si Si7 0.051872 0.896731 0.505038
Si Si8 0.435781 0.564820 0.391941
O O1 0.945407 0.551106 0.660393
O O2 0.972032 0.392824 0.595062
O O3 0.528354 0.223555 0.180454
O O4 0.429034 0.189362 0.127819
O O5 0.437253 0.123256 0.226334
O O6 0.500000 0.000000 0.159824
O O7 0.923147 0.640447 0.747501
O O8 0.870242 0.812287 0.779457
O O9 0.911332 0.650349 0.848158
O O10 0.996040 0.781842 0.800618
O O11 0.639759 0.788246 0.661234
O O12 0.358134 0.835394 0.567706
O O13 0.462081 0.717927 0.536103
O O14 0.250000 0.750000 0.539037
O O15 0.054409 0.870656 0.445592
O O16 0.000000 0.000000 0.512263
O O17 0.500000 0.500000 0.374003
#
# Coordination Sequence:
#
# PCOD9370654 Si02
#       8
#     8  16  16  16  16  16  16  16
#     4  10  24  40  58  84 124 162 200 236 288 382
#     4   9  20  36  64  87 110 157 206 245 287 350
#     4  10  21  38  64  86 117 156 194 252 303 344
#     4   9  21  40  58  88 115 153 203 239 286 366
#     4  11  22  38  61  85 122 157 197 246 302 348
#     4  10  20  38  58  91 120 148 198 249 292 357
#     4  10  22  39  60  91 117 149 205 250 291 353
#     4  10  23  38  59  89 118 152 193 252 304 346
#
# _framework density 18.961859
#
# number of rings (size 3 to 8) (size 9 to 14) (size 15 to 20)
#    0.000    2.133    1.333    0.400   10.267    0.000 
#    0.000    1.333    0.000    0.000    0.000    0.000 
#    0.000    0.000    0.000    0.000    0.000    0.000 
#
# Total GULP energy -167140.129084 kJ/mol
# GULP energy per Si atom -5571.337636 kJ/mol
# Density = 1.891870 g / cm^3
# Si number density = 18.961859 Si / 1000 Ang^3
#
#
#
# Elastic Constant Matrix: (Units=GPa)
#
#
# Indices 1 2 3 4 5 6 
#
# 1 49.6217 2.2925 34.5301 0.0000 0.0000 0.0000
# 2 2.2925 73.1873 58.2534 0.0000 0.0000 0.0000
# 3 34.5301 58.2534 123.8466 0.0000 0.0000 0.0000
# 4 0.0000 0.0000 0.0000 222.5068 0.0000 0.0000
# 5 0.0000 0.0000 0.0000 0.0000 26.2083 0.0000
# 6 0.0000 0.0000 0.0000 0.0000 0.0000 12.8801
#
#
#
# Elastic Compliance Matrix: (Units=1/GPa)
#
#
# Indices 1 2 3 4 5 6 
#
# 1 0.027976 0.008523 -0.011809 0.000000 0.000000 0.000000
# 2 0.008523 0.024437 -0.013871 0.000000 0.000000 0.000000
# 3 -0.011809 -0.013871 0.017891 0.000000 0.000000 0.000000
# 4 0.000000 0.000000 0.000000 0.004494 0.000000 0.000000
# 5 0.000000 0.000000 0.000000 0.000000 0.038156 0.000000
# 6 0.000000 0.000000 0.000000 0.000000 0.000000 0.077639
#
#
# Mechanical properties :
#
#
# Convention : Reuss Voigt Hill
#
# Bulk Modulus (GPa) = 27.78453 48.53419 38.15936
# Shear Modulus (GPa) = 21.10553 62.42435 41.76494
#
# Velocity S-wave (km/s) = 3.33986 5.74391 4.69825
# Velocity P-wave (km/s) = 5.43669 8.34513 7.04268
#
# Compressibility (1/GPa) = 0.03599125
#
# Stress axis : x y z
#
# Youngs Moduli (GPa) = 35.74448 40.92153 55.89269
#
# Poissons Ratio (x) = -0.34878 0.66005
# Poissons Ratio (y) = -0.30466 0.77527
# Poissons Ratio (z) = 0.42211 0.56761
#
# Static dielectric constant tensor:
#      x y z
#    x 1.700700 0.000000 0.000000 
#    y 0.000000 1.678210 0.000000 
#    z 0.000000 0.000000 1.699980 
# 
# From -- ./inp_files/25260.got.cif
#   From: 2010.05.17/outbox.cif.g08.bks.cpg/sg43_13_cif.got.tgz:25260.got - 2010.06.03 19:21:55.
