data_PCOD9370700
_publ_section_title
;
Structure prediction by ZEFSAII (Michael W. Deem and Ramdas Pophale) SiO2 
 PCOD9370700
Probable space group: F D D 2
;
_chemical_formula_sum "Si O2"
_cell_formula_units_Z 96
_cell_length_a 13.293171
_cell_length_b 20.332859
_cell_length_c 15.007003
_cell_angle_alpha 90.000000
_cell_angle_beta 90.000000
_cell_angle_gamma 90.000000
_cell_volume 4056.215402
_symmetry_space_group_name_H-M "F D D 2"
_symmetry_group_IT_number 43
_symmetry_cell_setting 'orthorhombic'
loop_
_space_group_symop_operation_xyz
x,y,z
-x,-y,z
1/4-x,1/4+y,1/4+z
1/4+x,1/4-y,1/4+z
x,1/2+y,1/2+z
-x,1/2-y,1/2+z
1/4-x,3/4+y,3/4+z
1/4+x,3/4-y,3/4+z
1/2+x,y,1/2+z
1/2-x,-y,1/2+z
3/4-x,1/4+y,3/4+z
3/4+x,1/4-y,3/4+z
1/2+x,1/2+y,z
1/2-x,1/2-y,z
3/4-x,3/4+y,1/4+z
3/4+x,3/4-y,1/4+z
loop_
_atom_site_type_symbol
_atom_site_label
_atom_site_fract_x
_atom_site_fract_y
_atom_site_fract_z
Si Si1 0.193079 0.185888 0.234620
Si Si2 0.552829 0.785794 0.931803
Si Si3 0.873078 0.346544 0.440694
Si Si4 0.781618 0.951118 0.476495
Si Si5 0.666504 0.197078 0.949120
Si Si6 0.665043 0.912273 0.983795
O O1 0.250000 0.250000 0.200796
O O2 0.267760 0.126129 0.214980
O O3 0.081776 0.187250 0.193734
O O4 0.179599 0.192479 0.341311
O O5 0.626345 0.729791 0.968210
O O6 0.528066 0.773413 0.828283
O O7 0.444448 0.780466 0.976293
O O8 0.602335 0.856815 0.933438
O O9 0.868928 0.344691 0.333196
O O10 0.782231 0.389007 0.480740
O O11 0.828534 0.879320 0.475866
O O12 0.838524 0.015254 0.438939
O O13 0.750000 0.250000 0.980108
#
# Coordination Sequence:
#
# PCOD9370700 Si02
#       6
#    16  16  16  16  16  16
#     4  10  20  38  65  95 123 160 216 275 331 381
#     4  10  24  43  61  94 132 174 215 265 334 394
#     4  11  24  42  69  95 133 168 221 281 331 388
#     4  10  22  42  64  92 130 168 215 273 326 392
#     4  10  22  41  67  91 129 170 214 269 326 394
#     4  11  25  43  65  96 132 177 215 274 332 401
#
# _framework density 23.667383000000001
#
# number of rings (size 3 to 8) (size 9 to 14) (size 15 to 20)
#    0.000    1.667    1.667    1.500    7.000    3.333 
#    6.000    0.000    0.000    0.000    0.000    0.000 
#    0.000    0.000    0.000    0.000    0.000    0.000 
#
# Total GULP energy -133964.687653 kJ/mol
# GULP energy per Si atom -5581.861986 kJ/mol
# Density = 2.361351 g / cm^3
# Si number density = 23.667383 Si / 1000 Ang^3
#
#
#
# Elastic Constant Matrix: (Units=GPa)
#
#
# Indices 1 2 3 4 5 6 
#
# 1 58.1338 26.4460 -9.3828 0.0000 0.0000 0.0000
# 2 26.4460 158.1125 -6.6529 0.0000 0.0000 0.0000
# 3 -9.3828 -6.6529 41.7310 0.0000 0.0000 0.0000
# 4 0.0000 0.0000 0.0000 18.3301 0.0000 0.0000
# 5 0.0000 0.0000 0.0000 0.0000 23.7281 0.0000
# 6 0.0000 0.0000 0.0000 0.0000 0.0000 42.7327
#
#
#
# Elastic Compliance Matrix: (Units=1/GPa)
#
#
# Indices 1 2 3 4 5 6 
#
# 1 0.019208 -0.003052 0.003832 0.000000 0.000000 0.000000
# 2 -0.003052 0.006852 0.000406 0.000000 0.000000 0.000000
# 3 0.003832 0.000406 0.024889 0.000000 0.000000 0.000000
# 4 0.000000 0.000000 0.000000 0.054555 0.000000 0.000000
# 5 0.000000 0.000000 0.000000 0.000000 0.042144 0.000000
# 6 0.000000 0.000000 0.000000 0.000000 0.000000 0.023401
#
#
# Mechanical properties :
#
#
# Convention : Reuss Voigt Hill
#
# Bulk Modulus (GPa) = 18.75328 30.97756 24.86542
# Shear Modulus (GPa) = 26.81668 33.46265 30.13967
#
# Velocity S-wave (km/s) = 3.36975 3.76423 3.57244
# Velocity P-wave (km/s) = 4.80429 5.65771 5.24838
#
# Compressibility (1/GPa) = 0.05332402
#
# Stress axis : x y z
#
# Youngs Moduli (GPa) = 52.06049 145.94041 40.17771
#
# Poissons Ratio (x) = 0.44535 -0.15397
# Poissons Ratio (y) = 0.15887 -0.01632
# Poissons Ratio (z) = -0.19951 -0.05929
#
# Static dielectric constant tensor:
#      x y z
#    x 1.929520 0.000000 0.000000 
#    y 0.000000 1.965910 0.000000 
#    z 0.000000 0.000000 1.928740 
# 
# From -- ./inp_files/10909.got.cif
#   From: 2010.05.17/outbox.cif.g08.bks.cpg/sg43_6_cif.got.tgz:10909.got - 2010.06.03 19:21:55.
