data_PCOD9370869
_publ_section_title
;
Structure prediction by ZEFSAII (Michael W. Deem and Ramdas Pophale) SiO2 
 PCOD9370869
Probable space group: F D D 2
;
_chemical_formula_sum "Si O2"
_cell_formula_units_Z 120
_cell_length_a 13.024442
_cell_length_b 24.761465
_cell_length_c 18.971081
_cell_angle_alpha 90.000000
_cell_angle_beta 90.000000
_cell_angle_gamma 90.000000
_cell_volume 6118.254529
_symmetry_space_group_name_H-M "F D D 2"
_symmetry_group_IT_number 43
_symmetry_cell_setting 'orthorhombic'
loop_
_space_group_symop_operation_xyz
x,y,z
-x,-y,z
1/4-x,1/4+y,1/4+z
1/4+x,1/4-y,1/4+z
x,1/2+y,1/2+z
-x,1/2-y,1/2+z
1/4-x,3/4+y,3/4+z
1/4+x,3/4-y,3/4+z
1/2+x,y,1/2+z
1/2-x,-y,1/2+z
3/4-x,1/4+y,3/4+z
3/4+x,1/4-y,3/4+z
1/2+x,1/2+y,z
1/2-x,1/2-y,z
3/4-x,3/4+y,1/4+z
3/4+x,3/4-y,1/4+z
loop_
_atom_site_type_symbol
_atom_site_label
_atom_site_fract_x
_atom_site_fract_y
_atom_site_fract_z
Si Si1 0.500000 0.000000 0.644030
Si Si2 0.690191 0.983720 0.002423
Si Si3 0.300922 0.525079 0.217650
Si Si4 0.130843 0.588665 0.564928
Si Si5 0.090310 0.457329 0.851922
Si Si6 0.688543 0.585400 0.592473
Si Si7 0.227923 0.902364 0.694870
Si Si8 0.035333 0.945682 0.622162
O O1 0.416890 0.031503 0.689692
O O2 0.564655 0.041295 0.598835
O O3 0.782732 0.942113 0.018128
O O4 0.601138 0.968534 0.057645
O O5 0.719955 0.045106 0.027889
O O6 0.639771 0.973667 0.926912
O O7 0.313788 0.541153 0.298053
O O8 0.231093 0.558644 0.164278
O O9 0.267397 0.462759 0.211859
O O10 0.049259 0.621371 0.517045
O O11 0.194059 0.616361 0.631276
O O12 0.036963 0.398564 0.844211
O O13 0.000000 0.500000 0.836522
O O14 0.565456 0.583964 0.596939
O O15 0.114171 0.908659 0.662819
O O16 0.000000 0.000000 0.663607
#
# Coordination Sequence:
#
# PCOD9370869 Si02
#       8
#     8  16  16  16  16  16  16  16
#     4  10  20  46  62  80 132 176 214 260 330 416
#     4  10  21  43  65  97 132 171 219 273 337 411
#     4  11  23  44  62  92 129 176 220 266 336 401
#     4  10  21  42  69  94 129 175 226 269 339 402
#     4  12  27  40  63 102 134 163 231 279 327 410
#     4  11  22  42  71  91 132 182 212 278 345 395
#     4  10  20  41  65  98 128 171 219 278 326 407
#     4   9  16  36  66  91 122 165 215 255 332 391
#
# _framework density 19.613437000000001
#
# number of rings (size 3 to 8) (size 9 to 14) (size 15 to 20)
#    0.000    1.600    6.000    2.000    3.733    1.067 
#    4.800    0.000    0.000    0.000    0.000    0.000 
#    0.000    0.000    0.000    0.000    0.000    0.000 
#
# Total GULP energy -167040.555060 kJ/mol
# GULP energy per Si atom -5568.018502 kJ/mol
# Density = 1.956880 g / cm^3
# Si number density = 19.613437 Si / 1000 Ang^3
#
#
#
# Elastic Constant Matrix: (Units=GPa)
#
#
# Indices 1 2 3 4 5 6 
#
# 1 70.4698 13.3995 8.8010 0.0000 0.0000 0.0000
# 2 13.3995 99.0615 40.2435 0.0000 0.0000 0.0000
# 3 8.8010 40.2435 102.3260 0.0000 0.0000 0.0000
# 4 0.0000 0.0000 0.0000 5.3096 0.0000 0.0000
# 5 0.0000 0.0000 0.0000 0.0000 20.4405 0.0000
# 6 0.0000 0.0000 0.0000 0.0000 0.0000 18.9526
#
#
#
# Elastic Compliance Matrix: (Units=1/GPa)
#
#
# Indices 1 2 3 4 5 6 
#
# 1 0.014593 -0.001742 -0.000570 0.000000 0.000000 0.000000
# 2 -0.001742 0.012222 -0.004657 0.000000 0.000000 0.000000
# 3 -0.000570 -0.004657 0.011653 0.000000 0.000000 0.000000
# 4 0.000000 0.000000 0.000000 0.188338 0.000000 0.000000
# 5 0.000000 0.000000 0.000000 0.000000 0.048923 0.000000
# 6 0.000000 0.000000 0.000000 0.000000 0.000000 0.052763
#
#
# Mechanical properties :
#
#
# Convention : Reuss Voigt Hill
#
# Bulk Modulus (GPa) = 40.76650 44.08281 42.42465
# Shear Modulus (GPa) = 14.26095 22.90142 18.58118
#
# Velocity S-wave (km/s) = 2.69941 3.42078 3.08128
# Velocity P-wave (km/s) = 5.52683 6.17470 5.85973
#
# Compressibility (1/GPa) = 0.02452995
#
# Stress axis : x y z
#
# Youngs Moduli (GPa) = 68.52625 81.81748 85.81302
#
# Poissons Ratio (x) = 0.14256 0.04890
# Poissons Ratio (y) = 0.11940 0.39963
# Poissons Ratio (z) = 0.03905 0.38103
#
# Static dielectric constant tensor:
#      x y z
#    x 1.697860 0.000000 0.000000 
#    y 0.000000 1.741200 0.000000 
#    z 0.000000 0.000000 1.734340 
# 
# From -- ./inp_files/17733.got.cif
#   From: 2010.05.17/outbox.cif.g08.bks.cpg/sg43_9_cif.got.tgz:17733.got - 2010.06.03 19:21:55.
