data_PCOD9370699
_publ_section_title
;
Structure prediction by ZEFSAII (Michael W. Deem and Ramdas Pophale) SiO2 
 PCOD9370699
Probable space group: F D D 2
;
_chemical_formula_sum "Si O2"
_cell_formula_units_Z 104
_cell_length_a 18.379520
_cell_length_b 8.985499
_cell_length_c 29.480805
_cell_angle_alpha 90.000000
_cell_angle_beta 90.000000
_cell_angle_gamma 90.000000
_cell_volume 4868.730140
_symmetry_space_group_name_H-M "F D D 2"
_symmetry_group_IT_number 43
_symmetry_cell_setting 'orthorhombic'
loop_
_space_group_symop_operation_xyz
x,y,z
-x,-y,z
1/4-x,1/4+y,1/4+z
1/4+x,1/4-y,1/4+z
x,1/2+y,1/2+z
-x,1/2-y,1/2+z
1/4-x,3/4+y,3/4+z
1/4+x,3/4-y,3/4+z
1/2+x,y,1/2+z
1/2-x,-y,1/2+z
3/4-x,1/4+y,3/4+z
3/4+x,1/4-y,3/4+z
1/2+x,1/2+y,z
1/2-x,1/2-y,z
3/4-x,3/4+y,1/4+z
3/4+x,3/4-y,1/4+z
loop_
_atom_site_type_symbol
_atom_site_label
_atom_site_fract_x
_atom_site_fract_y
_atom_site_fract_z
Si Si1 0.076458 0.683013 0.824720
Si Si2 0.689785 0.920608 0.808455
Si Si3 0.388722 0.899050 0.962041
Si Si4 0.969001 0.851884 0.765149
Si Si5 0.155170 0.101904 0.841636
Si Si6 0.827537 0.661359 0.397384
Si Si7 0.750000 0.750000 0.641941
O O1 0.126069 0.540750 0.813942
O O2 0.128537 0.788899 0.852714
O O3 0.010966 0.637582 0.858537
O O4 0.037178 0.758652 0.783345
O O5 0.688006 0.873448 0.756075
O O6 0.771663 0.968948 0.819118
O O7 0.671121 0.779300 0.840306
O O8 0.365859 0.741529 0.940143
O O9 0.430198 0.992528 0.923788
O O10 0.322436 0.994736 0.980899
O O11 0.915223 0.902821 0.807422
O O12 0.000000 0.000000 0.743240
O O13 0.159980 0.016637 0.890433
O O14 0.750000 0.750000 0.395708
#
# Coordination Sequence:
#
# PCOD9370699 Si02
#       7
#    16  16  16  16  16  16   8
#     4  11  22  39  69  91 124 174 224 261 327 396
#     4  10  21  40  68  96 118 178 225 272 319 407
#     4  10  23  37  63  91 133 163 209 271 339 378
#     4  11  22  40  67  97 127 172 224 278 319 408
#     4  10  20  38  65  93 126 165 229 269 320 395
#     4  11  22  39  60  93 131 167 207 279 334 387
#     4  10  20  40  60  92 122 162 202 262 324 392
#
# _framework density 21.360804999999999
#
# number of rings (size 3 to 8) (size 9 to 14) (size 15 to 20)
#    0.000    1.538    3.077    3.692    2.154    0.000 
#    0.000    4.615    0.000    1.846    0.000    0.000 
#    0.000    0.000    0.000    0.000    0.000    0.000 
#
# Total GULP energy -144853.501072 kJ/mol
# GULP energy per Si atom -5571.288503 kJ/mol
# Density = 2.131219 g / cm^3
# Si number density = 21.360805 Si / 1000 Ang^3
#
#
#
# Elastic Constant Matrix: (Units=GPa)
#
#
# Indices 1 2 3 4 5 6 
#
# 1 75.5108 29.2338 9.0810 0.0000 0.0000 0.0000
# 2 29.2338 100.2319 41.6736 0.0000 0.0000 0.0000
# 3 9.0810 41.6736 53.3976 0.0000 0.0000 0.0000
# 4 0.0000 0.0000 0.0000 33.3592 0.0000 0.0000
# 5 0.0000 0.0000 0.0000 0.0000 9.2233 0.0000
# 6 0.0000 0.0000 0.0000 0.0000 0.0000 37.0619
#
#
#
# Elastic Compliance Matrix: (Units=1/GPa)
#
#
# Indices 1 2 3 4 5 6 
#
# 1 0.014987 -0.004902 0.001277 0.000000 0.000000 0.000000
# 2 -0.004902 0.016373 -0.011944 0.000000 0.000000 0.000000
# 3 0.001277 -0.011944 0.027832 0.000000 0.000000 0.000000
# 4 0.000000 0.000000 0.000000 0.029977 0.000000 0.000000
# 5 0.000000 0.000000 0.000000 0.000000 0.108422 0.000000
# 6 0.000000 0.000000 0.000000 0.000000 0.000000 0.026982
#
#
# Mechanical properties :
#
#
# Convention : Reuss Voigt Hill
#
# Bulk Modulus (GPa) = 35.64633 43.23522 39.44078
# Shear Modulus (GPa) = 18.86350 25.87233 22.36792
#
# Velocity S-wave (km/s) = 2.97491 3.48401 3.23948
# Velocity P-wave (km/s) = 5.34079 6.03894 5.70057
#
# Compressibility (1/GPa) = 0.02805338
#
# Stress axis : x y z
#
# Youngs Moduli (GPa) = 66.72253 61.07724 35.92994
#
# Poissons Ratio (x) = 0.29941 -0.04588
# Poissons Ratio (y) = 0.32709 0.42915
# Poissons Ratio (z) = -0.08521 0.72952
#
# Static dielectric constant tensor:
#      x y z
#    x 1.822440 0.000000 0.000000 
#    y 0.000000 1.977440 0.000000 
#    z 0.000000 0.000000 1.759150 
# 
# From -- ./inp_files/26370.got.cif
#   From: 2010.05.17/outbox.cif.g08.bks.cpg/sg43_14_cif.got.tgz:26370.got - 2010.06.03 19:21:55.
