data_PCOD9370506
_publ_section_title
;
Structure prediction by ZEFSAII (Michael W. Deem and Ramdas Pophale) SiO2 
 PCOD9370506
Probable space group: F D D 2
;
_chemical_formula_sum "Si O2"
_cell_formula_units_Z 80
_cell_length_a 13.109547
_cell_length_b 12.163889
_cell_length_c 22.503954
_cell_angle_alpha 90.000000
_cell_angle_beta 90.000000
_cell_angle_gamma 90.000000
_cell_volume 3588.549694
_symmetry_space_group_name_H-M "F D D 2"
_symmetry_group_IT_number 43
_symmetry_cell_setting 'orthorhombic'
loop_
_space_group_symop_operation_xyz
x,y,z
-x,-y,z
1/4-x,1/4+y,1/4+z
1/4+x,1/4-y,1/4+z
x,1/2+y,1/2+z
-x,1/2-y,1/2+z
1/4-x,3/4+y,3/4+z
1/4+x,3/4-y,3/4+z
1/2+x,y,1/2+z
1/2-x,-y,1/2+z
3/4-x,1/4+y,3/4+z
3/4+x,1/4-y,3/4+z
1/2+x,1/2+y,z
1/2-x,1/2-y,z
3/4-x,3/4+y,1/4+z
3/4+x,3/4-y,1/4+z
loop_
_atom_site_type_symbol
_atom_site_label
_atom_site_fract_x
_atom_site_fract_y
_atom_site_fract_z
Si Si1 0.513461 0.315932 0.610610
Si Si2 0.258170 0.061552 0.483753
Si Si3 0.667732 0.007790 0.105755
Si Si4 0.192028 0.132612 0.302496
Si Si5 0.313076 0.136300 0.674309
O O1 0.512152 0.265725 0.676667
O O2 0.608702 0.395482 0.608964
O O3 0.414468 0.392936 0.600705
O O4 0.517666 0.219616 0.561591
O O5 0.233720 0.003339 0.545856
O O6 0.367031 0.116756 0.496112
O O7 0.156109 0.131546 0.469404
O O8 0.733734 0.038943 0.163392
O O9 0.250000 0.250000 0.307362
O O10 0.118231 0.108447 0.359629
O O11 0.250000 0.250000 0.686725
#
# Coordination Sequence:
#
# PCOD9370506 Si02
#       5
#    16  16  16  16  16
#     4  10  22  43  64 103 139 169 237 291 345 428
#     4  10  22  41  67 100 133 190 228 275 369 411
#     4  10  21  40  71 102 133 180 226 298 348 414
#     4  10  22  45  62  97 142 182 232 288 343 434
#     4  10  19  42  68 100 138 173 237 285 338 436
#
# _framework density 22.293129
#
# number of rings (size 3 to 8) (size 9 to 14) (size 15 to 20)
#    0.000    2.000    4.000    0.000    2.800    0.000 
#   25.200    7.000    0.000    0.000    0.000    0.000 
#    0.000    0.000    0.000    0.000    0.000    0.000 
#
# Total GULP energy -111568.631482 kJ/mol
# GULP energy per Si atom -5578.431574 kJ/mol
# Density = 2.224239 g / cm^3
# Si number density = 22.293129 Si / 1000 Ang^3
#
#
#
# Elastic Constant Matrix: (Units=GPa)
#
#
# Indices 1 2 3 4 5 6 
#
# 1 94.8501 74.7372 31.1944 0.0000 0.0000 0.0000
# 2 74.7372 164.3415 43.6760 0.0000 0.0000 0.0000
# 3 31.1944 43.6760 97.2885 0.0000 0.0000 0.0000
# 4 0.0000 0.0000 0.0000 24.0257 0.0000 0.0000
# 5 0.0000 0.0000 0.0000 0.0000 39.0871 0.0000
# 6 0.0000 0.0000 0.0000 0.0000 0.0000 31.8235
#
#
#
# Elastic Compliance Matrix: (Units=1/GPa)
#
#
# Indices 1 2 3 4 5 6 
#
# 1 0.016845 -0.007069 -0.002228 0.000000 0.000000 0.000000
# 2 -0.007069 0.009875 -0.002167 0.000000 0.000000 0.000000
# 3 -0.002228 -0.002167 0.011966 0.000000 0.000000 0.000000
# 4 0.000000 0.000000 0.000000 0.041622 0.000000 0.000000
# 5 0.000000 0.000000 0.000000 0.000000 0.025584 0.000000
# 6 0.000000 0.000000 0.000000 0.000000 0.000000 0.031423
#
#
# Mechanical properties :
#
#
# Convention : Reuss Voigt Hill
#
# Bulk Modulus (GPa) = 63.45303 72.85503 68.15403
# Shear Modulus (GPa) = 30.21217 32.77875 31.49546
#
# Velocity S-wave (km/s) = 3.68533 3.83868 3.76278
# Velocity P-wave (km/s) = 6.82889 7.23869 7.03677
#
# Compressibility (1/GPa) = 0.01575969
#
# Stress axis : x y z
#
# Youngs Moduli (GPa) = 59.36329 101.26205 83.57109
#
# Poissons Ratio (x) = 0.71579 0.18619
# Poissons Ratio (y) = 0.41962 0.18109
# Poissons Ratio (z) = 0.13226 0.21942
#
# Static dielectric constant tensor:
#      x y z
#    x 1.966540 0.000000 0.000000 
#    y 0.000000 1.878550 0.000000 
#    z 0.000000 0.000000 1.815080 
# 
# From -- ./inp_files/20954.got.cif
#   From: 2010.05.17/outbox.cif.g08.bks.cpg/sg43_11_cif.got.tgz:20954.got - 2010.06.03 19:21:55.
