data_PCOD9370782
_publ_section_title
;
Structure prediction by ZEFSAII (Michael W. Deem and Ramdas Pophale) SiO2 
 PCOD9370782
Probable space group: F D D 2
;
_chemical_formula_sum "Si O2"
_cell_formula_units_Z 128
_cell_length_a 25.049867
_cell_length_b 10.945089
_cell_length_c 24.069808
_cell_angle_alpha 90.000000
_cell_angle_beta 90.000000
_cell_angle_gamma 90.000000
_cell_volume 6599.292041
_symmetry_space_group_name_H-M "F D D 2"
_symmetry_group_IT_number 43
_symmetry_cell_setting 'orthorhombic'
loop_
_space_group_symop_operation_xyz
x,y,z
-x,-y,z
1/4-x,1/4+y,1/4+z
1/4+x,1/4-y,1/4+z
x,1/2+y,1/2+z
-x,1/2-y,1/2+z
1/4-x,3/4+y,3/4+z
1/4+x,3/4-y,3/4+z
1/2+x,y,1/2+z
1/2-x,-y,1/2+z
3/4-x,1/4+y,3/4+z
3/4+x,1/4-y,3/4+z
1/2+x,1/2+y,z
1/2-x,1/2-y,z
3/4-x,3/4+y,1/4+z
3/4+x,3/4-y,1/4+z
loop_
_atom_site_type_symbol
_atom_site_label
_atom_site_fract_x
_atom_site_fract_y
_atom_site_fract_z
Si Si1 0.193843 0.817575 0.231740
Si Si2 0.686690 0.878869 0.238536
Si Si3 0.634914 0.218099 0.653488
Si Si4 0.707875 0.364346 0.355426
Si Si5 0.477045 0.366462 0.114642
Si Si6 0.975798 0.218512 0.903102
Si Si7 0.139200 0.858057 0.462909
Si Si8 0.455503 0.391887 0.820874
O O1 0.250000 0.750000 0.238487
O O2 0.183584 0.869456 0.293373
O O3 0.147294 0.727096 0.214769
O O4 0.205793 0.912320 0.183396
O O5 0.652497 0.767920 0.213540
O O6 0.706147 0.867608 0.301202
O O7 0.737946 0.896918 0.198649
O O8 0.649083 0.996982 0.231245
O O9 0.574462 0.177349 0.649179
O O10 0.673048 0.105882 0.638769
O O11 0.654275 0.320243 0.608687
O O12 0.750000 0.250000 0.358189
O O13 0.734059 0.498196 0.365753
O O14 0.664610 0.338699 0.402848
O O15 0.500000 0.500000 0.131573
O O16 0.014827 0.221987 0.849994
O O17 0.185685 0.871823 0.508611
O O18 0.500000 0.500000 0.824111
#
# Coordination Sequence:
#
# PCOD9370782 Si02
#       8
#    16  16  16  16  16  16  16  16
#     4  11  23  39  62  91 125 169 215 259 313 396
#     4  11  20  39  67  93 117 169 219 259 310 393
#     4  10  22  37  65  90 122 166 207 261 315 378
#     4  11  25  43  64  96 133 170 217 275 328 390
#     4  12  24  42  65  98 132 165 216 274 329 384
#     4  10  20  40  61  87 125 158 215 257 308 380
#     4  12  23  37  67  94 129 167 211 267 330 380
#     4   9  20  38  63  96 121 157 215 270 311 374
#
# _framework density 19.396018999999999
#
# number of rings (size 3 to 8) (size 9 to 14) (size 15 to 20)
#    0.000    1.250    3.750    3.750    5.250    0.000 
#    0.000    0.000    0.000    0.750    0.000    0.000 
#    0.000    0.000    0.000    0.000    0.000    0.000 
#
# Total GULP energy -178606.145692 kJ/mol
# GULP energy per Si atom -5581.442053 kJ/mol
# Density = 1.935187 g / cm^3
# Si number density = 19.396019 Si / 1000 Ang^3
#
#
#
# Elastic Constant Matrix: (Units=GPa)
#
#
# Indices 1 2 3 4 5 6 
#
# 1 72.4958 35.3849 13.5747 0.0000 0.0000 0.0000
# 2 35.3849 85.8848 10.6980 0.0000 0.0000 0.0000
# 3 13.5747 10.6980 45.9517 0.0000 0.0000 0.0000
# 4 0.0000 0.0000 0.0000 22.5081 0.0000 0.0000
# 5 0.0000 0.0000 0.0000 0.0000 19.4407 0.0000
# 6 0.0000 0.0000 0.0000 0.0000 0.0000 31.8472
#
#
#
# Elastic Compliance Matrix: (Units=1/GPa)
#
#
# Indices 1 2 3 4 5 6 
#
# 1 0.017846 -0.006896 -0.003667 0.000000 0.000000 0.000000
# 2 -0.006896 0.014656 -0.001375 0.000000 0.000000 0.000000
# 3 -0.003667 -0.001375 0.023165 0.000000 0.000000 0.000000
# 4 0.000000 0.000000 0.000000 0.044428 0.000000 0.000000
# 5 0.000000 0.000000 0.000000 0.000000 0.051439 0.000000
# 6 0.000000 0.000000 0.000000 0.000000 0.000000 0.031400
#
#
# Mechanical properties :
#
#
# Convention : Reuss Voigt Hill
#
# Bulk Modulus (GPa) = 31.45389 35.96082 33.70735
# Shear Modulus (GPa) = 22.99833 24.40418 23.70126
#
# Velocity S-wave (km/s) = 3.44717 3.55097 3.49945
# Velocity P-wave (km/s) = 5.66532 5.94921 5.80900
#
# Compressibility (1/GPa) = 0.03179257
#
# Stress axis : x y z
#
# Youngs Moduli (GPa) = 56.03366 68.23160 43.16815
#
# Poissons Ratio (x) = 0.47053 0.15828
# Poissons Ratio (y) = 0.38641 0.05935
# Poissons Ratio (z) = 0.20545 0.09381
#
# Static dielectric constant tensor:
#      x y z
#    x 1.668160 0.000000 0.000000 
#    y 0.000000 1.714140 0.000000 
#    z 0.000000 0.000000 1.699490 
# 
# From -- ./inp_files/21329.got.cif
#   From: 2010.05.17/outbox.cif.g08.bks.cpg/sg43_11_cif.got.tgz:21329.got - 2010.06.03 19:21:55.
