data_PCOD9370737
_publ_section_title
;
Structure prediction by ZEFSAII (Michael W. Deem and Ramdas Pophale) SiO2 
 PCOD9370737
Probable space group: F D D 2
;
_chemical_formula_sum "Si O2"
_cell_formula_units_Z 120
_cell_length_a 14.199712
_cell_length_b 13.829768
_cell_length_c 25.933201
_cell_angle_alpha 90.000000
_cell_angle_beta 90.000000
_cell_angle_gamma 90.000000
_cell_volume 5092.728886
_symmetry_space_group_name_H-M "F D D 2"
_symmetry_group_IT_number 43
_symmetry_cell_setting 'orthorhombic'
loop_
_space_group_symop_operation_xyz
x,y,z
-x,-y,z
1/4-x,1/4+y,1/4+z
1/4+x,1/4-y,1/4+z
x,1/2+y,1/2+z
-x,1/2-y,1/2+z
1/4-x,3/4+y,3/4+z
1/4+x,3/4-y,3/4+z
1/2+x,y,1/2+z
1/2-x,-y,1/2+z
3/4-x,1/4+y,3/4+z
3/4+x,1/4-y,3/4+z
1/2+x,1/2+y,z
1/2-x,1/2-y,z
3/4-x,3/4+y,1/4+z
3/4+x,3/4-y,1/4+z
loop_
_atom_site_type_symbol
_atom_site_label
_atom_site_fract_x
_atom_site_fract_y
_atom_site_fract_z
Si Si1 0.501684 0.882441 0.616920
Si Si2 0.624173 0.399865 0.214223
Si Si3 0.448173 0.750178 0.283639
Si Si4 0.828726 0.885606 0.171994
Si Si5 0.378637 0.573775 0.640501
Si Si6 0.174084 0.389003 0.924605
Si Si7 0.152315 0.194196 0.278549
Si Si8 0.250000 0.250000 0.670701
O O1 0.553573 0.861359 0.669916
O O2 0.392906 0.856808 0.623132
O O3 0.564517 0.858356 0.567181
O O4 0.500000 0.000000 0.617248
O O5 0.579987 0.360222 0.267093
O O6 0.648740 0.507051 0.195463
O O7 0.716585 0.336822 0.206890
O O8 0.388897 0.790762 0.331459
O O9 0.434499 0.817025 0.232572
O O10 0.558220 0.743678 0.299825
O O11 0.718520 0.878665 0.160229
O O12 0.867838 0.825814 0.219630
O O13 0.393960 0.473805 0.672332
O O14 0.472526 0.637443 0.648201
O O15 0.091201 0.449648 0.895343
O O16 0.250000 0.250000 0.273306
#
# Coordination Sequence:
#
# PCOD9370737 Si02
#       8
#    16  16  16  16  16  16  16   8
#     4   9  19  37  62  91 128 170 221 281 356 420
#     4  10  20  39  63  94 129 179 223 297 353 420
#     4  11  23  43  70  97 141 184 237 301 369 438
#     4  11  21  41  66  96 140 177 236 301 361 440
#     4  11  23  44  71  99 141 192 236 298 382 430
#     4  10  24  44  70 101 138 186 245 296 358 448
#     4  11  22  38  66  99 134 189 234 287 371 439
#     4  10  20  40  68  90 134 178 226 290 350 416
#
# _framework density 23.563005
#
# number of rings (size 3 to 8) (size 9 to 14) (size 15 to 20)
#    0.000    1.600    2.667    3.200    0.000    4.267 
#    4.800    0.000    8.800    0.000    0.000    0.000 
#    0.000    0.000    0.000    0.000    0.000    0.000 
#
# Total GULP energy -167055.294651 kJ/mol
# GULP energy per Si atom -5568.509822 kJ/mol
# Density = 2.350937 g / cm^3
# Si number density = 23.563005 Si / 1000 Ang^3
#
#
#
# Elastic Constant Matrix: (Units=GPa)
#
#
# Indices 1 2 3 4 5 6 
#
# 1 170.7464 17.3587 34.8228 0.0000 0.0000 0.0000
# 2 17.3587 40.6456 1.1629 0.0000 0.0000 0.0000
# 3 34.8228 1.1629 105.8029 0.0000 0.0000 0.0000
# 4 0.0000 0.0000 0.0000 52.8474 0.0000 0.0000
# 5 0.0000 0.0000 0.0000 0.0000 41.4116 0.0000
# 6 0.0000 0.0000 0.0000 0.0000 0.0000 41.3005
#
#
#
# Elastic Compliance Matrix: (Units=1/GPa)
#
#
# Indices 1 2 3 4 5 6 
#
# 1 0.006571 -0.002745 -0.002132 0.000000 0.000000 0.000000
# 2 -0.002745 0.025758 0.000620 0.000000 0.000000 0.000000
# 3 -0.002132 0.000620 0.010147 0.000000 0.000000 0.000000
# 4 0.000000 0.000000 0.000000 0.018922 0.000000 0.000000
# 5 0.000000 0.000000 0.000000 0.000000 0.024148 0.000000
# 6 0.000000 0.000000 0.000000 0.000000 0.000000 0.024213
#
#
# Mechanical properties :
#
#
# Convention : Reuss Voigt Hill
#
# Bulk Modulus (GPa) = 29.44604 47.09820 38.27212
# Shear Modulus (GPa) = 38.58259 44.70195 41.64227
#
# Velocity S-wave (km/s) = 4.05090 4.36032 4.20846
# Velocity P-wave (km/s) = 5.86545 6.73658 6.31605
#
# Compressibility (1/GPa) = 0.03396042
#
# Stress axis : x y z
#
# Youngs Moduli (GPa) = 152.19279 38.82355 98.55565
#
# Poissons Ratio (x) = 0.10658 0.21016
# Poissons Ratio (y) = 0.41779 -0.06114
# Poissons Ratio (z) = 0.32454 -0.02409
#
# Static dielectric constant tensor:
#      x y z
#    x 1.990120 0.000000 0.000000 
#    y 0.000000 1.925430 0.000000 
#    z 0.000000 0.000000 1.982780 
# 
# From -- ./inp_files/21818.got.cif
#   From: 2010.05.17/outbox.cif.g08.bks.cpg/sg43_11_cif.got.tgz:21818.got - 2010.06.03 19:21:55.
