data_PCOD9370005
_publ_section_title
;
Structure prediction by ZEFSAII (Michael W. Deem and Ramdas Pophale) SiO2 
 PCOD9370005
Probable space group: F M M 2
;
_chemical_formula_sum "Si O2"
_cell_formula_units_Z 20
_cell_length_a 9.000000
_cell_length_b 27.000000
_cell_length_c 18.000000
_cell_angle_alpha 90.000000
_cell_angle_beta 90.000000
_cell_angle_gamma 90.000000
_cell_volume 4374.000000
_symmetry_space_group_name_H-M "F M M 2"
_symmetry_group_IT_number 42
_symmetry_cell_setting 'orthorhombic'
loop_
_space_group_symop_operation_xyz
x,y,z
-x,-y,z
-x,y,z
x,-y,z
x,1/2+y,1/2+z
-x,1/2-y,1/2+z
-x,1/2+y,1/2+z
x,1/2-y,1/2+z
1/2+x,y,1/2+z
1/2-x,-y,1/2+z
1/2-x,y,1/2+z
1/2+x,-y,1/2+z
1/2+x,1/2+y,z
1/2-x,1/2-y,z
1/2-x,1/2+y,z
1/2+x,1/2-y,z
loop_
_atom_site_type_symbol
_atom_site_label
_atom_site_fract_x
_atom_site_fract_y
_atom_site_fract_z
Si Si1 0.179249 0.905099 0.138790
Si Si2 0.825776 0.000000 0.562018
Si Si3 0.670384 0.700544 0.813434
Si Si4 0.180673 0.907877 0.803121
Si Si5 0.826254 0.500000 0.884315
Si Si6 0.173454 0.698710 0.132308
O O1 0.246197 0.911778 0.221686
O O2 0.240100 0.851568 0.111116
O O3 0.000000 0.905263 0.140082
O O4 0.244011 0.950959 0.092223
O O5 0.821171 0.000000 0.473096
O O6 0.000000 0.000000 0.585698
O O7 0.500000 0.704091 0.835731
O O8 0.750000 0.750000 0.839874
O O9 0.725816 0.646081 0.835384
O O10 0.676879 0.700083 0.722971
O O11 0.000000 0.909037 0.796798
O O12 0.242839 0.952134 0.852183
O O13 0.000000 0.500000 0.860979
O O14 0.250000 0.750000 0.107007
O O15 0.000000 0.696395 0.110651
#
# Coordination Sequence:
#
# PCOD9370005 Si02
#       6
#    16   8  16  16   8  16
#     4  11  21  34  55  82 109 139 179 221 262 314
#     4  11  24  41  56  73 103 139 176 223 276 323
#     4   8  15  26  44  72 103 135 166 201 248 299
#     4  10  20  35  55  79 109 141 173 214 264 314
#     4  11  24  39  56  77 101 135 178 223 270 319
#     4   9  16  28  47  75 109 141 173 212 262 311
#
# _framework density 4.5724739999999997
#
# number of rings (size 3 to 8) (size 9 to 14) (size 15 to 20)
#    0.000    2.200    0.000    5.400    0.000    7.200 
#    0.000    0.000    0.000    1.200    0.000    2.800 
#    0.000    0.000    0.000    0.000    0.000    0.000 
#
# Total GULP energy -111569.311942 kJ/mol
# GULP energy per Si atom -5578.465597 kJ/mol
# Density = 0.456207 g / cm^3
# Si number density = 4.572474 Si / 1000 Ang^3
#
#
#
# Elastic Constant Matrix: (Units=GPa)
#
#
# Indices 1 2 3 4 5 6 
#
# 1 153.7218 96.8208 30.3477 0.0000 0.0000 0.0000
# 2 96.8208 218.8610 44.2531 0.0000 0.0000 0.0000
# 3 30.3477 44.2531 27.0482 0.0000 0.0000 0.0000
# 4 0.0000 0.0000 0.0000 -5.9068 0.0000 0.0000
# 5 0.0000 0.0000 0.0000 0.0000 17.4513 0.0000
# 6 0.0000 0.0000 0.0000 0.0000 0.0000 40.2562
#
#
#
# Elastic Compliance Matrix: (Units=1/GPa)
#
#
# Indices 1 2 3 4 5 6 
#
# 1 0.009571 -0.003083 -0.005695 0.000000 0.000000 0.000000
# 2 -0.003083 0.007821 -0.009337 0.000000 0.000000 0.000000
# 3 -0.005695 -0.009337 0.058637 0.000000 0.000000 0.000000
# 4 0.000000 0.000000 0.000000 -0.169296 0.000000 0.000000
# 5 0.000000 0.000000 0.000000 0.000000 0.057302 0.000000
# 6 0.000000 0.000000 0.000000 0.000000 0.000000 0.024841
#
#
# Mechanical properties :
#
#
# Convention : Reuss Voigt Hill
#
# Bulk Modulus (GPa) = 25.12600 82.49714 53.81157
# Shear Modulus (GPa) = 130.30387 25.57408 77.93898
#
# Velocity S-wave (km/s) = 8.44975 3.74339 6.53496
# Velocity P-wave (km/s) = 10.43864 7.99295 9.29657
#
# Compressibility (1/GPa) = 0.03979941
#
# Stress axis : x y z
#
# Youngs Moduli (GPa) = 104.48044 127.86694 17.05412
#
# Poissons Ratio (x) = 0.39416 0.09713
# Poissons Ratio (y) = 0.32207 0.15923
# Poissons Ratio (z) = 0.59506 1.19385
#
# Static dielectric constant tensor:
#      x y z
#    x 1.619350 0.000000 0.000000 
#    y 0.000000 1.647340 0.000000 
#    z 0.000000 0.000000 1.601050 
# 
# From -- ./inp_files/18245.got.cif
#   From: 2010.05.17/outbox.ucp.g08.bks.cvg/sg42_10_cif.got.tgz:18245.got - 2010.06.11 16:29:10.
