data_PCOD9370623
_publ_section_title
;
Structure prediction by ZEFSAII (Michael W. Deem and Ramdas Pophale) SiO2 
 PCOD9370623
Probable space group: F D D 2
;
_chemical_formula_sum "Si O2"
_cell_formula_units_Z 112
_cell_length_a 13.512447
_cell_length_b 31.335066
_cell_length_c 12.007557
_cell_angle_alpha 90.000000
_cell_angle_beta 90.000000
_cell_angle_gamma 90.000000
_cell_volume 5084.160758
_symmetry_space_group_name_H-M "F D D 2"
_symmetry_group_IT_number 43
_symmetry_cell_setting 'orthorhombic'
loop_
_space_group_symop_operation_xyz
x,y,z
-x,-y,z
1/4-x,1/4+y,1/4+z
1/4+x,1/4-y,1/4+z
x,1/2+y,1/2+z
-x,1/2-y,1/2+z
1/4-x,3/4+y,3/4+z
1/4+x,3/4-y,3/4+z
1/2+x,y,1/2+z
1/2-x,-y,1/2+z
3/4-x,1/4+y,3/4+z
3/4+x,1/4-y,3/4+z
1/2+x,1/2+y,z
1/2-x,1/2-y,z
3/4-x,3/4+y,1/4+z
3/4+x,3/4-y,1/4+z
loop_
_atom_site_type_symbol
_atom_site_label
_atom_site_fract_x
_atom_site_fract_y
_atom_site_fract_z
Si Si1 0.491248 0.558970 0.252730
Si Si2 0.840418 0.952167 0.096134
Si Si3 0.001143 0.952628 0.901699
Si Si4 0.928038 0.865009 0.788300
Si Si5 0.987530 0.548101 0.008621
Si Si6 0.916065 0.291965 0.824498
Si Si7 0.834329 0.895696 0.564241
O O1 0.604579 0.553828 0.214176
O O2 0.463087 0.544961 0.376983
O O3 0.418444 0.536231 0.166884
O O4 0.461879 0.608576 0.240619
O O5 0.774896 0.912271 0.063052
O O6 0.780704 0.996055 0.077508
O O7 0.927668 0.956849 0.006381
O O8 0.954766 0.911895 0.838205
O O9 0.110067 0.946726 0.958378
O O10 0.000000 0.000000 0.845560
O O11 0.838727 0.831119 0.819619
O O12 0.898115 0.874606 0.661868
O O13 0.000000 0.500000 0.053928
O O14 0.093140 0.571666 0.005364
O O15 0.991667 0.328135 0.860900
#
# Coordination Sequence:
#
# PCOD9370623 Si02
#       7
#    16  16  16  16  16  16  16
#     4  10  20  38  62  86 112 148 199 248 290 341
#     4  10  20  37  61  87 113 149 198 248 293 347
#     4   9  20  39  62  86 115 151 198 250 297 348
#     4  11  22  37  58  86 122 159 193 237 296 357
#     4  11  23  39  57  85 123 160 196 240 292 352
#     4  10  20  39  63  87 113 150 198 247 294 347
#     4  11  23  37  56  85 121 157 192 238 293 352
#
# _framework density 22.029199999999999
#
# number of rings (size 3 to 8) (size 9 to 14) (size 15 to 20)
#    0.000    1.714    0.000    6.429    0.000    2.857 
#    0.000    5.714    0.000    0.000    0.000    0.000 
#    0.000    0.000    0.000    0.000    0.000    0.000 
#
# Total GULP energy -155989.700497 kJ/mol
# GULP energy per Si atom -5571.060732 kJ/mol
# Density = 2.197906 g / cm^3
# Si number density = 22.029200 Si / 1000 Ang^3
#
#
#
# Elastic Constant Matrix: (Units=GPa)
#
#
# Indices 1 2 3 4 5 6 
#
# 1 62.0219 49.9102 6.9972 0.0000 0.0000 0.0000
# 2 49.9102 173.7207 23.1571 0.0000 0.0000 0.0000
# 3 6.9972 23.1571 42.3296 0.0000 0.0000 0.0000
# 4 0.0000 0.0000 0.0000 19.1467 0.0000 0.0000
# 5 0.0000 0.0000 0.0000 0.0000 19.9076 0.0000
# 6 0.0000 0.0000 0.0000 0.0000 0.0000 31.9081
#
#
#
# Elastic Compliance Matrix: (Units=1/GPa)
#
#
# Indices 1 2 3 4 5 6 
#
# 1 0.020973 -0.006001 -0.000184 0.000000 0.000000 0.000000
# 2 -0.006001 0.007926 -0.003344 0.000000 0.000000 0.000000
# 3 -0.000184 -0.003344 0.025484 0.000000 0.000000 0.000000
# 4 0.000000 0.000000 0.000000 0.052228 0.000000 0.000000
# 5 0.000000 0.000000 0.000000 0.000000 0.050232 0.000000
# 6 0.000000 0.000000 0.000000 0.000000 0.000000 0.031340
#
#
# Mechanical properties :
#
#
# Convention : Reuss Voigt Hill
#
# Bulk Modulus (GPa) = 28.30847 48.68902 38.49875
# Shear Modulus (GPa) = 22.82923 27.39301 25.11112
#
# Velocity S-wave (km/s) = 3.22268 3.53014 3.37991
# Velocity P-wave (km/s) = 5.16971 6.22622 5.72240
#
# Compressibility (1/GPa) = 0.03532511
#
# Stress axis : x y z
#
# Youngs Moduli (GPa) = 47.67965 126.16248 39.24026
#
# Poissons Ratio (x) = 0.75712 0.00722
# Poissons Ratio (y) = 0.28613 0.13123
# Poissons Ratio (z) = 0.00877 0.42191
#
# Static dielectric constant tensor:
#      x y z
#    x 1.822610 0.000000 0.000000 
#    y 0.000000 1.927850 0.000000 
#    z 0.000000 0.000000 1.843110 
# 
# From -- ./inp_files/6319.got.cif
#   From: 2010.05.17/outbox.cif.g08.bks.cpg/sg43_4_cif.got.tgz:6319.got - 2010.06.03 19:21:55.
