data_PCOD9370300
_publ_section_title
;
Structure prediction by ZEFSAII (Michael W. Deem and Ramdas Pophale) SiO2 
 PCOD9370300
Probable space group: F D D 2
;
_chemical_formula_sum "Si O2"
_cell_formula_units_Z 88
_cell_length_a 11.476710
_cell_length_b 24.191124
_cell_length_c 11.790324
_cell_angle_alpha 90.000000
_cell_angle_beta 90.000000
_cell_angle_gamma 90.000000
_cell_volume 3273.400882
_symmetry_space_group_name_H-M "F D D 2"
_symmetry_group_IT_number 43
_symmetry_cell_setting 'orthorhombic'
loop_
_space_group_symop_operation_xyz
x,y,z
-x,-y,z
1/4-x,1/4+y,1/4+z
1/4+x,1/4-y,1/4+z
x,1/2+y,1/2+z
-x,1/2-y,1/2+z
1/4-x,3/4+y,3/4+z
1/4+x,3/4-y,3/4+z
1/2+x,y,1/2+z
1/2-x,-y,1/2+z
3/4-x,1/4+y,3/4+z
3/4+x,1/4-y,3/4+z
1/2+x,1/2+y,z
1/2-x,1/2-y,z
3/4-x,3/4+y,1/4+z
3/4+x,3/4-y,1/4+z
loop_
_atom_site_type_symbol
_atom_site_label
_atom_site_fract_x
_atom_site_fract_y
_atom_site_fract_z
Si Si1 0.289602 0.686944 0.769900
Si Si2 0.725301 0.069550 0.166141
Si Si3 0.841137 0.900266 0.424550
Si Si4 0.500000 0.000000 0.927510
Si Si5 0.517252 0.434227 0.759235
Si Si6 0.450386 0.296793 0.845356
O O1 0.250000 0.750000 0.805307
O O2 0.015052 0.888285 0.094952
O O3 0.236406 0.680433 0.643791
O O4 0.069359 0.814512 0.784838
O O5 0.820168 0.105622 0.226622
O O6 0.601204 0.089896 0.209538
O O7 0.738477 0.004386 0.177065
O O8 0.731896 0.076998 0.029928
O O9 0.924419 0.949212 0.373488
O O10 0.399245 0.027778 0.006009
O O11 0.500000 0.500000 0.736532
O O12 0.627391 0.416910 0.684600
#
# Coordination Sequence:
#
# PCOD9370300 Si02
#       6
#    16  16  16   8  16  16
#     4  11  23  41  79 125 164 199 278 365 428 490
#     4  10  21  44  73 106 161 201 277 328 414 517
#     4  11  23  46  73 115 157 207 268 347 416 508
#     4  10  22  46  86 106 160 230 280 328 432 534
#     4   9  19  42  76 111 152 215 267 338 416 515
#     4  10  18  44  80 113 152 218 273 339 426 505
#
# _framework density 26.883355999999999
#
# number of rings (size 3 to 8) (size 9 to 14) (size 15 to 20)
#    0.000    1.818    6.364    0.000    0.000    1.455 
#    4.909    5.455   16.000    0.000    0.000    0.000 
#    0.000    0.000    0.000    0.000    0.000    0.000 
#
# Total GULP energy -123066.337478 kJ/mol
# GULP energy per Si atom -5593.924431 kJ/mol
# Density = 2.682217 g / cm^3
# Si number density = 26.883356 Si / 1000 Ang^3
#
#
#
# Elastic Constant Matrix: (Units=GPa)
#
#
# Indices 1 2 3 4 5 6 
#
# 1 200.6711 49.9952 57.8391 0.0000 0.0000 0.0000
# 2 49.9952 110.5876 28.2992 0.0000 0.0000 0.0000
# 3 57.8391 28.2992 92.7043 0.0000 0.0000 0.0000
# 4 0.0000 0.0000 0.0000 47.4336 0.0000 0.0000
# 5 0.0000 0.0000 0.0000 0.0000 35.9027 0.0000
# 6 0.0000 0.0000 0.0000 0.0000 0.0000 55.9633
#
#
#
# Elastic Compliance Matrix: (Units=1/GPa)
#
#
# Indices 1 2 3 4 5 6 
#
# 1 0.006480 -0.002055 -0.003415 0.000000 0.000000 0.000000
# 2 -0.002055 0.010461 -0.001911 0.000000 0.000000 0.000000
# 3 -0.003415 -0.001911 0.013501 0.000000 0.000000 0.000000
# 4 0.000000 0.000000 0.000000 0.021082 0.000000 0.000000
# 5 0.000000 0.000000 0.000000 0.000000 0.027853 0.000000
# 6 0.000000 0.000000 0.000000 0.000000 0.000000 0.017869
#
#
# Mechanical properties :
#
#
# Convention : Reuss Voigt Hill
#
# Bulk Modulus (GPa) = 63.78191 75.13667 69.45929
# Shear Modulus (GPa) = 42.64928 45.71522 44.18225
#
# Velocity S-wave (km/s) = 3.98736 4.12819 4.05838
# Velocity P-wave (km/s) = 6.70639 7.12267 6.91766
#
# Compressibility (1/GPa) = 0.01567843
#
# Stress axis : x y z
#
# Youngs Moduli (GPa) = 154.32649 95.59467 74.06759
#
# Poissons Ratio (x) = 0.19649 0.25297
# Poissons Ratio (y) = 0.31721 0.14154
# Poissons Ratio (z) = 0.52708 0.18267
#
# Static dielectric constant tensor:
#      x y z
#    x 2.097940 0.000000 0.000000 
#    y 0.000000 2.225630 0.000000 
#    z 0.000000 0.000000 2.052550 
# 
# From -- ./inp_files/9591.got.cif
#   From: 2010.05.17/outbox.cif.g08.bks.cpg/sg43_5_cif.got.tgz:9591.got - 2010.06.03 19:21:55.
