data_PCOD9370477
_publ_section_title
;
Structure prediction by ZEFSAII (Michael W. Deem and Ramdas Pophale) SiO2 
 PCOD9370477
Probable space group: F D D 2
;
_chemical_formula_sum "Si O2"
_cell_formula_units_Z 112
_cell_length_a 11.866433
_cell_length_b 14.884043
_cell_length_c 25.733943
_cell_angle_alpha 90.000000
_cell_angle_beta 90.000000
_cell_angle_gamma 90.000000
_cell_volume 4545.141855
_symmetry_space_group_name_H-M "F D D 2"
_symmetry_group_IT_number 43
_symmetry_cell_setting 'orthorhombic'
loop_
_space_group_symop_operation_xyz
x,y,z
-x,-y,z
1/4-x,1/4+y,1/4+z
1/4+x,1/4-y,1/4+z
x,1/2+y,1/2+z
-x,1/2-y,1/2+z
1/4-x,3/4+y,3/4+z
1/4+x,3/4-y,3/4+z
1/2+x,y,1/2+z
1/2-x,-y,1/2+z
3/4-x,1/4+y,3/4+z
3/4+x,1/4-y,3/4+z
1/2+x,1/2+y,z
1/2-x,1/2-y,z
3/4-x,3/4+y,1/4+z
3/4+x,3/4-y,1/4+z
loop_
_atom_site_type_symbol
_atom_site_label
_atom_site_fract_x
_atom_site_fract_y
_atom_site_fract_z
Si Si1 0.481343 0.903523 0.592550
Si Si2 0.103737 0.451550 0.766271
Si Si3 0.172280 0.108843 0.189739
Si Si4 0.180744 0.344574 0.669313
Si Si5 0.583974 0.779954 0.054204
Si Si6 0.411049 0.925550 0.190234
Si Si7 0.141987 0.058320 0.921186
O O1 0.387276 0.920573 0.636561
O O2 0.591038 0.863180 0.622938
O O3 0.433018 0.827126 0.555753
O O4 0.500000 0.000000 0.566974
O O5 0.131777 0.539263 0.731727
O O6 0.110557 0.372575 0.722325
O O7 0.207631 0.429767 0.803222
O O8 0.000000 0.500000 0.796042
O O9 0.132843 0.211814 0.195696
O O10 0.306274 0.116480 0.190532
O O11 0.250000 0.250000 0.672390
O O12 0.286174 0.415295 0.666765
O O13 0.635194 0.802708 0.109736
O O14 0.644328 0.811479 0.002243
O O15 0.480375 0.834390 0.180707
O O16 0.500000 0.000000 0.170081
#
# Coordination Sequence:
#
# PCOD9370477 Si02
#       7
#    16  16  16  16  16  16  16
#     4  11  21  41  69  96 132 181 239 294 347 431
#     4  11  21  41  66  96 142 176 235 296 348 426
#     4  10  19  39  69  95 127 179 241 283 351 425
#     4  11  21  39  70  99 134 187 237 288 361 435
#     4  10  25  41  64 106 136 182 235 297 361 427
#     4  11  25  43  67  98 149 185 226 304 374 428
#     4  10  22  41  68  95 137 189 231 286 367 435
#
# _framework density 24.641696
#
# number of rings (size 3 to 8) (size 9 to 14) (size 15 to 20)
#    0.000    1.429    2.857    3.429    4.000    1.714 
#    5.143    2.857    0.000    0.000    0.000    0.000 
#    0.000    0.000    0.000    0.000    0.000    0.000 
#
# Total GULP energy -156397.050824 kJ/mol
# GULP energy per Si atom -5585.608958 kJ/mol
# Density = 2.458561 g / cm^3
# Si number density = 24.641696 Si / 1000 Ang^3
#
#
#
# Elastic Constant Matrix: (Units=GPa)
#
#
# Indices 1 2 3 4 5 6 
#
# 1 119.3564 -7.2951 10.4440 0.0000 0.0000 0.0000
# 2 -7.2951 79.3564 14.0133 0.0000 0.0000 0.0000
# 3 10.4440 14.0133 88.1343 0.0000 0.0000 0.0000
# 4 0.0000 0.0000 0.0000 -0.4452 0.0000 0.0000
# 5 0.0000 0.0000 0.0000 0.0000 17.3881 0.0000
# 6 0.0000 0.0000 0.0000 0.0000 0.0000 49.4785
#
#
#
# Elastic Compliance Matrix: (Units=1/GPa)
#
#
# Indices 1 2 3 4 5 6 
#
# 1 0.008541 0.000992 -0.001170 0.000000 0.000000 0.000000
# 2 0.000992 0.013081 -0.002197 0.000000 0.000000 0.000000
# 3 -0.001170 -0.002197 0.011834 0.000000 0.000000 0.000000
# 4 0.000000 0.000000 0.000000 -2.246382 0.000000 0.000000
# 5 0.000000 0.000000 0.000000 0.000000 0.057511 0.000000
# 6 0.000000 0.000000 0.000000 0.000000 0.000000 0.020211
#
#
# Mechanical properties :
#
#
# Convention : Reuss Voigt Hill
#
# Bulk Modulus (GPa) = 34.83672 35.68571 35.26122
# Shear Modulus (GPa) = -2.35751 31.26329 14.45289
#
# Velocity S-wave (km/s) = -0.97918 3.56577 2.42445
# Velocity P-wave (km/s) = 3.59021 5.60947 4.70934
#
# Compressibility (1/GPa) = 0.02870534
#
# Stress axis : x y z
#
# Youngs Moduli (GPa) = 117.07892 76.44927 84.50000
#
# Poissons Ratio (x) = -0.07582 0.09885
# Poissons Ratio (y) = -0.11611 0.18567
# Poissons Ratio (z) = 0.13696 0.16798
#
# Static dielectric constant tensor:
#      x y z
#    x 2.134050 0.000000 0.000000 
#    y 0.000000 2.018470 0.000000 
#    z 0.000000 0.000000 1.944990 
# 
# From -- ./inp_files/28608.got.cif
#   From: 2010.05.17/outbox.cif.g08.bks.cpg/sg43_15_cif.got.tgz:28608.got - 2010.06.03 19:21:55.
