data_PCOD9370467
_publ_section_title
;
Structure prediction by ZEFSAII (Michael W. Deem and Ramdas Pophale) SiO2 
 PCOD9370467
Probable space group: F D D 2
;
_chemical_formula_sum "Si O2"
_cell_formula_units_Z 112
_cell_length_a 23.720564
_cell_length_b 13.569513
_cell_length_c 15.130622
_cell_angle_alpha 90.000000
_cell_angle_beta 90.000000
_cell_angle_gamma 90.000000
_cell_volume 4870.191676
_symmetry_space_group_name_H-M "F D D 2"
_symmetry_group_IT_number 43
_symmetry_cell_setting 'orthorhombic'
loop_
_space_group_symop_operation_xyz
x,y,z
-x,-y,z
1/4-x,1/4+y,1/4+z
1/4+x,1/4-y,1/4+z
x,1/2+y,1/2+z
-x,1/2-y,1/2+z
1/4-x,3/4+y,3/4+z
1/4+x,3/4-y,3/4+z
1/2+x,y,1/2+z
1/2-x,-y,1/2+z
3/4-x,1/4+y,3/4+z
3/4+x,1/4-y,3/4+z
1/2+x,1/2+y,z
1/2-x,1/2-y,z
3/4-x,3/4+y,1/4+z
3/4+x,3/4-y,1/4+z
loop_
_atom_site_type_symbol
_atom_site_label
_atom_site_fract_x
_atom_site_fract_y
_atom_site_fract_z
Si Si1 0.664224 0.414211 0.562030
Si Si2 0.842773 0.402191 0.466118
Si Si3 0.748944 0.041583 0.983124
Si Si4 0.599362 0.824342 0.590323
Si Si5 0.628277 0.283583 0.902572
Si Si6 0.250000 0.250000 0.894521
Si Si7 0.354068 0.642178 0.368554
Si Si8 0.500000 0.000000 0.735435
O O1 0.644750 0.359411 0.648957
O O2 0.727471 0.449111 0.541990
O O3 0.642115 0.358946 0.475172
O O4 0.636296 0.522081 0.569530
O O5 0.809184 0.504182 0.450759
O O6 0.865296 0.405840 0.564957
O O7 0.797857 0.314791 0.444081
O O8 0.706748 0.058244 0.899865
O O9 0.745873 0.145262 0.034048
O O10 0.594115 0.830543 0.484476
O O11 0.633418 0.917210 0.629174
O O12 0.626321 0.715462 0.594771
O O13 0.694633 0.273899 0.926681
O O14 0.288453 0.167521 0.846561
#
# Coordination Sequence:
#
# PCOD9370467 Si02
#       8
#    16  16  16  16  16   8  16   8
#     4  10  22  38  67  95 132 183 222 286 346 400
#     4  11  23  43  64 103 143 181 235 279 352 425
#     4  10  21  44  67  99 140 180 231 295 346 416
#     4  10  20  41  67  95 134 178 230 287 346 410
#     4  11  24  41  68  99 138 189 226 288 353 425
#     4  10  20  38  65  89 134 182 216 290 338 393
#     4  10  19  39  64  94 126 177 230 285 344 401
#     4  10  22  42  67  95 134 178 228 290 346 419
#
# _framework density 22.997042
#
# number of rings (size 3 to 8) (size 9 to 14) (size 15 to 20)
#    0.000    1.714    2.857    3.429    0.000    4.571 
#    7.714    1.429    3.143    0.857    0.000    0.000 
#    0.000    0.000    0.000    0.000    0.000    0.000 
#
# Total GULP energy -155964.621029 kJ/mol
# GULP energy per Si atom -5570.165037 kJ/mol
# Density = 2.294470 g / cm^3
# Si number density = 22.997042 Si / 1000 Ang^3
#
#
#
# Elastic Constant Matrix: (Units=GPa)
#
#
# Indices 1 2 3 4 5 6 
#
# 1 54.6479 18.4146 12.3745 0.0000 0.0000 0.0000
# 2 18.4146 92.0471 4.7186 0.0000 0.0000 0.0000
# 3 12.3745 4.7186 86.2829 0.0000 0.0000 0.0000
# 4 0.0000 0.0000 0.0000 38.6113 0.0000 0.0000
# 5 0.0000 0.0000 0.0000 0.0000 30.5851 0.0000
# 6 0.0000 0.0000 0.0000 0.0000 0.0000 38.7673
#
#
#
# Elastic Compliance Matrix: (Units=1/GPa)
#
#
# Indices 1 2 3 4 5 6 
#
# 1 0.020224 -0.003908 -0.002687 0.000000 0.000000 0.000000
# 2 -0.003908 0.011650 -0.000077 0.000000 0.000000 0.000000
# 3 -0.002687 -0.000077 0.011979 0.000000 0.000000 0.000000
# 4 0.000000 0.000000 0.000000 0.025899 0.000000 0.000000
# 5 0.000000 0.000000 0.000000 0.000000 0.032696 0.000000
# 6 0.000000 0.000000 0.000000 0.000000 0.000000 0.025795
#
#
# Mechanical properties :
#
#
# Convention : Reuss Voigt Hill
#
# Bulk Modulus (GPa) = 32.77599 33.77704 33.27651
# Shear Modulus (GPa) = 32.94750 34.75741 33.85246
#
# Velocity S-wave (km/s) = 3.78919 3.89187 3.84087
# Velocity P-wave (km/s) = 5.78162 5.90889 5.84560
#
# Compressibility (1/GPa) = 0.03051014
#
# Stress axis : x y z
#
# Youngs Moduli (GPa) = 49.44542 85.83832 83.47730
#
# Poissons Ratio (x) = 0.33548 0.22429
# Poissons Ratio (y) = 0.19325 0.00639
# Poissons Ratio (z) = 0.13285 0.00657
#
# Static dielectric constant tensor:
#      x y z
#    x 1.936930 0.000000 0.000000 
#    y 0.000000 1.995940 0.000000 
#    z 0.000000 0.000000 1.877210 
# 
# From -- ./inp_files/11282.got.cif
#   From: 2010.05.17/outbox.cif.g08.bks.cpg/sg43_6_cif.got.tgz:11282.got - 2010.06.03 19:21:55.
