data_PCOD9370277
_publ_section_title
;
Structure prediction by ZEFSAII (Michael W. Deem and Ramdas Pophale) SiO2 
 PCOD9370277
Probable space group: F D D 2
;
_chemical_formula_sum "Si O2"
_cell_formula_units_Z 120
_cell_length_a 7.477516
_cell_length_b 32.500825
_cell_length_c 23.913979
_cell_angle_alpha 90.000000
_cell_angle_beta 90.000000
_cell_angle_gamma 90.000000
_cell_volume 5811.705244
_symmetry_space_group_name_H-M "F D D 2"
_symmetry_group_IT_number 43
_symmetry_cell_setting 'orthorhombic'
loop_
_space_group_symop_operation_xyz
x,y,z
-x,-y,z
1/4-x,1/4+y,1/4+z
1/4+x,1/4-y,1/4+z
x,1/2+y,1/2+z
-x,1/2-y,1/2+z
1/4-x,3/4+y,3/4+z
1/4+x,3/4-y,3/4+z
1/2+x,y,1/2+z
1/2-x,-y,1/2+z
3/4-x,1/4+y,3/4+z
3/4+x,1/4-y,3/4+z
1/2+x,1/2+y,z
1/2-x,1/2-y,z
3/4-x,3/4+y,1/4+z
3/4+x,3/4-y,1/4+z
loop_
_atom_site_type_symbol
_atom_site_label
_atom_site_fract_x
_atom_site_fract_y
_atom_site_fract_z
Si Si1 0.103124 0.655281 0.268540
Si Si2 0.856320 0.447514 0.094992
Si Si3 0.250000 0.250000 0.941170
Si Si4 0.539487 0.255265 0.749432
Si Si5 0.966607 0.702120 0.640545
Si Si6 0.446649 0.238677 0.049536
Si Si7 0.808495 0.871257 0.654214
Si Si8 0.577470 0.591517 0.852939
O O1 0.268726 0.674306 0.301600
O O2 0.181334 0.626224 0.220657
O O3 0.997888 0.626032 0.311278
O O4 0.005281 0.696291 0.246646
O O5 0.970889 0.463065 0.148101
O O6 0.737019 0.411522 0.122163
O O7 0.774508 0.484712 0.058337
O O8 0.419202 0.249207 0.984007
O O9 0.750000 0.250000 0.746273
O O10 0.460845 0.230296 0.696340
O O11 0.815623 0.667610 0.641874
O O12 0.935549 0.730988 0.586250
O O13 0.161853 0.679650 0.635154
O O14 0.250000 0.250000 0.072677
O O15 0.444154 0.191168 0.066053
O O16 0.016746 0.862470 0.639113
#
# Coordination Sequence:
#
# PCOD9370277 Si02
#       8
#    16  16   8  16  16  16  16  16
#     4  11  22  42  66  95 131 177 226 284 339 415
#     4  11  23  41  64  96 127 178 225 274 344 414
#     4  10  18  40  68  84 132 178 222 268 332 428
#     4  12  24  40  69  99 137 177 232 286 349 416
#     4  11  22  42  66  99 133 172 223 289 338 403
#     4   8  18  35  64  91 123 169 217 261 334 401
#     4  11  24  38  67  98 132 175 225 282 340 407
#     4  10  22  41  62  99 131 169 226 275 343 398
#
# _framework density 20.647984000000001
#
# number of rings (size 3 to 8) (size 9 to 14) (size 15 to 20)
#    0.400    1.067    2.667    3.600    1.867    1.600 
#    0.000    0.000    8.800    0.000    0.000    0.000 
#    0.000    0.000    0.000    0.000    0.000    0.000 
#
# Total GULP energy -167005.506871 kJ/mol
# GULP energy per Si atom -5566.850229 kJ/mol
# Density = 2.060099 g / cm^3
# Si number density = 20.647984 Si / 1000 Ang^3
#
#
#
# Elastic Constant Matrix: (Units=GPa)
#
#
# Indices 1 2 3 4 5 6 
#
# 1 34.8150 -16.2747 6.3565 0.0000 0.0000 0.0000
# 2 -16.2747 56.6576 30.8635 0.0000 0.0000 0.0000
# 3 6.3565 30.8635 113.2332 0.0000 0.0000 0.0000
# 4 0.0000 0.0000 0.0000 -90.7664 0.0000 0.0000
# 5 0.0000 0.0000 0.0000 0.0000 15.7843 0.0000
# 6 0.0000 0.0000 0.0000 0.0000 0.0000 28.7729
#
#
#
# Elastic Compliance Matrix: (Units=1/GPa)
#
#
# Indices 1 2 3 4 5 6 
#
# 1 0.036053 0.013457 -0.005692 0.000000 0.000000 0.000000
# 2 0.013457 0.025750 -0.007774 0.000000 0.000000 0.000000
# 3 -0.005692 -0.007774 0.011270 0.000000 0.000000 0.000000
# 4 0.000000 0.000000 0.000000 -0.011017 0.000000 0.000000
# 5 0.000000 0.000000 0.000000 0.000000 0.063354 0.000000
# 6 0.000000 0.000000 0.000000 0.000000 0.000000 0.034755
#
#
# Mechanical properties :
#
#
# Convention : Reuss Voigt Hill
#
# Bulk Modulus (GPa) = 13.68842 27.39959 20.54401
# Shear Modulus (GPa) = 27.09525 3.00886 15.05205
#
# Velocity S-wave (km/s) = 3.62642 1.20846 2.70290
# Velocity P-wave (km/s) = 4.91716 3.90459 4.43983
#
# Compressibility (1/GPa) = 0.07305444
#
# Stress axis : x y z
#
# Youngs Moduli (GPa) = 27.73705 38.83490 88.73296
#
# Poissons Ratio (x) = -0.52258 0.50504
# Poissons Ratio (y) = -0.37325 0.68981
# Poissons Ratio (z) = 0.15787 0.30190
#
# Static dielectric constant tensor:
#      x y z
#    x 1.726950 0.000000 0.000000 
#    y 0.000000 1.843040 0.000000 
#    z 0.000000 0.000000 1.799450 
# 
# From -- ./inp_files/20546.got.cif
#   From: 2010.05.17/outbox.cif.g08.bks.cpg/sg43_11_cif.got.tgz:20546.got - 2010.06.03 19:21:55.
