data_PCOD9370148
_publ_section_title
;
Structure prediction by ZEFSAII (Michael W. Deem and Ramdas Pophale) SiO2 
 PCOD9370148
Probable space group: F D D 2
;
_chemical_formula_sum "Si O2"
_cell_formula_units_Z 104
_cell_length_a 23.664062
_cell_length_b 27.204580
_cell_length_c 6.684497
_cell_angle_alpha 90.000000
_cell_angle_beta 90.000000
_cell_angle_gamma 90.000000
_cell_volume 4303.284435
_symmetry_space_group_name_H-M "F D D 2"
_symmetry_group_IT_number 43
_symmetry_cell_setting 'orthorhombic'
loop_
_space_group_symop_operation_xyz
x,y,z
-x,-y,z
1/4-x,1/4+y,1/4+z
1/4+x,1/4-y,1/4+z
x,1/2+y,1/2+z
-x,1/2-y,1/2+z
1/4-x,3/4+y,3/4+z
1/4+x,3/4-y,3/4+z
1/2+x,y,1/2+z
1/2-x,-y,1/2+z
3/4-x,1/4+y,3/4+z
3/4+x,1/4-y,3/4+z
1/2+x,1/2+y,z
1/2-x,1/2-y,z
3/4-x,3/4+y,1/4+z
3/4+x,3/4-y,1/4+z
loop_
_atom_site_type_symbol
_atom_site_label
_atom_site_fract_x
_atom_site_fract_y
_atom_site_fract_z
Si Si1 0.034655 0.314582 0.755760
Si Si2 0.490007 0.710491 0.806423
Si Si3 0.881693 0.969465 0.025344
Si Si4 0.605414 0.691143 0.579760
Si Si5 0.405227 0.417825 0.419078
Si Si6 0.524429 0.426469 0.373842
Si Si7 0.750000 0.750000 0.262751
O O1 0.000861 0.268545 0.839757
O O2 0.101737 0.305054 0.763739
O O3 0.022328 0.367914 0.841993
O O4 0.018806 0.315098 0.519831
O O5 0.429949 0.704406 0.690680
O O6 0.548233 0.693727 0.706392
O O7 0.900059 0.927032 0.181584
O O8 0.939909 0.984391 0.914610
O O9 0.864679 0.015198 0.170737
O O10 0.603341 0.639094 0.466908
O O11 0.664025 0.689989 0.706381
O O12 0.466149 0.437434 0.486798
O O13 0.518004 0.455667 0.163983
#
# Coordination Sequence:
#
# PCOD9370148 Si02
#       7
#    16  16  16  16  16  16   8
#     4  10  21  34  57  86 117 148 191 243 290 351
#     4  11  19  34  53  87 116 146 191 243 292 342
#     4   9  17  32  54  81 109 146 194 238 275 348
#     4  10  18  31  52  83 109 144 192 235 287 334
#     4   9  17  33  54  80 109 148 193 230 284 349
#     4   9  18  32  56  81 110 152 193 239 278 353
#     4   8  16  32  56  80 102 152 198 226 276 344
#
# _framework density 24.167587999999999
#
# number of rings (size 3 to 8) (size 9 to 14) (size 15 to 20)
#    0.000    2.462    3.077    0.923    0.000    0.000 
#    0.000    4.615    0.000    0.000    0.000    0.000 
#    0.000    0.000    0.000    0.000    0.000    0.000 
#
# Total GULP energy -145033.797146 kJ/mol
# GULP energy per Si atom -5578.222967 kJ/mol
# Density = 2.411258 g / cm^3
# Si number density = 24.167588 Si / 1000 Ang^3
#
#
#
# Elastic Constant Matrix: (Units=GPa)
#
#
# Indices 1 2 3 4 5 6 
#
# 1 288.7109 30.4409 45.5544 0.0618 -0.0473 -0.0490
# 2 30.4409 81.1918 10.6789 -0.0010 0.0120 -0.0217
# 3 45.5544 10.6789 47.6832 0.0098 -0.0005 -0.0449
# 4 0.0618 -0.0010 0.0098 7.3560 -0.0112 -0.0369
# 5 -0.0473 0.0120 -0.0005 -0.0112 27.1293 0.0342
# 6 -0.0490 -0.0217 -0.0449 -0.0369 0.0342 31.4047
#
#
#
# Elastic Compliance Matrix: (Units=1/GPa)
#
#
# Indices 1 2 3 4 5 6 
#
# 1 0.004167 -0.001070 -0.003741 -0.000030 0.000008 0.000000
# 2 -0.001070 0.012965 -0.001881 0.000013 -0.000008 0.000005
# 3 -0.003741 -0.001881 0.024967 -0.000002 -0.000005 0.000029
# 4 -0.000030 0.000013 -0.000002 0.135945 0.000056 0.000160
# 5 0.000008 -0.000008 -0.000005 0.000056 0.036861 -0.000040
# 6 0.000000 0.000005 0.000029 0.000160 -0.000040 0.031843
#
#
# Mechanical properties :
#
#
# Convention : Reuss Voigt Hill
#
# Bulk Modulus (GPa) = 34.82600 65.65937 50.24268
# Shear Modulus (GPa) = 18.53889 35.23879 26.88884
#
# Velocity S-wave (km/s) = 2.77266 3.82265 3.33918
# Velocity P-wave (km/s) = 4.96907 6.83454 5.97505
#
# Compressibility (1/GPa) = 0.02871418
#
# Stress axis : x y z
#
# Youngs Moduli (GPa) = 239.99177 77.12961 40.05259
#
# Poissons Ratio (x) = 0.08254 0.14984
# Poissons Ratio (y) = 0.25684 0.07535
# Poissons Ratio (z) = 0.89783 0.14510
#
# Static dielectric constant tensor:
#      x y z
#    x 2.038790 0.000010 0.000010 
#    y 0.000010 1.904500 -0.000040 
#    z 0.000010 -0.000040 1.974940 
# 
# From -- ./inp_files/3859.got.cif
#   From: 2010.05.17/outbox.cif.g08.bks.cpg/sg43_2_cif.got.tgz:3859.got - 2010.06.03 19:21:55.
