data_PCOD9370387
_publ_section_title
;
Structure prediction by ZEFSAII (Michael W. Deem and Ramdas Pophale) SiO2 
 PCOD9370387
Probable space group: F D D 2
;
_chemical_formula_sum "Si O2"
_cell_formula_units_Z 88
_cell_length_a 13.657190
_cell_length_b 10.897254
_cell_length_c 28.114324
_cell_angle_alpha 90.000000
_cell_angle_beta 90.000000
_cell_angle_gamma 90.000000
_cell_volume 4184.138683
_symmetry_space_group_name_H-M "F D D 2"
_symmetry_group_IT_number 43
_symmetry_cell_setting 'orthorhombic'
loop_
_space_group_symop_operation_xyz
x,y,z
-x,-y,z
1/4-x,1/4+y,1/4+z
1/4+x,1/4-y,1/4+z
x,1/2+y,1/2+z
-x,1/2-y,1/2+z
1/4-x,3/4+y,3/4+z
1/4+x,3/4-y,3/4+z
1/2+x,y,1/2+z
1/2-x,-y,1/2+z
3/4-x,1/4+y,3/4+z
3/4+x,1/4-y,3/4+z
1/2+x,1/2+y,z
1/2-x,1/2-y,z
3/4-x,3/4+y,1/4+z
3/4+x,3/4-y,1/4+z
loop_
_atom_site_type_symbol
_atom_site_label
_atom_site_fract_x
_atom_site_fract_y
_atom_site_fract_z
Si Si1 0.855978 0.409384 0.096550
Si Si2 0.000000 0.000000 0.265746
Si Si3 0.579919 0.821250 0.107664
Si Si4 0.053686 0.725838 0.710920
Si Si5 0.860019 0.302383 0.517904
Si Si6 0.833800 0.336445 0.202091
O O1 0.808350 0.341626 0.051438
O O2 0.855405 0.557947 0.095303
O O3 0.811531 0.366917 0.147046
O O4 0.968815 0.368111 0.101966
O O5 0.939930 0.911858 0.230103
O O6 0.595647 0.765840 0.159829
O O7 0.596775 0.716558 0.069401
O O8 0.105817 0.810982 0.749510
O O9 0.938899 0.768555 0.707294
O O10 0.750000 0.250000 0.518606
O O11 0.912879 0.213106 0.480577
O O12 0.750000 0.250000 0.222547
#
# Coordination Sequence:
#
# PCOD9370387 Si02
#       6
#    16   8  16  16  16  16
#     4  10  20  38  65  94 130 166 224 266 324 398
#     4  12  24  42  62 100 136 172 212 284 340 392
#     4  10  21  41  66  92 123 178 220 265 323 399
#     4  10  23  42  60  91 138 167 210 282 337 386
#     4  10  20  38  64  91 125 168 218 266 319 387
#     4  10  19  36  66  96 124 168 220 272 325 395
#
# _framework density 21.031808000000002
#
# number of rings (size 3 to 8) (size 9 to 14) (size 15 to 20)
#    0.000    1.818    2.727    2.182    5.091    0.000 
#    6.545    1.818    0.000    0.000    0.000    0.000 
#    0.000    0.000    0.000    0.000    0.000    0.000 
#
# Total GULP energy -122885.596310 kJ/mol
# GULP energy per Si atom -5585.708923 kJ/mol
# Density = 2.098394 g / cm^3
# Si number density = 21.031808 Si / 1000 Ang^3
#
#
#
# Elastic Constant Matrix: (Units=GPa)
#
#
# Indices 1 2 3 4 5 6 
#
# 1 16.5273 16.4185 10.6337 0.0000 0.0000 0.0000
# 2 16.4185 119.9447 75.4616 0.0000 0.0000 0.0000
# 3 10.6337 75.4616 132.0480 0.0000 0.0000 0.0000
# 4 0.0000 0.0000 0.0000 -14.8375 0.0000 0.0000
# 5 0.0000 0.0000 0.0000 0.0000 17.5306 0.0000
# 6 0.0000 0.0000 0.0000 0.0000 0.0000 33.7553
#
#
#
# Elastic Compliance Matrix: (Units=1/GPa)
#
#
# Indices 1 2 3 4 5 6 
#
# 1 0.070034 -0.009428 -0.000252 0.000000 0.000000 0.000000
# 2 -0.009428 0.014287 -0.007405 0.000000 0.000000 0.000000
# 3 -0.000252 -0.007405 0.011825 0.000000 0.000000 0.000000
# 4 0.000000 0.000000 0.000000 -0.067397 0.000000 0.000000
# 5 0.000000 0.000000 0.000000 0.000000 0.057043 0.000000
# 6 0.000000 0.000000 0.000000 0.000000 0.000000 0.029625
#
#
# Mechanical properties :
#
#
# Convention : Reuss Voigt Hill
#
# Bulk Modulus (GPa) = 16.13536 52.61639 34.37588
# Shear Modulus (GPa) = 29.36934 18.35678 23.86306
#
# Velocity S-wave (km/s) = 3.74093 2.95754 3.37206
# Velocity P-wave (km/s) = 5.13303 6.06091 5.61616
#
# Compressibility (1/GPa) = 0.06197567
#
# Stress axis : x y z
#
# Youngs Moduli (GPa) = 14.27874 69.99594 84.56596
#
# Poissons Ratio (x) = 0.65993 0.02130
# Poissons Ratio (y) = 0.13462 0.62622
# Poissons Ratio (z) = 0.00360 0.51833
#
# Static dielectric constant tensor:
#      x y z
#    x 1.785340 0.000000 0.000000 
#    y 0.000000 1.756710 0.000000 
#    z 0.000000 0.000000 1.757300 
# 
# From -- ./inp_files/21650.got.cif
#   From: 2010.05.17/outbox.cif.g08.bks.cpg/sg43_11_cif.got.tgz:21650.got - 2010.06.03 19:21:55.
