data_PCOD9370984
_publ_section_title
;
Structure prediction by ZEFSAII (Michael W. Deem and Ramdas Pophale) SiO2 
 PCOD9370984
Probable space group: F D D 2
;
_chemical_formula_sum "Si O2"
_cell_formula_units_Z 72
_cell_length_a 24.982580
_cell_length_b 5.129644
_cell_length_c 22.686937
_cell_angle_alpha 90.000000
_cell_angle_beta 90.000000
_cell_angle_gamma 90.000000
_cell_volume 2907.370488
_symmetry_space_group_name_H-M "F D D 2"
_symmetry_group_IT_number 43
_symmetry_cell_setting 'orthorhombic'
loop_
_space_group_symop_operation_xyz
x,y,z
-x,-y,z
1/4-x,1/4+y,1/4+z
1/4+x,1/4-y,1/4+z
x,1/2+y,1/2+z
-x,1/2-y,1/2+z
1/4-x,3/4+y,3/4+z
1/4+x,3/4-y,3/4+z
1/2+x,y,1/2+z
1/2-x,-y,1/2+z
3/4-x,1/4+y,3/4+z
3/4+x,1/4-y,3/4+z
1/2+x,1/2+y,z
1/2-x,1/2-y,z
3/4-x,3/4+y,1/4+z
3/4+x,3/4-y,1/4+z
loop_
_atom_site_type_symbol
_atom_site_label
_atom_site_fract_x
_atom_site_fract_y
_atom_site_fract_z
Si Si1 0.195535 0.404014 0.572780
Si Si2 0.965490 0.222412 0.010799
Si Si3 0.158508 0.365602 0.871388
Si Si4 0.650880 0.860204 0.449001
Si Si5 0.500000 0.500000 0.904512
O O1 0.250000 0.250000 0.581192
O O2 0.147117 0.232401 0.596985
O O3 0.186021 0.448645 0.504444
O O4 0.203224 0.665469 0.610607
O O5 0.946267 0.405676 0.063562
O O6 0.000000 0.000000 0.044175
O O7 0.909248 0.164442 0.977025
O O8 0.005485 0.232877 0.953322
O O9 0.153968 0.088577 0.901645
O O10 0.171253 0.589123 0.920345
#
# Coordination Sequence:
#
# PCOD9370984 Si02
#       5
#    16  16  16  16   8
#     4  11  25  41  74  99 145 188 236 291 355 425
#     4   9  21  43  70  96 135 182 228 279 340 413
#     4  11  24  46  68 104 138 182 228 296 345 415
#     4  11  25  44  70 101 143 176 235 289 352 409
#     4  10  20  46  62 104 124 188 236 280 332 448
#
# _framework density 24.764648000000001
#
# number of rings (size 3 to 8) (size 9 to 14) (size 15 to 20)
#    0.667    0.889    2.222    1.333    3.111    6.222 
#    4.000    2.222    0.000    0.000    0.000    0.000 
#    0.000    0.000    0.000    0.000    0.000    0.000 
#
# Total GULP energy -100320.058176 kJ/mol
# GULP energy per Si atom -5573.336565 kJ/mol
# Density = 2.470828 g / cm^3
# Si number density = 24.764648 Si / 1000 Ang^3
#
#
#
# Elastic Constant Matrix: (Units=GPa)
#
#
# Indices 1 2 3 4 5 6 
#
# 1 69.7104 10.3973 50.6893 0.0028 -0.0009 -0.0015
# 2 10.3973 104.2331 29.4553 0.0252 -0.0024 -0.0096
# 3 50.6893 29.4553 162.3736 0.0068 -0.0006 -0.0026
# 4 0.0028 0.0252 0.0068 -22.1991 -0.0010 -0.0054
# 5 -0.0009 -0.0024 -0.0006 -0.0010 42.3341 0.0005
# 6 -0.0015 -0.0096 -0.0026 -0.0054 0.0005 33.6521
#
#
#
# Elastic Compliance Matrix: (Units=1/GPa)
#
#
# Indices 1 2 3 4 5 6 
#
# 1 0.018563 -0.000226 -0.005754 0.000000 0.000000 0.000000
# 2 -0.000226 0.010115 -0.001764 0.000011 0.000001 0.000003
# 3 -0.005754 -0.001764 0.008275 0.000000 0.000000 0.000000
# 4 0.000000 0.000011 0.000000 -0.045047 -0.000001 -0.000007
# 5 0.000000 0.000001 0.000000 -0.000001 0.023622 0.000000
# 6 0.000000 0.000003 0.000000 -0.000007 0.000000 0.029716
#
#
# Mechanical properties :
#
#
# Convention : Reuss Voigt Hill
#
# Bulk Modulus (GPa) = 46.58837 57.48898 52.03868
# Shear Modulus (GPa) = 73.65279 27.14242 50.39761
#
# Velocity S-wave (km/s) = 5.45946 3.31420 4.51606
# Velocity P-wave (km/s) = 7.65468 6.15709 6.94636
#
# Compressibility (1/GPa) = 0.02146458
#
# Stress axis : x y z
#
# Youngs Moduli (GPa) = 53.87172 98.86299 120.84668
#
# Poissons Ratio (x) = 0.02231 0.69534
# Poissons Ratio (y) = 0.01216 0.21323
# Poissons Ratio (z) = 0.30997 0.17444
#
# Static dielectric constant tensor:
#      x y z
#    x 2.029730 0.000010 0.000000 
#    y 0.000010 2.412290 0.000000 
#    z 0.000000 0.000000 1.933660 
# 
# From -- ./inp_files/15660.got.cif
#   From: 2010.05.17/outbox.cif.g08.bks.cpg/sg43_8_cif.got.tgz:15660.got - 2010.06.03 19:21:55.
