data_PCOD9370847
_publ_section_title
;
Structure prediction by ZEFSAII (Michael W. Deem and Ramdas Pophale) SiO2 
 PCOD9370847
Probable space group: F D D 2
;
_chemical_formula_sum "Si O2"
_cell_formula_units_Z 104
_cell_length_a 21.873954
_cell_length_b 30.257995
_cell_length_c 6.936905
_cell_angle_alpha 90.000000
_cell_angle_beta 90.000000
_cell_angle_gamma 90.000000
_cell_volume 4591.273753
_symmetry_space_group_name_H-M "F D D 2"
_symmetry_group_IT_number 43
_symmetry_cell_setting 'orthorhombic'
loop_
_space_group_symop_operation_xyz
x,y,z
-x,-y,z
1/4-x,1/4+y,1/4+z
1/4+x,1/4-y,1/4+z
x,1/2+y,1/2+z
-x,1/2-y,1/2+z
1/4-x,3/4+y,3/4+z
1/4+x,3/4-y,3/4+z
1/2+x,y,1/2+z
1/2-x,-y,1/2+z
3/4-x,1/4+y,3/4+z
3/4+x,1/4-y,3/4+z
1/2+x,1/2+y,z
1/2-x,1/2-y,z
3/4-x,3/4+y,1/4+z
3/4+x,3/4-y,1/4+z
loop_
_atom_site_type_symbol
_atom_site_label
_atom_site_fract_x
_atom_site_fract_y
_atom_site_fract_z
Si Si1 0.261091 0.493642 0.917060
Si Si2 0.359337 0.496400 0.572859
Si Si3 0.500000 0.000000 0.595069
Si Si4 0.795132 0.905233 0.133900
Si Si5 0.828203 0.678769 0.589792
Si Si6 0.674104 0.187393 0.555779
Si Si7 0.705379 0.912244 0.489296
O O1 0.314650 0.496432 0.758235
O O2 0.272142 0.538778 0.043502
O O3 0.187288 0.496845 0.895462
O O4 0.270617 0.447186 0.019751
O O5 0.396208 0.451890 0.532229
O O6 0.406137 0.535945 0.614010
O O7 0.537286 0.034840 0.728092
O O8 0.458119 0.029660 0.452620
O O9 0.862985 0.918079 0.205369
O O10 0.792601 0.858998 0.021725
O O11 0.751759 0.899262 0.318672
O O12 0.797552 0.630897 0.622731
O O13 0.611920 0.171543 0.658604
#
# Coordination Sequence:
#
# PCOD9370847 Si02
#       7
#    16  16   8  16  16  16  16
#     4  11  20  40  68 100 138 180 229 294 338 410
#     4  11  22  41  66 103 142 180 235 289 349 410
#     4  12  24  44  70 100 140 192 230 282 358 416
#     4  11  20  43  71 100 136 188 236 286 354 414
#     4  11  23  40  70  99 138 187 232 289 349 417
#     4  10  23  40  69 101 139 185 230 289 351 421
#     4  10  20  40  71  99 135 182 241 285 344 418
#
# _framework density 22.651665000000001
#
# number of rings (size 3 to 8) (size 9 to 14) (size 15 to 20)
#    0.000    1.231    6.154    1.846    0.000    0.615 
#    0.000    9.231    0.000    0.000    0.000    0.000 
#    0.000    0.000    0.000    0.000    0.000    0.000 
#
# Total GULP energy -144980.921713 kJ/mol
# GULP energy per Si atom -5576.189297 kJ/mol
# Density = 2.260011 g / cm^3
# Si number density = 22.651665 Si / 1000 Ang^3
#
#
#
# Elastic Constant Matrix: (Units=GPa)
#
#
# Indices 1 2 3 4 5 6 
#
# 1 86.8529 48.4669 21.7798 0.0020 -0.0111 0.0023
# 2 48.4669 218.7715 49.1513 0.0005 -0.0047 -0.0004
# 3 21.7798 49.1513 45.6629 0.0040 -0.0203 -0.0137
# 4 0.0020 0.0005 0.0040 45.3134 -0.0035 -0.0029
# 5 -0.0111 -0.0047 -0.0203 -0.0035 30.0888 0.0138
# 6 0.0023 -0.0004 -0.0137 -0.0029 0.0138 -131.5909
#
#
#
# Elastic Compliance Matrix: (Units=1/GPa)
#
#
# Indices 1 2 3 4 5 6 
#
# 1 0.013757 -0.002075 -0.004328 0.000000 0.000002 0.000001
# 2 -0.002075 0.006342 -0.005837 0.000001 -0.000004 0.000001
# 3 -0.004328 -0.005837 0.030246 -0.000002 0.000018 -0.000003
# 4 0.000000 0.000001 -0.000002 0.022069 0.000003 0.000000
# 5 0.000002 -0.000004 0.000018 0.000003 0.033235 0.000003
# 6 0.000001 0.000001 -0.000003 0.000000 0.000003 -0.007599
#
#
# Mechanical properties :
#
#
# Convention : Reuss Voigt Hill
#
# Bulk Modulus (GPa) = 38.66093 65.56481 52.11287
# Shear Modulus (GPa) = 38.12386 4.22156 21.17271
#
# Velocity S-wave (km/s) = 4.10695 1.36665 3.06062
# Velocity P-wave (km/s) = 6.29238 5.61230 5.96205
#
# Compressibility (1/GPa) = 0.02586591
#
# Stress axis : x y z
#
# Youngs Moduli (GPa) = 72.68946 157.67645 33.06181
#
# Poissons Ratio (x) = 0.32725 0.14308
# Poissons Ratio (y) = 0.15086 0.19297
# Poissons Ratio (z) = 0.31458 0.92031
#
# Static dielectric constant tensor:
#      x y z
#    x 1.802440 0.000010 0.000000 
#    y 0.000010 1.882770 0.000000 
#    z 0.000000 0.000000 1.938670 
# 
# From -- ./inp_files/3382.got.cif
#   From: 2010.05.17/outbox.cif.g08.bks.cpg/sg43_2_cif.got.tgz:3382.got - 2010.06.03 19:21:55.
