data_PCOD9370960
_publ_section_title
;
Structure prediction by ZEFSAII (Michael W. Deem and Ramdas Pophale) SiO2 
 PCOD9370960
Probable space group: F D D 2
;
_chemical_formula_sum "Si O2"
_cell_formula_units_Z 80
_cell_length_a 12.101317
_cell_length_b 11.273797
_cell_length_c 24.809480
_cell_angle_alpha 90.000000
_cell_angle_beta 90.000000
_cell_angle_gamma 90.000000
_cell_volume 3384.702559
_symmetry_space_group_name_H-M "F D D 2"
_symmetry_group_IT_number 43
_symmetry_cell_setting 'orthorhombic'
loop_
_space_group_symop_operation_xyz
x,y,z
-x,-y,z
1/4-x,1/4+y,1/4+z
1/4+x,1/4-y,1/4+z
x,1/2+y,1/2+z
-x,1/2-y,1/2+z
1/4-x,3/4+y,3/4+z
1/4+x,3/4-y,3/4+z
1/2+x,y,1/2+z
1/2-x,-y,1/2+z
3/4-x,1/4+y,3/4+z
3/4+x,1/4-y,3/4+z
1/2+x,1/2+y,z
1/2-x,1/2-y,z
3/4-x,3/4+y,1/4+z
3/4+x,3/4-y,1/4+z
loop_
_atom_site_type_symbol
_atom_site_label
_atom_site_fract_x
_atom_site_fract_y
_atom_site_fract_z
Si Si1 0.573149 0.692546 0.380820
Si Si2 0.135540 0.191842 0.174255
Si Si3 0.450017 0.185962 0.270975
Si Si4 0.657787 0.043629 0.304206
Si Si5 0.860348 0.799344 0.594950
O O1 0.603962 0.800087 0.419152
O O2 0.598883 0.741382 0.321071
O O3 0.442516 0.656390 0.379557
O O4 0.632898 0.565350 0.383087
O O5 0.250000 0.250000 0.193885
O O6 0.049972 0.237642 0.217812
O O7 0.119569 0.248226 0.114876
O O8 0.572640 0.145692 0.288363
O O9 0.376247 0.066906 0.266708
O O10 0.786140 0.076053 0.307972
O O11 0.750000 0.750000 0.564398
#
# Coordination Sequence:
#
# PCOD9370960 Si02
#       5
#    16  16  16  16  16
#     4   8  19  42  61 100 133 185 245 295 365 435
#     4  11  21  38  67 105 144 193 241 303 371 447
#     4  10  21  37  66 102 136 191 241 301 373 437
#     4  10  20  44  62 102 154 175 249 308 363 449
#     4   8  20  39  67  91 134 202 228 300 385 419
#
# _framework density 23.635756000000001
#
# number of rings (size 3 to 8) (size 9 to 14) (size 15 to 20)
#    1.200    1.200    4.000    0.000    2.800    3.200 
#    7.200    4.000    4.400    0.000    0.000    0.000 
#    0.000    0.000    0.000    0.000    0.000    0.000 
#
# Total GULP energy -111517.838461 kJ/mol
# GULP energy per Si atom -5575.891923 kJ/mol
# Density = 2.358196 g / cm^3
# Si number density = 23.635756 Si / 1000 Ang^3
#
#
#
# Elastic Constant Matrix: (Units=GPa)
#
#
# Indices 1 2 3 4 5 6 
#
# 1 145.3915 30.7465 37.9080 0.0000 0.0000 0.0000
# 2 30.7465 129.2947 66.1501 0.0000 0.0000 0.0000
# 3 37.9080 66.1501 80.0926 0.0000 0.0000 0.0000
# 4 0.0000 0.0000 0.0000 36.1800 0.0000 0.0000
# 5 0.0000 0.0000 0.0000 0.0000 12.4833 0.0000
# 6 0.0000 0.0000 0.0000 0.0000 0.0000 9.7690
#
#
#
# Elastic Compliance Matrix: (Units=1/GPa)
#
#
# Indices 1 2 3 4 5 6 
#
# 1 0.007847 0.000059 -0.003763 0.000000 0.000000 0.000000
# 2 0.000059 0.013394 -0.011091 0.000000 0.000000 0.000000
# 3 -0.003763 -0.011091 0.023426 0.000000 0.000000 0.000000
# 4 0.000000 0.000000 0.000000 0.027640 0.000000 0.000000
# 5 0.000000 0.000000 0.000000 0.000000 0.080107 0.000000
# 6 0.000000 0.000000 0.000000 0.000000 0.000000 0.102364
#
#
# Mechanical properties :
#
#
# Convention : Reuss Voigt Hill
#
# Bulk Modulus (GPa) = 66.31739 69.37643 67.84691
# Shear Modulus (GPa) = 17.27755 26.35143 21.81449
#
# Velocity S-wave (km/s) = 2.70662 3.34263 3.04130
# Velocity P-wave (km/s) = 6.15522 6.65685 6.41094
#
# Compressibility (1/GPa) = 0.01507900
#
# Stress axis : x y z
#
# Youngs Moduli (GPa) = 127.44535 74.65752 42.68675
#
# Poissons Ratio (x) = -0.00441 0.16061
# Poissons Ratio (y) = -0.00753 0.47343
# Poissons Ratio (z) = 0.47952 0.82801
#
# Static dielectric constant tensor:
#      x y z
#    x 2.003900 0.000000 0.000000 
#    y 0.000000 1.949500 0.000000 
#    z 0.000000 0.000000 1.869020 
# 
# From -- ./inp_files/25515.got.cif
#   From: 2010.05.17/outbox.cif.g08.bks.cpg/sg43_13_cif.got.tgz:25515.got - 2010.06.03 19:21:55.
