data_PCOD9370517
_publ_section_title
;
Structure prediction by ZEFSAII (Michael W. Deem and Ramdas Pophale) SiO2 
 PCOD9370517
Probable space group: F D D 2
;
_chemical_formula_sum "Si O2"
_cell_formula_units_Z 120
_cell_length_a 11.468376
_cell_length_b 17.143134
_cell_length_c 25.221596
_cell_angle_alpha 90.000000
_cell_angle_beta 90.000000
_cell_angle_gamma 90.000000
_cell_volume 4958.664303
_symmetry_space_group_name_H-M "F D D 2"
_symmetry_group_IT_number 43
_symmetry_cell_setting 'orthorhombic'
loop_
_space_group_symop_operation_xyz
x,y,z
-x,-y,z
1/4-x,1/4+y,1/4+z
1/4+x,1/4-y,1/4+z
x,1/2+y,1/2+z
-x,1/2-y,1/2+z
1/4-x,3/4+y,3/4+z
1/4+x,3/4-y,3/4+z
1/2+x,y,1/2+z
1/2-x,-y,1/2+z
3/4-x,1/4+y,3/4+z
3/4+x,1/4-y,3/4+z
1/2+x,1/2+y,z
1/2-x,1/2-y,z
3/4-x,3/4+y,1/4+z
3/4+x,3/4-y,1/4+z
loop_
_atom_site_type_symbol
_atom_site_label
_atom_site_fract_x
_atom_site_fract_y
_atom_site_fract_z
Si Si1 0.120735 0.538117 0.261800
Si Si2 0.529963 0.133721 0.755609
Si Si3 0.413421 0.832713 0.087911
Si Si4 0.000000 0.000000 0.419236
Si Si5 0.836273 0.985292 0.640935
Si Si6 0.016650 0.188258 0.786784
Si Si7 0.240673 0.343456 0.307063
Si Si8 0.859178 0.860734 0.412047
O O1 0.229628 0.545824 0.303675
O O2 0.139783 0.500409 0.203268
O O3 0.093000 0.629928 0.252406
O O4 0.000000 0.500000 0.283488
O O5 0.448122 0.095190 0.799636
O O6 0.503006 0.226782 0.761054
O O7 0.667575 0.128441 0.763607
O O8 0.490983 0.091793 0.702747
O O9 0.357920 0.780364 0.133868
O O10 0.422836 0.918400 0.116667
O O11 0.938950 0.924312 0.443321
O O12 0.704570 0.950344 0.642631
O O13 0.823656 0.049934 0.594983
O O14 0.892223 0.146773 0.793234
O O15 0.250000 0.250000 0.314654
O O16 0.288275 0.382971 0.359809
#
# Coordination Sequence:
#
# PCOD9370517 Si02
#       8
#    16  16  16   8  16  16  16  16
#     4  12  28  43  68 103 138 187 241 287 374 445
#     4  10  20  38  68  98 125 173 230 285 341 424
#     4  10  22  42  63  96 135 170 227 291 347 413
#     4  10  22  38  66  90 136 166 214 310 332 396
#     4  10  22  46  71 102 135 186 244 299 353 437
#     4  10  24  45  68  93 143 189 219 305 365 428
#     4  10  19  43  63  93 136 172 222 276 358 417
#     4  11  20  37  65 103 123 171 236 277 347 422
#
# _framework density 24.200066
#
# number of rings (size 3 to 8) (size 9 to 14) (size 15 to 20)
#    0.000    1.600    6.667    0.000    7.467    1.600 
#    6.000    0.000    2.933    0.000    0.000    0.000 
#    0.000    0.000    0.000    0.000    0.000    0.000 
#
# Total GULP energy -167323.680986 kJ/mol
# GULP energy per Si atom -5577.456033 kJ/mol
# Density = 2.414499 g / cm^3
# Si number density = 24.200066 Si / 1000 Ang^3
#
#
#
# Elastic Constant Matrix: (Units=GPa)
#
#
# Indices 1 2 3 4 5 6 
#
# 1 175.3896 32.6731 59.4929 0.0000 0.0000 0.0000
# 2 32.6731 61.9737 12.2337 0.0000 0.0000 0.0000
# 3 59.4929 12.2337 77.6178 0.0000 0.0000 0.0000
# 4 0.0000 0.0000 0.0000 -4.2562 0.0000 0.0000
# 5 0.0000 0.0000 0.0000 0.0000 42.4962 0.0000
# 6 0.0000 0.0000 0.0000 0.0000 0.0000 25.5893
#
#
#
# Elastic Compliance Matrix: (Units=1/GPa)
#
#
# Indices 1 2 3 4 5 6 
#
# 1 0.008282 -0.003213 -0.005841 0.000000 0.000000 0.000000
# 2 -0.003213 0.017901 -0.000359 0.000000 0.000000 0.000000
# 3 -0.005841 -0.000359 0.017417 0.000000 0.000000 0.000000
# 4 0.000000 0.000000 0.000000 -0.234951 0.000000 0.000000
# 5 0.000000 0.000000 0.000000 0.000000 0.023532 0.000000
# 6 0.000000 0.000000 0.000000 0.000000 0.000000 0.039079
#
#
# Mechanical properties :
#
#
# Convention : Reuss Voigt Hill
#
# Bulk Modulus (GPa) = 40.36544 58.19782 49.28163
# Shear Modulus (GPa) = -49.18495 26.80463 -11.19016
#
# Velocity S-wave (km/s) = -4.51314 3.33171 -2.15269
# Velocity P-wave (km/s) = 3.23138 6.23709 3.77223
#
# Compressibility (1/GPa) = 0.02477367
#
# Stress axis : x y z
#
# Youngs Moduli (GPa) = 120.75089 55.86406 57.41390
#
# Poissons Ratio (x) = 0.17949 0.33537
# Poissons Ratio (y) = 0.38797 0.02059
# Poissons Ratio (z) = 0.70533 0.02004
#
# Static dielectric constant tensor:
#      x y z
#    x 1.907160 0.000000 0.000000 
#    y 0.000000 2.148540 0.000000 
#    z 0.000000 0.000000 1.924220 
# 
# From -- ./inp_files/21225.got.cif
#   From: 2010.05.17/outbox.cif.g08.bks.cpg/sg43_11_cif.got.tgz:21225.got - 2010.06.03 19:21:55.
