data_PCOD9370427
_publ_section_title
;
Structure prediction by ZEFSAII (Michael W. Deem and Ramdas Pophale) SiO2 
 PCOD9370427
Probable space group: F D D 2
;
_chemical_formula_sum "Si O2"
_cell_formula_units_Z 120
_cell_length_a 28.748930
_cell_length_b 14.935357
_cell_length_c 13.769771
_cell_angle_alpha 90.000000
_cell_angle_beta 90.000000
_cell_angle_gamma 90.000000
_cell_volume 5912.402761
_symmetry_space_group_name_H-M "F D D 2"
_symmetry_group_IT_number 43
_symmetry_cell_setting 'orthorhombic'
loop_
_space_group_symop_operation_xyz
x,y,z
-x,-y,z
1/4-x,1/4+y,1/4+z
1/4+x,1/4-y,1/4+z
x,1/2+y,1/2+z
-x,1/2-y,1/2+z
1/4-x,3/4+y,3/4+z
1/4+x,3/4-y,3/4+z
1/2+x,y,1/2+z
1/2-x,-y,1/2+z
3/4-x,1/4+y,3/4+z
3/4+x,1/4-y,3/4+z
1/2+x,1/2+y,z
1/2-x,1/2-y,z
3/4-x,3/4+y,1/4+z
3/4+x,3/4-y,1/4+z
loop_
_atom_site_type_symbol
_atom_site_label
_atom_site_fract_x
_atom_site_fract_y
_atom_site_fract_z
Si Si1 0.195604 0.863380 0.159710
Si Si2 0.346976 0.865418 0.877291
Si Si3 0.797137 0.705032 0.448659
Si Si4 0.500000 0.500000 0.564048
Si Si5 0.973238 0.092782 0.843610
Si Si6 0.978565 0.717790 0.512517
Si Si7 0.120234 0.695112 0.665614
Si Si8 0.795045 0.416286 0.397574
O O1 0.142184 0.834347 0.163327
O O2 0.222158 0.814230 0.243837
O O3 0.200692 0.967140 0.188542
O O4 0.214498 0.837122 0.053556
O O5 0.330589 0.791018 0.952926
O O6 0.305889 0.929359 0.843817
O O7 0.364892 0.817157 0.778318
O O8 0.750000 0.750000 0.405183
O O9 0.828884 0.628549 0.397908
O O10 0.463419 0.562705 0.620018
O O11 0.917939 0.073025 0.858278
O O12 0.976722 0.164296 0.755831
O O13 0.993076 0.136076 0.942972
O O14 0.000000 0.000000 0.824397
O O15 0.017453 0.773259 0.569441
O O16 0.096294 0.791254 0.650722
#
# Coordination Sequence:
#
# PCOD9370427 Si02
#       8
#    16  16  16   8  16  16  16  16
#     4  10  19  38  57  84 124 162 203 255 314 371
#     4  10  20  36  59  93 122 158 205 268 315 373
#     4  11  20  34  63  94 119 155 206 260 316 369
#     4  10  22  40  60  84 120 178 206 258 314 394
#     4  11  23  43  67  93 130 171 214 264 322 389
#     4  10  23  39  63  91 126 167 208 259 323 381
#     4  10  22  38  63  92 127 163 209 266 322 375
#     4  11  22  43  64  88 129 171 213 262 322 383
#
# _framework density 20.296316999999998
#
# number of rings (size 3 to 8) (size 9 to 14) (size 15 to 20)
#    0.000    1.600    1.333    5.600    0.000    5.333 
#    2.400    1.333    0.000    0.000    0.000    0.000 
#    0.000    0.000    0.000    0.000    0.000    0.000 
#
# Total GULP energy -167193.487400 kJ/mol
# GULP energy per Si atom -5573.116247 kJ/mol
# Density = 2.025012 g / cm^3
# Si number density = 20.296317 Si / 1000 Ang^3
#
#
#
# Elastic Constant Matrix: (Units=GPa)
#
#
# Indices 1 2 3 4 5 6 
#
# 1 60.9734 20.9337 14.7927 0.0000 0.0000 0.0000
# 2 20.9337 84.4885 18.2315 0.0000 0.0000 0.0000
# 3 14.7927 18.2315 53.7343 0.0000 0.0000 0.0000
# 4 0.0000 0.0000 0.0000 42.5585 0.0000 0.0000
# 5 0.0000 0.0000 0.0000 0.0000 17.7820 0.0000
# 6 0.0000 0.0000 0.0000 0.0000 0.0000 31.1963
#
#
#
# Elastic Compliance Matrix: (Units=1/GPa)
#
#
# Indices 1 2 3 4 5 6 
#
# 1 0.018634 -0.003787 -0.003845 0.000000 0.000000 0.000000
# 2 -0.003787 0.013541 -0.003552 0.000000 0.000000 0.000000
# 3 -0.003845 -0.003552 0.020874 0.000000 0.000000 0.000000
# 4 0.000000 0.000000 0.000000 0.023497 0.000000 0.000000
# 5 0.000000 0.000000 0.000000 0.000000 0.056237 0.000000
# 6 0.000000 0.000000 0.000000 0.000000 0.000000 0.032055
#
#
# Mechanical properties :
#
#
# Convention : Reuss Voigt Hill
#
# Bulk Modulus (GPa) = 32.59380 34.12356 33.35868
# Shear Modulus (GPa) = 25.32533 27.98991 26.65762
#
# Velocity S-wave (km/s) = 3.53622 3.71760 3.62805
# Velocity P-wave (km/s) = 5.72425 5.93941 5.83282
#
# Compressibility (1/GPa) = 0.03068068
#
# Stress axis : x y z
#
# Youngs Moduli (GPa) = 53.66650 73.85153 47.90752
#
# Poissons Ratio (x) = 0.27969 0.18419
# Poissons Ratio (y) = 0.20325 0.17015
# Poissons Ratio (z) = 0.20633 0.26229
#
# Static dielectric constant tensor:
#      x y z
#    x 1.752400 0.000000 0.000000 
#    y 0.000000 1.711350 0.000000 
#    z 0.000000 0.000000 1.735700 
# 
# From -- ./inp_files/11734.got.cif
#   From: 2010.05.17/outbox.cif.g08.bks.cpg/sg43_6_cif.got.tgz:11734.got - 2010.06.03 19:21:55.
