data_PCOD9370964
_publ_section_title
;
Structure prediction by ZEFSAII (Michael W. Deem and Ramdas Pophale) SiO2 
 PCOD9370964
Probable space group: F D D 2
;
_chemical_formula_sum "Si O2"
_cell_formula_units_Z 72
_cell_length_a 13.601612
_cell_length_b 33.086567
_cell_length_c 6.995594
_cell_angle_alpha 90.000000
_cell_angle_beta 90.000000
_cell_angle_gamma 90.000000
_cell_volume 3148.231692
_symmetry_space_group_name_H-M "F D D 2"
_symmetry_group_IT_number 43
_symmetry_cell_setting 'orthorhombic'
loop_
_space_group_symop_operation_xyz
x,y,z
-x,-y,z
1/4-x,1/4+y,1/4+z
1/4+x,1/4-y,1/4+z
x,1/2+y,1/2+z
-x,1/2-y,1/2+z
1/4-x,3/4+y,3/4+z
1/4+x,3/4-y,3/4+z
1/2+x,y,1/2+z
1/2-x,-y,1/2+z
3/4-x,1/4+y,3/4+z
3/4+x,1/4-y,3/4+z
1/2+x,1/2+y,z
1/2-x,1/2-y,z
3/4-x,3/4+y,1/4+z
3/4+x,3/4-y,1/4+z
loop_
_atom_site_type_symbol
_atom_site_label
_atom_site_fract_x
_atom_site_fract_y
_atom_site_fract_z
Si Si1 0.454478 0.349979 0.814490
Si Si2 0.250000 0.250000 0.998618
Si Si3 0.997948 0.919177 0.541636
Si Si4 0.208935 0.059272 0.404198
Si Si5 0.037104 0.277959 0.078289
O O1 0.348285 0.348055 0.711112
O O2 0.487798 0.393059 0.736893
O O3 0.514955 0.312342 0.730633
O O4 0.469500 0.339818 0.038976
O O5 0.223082 0.213421 0.861026
O O6 0.150005 0.263133 0.101856
O O7 0.902452 0.923201 0.409635
O O8 0.228451 0.051367 0.628492
O O9 0.221890 0.012763 0.331029
#
# Coordination Sequence:
#
# PCOD9370964 Si02
#       5
#    16   8  16  16  16
#     4  12  25  47  70 105 149 192 247 308 365 452
#     4  10  20  44  68 102 140 184 232 308 358 430
#     4  11  24  43  72 103 147 187 243 306 363 442
#     4  11  23  45  73 105 139 195 236 304 377 428
#     4  11  22  45  74 105 145 187 250 301 369 453
#
# _framework density 22.869980000000002
#
# number of rings (size 3 to 8) (size 9 to 14) (size 15 to 20)
#    0.000    0.889    4.444    4.000    0.000    3.556 
#    4.000    1.111    0.000    0.000    0.000    0.000 
#    0.000    0.000    0.000    0.000    0.000    0.000 
#
# Total GULP energy -100301.248416 kJ/mol
# GULP energy per Si atom -5572.291579 kJ/mol
# Density = 2.281793 g / cm^3
# Si number density = 22.869980 Si / 1000 Ang^3
#
#
#
# Elastic Constant Matrix: (Units=GPa)
#
#
# Indices 1 2 3 4 5 6 
#
# 1 110.0641 -5.6374 23.2567 0.0000 0.0000 0.0000
# 2 -5.6374 81.1784 15.6565 0.0000 0.0000 0.0000
# 3 23.2567 15.6565 47.6231 0.0000 0.0000 0.0000
# 4 0.0000 0.0000 0.0000 45.4660 0.0000 0.0000
# 5 0.0000 0.0000 0.0000 0.0000 -18.3152 0.0000
# 6 0.0000 0.0000 0.0000 0.0000 0.0000 120.2221
#
#
#
# Elastic Compliance Matrix: (Units=1/GPa)
#
#
# Indices 1 2 3 4 5 6 
#
# 1 0.010375 0.001813 -0.005662 0.000000 0.000000 0.000000
# 2 0.001813 0.013469 -0.005313 0.000000 0.000000 0.000000
# 3 -0.005662 -0.005313 0.025510 0.000000 0.000000 0.000000
# 4 0.000000 0.000000 0.000000 0.021994 0.000000 0.000000
# 5 0.000000 0.000000 0.000000 0.000000 -0.054600 0.000000
# 6 0.000000 0.000000 0.000000 0.000000 0.000000 0.008318
#
#
# Mechanical properties :
#
#
# Convention : Reuss Voigt Hill
#
# Bulk Modulus (GPa) = 32.22895 33.93525 33.08210
# Shear Modulus (GPa) = 93.04694 43.18056 68.11375
#
# Velocity S-wave (km/s) = 6.38541 4.34993 5.46330
# Velocity P-wave (km/s) = 8.27572 6.33243 7.36842
#
# Compressibility (1/GPa) = 0.03102800
#
# Stress axis : x y z
#
# Youngs Moduli (GPa) = 96.38611 74.24359 39.19989
#
# Poissons Ratio (x) = -0.13457 0.22197
# Poissons Ratio (y) = -0.17471 0.20828
# Poissons Ratio (z) = 0.54579 0.39448
#
# Static dielectric constant tensor:
#      x y z
#    x 2.057730 0.000000 0.000000 
#    y 0.000000 1.805200 0.000000 
#    z 0.000000 0.000000 1.898070 
# 
# From -- ./inp_files/2407.got.cif
#   From: 2010.05.17/outbox.cif.g08.bks.cpg/sg43_2_cif.got.tgz:2407.got - 2010.06.03 19:21:55.
