data_PCOD9370013
_publ_section_title
;
Structure prediction by ZEFSAII (Michael W. Deem and Ramdas Pophale) SiO2 
 PCOD9370013
Probable space group: F M M 2
;
_chemical_formula_sum "Si O2"
_cell_formula_units_Z 28
_cell_length_a 24.000000
_cell_length_b 15.000000
_cell_length_c 15.000000
_cell_angle_alpha 90.000000
_cell_angle_beta 90.000000
_cell_angle_gamma 90.000000
_cell_volume 5400.000000
_symmetry_space_group_name_H-M "F M M 2"
_symmetry_group_IT_number 42
_symmetry_cell_setting 'orthorhombic'
loop_
_space_group_symop_operation_xyz
x,y,z
-x,-y,z
-x,y,z
x,-y,z
x,1/2+y,1/2+z
-x,1/2-y,1/2+z
-x,1/2+y,1/2+z
x,1/2-y,1/2+z
1/2+x,y,1/2+z
1/2-x,-y,1/2+z
1/2-x,y,1/2+z
1/2+x,-y,1/2+z
1/2+x,1/2+y,z
1/2-x,1/2-y,z
1/2-x,1/2+y,z
1/2+x,1/2-y,z
loop_
_atom_site_type_symbol
_atom_site_label
_atom_site_fract_x
_atom_site_fract_y
_atom_site_fract_z
Si Si1 0.563572 0.393031 0.536910
Si Si2 0.936408 0.222711 0.718303
Si Si3 0.152132 0.099909 0.811314
Si Si4 0.232625 0.149659 0.264274
Si Si5 0.185066 0.108304 0.456891
Si Si6 0.802541 0.893041 0.007913
Si Si7 0.876187 0.102964 0.159966
O O1 0.500000 0.379460 0.497975
O O2 0.567232 0.500000 0.556384
O O3 0.565425 0.333759 0.626133
O O4 0.621124 0.370908 0.483434
O O5 0.892046 0.172520 0.780571
O O6 0.917401 0.324673 0.701985
O O7 0.000000 0.219628 0.751522
O O8 0.208819 0.099337 0.753980
O O9 0.178073 0.122368 0.907202
O O10 0.127788 0.000000 0.812031
O O11 0.250000 0.250000 0.240603
O O12 0.205098 0.148190 0.362935
O O13 0.183349 0.106179 0.208968
O O14 0.237846 0.135803 0.520334
O O15 0.187818 0.000000 0.448594
O O16 0.802380 0.000000 0.022413
O O17 0.854439 0.859481 0.065524
O O18 0.896482 0.000000 0.157570
#
# Coordination Sequence:
#
# PCOD9370013 Si02
#       7
#    16  16  16  16  16  16  16
#     4   9  19  36  58  88 128 170 211 257 309 369
#     4  11  24  41  61  90 123 163 216 259 306 372
#     4  10  20  39  64  92 126 157 198 260 320 371
#     4  11  21  36  60  93 125 160 202 256 315 371
#     4   9  18  34  57  88 126 166 206 251 307 372
#     4   8  18  35  60  92 120 154 200 254 315 373
#     4  11  23  41  63  88 125 165 208 257 313 377
#
# _framework density 5.1851849999999997
#
# number of rings (size 3 to 8) (size 9 to 14) (size 15 to 20)
#    0.000    2.143    1.429    2.571    2.000    3.429 
#    0.000    2.143    0.000    4.286    0.000    0.000 
#    0.000    0.000    0.000    0.000    0.000    0.000 
#
# Total GULP energy -156041.385610 kJ/mol
# GULP energy per Si atom -5572.906629 kJ/mol
# Density = 0.517338 g / cm^3
# Si number density = 5.185185 Si / 1000 Ang^3
#
#
#
# Elastic Constant Matrix: (Units=GPa)
#
#
# Indices 1 2 3 4 5 6 
#
# 1 131.8276 44.0728 12.5834 0.0000 0.0000 0.0000
# 2 44.0728 90.9339 16.5094 0.0000 0.0000 0.0000
# 3 12.5834 16.5094 25.3044 0.0000 0.0000 0.0000
# 4 0.0000 0.0000 0.0000 31.2781 0.0000 0.0000
# 5 0.0000 0.0000 0.0000 0.0000 17.7599 0.0000
# 6 0.0000 0.0000 0.0000 0.0000 0.0000 6.7771
#
#
#
# Elastic Compliance Matrix: (Units=1/GPa)
#
#
# Indices 1 2 3 4 5 6 
#
# 1 0.009130 -0.004085 -0.001875 0.000000 0.000000 0.000000
# 2 -0.004085 0.014302 -0.007300 0.000000 0.000000 0.000000
# 3 -0.001875 -0.007300 0.045214 0.000000 0.000000 0.000000
# 4 0.000000 0.000000 0.000000 0.031971 0.000000 0.000000
# 5 0.000000 0.000000 0.000000 0.000000 0.056306 0.000000
# 6 0.000000 0.000000 0.000000 0.000000 0.000000 0.147555
#
#
# Mechanical properties :
#
#
# Convention : Reuss Voigt Hill
#
# Bulk Modulus (GPa) = 23.73799 43.82190 33.77994
# Shear Modulus (GPa) = 14.49103 22.82305 18.65704
#
# Velocity S-wave (km/s) = 2.64611 3.32082 3.00248
# Velocity P-wave (km/s) = 4.56134 5.98983 5.32372
#
# Compressibility (1/GPa) = 0.04212657
#
# Stress axis : x y z
#
# Youngs Moduli (GPa) = 109.52580 69.92006 22.11704
#
# Poissons Ratio (x) = 0.28560 0.04148
# Poissons Ratio (y) = 0.44738 0.16145
# Poissons Ratio (z) = 0.20540 0.51041
#
# Static dielectric constant tensor:
#      x y z
#    x 1.736590 0.000000 0.000000 
#    y 0.000000 1.728610 0.000000 
#    z 0.000000 0.000000 1.945440 
# 
# From -- ./inp_files/16545.got.cif
#   From: 2010.05.17/outbox.ucp.g08.bks.cvg/sg42_9_cif.got.tgz:16545.got - 2010.06.11 16:29:10.
