data_PCOD9370165
_publ_section_title
;
Structure prediction by ZEFSAII (Michael W. Deem and Ramdas Pophale) SiO2 
 PCOD9370165
Probable space group: F D D 2
;
_chemical_formula_sum "Si O2"
_cell_formula_units_Z 120
_cell_length_a 17.166651
_cell_length_b 11.799253
_cell_length_c 28.020420
_cell_angle_alpha 90.000000
_cell_angle_beta 90.000000
_cell_angle_gamma 90.000000
_cell_volume 5675.638578
_symmetry_space_group_name_H-M "F D D 2"
_symmetry_group_IT_number 43
_symmetry_cell_setting 'orthorhombic'
loop_
_space_group_symop_operation_xyz
x,y,z
-x,-y,z
1/4-x,1/4+y,1/4+z
1/4+x,1/4-y,1/4+z
x,1/2+y,1/2+z
-x,1/2-y,1/2+z
1/4-x,3/4+y,3/4+z
1/4+x,3/4-y,3/4+z
1/2+x,y,1/2+z
1/2-x,-y,1/2+z
3/4-x,1/4+y,3/4+z
3/4+x,1/4-y,3/4+z
1/2+x,1/2+y,z
1/2-x,1/2-y,z
3/4-x,3/4+y,1/4+z
3/4+x,3/4-y,1/4+z
loop_
_atom_site_type_symbol
_atom_site_label
_atom_site_fract_x
_atom_site_fract_y
_atom_site_fract_z
Si Si1 0.024049 0.739027 0.520840
Si Si2 0.882403 0.823477 0.585308
Si Si3 0.586084 0.758162 0.684574
Si Si4 0.083782 0.169413 0.329776
Si Si5 0.841381 0.793182 0.783594
Si Si6 0.307496 0.516960 0.177385
Si Si7 0.302009 0.136360 0.473858
Si Si8 0.750000 0.750000 0.310153
O O1 0.084030 0.824351 0.546252
O O2 0.943085 0.775466 0.546040
O O3 0.013259 0.765066 0.464765
O O4 0.031809 0.606478 0.530203
O O5 0.912009 0.823861 0.639381
O O6 0.825439 0.715865 0.586827
O O7 0.867231 0.949550 0.566720
O O8 0.612954 0.706111 0.734135
O O9 0.500719 0.810795 0.689638
O O10 0.646547 0.863572 0.680614
O O11 0.039133 0.237781 0.371120
O O12 0.066158 0.179723 0.273595
O O13 0.174890 0.204067 0.338466
O O14 0.750000 0.750000 0.778813
O O15 0.368548 0.424975 0.198228
O O16 0.250000 0.250000 0.483523
#
# Coordination Sequence:
#
# PCOD9370165 Si02
#       8
#    16  16  16  16  16  16  16   8
#     4  10  19  36  58  79 114 151 197 245 282 353
#     4   9  17  32  53  84 111 143 195 237 292 349
#     4  10  19  31  56  83 114 152 187 239 304 350
#     4  10  20  33  56  85 114 149 196 250 292 343
#     4  10  18  36  56  79 117 152 188 240 287 353
#     4  10  18  33  52  87 113 148 193 248 299 336
#     4  10  19  34  54  85 123 147 190 256 297 343
#     4  10  20  36  62  82 108 154 208 238 280 354
#
# _framework density 21.142994000000002
#
# number of rings (size 3 to 8) (size 9 to 14) (size 15 to 20)
#    0.000    2.133    5.333    0.800    6.533    0.000 
#    7.200    0.000   11.733    0.000    0.000    0.000 
#    0.000    0.000    0.000    0.000    0.000    0.000 
#
# Total GULP energy -167053.130893 kJ/mol
# GULP energy per Si atom -5568.437696 kJ/mol
# Density = 2.109487 g / cm^3
# Si number density = 21.142994 Si / 1000 Ang^3
#
#
#
# Elastic Constant Matrix: (Units=GPa)
#
#
# Indices 1 2 3 4 5 6 
#
# 1 46.3168 14.4754 9.5995 0.0000 0.0000 0.0000
# 2 14.4754 116.7927 44.1623 0.0000 0.0000 0.0000
# 3 9.5995 44.1623 136.1723 0.0000 0.0000 0.0000
# 4 0.0000 0.0000 0.0000 14.9069 0.0000 0.0000
# 5 0.0000 0.0000 0.0000 0.0000 8.7867 0.0000
# 6 0.0000 0.0000 0.0000 0.0000 0.0000 -5.3393
#
#
#
# Elastic Compliance Matrix: (Units=1/GPa)
#
#
# Indices 1 2 3 4 5 6 
#
# 1 0.022533 -0.002498 -0.000778 0.000000 0.000000 0.000000
# 2 -0.002498 0.010036 -0.003079 0.000000 0.000000 0.000000
# 3 -0.000778 -0.003079 0.008397 0.000000 0.000000 0.000000
# 4 0.000000 0.000000 0.000000 0.067083 0.000000 0.000000
# 5 0.000000 0.000000 0.000000 0.000000 0.113808 0.000000
# 6 0.000000 0.000000 0.000000 0.000000 0.000000 -0.187292
#
#
# Mechanical properties :
#
#
# Convention : Reuss Voigt Hill
#
# Bulk Modulus (GPa) = 35.39205 48.41735 41.90470
# Shear Modulus (GPa) = 88.19226 19.07383 53.63305
#
# Velocity S-wave (km/s) = 6.46551 3.00681 5.04201
# Velocity P-wave (km/s) = 8.51545 5.91644 7.33202
#
# Compressibility (1/GPa) = 0.02825493
#
# Stress axis : x y z
#
# Youngs Moduli (GPa) = 44.38019 99.64174 119.09101
#
# Poissons Ratio (x) = 0.24895 0.09267
# Poissons Ratio (y) = 0.11088 0.36664
# Poissons Ratio (z) = 0.03453 0.30676
#
# Static dielectric constant tensor:
#      x y z
#    x 1.833090 0.000000 0.000000 
#    y 0.000000 1.798310 0.000000 
#    z 0.000000 0.000000 1.831250 
# 
# From -- ./inp_files/26463.got.cif
#   From: 2010.05.17/outbox.cif.g08.bks.cpg/sg43_14_cif.got.tgz:26463.got - 2010.06.03 19:21:55.
