data_PCOD9370882
_publ_section_title
;
Structure prediction by ZEFSAII (Michael W. Deem and Ramdas Pophale) SiO2 
 PCOD9370882
Probable space group: F D D 2
;
_chemical_formula_sum "Si O2"
_cell_formula_units_Z 120
_cell_length_a 25.521721
_cell_length_b 8.715471
_cell_length_c 27.381534
_cell_angle_alpha 90.000000
_cell_angle_beta 90.000000
_cell_angle_gamma 90.000000
_cell_volume 6090.579184
_symmetry_space_group_name_H-M "F D D 2"
_symmetry_group_IT_number 43
_symmetry_cell_setting 'orthorhombic'
loop_
_space_group_symop_operation_xyz
x,y,z
-x,-y,z
1/4-x,1/4+y,1/4+z
1/4+x,1/4-y,1/4+z
x,1/2+y,1/2+z
-x,1/2-y,1/2+z
1/4-x,3/4+y,3/4+z
1/4+x,3/4-y,3/4+z
1/2+x,y,1/2+z
1/2-x,-y,1/2+z
3/4-x,1/4+y,3/4+z
3/4+x,1/4-y,3/4+z
1/2+x,1/2+y,z
1/2-x,1/2-y,z
3/4-x,3/4+y,1/4+z
3/4+x,3/4-y,1/4+z
loop_
_atom_site_type_symbol
_atom_site_label
_atom_site_fract_x
_atom_site_fract_y
_atom_site_fract_z
Si Si1 0.326703 0.466585 0.058980
Si Si2 0.753124 0.564583 0.138235
Si Si3 0.661781 0.033606 0.306179
Si Si4 0.847214 0.568190 0.965273
Si Si5 0.366348 0.953936 0.113417
Si Si6 0.490945 0.682352 0.999187
Si Si7 0.000000 0.000000 0.747886
Si Si8 0.379487 0.012127 0.765441
O O1 0.296930 0.502712 0.109629
O O2 0.380953 0.374742 0.066964
O O3 0.286855 0.353068 0.031869
O O4 0.336861 0.609743 0.023787
O O5 0.750000 0.750000 0.137668
O O6 0.806899 0.515087 0.113133
O O7 0.756375 0.516042 0.194593
O O8 0.721174 0.008437 0.289186
O O9 0.631528 0.106855 0.259305
O O10 0.653072 0.150148 0.350842
O O11 0.870779 0.621278 0.913945
O O12 0.789100 0.639240 0.968727
O O13 0.849126 0.387091 0.977053
O O14 0.371847 0.840008 0.068474
O O15 0.500000 0.500000 0.002357
O O16 0.430014 0.718388 0.003709
#
# Coordination Sequence:
#
# PCOD9370882 Si02
#       8
#    16  16  16  16  16  16   8  16
#     4  11  20  41  65  98 130 172 223 290 339 408
#     4  11  21  38  71 100 122 171 240 283 339 418
#     4  10  20  41  68  92 134 174 228 279 338 406
#     4  10  23  42  61  97 129 177 226 278 342 414
#     4  11  23  42  65  97 133 176 227 285 340 419
#     4  11  23  41  67  98 134 183 226 288 354 411
#     4  10  22  40  68  86 130 172 226 278 342 414
#     4  11  26  40  63  96 143 172 222 295 351 405
#
# _framework density 19.702559000000001
#
# number of rings (size 3 to 8) (size 9 to 14) (size 15 to 20)
#    0.000    1.333    4.667    1.600    1.867    5.333 
#    0.000    0.000    2.933    0.000    0.000    0.000 
#    0.000    0.000    0.000    0.000    0.000    0.000 
#
# Total GULP energy -167560.281548 kJ/mol
# GULP energy per Si atom -5585.342718 kJ/mol
# Density = 1.965772 g / cm^3
# Si number density = 19.702559 Si / 1000 Ang^3
#
#
#
# Elastic Constant Matrix: (Units=GPa)
#
#
# Indices 1 2 3 4 5 6 
#
# 1 95.3256 39.5929 19.0964 0.0002 0.0000 0.0000
# 2 39.5929 102.7589 32.4546 0.0003 0.0000 -0.0001
# 3 19.0964 32.4546 72.6424 0.0000 0.0000 0.0000
# 4 0.0002 0.0003 0.0000 -56.2470 -0.0002 -0.0002
# 5 0.0000 0.0000 0.0000 -0.0002 23.4061 0.0000
# 6 0.0000 -0.0001 0.0000 -0.0002 0.0000 28.2301
#
#
#
# Elastic Compliance Matrix: (Units=1/GPa)
#
#
# Indices 1 2 3 4 5 6 
#
# 1 0.012599 -0.004434 -0.001331 0.000000 0.000000 0.000000
# 2 -0.004434 0.012891 -0.004594 0.000000 0.000000 0.000000
# 3 -0.001331 -0.004594 0.016168 0.000000 0.000000 0.000000
# 4 0.000000 0.000000 0.000000 -0.017779 0.000000 0.000000
# 5 0.000000 0.000000 0.000000 0.000000 0.042724 0.000000
# 6 0.000000 0.000000 0.000000 0.000000 0.000000 0.035423
#
#
# Mechanical properties :
#
#
# Convention : Reuss Voigt Hill
#
# Bulk Modulus (GPa) = 47.75422 50.33496 49.04459
# Shear Modulus (GPa) = 38.54367 11.05005 24.79686
#
# Velocity S-wave (km/s) = 4.42778 2.37078 3.55147
# Velocity P-wave (km/s) = 7.10144 5.75300 6.46249
#
# Compressibility (1/GPa) = 0.02094056
#
# Stress axis : x y z
#
# Youngs Moduli (GPa) = 79.37415 77.57541 61.84959
#
# Poissons Ratio (x) = 0.34396 0.08232
# Poissons Ratio (y) = 0.35193 0.28411
# Poissons Ratio (z) = 0.10565 0.35635
#
# Static dielectric constant tensor:
#      x y z
#    x 1.260650 0.000010 0.000000 
#    y 0.000010 1.801250 0.000000 
#    z 0.000000 0.000000 1.686690 
# 
# From -- ./inp_files/22826.got.cif
#   From: 2010.05.17/outbox.cif.g08.bks.cpg/sg43_12_cif.got.tgz:22826.got - 2010.06.03 19:21:55.
