data_PCOD9370374
_publ_section_title
;
Structure prediction by ZEFSAII (Michael W. Deem and Ramdas Pophale) SiO2 
 PCOD9370374
Probable space group: F D D 2
;
_chemical_formula_sum "Si O2"
_cell_formula_units_Z 80
_cell_length_a 24.436670
_cell_length_b 12.113939
_cell_length_c 10.870942
_cell_angle_alpha 90.000000
_cell_angle_beta 90.000000
_cell_angle_gamma 90.000000
_cell_volume 3218.063319
_symmetry_space_group_name_H-M "F D D 2"
_symmetry_group_IT_number 43
_symmetry_cell_setting 'orthorhombic'
loop_
_space_group_symop_operation_xyz
x,y,z
-x,-y,z
1/4-x,1/4+y,1/4+z
1/4+x,1/4-y,1/4+z
x,1/2+y,1/2+z
-x,1/2-y,1/2+z
1/4-x,3/4+y,3/4+z
1/4+x,3/4-y,3/4+z
1/2+x,y,1/2+z
1/2-x,-y,1/2+z
3/4-x,1/4+y,3/4+z
3/4+x,1/4-y,3/4+z
1/2+x,1/2+y,z
1/2-x,1/2-y,z
3/4-x,3/4+y,1/4+z
3/4+x,3/4-y,1/4+z
loop_
_atom_site_type_symbol
_atom_site_label
_atom_site_fract_x
_atom_site_fract_y
_atom_site_fract_z
Si Si1 0.303703 0.203771 0.136620
Si Si2 0.013759 0.783738 0.318559
Si Si3 0.844719 0.432515 0.558345
Si Si4 0.542793 0.085624 0.022741
Si Si5 0.395696 0.042860 0.801547
O O1 0.250000 0.250000 0.205876
O O2 0.203702 0.986240 0.011555
O O3 0.320727 0.309681 0.057206
O O4 0.289244 0.086738 0.078896
O O5 0.895852 0.935502 0.972777
O O6 0.996662 0.825368 0.455837
O O7 0.055887 0.871837 0.261970
O O8 0.868104 0.471551 0.692021
O O9 0.500000 0.000000 0.080833
O O10 0.575301 0.026306 0.909168
O O11 0.592979 0.137433 0.097039
#
# Coordination Sequence:
#
# PCOD9370374 Si02
#       5
#    16  16  16  16  16
#     4  10  22  37  56  81 114 147 182 228 283 336
#     4   9  20  37  55  80 114 146 180 231 283 331
#     4  10  20  37  57  83 111 146 188 229 277 336
#     4   9  19  35  55  82 112 143 181 230 278 327
#     4  10  19  36  60  82 110 146 186 230 276 330
#
# _framework density 24.859672
#
# number of rings (size 3 to 8) (size 9 to 14) (size 15 to 20)
#    0.000    2.400    0.000    2.400    0.000    7.200 
#    0.000    2.000    0.000    0.000    0.000    0.000 
#    0.000    0.000    0.000    0.000    0.000    0.000 
#
# Total GULP energy -111750.183377 kJ/mol
# GULP energy per Si atom -5587.509169 kJ/mol
# Density = 2.480309 g / cm^3
# Si number density = 24.859672 Si / 1000 Ang^3
#
#
#
# Elastic Constant Matrix: (Units=GPa)
#
#
# Indices 1 2 3 4 5 6 
#
# 1 173.4964 77.0358 63.5202 0.0000 0.0000 0.0000
# 2 77.0358 148.2934 30.3320 0.0000 0.0000 0.0000
# 3 63.5202 30.3320 42.7884 0.0000 0.0000 0.0000
# 4 0.0000 0.0000 0.0000 27.6434 0.0000 0.0000
# 5 0.0000 0.0000 0.0000 0.0000 40.3880 0.0000
# 6 0.0000 0.0000 0.0000 0.0000 0.0000 63.2431
#
#
#
# Elastic Compliance Matrix: (Units=1/GPa)
#
#
# Indices 1 2 3 4 5 6 
#
# 1 0.014061 -0.003550 -0.018357 0.000000 0.000000 0.000000
# 2 -0.003550 0.008783 -0.000957 0.000000 0.000000 0.000000
# 3 -0.018357 -0.000957 0.051301 0.000000 0.000000 0.000000
# 4 0.000000 0.000000 0.000000 0.036175 0.000000 0.000000
# 5 0.000000 0.000000 0.000000 0.000000 0.024760 0.000000
# 6 0.000000 0.000000 0.000000 0.000000 0.000000 0.015812
#
#
# Mechanical properties :
#
#
# Convention : Reuss Voigt Hill
#
# Bulk Modulus (GPa) = 35.18968 78.48381 56.83674
# Shear Modulus (GPa) = 24.26104 39.16756 31.71430
#
# Velocity S-wave (km/s) = 3.12736 3.97362 3.57562
# Velocity P-wave (km/s) = 5.21791 7.25894 6.32134
#
# Compressibility (1/GPa) = 0.02841743
#
# Stress axis : x y z
#
# Youngs Moduli (GPa) = 71.11945 113.85618 19.49279
#
# Poissons Ratio (x) = 0.40414 0.35784
# Poissons Ratio (y) = 0.25244 0.01865
# Poissons Ratio (z) = 1.30557 0.10894
#
# Static dielectric constant tensor:
#      x y z
#    x 1.945180 0.000000 0.000000 
#    y 0.000000 1.990590 0.000000 
#    z 0.000000 0.000000 2.010760 
# 
# From -- ./inp_files/11183.got.cif
#   From: 2010.05.17/outbox.cif.g08.bks.cpg/sg43_6_cif.got.tgz:11183.got - 2010.06.03 19:21:55.
