data_PCOD9370758
_publ_section_title
;
Structure prediction by ZEFSAII (Michael W. Deem and Ramdas Pophale) SiO2 
 PCOD9370758
Probable space group: F D D 2
;
_chemical_formula_sum "Si O2"
_cell_formula_units_Z 112
_cell_length_a 28.731372
_cell_length_b 10.925315
_cell_length_c 15.427105
_cell_angle_alpha 90.000000
_cell_angle_beta 90.000000
_cell_angle_gamma 90.000000
_cell_volume 4842.557298
_symmetry_space_group_name_H-M "F D D 2"
_symmetry_group_IT_number 43
_symmetry_cell_setting 'orthorhombic'
loop_
_space_group_symop_operation_xyz
x,y,z
-x,-y,z
1/4-x,1/4+y,1/4+z
1/4+x,1/4-y,1/4+z
x,1/2+y,1/2+z
-x,1/2-y,1/2+z
1/4-x,3/4+y,3/4+z
1/4+x,3/4-y,3/4+z
1/2+x,y,1/2+z
1/2-x,-y,1/2+z
3/4-x,1/4+y,3/4+z
3/4+x,1/4-y,3/4+z
1/2+x,1/2+y,z
1/2-x,1/2-y,z
3/4-x,3/4+y,1/4+z
3/4+x,3/4-y,1/4+z
loop_
_atom_site_type_symbol
_atom_site_label
_atom_site_fract_x
_atom_site_fract_y
_atom_site_fract_z
Si Si1 0.932300 0.092383 0.108010
Si Si2 0.427286 0.583225 0.665705
Si Si3 0.250000 0.250000 0.497100
Si Si4 0.185334 0.378812 0.240175
Si Si5 0.354398 0.695349 0.564694
Si Si6 0.250000 0.250000 0.791483
Si Si7 0.472014 0.266966 0.471253
Si Si8 0.324775 0.048017 0.556473
O O1 0.876196 0.088124 0.090594
O O2 0.961039 0.083719 0.196969
O O3 0.949777 0.967795 0.061867
O O4 0.949769 0.207542 0.055129
O O5 0.385369 0.578610 0.594537
O O6 0.427742 0.466446 0.730635
O O7 0.471923 0.586638 0.606029
O O8 0.422870 0.708091 0.722759
O O9 0.286246 0.153378 0.540432
O O10 0.173580 0.298943 0.154608
O O11 0.143351 0.454492 0.285562
O O12 0.225058 0.473034 0.214504
O O13 0.280758 0.162453 0.732532
O O14 0.445378 0.222476 0.386744
#
# Coordination Sequence:
#
# PCOD9370758 Si02
#       8
#    16  16   8  16  16   8  16  16
#     4  12  23  44  76 105 139 188 249 303 364 431
#     4  11  23  42  72  99 135 178 238 295 355 423
#     4  12  25  44  71 108 144 192 234 308 371 428
#     4  11  21  41  70 107 138 176 234 303 355 417
#     4  10  20  39  68 104 135 171 225 300 356 408
#     4  12  27  48  63  98 150 192 222 296 371 432
#     4  12  26  46  69 101 147 193 232 291 366 440
#     4  12  26  44  73 103 145 187 250 299 363 444
#
# _framework density 23.128276
#
# number of rings (size 3 to 8) (size 9 to 14) (size 15 to 20)
#    0.000    0.571    5.714    3.857    2.000    0.000 
#    2.571    2.857    0.000    0.000    0.000    0.000 
#    0.000    0.000    0.000    0.000    0.000    0.000 
#
# Total GULP energy -155896.421635 kJ/mol
# GULP energy per Si atom -5567.729344 kJ/mol
# Density = 2.307564 g / cm^3
# Si number density = 23.128276 Si / 1000 Ang^3
#
#
#
# Elastic Constant Matrix: (Units=GPa)
#
#
# Indices 1 2 3 4 5 6 
#
# 1 123.5878 25.4137 44.1393 0.0000 0.0000 0.0000
# 2 25.4137 63.6069 33.0188 0.0000 0.0000 0.0000
# 3 44.1393 33.0188 106.9693 0.0000 0.0000 0.0000
# 4 0.0000 0.0000 0.0000 33.9263 0.0000 0.0000
# 5 0.0000 0.0000 0.0000 0.0000 -1.4039 0.0000
# 6 0.0000 0.0000 0.0000 0.0000 0.0000 29.6484
#
#
#
# Elastic Compliance Matrix: (Units=1/GPa)
#
#
# Indices 1 2 3 4 5 6 
#
# 1 0.009730 -0.002148 -0.003352 0.000000 0.000000 0.000000
# 2 -0.002148 0.019195 -0.005039 0.000000 0.000000 0.000000
# 3 -0.003352 -0.005039 0.012287 0.000000 0.000000 0.000000
# 4 0.000000 0.000000 0.000000 0.029476 0.000000 0.000000
# 5 0.000000 0.000000 0.000000 0.000000 -0.712303 0.000000
# 6 0.000000 0.000000 0.000000 0.000000 0.000000 0.033729
#
#
# Mechanical properties :
#
#
# Convention : Reuss Voigt Hill
#
# Bulk Modulus (GPa) = 49.66385 55.47862 52.57123
# Shear Modulus (GPa) = -8.61925 25.20698 8.29386
#
# Velocity S-wave (km/s) = -1.93256 3.30491 1.89574
# Velocity P-wave (km/s) = 4.06695 6.21310 5.25085
#
# Compressibility (1/GPa) = 0.02013537
#
# Stress axis : x y z
#
# Youngs Moduli (GPa) = 102.77246 52.09592 81.38618
#
# Poissons Ratio (x) = 0.11188 0.27282
# Poissons Ratio (y) = 0.22071 0.41010
# Poissons Ratio (z) = 0.34451 0.26251
#
# Static dielectric constant tensor:
#      x y z
#    x 1.948170 0.000000 0.000000 
#    y 0.000000 1.908740 0.000000 
#    z 0.000000 0.000000 1.893090 
# 
# From -- ./inp_files/11686.got.cif
#   From: 2010.05.17/outbox.cif.g08.bks.cpg/sg43_6_cif.got.tgz:11686.got - 2010.06.03 19:21:55.
