data_PCOD9370496
_publ_section_title
;
Structure prediction by ZEFSAII (Michael W. Deem and Ramdas Pophale) SiO2 
 PCOD9370496
Probable space group: F D D 2
;
_chemical_formula_sum "Si O2"
_cell_formula_units_Z 112
_cell_length_a 13.596209
_cell_length_b 24.778381
_cell_length_c 13.065436
_cell_angle_alpha 90.000000
_cell_angle_beta 90.000000
_cell_angle_gamma 90.000000
_cell_volume 4401.641476
_symmetry_space_group_name_H-M "F D D 2"
_symmetry_group_IT_number 43
_symmetry_cell_setting 'orthorhombic'
loop_
_space_group_symop_operation_xyz
x,y,z
-x,-y,z
1/4-x,1/4+y,1/4+z
1/4+x,1/4-y,1/4+z
x,1/2+y,1/2+z
-x,1/2-y,1/2+z
1/4-x,3/4+y,3/4+z
1/4+x,3/4-y,3/4+z
1/2+x,y,1/2+z
1/2-x,-y,1/2+z
3/4-x,1/4+y,3/4+z
3/4+x,1/4-y,3/4+z
1/2+x,1/2+y,z
1/2-x,1/2-y,z
3/4-x,3/4+y,1/4+z
3/4+x,3/4-y,1/4+z
loop_
_atom_site_type_symbol
_atom_site_label
_atom_site_fract_x
_atom_site_fract_y
_atom_site_fract_z
Si Si1 0.634150 0.080841 0.082570
Si Si2 0.179222 0.358146 0.611601
Si Si3 0.006286 0.641797 0.361243
Si Si4 0.541295 0.611865 0.067490
Si Si5 0.500000 0.000000 0.453565
Si Si6 0.624936 0.035190 0.287750
Si Si7 0.438601 0.306043 0.664330
Si Si8 0.000000 0.000000 0.356276
O O1 0.752876 0.091197 0.078204
O O2 0.614642 0.033249 0.165042
O O3 0.606795 0.136149 0.140510
O O4 0.567424 0.087703 0.981139
O O5 0.064088 0.370425 0.607420
O O6 0.219516 0.305535 0.549639
O O7 0.890322 0.634585 0.382065
O O8 0.059523 0.650822 0.468654
O O9 0.060611 0.588006 0.320330
O O10 0.012585 0.687387 0.274809
O O11 0.525031 0.551416 0.022985
O O12 0.412390 0.008294 0.370532
O O13 0.736544 0.043897 0.323009
O O14 0.349718 0.264848 0.664913
#
# Coordination Sequence:
#
# PCOD9370496 Si02
#       8
#    16  16  16  16   8  16  16   8
#     4  10  21  39  67  95 127 190 233 288 362 427
#     4  11  23  44  66  97 143 190 241 289 368 444
#     4  10  20  39  67  97 129 182 230 288 361 419
#     4  11  23  42  68 100 141 189 239 300 368 443
#     4  10  22  41  67 106 136 180 240 309 359 432
#     4  10  20  37  70  92 132 173 230 298 352 410
#     4  10  19  41  64  93 132 173 226 296 348 425
#     4  10  26  39  67 100 142 178 234 297 357 444
#
# _framework density 25.445053000000001
#
# number of rings (size 3 to 8) (size 9 to 14) (size 15 to 20)
#    0.000    1.714    4.286    0.857    0.000    4.000 
#    0.000    9.286    0.000    0.000    0.000    0.000 
#    0.000    0.000    0.000    0.000    0.000    0.000 
#
# Total GULP energy -156116.575689 kJ/mol
# GULP energy per Si atom -5575.591989 kJ/mol
# Density = 2.538714 g / cm^3
# Si number density = 25.445053 Si / 1000 Ang^3
#
#
#
# Elastic Constant Matrix: (Units=GPa)
#
#
# Indices 1 2 3 4 5 6 
#
# 1 127.8417 7.5004 1.6847 0.0000 0.0000 0.0000
# 2 7.5004 65.2612 2.4531 0.0000 0.0000 0.0000
# 3 1.6847 2.4531 70.1236 0.0000 0.0000 0.0000
# 4 0.0000 0.0000 0.0000 9.8644 0.0000 0.0000
# 5 0.0000 0.0000 0.0000 0.0000 35.9665 0.0000
# 6 0.0000 0.0000 0.0000 0.0000 0.0000 32.6289
#
#
#
# Elastic Compliance Matrix: (Units=1/GPa)
#
#
# Indices 1 2 3 4 5 6 
#
# 1 0.007877 -0.000899 -0.000158 0.000000 0.000000 0.000000
# 2 -0.000899 0.015446 -0.000519 0.000000 0.000000 0.000000
# 3 -0.000158 -0.000519 0.014282 0.000000 0.000000 0.000000
# 4 0.000000 0.000000 0.000000 0.101374 0.000000 0.000000
# 5 0.000000 0.000000 0.000000 0.000000 0.027804 0.000000
# 6 0.000000 0.000000 0.000000 0.000000 0.000000 0.030648
#
#
# Mechanical properties :
#
#
# Convention : Reuss Voigt Hill
#
# Bulk Modulus (GPa) = 29.02449 31.83364 30.42906
# Shear Modulus (GPa) = 23.57740 32.46451 28.02096
#
# Velocity S-wave (km/s) = 3.04731 3.57580 3.32208
# Velocity P-wave (km/s) = 4.87986 5.43934 5.16717
#
# Compressibility (1/GPa) = 0.03445366
#
# Stress axis : x y z
#
# Youngs Moduli (GPa) = 126.95158 64.74207 70.01590
#
# Poissons Ratio (x) = 0.05823 0.01105
# Poissons Ratio (y) = 0.11418 0.03632
# Poissons Ratio (z) = 0.02003 0.03358
#
# Static dielectric constant tensor:
#      x y z
#    x 2.079220 0.000000 0.000000 
#    y 0.000000 2.092380 0.000000 
#    z 0.000000 0.000000 2.069150 
# 
# From -- ./inp_files/10291.got.cif
#   From: 2010.05.17/outbox.cif.g08.bks.cpg/sg43_6_cif.got.tgz:10291.got - 2010.06.03 19:21:55.
