data_PCOD9370804
_publ_section_title
;
Structure prediction by ZEFSAII (Michael W. Deem and Ramdas Pophale) SiO2 
 PCOD9370804
Probable space group: F D D 2
;
_chemical_formula_sum "Si O2"
_cell_formula_units_Z 64
_cell_length_a 13.574337
_cell_length_b 9.337355
_cell_length_c 21.518866
_cell_angle_alpha 90.000000
_cell_angle_beta 90.000000
_cell_angle_gamma 90.000000
_cell_volume 2727.481910
_symmetry_space_group_name_H-M "F D D 2"
_symmetry_group_IT_number 43
_symmetry_cell_setting 'orthorhombic'
loop_
_space_group_symop_operation_xyz
x,y,z
-x,-y,z
1/4-x,1/4+y,1/4+z
1/4+x,1/4-y,1/4+z
x,1/2+y,1/2+z
-x,1/2-y,1/2+z
1/4-x,3/4+y,3/4+z
1/4+x,3/4-y,3/4+z
1/2+x,y,1/2+z
1/2-x,-y,1/2+z
3/4-x,1/4+y,3/4+z
3/4+x,1/4-y,3/4+z
1/2+x,1/2+y,z
1/2-x,1/2-y,z
3/4-x,3/4+y,1/4+z
3/4+x,3/4-y,1/4+z
loop_
_atom_site_type_symbol
_atom_site_label
_atom_site_fract_x
_atom_site_fract_y
_atom_site_fract_z
Si Si1 0.682765 0.861674 0.735740
Si Si2 0.391821 0.066514 0.465483
Si Si3 0.560220 0.372363 0.613995
Si Si4 0.987850 0.829002 0.789357
O O1 0.750000 0.750000 0.697469
O O2 0.749487 0.897098 0.798907
O O3 0.587237 0.766007 0.748679
O O4 0.650750 0.014126 0.712285
O O5 0.500000 0.000000 0.462548
O O6 0.325905 0.010910 0.408025
O O7 0.340003 0.001111 0.527417
O O8 0.500000 0.500000 0.645745
O O9 0.672396 0.424395 0.601769
O O10 0.000000 0.000000 0.778454
#
# Coordination Sequence:
#
# PCOD9370804 Si02
#       4
#    16  16  16  16
#     4   9  21  42  65  94 133 172 218 274 322 385
#     4  12  22  36  68 102 131 175 218 266 333 392
#     4   9  21  42  67  96 133 174 218 271 331 390
#     4  10  20  40  65  90 129 169 215 271 319 383
#
# _framework density 23.464866000000001
#
# number of rings (size 3 to 8) (size 9 to 14) (size 15 to 20)
#    0.000    2.500    0.000    5.250    0.000    0.000 
#    0.000   12.500    0.000   18.000    0.000    0.000 
#    0.000    0.000    0.000    0.000    0.000    0.000 
#
# Total GULP energy -89094.385718 kJ/mol
# GULP energy per Si atom -5568.399107 kJ/mol
# Density = 2.341146 g / cm^3
# Si number density = 23.464866 Si / 1000 Ang^3
#
#
#
# Elastic Constant Matrix: (Units=GPa)
#
#
# Indices 1 2 3 4 5 6 
#
# 1 137.4619 79.9716 39.5071 0.0000 0.0000 0.0000
# 2 79.9716 264.4995 25.5320 0.0000 0.0000 0.0000
# 3 39.5071 25.5320 41.7052 0.0000 0.0000 0.0000
# 4 0.0000 0.0000 0.0000 8.4507 0.0000 0.0000
# 5 0.0000 0.0000 0.0000 0.0000 21.5420 0.0000
# 6 0.0000 0.0000 0.0000 0.0000 0.0000 50.6391
#
#
#
# Elastic Compliance Matrix: (Units=1/GPa)
#
#
# Indices 1 2 3 4 5 6 
#
# 1 0.011424 -0.002561 -0.009254 0.000000 0.000000 0.000000
# 2 -0.002561 0.004592 -0.000386 0.000000 0.000000 0.000000
# 3 -0.009254 -0.000386 0.032981 0.000000 0.000000 0.000000
# 4 0.000000 0.000000 0.000000 0.118334 0.000000 0.000000
# 5 0.000000 0.000000 0.000000 0.000000 0.046421 0.000000
# 6 0.000000 0.000000 0.000000 0.000000 0.000000 0.019748
#
#
# Mechanical properties :
#
#
# Convention : Reuss Voigt Hill
#
# Bulk Modulus (GPa) = 40.65784 81.52088 61.08936
# Shear Modulus (GPa) = 18.78997 36.03675 27.41336
#
# Velocity S-wave (km/s) = 2.83286 3.92315 3.42171
# Velocity P-wave (km/s) = 5.29763 7.43899 6.45769
#
# Compressibility (1/GPa) = 0.02459550
#
# Stress axis : x y z
#
# Youngs Moduli (GPa) = 87.53252 217.76024 30.32093
#
# Poissons Ratio (x) = 0.55765 0.28060
# Poissons Ratio (y) = 0.22416 0.01169
# Poissons Ratio (z) = 0.81007 0.08395
#
# Static dielectric constant tensor:
#      x y z
#    x 1.932740 0.000000 0.000000 
#    y 0.000000 1.904790 0.000000 
#    z 0.000000 0.000000 2.066340 
# 
# From -- ./inp_files/19948.got.cif
#   From: 2010.05.17/outbox.cif.g08.bks.cpg/sg43_10_cif.got.tgz:19948.got - 2010.06.03 19:21:55.
