data_PCOD9370741
_publ_section_title
;
Structure prediction by ZEFSAII (Michael W. Deem and Ramdas Pophale) SiO2 
 PCOD9370741
Probable space group: F D D 2
;
_chemical_formula_sum "Si O2"
_cell_formula_units_Z 96
_cell_length_a 8.850139
_cell_length_b 18.202031
_cell_length_c 32.424421
_cell_angle_alpha 90.000000
_cell_angle_beta 90.000000
_cell_angle_gamma 90.000000
_cell_volume 5223.266335
_symmetry_space_group_name_H-M "F D D 2"
_symmetry_group_IT_number 43
_symmetry_cell_setting 'orthorhombic'
loop_
_space_group_symop_operation_xyz
x,y,z
-x,-y,z
1/4-x,1/4+y,1/4+z
1/4+x,1/4-y,1/4+z
x,1/2+y,1/2+z
-x,1/2-y,1/2+z
1/4-x,3/4+y,3/4+z
1/4+x,3/4-y,3/4+z
1/2+x,y,1/2+z
1/2-x,-y,1/2+z
3/4-x,1/4+y,3/4+z
3/4+x,1/4-y,3/4+z
1/2+x,1/2+y,z
1/2-x,1/2-y,z
3/4-x,3/4+y,1/4+z
3/4+x,3/4-y,1/4+z
loop_
_atom_site_type_symbol
_atom_site_label
_atom_site_fract_x
_atom_site_fract_y
_atom_site_fract_z
Si Si1 0.923837 0.226566 0.787700
Si Si2 0.569184 0.424645 0.163474
Si Si3 0.958260 0.697864 0.117237
Si Si4 0.823643 0.482006 0.952016
Si Si5 0.110043 0.304029 0.860824
Si Si6 0.131652 0.650013 0.594234
O O1 0.750000 0.250000 0.788422
O O2 0.923579 0.142178 0.802689
O O3 0.992108 0.241785 0.743175
O O4 0.021406 0.270854 0.821697
O O5 0.500000 0.500000 0.180145
O O6 0.557611 0.355013 0.193446
O O7 0.739280 0.438326 0.147652
O O8 0.472088 0.401550 0.122837
O O9 0.949818 0.771553 0.089625
O O10 0.789174 0.665476 0.117572
O O11 0.006543 0.726362 0.162186
O O12 0.070998 0.634566 0.102628
O O13 0.000000 0.500000 0.954710
O O14 0.250000 0.250000 0.870534
#
# Coordination Sequence:
#
# PCOD9370741 Si02
#       6
#    16  16  16  16  16  16
#     4  12  24  41  63  92 127 170 203 261 332 374
#     4  11  20  40  65  93 124 166 216 261 308 388
#     4  10  22  38  67  94 117 165 219 261 306 381
#     4  11  25  40  64  93 130 164 208 270 328 380
#     4  12  20  38  68  92 122 166 217 261 318 380
#     4  10  20  39  64  92 122 165 214 258 308 386
#
# _framework density 18.379304000000001
#
# number of rings (size 3 to 8) (size 9 to 14) (size 15 to 20)
#    0.000    1.000    6.667    0.500    4.667    0.000 
#    0.000    1.667    3.667    0.000    0.000    0.000 
#    0.000    0.000    0.000    0.000    0.000    0.000 
#
# Total GULP energy -134016.207617 kJ/mol
# GULP energy per Si atom -5584.008651 kJ/mol
# Density = 1.833747 g / cm^3
# Si number density = 18.379304 Si / 1000 Ang^3
#
#
#
# Elastic Constant Matrix: (Units=GPa)
#
#
# Indices 1 2 3 4 5 6 
#
# 1 125.4607 61.3632 42.0923 0.0000 0.0000 0.0000
# 2 61.3632 157.7761 64.6621 0.0000 0.0000 0.0000
# 3 42.0923 64.6621 87.7529 0.0000 0.0000 0.0000
# 4 0.0000 0.0000 0.0000 13.5607 0.0000 0.0000
# 5 0.0000 0.0000 0.0000 0.0000 16.5860 0.0000
# 6 0.0000 0.0000 0.0000 0.0000 0.0000 40.4528
#
#
#
# Elastic Compliance Matrix: (Units=1/GPa)
#
#
# Indices 1 2 3 4 5 6 
#
# 1 0.010319 -0.002843 -0.002854 0.000000 0.000000 0.000000
# 2 -0.002843 0.009864 -0.005904 0.000000 0.000000 0.000000
# 3 -0.002854 -0.005904 0.017116 0.000000 0.000000 0.000000
# 4 0.000000 0.000000 0.000000 0.073742 0.000000 0.000000
# 5 0.000000 0.000000 0.000000 0.000000 0.060292 0.000000
# 6 0.000000 0.000000 0.000000 0.000000 0.000000 0.024720
#
#
# Mechanical properties :
#
#
# Convention : Reuss Voigt Hill
#
# Bulk Modulus (GPa) = 70.95322 78.58052 74.76687
# Shear Modulus (GPa) = 22.32587 27.64470 24.98529
#
# Velocity S-wave (km/s) = 3.48908 3.88251 3.69104
# Velocity P-wave (km/s) = 7.41082 7.93386 7.67680
#
# Compressibility (1/GPa) = 0.01409379
#
# Stress axis : x y z
#
# Youngs Moduli (GPa) = 96.90804 101.38064 58.42641
#
# Poissons Ratio (x) = 0.28828 0.16678
# Poissons Ratio (y) = 0.27556 0.34497
# Poissons Ratio (z) = 0.27662 0.59859
#
# Static dielectric constant tensor:
#      x y z
#    x 1.639820 0.000000 0.000000 
#    y 0.000000 1.665410 0.000000 
#    z 0.000000 0.000000 1.594470 
# 
# From -- ./inp_files/24224.got.cif
#   From: 2010.05.17/outbox.cif.g08.bks.cpg/sg43_13_cif.got.tgz:24224.got - 2010.06.03 19:21:55.
