data_PCOD9370106
_publ_section_title
;
Structure prediction by ZEFSAII (Michael W. Deem and Ramdas Pophale) SiO2 
 PCOD9370106
Probable space group: F D D 2
;
_chemical_formula_sum "Si O2"
_cell_formula_units_Z 72
_cell_length_a 8.418241
_cell_length_b 13.056088
_cell_length_c 27.939807
_cell_angle_alpha 90.000000
_cell_angle_beta 90.000000
_cell_angle_gamma 90.000000
_cell_volume 3070.844498
_symmetry_space_group_name_H-M "F D D 2"
_symmetry_group_IT_number 43
_symmetry_cell_setting 'orthorhombic'
loop_
_space_group_symop_operation_xyz
x,y,z
-x,-y,z
1/4-x,1/4+y,1/4+z
1/4+x,1/4-y,1/4+z
x,1/2+y,1/2+z
-x,1/2-y,1/2+z
1/4-x,3/4+y,3/4+z
1/4+x,3/4-y,3/4+z
1/2+x,y,1/2+z
1/2-x,-y,1/2+z
3/4-x,1/4+y,3/4+z
3/4+x,1/4-y,3/4+z
1/2+x,1/2+y,z
1/2-x,1/2-y,z
3/4-x,3/4+y,1/4+z
3/4+x,3/4-y,1/4+z
loop_
_atom_site_type_symbol
_atom_site_label
_atom_site_fract_x
_atom_site_fract_y
_atom_site_fract_z
Si Si1 0.656459 0.426407 0.350010
Si Si2 0.259062 0.866312 0.718371
Si Si3 0.413172 0.877089 0.208057
Si Si4 0.408360 0.645127 0.249313
Si Si5 0.250000 0.750000 0.623303
O O1 0.500000 0.500000 0.351242
O O2 0.661817 0.370289 0.400847
O O3 0.629518 0.352418 0.305294
O O4 0.832209 0.480595 0.346446
O O5 0.250000 0.750000 0.739419
O O6 0.421036 0.904782 0.740600
O O7 0.277246 0.843972 0.661120
O O8 0.085799 0.913711 0.725564
O O9 0.416760 0.756480 0.224227
O O10 0.241651 0.910777 0.225788
#
# Coordination Sequence:
#
# PCOD9370106 Si02
#       5
#    16  16  16  16   8
#     4  11  19  31  55  80 101 145 184 214 278 320
#     4   7  13  28  50  70  99 132 164 211 263 303
#     4   9  17  35  51  75 106 140 178 221 262 319
#     4  10  17  29  56  78 101 138 180 219 265 320
#     4   8  16  32  50  74 106 132 172 214 262 324
#
# _framework density 23.446318000000002
#
# number of rings (size 3 to 8) (size 9 to 14) (size 15 to 20)
#    0.667    2.222    4.444    0.000    0.000    1.778 
#    0.000    0.000    0.000   17.333    0.000    0.000 
#    0.000    0.000    0.000    0.000    0.000    0.000 
#
# Total GULP energy -100315.284073 kJ/mol
# GULP energy per Si atom -5573.071337 kJ/mol
# Density = 2.339295 g / cm^3
# Si number density = 23.446318 Si / 1000 Ang^3
#
#
#
# Elastic Constant Matrix: (Units=GPa)
#
#
# Indices 1 2 3 4 5 6 
#
# 1 298.1872 59.9521 60.9629 0.0000 0.0000 0.0000
# 2 59.9521 51.5530 13.4198 0.0000 0.0000 0.0000
# 3 60.9629 13.4198 129.8603 0.0000 0.0000 0.0000
# 4 0.0000 0.0000 0.0000 -4.3111 0.0000 0.0000
# 5 0.0000 0.0000 0.0000 0.0000 0.2276 0.0000
# 6 0.0000 0.0000 0.0000 0.0000 0.0000 61.4154
#
#
#
# Elastic Compliance Matrix: (Units=1/GPa)
#
#
# Indices 1 2 3 4 5 6 
#
# 1 0.004713 -0.005040 -0.001692 0.000000 0.000000 0.000000
# 2 -0.005040 0.025324 -0.000251 0.000000 0.000000 0.000000
# 3 -0.001692 -0.000251 0.008521 0.000000 0.000000 0.000000
# 4 0.000000 0.000000 0.000000 -0.231959 0.000000 0.000000
# 5 0.000000 0.000000 0.000000 0.000000 4.393762 0.000000
# 6 0.000000 0.000000 0.000000 0.000000 0.000000 0.016283
#
#
# Mechanical properties :
#
#
# Convention : Reuss Voigt Hill
#
# Bulk Modulus (GPa) = 40.66317 83.14111 61.90214
# Shear Modulus (GPa) = 1.17958 34.48410 17.83184
#
# Velocity S-wave (km/s) = 0.71006 3.83922 2.76078
# Velocity P-wave (km/s) = 4.24888 7.42900 6.05157
#
# Compressibility (1/GPa) = 0.02459228
#
# Stress axis : x y z
#
# Youngs Moduli (GPa) = 212.18780 39.48781 117.36250
#
# Poissons Ratio (x) = 0.19903 0.19853
# Poissons Ratio (y) = 1.06949 0.02944
# Poissons Ratio (z) = 0.35893 0.00991
#
# Static dielectric constant tensor:
#      x y z
#    x 1.957770 0.000000 0.000000 
#    y 0.000000 1.887000 0.000000 
#    z 0.000000 0.000000 1.825700 
# 
# From -- ./inp_files/20255.got.cif
#   From: 2010.05.17/outbox.cif.g08.bks.cpg/sg43_11_cif.got.tgz:20255.got - 2010.06.03 19:21:55.
