data_PCOD9370761
_publ_section_title
;
Structure prediction by ZEFSAII (Michael W. Deem and Ramdas Pophale) SiO2 
 PCOD9370761
Probable space group: F D D 2
;
_chemical_formula_sum "Si O2"
_cell_formula_units_Z 80
_cell_length_a 11.899110
_cell_length_b 13.746182
_cell_length_c 18.490736
_cell_angle_alpha 90.000000
_cell_angle_beta 90.000000
_cell_angle_gamma 90.000000
_cell_volume 3024.480349
_symmetry_space_group_name_H-M "F D D 2"
_symmetry_group_IT_number 43
_symmetry_cell_setting 'orthorhombic'
loop_
_space_group_symop_operation_xyz
x,y,z
-x,-y,z
1/4-x,1/4+y,1/4+z
1/4+x,1/4-y,1/4+z
x,1/2+y,1/2+z
-x,1/2-y,1/2+z
1/4-x,3/4+y,3/4+z
1/4+x,3/4-y,3/4+z
1/2+x,y,1/2+z
1/2-x,-y,1/2+z
3/4-x,1/4+y,3/4+z
3/4+x,1/4-y,3/4+z
1/2+x,1/2+y,z
1/2-x,1/2-y,z
3/4-x,3/4+y,1/4+z
3/4+x,3/4-y,1/4+z
loop_
_atom_site_type_symbol
_atom_site_label
_atom_site_fract_x
_atom_site_fract_y
_atom_site_fract_z
Si Si1 0.140067 0.297948 0.080530
Si Si2 0.275431 0.982448 0.622627
Si Si3 0.089485 0.433063 0.914559
Si Si4 0.397554 0.798942 0.010835
Si Si5 0.784444 0.531926 0.470355
O O1 0.250000 0.250000 0.043907
O O2 0.186177 0.397245 0.114404
O O3 0.106320 0.224152 0.146729
O O4 0.029527 0.319354 0.032258
O O5 0.205492 0.080765 0.638799
O O6 0.348568 0.972987 0.695258
O O7 0.339875 0.006796 0.547769
O O8 0.058637 0.368211 0.733988
O O9 0.204447 0.437324 0.956601
O O10 0.000000 0.500000 0.954688
O O11 0.361455 0.759610 0.088724
#
# Coordination Sequence:
#
# PCOD9370761 Si02
#       5
#    16  16  16  16  16
#     4  11  27  47  67 108 158 187 246 327 380 431
#     4  11  23  39  72 100 133 193 235 298 378 430
#     4  10  20  39  68  98 134 173 239 296 344 435
#     4  10  23  44  72  99 140 192 242 295 375 450
#     4  10  23  44  70 104 139 187 245 300 363 460
#
# _framework density 26.450824000000001
#
# number of rings (size 3 to 8) (size 9 to 14) (size 15 to 20)
#    0.000    1.600    2.000    1.200    2.800    9.600 
#    0.000    1.000    0.000    0.000    0.000    0.000 
#    0.000    0.000    0.000    0.000    0.000    0.000 
#
# Total GULP energy -111546.084820 kJ/mol
# GULP energy per Si atom -5577.304241 kJ/mol
# Density = 2.639062 g / cm^3
# Si number density = 26.450824 Si / 1000 Ang^3
#
#
#
# Elastic Constant Matrix: (Units=GPa)
#
#
# Indices 1 2 3 4 5 6 
#
# 1 134.8955 37.9605 17.8241 0.0000 0.0000 0.0000
# 2 37.9605 127.6265 15.9463 0.0000 0.0000 0.0000
# 3 17.8241 15.9463 166.3416 0.0000 0.0000 0.0000
# 4 0.0000 0.0000 0.0000 38.6243 0.0000 0.0000
# 5 0.0000 0.0000 0.0000 0.0000 30.9692 0.0000
# 6 0.0000 0.0000 0.0000 0.0000 0.0000 14.5125
#
#
#
# Elastic Compliance Matrix: (Units=1/GPa)
#
#
# Indices 1 2 3 4 5 6 
#
# 1 0.008159 -0.002346 -0.000649 0.000000 0.000000 0.000000
# 2 -0.002346 0.008605 -0.000574 0.000000 0.000000 0.000000
# 3 -0.000649 -0.000574 0.006136 0.000000 0.000000 0.000000
# 4 0.000000 0.000000 0.000000 0.025890 0.000000 0.000000
# 5 0.000000 0.000000 0.000000 0.000000 0.032290 0.000000
# 6 0.000000 0.000000 0.000000 0.000000 0.000000 0.068906
#
#
# Mechanical properties :
#
#
# Convention : Reuss Voigt Hill
#
# Bulk Modulus (GPa) = 63.44031 63.59172 63.51601
# Shear Modulus (GPa) = 30.79233 40.63004 35.71119
#
# Velocity S-wave (km/s) = 3.41564 3.92351 3.67835
# Velocity P-wave (km/s) = 6.29220 6.67974 6.48887
#
# Compressibility (1/GPa) = 0.01576285
#
# Stress axis : x y z
#
# Youngs Moduli (GPa) = 122.56354 116.21557 162.96479
#
# Poissons Ratio (x) = 0.27260 0.10583
# Poissons Ratio (y) = 0.28749 0.09347
# Poissons Ratio (z) = 0.07959 0.06665
#
# Static dielectric constant tensor:
#      x y z
#    x 2.157690 0.000000 0.000000 
#    y 0.000000 2.183440 0.000000 
#    z 0.000000 0.000000 2.193050 
# 
# From -- ./inp_files/14182.got.cif
#   From: 2010.05.17/outbox.cif.g08.bks.cpg/sg43_8_cif.got.tgz:14182.got - 2010.06.03 19:21:55.
