data_PCOD9370656
_publ_section_title
;
Structure prediction by ZEFSAII (Michael W. Deem and Ramdas Pophale) SiO2 
 PCOD9370656
Probable space group: F D D 2
;
_chemical_formula_sum "Si O2"
_cell_formula_units_Z 80
_cell_length_a 16.236570
_cell_length_b 8.548094
_cell_length_c 23.295206
_cell_angle_alpha 90.000000
_cell_angle_beta 90.000000
_cell_angle_gamma 90.000000
_cell_volume 3233.181862
_symmetry_space_group_name_H-M "F D D 2"
_symmetry_group_IT_number 43
_symmetry_cell_setting 'orthorhombic'
loop_
_space_group_symop_operation_xyz
x,y,z
-x,-y,z
1/4-x,1/4+y,1/4+z
1/4+x,1/4-y,1/4+z
x,1/2+y,1/2+z
-x,1/2-y,1/2+z
1/4-x,3/4+y,3/4+z
1/4+x,3/4-y,3/4+z
1/2+x,y,1/2+z
1/2-x,-y,1/2+z
3/4-x,1/4+y,3/4+z
3/4+x,1/4-y,3/4+z
1/2+x,1/2+y,z
1/2-x,1/2-y,z
3/4-x,3/4+y,1/4+z
3/4+x,3/4-y,1/4+z
loop_
_atom_site_type_symbol
_atom_site_label
_atom_site_fract_x
_atom_site_fract_y
_atom_site_fract_z
Si Si1 0.750000 0.750000 0.370000
Si Si2 0.058362 0.644308 0.293269
Si Si3 0.325514 0.099960 0.746357
Si Si4 0.904821 0.362393 0.808493
Si Si5 0.967635 0.663541 0.113578
Si Si6 0.750000 0.250000 0.147171
O O1 0.829892 0.759329 0.329394
O O2 0.759816 0.575391 0.396157
O O3 0.119402 0.742880 0.251335
O O4 0.121379 0.597589 0.344916
O O5 0.000000 0.500000 0.274076
O O6 0.987877 0.767178 0.309485
O O7 0.267755 0.080859 0.802430
O O8 0.269760 0.109126 0.690470
O O9 0.384652 0.951063 0.749982
O O10 0.920794 0.496645 0.856412
O O11 0.000000 0.500000 0.140147
#
# Coordination Sequence:
#
# PCOD9370656 Si02
#       6
#     8  16  16  16  16   8
#     4  10  20  38  59 100 128 176 229 286 340 414
#     4  11  18  36  67  94 129 181 220 291 355 401
#     4  10  21  41  64  92 132 182 221 291 349 410
#     4  11  23  39  69  98 133 185 235 283 358 422
#     4   9  18  34  64  90 127 182 215 274 361 398
#     4  12  22  42  73  98 136 192 237 286 358 438
#
# _framework density 24.743428000000002
#
# number of rings (size 3 to 8) (size 9 to 14) (size 15 to 20)
#    0.000    1.600    7.000    0.000    0.000    0.000 
#    3.600    0.000   24.200    0.000    0.000    0.000 
#    0.000    0.000    0.000    0.000    0.000    0.000 
#
# Total GULP energy -111473.088496 kJ/mol
# GULP energy per Si atom -5573.654425 kJ/mol
# Density = 2.468711 g / cm^3
# Si number density = 24.743428 Si / 1000 Ang^3
#
#
#
# Elastic Constant Matrix: (Units=GPa)
#
#
# Indices 1 2 3 4 5 6 
#
# 1 177.1479 48.9569 30.3324 0.0000 0.0000 0.0000
# 2 48.9569 166.5078 13.3502 0.0000 0.0000 0.0000
# 3 30.3324 13.3502 60.5217 0.0000 0.0000 0.0000
# 4 0.0000 0.0000 0.0000 -4.9148 0.0000 0.0000
# 5 0.0000 0.0000 0.0000 0.0000 -24.0915 0.0000
# 6 0.0000 0.0000 0.0000 0.0000 0.0000 61.8856
#
#
#
# Elastic Compliance Matrix: (Units=1/GPa)
#
#
# Indices 1 2 3 4 5 6 
#
# 1 0.006621 -0.001711 -0.002941 0.000000 0.000000 0.000000
# 2 -0.001711 0.006556 -0.000589 0.000000 0.000000 0.000000
# 3 -0.002941 -0.000589 0.018127 0.000000 0.000000 0.000000
# 4 0.000000 0.000000 0.000000 -0.203467 0.000000 0.000000
# 5 0.000000 0.000000 0.000000 0.000000 -0.041508 0.000000
# 6 0.000000 0.000000 0.000000 0.000000 0.000000 0.016159
#
#
# Mechanical properties :
#
#
# Convention : Reuss Voigt Hill
#
# Bulk Modulus (GPa) = 48.02435 65.49516 56.75976
# Shear Modulus (GPa) = -27.76396 27.34505 -0.20946
#
# Velocity S-wave (km/s) = -3.35337 3.32798 -0.29126
# Velocity P-wave (km/s) = 2.11130 6.42607 4.78289
#
# Compressibility (1/GPa) = 0.02082277
#
# Stress axis : x y z
#
# Youngs Moduli (GPa) = 151.02395 152.53199 55.16670
#
# Poissons Ratio (x) = 0.26099 0.16225
# Poissons Ratio (y) = 0.25841 0.03247
# Poissons Ratio (z) = 0.44418 0.08978
#
# Static dielectric constant tensor:
#      x y z
#    x 2.028540 0.000000 0.000000 
#    y 0.000000 2.268300 0.000000 
#    z 0.000000 0.000000 1.965280 
# 
# From -- ./inp_files/25894.got.cif
#   From: 2010.05.17/outbox.cif.g08.bks.cpg/sg43_13_cif.got.tgz:25894.got - 2010.06.03 19:21:55.
