data_PCOD9370855
_publ_section_title
;
Structure prediction by ZEFSAII (Michael W. Deem and Ramdas Pophale) SiO2 
 PCOD9370855
Probable space group: F D D 2
;
_chemical_formula_sum "Si O2"
_cell_formula_units_Z 72
_cell_length_a 9.658772
_cell_length_b 12.296339
_cell_length_c 23.534481
_cell_angle_alpha 90.000000
_cell_angle_beta 90.000000
_cell_angle_gamma 90.000000
_cell_volume 2795.132292
_symmetry_space_group_name_H-M "F D D 2"
_symmetry_group_IT_number 43
_symmetry_cell_setting 'orthorhombic'
loop_
_space_group_symop_operation_xyz
x,y,z
-x,-y,z
1/4-x,1/4+y,1/4+z
1/4+x,1/4-y,1/4+z
x,1/2+y,1/2+z
-x,1/2-y,1/2+z
1/4-x,3/4+y,3/4+z
1/4+x,3/4-y,3/4+z
1/2+x,y,1/2+z
1/2-x,-y,1/2+z
3/4-x,1/4+y,3/4+z
3/4+x,1/4-y,3/4+z
1/2+x,1/2+y,z
1/2-x,1/2-y,z
3/4-x,3/4+y,1/4+z
3/4+x,3/4-y,1/4+z
loop_
_atom_site_type_symbol
_atom_site_label
_atom_site_fract_x
_atom_site_fract_y
_atom_site_fract_z
Si Si1 0.602197 0.408356 0.619720
Si Si2 0.159159 0.019581 0.389732
Si Si3 0.750000 0.250000 0.927710
Si Si4 0.734914 0.600031 0.231617
Si Si5 0.730750 0.537121 0.011834
O O1 0.500000 0.500000 0.644876
O O2 0.508472 0.306470 0.602655
O O3 0.711982 0.372856 0.667357
O O4 0.677172 0.462574 0.566903
O O5 0.218738 0.142226 0.391066
O O6 0.181510 0.973006 0.454023
O O7 0.000000 0.000000 0.373912
O O8 0.615194 0.250566 0.968579
O O9 0.627577 0.687592 0.256717
O O10 0.879831 0.607807 0.263451
#
# Coordination Sequence:
#
# PCOD9370855 Si02
#       5
#    16  16   8  16  16
#     4  11  22  40  78 115 154 214 273 333 411 495
#     4  10  21  41  75 106 155 214 252 348 411 478
#     4  10  20  40  76 102 156 202 260 320 420 478
#     4   9  20  40  73 105 158 206 251 333 390 467
#     4   9  20  41  73 109 153 203 273 321 397 483
#
# _framework density 25.759065
#
# number of rings (size 3 to 8) (size 9 to 14) (size 15 to 20)
#    0.000    2.222    0.000    3.333    0.000    1.778 
#    0.000    0.000  227.333    0.000    0.000    0.000 
#    0.000    0.000    0.000    0.000    0.000    0.000 
#
# Total GULP energy -100627.104765 kJ/mol
# GULP energy per Si atom -5590.394709 kJ/mol
# Density = 2.570044 g / cm^3
# Si number density = 25.759065 Si / 1000 Ang^3
#
#
#
# Elastic Constant Matrix: (Units=GPa)
#
#
# Indices 1 2 3 4 5 6 
#
# 1 133.7935 43.8997 31.3843 0.0000 0.0000 0.0000
# 2 43.8997 137.5974 20.0901 0.0000 0.0000 0.0000
# 3 31.3843 20.0901 97.6929 0.0000 0.0000 0.0000
# 4 0.0000 0.0000 0.0000 28.9055 0.0000 0.0000
# 5 0.0000 0.0000 0.0000 0.0000 26.8957 0.0000
# 6 0.0000 0.0000 0.0000 0.0000 0.0000 51.6486
#
#
#
# Elastic Compliance Matrix: (Units=1/GPa)
#
#
# Indices 1 2 3 4 5 6 
#
# 1 0.008834 -0.002478 -0.002328 0.000000 0.000000 0.000000
# 2 -0.002478 0.008188 -0.000888 0.000000 0.000000 0.000000
# 3 -0.002328 -0.000888 0.011167 0.000000 0.000000 0.000000
# 4 0.000000 0.000000 0.000000 0.034595 0.000000 0.000000
# 5 0.000000 0.000000 0.000000 0.000000 0.037181 0.000000
# 6 0.000000 0.000000 0.000000 0.000000 0.000000 0.019362
#
#
# Mechanical properties :
#
#
# Convention : Reuss Voigt Hill
#
# Bulk Modulus (GPa) = 59.52462 62.20357 60.86410
# Shear Modulus (GPa) = 36.68003 39.73728 38.20866
#
# Velocity S-wave (km/s) = 3.77764 3.93192 3.85555
# Velocity P-wave (km/s) = 6.49506 6.69433 6.59545
#
# Compressibility (1/GPa) = 0.01679977
#
# Stress axis : x y z
#
# Youngs Moduli (GPa) = 113.20525 122.13172 89.55262
#
# Poissons Ratio (x) = 0.30269 0.20849
# Poissons Ratio (y) = 0.28056 0.07949
# Poissons Ratio (z) = 0.26356 0.10841
#
# Static dielectric constant tensor:
#      x y z
#    x 2.016340 0.000000 0.000000 
#    y 0.000000 2.114080 0.000000 
#    z 0.000000 0.000000 2.000210 
# 
# From -- ./inp_files/23966.got.cif
#   From: 2010.05.17/outbox.cif.g08.bks.cpg/sg43_12_cif.got.tgz:23966.got - 2010.06.03 19:21:55.
