data_PCOD9370306
_publ_section_title
;
Structure prediction by ZEFSAII (Michael W. Deem and Ramdas Pophale) SiO2 
 PCOD9370306
Probable space group: F D D 2
;
_chemical_formula_sum "Si O2"
_cell_formula_units_Z 96
_cell_length_a 6.911019
_cell_length_b 18.987553
_cell_length_c 31.264621
_cell_angle_alpha 90.000000
_cell_angle_beta 90.000000
_cell_angle_gamma 90.000000
_cell_volume 4102.647977
_symmetry_space_group_name_H-M "F D D 2"
_symmetry_group_IT_number 43
_symmetry_cell_setting 'orthorhombic'
loop_
_space_group_symop_operation_xyz
x,y,z
-x,-y,z
1/4-x,1/4+y,1/4+z
1/4+x,1/4-y,1/4+z
x,1/2+y,1/2+z
-x,1/2-y,1/2+z
1/4-x,3/4+y,3/4+z
1/4+x,3/4-y,3/4+z
1/2+x,y,1/2+z
1/2-x,-y,1/2+z
3/4-x,1/4+y,3/4+z
3/4+x,1/4-y,3/4+z
1/2+x,1/2+y,z
1/2-x,1/2-y,z
3/4-x,3/4+y,1/4+z
3/4+x,3/4-y,1/4+z
loop_
_atom_site_type_symbol
_atom_site_label
_atom_site_fract_x
_atom_site_fract_y
_atom_site_fract_z
Si Si1 0.775981 0.325511 0.412480
Si Si2 0.358496 0.825227 0.319795
Si Si3 0.737572 0.833551 0.553439
Si Si4 0.918636 0.579826 0.629143
Si Si5 0.471062 0.155180 0.716067
Si Si6 0.009372 0.184574 0.731104
O O1 0.750000 0.250000 0.434778
O O2 0.908829 0.327750 0.369884
O O3 0.560778 0.330464 0.392087
O O4 0.833864 0.382730 0.446950
O O5 0.250000 0.750000 0.313408
O O6 0.202670 0.886189 0.312417
O O7 0.513565 0.827191 0.281788
O O8 0.750000 0.750000 0.558383
O O9 0.592432 0.871670 0.586743
O O10 0.700141 0.858006 0.504884
O O11 0.003177 0.618304 0.670860
O O12 0.000000 0.500000 0.623247
O O13 0.238427 0.166942 0.723210
O O14 0.539710 0.235346 0.720090
#
# Coordination Sequence:
#
# PCOD9370306 Si02
#       6
#    16  16  16  16  16  16
#     4   9  19  31  56  83 106 148 197 232 280 347
#     4   9  15  30  50  77 107 137 175 238 278 316
#     4  10  19  30  55  85 105 140 197 238 274 342
#     4  10  21  34  56  82 117 146 178 242 303 332
#     4   9  17  31  54  79 108 142 186 238 279 327
#     4   9  15  29  54  80 103 140 192 235 270 328
#
# _framework density 23.399521
#
# number of rings (size 3 to 8) (size 9 to 14) (size 15 to 20)
#    0.000    2.667    3.333    0.500    7.000    0.000 
#    0.000    0.000   14.667    0.000    0.000    0.000 
#    0.000    0.000    0.000    0.000    0.000    0.000 
#
# Total GULP energy -133972.959506 kJ/mol
# GULP energy per Si atom -5582.206646 kJ/mol
# Density = 2.334626 g / cm^3
# Si number density = 23.399521 Si / 1000 Ang^3
#
#
#
# Elastic Constant Matrix: (Units=GPa)
#
#
# Indices 1 2 3 4 5 6 
#
# 1 73.6796 33.7248 48.6962 0.0000 0.0000 0.0000
# 2 33.7248 226.1319 129.5753 0.0000 0.0000 0.0000
# 3 48.6962 129.5753 221.0913 0.0000 0.0000 0.0000
# 4 0.0000 0.0000 0.0000 45.4074 0.0000 0.0000
# 5 0.0000 0.0000 0.0000 0.0000 26.6637 0.0000
# 6 0.0000 0.0000 0.0000 0.0000 0.0000 26.1820
#
#
#
# Elastic Compliance Matrix: (Units=1/GPa)
#
#
# Indices 1 2 3 4 5 6 
#
# 1 0.015930 -0.000550 -0.003186 0.000000 0.000000 0.000000
# 2 -0.000550 0.006677 -0.003792 0.000000 0.000000 0.000000
# 3 -0.003186 -0.003792 0.007447 0.000000 0.000000 0.000000
# 4 0.000000 0.000000 0.000000 0.022023 0.000000 0.000000
# 5 0.000000 0.000000 0.000000 0.000000 0.037504 0.000000
# 6 0.000000 0.000000 0.000000 0.000000 0.000000 0.038194
#
#
# Mechanical properties :
#
#
# Convention : Reuss Voigt Hill
#
# Bulk Modulus (GPa) = 66.67786 104.98838 85.83312
# Shear Modulus (GPa) = 33.82227 40.24438 37.03333
#
# Velocity S-wave (km/s) = 3.80600 4.15164 3.98257
# Velocity P-wave (km/s) = 6.91892 8.24298 7.60980
#
# Compressibility (1/GPa) = 0.01499748
#
# Stress axis : x y z
#
# Youngs Moduli (GPa) = 62.77505 149.76441 134.27711
#
# Poissons Ratio (x) = 0.08237 0.42785
# Poissons Ratio (y) = 0.03453 0.50920
# Poissons Ratio (z) = 0.20002 0.56793
#
# Static dielectric constant tensor:
#      x y z
#    x 2.015840 0.000000 0.000000 
#    y 0.000000 1.830030 0.000000 
#    z 0.000000 0.000000 1.894260 
# 
# From -- ./inp_files/25214.got.cif
#   From: 2010.05.17/outbox.cif.g08.bks.cpg/sg43_13_cif.got.tgz:25214.got - 2010.06.03 19:21:55.
