data_PCOD9370174
_publ_section_title
;
Structure prediction by ZEFSAII (Michael W. Deem and Ramdas Pophale) SiO2 
 PCOD9370174
Probable space group: F D D 2
;
_chemical_formula_sum "Si O2"
_cell_formula_units_Z 112
_cell_length_a 12.890705
_cell_length_b 13.655833
_cell_length_c 32.137966
_cell_angle_alpha 90.000000
_cell_angle_beta 90.000000
_cell_angle_gamma 90.000000
_cell_volume 5657.352684
_symmetry_space_group_name_H-M "F D D 2"
_symmetry_group_IT_number 43
_symmetry_cell_setting 'orthorhombic'
loop_
_space_group_symop_operation_xyz
x,y,z
-x,-y,z
1/4-x,1/4+y,1/4+z
1/4+x,1/4-y,1/4+z
x,1/2+y,1/2+z
-x,1/2-y,1/2+z
1/4-x,3/4+y,3/4+z
1/4+x,3/4-y,3/4+z
1/2+x,y,1/2+z
1/2-x,-y,1/2+z
3/4-x,1/4+y,3/4+z
3/4+x,1/4-y,3/4+z
1/2+x,1/2+y,z
1/2-x,1/2-y,z
3/4-x,3/4+y,1/4+z
3/4+x,3/4-y,1/4+z
loop_
_atom_site_type_symbol
_atom_site_label
_atom_site_fract_x
_atom_site_fract_y
_atom_site_fract_z
Si Si1 0.923443 0.722625 0.517150
Si Si2 0.057244 0.658273 0.706129
Si Si3 0.564449 0.099347 0.966636
Si Si4 0.957625 0.691610 0.887675
Si Si5 0.500000 0.000000 0.182991
Si Si6 0.500000 0.000000 0.833881
Si Si7 0.599187 0.607556 0.976202
Si Si8 0.783825 0.852745 0.140142
O O1 0.848129 0.687332 0.479615
O O2 0.950146 0.835256 0.507726
O O3 0.850308 0.717895 0.556976
O O4 0.027191 0.657146 0.511276
O O5 0.112407 0.747166 0.731327
O O6 0.100087 0.655687 0.658766
O O7 0.935200 0.670956 0.709018
O O8 0.522018 0.165811 0.929131
O O9 0.500000 0.000000 0.967852
O O10 0.840550 0.708302 0.903587
O O11 0.967874 0.595774 0.859699
O O12 0.004254 0.793752 0.869435
O O13 0.448256 0.079174 0.213303
O O14 0.532626 0.606598 0.933291
O O15 0.750000 0.750000 0.119184
#
# Coordination Sequence:
#
# PCOD9370174 Si02
#       8
#    16  16  16  16   8   8  16  16
#     4  11  21  41  60  87 128 177 222 262 337 411
#     4  10  18  33  65  91 120 162 218 287 315 371
#     4  12  21  35  61  98 126 163 235 271 324 399
#     4  11  22  37  62  97 141 171 217 278 354 410
#     4  10  18  38  62  99 128 160 222 292 321 388
#     4  12  26  42  60  97 148 178 210 288 371 410
#     4   9  18  31  64  93 117 155 217 280 323 375
#     4   8  16  33  58  91 120 162 219 269 321 388
#
# _framework density 19.797246000000001
#
# number of rings (size 3 to 8) (size 9 to 14) (size 15 to 20)
#    0.000    1.714    6.429    2.143    0.000    0.000 
#    1.286    0.000    6.286    0.000    0.000    0.000 
#    0.000    0.000    0.000    0.000    0.000    0.000 
#
# Total GULP energy -156079.098782 kJ/mol
# GULP energy per Si atom -5574.253528 kJ/mol
# Density = 1.975219 g / cm^3
# Si number density = 19.797246 Si / 1000 Ang^3
#
#
#
# Elastic Constant Matrix: (Units=GPa)
#
#
# Indices 1 2 3 4 5 6 
#
# 1 129.1127 62.6191 20.4057 0.0000 0.0000 0.0000
# 2 62.6191 156.0912 24.4797 0.0000 0.0000 0.0000
# 3 20.4057 24.4797 34.7729 0.0000 0.0000 0.0000
# 4 0.0000 0.0000 0.0000 15.7404 0.0000 0.0000
# 5 0.0000 0.0000 0.0000 0.0000 14.5536 0.0000
# 6 0.0000 0.0000 0.0000 0.0000 0.0000 42.7640
#
#
#
# Elastic Compliance Matrix: (Units=1/GPa)
#
#
# Indices 1 2 3 4 5 6 
#
# 1 0.009963 -0.003462 -0.003409 0.000000 0.000000 0.000000
# 2 -0.003462 0.008405 -0.003885 0.000000 0.000000 0.000000
# 3 -0.003409 -0.003885 0.033494 0.000000 0.000000 0.000000
# 4 0.000000 0.000000 0.000000 0.063531 0.000000 0.000000
# 5 0.000000 0.000000 0.000000 0.000000 0.068711 0.000000
# 6 0.000000 0.000000 0.000000 0.000000 0.000000 0.023384
#
#
# Mechanical properties :
#
#
# Convention : Reuss Voigt Hill
#
# Bulk Modulus (GPa) = 32.95068 59.44285 46.19677
# Shear Modulus (GPa) = 20.91025 28.77644 24.84334
#
# Velocity S-wave (km/s) = 3.25348 3.81669 3.54628
# Velocity P-wave (km/s) = 5.54921 7.03661 6.33670
#
# Compressibility (1/GPa) = 0.03034839
#
# Stress axis : x y z
#
# Youngs Moduli (GPa) = 100.36971 118.98027 29.85638
#
# Poissons Ratio (x) = 0.41194 0.10179
# Poissons Ratio (y) = 0.34750 0.11599
# Poissons Ratio (z) = 0.34219 0.46225
#
# Static dielectric constant tensor:
#      x y z
#    x 1.739920 0.000000 0.000000 
#    y 0.000000 1.792700 0.000000 
#    z 0.000000 0.000000 1.676030 
# 
# From -- ./inp_files/28675.got.cif
#   From: 2010.05.17/outbox.cif.g08.bks.cpg/sg43_15_cif.got.tgz:28675.got - 2010.06.03 19:21:55.
