data_PCOD9370244
_publ_section_title
;
Structure prediction by ZEFSAII (Michael W. Deem and Ramdas Pophale) SiO2 
 PCOD9370244
Probable space group: F D D 2
;
_chemical_formula_sum "Si O2"
_cell_formula_units_Z 88
_cell_length_a 28.650834
_cell_length_b 9.054769
_cell_length_c 18.021800
_cell_angle_alpha 90.000000
_cell_angle_beta 90.000000
_cell_angle_gamma 90.000000
_cell_volume 4675.335805
_symmetry_space_group_name_H-M "F D D 2"
_symmetry_group_IT_number 43
_symmetry_cell_setting 'orthorhombic'
loop_
_space_group_symop_operation_xyz
x,y,z
-x,-y,z
1/4-x,1/4+y,1/4+z
1/4+x,1/4-y,1/4+z
x,1/2+y,1/2+z
-x,1/2-y,1/2+z
1/4-x,3/4+y,3/4+z
1/4+x,3/4-y,3/4+z
1/2+x,y,1/2+z
1/2-x,-y,1/2+z
3/4-x,1/4+y,3/4+z
3/4+x,1/4-y,3/4+z
1/2+x,1/2+y,z
1/2-x,1/2-y,z
3/4-x,3/4+y,1/4+z
3/4+x,3/4-y,1/4+z
loop_
_atom_site_type_symbol
_atom_site_label
_atom_site_fract_x
_atom_site_fract_y
_atom_site_fract_z
Si Si1 0.485320 0.753434 0.939480
Si Si2 0.746448 0.583290 0.022750
Si Si3 0.825393 0.300249 0.190284
Si Si4 0.250000 0.750000 0.801229
Si Si5 0.345031 0.915179 0.028802
Si Si6 0.952394 0.922285 0.195225
O O1 0.484122 0.676283 0.859507
O O2 0.535874 0.827392 0.955015
O O3 0.450762 0.892506 0.933975
O O4 0.478247 0.629727 0.001783
O O5 0.750000 0.750000 0.996604
O O6 0.797395 0.507857 0.018145
O O7 0.708172 0.491072 0.976528
O O8 0.863323 0.270474 0.253373
O O9 0.847709 0.350808 0.111929
O O10 0.288906 0.684959 0.857663
O O11 0.339441 0.772062 0.975001
O O12 0.000000 0.000000 0.227563
#
# Coordination Sequence:
#
# PCOD9370244 Si02
#       6
#    16  16  16   8  16  16
#     4  10  20  39  60  85 117 160 200 235 306 352
#     4  10  18  37  64  82 113 160 199 237 295 363
#     4  10  22  37  61  83 120 159 197 243 295 362
#     4  10  20  36  62  88 114 148 202 252 282 356
#     4  10  20  38  57  87 118 156 200 243 297 352
#     4   8  18  35  56  81 113 151 191 235 293 351
#
# _framework density 18.822178000000001
#
# number of rings (size 3 to 8) (size 9 to 14) (size 15 to 20)
#    0.545    1.818    2.727    0.000    2.545    0.000 
#    6.545    3.636    0.000    0.000    0.000    0.000 
#    0.000    0.000    0.000    0.000    0.000    0.000 
#
# Total GULP energy -122491.146253 kJ/mol
# GULP energy per Si atom -5567.779375 kJ/mol
# Density = 1.877934 g / cm^3
# Si number density = 18.822178 Si / 1000 Ang^3
#
#
#
# Elastic Constant Matrix: (Units=GPa)
#
#
# Indices 1 2 3 4 5 6 
#
# 1 27.8416 -6.3684 28.8730 0.0000 0.0000 0.0000
# 2 -6.3684 101.9021 53.1615 0.0000 0.0000 0.0000
# 3 28.8730 53.1615 106.2370 0.0000 0.0000 0.0000
# 4 0.0000 0.0000 0.0000 10.2031 0.0000 0.0000
# 5 0.0000 0.0000 0.0000 0.0000 7.8299 0.0000
# 6 0.0000 0.0000 0.0000 0.0000 0.0000 10.2273
#
#
#
# Elastic Compliance Matrix: (Units=1/GPa)
#
#
# Indices 1 2 3 4 5 6 
#
# 1 0.070226 0.019414 -0.028801 0.000000 0.000000 0.000000
# 2 0.019414 0.018647 -0.014607 0.000000 0.000000 0.000000
# 3 -0.028801 -0.014607 0.024550 0.000000 0.000000 0.000000
# 4 0.000000 0.000000 0.000000 0.098010 0.000000 0.000000
# 5 0.000000 0.000000 0.000000 0.000000 0.127716 0.000000
# 6 0.000000 0.000000 0.000000 0.000000 0.000000 0.097777
#
#
# Mechanical properties :
#
#
# Convention : Reuss Voigt Hill
#
# Bulk Modulus (GPa) = 15.28246 43.03479 29.15863
# Shear Modulus (GPa) = 9.86726 16.33969 13.10347
#
# Velocity S-wave (km/s) = 2.29210 2.94956 2.64137
# Velocity P-wave (km/s) = 3.89127 5.87481 4.98274
#
# Compressibility (1/GPa) = 0.06543449
#
# Stress axis : x y z
#
# Youngs Moduli (GPa) = 14.23976 53.62731 40.73316
#
# Poissons Ratio (x) = -1.04112 1.17315
# Poissons Ratio (y) = -0.27645 0.59501
# Poissons Ratio (z) = 0.41012 0.78336
#
# Static dielectric constant tensor:
#      x y z
#    x 1.683180 0.000000 0.000000 
#    y 0.000000 1.656190 0.000000 
#    z 0.000000 0.000000 1.648390 
# 
# From -- ./inp_files/15219.got.cif
#   From: 2010.05.17/outbox.cif.g08.bks.cpg/sg43_8_cif.got.tgz:15219.got - 2010.06.03 19:21:55.
