data_PCOD9370503
_publ_section_title
;
Structure prediction by ZEFSAII (Michael W. Deem and Ramdas Pophale) SiO2 
 PCOD9370503
Probable space group: F D D 2
;
_chemical_formula_sum "Si O2"
_cell_formula_units_Z 128
_cell_length_a 22.061792
_cell_length_b 13.185009
_cell_length_c 23.681695
_cell_angle_alpha 90.000000
_cell_angle_beta 90.000000
_cell_angle_gamma 90.000000
_cell_volume 6888.648099
_symmetry_space_group_name_H-M "F D D 2"
_symmetry_group_IT_number 43
_symmetry_cell_setting 'orthorhombic'
loop_
_space_group_symop_operation_xyz
x,y,z
-x,-y,z
1/4-x,1/4+y,1/4+z
1/4+x,1/4-y,1/4+z
x,1/2+y,1/2+z
-x,1/2-y,1/2+z
1/4-x,3/4+y,3/4+z
1/4+x,3/4-y,3/4+z
1/2+x,y,1/2+z
1/2-x,-y,1/2+z
3/4-x,1/4+y,3/4+z
3/4+x,1/4-y,3/4+z
1/2+x,1/2+y,z
1/2-x,1/2-y,z
3/4-x,3/4+y,1/4+z
3/4+x,3/4-y,1/4+z
loop_
_atom_site_type_symbol
_atom_site_label
_atom_site_fract_x
_atom_site_fract_y
_atom_site_fract_z
Si Si1 0.882654 0.631388 0.028560
Si Si2 0.035646 0.594554 0.774479
Si Si3 0.026074 0.886560 0.629077
Si Si4 0.930372 0.013998 0.163685
Si Si5 0.024915 0.111121 0.869346
Si Si6 0.807858 0.481670 0.950677
Si Si7 0.136835 0.906615 0.715164
Si Si8 0.342580 0.969764 0.570844
O O1 0.944543 0.627181 0.066202
O O2 0.829516 0.641279 0.074734
O O3 0.858886 0.540718 0.987308
O O4 0.883133 0.731966 0.991181
O O5 0.071588 0.537988 0.724760
O O6 0.079253 0.661896 0.811517
O O7 0.000000 0.500000 0.802643
O O8 0.990372 0.675934 0.743552
O O9 0.082405 0.885465 0.671908
O O10 0.977783 0.806531 0.656785
O O11 0.000000 0.000000 0.630793
O O12 0.916479 0.133089 0.168563
O O13 0.887537 0.955181 0.122228
O O14 0.000000 0.000000 0.144923
O O15 0.051915 0.149402 0.928600
O O16 0.970993 0.171626 0.839314
O O17 0.000000 0.000000 0.879352
O O18 0.123779 0.828850 0.766037
#
# Coordination Sequence:
#
# PCOD9370503 Si02
#       8
#    16  16  16  16  16  16  16  16
#     4  11  22  40  65  92 124 165 201 257 315 368
#     4   9  20  39  61  82 115 162 211 243 294 373
#     4  11  22  39  65  93 119 162 208 250 313 377
#     4   9  24  41  61  89 120 162 217 248 301 381
#     4  11  24  39  63  98 124 159 213 253 311 383
#     4  10  19  42  61  82 120 163 201 253 301 366
#     4  11  24  37  66  94 123 159 207 259 311 373
#     4  12  22  41  65  90 125 170 195 265 319 354
#
# _framework density 18.581295000000001
#
# number of rings (size 3 to 8) (size 9 to 14) (size 15 to 20)
#    0.000    1.750    5.000    0.000    5.250    0.500 
#    9.000    0.000    0.000    0.000    0.000    0.000 
#    0.000    0.000    0.000    0.000    0.000    0.000 
#
# Total GULP energy -178248.294579 kJ/mol
# GULP energy per Si atom -5570.259206 kJ/mol
# Density = 1.853900 g / cm^3
# Si number density = 18.581295 Si / 1000 Ang^3
#
#
#
# Elastic Constant Matrix: (Units=GPa)
#
#
# Indices 1 2 3 4 5 6 
#
# 1 1.3946 -1.2199 13.2721 0.0000 0.0000 0.0000
# 2 -1.2199 102.5263 29.9491 0.0000 0.0000 0.0000
# 3 13.2721 29.9491 57.4673 0.0000 0.0000 0.0000
# 4 0.0000 0.0000 0.0000 39.1564 0.0000 0.0000
# 5 0.0000 0.0000 0.0000 0.0000 7.8593 0.0000
# 6 0.0000 0.0000 0.0000 0.0000 0.0000 33.1401
#
#
#
# Elastic Compliance Matrix: (Units=1/GPa)
#
#
# Indices 1 2 3 4 5 6 
#
# 1 -0.411138 -0.038488 0.115011 0.000000 0.000000 0.000000
# 2 -0.038488 0.007902 0.004771 0.000000 0.000000 0.000000
# 3 0.115011 0.004771 -0.011647 0.000000 0.000000 0.000000
# 4 0.000000 0.000000 0.000000 0.025539 0.000000 0.000000
# 5 0.000000 0.000000 0.000000 0.000000 0.127238 0.000000
# 6 0.000000 0.000000 0.000000 0.000000 0.000000 0.030175
#
#
# Mechanical properties :
#
#
# Convention : Reuss Voigt Hill
#
# Bulk Modulus (GPa) = -3.96359 27.26564 11.65102
# Shear Modulus (GPa) = -10.44678 23.99028 6.77175
#
# Velocity S-wave (km/s) = -2.37369 3.59708 1.91110
# Velocity P-wave (km/s) = 3.10649 5.65310 3.33971
#
# Compressibility (1/GPa) = -0.25229634
#
# Stress axis : x y z
#
# Youngs Moduli (GPa) = -2.43227 126.54881 -85.86080
#
# Poissons Ratio (x) = 4.87059 9.87490
# Poissons Ratio (y) = -0.09361 0.40961
# Poissons Ratio (z) = 0.27974 -0.60372
#
# Static dielectric constant tensor:
#      x y z
#    x 1.671550 0.000000 0.000000 
#    y 0.000000 1.647750 0.000000 
#    z 0.000000 0.000000 1.662530 
# 
# From -- ./inp_files/21326.got.cif
#   From: 2010.05.17/outbox.cif.g08.bks.cpg/sg43_11_cif.got.tgz:21326.got - 2010.06.03 19:21:55.
