data_PCOD9370627
_publ_section_title
;
Structure prediction by ZEFSAII (Michael W. Deem and Ramdas Pophale) SiO2 
 PCOD9370627
Probable space group: F D D 2
;
_chemical_formula_sum "Si O2"
_cell_formula_units_Z 112
_cell_length_a 11.397968
_cell_length_b 31.762821
_cell_length_c 14.659776
_cell_angle_alpha 90.000000
_cell_angle_beta 90.000000
_cell_angle_gamma 90.000000
_cell_volume 5307.302415
_symmetry_space_group_name_H-M "F D D 2"
_symmetry_group_IT_number 43
_symmetry_cell_setting 'orthorhombic'
loop_
_space_group_symop_operation_xyz
x,y,z
-x,-y,z
1/4-x,1/4+y,1/4+z
1/4+x,1/4-y,1/4+z
x,1/2+y,1/2+z
-x,1/2-y,1/2+z
1/4-x,3/4+y,3/4+z
1/4+x,3/4-y,3/4+z
1/2+x,y,1/2+z
1/2-x,-y,1/2+z
3/4-x,1/4+y,3/4+z
3/4+x,1/4-y,3/4+z
1/2+x,1/2+y,z
1/2-x,1/2-y,z
3/4-x,3/4+y,1/4+z
3/4+x,3/4-y,1/4+z
loop_
_atom_site_type_symbol
_atom_site_label
_atom_site_fract_x
_atom_site_fract_y
_atom_site_fract_z
Si Si1 0.369500 0.565896 0.725500
Si Si2 0.802340 0.004915 0.278144
Si Si3 0.564512 0.914108 0.566986
Si Si4 0.000000 0.000000 0.426749
Si Si5 0.017343 0.845461 0.450301
Si Si6 0.500000 0.000000 0.634905
Si Si7 0.024027 0.574297 0.064665
Si Si8 0.426594 0.124339 0.379200
O O1 0.299525 0.529901 0.779559
O O2 0.447355 0.550855 0.641753
O O3 0.450605 0.591816 0.796749
O O4 0.276868 0.596159 0.671978
O O5 0.751189 0.050295 0.249187
O O6 0.886384 0.010784 0.365092
O O7 0.893855 0.987213 0.201901
O O8 0.645862 0.896008 0.646591
O O9 0.556691 0.963891 0.575288
O O10 0.611388 0.900932 0.469179
O O11 0.432623 0.899458 0.587868
O O12 0.960895 0.959918 0.485998
O O13 0.113274 0.840340 0.370712
O O14 0.035085 0.884220 0.519293
#
# Coordination Sequence:
#
# PCOD9370627 Si02
#       8
#    16  16  16   8  16   8  16  16
#     4  11  23  43  64  93 135 173 214 269 336 395
#     4  10  22  41  65  95 128 170 217 274 324 391
#     4  10  20  37  62  96 123 162 218 267 322 377
#     4  11  26  42  69 100 130 174 225 274 330 387
#     4  11  24  40  69  96 135 171 222 272 334 396
#     4   9  18  38  59  92 124 156 201 274 314 373
#     4  12  25  44  66  99 137 175 216 271 335 401
#     4  10  22  37  65  92 126 168 215 271 325 391
#
# _framework density 21.102999000000001
#
# number of rings (size 3 to 8) (size 9 to 14) (size 15 to 20)
#    0.000    1.429    1.429    3.429    6.000    0.000 
#    0.000    5.000    0.000    0.000    0.000    0.000 
#    0.000    0.000    0.000    0.000    0.000    0.000 
#
# Total GULP energy -156210.477238 kJ/mol
# GULP energy per Si atom -5578.945616 kJ/mol
# Density = 2.105497 g / cm^3
# Si number density = 21.102999 Si / 1000 Ang^3
#
#
#
# Elastic Constant Matrix: (Units=GPa)
#
#
# Indices 1 2 3 4 5 6 
#
# 1 33.2982 18.0971 17.6535 0.0000 0.0000 0.0000
# 2 18.0971 74.1966 48.0475 0.0000 0.0000 0.0000
# 3 17.6535 48.0475 103.9238 0.0000 0.0000 0.0000
# 4 0.0000 0.0000 0.0000 33.9431 0.0000 0.0000
# 5 0.0000 0.0000 0.0000 0.0000 35.9071 0.0000
# 6 0.0000 0.0000 0.0000 0.0000 0.0000 25.0460
#
#
#
# Elastic Compliance Matrix: (Units=1/GPa)
#
#
# Indices 1 2 3 4 5 6 
#
# 1 0.035211 -0.006730 -0.002870 0.000000 0.000000 0.000000
# 2 -0.006730 0.020523 -0.008346 0.000000 0.000000 0.000000
# 3 -0.002870 -0.008346 0.013968 0.000000 0.000000 0.000000
# 4 0.000000 0.000000 0.000000 0.029461 0.000000 0.000000
# 5 0.000000 0.000000 0.000000 0.000000 0.027850 0.000000
# 6 0.000000 0.000000 0.000000 0.000000 0.000000 0.039926
#
#
# Mechanical properties :
#
#
# Convention : Reuss Voigt Hill
#
# Bulk Modulus (GPa) = 29.57502 42.11275 35.84388
# Shear Modulus (GPa) = 23.35352 27.48728 25.42040
#
# Velocity S-wave (km/s) = 3.33024 3.61297 3.47448
# Velocity P-wave (km/s) = 5.36957 6.11587 5.75483
#
# Compressibility (1/GPa) = 0.03381232
#
# Stress axis : x y z
#
# Youngs Moduli (GPa) = 28.40051 48.72477 71.59034
#
# Poissons Ratio (x) = 0.32790 0.20545
# Poissons Ratio (y) = 0.19113 0.59746
# Poissons Ratio (z) = 0.08151 0.40663
#
# Static dielectric constant tensor:
#      x y z
#    x 1.799500 0.000000 0.000000 
#    y 0.000000 1.784210 0.000000 
#    z 0.000000 0.000000 1.742950 
# 
# From -- ./inp_files/9815.got.cif
#   From: 2010.05.17/outbox.cif.g08.bks.cpg/sg43_5_cif.got.tgz:9815.got - 2010.06.03 19:21:55.
