data_PCOD9370800
_publ_section_title
;
Structure prediction by ZEFSAII (Michael W. Deem and Ramdas Pophale) SiO2 
 PCOD9370800
Probable space group: F D D 2
;
_chemical_formula_sum "Si O2"
_cell_formula_units_Z 104
_cell_length_a 27.090458
_cell_length_b 8.885795
_cell_length_c 19.543863
_cell_angle_alpha 90.000000
_cell_angle_beta 90.000000
_cell_angle_gamma 90.000000
_cell_volume 4704.603709
_symmetry_space_group_name_H-M "F D D 2"
_symmetry_group_IT_number 43
_symmetry_cell_setting 'orthorhombic'
loop_
_space_group_symop_operation_xyz
x,y,z
-x,-y,z
1/4-x,1/4+y,1/4+z
1/4+x,1/4-y,1/4+z
x,1/2+y,1/2+z
-x,1/2-y,1/2+z
1/4-x,3/4+y,3/4+z
1/4+x,3/4-y,3/4+z
1/2+x,y,1/2+z
1/2-x,-y,1/2+z
3/4-x,1/4+y,3/4+z
3/4+x,1/4-y,3/4+z
1/2+x,1/2+y,z
1/2-x,1/2-y,z
3/4-x,3/4+y,1/4+z
3/4+x,3/4-y,1/4+z
loop_
_atom_site_type_symbol
_atom_site_label
_atom_site_fract_x
_atom_site_fract_y
_atom_site_fract_z
Si Si1 0.420942 0.107879 0.142890
Si Si2 0.147098 0.034227 0.278872
Si Si3 0.841752 0.263395 0.541691
Si Si4 0.779015 0.526257 0.879203
Si Si5 0.436420 0.190694 0.767710
Si Si6 0.250000 0.750000 0.122140
Si Si7 0.330241 0.520698 0.132758
O O1 0.395380 0.086704 0.217682
O O2 0.386243 0.192100 0.087423
O O3 0.471718 0.201983 0.143684
O O4 0.442335 0.938107 0.129823
O O5 0.116815 0.139464 0.331359
O O6 0.202810 0.035971 0.306596
O O7 0.118021 0.874534 0.280738
O O8 0.146336 0.061391 0.198137
O O9 0.812102 0.387090 0.584353
O O10 0.809477 0.117673 0.526849
O O11 0.799438 0.418583 0.938953
O O12 0.470080 0.108042 0.821773
O O13 0.289829 0.642456 0.158589
#
# Coordination Sequence:
#
# PCOD9370800 Si02
#       7
#    16  16  16  16  16   8  16
#     4  10  22  38  69  96 130 173 227 277 330 412
#     4  11  21  41  64  96 133 178 222 277 332 409
#     4  11  22  42  67  97 133 178 222 280 347 399
#     4  10  20  40  64  96 125 177 223 267 331 409
#     4  10  21  41  69  90 130 173 225 273 335 400
#     4  10  24  40  64  96 122 178 220 282 334 408
#     4  11  24  40  64  98 136 173 223 278 344 399
#
# _framework density 22.106007000000002
#
# number of rings (size 3 to 8) (size 9 to 14) (size 15 to 20)
#    0.000    1.538    3.077    1.846    0.000    4.308 
#    2.769    0.000    3.385    0.000    0.000    0.000 
#    0.000    0.000    0.000    0.000    0.000    0.000 
#
# Total GULP energy -144830.339242 kJ/mol
# GULP energy per Si atom -5570.397663 kJ/mol
# Density = 2.205569 g / cm^3
# Si number density = 22.106007 Si / 1000 Ang^3
#
#
#
# Elastic Constant Matrix: (Units=GPa)
#
#
# Indices 1 2 3 4 5 6 
#
# 1 63.8833 -0.0054 40.7330 0.0000 0.0000 0.0000
# 2 -0.0054 41.6831 17.6877 0.0000 0.0000 0.0000
# 3 40.7330 17.6877 124.9268 0.0000 0.0000 0.0000
# 4 0.0000 0.0000 0.0000 -9.1619 0.0000 0.0000
# 5 0.0000 0.0000 0.0000 0.0000 19.9028 0.0000
# 6 0.0000 0.0000 0.0000 0.0000 0.0000 13.2273
#
#
#
# Elastic Compliance Matrix: (Units=1/GPa)
#
#
# Indices 1 2 3 4 5 6 
#
# 1 0.020100 0.002962 -0.006973 0.000000 0.000000 0.000000
# 2 0.002962 0.025960 -0.004641 0.000000 0.000000 0.000000
# 3 -0.006973 -0.004641 0.010935 0.000000 0.000000 0.000000
# 4 0.000000 0.000000 0.000000 -0.109148 0.000000 0.000000
# 5 0.000000 0.000000 0.000000 0.000000 0.050244 0.000000
# 6 0.000000 0.000000 0.000000 0.000000 0.000000 0.075601
#
#
# Mechanical properties :
#
#
# Convention : Reuss Voigt Hill
#
# Bulk Modulus (GPa) = 25.19507 38.59153 31.89330
# Shear Modulus (GPa) = 47.97129 16.26549 32.11839
#
# Velocity S-wave (km/s) = 4.66344 2.71550 3.81586
# Velocity P-wave (km/s) = 6.35760 5.22755 5.82007
#
# Compressibility (1/GPa) = 0.03969030
#
# Stress axis : x y z
#
# Youngs Moduli (GPa) = 49.75153 38.52026 91.44631
#
# Poissons Ratio (x) = -0.11408 0.63765
# Poissons Ratio (y) = -0.14734 0.42442
# Poissons Ratio (z) = 0.34692 0.17878
#
# Static dielectric constant tensor:
#      x y z
#    x 1.829350 0.000000 0.000000 
#    y 0.000000 1.881840 0.000000 
#    z 0.000000 0.000000 1.840450 
# 
# From -- ./inp_files/16662.got.cif
#   From: 2010.05.17/outbox.cif.g08.bks.cpg/sg43_9_cif.got.tgz:16662.got - 2010.06.03 19:21:55.
