data_PCOD9370340
_publ_section_title
;
Structure prediction by ZEFSAII (Michael W. Deem and Ramdas Pophale) SiO2 
 PCOD9370340
Probable space group: F D D 2
;
_chemical_formula_sum "Si O2"
_cell_formula_units_Z 104
_cell_length_a 10.975129
_cell_length_b 17.454499
_cell_length_c 21.999592
_cell_angle_alpha 90.000000
_cell_angle_beta 90.000000
_cell_angle_gamma 90.000000
_cell_volume 4214.360161
_symmetry_space_group_name_H-M "F D D 2"
_symmetry_group_IT_number 43
_symmetry_cell_setting 'orthorhombic'
loop_
_space_group_symop_operation_xyz
x,y,z
-x,-y,z
1/4-x,1/4+y,1/4+z
1/4+x,1/4-y,1/4+z
x,1/2+y,1/2+z
-x,1/2-y,1/2+z
1/4-x,3/4+y,3/4+z
1/4+x,3/4-y,3/4+z
1/2+x,y,1/2+z
1/2-x,-y,1/2+z
3/4-x,1/4+y,3/4+z
3/4+x,1/4-y,3/4+z
1/2+x,1/2+y,z
1/2-x,1/2-y,z
3/4-x,3/4+y,1/4+z
3/4+x,3/4-y,1/4+z
loop_
_atom_site_type_symbol
_atom_site_label
_atom_site_fract_x
_atom_site_fract_y
_atom_site_fract_z
Si Si1 0.642295 0.594104 0.356800
Si Si2 0.401456 0.648156 0.851984
Si Si3 0.145330 0.705366 0.338061
Si Si4 0.750000 0.750000 0.145148
Si Si5 0.993399 0.688066 0.161243
Si Si6 0.376344 0.216508 0.479356
Si Si7 0.438523 0.675404 0.438771
O O1 0.758158 0.648496 0.342309
O O2 0.687288 0.514123 0.387296
O O3 0.591383 0.574557 0.290960
O O4 0.542387 0.634135 0.398311
O O5 0.504203 0.696832 0.817819
O O6 0.441342 0.560649 0.848845
O O7 0.420396 0.664472 0.924099
O O8 0.250000 0.750000 0.300371
O O9 0.199212 0.623371 0.359290
O O10 0.125345 0.760666 0.396757
O O11 0.637818 0.782686 0.184367
O O12 0.086295 0.637942 0.201862
O O13 0.250000 0.250000 0.455854
O O14 0.482779 0.279243 0.488818
#
# Coordination Sequence:
#
# PCOD9370340 Si02
#       7
#    16  16  16   8  16  16  16
#     4  11  21  35  62  90 124 173 216 269 337 401
#     4   9  18  35  57  84 122 162 208 267 317 390
#     4   8  16  31  58  80 116 170 205 258 335 378
#     4   8  16  32  58  74 114 168 200 256 332 372
#     4   9  17  33  58  83 116 167 213 258 331 388
#     4  11  21  36  58  89 128 164 217 273 333 397
#     4  10  19  34  58  89 120 166 217 274 324 401
#
# _framework density 24.677530000000001
#
# number of rings (size 3 to 8) (size 9 to 14) (size 15 to 20)
#    0.000    2.462    1.538    1.385    0.000    0.000 
#    0.000    3.077  108.308    1.846    0.000    0.000 
#    0.000    0.000    0.000    0.000    0.000    0.000 
#
# Total GULP energy -144961.614421 kJ/mol
# GULP energy per Si atom -5575.446708 kJ/mol
# Density = 2.462136 g / cm^3
# Si number density = 24.677530 Si / 1000 Ang^3
#
#
#
# Elastic Constant Matrix: (Units=GPa)
#
#
# Indices 1 2 3 4 5 6 
#
# 1 132.3043 39.5523 -15.3482 0.0000 0.0000 0.0000
# 2 39.5523 82.9444 8.4916 0.0000 0.0000 0.0000
# 3 -15.3482 8.4916 29.9911 0.0000 0.0000 0.0000
# 4 0.0000 0.0000 0.0000 8.2586 0.0000 0.0000
# 5 0.0000 0.0000 0.0000 0.0000 9.1717 0.0000
# 6 0.0000 0.0000 0.0000 0.0000 0.0000 77.6137
#
#
#
# Elastic Compliance Matrix: (Units=1/GPa)
#
#
# Indices 1 2 3 4 5 6 
#
# 1 0.009948 -0.005422 0.006626 0.000000 0.000000 0.000000
# 2 -0.005422 0.015371 -0.007127 0.000000 0.000000 0.000000
# 3 0.006626 -0.007127 0.038752 0.000000 0.000000 0.000000
# 4 0.000000 0.000000 0.000000 0.121086 0.000000 0.000000
# 5 0.000000 0.000000 0.000000 0.000000 0.109031 0.000000
# 6 0.000000 0.000000 0.000000 0.000000 0.000000 0.012884
#
#
# Mechanical properties :
#
#
# Convention : Reuss Voigt Hill
#
# Bulk Modulus (GPa) = 19.14772 34.51458 26.83115
# Shear Modulus (GPa) = 14.86649 33.17840 24.02244
#
# Velocity S-wave (km/s) = 2.45711 3.67069 3.12341
# Velocity P-wave (km/s) = 3.97817 5.65525 4.88916
#
# Compressibility (1/GPa) = 0.05222555
#
# Stress axis : x y z
#
# Youngs Moduli (GPa) = 100.52341 65.05573 25.80506
#
# Poissons Ratio (x) = 0.35274 -0.17099
# Poissons Ratio (y) = 0.54504 0.18391
# Poissons Ratio (z) = -0.66608 0.46365
#
# Static dielectric constant tensor:
#      x y z
#    x 2.077530 0.000000 0.000000 
#    y 0.000000 2.122780 0.000000 
#    z 0.000000 0.000000 1.917780 
# 
# From -- ./inp_files/26023.got.cif
#   From: 2010.05.17/outbox.cif.g08.bks.cpg/sg43_14_cif.got.tgz:26023.got - 2010.06.03 19:21:55.
