data_PCOD9370647
_publ_section_title
;
Structure prediction by ZEFSAII (Michael W. Deem and Ramdas Pophale) SiO2 
 PCOD9370647
Probable space group: F D D 2
;
_chemical_formula_sum "Si O2"
_cell_formula_units_Z 112
_cell_length_a 16.670982
_cell_length_b 11.240010
_cell_length_c 25.530657
_cell_angle_alpha 90.000000
_cell_angle_beta 90.000000
_cell_angle_gamma 90.000000
_cell_volume 4783.985682
_symmetry_space_group_name_H-M "F D D 2"
_symmetry_group_IT_number 43
_symmetry_cell_setting 'orthorhombic'
loop_
_space_group_symop_operation_xyz
x,y,z
-x,-y,z
1/4-x,1/4+y,1/4+z
1/4+x,1/4-y,1/4+z
x,1/2+y,1/2+z
-x,1/2-y,1/2+z
1/4-x,3/4+y,3/4+z
1/4+x,3/4-y,3/4+z
1/2+x,y,1/2+z
1/2-x,-y,1/2+z
3/4-x,1/4+y,3/4+z
3/4+x,1/4-y,3/4+z
1/2+x,1/2+y,z
1/2-x,1/2-y,z
3/4-x,3/4+y,1/4+z
3/4+x,3/4-y,1/4+z
loop_
_atom_site_type_symbol
_atom_site_label
_atom_site_fract_x
_atom_site_fract_y
_atom_site_fract_z
Si Si1 0.423070 0.932710 0.789560
Si Si2 0.142929 0.665790 0.488939
Si Si3 0.113162 0.063471 0.577296
Si Si4 0.544122 0.644541 0.682262
Si Si5 0.221169 0.060168 0.091734
Si Si6 0.825663 0.187618 0.209312
Si Si7 0.459168 0.159883 0.458486
O O1 0.441408 0.825781 0.829663
O O2 0.360921 0.874835 0.748551
O O3 0.500000 0.000000 0.762937
O O4 0.390086 0.049192 0.818283
O O5 0.161160 0.802948 0.472503
O O6 0.202681 0.595802 0.449663
O O7 0.179586 0.636492 0.545831
O O8 0.950878 0.361808 0.480221
O O9 0.057155 0.083853 0.626678
O O10 0.183465 0.968688 0.589659
O O11 0.080475 0.028666 0.520648
O O12 0.591135 0.767931 0.685793
O O13 0.202685 0.120746 0.147343
O O14 0.750000 0.250000 0.182871
O O15 0.805998 0.050904 0.206631
#
# Coordination Sequence:
#
# PCOD9370647 Si02
#       7
#    16  16  16  16  16  16  16
#     4   9  22  43  67  99 127 167 250 308 338 423
#     4  11  24  39  64  99 144 178 225 288 360 447
#     4  10  20  37  67  91 123 176 232 296 351 402
#     4  11  22  41  60  98 138 176 226 294 351 420
#     4  11  21  43  65  89 136 187 224 293 368 414
#     4  11  20  36  65  95 124 172 236 290 335 404
#     4  11  23  43  68  97 135 186 239 287 361 430
#
# _framework density 23.411441
#
# number of rings (size 3 to 8) (size 9 to 14) (size 15 to 20)
#    0.000    1.429    4.286    0.857    2.000    1.714 
#    2.571    5.714    0.000    0.000    0.000    0.000 
#    0.000    0.000    0.000    0.000    0.000    0.000 
#
# Total GULP energy -156285.287917 kJ/mol
# GULP energy per Si atom -5581.617426 kJ/mol
# Density = 2.335816 g / cm^3
# Si number density = 23.411441 Si / 1000 Ang^3
#
#
#
# Elastic Constant Matrix: (Units=GPa)
#
#
# Indices 1 2 3 4 5 6 
#
# 1 146.2959 20.5197 61.8089 0.0000 0.0000 0.0000
# 2 20.5197 61.4623 -2.6736 0.0000 0.0000 0.0000
# 3 61.8089 -2.6736 150.6035 0.0000 0.0000 0.0000
# 4 0.0000 0.0000 0.0000 26.4136 0.0000 0.0000
# 5 0.0000 0.0000 0.0000 0.0000 15.1128 0.0000
# 6 0.0000 0.0000 0.0000 0.0000 0.0000 36.5700
#
#
#
# Elastic Compliance Matrix: (Units=1/GPa)
#
#
# Indices 1 2 3 4 5 6 
#
# 1 0.008825 -0.003106 -0.003677 0.000000 0.000000 0.000000
# 2 -0.003106 0.017376 0.001583 0.000000 0.000000 0.000000
# 3 -0.003677 0.001583 0.008177 0.000000 0.000000 0.000000
# 4 0.000000 0.000000 0.000000 0.037859 0.000000 0.000000
# 5 0.000000 0.000000 0.000000 0.000000 0.066169 0.000000
# 6 0.000000 0.000000 0.000000 0.000000 0.000000 0.027345
#
#
# Mechanical properties :
#
#
# Convention : Reuss Voigt Hill
#
# Bulk Modulus (GPa) = 41.70440 57.51906 49.61173
# Shear Modulus (GPa) = 27.15283 34.19972 30.67627
#
# Velocity S-wave (km/s) = 3.40929 3.82620 3.62375
# Velocity P-wave (km/s) = 5.77495 6.64394 6.22463
#
# Compressibility (1/GPa) = 0.02397828
#
# Stress axis : x y z
#
# Youngs Moduli (GPa) = 113.32030 57.55062 122.29351
#
# Poissons Ratio (x) = 0.17876 0.44965
# Poissons Ratio (y) = 0.35198 -0.19362
# Poissons Ratio (z) = 0.41666 -0.09112
#
# Static dielectric constant tensor:
#      x y z
#    x 1.969420 0.000000 0.000000 
#    y 0.000000 1.889960 0.000000 
#    z 0.000000 0.000000 1.913270 
# 
# From -- ./inp_files/26421.got.cif
#   From: 2010.05.17/outbox.cif.g08.bks.cpg/sg43_14_cif.got.tgz:26421.got - 2010.06.03 19:21:55.
