data_PCOD9370790
_publ_section_title
;
Structure prediction by ZEFSAII (Michael W. Deem and Ramdas Pophale) SiO2 
 PCOD9370790
Probable space group: F D D 2
;
_chemical_formula_sum "Si O2"
_cell_formula_units_Z 120
_cell_length_a 11.833671
_cell_length_b 15.324803
_cell_length_c 29.167909
_cell_angle_alpha 90.000000
_cell_angle_beta 90.000000
_cell_angle_gamma 90.000000
_cell_volume 5289.561703
_symmetry_space_group_name_H-M "F D D 2"
_symmetry_group_IT_number 43
_symmetry_cell_setting 'orthorhombic'
loop_
_space_group_symop_operation_xyz
x,y,z
-x,-y,z
1/4-x,1/4+y,1/4+z
1/4+x,1/4-y,1/4+z
x,1/2+y,1/2+z
-x,1/2-y,1/2+z
1/4-x,3/4+y,3/4+z
1/4+x,3/4-y,3/4+z
1/2+x,y,1/2+z
1/2-x,-y,1/2+z
3/4-x,1/4+y,3/4+z
3/4+x,1/4-y,3/4+z
1/2+x,1/2+y,z
1/2-x,1/2-y,z
3/4-x,3/4+y,1/4+z
3/4+x,3/4-y,1/4+z
loop_
_atom_site_type_symbol
_atom_site_label
_atom_site_fract_x
_atom_site_fract_y
_atom_site_fract_z
Si Si1 0.104413 0.546977 0.206030
Si Si2 0.533108 0.848535 0.473899
Si Si3 0.268166 0.353675 0.331239
Si Si4 0.245049 0.407471 0.630585
Si Si5 0.123558 0.104249 0.543003
Si Si6 0.000000 0.000000 0.234820
Si Si7 0.282751 0.380741 0.125476
Si Si8 0.105259 0.652513 0.289535
O O1 0.183375 0.471492 0.225915
O O2 0.193353 0.607629 0.178697
O O3 0.052240 0.602218 0.246995
O O4 0.000000 0.500000 0.179515
O O5 0.541988 0.880903 0.526713
O O6 0.652215 0.803064 0.459959
O O7 0.511261 0.902761 0.427126
O O8 0.250000 0.250000 0.335178
O O9 0.376039 0.379303 0.362612
O O10 0.153252 0.392594 0.352569
O O11 0.338890 0.378361 0.594568
O O12 0.230085 0.512894 0.629302
O O13 0.182776 0.177503 0.513150
O O14 0.990022 0.106598 0.537578
O O15 0.168375 0.005895 0.534263
O O16 0.189823 0.362270 0.086737
#
# Coordination Sequence:
#
# PCOD9370790 Si02
#       8
#    16  16  16  16  16   8  16  16
#     4  11  23  38  65  94 132 172 219 269 335 406
#     4  11  23  38  64  97 121 171 224 270 332 400
#     4  10  20  40  63  87 130 167 220 277 328 397
#     4   9  20  36  61  92 116 171 217 263 321 398
#     4  10  21  39  67  88 130 169 218 277 334 389
#     4  12  22  40  66  96 130 172 228 280 336 394
#     4   9  21  36  63  89 124 170 217 258 331 411
#     4  10  21  41  63  95 127 172 215 276 336 392
#
# _framework density 22.686188999999999
#
# number of rings (size 3 to 8) (size 9 to 14) (size 15 to 20)
#    0.000    1.867    2.667    0.800   10.267    0.000 
#    0.000    3.333    2.933    0.000    0.000    0.000 
#    0.000    0.000    0.000    0.000    0.000    0.000 
#
# Total GULP energy -167286.749931 kJ/mol
# GULP energy per Si atom -5576.224998 kJ/mol
# Density = 2.263455 g / cm^3
# Si number density = 22.686189 Si / 1000 Ang^3
#
#
#
# Elastic Constant Matrix: (Units=GPa)
#
#
# Indices 1 2 3 4 5 6 
#
# 1 43.7400 23.5490 28.2507 0.0000 0.0000 0.0000
# 2 23.5490 48.7238 17.0258 0.0000 0.0000 0.0000
# 3 28.2507 17.0258 125.9948 0.0000 0.0000 0.0000
# 4 0.0000 0.0000 0.0000 -46.5673 0.0000 0.0000
# 5 0.0000 0.0000 0.0000 0.0000 36.3550 0.0000
# 6 0.0000 0.0000 0.0000 0.0000 0.0000 22.1626
#
#
#
# Elastic Compliance Matrix: (Units=1/GPa)
#
#
# Indices 1 2 3 4 5 6 
#
# 1 0.034460 -0.014647 -0.005747 0.000000 0.000000 0.000000
# 2 -0.014647 0.027766 -0.000468 0.000000 0.000000 0.000000
# 3 -0.005747 -0.000468 0.009289 0.000000 0.000000 0.000000
# 4 0.000000 0.000000 0.000000 -0.021474 0.000000 0.000000
# 5 0.000000 0.000000 0.000000 0.000000 0.027507 0.000000
# 6 0.000000 0.000000 0.000000 0.000000 0.000000 0.045121
#
#
# Mechanical properties :
#
#
# Convention : Reuss Voigt Hill
#
# Bulk Modulus (GPa) = 33.56730 39.56772 36.56751
# Shear Modulus (GPa) = 28.68236 12.36562 20.52399
#
# Velocity S-wave (km/s) = 3.55957 2.33721 3.01107
# Velocity P-wave (km/s) = 5.63228 4.97620 5.31437
#
# Compressibility (1/GPa) = 0.02979090
#
# Stress axis : x y z
#
# Youngs Moduli (GPa) = 29.01904 36.01479 107.65683
#
# Poissons Ratio (x) = 0.52750 0.61875
# Poissons Ratio (y) = 0.42503 0.05038
# Poissons Ratio (z) = 0.16679 0.01685
#
# Static dielectric constant tensor:
#      x y z
#    x 1.887120 0.000000 0.000000 
#    y 0.000000 1.906140 0.000000 
#    z 0.000000 0.000000 1.928450 
# 
# From -- ./inp_files/28771.got.cif
#   From: 2010.05.17/outbox.cif.g08.bks.cpg/sg43_15_cif.got.tgz:28771.got - 2010.06.03 19:21:55.
