data_PCOD9370560
_publ_section_title
;
Structure prediction by ZEFSAII (Michael W. Deem and Ramdas Pophale) SiO2 
 PCOD9370560
Probable space group: F D D 2
;
_chemical_formula_sum "Si O2"
_cell_formula_units_Z 112
_cell_length_a 12.100112
_cell_length_b 24.212059
_cell_length_c 16.406454
_cell_angle_alpha 90.000000
_cell_angle_beta 90.000000
_cell_angle_gamma 90.000000
_cell_volume 4806.576280
_symmetry_space_group_name_H-M "F D D 2"
_symmetry_group_IT_number 43
_symmetry_cell_setting 'orthorhombic'
loop_
_space_group_symop_operation_xyz
x,y,z
-x,-y,z
1/4-x,1/4+y,1/4+z
1/4+x,1/4-y,1/4+z
x,1/2+y,1/2+z
-x,1/2-y,1/2+z
1/4-x,3/4+y,3/4+z
1/4+x,3/4-y,3/4+z
1/2+x,y,1/2+z
1/2-x,-y,1/2+z
3/4-x,1/4+y,3/4+z
3/4+x,1/4-y,3/4+z
1/2+x,1/2+y,z
1/2-x,1/2-y,z
3/4-x,3/4+y,1/4+z
3/4+x,3/4-y,1/4+z
loop_
_atom_site_type_symbol
_atom_site_label
_atom_site_fract_x
_atom_site_fract_y
_atom_site_fract_z
Si Si1 0.588271 0.176794 0.467620
Si Si2 0.000000 0.000000 0.608191
Si Si3 0.750000 0.750000 0.153900
Si Si4 0.058474 0.446468 0.643250
Si Si5 0.806037 0.962400 0.801492
Si Si6 0.858557 0.361402 0.634750
Si Si7 0.698026 0.575779 0.619410
Si Si8 0.923558 0.548807 0.836298
O O1 0.676218 0.207044 0.410242
O O2 0.534981 0.225251 0.521883
O O3 0.488860 0.148748 0.420584
O O4 0.647820 0.140821 0.536232
O O5 0.901307 0.958714 0.575529
O O6 0.831534 0.712621 0.100100
O O7 0.835142 0.800973 0.177602
O O8 0.179024 0.445686 0.603963
O O9 0.080204 0.458514 0.738658
O O10 0.000000 0.500000 0.605526
O O11 0.977708 0.392853 0.644614
O O12 0.819432 0.929147 0.717553
O O13 0.704874 0.948879 0.860077
O O14 0.712217 0.639809 0.600905
O O15 0.000000 0.500000 0.870807
#
# Coordination Sequence:
#
# PCOD9370560 Si02
#       8
#    16   8   8  16  16  16  16  16
#     4  10  21  39  68  92 124 173 219 275 334 416
#     4  10  21  44  64  88 128 174 227 264 347 430
#     4  10  23  40  64  90 124 172 219 264 341 418
#     4  10  22  40  62  88 123 167 217 268 342 408
#     4   9  19  40  60  83 119 167 216 252 333 416
#     4  11  22  39  66  95 128 170 221 277 341 403
#     4  10  20  35  64  89 114 163 214 264 316 407
#     4  10  21  35  62  88 121 162 206 263 336 398
#
# _framework density 23.301407999999999
#
# number of rings (size 3 to 8) (size 9 to 14) (size 15 to 20)
#    0.000    2.000    0.000    7.286    8.000    0.000 
#    1.286    2.857    6.286    0.000    0.000    0.000 
#    0.000    0.000    0.000    0.000    0.000    0.000 
#
# Total GULP energy -155876.802804 kJ/mol
# GULP energy per Si atom -5567.028672 kJ/mol
# Density = 2.324837 g / cm^3
# Si number density = 23.301408 Si / 1000 Ang^3
#
#
#
# Elastic Constant Matrix: (Units=GPa)
#
#
# Indices 1 2 3 4 5 6 
#
# 1 123.4999 33.6461 -1.5447 0.0000 0.0000 0.0000
# 2 33.6461 73.8368 -11.2059 0.0000 0.0000 0.0000
# 3 -1.5447 -11.2059 9.3488 0.0000 0.0000 0.0000
# 4 0.0000 0.0000 0.0000 5.1795 0.0000 0.0000
# 5 0.0000 0.0000 0.0000 0.0000 13.9599 0.0000
# 6 0.0000 0.0000 0.0000 0.0000 0.0000 35.2744
#
#
#
# Elastic Compliance Matrix: (Units=1/GPa)
#
#
# Indices 1 2 3 4 5 6 
#
# 1 0.009389 -0.004942 -0.004372 0.000000 0.000000 0.000000
# 2 -0.004942 0.019156 0.022145 0.000000 0.000000 0.000000
# 3 -0.004372 0.022145 0.132788 0.000000 0.000000 0.000000
# 4 0.000000 0.000000 0.000000 0.193068 0.000000 0.000000
# 5 0.000000 0.000000 0.000000 0.000000 0.071634 0.000000
# 6 0.000000 0.000000 0.000000 0.000000 0.000000 0.028349
#
#
# Mechanical properties :
#
#
# Convention : Reuss Voigt Hill
#
# Bulk Modulus (GPa) = 5.34775 27.60849 16.47812
# Shear Modulus (GPa) = 10.18220 23.26876 16.72548
#
# Velocity S-wave (km/s) = 2.09267 3.16349 2.68206
# Velocity P-wave (km/s) = 2.85290 5.02172 4.08392
#
# Compressibility (1/GPa) = 0.18699447
#
# Stress axis : x y z
#
# Youngs Moduli (GPa) = 106.50929 52.20237 7.53082
#
# Poissons Ratio (x) = 0.25798 0.03293
# Poissons Ratio (y) = 0.52636 -0.16677
# Poissons Ratio (z) = 0.46570 -1.15603
#
# Static dielectric constant tensor:
#      x y z
#    x 2.015480 0.000000 0.000000 
#    y 0.000000 1.947130 0.000000 
#    z 0.000000 0.000000 1.908170 
# 
# From -- ./inp_files/17256.got.cif
#   From: 2010.05.17/outbox.cif.g08.bks.cpg/sg43_9_cif.got.tgz:17256.got - 2010.06.03 19:21:55.
