data_PCOD9370313
_publ_section_title
;
Structure prediction by ZEFSAII (Michael W. Deem and Ramdas Pophale) SiO2 
 PCOD9370313
Probable space group: F D D 2
;
_chemical_formula_sum "Si O2"
_cell_formula_units_Z 128
_cell_length_a 21.661885
_cell_length_b 11.423103
_cell_length_c 19.028717
_cell_angle_alpha 90.000000
_cell_angle_beta 90.000000
_cell_angle_gamma 90.000000
_cell_volume 4708.578832
_symmetry_space_group_name_H-M "F D D 2"
_symmetry_group_IT_number 43
_symmetry_cell_setting 'orthorhombic'
loop_
_space_group_symop_operation_xyz
x,y,z
-x,-y,z
1/4-x,1/4+y,1/4+z
1/4+x,1/4-y,1/4+z
x,1/2+y,1/2+z
-x,1/2-y,1/2+z
1/4-x,3/4+y,3/4+z
1/4+x,3/4-y,3/4+z
1/2+x,y,1/2+z
1/2-x,-y,1/2+z
3/4-x,1/4+y,3/4+z
3/4+x,1/4-y,3/4+z
1/2+x,1/2+y,z
1/2-x,1/2-y,z
3/4-x,3/4+y,1/4+z
3/4+x,3/4-y,1/4+z
loop_
_atom_site_type_symbol
_atom_site_label
_atom_site_fract_x
_atom_site_fract_y
_atom_site_fract_z
Si Si1 0.225195 0.374230 0.878380
Si Si2 0.604965 0.372470 0.285655
Si Si3 0.501250 0.627316 0.890438
Si Si4 0.735725 0.373332 0.132607
Si Si5 0.141693 0.116114 0.024320
Si Si6 0.373579 0.130320 0.524159
Si Si7 0.415449 0.378327 0.762027
Si Si8 0.742092 0.372144 0.840460
O O1 0.250000 0.250000 0.852612
O O2 0.156241 0.383494 0.846765
O O3 0.225022 0.373293 0.962621
O O4 0.259663 0.493563 0.863762
O O5 0.536778 0.370344 0.319638
O O6 0.611625 0.491720 0.241198
O O7 0.616099 0.247203 0.249005
O O8 0.500000 0.500000 0.926299
O O9 0.496456 0.756014 0.924482
O O10 0.443773 0.628855 0.835344
O O11 0.563350 0.624339 0.842878
O O12 0.750000 0.250000 0.169587
O O13 0.669486 0.368882 0.094386
O O14 0.073954 0.106770 0.056127
O O15 0.146607 0.989580 0.985802
O O16 0.139268 0.245403 0.990758
O O17 0.445150 0.125220 0.544296
O O18 0.750000 0.250000 0.884321
#
# Coordination Sequence:
#
# PCOD9370313 Si02
#       8
#    16  16  16  16  16  16  16  16
#     4  11  21  34  52  80 114 143 181 233 279 337
#     4   9  18  32  51  73 102 138 177 222 274 325
#     4   8  14  24  41  67  93 120 164 210 250 306
#     4   8  13  24  43  66  88 119 164 207 250 303
#     4   9  15  28  49  72  99 136 176 214 264 322
#     4   8  15  28  50  74  97 131 175 217 260 320
#     4  10  19  32  50  77 106 139 180 225 278 332
#     4   9  18  32  51  77 108 142 177 220 275 331
#
# _framework density 27.184422000000001
#
# number of rings (size 3 to 8) (size 9 to 14) (size 15 to 20)
#    0.000    3.000    0.000    1.875    0.000    0.000 
#    0.000    7.500    0.000   18.750    0.000   65.625 
#    0.000    0.000    0.000    0.000    0.000    0.000 
#
# Total GULP energy -178527.831313 kJ/mol
# GULP energy per Si atom -5578.994729 kJ/mol
# Density = 2.712255 g / cm^3
# Si number density = 27.184422 Si / 1000 Ang^3
#
#
#
# Elastic Constant Matrix: (Units=GPa)
#
#
# Indices 1 2 3 4 5 6 
#
# 1 113.2828 -4.0983 31.7600 0.0000 0.0000 0.0000
# 2 -4.0983 347.0520 41.0811 0.0000 0.0000 0.0000
# 3 31.7600 41.0811 42.7404 0.0000 0.0000 0.0000
# 4 0.0000 0.0000 0.0000 138.3393 0.0000 0.0000
# 5 0.0000 0.0000 0.0000 0.0000 41.6066 0.0000
# 6 0.0000 0.0000 0.0000 0.0000 0.0000 40.7052
#
#
#
# Elastic Compliance Matrix: (Units=1/GPa)
#
#
# Indices 1 2 3 4 5 6 
#
# 1 0.011657 0.001312 -0.009924 0.000000 0.000000 0.000000
# 2 0.001312 0.003399 -0.004242 0.000000 0.000000 0.000000
# 3 -0.009924 -0.004242 0.034849 0.000000 0.000000 0.000000
# 4 0.000000 0.000000 0.000000 0.007229 0.000000 0.000000
# 5 0.000000 0.000000 0.000000 0.000000 0.024035 0.000000
# 6 0.000000 0.000000 0.000000 0.000000 0.000000 0.024567
#
#
# Mechanical properties :
#
#
# Convention : Reuss Voigt Hill
#
# Bulk Modulus (GPa) = 41.32610 71.17342 56.24976
# Shear Modulus (GPa) = 35.84007 73.08571 54.46289
#
# Velocity S-wave (km/s) = 3.63492 5.19071 4.48086
# Velocity P-wave (km/s) = 5.73167 7.88436 6.89258
#
# Compressibility (1/GPa) = 0.02419778
#
# Stress axis : x y z
#
# Youngs Moduli (GPa) = 85.78420 294.19730 28.69528
#
# Poissons Ratio (x) = -0.38609 0.28476
# Poissons Ratio (y) = -0.11258 0.12173
# Poissons Ratio (z) = 0.85130 1.24808
#
# Static dielectric constant tensor:
#      x y z
#    x 2.127100 0.000000 0.000000 
#    y 0.000000 2.222210 0.000000 
#    z 0.000000 0.000000 2.064310 
# 
# From -- ./inp_files/26640.got.cif
#   From: 2010.05.17/outbox.cif.g08.bks.cpg/sg43_14_cif.got.tgz:26640.got - 2010.06.03 19:21:55.
