data_PCOD9370581
_publ_section_title
;
Structure prediction by ZEFSAII (Michael W. Deem and Ramdas Pophale) SiO2 
 PCOD9370581
Probable space group: F D D 2
;
_chemical_formula_sum "Si O2"
_cell_formula_units_Z 104
_cell_length_a 27.089633
_cell_length_b 21.856812
_cell_length_c 10.000487
_cell_angle_alpha 90.000000
_cell_angle_beta 90.000000
_cell_angle_gamma 90.000000
_cell_volume 5921.218506
_symmetry_space_group_name_H-M "F D D 2"
_symmetry_group_IT_number 43
_symmetry_cell_setting 'orthorhombic'
loop_
_space_group_symop_operation_xyz
x,y,z
-x,-y,z
1/4-x,1/4+y,1/4+z
1/4+x,1/4-y,1/4+z
x,1/2+y,1/2+z
-x,1/2-y,1/2+z
1/4-x,3/4+y,3/4+z
1/4+x,3/4-y,3/4+z
1/2+x,y,1/2+z
1/2-x,-y,1/2+z
3/4-x,1/4+y,3/4+z
3/4+x,1/4-y,3/4+z
1/2+x,1/2+y,z
1/2-x,1/2-y,z
3/4-x,3/4+y,1/4+z
3/4+x,3/4-y,1/4+z
loop_
_atom_site_type_symbol
_atom_site_label
_atom_site_fract_x
_atom_site_fract_y
_atom_site_fract_z
Si Si1 0.571810 0.195514 0.503220
Si Si2 0.733560 0.429679 0.024141
Si Si3 0.438468 0.883563 0.014646
Si Si4 0.000000 0.500000 0.082670
Si Si5 0.240836 0.428963 0.010349
Si Si6 0.335065 0.912287 0.162515
Si Si7 0.074307 0.408297 0.191683
O O1 0.535959 0.176991 0.623285
O O2 0.549595 0.164962 0.370960
O O3 0.578596 0.268466 0.472121
O O4 0.626306 0.170211 0.521254
O O5 0.692825 0.400841 0.123397
O O6 0.742624 0.502161 0.037522
O O7 0.786531 0.401764 0.069697
O O8 0.465802 0.837326 0.118514
O O9 0.384986 0.901643 0.075726
O O10 0.472328 0.944824 0.006796
O O11 0.042679 0.469390 0.170555
O O12 0.289105 0.388306 0.016914
O O13 0.334661 0.868256 0.292209
#
# Coordination Sequence:
#
# PCOD9370581 Si02
#       7
#    16  16  16   8  16  16  16
#     4  11  22  36  63  89 121 156 206 262 312 368
#     4  11  22  38  58  92 126 151 204 270 303 361
#     4  11  21  38  66  88 121 167 207 251 312 380
#     4  10  20  36  60  92 108 158 216 244 286 382
#     4  10  20  37  60  89 117 162 200 247 313 379
#     4  11  21  38  61  88 121 166 207 245 318 387
#     4  11  20  38  62  86 119 155 207 252 303 383
#
# _framework density 17.563953000000001
#
# number of rings (size 3 to 8) (size 9 to 14) (size 15 to 20)
#    0.000    1.231    7.692    0.923    0.000    1.231 
#    0.000    1.538    0.000    3.692    0.000    0.000 
#    0.000    0.000    0.000    0.000    0.000    0.000 
#
# Total GULP energy -144807.314932 kJ/mol
# GULP energy per Si atom -5569.512113 kJ/mol
# Density = 1.752398 g / cm^3
# Si number density = 17.563953 Si / 1000 Ang^3
#
#
#
# Elastic Constant Matrix: (Units=GPa)
#
#
# Indices 1 2 3 4 5 6 
#
# 1 92.6171 21.5047 10.6607 0.0000 0.0000 0.0000
# 2 21.5047 58.6896 21.1771 0.0000 0.0000 0.0000
# 3 10.6607 21.1771 40.5668 -0.0001 0.0000 0.0000
# 4 0.0000 0.0000 -0.0001 11.8533 0.0000 0.0000
# 5 0.0000 0.0000 0.0000 0.0000 31.8865 0.0000
# 6 0.0000 0.0000 0.0000 0.0000 0.0000 23.1902
#
#
#
# Elastic Compliance Matrix: (Units=1/GPa)
#
#
# Indices 1 2 3 4 5 6 
#
# 1 0.011837 -0.003961 -0.001043 0.000000 0.000000 0.000000
# 2 -0.003961 0.022319 -0.010610 0.000000 0.000000 0.000000
# 3 -0.001043 -0.010610 0.030464 0.000000 0.000000 0.000000
# 4 0.000000 0.000000 0.000000 0.084364 0.000000 0.000000
# 5 0.000000 0.000000 0.000000 0.000000 0.031361 0.000000
# 6 0.000000 0.000000 0.000000 0.000000 0.000000 0.043122
#
#
# Mechanical properties :
#
#
# Convention : Reuss Voigt Hill
#
# Bulk Modulus (GPa) = 29.94803 33.17317 31.56060
# Shear Modulus (GPa) = 18.80939 22.62139 20.71539
#
# Velocity S-wave (km/s) = 3.27602 3.59269 3.43800
# Velocity P-wave (km/s) = 5.60336 6.01148 5.81101
#
# Compressibility (1/GPa) = 0.03339118
#
# Stress axis : x y z
#
# Youngs Moduli (GPa) = 84.48183 44.80573 32.82611
#
# Poissons Ratio (x) = 0.17747 0.03424
# Poissons Ratio (y) = 0.33462 0.34829
# Poissons Ratio (z) = 0.08811 0.47539
#
# Static dielectric constant tensor:
#      x y z
#    x 1.639100 0.000000 0.000000 
#    y 0.000000 1.626550 0.000000 
#    z 0.000000 0.000000 1.592550 
# 
# From -- ./inp_files/3361.got.cif
#   From: 2010.05.17/outbox.cif.g08.bks.cpg/sg43_2_cif.got.tgz:3361.got - 2010.06.03 19:21:55.
