data_PCOD9370885
_publ_section_title
;
Structure prediction by ZEFSAII (Michael W. Deem and Ramdas Pophale) SiO2 
 PCOD9370885
Probable space group: F D D 2
;
_chemical_formula_sum "Si O2"
_cell_formula_units_Z 120
_cell_length_a 25.744912
_cell_length_b 25.684035
_cell_length_c 7.772522
_cell_angle_alpha 90.000000
_cell_angle_beta 90.000000
_cell_angle_gamma 90.000000
_cell_volume 5139.449756
_symmetry_space_group_name_H-M "F D D 2"
_symmetry_group_IT_number 43
_symmetry_cell_setting 'orthorhombic'
loop_
_space_group_symop_operation_xyz
x,y,z
-x,-y,z
1/4-x,1/4+y,1/4+z
1/4+x,1/4-y,1/4+z
x,1/2+y,1/2+z
-x,1/2-y,1/2+z
1/4-x,3/4+y,3/4+z
1/4+x,3/4-y,3/4+z
1/2+x,y,1/2+z
1/2-x,-y,1/2+z
3/4-x,1/4+y,3/4+z
3/4+x,1/4-y,3/4+z
1/2+x,1/2+y,z
1/2-x,1/2-y,z
3/4-x,3/4+y,1/4+z
3/4+x,3/4-y,1/4+z
loop_
_atom_site_type_symbol
_atom_site_label
_atom_site_fract_x
_atom_site_fract_y
_atom_site_fract_z
Si Si1 0.095851 0.192972 0.189520
Si Si2 0.463162 0.856294 0.194640
Si Si3 0.750000 0.750000 0.400541
Si Si4 0.874930 0.790164 0.801845
Si Si5 0.173252 0.165331 0.489914
Si Si6 0.121971 0.572141 0.038994
Si Si7 0.820193 0.661292 0.290374
Si Si8 0.072718 0.806723 0.653291
O O1 0.133099 0.190452 0.354135
O O2 0.065839 0.137815 0.170790
O O3 0.062680 0.246080 0.200212
O O4 0.127025 0.199395 0.005869
O O5 0.433371 0.802428 0.240027
O O6 0.428507 0.891080 0.063524
O O7 0.457087 0.889185 0.369127
O O8 0.521176 0.841083 0.149774
O O9 0.775674 0.800435 0.487310
O O10 0.795918 0.718590 0.307723
O O11 0.844388 0.832219 0.688715
O O12 0.856302 0.734872 0.727068
O O13 0.166713 0.104623 0.442274
O O14 0.148779 0.556518 0.218989
O O15 0.882001 0.670313 0.273774
#
# Coordination Sequence:
#
# PCOD9370885 Si02
#       8
#    16  16   8  16  16  16  16  16
#     4  10  22  44  69  91 131 185 216 282 337 392
#     4   9  20  40  69  99 129 179 231 270 340 407
#     4  12  26  42  58 106 140 174 230 268 340 420
#     4   9  21  45  65  96 136 170 224 277 332 400
#     4  11  24  42  64  96 135 173 223 274 330 405
#     4   9  21  41  64  96 136 172 220 286 331 399
#     4  10  23  42  63  99 139 172 225 282 335 406
#     4  10  20  41  70  99 132 174 232 281 331 413
#
# _framework density 23.348801999999999
#
# number of rings (size 3 to 8) (size 9 to 14) (size 15 to 20)
#    0.000    2.133    1.333    0.800    3.733    2.133 
#   16.800    0.667    0.000    0.000    0.000    0.000 
#    0.000    0.000    0.000    0.000    0.000    0.000 
#
# Total GULP energy -167046.389284 kJ/mol
# GULP energy per Si atom -5568.212976 kJ/mol
# Density = 2.329566 g / cm^3
# Si number density = 23.348802 Si / 1000 Ang^3
#
#
#
# Elastic Constant Matrix: (Units=GPa)
#
#
# Indices 1 2 3 4 5 6 
#
# 1 68.7360 20.6656 3.3040 -0.0032 -0.0011 -0.0013
# 2 20.6656 155.3247 -0.2733 -0.0063 0.0016 -0.0010
# 3 3.3040 -0.2733 67.3258 -0.0185 0.0118 0.0117
# 4 -0.0032 -0.0063 -0.0185 10.5915 0.0117 0.0087
# 5 -0.0011 0.0016 0.0118 0.0117 8.7951 -0.0088
# 6 -0.0013 -0.0010 0.0117 0.0087 -0.0088 18.8081
#
#
#
# Elastic Compliance Matrix: (Units=1/GPa)
#
#
# Indices 1 2 3 4 5 6 
#
# 1 0.015193 -0.002023 -0.000754 0.000002 0.000003 0.000001
# 2 -0.002023 0.006707 0.000126 0.000004 -0.000002 0.000000
# 3 -0.000754 0.000126 0.014891 0.000026 -0.000020 -0.000009
# 4 0.000002 0.000004 0.000026 0.094416 -0.000126 -0.000044
# 5 0.000003 -0.000002 -0.000020 -0.000126 0.113700 0.000053
# 6 0.000001 0.000000 -0.000009 -0.000044 0.000053 0.053169
#
#
# Mechanical properties :
#
#
# Convention : Reuss Voigt Hill
#
# Bulk Modulus (GPa) = 31.75519 37.64212 34.69866
# Shear Modulus (GPa) = 15.93004 25.48494 20.70749
#
# Velocity S-wave (km/s) = 2.61485 3.30735 2.98128
# Velocity P-wave (km/s) = 4.76933 5.54449 5.17145
#
# Compressibility (1/GPa) = 0.03149091
#
# Stress axis : x y z
#
# Youngs Moduli (GPa) = 65.82071 149.08761 67.15618
#
# Poissons Ratio (x) = 0.30156 0.05062
# Poissons Ratio (y) = 0.13314 -0.00850
# Poissons Ratio (z) = 0.04962 -0.01886
#
# Static dielectric constant tensor:
#      x y z
#    x 1.944500 0.000000 0.000000 
#    y 0.000000 2.036060 0.000020 
#    z 0.000000 0.000020 1.930220 
# 
# From -- ./inp_files/3879.got.cif
#   From: 2010.05.17/outbox.cif.g08.bks.cpg/sg43_2_cif.got.tgz:3879.got - 2010.06.03 19:21:55.
