data_PCOD9370561
_publ_section_title
;
Structure prediction by ZEFSAII (Michael W. Deem and Ramdas Pophale) SiO2 
 PCOD9370561
Probable space group: F D D 2
;
_chemical_formula_sum "Si O2"
_cell_formula_units_Z 104
_cell_length_a 7.620566
_cell_length_b 27.034780
_cell_length_c 24.024951
_cell_angle_alpha 90.000000
_cell_angle_beta 90.000000
_cell_angle_gamma 90.000000
_cell_volume 4949.628220
_symmetry_space_group_name_H-M "F D D 2"
_symmetry_group_IT_number 43
_symmetry_cell_setting 'orthorhombic'
loop_
_space_group_symop_operation_xyz
x,y,z
-x,-y,z
1/4-x,1/4+y,1/4+z
1/4+x,1/4-y,1/4+z
x,1/2+y,1/2+z
-x,1/2-y,1/2+z
1/4-x,3/4+y,3/4+z
1/4+x,3/4-y,3/4+z
1/2+x,y,1/2+z
1/2-x,-y,1/2+z
3/4-x,1/4+y,3/4+z
3/4+x,1/4-y,3/4+z
1/2+x,1/2+y,z
1/2-x,1/2-y,z
3/4-x,3/4+y,1/4+z
3/4+x,3/4-y,1/4+z
loop_
_atom_site_type_symbol
_atom_site_label
_atom_site_fract_x
_atom_site_fract_y
_atom_site_fract_z
Si Si1 0.000000 0.000000 0.232600
Si Si2 0.519862 0.087718 0.393463
Si Si3 0.250000 0.750000 0.732014
Si Si4 0.074280 0.310163 0.765382
Si Si5 0.721362 0.146228 0.935305
Si Si6 0.888538 0.388871 0.124909
Si Si7 0.000000 0.000000 0.426091
Si Si8 0.221865 0.964076 0.331517
O O1 0.839385 0.012738 0.274481
O O2 0.035559 0.048662 0.196961
O O3 0.530874 0.047661 0.442751
O O4 0.337881 0.116124 0.390860
O O5 0.673435 0.128222 0.402431
O O6 0.582308 0.056727 0.339261
O O7 0.077550 0.731770 0.765210
O O8 0.007037 0.362113 0.740037
O O9 0.146260 0.320677 0.826317
O O10 0.217618 0.294233 0.719162
O O11 0.520851 0.149355 0.915731
O O12 0.857867 0.335380 0.095020
O O13 0.165357 0.997564 0.384395
#
# Coordination Sequence:
#
# PCOD9370561 Si02
#       8
#     8  16   8  16  16  16   8  16
#     4  11  22  39  68  94 126 176 211 259 328 388
#     4   9  20  40  64  90 120 162 209 262 307 375
#     4  10  20  35  64  95 119 150 221 264 310 362
#     4  11  20  38  62  93 115 164 203 262 314 375
#     4  11  22  40  65  86 133 165 201 268 327 361
#     4  10  21  41  60  87 128 165 207 254 319 378
#     4  11  18  36  68  83 119 156 208 265 306 356
#     4   9  19  39  66  89 115 165 217 258 304 378
#
# _framework density 21.011679999999998
#
# number of rings (size 3 to 8) (size 9 to 14) (size 15 to 20)
#    0.923    0.923    4.615    0.000    0.000    0.615 
#    5.538    3.077    3.385    0.000    0.000    0.000 
#    0.000    0.000    0.000    0.000    0.000    0.000 
#
# Total GULP energy -144760.286702 kJ/mol
# GULP energy per Si atom -5567.703335 kJ/mol
# Density = 2.096386 g / cm^3
# Si number density = 21.011680 Si / 1000 Ang^3
#
#
#
# Elastic Constant Matrix: (Units=GPa)
#
#
# Indices 1 2 3 4 5 6 
#
# 1 46.1728 -3.9274 4.2479 0.0000 0.0000 0.0000
# 2 -3.9274 86.4520 18.5625 0.0000 0.0000 0.0000
# 3 4.2479 18.5625 39.0174 0.0000 0.0000 0.0000
# 4 0.0000 0.0000 0.0000 11.7716 0.0000 0.0000
# 5 0.0000 0.0000 0.0000 0.0000 14.9547 0.0000
# 6 0.0000 0.0000 0.0000 0.0000 0.0000 19.6076
#
#
#
# Elastic Compliance Matrix: (Units=1/GPa)
#
#
# Indices 1 2 3 4 5 6 
#
# 1 0.022097 0.001693 -0.003211 0.000000 0.000000 0.000000
# 2 0.001693 0.013013 -0.006375 0.000000 0.000000 0.000000
# 3 -0.003211 -0.006375 0.029012 0.000000 0.000000 0.000000
# 4 0.000000 0.000000 0.000000 0.084950 0.000000 0.000000
# 5 0.000000 0.000000 0.000000 0.000000 0.066868 0.000000
# 6 0.000000 0.000000 0.000000 0.000000 0.000000 0.051001
#
#
# Mechanical properties :
#
#
# Convention : Reuss Voigt Hill
#
# Bulk Modulus (GPa) = 20.68856 23.26758 21.97807
# Shear Modulus (GPa) = 16.73136 19.45074 18.09105
#
# Velocity S-wave (km/s) = 2.82492 3.04585 2.93746
# Velocity P-wave (km/s) = 4.52856 4.84430 4.68909
#
# Compressibility (1/GPa) = 0.04833589
#
# Stress axis : x y z
#
# Youngs Moduli (GPa) = 45.25453 76.84682 34.46817
#
# Poissons Ratio (x) = -0.13013 0.11069
# Poissons Ratio (y) = -0.07663 0.21974
# Poissons Ratio (z) = 0.14533 0.48992
#
# Static dielectric constant tensor:
#      x y z
#    x 1.820030 0.000000 0.000000 
#    y 0.000000 1.809170 0.000000 
#    z 0.000000 0.000000 1.762180 
# 
# From -- ./inp_files/20415.got.cif
#   From: 2010.05.17/outbox.cif.g08.bks.cpg/sg43_11_cif.got.tgz:20415.got - 2010.06.03 19:21:55.
