data_PCOD9370683
_publ_section_title
;
Structure prediction by ZEFSAII (Michael W. Deem and Ramdas Pophale) SiO2 
 PCOD9370683
Probable space group: F D D 2
;
_chemical_formula_sum "Si O2"
_cell_formula_units_Z 120
_cell_length_a 17.052343
_cell_length_b 12.567681
_cell_length_c 26.022211
_cell_angle_alpha 90.000000
_cell_angle_beta 90.000000
_cell_angle_gamma 90.000000
_cell_volume 5576.778589
_symmetry_space_group_name_H-M "F D D 2"
_symmetry_group_IT_number 43
_symmetry_cell_setting 'orthorhombic'
loop_
_space_group_symop_operation_xyz
x,y,z
-x,-y,z
1/4-x,1/4+y,1/4+z
1/4+x,1/4-y,1/4+z
x,1/2+y,1/2+z
-x,1/2-y,1/2+z
1/4-x,3/4+y,3/4+z
1/4+x,3/4-y,3/4+z
1/2+x,y,1/2+z
1/2-x,-y,1/2+z
3/4-x,1/4+y,3/4+z
3/4+x,1/4-y,3/4+z
1/2+x,1/2+y,z
1/2-x,1/2-y,z
3/4-x,3/4+y,1/4+z
3/4+x,3/4-y,1/4+z
loop_
_atom_site_type_symbol
_atom_site_label
_atom_site_fract_x
_atom_site_fract_y
_atom_site_fract_z
Si Si1 0.441303 0.599700 0.031730
Si Si2 0.673228 0.181215 0.505816
Si Si3 0.803123 0.551560 0.463371
Si Si4 0.973502 0.192619 0.488217
Si Si5 0.090922 0.982550 0.869877
Si Si6 0.750000 0.250000 0.162891
Si Si7 0.783682 0.361112 0.350603
Si Si8 0.575017 0.302775 0.138343
O O1 0.500000 0.500000 0.018086
O O2 0.473606 0.706672 0.004478
O O3 0.439882 0.612771 0.093189
O O4 0.351284 0.593926 0.012226
O O5 0.750000 0.250000 0.511182
O O6 0.608953 0.250806 0.476879
O O7 0.644942 0.171424 0.565625
O O8 0.694339 0.073744 0.477096
O O9 0.862469 0.572742 0.415832
O O10 0.716452 0.583930 0.443072
O O11 0.996443 0.110415 0.444726
O O12 0.967036 0.120562 0.539188
O O13 0.129654 0.099648 0.864948
O O14 0.000000 0.000000 0.880523
O O15 0.664914 0.265067 0.137073
O O16 0.750000 0.250000 0.368476
O O17 0.727123 0.451892 0.372042
#
# Coordination Sequence:
#
# PCOD9370683 Si02
#       8
#    16  16  16  16  16   8  16  16
#     4  11  23  46  73 102 145 189 239 303 371 437
#     4  10  20  38  63  99 137 170 224 303 359 423
#     4  11  22  41  70  99 137 187 239 294 378 424
#     4  10  21  39  67  94 130 178 228 285 351 429
#     4   9  20  35  58 101 135 162 235 290 355 435
#     4  12  24  46  62  98 142 184 240 284 358 438
#     4   9  18  40  66  92 132 181 219 292 362 425
#     4  10  26  44  65 104 141 187 241 295 364 450
#
# _framework density 21.517799
#
# number of rings (size 3 to 8) (size 9 to 14) (size 15 to 20)
#    0.000    1.867    2.000    2.000    0.000    5.333 
#    4.800    0.000    0.000    0.000    0.000    0.000 
#    0.000    0.000    0.000    0.000    0.000    0.000 
#
# Total GULP energy -167256.102631 kJ/mol
# GULP energy per Si atom -5575.203421 kJ/mol
# Density = 2.146882 g / cm^3
# Si number density = 21.517799 Si / 1000 Ang^3
#
#
#
# Elastic Constant Matrix: (Units=GPa)
#
#
# Indices 1 2 3 4 5 6 
#
# 1 130.3211 24.4574 17.6517 0.0000 0.0000 0.0000
# 2 24.4574 63.5412 23.0480 0.0000 0.0000 0.0000
# 3 17.6517 23.0480 73.6892 0.0000 0.0000 0.0000
# 4 0.0000 0.0000 0.0000 -194.8529 0.0000 0.0000
# 5 0.0000 0.0000 0.0000 0.0000 33.4377 0.0000
# 6 0.0000 0.0000 0.0000 0.0000 0.0000 20.0970
#
#
#
# Elastic Compliance Matrix: (Units=1/GPa)
#
#
# Indices 1 2 3 4 5 6 
#
# 1 0.008352 -0.002808 -0.001123 0.000000 0.000000 0.000000
# 2 -0.002808 0.018696 -0.005175 0.000000 0.000000 0.000000
# 3 -0.001123 -0.005175 0.015458 0.000000 0.000000 0.000000
# 4 0.000000 0.000000 0.000000 -0.005132 0.000000 0.000000
# 5 0.000000 0.000000 0.000000 0.000000 0.029906 0.000000
# 6 0.000000 0.000000 0.000000 0.000000 0.000000 0.049759
#
#
# Mechanical properties :
#
#
# Convention : Reuss Voigt Hill
#
# Bulk Modulus (GPa) = 41.15975 44.20727 42.68351
# Shear Modulus (GPa) = 34.88021 -14.77068 10.05477
#
# Velocity S-wave (km/s) = 4.03052 -2.62284 2.16400
# Velocity P-wave (km/s) = 6.38983 3.37886 5.11110
#
# Compressibility (1/GPa) = 0.02429558
#
# Stress axis : x y z
#
# Youngs Moduli (GPa) = 119.72720 53.48861 64.69149
#
# Poissons Ratio (x) = 0.15018 0.07262
# Poissons Ratio (y) = 0.33615 0.33477
# Poissons Ratio (z) = 0.13440 0.27680
#
# Static dielectric constant tensor:
#      x y z
#    x 1.802450 0.000000 0.000000 
#    y 0.000000 1.804620 0.000000 
#    z 0.000000 0.000000 1.879710 
# 
# From -- ./inp_files/29525.got.cif
#   From: 2010.05.17/outbox.cif.g08.bks.cpg/sg43_15_cif.got.tgz:29525.got - 2010.06.03 19:21:55.
