data_PCOD9370007
_publ_section_title
;
Structure prediction by ZEFSAII (Michael W. Deem and Ramdas Pophale) SiO2 
 PCOD9370007
Probable space group: F M M 2
;
_chemical_formula_sum "Si O2"
_cell_formula_units_Z 24
_cell_length_a 27.000000
_cell_length_b 9.000000
_cell_length_c 21.000000
_cell_angle_alpha 90.000000
_cell_angle_beta 90.000000
_cell_angle_gamma 90.000000
_cell_volume 5103.000000
_symmetry_space_group_name_H-M "F M M 2"
_symmetry_group_IT_number 42
_symmetry_cell_setting 'orthorhombic'
loop_
_space_group_symop_operation_xyz
x,y,z
-x,-y,z
-x,y,z
x,-y,z
x,1/2+y,1/2+z
-x,1/2-y,1/2+z
-x,1/2+y,1/2+z
x,1/2-y,1/2+z
1/2+x,y,1/2+z
1/2-x,-y,1/2+z
1/2-x,y,1/2+z
1/2+x,-y,1/2+z
1/2+x,1/2+y,z
1/2-x,1/2-y,z
1/2-x,1/2+y,z
1/2+x,1/2-y,z
loop_
_atom_site_type_symbol
_atom_site_label
_atom_site_fract_x
_atom_site_fract_y
_atom_site_fract_z
Si Si1 0.557217 0.823419 0.723630
Si Si2 0.103474 0.176075 0.088519
Si Si3 0.900868 0.828495 0.843775
Si Si4 0.700773 0.327134 0.913114
Si Si5 0.801754 0.323412 0.049280
Si Si6 0.058713 0.332422 0.966518
O O1 0.500000 0.787036 0.735324
O O2 0.570761 0.792618 0.650526
O O3 0.589288 0.735016 0.774360
O O4 0.563972 0.000000 0.733677
O O5 0.154574 0.264513 0.093303
O O6 0.112538 0.000000 0.084599
O O7 0.078442 0.230812 0.023489
O O8 0.843689 0.819937 0.863946
O O9 0.928448 0.733599 0.897795
O O10 0.916749 0.000000 0.847964
O O11 0.709792 0.500000 0.929487
O O12 0.750000 0.250000 0.887800
O O13 0.687747 0.240272 0.978142
O O14 0.798753 0.500000 0.048114
O O15 0.750000 0.250000 0.068254
O O16 0.079331 0.500000 0.972933
O O17 0.000000 0.339434 0.972334
#
# Coordination Sequence:
#
# PCOD9370007 Si02
#       6
#    16  16  16  16  16  16
#     4  10  23  42  62  84 116 159 201 244 298 357
#     4  11  22  39  61  87 118 155 199 246 300 356
#     4  11  23  38  59  87 119 155 197 244 296 355
#     4  10  20  35  57  87 119 153 193 240 294 353
#     4  11  21  35  59  89 121 156 194 242 297 352
#     4  11  23  37  57  86 117 151 196 248 298 353
#
# _framework density 4.7031159999999996
#
# number of rings (size 3 to 8) (size 9 to 14) (size 15 to 20)
#    0.000    1.333    1.667    5.500    0.000    7.667 
#    0.000    0.833    0.000    2.000    0.000    0.000 
#    0.000    0.000    0.000    0.000    0.000    0.000 
#
# Total GULP energy -134065.140406 kJ/mol
# GULP energy per Si atom -5586.047517 kJ/mol
# Density = 0.469241 g / cm^3
# Si number density = 4.703116 Si / 1000 Ang^3
#
#
#
# Elastic Constant Matrix: (Units=GPa)
#
#
# Indices 1 2 3 4 5 6 
#
# 1 61.2455 38.1395 0.2917 0.0000 0.0000 0.0000
# 2 38.1395 108.6679 24.3467 0.0000 0.0000 0.0000
# 3 0.2917 24.3467 26.2902 0.0000 0.0000 0.0000
# 4 0.0000 0.0000 0.0000 17.9371 0.0000 0.0000
# 5 0.0000 0.0000 0.0000 0.0000 17.9778 0.0000
# 6 0.0000 0.0000 0.0000 0.0000 0.0000 21.4917
#
#
#
# Elastic Compliance Matrix: (Units=1/GPa)
#
#
# Indices 1 2 3 4 5 6 
#
# 1 0.022426 -0.009861 0.008884 0.000000 0.000000 0.000000
# 2 -0.009861 0.015948 -0.014660 0.000000 0.000000 0.000000
# 3 0.008884 -0.014660 0.051514 0.000000 0.000000 0.000000
# 4 0.000000 0.000000 0.000000 0.055750 0.000000 0.000000
# 5 0.000000 0.000000 0.000000 0.000000 0.055624 0.000000
# 6 0.000000 0.000000 0.000000 0.000000 0.000000 0.046530
#
#
# Mechanical properties :
#
#
# Convention : Reuss Voigt Hill
#
# Bulk Modulus (GPa) = 17.06081 35.75103 26.40592
# Shear Modulus (GPa) = 16.74451 20.37636 18.56043
#
# Velocity S-wave (km/s) = 2.98665 3.29467 3.14443
# Velocity P-wave (km/s) = 4.58061 5.78950 5.22017
#
# Compressibility (1/GPa) = 0.05861386
#
# Stress axis : x y z
#
# Youngs Moduli (GPa) = 44.59026 62.70432 19.41211
#
# Poissons Ratio (x) = 0.61835 -0.17245
# Poissons Ratio (y) = 0.43972 0.28457
# Poissons Ratio (z) = -0.39612 0.91922
#
# Static dielectric constant tensor:
#      x y z
#    x 1.692680 0.000000 0.000000 
#    y 0.000000 1.648820 0.000000 
#    z 0.000000 0.000000 1.600510 
# 
# From -- ./inp_files/23724.got.cif
#   From: 2010.05.17/outbox.ucp.g08.bks.cvg/sg42_12_cif.got.tgz:23724.got - 2010.06.11 16:29:10.
