data_PCOD9370368
_publ_section_title
;
Structure prediction by ZEFSAII (Michael W. Deem and Ramdas Pophale) SiO2 
 PCOD9370368
Probable space group: F D D 2
;
_chemical_formula_sum "Si O2"
_cell_formula_units_Z 112
_cell_length_a 22.586697
_cell_length_b 12.447520
_cell_length_c 22.730659
_cell_angle_alpha 90.000000
_cell_angle_beta 90.000000
_cell_angle_gamma 90.000000
_cell_volume 6390.687560
_symmetry_space_group_name_H-M "F D D 2"
_symmetry_group_IT_number 43
_symmetry_cell_setting 'orthorhombic'
loop_
_space_group_symop_operation_xyz
x,y,z
-x,-y,z
1/4-x,1/4+y,1/4+z
1/4+x,1/4-y,1/4+z
x,1/2+y,1/2+z
-x,1/2-y,1/2+z
1/4-x,3/4+y,3/4+z
1/4+x,3/4-y,3/4+z
1/2+x,y,1/2+z
1/2-x,-y,1/2+z
3/4-x,1/4+y,3/4+z
3/4+x,1/4-y,3/4+z
1/2+x,1/2+y,z
1/2-x,1/2-y,z
3/4-x,3/4+y,1/4+z
3/4+x,3/4-y,1/4+z
loop_
_atom_site_type_symbol
_atom_site_label
_atom_site_fract_x
_atom_site_fract_y
_atom_site_fract_z
Si Si1 0.305935 0.670114 0.799860
Si Si2 0.315391 0.771396 0.117415
Si Si3 0.922793 0.810132 0.292773
Si Si4 0.865536 0.074172 0.685987
Si Si5 0.170547 0.407021 0.949058
Si Si6 0.955959 0.766265 0.163716
Si Si7 0.547061 0.245738 0.323000
O O1 0.250000 0.750000 0.790865
O O2 0.362575 0.747802 0.804489
O O3 0.325899 0.598721 0.743540
O O4 0.296493 0.593672 0.856937
O O5 0.250000 0.750000 0.143501
O O6 0.329785 0.670817 0.077094
O O7 0.364852 0.790290 0.166102
O O8 0.311151 0.877453 0.077062
O O9 0.941050 0.828906 0.224632
O O10 0.976622 0.737608 0.316995
O O11 0.905822 0.174266 0.666321
O O12 0.908426 0.970785 0.694765
O O13 0.821237 0.050792 0.633054
O O14 0.230839 0.454999 0.920511
O O15 0.173535 0.441149 0.016900
#
# Coordination Sequence:
#
# PCOD9370368 Si02
#       7
#    16  16  16  16  16  16  16
#     4  11  23  37  56  85 115 144 188 244 291 337
#     4   9  18  34  53  79 109 139 184 231 277 339
#     4   9  20  36  54  79 111 149 185 222 284 350
#     4  10  21  38  56  81 113 145 188 235 285 346
#     4  10  19  36  58  80 109 146 187 233 283 342
#     4  10  21  36  57  82 110 147 187 231 285 346
#     4   9  19  35  57  78 105 148 185 224 277 342
#
# _framework density 17.525500999999998
#
# number of rings (size 3 to 8) (size 9 to 14) (size 15 to 20)
#    0.000    2.286    0.000    2.143    0.000    6.286 
#    0.000   17.143    0.000    0.000    0.000    0.000 
#    0.000    0.000    0.000    0.000    0.000    0.000 
#
# Total GULP energy -156035.370231 kJ/mol
# GULP energy per Si atom -5572.691794 kJ/mol
# Density = 1.748561 g / cm^3
# Si number density = 17.525501 Si / 1000 Ang^3
#
#
#
# Elastic Constant Matrix: (Units=GPa)
#
#
# Indices 1 2 3 4 5 6 
#
# 1 115.5332 57.4536 67.6574 0.0000 0.0000 0.0000
# 2 57.4536 71.3112 57.3130 0.0000 0.0000 0.0000
# 3 67.6574 57.3130 102.7121 0.0000 0.0000 0.0000
# 4 0.0000 0.0000 0.0000 21.6733 0.0000 0.0000
# 5 0.0000 0.0000 0.0000 0.0000 25.5224 0.0000
# 6 0.0000 0.0000 0.0000 0.0000 0.0000 14.0899
#
#
#
# Elastic Compliance Matrix: (Units=1/GPa)
#
#
# Indices 1 2 3 4 5 6 
#
# 1 0.016367 -0.008198 -0.006206 0.000000 0.000000 0.000000
# 2 -0.008198 0.029532 -0.011078 0.000000 0.000000 0.000000
# 3 -0.006206 -0.011078 0.020006 0.000000 0.000000 0.000000
# 4 0.000000 0.000000 0.000000 0.046140 0.000000 0.000000
# 5 0.000000 0.000000 0.000000 0.000000 0.039181 0.000000
# 6 0.000000 0.000000 0.000000 0.000000 0.000000 0.070973
#
#
# Mechanical properties :
#
#
# Convention : Reuss Voigt Hill
#
# Bulk Modulus (GPa) = 66.94121 72.71163 69.82642
# Shear Modulus (GPa) = 17.97624 19.39927 18.68776
#
# Velocity S-wave (km/s) = 3.20616 3.33065 3.26900
# Velocity P-wave (km/s) = 7.21008 7.50800 7.36055
#
# Compressibility (1/GPa) = 0.01493848
#
# Stress axis : x y z
#
# Youngs Moduli (GPa) = 61.09822 33.86151 49.98510
#
# Poissons Ratio (x) = 0.27761 0.31023
# Poissons Ratio (y) = 0.50091 0.55376
# Poissons Ratio (z) = 0.37921 0.37513
#
# Static dielectric constant tensor:
#      x y z
#    x 1.596590 0.000000 0.000000 
#    y 0.000000 1.597540 0.000000 
#    z 0.000000 0.000000 1.585370 
# 
# From -- ./inp_files/17208.got.cif
#   From: 2010.05.17/outbox.cif.g08.bks.cpg/sg43_9_cif.got.tgz:17208.got - 2010.06.03 19:21:55.
