data_PCOD9370765
_publ_section_title
;
Structure prediction by ZEFSAII (Michael W. Deem and Ramdas Pophale) SiO2 
 PCOD9370765
Probable space group: F D D 2
;
_chemical_formula_sum "Si O2"
_cell_formula_units_Z 48
_cell_length_a 13.986237
_cell_length_b 7.459418
_cell_length_c 16.711280
_cell_angle_alpha 90.000000
_cell_angle_beta 90.000000
_cell_angle_gamma 90.000000
_cell_volume 1743.474273
_symmetry_space_group_name_H-M "F D D 2"
_symmetry_group_IT_number 43
_symmetry_cell_setting 'orthorhombic'
loop_
_space_group_symop_operation_xyz
x,y,z
-x,-y,z
1/4-x,1/4+y,1/4+z
1/4+x,1/4-y,1/4+z
x,1/2+y,1/2+z
-x,1/2-y,1/2+z
1/4-x,3/4+y,3/4+z
1/4+x,3/4-y,3/4+z
1/2+x,y,1/2+z
1/2-x,-y,1/2+z
3/4-x,1/4+y,3/4+z
3/4+x,1/4-y,3/4+z
1/2+x,1/2+y,z
1/2-x,1/2-y,z
3/4-x,3/4+y,1/4+z
3/4+x,3/4-y,1/4+z
loop_
_atom_site_type_symbol
_atom_site_label
_atom_site_fract_x
_atom_site_fract_y
_atom_site_fract_z
Si Si1 0.348029 0.044608 0.674140
Si Si2 0.452248 0.275634 0.060747
Si Si3 0.135354 0.045129 0.650287
O O1 0.247168 0.048216 0.626479
O O2 0.388986 0.247607 0.670651
O O3 0.418131 0.909572 0.629852
O O4 0.305212 0.985555 0.762152
O O5 0.420837 0.081760 0.091522
O O6 0.384144 0.309741 0.984532
#
# Coordination Sequence:
#
# PCOD9370765 Si02
#       3
#    16  16  16
#     4   9  21  39  67 104 149 203 252 318 395 474
#     4  10  20  39  69 103 153 197 258 318 399 467
#     4   9  21  39  63 103 149 195 250 315 390 475
#
# _framework density 27.531234999999999
#
# number of rings (size 3 to 8) (size 9 to 14) (size 15 to 20)
#    2.000    0.667    0.000    1.000    0.000    5.333 
#    0.000    6.667    0.000    8.000    0.000    0.000 
#    0.000    0.000    0.000    0.000    0.000    0.000 
#
# Total GULP energy -66878.227406 kJ/mol
# GULP energy per Si atom -5573.185617 kJ/mol
# Density = 2.746857 g / cm^3
# Si number density = 27.531235 Si / 1000 Ang^3
#
#
#
# Elastic Constant Matrix: (Units=GPa)
#
#
# Indices 1 2 3 4 5 6 
#
# 1 137.0323 104.5213 61.2901 0.0000 0.0000 0.0000
# 2 104.5213 217.1167 86.3080 0.0000 0.0000 0.0000
# 3 61.2901 86.3080 186.9542 0.0000 0.0000 0.0000
# 4 0.0000 0.0000 0.0000 55.6210 0.0000 0.0000
# 5 0.0000 0.0000 0.0000 0.0000 46.6481 0.0000
# 6 0.0000 0.0000 0.0000 0.0000 0.0000 51.7938
#
#
#
# Elastic Compliance Matrix: (Units=1/GPa)
#
#
# Indices 1 2 3 4 5 6 
#
# 1 0.011882 -0.005109 -0.001537 0.000000 0.000000 0.000000
# 2 -0.005109 0.007838 -0.001943 0.000000 0.000000 0.000000
# 3 -0.001537 -0.001943 0.006750 0.000000 0.000000 0.000000
# 4 0.000000 0.000000 0.000000 0.017979 0.000000 0.000000
# 5 0.000000 0.000000 0.000000 0.000000 0.021437 0.000000
# 6 0.000000 0.000000 0.000000 0.000000 0.000000 0.019307
#
#
# Mechanical properties :
#
#
# Convention : Reuss Voigt Hill
#
# Bulk Modulus (GPa) = 107.62888 116.14914 111.88901
# Shear Modulus (GPa) = 47.40756 50.07818 48.74287
#
# Velocity S-wave (km/s) = 4.15415 4.26955 4.21224
# Velocity P-wave (km/s) = 7.88590 8.15997 8.02411
#
# Compressibility (1/GPa) = 0.00929119
#
# Stress axis : x y z
#
# Youngs Moduli (GPa) = 84.16211 127.58430 148.15107
#
# Poissons Ratio (x) = 0.65185 0.22765
# Poissons Ratio (y) = 0.43000 0.28793
# Poissons Ratio (z) = 0.12933 0.24796
#
# Static dielectric constant tensor:
#      x y z
#    x 2.178990 0.000000 0.000000 
#    y 0.000000 2.128730 0.000000 
#    z 0.000000 0.000000 2.186930 
# 
# From -- ./inp_files/14055.got.cif
#   From: 2010.05.17/outbox.cif.g08.bks.cpg/sg43_8_cif.got.tgz:14055.got - 2010.06.03 19:21:55.
