data_PCOD9370504
_publ_section_title
;
Structure prediction by ZEFSAII (Michael W. Deem and Ramdas Pophale) SiO2 
 PCOD9370504
Probable space group: F D D 2
;
_chemical_formula_sum "Si O2"
_cell_formula_units_Z 112
_cell_length_a 11.109345
_cell_length_b 16.766387
_cell_length_c 26.711864
_cell_angle_alpha 90.000000
_cell_angle_beta 90.000000
_cell_angle_gamma 90.000000
_cell_volume 4975.447353
_symmetry_space_group_name_H-M "F D D 2"
_symmetry_group_IT_number 43
_symmetry_cell_setting 'orthorhombic'
loop_
_space_group_symop_operation_xyz
x,y,z
-x,-y,z
1/4-x,1/4+y,1/4+z
1/4+x,1/4-y,1/4+z
x,1/2+y,1/2+z
-x,1/2-y,1/2+z
1/4-x,3/4+y,3/4+z
1/4+x,3/4-y,3/4+z
1/2+x,y,1/2+z
1/2-x,-y,1/2+z
3/4-x,1/4+y,3/4+z
3/4+x,1/4-y,3/4+z
1/2+x,1/2+y,z
1/2-x,1/2-y,z
3/4-x,3/4+y,1/4+z
3/4+x,3/4-y,1/4+z
loop_
_atom_site_type_symbol
_atom_site_label
_atom_site_fract_x
_atom_site_fract_y
_atom_site_fract_z
Si Si1 0.081000 0.699952 0.343960
Si Si2 0.893931 0.363246 0.235249
Si Si3 0.141314 0.494698 0.466655
Si Si4 0.211239 0.613533 0.039447
Si Si5 0.000000 0.000000 0.417474
Si Si6 0.000000 0.000000 0.678552
Si Si7 0.089744 0.762084 0.072122
Si Si8 0.345334 0.313181 0.104230
O O1 0.126227 0.657725 0.293227
O O2 0.061434 0.792512 0.329216
O O3 0.172678 0.695933 0.389890
O O4 0.960468 0.650983 0.356527
O O5 0.786590 0.321473 0.204166
O O6 0.910114 0.450957 0.213629
O O7 0.027543 0.323838 0.224215
O O8 0.234609 0.431492 0.491595
O O9 0.125366 0.468504 0.409546
O O10 0.000000 0.500000 0.486020
O O11 0.104429 0.678857 0.042372
O O12 0.319221 0.671855 0.053181
O O13 0.113264 0.001150 0.379424
O O14 0.961329 0.801895 0.071035
O O15 0.250000 0.250000 0.083612
#
# Coordination Sequence:
#
# PCOD9370504 Si02
#       8
#    16  16  16  16   8   8  16  16
#     4  11  26  41  70 106 142 184 240 299 373 435
#     4  11  24  43  69 105 135 192 239 293 370 437
#     4  10  21  41  68  92 138 181 233 287 365 432
#     4   9  22  41  66  98 126 186 229 290 350 431
#     4  10  19  42  66  92 126 180 228 283 340 426
#     4  12  23  46  72 104 156 182 244 311 356 446
#     4  10  21  42  71  92 136 181 232 290 362 424
#     4  11  24  42  65  99 136 184 227 293 362 432
#
# _framework density 22.510538
#
# number of rings (size 3 to 8) (size 9 to 14) (size 15 to 20)
#    0.000    1.714    1.429    3.857    7.000    0.000 
#    0.000    2.857    3.143    0.000    0.000    0.000 
#    0.000    0.000    0.000    0.000    0.000    0.000 
#
# Total GULP energy -156211.344324 kJ/mol
# GULP energy per Si atom -5578.976583 kJ/mol
# Density = 2.245930 g / cm^3
# Si number density = 22.510538 Si / 1000 Ang^3
#
#
#
# Elastic Constant Matrix: (Units=GPa)
#
#
# Indices 1 2 3 4 5 6 
#
# 1 101.8760 32.4540 4.9586 0.0000 0.0000 0.0000
# 2 32.4540 89.4756 24.4116 0.0000 0.0000 0.0000
# 3 4.9586 24.4116 66.5923 0.0000 0.0000 0.0000
# 4 0.0000 0.0000 0.0000 -0.4616 0.0000 0.0000
# 5 0.0000 0.0000 0.0000 0.0000 18.4845 0.0000
# 6 0.0000 0.0000 0.0000 0.0000 0.0000 49.5635
#
#
#
# Elastic Compliance Matrix: (Units=1/GPa)
#
#
# Indices 1 2 3 4 5 6 
#
# 1 0.011130 -0.004234 0.000723 0.000000 0.000000 0.000000
# 2 -0.004234 0.014029 -0.004828 0.000000 0.000000 0.000000
# 3 0.000723 -0.004828 0.016733 0.000000 0.000000 0.000000
# 4 0.000000 0.000000 0.000000 -2.166273 0.000000 0.000000
# 5 0.000000 0.000000 0.000000 0.000000 0.054099 0.000000
# 6 0.000000 0.000000 0.000000 0.000000 0.000000 0.020176
#
#
# Mechanical properties :
#
#
# Convention : Reuss Voigt Hill
#
# Bulk Modulus (GPa) = 39.65953 42.39916 41.02934
# Shear Modulus (GPa) = -2.46911 26.59192 12.06141
#
# Velocity S-wave (km/s) = -1.04845 3.44075 2.31727
# Velocity P-wave (km/s) = 4.02378 5.88737 5.04242
#
# Compressibility (1/GPa) = 0.02521462
#
# Stress axis : x y z
#
# Youngs Moduli (GPa) = 89.85128 71.28020 59.76366
#
# Poissons Ratio (x) = 0.30181 -0.04324
# Poissons Ratio (y) = 0.38045 0.28851
# Poissons Ratio (z) = -0.06500 0.34411
#
# Static dielectric constant tensor:
#      x y z
#    x 1.942710 0.000000 0.000000 
#    y 0.000000 2.043820 0.000000 
#    z 0.000000 0.000000 1.930640 
# 
# From -- ./inp_files/28668.got.cif
#   From: 2010.05.17/outbox.cif.g08.bks.cpg/sg43_15_cif.got.tgz:28668.got - 2010.06.03 19:21:55.
