data_PCOD9370109
_publ_section_title
;
Structure prediction by ZEFSAII (Michael W. Deem and Ramdas Pophale) SiO2 
 PCOD9370109
Probable space group: F D D 2
;
_chemical_formula_sum "Si O2"
_cell_formula_units_Z 64
_cell_length_a 27.852871
_cell_length_b 14.470603
_cell_length_c 6.902651
_cell_angle_alpha 90.000000
_cell_angle_beta 90.000000
_cell_angle_gamma 90.000000
_cell_volume 2782.098567
_symmetry_space_group_name_H-M "F D D 2"
_symmetry_group_IT_number 43
_symmetry_cell_setting 'orthorhombic'
loop_
_space_group_symop_operation_xyz
x,y,z
-x,-y,z
1/4-x,1/4+y,1/4+z
1/4+x,1/4-y,1/4+z
x,1/2+y,1/2+z
-x,1/2-y,1/2+z
1/4-x,3/4+y,3/4+z
1/4+x,3/4-y,3/4+z
1/2+x,y,1/2+z
1/2-x,-y,1/2+z
3/4-x,1/4+y,3/4+z
3/4+x,1/4-y,3/4+z
1/2+x,1/2+y,z
1/2-x,1/2-y,z
3/4-x,3/4+y,1/4+z
3/4+x,3/4-y,1/4+z
loop_
_atom_site_type_symbol
_atom_site_label
_atom_site_fract_x
_atom_site_fract_y
_atom_site_fract_z
Si Si1 0.782618 0.834304 0.965700
Si Si2 0.601964 0.476996 0.383499
Si Si3 0.444591 0.678496 0.108209
Si Si4 0.022864 0.602839 0.837623
O O1 0.750000 0.750000 0.048323
O O2 0.827912 0.795819 0.841707
O O3 0.747683 0.876358 0.800297
O O4 0.800621 0.898728 0.136141
O O5 0.582821 0.399507 0.236868
O O6 0.658986 0.485787 0.384086
O O7 0.578190 0.575683 0.321505
O O8 0.498411 0.674236 0.193646
O O9 0.000000 0.500000 0.801957
#
# Coordination Sequence:
#
# PCOD9370109 Si02
#       4
#    16  16  16  16
#     4   8  15  30  51  71  87 125 166 194 230 281
#     4   9  19  30  48  72  97 120 164 204 232 286
#     4  10  17  30  51  69  95 126 161 197 243 284
#     4   7  15  30  46  68  89 119 161 202 221 281
#
# _framework density 23.004217000000001
#
# number of rings (size 3 to 8) (size 9 to 14) (size 15 to 20)
#    0.000    4.500    0.000    2.250    0.000    4.000 
#    0.000    0.000   16.500    0.000    0.000    0.000 
#    0.000    0.000    0.000    0.000    0.000    0.000 
#
# Total GULP energy -89134.038023 kJ/mol
# GULP energy per Si atom -5570.877376 kJ/mol
# Density = 2.295186 g / cm^3
# Si number density = 23.004217 Si / 1000 Ang^3
#
#
#
# Elastic Constant Matrix: (Units=GPa)
#
#
# Indices 1 2 3 4 5 6 
#
# 1 80.1492 17.5072 3.8784 0.0000 0.0000 0.0000
# 2 17.5072 52.0628 12.2863 0.0000 0.0000 0.0000
# 3 3.8784 12.2863 73.7480 0.0000 0.0000 0.0000
# 4 0.0000 0.0000 0.0000 15.1336 0.0000 0.0000
# 5 0.0000 0.0000 0.0000 0.0000 20.4424 0.0000
# 6 0.0000 0.0000 0.0000 0.0000 0.0000 46.0016
#
#
#
# Elastic Compliance Matrix: (Units=1/GPa)
#
#
# Indices 1 2 3 4 5 6 
#
# 1 0.013466 -0.004540 0.000048 0.000000 0.000000 0.000000
# 2 -0.004540 0.021524 -0.003347 0.000000 0.000000 0.000000
# 3 0.000048 -0.003347 0.014115 0.000000 0.000000 0.000000
# 4 0.000000 0.000000 0.000000 0.066078 0.000000 0.000000
# 5 0.000000 0.000000 0.000000 0.000000 0.048918 0.000000
# 6 0.000000 0.000000 0.000000 0.000000 0.000000 0.021738
#
#
# Mechanical properties :
#
#
# Convention : Reuss Voigt Hill
#
# Bulk Modulus (GPa) = 29.91542 30.36710 30.14126
# Shear Modulus (GPa) = 23.51184 27.80139 25.65662
#
# Velocity S-wave (km/s) = 3.20045 3.48017 3.34323
# Velocity P-wave (km/s) = 5.16621 5.42016 5.29470
#
# Compressibility (1/GPa) = 0.03342758
#
# Stress axis : x y z
#
# Youngs Moduli (GPa) = 74.26110 46.45973 70.84768
#
# Poissons Ratio (x) = 0.21091 -0.00341
# Poissons Ratio (y) = 0.33711 0.23714
# Poissons Ratio (z) = -0.00357 0.15551
#
# Static dielectric constant tensor:
#      x y z
#    x 1.927740 0.000000 0.000000 
#    y 0.000000 1.954980 0.000000 
#    z 0.000000 0.000000 1.829500 
# 
# From -- ./inp_files/1332.got.cif
#   From: 2010.05.17/outbox.cif.g08.bks.cpg/sg43_1_cif.got.tgz:1332.got - 2010.06.03 19:21:55.
