data_PCOD9370488
_publ_section_title
;
Structure prediction by ZEFSAII (Michael W. Deem and Ramdas Pophale) SiO2 
 PCOD9370488
Probable space group: F D D 2
;
_chemical_formula_sum "Si O2"
_cell_formula_units_Z 112
_cell_length_a 10.729822
_cell_length_b 23.697868
_cell_length_c 19.960734
_cell_angle_alpha 90.000000
_cell_angle_beta 90.000000
_cell_angle_gamma 90.000000
_cell_volume 5075.493789
_symmetry_space_group_name_H-M "F D D 2"
_symmetry_group_IT_number 43
_symmetry_cell_setting 'orthorhombic'
loop_
_space_group_symop_operation_xyz
x,y,z
-x,-y,z
1/4-x,1/4+y,1/4+z
1/4+x,1/4-y,1/4+z
x,1/2+y,1/2+z
-x,1/2-y,1/2+z
1/4-x,3/4+y,3/4+z
1/4+x,3/4-y,3/4+z
1/2+x,y,1/2+z
1/2-x,-y,1/2+z
3/4-x,1/4+y,3/4+z
3/4+x,1/4-y,3/4+z
1/2+x,1/2+y,z
1/2-x,1/2-y,z
3/4-x,3/4+y,1/4+z
3/4+x,3/4-y,1/4+z
loop_
_atom_site_type_symbol
_atom_site_label
_atom_site_fract_x
_atom_site_fract_y
_atom_site_fract_z
Si Si1 0.986367 0.354446 0.140390
Si Si2 0.922913 0.060608 0.275172
Si Si3 0.185005 0.583678 0.819401
Si Si4 0.503672 0.565618 0.137014
Si Si5 0.100218 0.258343 0.698649
Si Si6 0.618203 0.782399 0.847719
Si Si7 0.025955 0.678972 0.429629
O O1 0.948363 0.322272 0.070116
O O2 0.955963 0.305039 0.193322
O O3 0.897282 0.409457 0.135594
O O4 0.120731 0.383473 0.155660
O O5 0.038057 0.092417 0.308257
O O6 0.907310 0.076440 0.197955
O O7 0.000000 0.000000 0.272776
O O8 0.229931 0.647327 0.823616
O O9 0.196783 0.547179 0.887249
O O10 0.265190 0.557874 0.758766
O O11 0.500000 0.500000 0.122857
O O12 0.635537 0.588407 0.163404
O O13 0.250000 0.250000 0.689382
O O14 0.073848 0.286113 0.770748
O O15 0.750000 0.750000 0.840408
O O16 0.542017 0.737737 0.890710
#
# Coordination Sequence:
#
# PCOD9370488 Si02
#       7
#    16  16  16  16  16  16  16
#     4  11  20  41  69  96 134 179 223 296 354 410
#     4  10  19  40  67  98 126 162 237 289 342 408
#     4  11  21  42  63  98 133 173 229 285 339 430
#     4  10  24  41  66  92 133 187 228 285 343 420
#     4  11  21  40  72 104 130 172 245 296 339 419
#     4   9  22  41  61  99 137 175 228 289 350 419
#     4  10  25  43  59  96 146 176 223 284 357 427
#
# _framework density 22.066818999999999
#
# number of rings (size 3 to 8) (size 9 to 14) (size 15 to 20)
#    0.000    1.714    2.857    0.857    4.000    0.000 
#    7.714    2.143    0.000    0.000    0.000    0.000 
#    0.000    0.000    0.000    0.000    0.000    0.000 
#
# Total GULP energy -155945.695550 kJ/mol
# GULP energy per Si atom -5569.489127 kJ/mol
# Density = 2.201659 g / cm^3
# Si number density = 22.066819 Si / 1000 Ang^3
#
#
#
# Elastic Constant Matrix: (Units=GPa)
#
#
# Indices 1 2 3 4 5 6 
#
# 1 85.8101 30.6585 27.7444 0.0000 0.0000 0.0000
# 2 30.6585 97.4653 24.9725 0.0000 0.0000 0.0000
# 3 27.7444 24.9725 97.5024 0.0000 0.0000 0.0000
# 4 0.0000 0.0000 0.0000 31.7103 0.0000 0.0000
# 5 0.0000 0.0000 0.0000 0.0000 32.4756 0.0000
# 6 0.0000 0.0000 0.0000 0.0000 0.0000 26.5171
#
#
#
# Elastic Compliance Matrix: (Units=1/GPa)
#
#
# Indices 1 2 3 4 5 6 
#
# 1 0.013923 -0.003601 -0.003040 0.000000 0.000000 0.000000
# 2 -0.003601 0.011912 -0.002026 0.000000 0.000000 0.000000
# 3 -0.003040 -0.002026 0.011640 0.000000 0.000000 0.000000
# 4 0.000000 0.000000 0.000000 0.031535 0.000000 0.000000
# 5 0.000000 0.000000 0.000000 0.000000 0.030792 0.000000
# 6 0.000000 0.000000 0.000000 0.000000 0.000000 0.037711
#
#
# Mechanical properties :
#
#
# Convention : Reuss Voigt Hill
#
# Bulk Modulus (GPa) = 49.64843 49.72539 49.68691
# Shear Modulus (GPa) = 30.94804 31.30077 31.12441
#
# Velocity S-wave (km/s) = 3.74902 3.77032 3.75969
# Velocity P-wave (km/s) = 6.42559 6.44490 6.43525
#
# Compressibility (1/GPa) = 0.02014162
#
# Stress axis : x y z
#
# Youngs Moduli (GPa) = 71.82420 83.94973 85.91038
#
# Poissons Ratio (x) = 0.30228 0.26113
# Poissons Ratio (y) = 0.25862 0.17408
# Poissons Ratio (z) = 0.21831 0.17011
#
# Static dielectric constant tensor:
#      x y z
#    x 1.844200 0.000000 0.000000 
#    y 0.000000 1.924190 0.000000 
#    z 0.000000 0.000000 1.876070 
# 
# From -- ./inp_files/17221.got.cif
#   From: 2010.05.17/outbox.cif.g08.bks.cpg/sg43_9_cif.got.tgz:17221.got - 2010.06.03 19:21:55.
