data_PCOD9370198
_publ_section_title
;
Structure prediction by ZEFSAII (Michael W. Deem and Ramdas Pophale) SiO2 
 PCOD9370198
Probable space group: F D D 2
;
_chemical_formula_sum "Si O2"
_cell_formula_units_Z 120
_cell_length_a 9.866055
_cell_length_b 17.568279
_cell_length_c 27.842425
_cell_angle_alpha 90.000000
_cell_angle_beta 90.000000
_cell_angle_gamma 90.000000
_cell_volume 4825.916580
_symmetry_space_group_name_H-M "F D D 2"
_symmetry_group_IT_number 43
_symmetry_cell_setting 'orthorhombic'
loop_
_space_group_symop_operation_xyz
x,y,z
-x,-y,z
1/4-x,1/4+y,1/4+z
1/4+x,1/4-y,1/4+z
x,1/2+y,1/2+z
-x,1/2-y,1/2+z
1/4-x,3/4+y,3/4+z
1/4+x,3/4-y,3/4+z
1/2+x,y,1/2+z
1/2-x,-y,1/2+z
3/4-x,1/4+y,3/4+z
3/4+x,1/4-y,3/4+z
1/2+x,1/2+y,z
1/2-x,1/2-y,z
3/4-x,3/4+y,1/4+z
3/4+x,3/4-y,1/4+z
loop_
_atom_site_type_symbol
_atom_site_label
_atom_site_fract_x
_atom_site_fract_y
_atom_site_fract_z
Si Si1 0.242977 0.076160 0.903240
Si Si2 0.706596 0.549575 0.514214
Si Si3 0.500000 0.000000 0.852531
Si Si4 0.390529 0.598877 0.086497
Si Si5 0.564320 0.400103 0.559099
Si Si6 0.335489 0.083707 0.413928
Si Si7 0.848864 0.684107 0.980310
Si Si8 0.659215 0.506500 0.176258
O O1 0.198929 0.141411 0.865711
O O2 0.286588 0.111338 0.953500
O O3 0.381915 0.039027 0.883324
O O4 0.140182 0.005465 0.904517
O O5 0.857805 0.557327 0.536693
O O6 0.643907 0.471028 0.535999
O O7 0.586814 0.601506 0.536651
O O8 0.726930 0.571660 0.458348
O O9 0.431420 0.929637 0.826411
O O10 0.522431 0.627261 0.115481
O O11 0.328284 0.538391 0.125183
O O12 0.640486 0.328266 0.536849
O O13 0.437049 0.152234 0.428264
O O14 0.750000 0.750000 0.966914
O O15 0.993141 0.709617 0.960207
O O16 0.500000 0.500000 0.189420
#
# Coordination Sequence:
#
# PCOD9370198 Si02
#       8
#    16  16   8  16  16  16  16  16
#     4  11  23  42  68 105 142 196 249 308 377 450
#     4  11  22  40  70 105 141 187 254 308 363 453
#     4  10  18  34  66  98 138 176 240 312 364 428
#     4  10  20  37  63 102 139 180 233 309 372 427
#     4  11  24  40  67 103 136 191 254 304 358 451
#     4  10  23  42  70 105 145 191 238 321 383 436
#     4  12  26  46  72 102 150 193 246 309 376 460
#     4  10  21  42  70 106 138 187 243 309 375 439
#
# _framework density 24.865742999999998
#
# number of rings (size 3 to 8) (size 9 to 14) (size 15 to 20)
#    0.000    1.333    4.000    1.600    5.600    2.133 
#    7.200    0.667    2.933    0.000    0.000    0.000 
#    0.000    0.000    0.000    0.000    0.000    0.000 
#
# Total GULP energy -167110.243834 kJ/mol
# GULP energy per Si atom -5570.341461 kJ/mol
# Density = 2.480915 g / cm^3
# Si number density = 24.865743 Si / 1000 Ang^3
#
#
#
# Elastic Constant Matrix: (Units=GPa)
#
#
# Indices 1 2 3 4 5 6 
#
# 1 75.6676 7.4034 29.7090 0.0000 0.0000 0.0000
# 2 7.4034 112.1655 5.7934 0.0000 0.0000 0.0000
# 3 29.7090 5.7934 74.7421 0.0000 0.0000 0.0000
# 4 0.0000 0.0000 0.0000 -1.3612 0.0000 0.0000
# 5 0.0000 0.0000 0.0000 0.0000 -15.4136 0.0000
# 6 0.0000 0.0000 0.0000 0.0000 0.0000 23.8480
#
#
#
# Elastic Compliance Matrix: (Units=1/GPa)
#
#
# Indices 1 2 3 4 5 6 
#
# 1 0.015717 -0.000718 -0.006192 0.000000 0.000000 0.000000
# 2 -0.000718 0.008984 -0.000411 0.000000 0.000000 0.000000
# 3 -0.006192 -0.000411 0.015872 0.000000 0.000000 0.000000
# 4 0.000000 0.000000 0.000000 -0.734635 0.000000 0.000000
# 5 0.000000 0.000000 0.000000 0.000000 -0.064878 0.000000
# 6 0.000000 0.000000 0.000000 0.000000 0.000000 0.041932
#
#
# Mechanical properties :
#
#
# Convention : Reuss Voigt Hill
#
# Bulk Modulus (GPa) = 38.56168 38.70965 38.63566
# Shear Modulus (GPa) = -7.20750 16.05926 4.42588
#
# Velocity S-wave (km/s) = -1.70436 2.54409 1.33558
# Velocity P-wave (km/s) = 3.41592 4.92251 4.23672
#
# Compressibility (1/GPa) = 0.02593248
#
# Stress axis : x y z
#
# Youngs Moduli (GPa) = 63.62575 111.30909 63.00279
#
# Poissons Ratio (x) = 0.07987 0.39009
# Poissons Ratio (y) = 0.04566 0.02590
# Poissons Ratio (z) = 0.39395 0.04576
#
# Static dielectric constant tensor:
#      x y z
#    x 2.164870 0.000000 0.000000 
#    y 0.000000 2.051760 0.000000 
#    z 0.000000 0.000000 1.933010 
# 
# From -- ./inp_files/25181.got.cif
#   From: 2010.05.17/outbox.cif.g08.bks.cpg/sg43_13_cif.got.tgz:25181.got - 2010.06.03 19:21:55.
