data_PCOD9370624
_publ_section_title
;
Structure prediction by ZEFSAII (Michael W. Deem and Ramdas Pophale) SiO2 
 PCOD9370624
Probable space group: F D D 2
;
_chemical_formula_sum "Si O2"
_cell_formula_units_Z 112
_cell_length_a 13.956569
_cell_length_b 16.655789
_cell_length_c 24.901372
_cell_angle_alpha 90.000000
_cell_angle_beta 90.000000
_cell_angle_gamma 90.000000
_cell_volume 5788.514876
_symmetry_space_group_name_H-M "F D D 2"
_symmetry_group_IT_number 43
_symmetry_cell_setting 'orthorhombic'
loop_
_space_group_symop_operation_xyz
x,y,z
-x,-y,z
1/4-x,1/4+y,1/4+z
1/4+x,1/4-y,1/4+z
x,1/2+y,1/2+z
-x,1/2-y,1/2+z
1/4-x,3/4+y,3/4+z
1/4+x,3/4-y,3/4+z
1/2+x,y,1/2+z
1/2-x,-y,1/2+z
3/4-x,1/4+y,3/4+z
3/4+x,1/4-y,3/4+z
1/2+x,1/2+y,z
1/2-x,1/2-y,z
3/4-x,3/4+y,1/4+z
3/4+x,3/4-y,1/4+z
loop_
_atom_site_type_symbol
_atom_site_label
_atom_site_fract_x
_atom_site_fract_y
_atom_site_fract_z
Si Si1 0.226425 0.464752 0.022260
Si Si2 0.438304 0.128684 0.070939
Si Si3 0.548482 0.913856 0.189532
Si Si4 0.135336 0.749234 0.957967
Si Si5 0.904449 0.448761 0.590851
Si Si6 0.178242 0.821543 0.226925
Si Si7 0.042130 0.702026 0.520590
O O1 0.149933 0.431877 0.064812
O O2 0.322702 0.486216 0.053011
O O3 0.245275 0.389927 0.983342
O O4 0.174635 0.532821 0.988148
O O5 0.457447 0.132958 0.133657
O O6 0.523375 0.093314 0.034259
O O7 0.418652 0.214262 0.043952
O O8 0.652475 0.929071 0.215763
O O9 0.500000 0.000000 0.181868
O O10 0.250000 0.750000 0.969996
O O11 0.122770 0.798837 0.902783
O O12 0.092558 0.658012 0.949339
O O13 0.069127 0.786240 0.004955
O O14 0.931907 0.363611 0.565129
O O15 0.000000 0.500000 0.588573
O O16 0.250000 0.750000 0.204554
#
# Coordination Sequence:
#
# PCOD9370624 Si02
#       7
#    16  16  16  16  16  16  16
#     4  10  20  37  61  87 121 153 203 261 308 369
#     4  10  20  38  62  92 122 154 205 263 315 366
#     4  11  20  34  62  90 121 164 197 259 325 365
#     4  10  22  40  66  85 126 175 202 263 325 372
#     4  10  23  39  59  87 126 163 204 252 307 394
#     4   9  20  39  61  91 122 157 210 269 303 375
#     4  10  22  41  60  92 127 155 216 261 306 392
#
# _framework density 19.348658
#
# number of rings (size 3 to 8) (size 9 to 14) (size 15 to 20)
#    0.000    2.000    1.429    2.143    2.000    2.286 
#    2.571    0.000    0.000    0.000    0.000    0.000 
#    0.000    0.000    0.000    0.000    0.000    0.000 
#
# Total GULP energy -156029.868237 kJ/mol
# GULP energy per Si atom -5572.495294 kJ/mol
# Density = 1.930462 g / cm^3
# Si number density = 19.348658 Si / 1000 Ang^3
#
#
#
# Elastic Constant Matrix: (Units=GPa)
#
#
# Indices 1 2 3 4 5 6 
#
# 1 68.0307 19.0674 21.1000 0.0000 0.0000 0.0000
# 2 19.0674 70.1333 18.0146 0.0000 0.0000 0.0000
# 3 21.1000 18.0146 67.3294 0.0000 0.0000 0.0000
# 4 0.0000 0.0000 0.0000 15.9942 0.0000 0.0000
# 5 0.0000 0.0000 0.0000 0.0000 18.6286 0.0000
# 6 0.0000 0.0000 0.0000 0.0000 0.0000 24.5236
#
#
#
# Elastic Compliance Matrix: (Units=1/GPa)
#
#
# Indices 1 2 3 4 5 6 
#
# 1 0.017047 -0.003503 -0.004405 0.000000 0.000000 0.000000
# 2 -0.003503 0.016031 -0.003191 0.000000 0.000000 0.000000
# 3 -0.004405 -0.003191 0.017087 0.000000 0.000000 0.000000
# 4 0.000000 0.000000 0.000000 0.062522 0.000000 0.000000
# 5 0.000000 0.000000 0.000000 0.000000 0.053681 0.000000
# 6 0.000000 0.000000 0.000000 0.000000 0.000000 0.040777
#
#
# Mechanical properties :
#
#
# Convention : Reuss Voigt Hill
#
# Bulk Modulus (GPa) = 35.75823 35.76192 35.76008
# Shear Modulus (GPa) = 20.94977 21.65007 21.29992
#
# Velocity S-wave (km/s) = 3.29409 3.34869 3.32150
# Velocity P-wave (km/s) = 5.74362 5.78573 5.76471
#
# Compressibility (1/GPa) = 0.02796559
#
# Stress axis : x y z
#
# Youngs Moduli (GPa) = 58.66013 62.38026 58.52511
#
# Poissons Ratio (x) = 0.21853 0.25781
# Poissons Ratio (y) = 0.20550 0.18677
# Poissons Ratio (z) = 0.25840 0.19907
#
# Static dielectric constant tensor:
#      x y z
#    x 1.727180 0.000000 0.000000 
#    y 0.000000 1.708230 0.000000 
#    z 0.000000 0.000000 1.655480 
# 
# From -- ./inp_files/21715.got.cif
#   From: 2010.05.17/outbox.cif.g08.bks.cpg/sg43_11_cif.got.tgz:21715.got - 2010.06.03 19:21:55.
