data_PCOD9370476
_publ_section_title
;
Structure prediction by ZEFSAII (Michael W. Deem and Ramdas Pophale) SiO2 
 PCOD9370476
Probable space group: F D D 2
;
_chemical_formula_sum "Si O2"
_cell_formula_units_Z 96
_cell_length_a 11.430231
_cell_length_b 16.544801
_cell_length_c 22.952665
_cell_angle_alpha 90.000000
_cell_angle_beta 90.000000
_cell_angle_gamma 90.000000
_cell_volume 4340.599073
_symmetry_space_group_name_H-M "F D D 2"
_symmetry_group_IT_number 43
_symmetry_cell_setting 'orthorhombic'
loop_
_space_group_symop_operation_xyz
x,y,z
-x,-y,z
1/4-x,1/4+y,1/4+z
1/4+x,1/4-y,1/4+z
x,1/2+y,1/2+z
-x,1/2-y,1/2+z
1/4-x,3/4+y,3/4+z
1/4+x,3/4-y,3/4+z
1/2+x,y,1/2+z
1/2-x,-y,1/2+z
3/4-x,1/4+y,3/4+z
3/4+x,1/4-y,3/4+z
1/2+x,1/2+y,z
1/2-x,1/2-y,z
3/4-x,3/4+y,1/4+z
3/4+x,3/4-y,1/4+z
loop_
_atom_site_type_symbol
_atom_site_label
_atom_site_fract_x
_atom_site_fract_y
_atom_site_fract_z
Si Si1 0.828929 0.506289 0.235030
Si Si2 0.021428 0.377261 0.651649
Si Si3 0.250640 0.887727 0.506784
Si Si4 0.798957 0.481799 0.621213
Si Si5 0.372127 0.036872 0.895188
Si Si6 0.909540 0.072575 0.275054
O O1 0.872308 0.595458 0.251625
O O2 0.809931 0.508724 0.165102
O O3 0.705441 0.472365 0.253935
O O4 0.915673 0.439759 0.262249
O O5 0.117191 0.439116 0.624283
O O6 0.045558 0.290101 0.625009
O O7 0.049009 0.372653 0.721334
O O8 0.891978 0.412912 0.643255
O O9 0.255224 0.951737 0.558709
O O10 0.198809 0.926353 0.448325
O O11 0.389645 0.099084 0.841540
O O12 0.500000 0.000000 0.912251
O O13 0.000000 0.000000 0.280820
#
# Coordination Sequence:
#
# PCOD9370476 Si02
#       6
#    16  16  16  16  16  16
#     4  10  22  44  65  94 135 176 221 278 343 412
#     4  10  20  42  67  96 126 172 228 282 331 395
#     4  11  25  41  63 100 135 177 220 275 356 414
#     4  10  21  44  67  93 131 174 223 277 340 401
#     4  11  24  38  61 100 128 173 228 275 340 405
#     4  10  19  39  69  88 126 169 219 277 327 385
#
# _framework density 22.116762000000001
#
# number of rings (size 3 to 8) (size 9 to 14) (size 15 to 20)
#    0.000    1.667    3.333    3.000    2.333    4.000 
#    9.000    0.000    0.000    0.000    0.000    0.000 
#    0.000    0.000    0.000    0.000    0.000    0.000 
#
# Total GULP energy -133865.388458 kJ/mol
# GULP energy per Si atom -5577.724519 kJ/mol
# Density = 2.206642 g / cm^3
# Si number density = 22.116762 Si / 1000 Ang^3
#
#
#
# Elastic Constant Matrix: (Units=GPa)
#
#
# Indices 1 2 3 4 5 6 
#
# 1 49.8617 -11.7338 5.3655 0.0000 0.0000 0.0000
# 2 -11.7338 45.0206 13.9895 0.0000 0.0000 0.0000
# 3 5.3655 13.9895 129.8647 0.0000 0.0000 0.0000
# 4 0.0000 0.0000 0.0000 21.8655 0.0000 0.0000
# 5 0.0000 0.0000 0.0000 0.0000 40.9476 0.0000
# 6 0.0000 0.0000 0.0000 0.0000 0.0000 21.7607
#
#
#
# Elastic Compliance Matrix: (Units=1/GPa)
#
#
# Indices 1 2 3 4 5 6 
#
# 1 0.021665 0.006130 -0.001555 0.000000 0.000000 0.000000
# 2 0.006130 0.024716 -0.002916 0.000000 0.000000 0.000000
# 3 -0.001555 -0.002916 0.008079 0.000000 0.000000 0.000000
# 4 0.000000 0.000000 0.000000 0.045734 0.000000 0.000000
# 5 0.000000 0.000000 0.000000 0.000000 0.024421 0.000000
# 6 0.000000 0.000000 0.000000 0.000000 0.000000 0.045954
#
#
# Mechanical properties :
#
#
# Convention : Reuss Voigt Hill
#
# Bulk Modulus (GPa) = 17.30780 26.66551 21.98666
# Shear Modulus (GPa) = 26.80802 31.38981 29.09891
#
# Velocity S-wave (km/s) = 3.48532 3.77142 3.63119
# Velocity P-wave (km/s) = 4.90298 5.57204 5.24818
#
# Compressibility (1/GPa) = 0.05777741
#
# Stress axis : x y z
#
# Youngs Moduli (GPa) = 46.15657 40.46001 123.78253
#
# Poissons Ratio (x) = -0.24802 0.19254
# Poissons Ratio (y) = -0.28294 0.36092
# Poissons Ratio (z) = 0.07180 0.11797
#
# Static dielectric constant tensor:
#      x y z
#    x 1.552390 0.000000 0.000000 
#    y 0.000000 1.832850 0.000000 
#    z 0.000000 0.000000 1.915880 
# 
# From -- ./inp_files/21068.got.cif
#   From: 2010.05.17/outbox.cif.g08.bks.cpg/sg43_11_cif.got.tgz:21068.got - 2010.06.03 19:21:55.
