data_PCOD9370607
_publ_section_title
;
Structure prediction by ZEFSAII (Michael W. Deem and Ramdas Pophale) SiO2 
 PCOD9370607
Probable space group: F D D 2
;
_chemical_formula_sum "Si O2"
_cell_formula_units_Z 112
_cell_length_a 15.212459
_cell_length_b 14.839564
_cell_length_c 23.526571
_cell_angle_alpha 90.000000
_cell_angle_beta 90.000000
_cell_angle_gamma 90.000000
_cell_volume 5311.035389
_symmetry_space_group_name_H-M "F D D 2"
_symmetry_group_IT_number 43
_symmetry_cell_setting 'orthorhombic'
loop_
_space_group_symop_operation_xyz
x,y,z
-x,-y,z
1/4-x,1/4+y,1/4+z
1/4+x,1/4-y,1/4+z
x,1/2+y,1/2+z
-x,1/2-y,1/2+z
1/4-x,3/4+y,3/4+z
1/4+x,3/4-y,3/4+z
1/2+x,y,1/2+z
1/2-x,-y,1/2+z
3/4-x,1/4+y,3/4+z
3/4+x,1/4-y,3/4+z
1/2+x,1/2+y,z
1/2-x,1/2-y,z
3/4-x,3/4+y,1/4+z
3/4+x,3/4-y,1/4+z
loop_
_atom_site_type_symbol
_atom_site_label
_atom_site_fract_x
_atom_site_fract_y
_atom_site_fract_z
Si Si1 0.280813 0.478956 0.781110
Si Si2 0.784348 0.148104 0.111237
Si Si3 0.808915 0.393040 0.402600
Si Si4 0.372596 0.439811 0.665002
Si Si5 0.848979 0.213221 0.999567
Si Si6 0.645392 0.254537 0.882061
Si Si7 0.335311 0.686858 0.762517
O O1 0.313852 0.442344 0.841682
O O2 0.327569 0.433612 0.727022
O O3 0.175031 0.472050 0.774234
O O4 0.301436 0.584948 0.773357
O O5 0.750000 0.250000 0.123140
O O6 0.697905 0.089444 0.118502
O O7 0.831013 0.145192 0.050139
O O8 0.857071 0.094358 0.147751
O O9 0.849701 0.292288 0.402283
O O10 0.706207 0.375016 0.413953
O O11 0.855341 0.440702 0.456098
O O12 0.750000 0.250000 0.991562
O O13 0.878440 0.184916 0.936635
O O14 0.750000 0.250000 0.875588
O O15 0.614005 0.289840 0.821312
O O16 0.250000 0.750000 0.755232
#
# Coordination Sequence:
#
# PCOD9370607 Si02
#       7
#    16  16  16  16  16  16  16
#     4  11  22  44  67  96 138 179 227 289 336 416
#     4  11  22  41  66  95 139 177 223 280 347 415
#     4  10  23  45  69  94 135 185 231 282 346 410
#     4  10  23  45  65  97 136 177 234 284 333 427
#     4  10  20  36  66  94 131 175 214 276 345 405
#     4  10  21  39  62  97 136 171 221 284 347 412
#     4  10  23  42  67 101 135 172 229 291 346 410
#
# _framework density 21.088168
#
# number of rings (size 3 to 8) (size 9 to 14) (size 15 to 20)
#    0.000    1.714    1.429    3.429    0.000    3.429 
#    7.714    5.714    0.000    0.000    0.000    0.000 
#    0.000    0.000    0.000    0.000    0.000    0.000 
#
# Total GULP energy -156014.626764 kJ/mol
# GULP energy per Si atom -5571.950956 kJ/mol
# Density = 2.104017 g / cm^3
# Si number density = 21.088168 Si / 1000 Ang^3
#
#
#
# Elastic Constant Matrix: (Units=GPa)
#
#
# Indices 1 2 3 4 5 6 
#
# 1 106.0722 31.1244 52.2624 0.0000 0.0000 0.0000
# 2 31.1244 54.8753 33.3681 0.0000 0.0000 0.0000
# 3 52.2624 33.3681 165.1914 0.0000 0.0000 0.0000
# 4 0.0000 0.0000 0.0000 38.5409 0.0000 0.0000
# 5 0.0000 0.0000 0.0000 0.0000 29.0242 0.0000
# 6 0.0000 0.0000 0.0000 0.0000 0.0000 21.3458
#
#
#
# Elastic Compliance Matrix: (Units=1/GPa)
#
#
# Indices 1 2 3 4 5 6 
#
# 1 0.012384 -0.005292 -0.002849 0.000000 0.000000 0.000000
# 2 -0.005292 0.023036 -0.002979 0.000000 0.000000 0.000000
# 3 -0.002849 -0.002979 0.007557 0.000000 0.000000 0.000000
# 4 0.000000 0.000000 0.000000 0.025946 0.000000 0.000000
# 5 0.000000 0.000000 0.000000 0.000000 0.034454 0.000000
# 6 0.000000 0.000000 0.000000 0.000000 0.000000 0.046848
#
#
# Mechanical properties :
#
#
# Convention : Reuss Voigt Hill
#
# Bulk Modulus (GPa) = 48.22252 62.18318 55.20285
# Shear Modulus (GPa) = 27.87434 31.74113 29.80773
#
# Velocity S-wave (km/s) = 3.63960 3.88385 3.76371
# Velocity P-wave (km/s) = 6.37016 7.04724 6.71724
#
# Compressibility (1/GPa) = 0.02073720
#
# Stress axis : x y z
#
# Youngs Moduli (GPa) = 80.74942 43.41049 132.33241
#
# Poissons Ratio (x) = 0.22971 0.37703
# Poissons Ratio (y) = 0.42729 0.39423
# Poissons Ratio (z) = 0.23006 0.12932
#
# Static dielectric constant tensor:
#      x y z
#    x 1.776650 0.000000 0.000000 
#    y 0.000000 1.724920 0.000000 
#    z 0.000000 0.000000 1.816800 
# 
# From -- ./inp_files/21743.got.cif
#   From: 2010.05.17/outbox.cif.g08.bks.cpg/sg43_11_cif.got.tgz:21743.got - 2010.06.03 19:21:55.
