data_PCOD9370575
_publ_section_title
;
Structure prediction by ZEFSAII (Michael W. Deem and Ramdas Pophale) SiO2 
 PCOD9370575
Probable space group: F D D 2
;
_chemical_formula_sum "Si O2"
_cell_formula_units_Z 104
_cell_length_a 9.641805
_cell_length_b 17.066991
_cell_length_c 27.765080
_cell_angle_alpha 90.000000
_cell_angle_beta 90.000000
_cell_angle_gamma 90.000000
_cell_volume 4568.927140
_symmetry_space_group_name_H-M "F D D 2"
_symmetry_group_IT_number 43
_symmetry_cell_setting 'orthorhombic'
loop_
_space_group_symop_operation_xyz
x,y,z
-x,-y,z
1/4-x,1/4+y,1/4+z
1/4+x,1/4-y,1/4+z
x,1/2+y,1/2+z
-x,1/2-y,1/2+z
1/4-x,3/4+y,3/4+z
1/4+x,3/4-y,3/4+z
1/2+x,y,1/2+z
1/2-x,-y,1/2+z
3/4-x,1/4+y,3/4+z
3/4+x,1/4-y,3/4+z
1/2+x,1/2+y,z
1/2-x,1/2-y,z
3/4-x,3/4+y,1/4+z
3/4+x,3/4-y,1/4+z
loop_
_atom_site_type_symbol
_atom_site_label
_atom_site_fract_x
_atom_site_fract_y
_atom_site_fract_z
Si Si1 0.657593 0.905677 0.863270
Si Si2 0.750000 0.250000 0.179912
Si Si3 0.980834 0.830140 0.215443
Si Si4 0.557951 0.682809 0.506176
Si Si5 0.237620 0.882312 0.770059
Si Si6 0.885857 0.800624 0.113267
Si Si7 0.019114 0.590721 0.210124
O O1 0.652077 0.890178 0.806842
O O2 0.729819 0.850305 0.902380
O O3 0.518422 0.928046 0.891959
O O4 0.744766 0.985613 0.863253
O O5 0.607119 0.266990 0.209018
O O6 0.869296 0.828098 0.258659
O O7 0.887662 0.831467 0.167431
O O8 0.067544 0.909938 0.221357
O O9 0.536315 0.776172 0.511732
O O10 0.417207 0.644422 0.485480
O O11 0.173141 0.885208 0.823394
O O12 0.110775 0.865541 0.733713
O O13 0.750000 0.750000 0.100489
O O14 0.000000 0.500000 0.221494
#
# Coordination Sequence:
#
# PCOD9370575 Si02
#       7
#    16   8  16  16  16  16  16
#     4  10  20  36  59  82 117 163 209 248 305 378
#     4  10  22  38  58  88 126 162 204 268 308 366
#     4  11  22  36  61  92 123 157 209 265 310 363
#     4  10  21  36  62  86 120 161 214 255 303 379
#     4  10  21  36  64  91 117 164 215 258 313 373
#     4  10  21  39  63  91 120 162 215 265 309 379
#     4  10  20  38  58  90 124 159 201 266 321 370
#
# _framework density 22.762454999999999
#
# number of rings (size 3 to 8) (size 9 to 14) (size 15 to 20)
#    0.000    1.846    1.538    3.692    6.462    0.000 
#    1.385    0.000    0.000   11.077    0.000    0.000 
#    0.000    0.000    0.000    0.000    0.000    0.000 
#
# Total GULP energy -144889.325727 kJ/mol
# GULP energy per Si atom -5572.666374 kJ/mol
# Density = 2.271065 g / cm^3
# Si number density = 22.762455 Si / 1000 Ang^3
#
#
#
# Elastic Constant Matrix: (Units=GPa)
#
#
# Indices 1 2 3 4 5 6 
#
# 1 137.9496 21.1645 52.8633 0.0000 0.0000 0.0000
# 2 21.1645 26.8386 24.3302 0.0000 0.0000 0.0000
# 3 52.8633 24.3302 123.9283 0.0000 0.0000 0.0000
# 4 0.0000 0.0000 0.0000 26.7540 0.0000 0.0000
# 5 0.0000 0.0000 0.0000 0.0000 -1.7400 0.0000
# 6 0.0000 0.0000 0.0000 0.0000 0.0000 33.2151
#
#
#
# Elastic Compliance Matrix: (Units=1/GPa)
#
#
# Indices 1 2 3 4 5 6 
#
# 1 0.009080 -0.004439 -0.003002 0.000000 0.000000 0.000000
# 2 -0.004439 0.047497 -0.007431 0.000000 0.000000 0.000000
# 3 -0.003002 -0.007431 0.010809 0.000000 0.000000 0.000000
# 4 0.000000 0.000000 0.000000 0.037378 0.000000 0.000000
# 5 0.000000 0.000000 0.000000 0.000000 -0.574708 0.000000
# 6 0.000000 0.000000 0.000000 0.000000 0.000000 0.030107
#
#
# Mechanical properties :
#
#
# Convention : Reuss Voigt Hill
#
# Bulk Modulus (GPa) = 26.56651 53.93696 40.25173
# Shear Modulus (GPa) = -12.57720 24.33638 5.87959
#
# Velocity S-wave (km/s) = -2.35317 3.27333 1.60892
# Velocity P-wave (km/s) = 2.07685 6.16711 4.60144
#
# Compressibility (1/GPa) = 0.03764138
#
# Stress axis : x y z
#
# Youngs Moduli (GPa) = 110.12666 21.05384 92.51906
#
# Poissons Ratio (x) = 0.09347 0.27773
# Poissons Ratio (y) = 0.48890 0.68753
# Poissons Ratio (z) = 0.33058 0.15646
#
# Static dielectric constant tensor:
#      x y z
#    x 2.197190 0.000000 0.000000 
#    y 0.000000 2.049280 0.000000 
#    z 0.000000 0.000000 1.921300 
# 
# From -- ./inp_files/24324.got.cif
#   From: 2010.05.17/outbox.cif.g08.bks.cpg/sg43_13_cif.got.tgz:24324.got - 2010.06.03 19:21:55.
