data_PCOD9370370
_publ_section_title
;
Structure prediction by ZEFSAII (Michael W. Deem and Ramdas Pophale) SiO2 
 PCOD9370370
Probable space group: F D D 2
;
_chemical_formula_sum "Si O2"
_cell_formula_units_Z 88
_cell_length_a 12.309371
_cell_length_b 26.467150
_cell_length_c 13.849897
_cell_angle_alpha 90.000000
_cell_angle_beta 90.000000
_cell_angle_gamma 90.000000
_cell_volume 4512.212909
_symmetry_space_group_name_H-M "F D D 2"
_symmetry_group_IT_number 43
_symmetry_cell_setting 'orthorhombic'
loop_
_space_group_symop_operation_xyz
x,y,z
-x,-y,z
1/4-x,1/4+y,1/4+z
1/4+x,1/4-y,1/4+z
x,1/2+y,1/2+z
-x,1/2-y,1/2+z
1/4-x,3/4+y,3/4+z
1/4+x,3/4-y,3/4+z
1/2+x,y,1/2+z
1/2-x,-y,1/2+z
3/4-x,1/4+y,3/4+z
3/4+x,1/4-y,3/4+z
1/2+x,1/2+y,z
1/2-x,1/2-y,z
3/4-x,3/4+y,1/4+z
3/4+x,3/4-y,1/4+z
loop_
_atom_site_type_symbol
_atom_site_label
_atom_site_fract_x
_atom_site_fract_y
_atom_site_fract_z
Si Si1 0.076958 0.908884 0.220820
Si Si2 0.585544 0.547390 0.094964
Si Si3 0.627757 0.508941 0.903742
Si Si4 0.071285 0.793717 0.250076
Si Si5 0.500000 0.000000 0.858840
Si Si6 0.011393 0.265733 0.945911
O O1 0.092690 0.852951 0.257853
O O2 0.189164 0.933459 0.186301
O O3 0.986964 0.907868 0.136131
O O4 0.033695 0.951235 0.295699
O O5 0.500000 0.500000 0.091322
O O6 0.678644 0.530190 0.170244
O O7 0.630249 0.552928 0.986351
O O8 0.500000 0.500000 0.886423
O O9 0.698267 0.466727 0.961542
O O10 0.684721 0.515262 0.800447
O O11 0.149677 0.767322 0.173628
O O12 0.089187 0.768107 0.353891
#
# Coordination Sequence:
#
# PCOD9370370 Si02
#       6
#    16  16  16  16   8  16
#     4  11  19  40  66  89 117 164 221 260 296 374
#     4   8  16  33  60  81 110 156 205 249 286 353
#     4  10  20  37  59  85 120 161 195 252 318 372
#     4  11  24  37  65  91 120 170 213 252 324 368
#     4  12  22  40  64  96 126 156 218 270 298 376
#     4  10  19  36  58  87 124 158 194 260 319 360
#
# _framework density 19.502624999999998
#
# number of rings (size 3 to 8) (size 9 to 14) (size 15 to 20)
#    0.000    1.818    4.545    2.182    1.273    0.000 
#    0.000    1.818    8.000    0.000    0.000    0.000 
#    0.000    0.000    0.000    0.000    0.000    0.000 
#
# Total GULP energy -122546.404593 kJ/mol
# GULP energy per Si atom -5570.291118 kJ/mol
# Density = 1.945824 g / cm^3
# Si number density = 19.502625 Si / 1000 Ang^3
#
#
#
# Elastic Constant Matrix: (Units=GPa)
#
#
# Indices 1 2 3 4 5 6 
#
# 1 81.2505 9.8185 44.6732 0.0000 0.0000 0.0000
# 2 9.8185 38.7758 12.4706 0.0000 0.0000 0.0000
# 3 44.6732 12.4706 157.6518 0.0000 0.0000 0.0000
# 4 0.0000 0.0000 0.0000 8.5874 0.0000 0.0000
# 5 0.0000 0.0000 0.0000 0.0000 37.9680 0.0000
# 6 0.0000 0.0000 0.0000 0.0000 0.0000 7.8249
#
#
#
# Elastic Compliance Matrix: (Units=1/GPa)
#
#
# Indices 1 2 3 4 5 6 
#
# 1 0.014805 -0.002462 -0.004000 0.000000 0.000000 0.000000
# 2 -0.002462 0.026872 -0.001428 0.000000 0.000000 0.000000
# 3 -0.004000 -0.001428 0.007590 0.000000 0.000000 0.000000
# 4 0.000000 0.000000 0.000000 0.116450 0.000000 0.000000
# 5 0.000000 0.000000 0.000000 0.000000 0.026338 0.000000
# 6 0.000000 0.000000 0.000000 0.000000 0.000000 0.127796
#
#
# Mechanical properties :
#
#
# Convention : Reuss Voigt Hill
#
# Bulk Modulus (GPa) = 29.86388 45.73364 37.79876
# Shear Modulus (GPa) = 14.41780 24.92377 19.67079
#
# Velocity S-wave (km/s) = 2.72191 3.57875 3.17933
# Velocity P-wave (km/s) = 5.02239 6.37005 5.73593
#
# Compressibility (1/GPa) = 0.03348527
#
# Stress axis : x y z
#
# Youngs Moduli (GPa) = 67.54645 37.21351 131.75892
#
# Poissons Ratio (x) = 0.09163 0.52708
# Poissons Ratio (y) = 0.16631 0.18815
# Poissons Ratio (z) = 0.27021 0.05314
#
# Static dielectric constant tensor:
#      x y z
#    x 1.738600 0.000000 0.000000 
#    y 0.000000 1.682460 0.000000 
#    z 0.000000 0.000000 1.751600 
# 
# From -- ./inp_files/5741.got.cif
#   From: 2010.05.17/outbox.cif.g08.bks.cpg/sg43_3_cif.got.tgz:5741.got - 2010.06.03 19:21:55.
