data_PCOD9370020
_publ_section_title
;
Structure prediction by ZEFSAII (Michael W. Deem and Ramdas Pophale) SiO2 
 PCOD9370020
Probable space group: F M M 2
;
_chemical_formula_sum "Si O2"
_cell_formula_units_Z 28
_cell_length_a 30.000000
_cell_length_b 15.000000
_cell_length_c 12.000000
_cell_angle_alpha 90.000000
_cell_angle_beta 90.000000
_cell_angle_gamma 90.000000
_cell_volume 5400.000000
_symmetry_space_group_name_H-M "F M M 2"
_symmetry_group_IT_number 42
_symmetry_cell_setting 'orthorhombic'
loop_
_space_group_symop_operation_xyz
x,y,z
-x,-y,z
-x,y,z
x,-y,z
x,1/2+y,1/2+z
-x,1/2-y,1/2+z
-x,1/2+y,1/2+z
x,1/2-y,1/2+z
1/2+x,y,1/2+z
1/2-x,-y,1/2+z
1/2-x,y,1/2+z
1/2+x,-y,1/2+z
1/2+x,1/2+y,z
1/2-x,1/2-y,z
1/2-x,1/2+y,z
1/2+x,1/2-y,z
loop_
_atom_site_type_symbol
_atom_site_label
_atom_site_fract_x
_atom_site_fract_y
_atom_site_fract_z
Si Si1 0.449737 0.197300 0.169780
Si Si2 0.449899 0.103765 0.935290
Si Si3 0.380032 0.658720 0.250346
Si Si4 0.133531 0.899453 0.010564
Si Si5 0.233688 0.349447 0.522189
Si Si6 0.716810 0.103175 0.783006
Si Si7 0.047685 0.604735 0.393593
O O1 0.500000 0.238888 0.177125
O O2 0.407829 0.256471 0.206258
O O3 0.450459 0.119159 0.261922
O O4 0.444131 0.160543 0.046562
O O5 0.500000 0.122612 0.889588
O O6 0.410791 0.121988 0.848476
O O7 0.448924 0.000000 0.965787
O O8 0.327860 0.664860 0.284502
O O9 0.378701 0.597997 0.140271
O O10 0.091837 0.855574 0.948098
O O11 0.139984 0.000000 0.967490
O O12 0.180889 0.853200 0.000427
O O13 0.250000 0.250000 0.532589
O O14 0.256310 0.383553 0.402595
O O15 0.238188 0.386033 0.654543
O O16 0.702265 0.000000 0.785722
O O17 0.047642 0.500000 0.421029
O O18 0.000000 0.642862 0.432811
#
# Coordination Sequence:
#
# PCOD9370020 Si02
#       7
#    16  16  16  16  16  16  16
#     4  10  22  37  58  88 128 169 211 263 321 377
#     4  10  21  39  61  88 126 171 218 265 319 386
#     4  11  23  37  61  90 125 164 208 265 327 386
#     4  10  22  42  65  91 128 169 209 261 326 392
#     4  11  24  43  70 100 132 169 218 282 340 400
#     4  11  24  46  70  94 132 175 222 274 340 410
#     4   9  19  37  62  90 122 165 214 257 305 379
#
# _framework density 5.1851849999999997
#
# number of rings (size 3 to 8) (size 9 to 14) (size 15 to 20)
#    0.000    1.714    0.000    4.714    4.000    4.000 
#    2.571    1.429    0.000    0.000    0.000    0.000 
#    0.000    0.000    0.000    0.000    0.000    0.000 
#
# Total GULP energy -155890.186568 kJ/mol
# GULP energy per Si atom -5567.506663 kJ/mol
# Density = 0.517338 g / cm^3
# Si number density = 5.185185 Si / 1000 Ang^3
#
#
#
# Elastic Constant Matrix: (Units=GPa)
#
#
# Indices 1 2 3 4 5 6 
#
# 1 158.2005 39.9026 75.7708 0.0000 0.0000 0.0000
# 2 39.9026 68.3269 26.9884 0.0000 0.0000 0.0000
# 3 75.7708 26.9884 129.8630 0.0000 0.0000 0.0000
# 4 0.0000 0.0000 0.0000 38.1795 0.0000 0.0000
# 5 0.0000 0.0000 0.0000 0.0000 44.2667 0.0000
# 6 0.0000 0.0000 0.0000 0.0000 0.0000 15.7606
#
#
#
# Elastic Compliance Matrix: (Units=1/GPa)
#
#
# Indices 1 2 3 4 5 6 
#
# 1 0.009552 -0.003679 -0.004809 0.000000 0.000000 0.000000
# 2 -0.003679 0.017361 -0.001461 0.000000 0.000000 0.000000
# 3 -0.004809 -0.001461 0.010810 0.000000 0.000000 0.000000
# 4 0.000000 0.000000 0.000000 0.026192 0.000000 0.000000
# 5 0.000000 0.000000 0.000000 0.000000 0.022590 0.000000
# 6 0.000000 0.000000 0.000000 0.000000 0.000000 0.063449
#
#
# Mechanical properties :
#
#
# Convention : Reuss Voigt Hill
#
# Bulk Modulus (GPa) = 56.10150 71.30157 63.70154
# Shear Modulus (GPa) = 28.44213 33.88994 31.16603
#
# Velocity S-wave (km/s) = 3.70715 4.04664 3.88061
# Velocity P-wave (km/s) = 6.74030 7.50239 7.13153
#
# Compressibility (1/GPa) = 0.01782483
#
# Stress axis : x y z
#
# Youngs Moduli (GPa) = 104.68717 57.59932 92.50735
#
# Poissons Ratio (x) = 0.21191 0.44485
# Poissons Ratio (y) = 0.38515 0.13520
# Poissons Ratio (z) = 0.50343 0.08418
#
# Static dielectric constant tensor:
#      x y z
#    x 1.782390 0.000000 0.000000 
#    y 0.000000 1.771470 0.000000 
#    z 0.000000 0.000000 1.758920 
# 
# From -- ./inp_files/11113.got.cif
#   From: 2010.05.17/outbox.ucp.g08.bks.cvg/sg42_6_cif.got.tgz:11113.got - 2010.06.11 16:29:10.
