data_PCOD9370949
_publ_section_title
;
Structure prediction by ZEFSAII (Michael W. Deem and Ramdas Pophale) SiO2 
 PCOD9370949
Probable space group: F D D 2
;
_chemical_formula_sum "Si O2"
_cell_formula_units_Z 80
_cell_length_a 21.841500
_cell_length_b 12.338541
_cell_length_c 12.419844
_cell_angle_alpha 90.000000
_cell_angle_beta 90.000000
_cell_angle_gamma 90.000000
_cell_volume 3347.051620
_symmetry_space_group_name_H-M "F D D 2"
_symmetry_group_IT_number 43
_symmetry_cell_setting 'orthorhombic'
loop_
_space_group_symop_operation_xyz
x,y,z
-x,-y,z
1/4-x,1/4+y,1/4+z
1/4+x,1/4-y,1/4+z
x,1/2+y,1/2+z
-x,1/2-y,1/2+z
1/4-x,3/4+y,3/4+z
1/4+x,3/4-y,3/4+z
1/2+x,y,1/2+z
1/2-x,-y,1/2+z
3/4-x,1/4+y,3/4+z
3/4+x,1/4-y,3/4+z
1/2+x,1/2+y,z
1/2-x,1/2-y,z
3/4-x,3/4+y,1/4+z
3/4+x,3/4-y,1/4+z
loop_
_atom_site_type_symbol
_atom_site_label
_atom_site_fract_x
_atom_site_fract_y
_atom_site_fract_z
Si Si1 0.055755 0.085557 0.790280
Si Si2 0.533872 0.613394 0.563464
Si Si3 0.746293 0.599842 0.358042
Si Si4 0.230252 0.953564 0.082680
Si Si5 0.651743 0.751142 0.254125
O O1 0.079579 0.104562 0.667793
O O2 0.028793 0.197431 0.840611
O O3 0.098068 0.030259 0.878489
O O4 0.000000 0.000000 0.782657
O O5 0.500000 0.500000 0.563303
O O6 0.497428 0.721325 0.597256
O O7 0.542220 0.639708 0.438089
O O8 0.742608 0.619775 0.486024
O O9 0.687171 0.640460 0.289812
O O10 0.804337 0.662652 0.312562
O O11 0.166759 0.003968 0.042687
#
# Coordination Sequence:
#
# PCOD9370949 Si02
#       5
#    16  16  16  16  16
#     4  10  20  43  66  94 137 180 231 277 332 426
#     4  10  22  42  67  94 145 178 213 298 346 396
#     4  10  23  41  64 100 131 177 235 279 323 424
#     4  11  24  41  69 101 136 179 228 285 358 396
#     4  11  22  41  75  95 134 183 239 275 339 412
#
# _framework density 23.901633
#
# number of rings (size 3 to 8) (size 9 to 14) (size 15 to 20)
#    0.000    1.600    4.000    0.000    8.400    0.000 
#    0.000   16.000    0.000    0.000    0.000    0.000 
#    0.000    0.000    0.000    0.000    0.000    0.000 
#
# Total GULP energy -111536.444009 kJ/mol
# GULP energy per Si atom -5576.822200 kJ/mol
# Density = 2.384723 g / cm^3
# Si number density = 23.901633 Si / 1000 Ang^3
#
#
#
# Elastic Constant Matrix: (Units=GPa)
#
#
# Indices 1 2 3 4 5 6 
#
# 1 46.1405 7.3051 15.8390 0.0000 0.0000 0.0000
# 2 7.3051 124.8185 25.1080 0.0000 0.0000 0.0000
# 3 15.8390 25.1080 217.8651 0.0000 0.0000 0.0000
# 4 0.0000 0.0000 0.0000 148.8997 0.0000 0.0000
# 5 0.0000 0.0000 0.0000 0.0000 23.8712 0.0000
# 6 0.0000 0.0000 0.0000 0.0000 0.0000 6.7814
#
#
#
# Elastic Compliance Matrix: (Units=1/GPa)
#
#
# Indices 1 2 3 4 5 6 
#
# 1 0.022350 -0.001004 -0.001509 0.000000 0.000000 0.000000
# 2 -0.001004 0.008247 -0.000877 0.000000 0.000000 0.000000
# 3 -0.001509 -0.000877 0.004801 0.000000 0.000000 0.000000
# 4 0.000000 0.000000 0.000000 0.006716 0.000000 0.000000
# 5 0.000000 0.000000 0.000000 0.000000 0.041891 0.000000
# 6 0.000000 0.000000 0.000000 0.000000 0.000000 0.147462
#
#
# Mechanical properties :
#
#
# Convention : Reuss Voigt Hill
#
# Bulk Modulus (GPa) = 34.94573 53.92534 44.43554
# Shear Modulus (GPa) = 20.17855 58.61528 39.39691
#
# Velocity S-wave (km/s) = 2.90872 4.95750 4.06432
# Velocity P-wave (km/s) = 5.09247 7.44173 6.37623
#
# Compressibility (1/GPa) = 0.02861580
#
# Stress axis : x y z
#
# Youngs Moduli (GPa) = 44.74271 121.25747 208.29751
#
# Poissons Ratio (x) = 0.12180 0.31434
# Poissons Ratio (y) = 0.04494 0.18276
# Poissons Ratio (z) = 0.06752 0.10639
#
# Static dielectric constant tensor:
#      x y z
#    x 1.788750 0.000000 0.000000 
#    y 0.000000 1.931280 0.000000 
#    z 0.000000 0.000000 2.110110 
# 
# From -- ./inp_files/7436.got.cif
#   From: 2010.05.17/outbox.cif.g08.bks.cpg/sg43_4_cif.got.tgz:7436.got - 2010.06.03 19:21:55.
