data_PCOD9370354
_publ_section_title
;
Structure prediction by ZEFSAII (Michael W. Deem and Ramdas Pophale) SiO2 
 PCOD9370354
Probable space group: F D D 2
;
_chemical_formula_sum "Si O2"
_cell_formula_units_Z 120
_cell_length_a 28.873263
_cell_length_b 12.639101
_cell_length_c 15.470946
_cell_angle_alpha 90.000000
_cell_angle_beta 90.000000
_cell_angle_gamma 90.000000
_cell_volume 5645.844616
_symmetry_space_group_name_H-M "F D D 2"
_symmetry_group_IT_number 43
_symmetry_cell_setting 'orthorhombic'
loop_
_space_group_symop_operation_xyz
x,y,z
-x,-y,z
1/4-x,1/4+y,1/4+z
1/4+x,1/4-y,1/4+z
x,1/2+y,1/2+z
-x,1/2-y,1/2+z
1/4-x,3/4+y,3/4+z
1/4+x,3/4-y,3/4+z
1/2+x,y,1/2+z
1/2-x,-y,1/2+z
3/4-x,1/4+y,3/4+z
3/4+x,1/4-y,3/4+z
1/2+x,1/2+y,z
1/2-x,1/2-y,z
3/4-x,3/4+y,1/4+z
3/4+x,3/4-y,1/4+z
loop_
_atom_site_type_symbol
_atom_site_label
_atom_site_fract_x
_atom_site_fract_y
_atom_site_fract_z
Si Si1 0.500000 0.500000 0.988430
Si Si2 0.646638 0.937164 0.881916
Si Si3 0.603917 0.034402 0.445501
Si Si4 0.817633 0.708455 0.553274
Si Si5 0.124865 0.558905 0.644385
Si Si6 0.033208 0.271852 0.513879
Si Si7 0.896890 0.278663 0.324244
Si Si8 0.263353 0.414935 0.612374
O O1 0.547999 0.523023 0.938722
O O2 0.511982 0.387498 0.033225
O O3 0.629580 0.833074 0.831579
O O4 0.615530 0.039796 0.856097
O O5 0.697366 0.967177 0.849387
O O6 0.638852 0.918630 0.982153
O O7 0.618449 0.025462 0.545823
O O8 0.616902 0.144581 0.401765
O O9 0.626651 0.936320 0.396515
O O10 0.832745 0.730347 0.455230
O O11 0.784702 0.607875 0.563019
O O12 0.791129 0.806220 0.597710
O O13 0.172446 0.533227 0.697311
O O14 0.998435 0.197781 0.460107
O O15 0.951663 0.252826 0.328138
#
# Coordination Sequence:
#
# PCOD9370354 Si02
#       8
#     8  16  16  16  16  16  16  16
#     4  10  22  36  62  84 124 162 206 248 326 372
#     4  10  22  38  65  91 127 165 221 260 325 383
#     4  11  22  40  60  89 124 167 208 261 313 382
#     4   9  20  36  59  93 119 160 205 260 314 374
#     4  10  22  37  62  88 121 162 213 256 314 379
#     4  10  20  39  60  92 125 166 203 265 321 383
#     4  11  22  39  61  91 123 173 208 266 319 391
#     4  10  19  35  60  87 128 155 197 261 324 365
#
# _framework density 21.254569
#
# number of rings (size 3 to 8) (size 9 to 14) (size 15 to 20)
#    0.000    1.867    1.333    2.400    0.000   10.667 
#    0.000    0.000    0.000    1.600    0.000    0.000 
#    0.000    0.000    0.000    0.000    0.000    0.000 
#
# Total GULP energy -167267.594932 kJ/mol
# GULP energy per Si atom -5575.586498 kJ/mol
# Density = 2.120619 g / cm^3
# Si number density = 21.254569 Si / 1000 Ang^3
#
#
#
# Elastic Constant Matrix: (Units=GPa)
#
#
# Indices 1 2 3 4 5 6 
#
# 1 48.9366 21.5402 10.2657 0.0000 0.0000 0.0000
# 2 21.5402 90.6315 19.9146 0.0000 0.0000 0.0000
# 3 10.2657 19.9146 82.8389 0.0000 0.0000 0.0000
# 4 0.0000 0.0000 0.0000 22.7226 0.0000 0.0000
# 5 0.0000 0.0000 0.0000 0.0000 23.8066 0.0000
# 6 0.0000 0.0000 0.0000 0.0000 0.0000 29.6821
#
#
#
# Elastic Compliance Matrix: (Units=1/GPa)
#
#
# Indices 1 2 3 4 5 6 
#
# 1 0.023027 -0.005116 -0.001624 0.000000 0.000000 0.000000
# 2 -0.005116 0.012786 -0.002440 0.000000 0.000000 0.000000
# 3 -0.001624 -0.002440 0.012859 0.000000 0.000000 0.000000
# 4 0.000000 0.000000 0.000000 0.044009 0.000000 0.000000
# 5 0.000000 0.000000 0.000000 0.000000 0.042005 0.000000
# 6 0.000000 0.000000 0.000000 0.000000 0.000000 0.033690
#
#
# Mechanical properties :
#
#
# Convention : Reuss Voigt Hill
#
# Bulk Modulus (GPa) = 32.98883 36.20533 34.59708
# Shear Modulus (GPa) = 25.40136 26.62138 26.01137
#
# Velocity S-wave (km/s) = 3.46077 3.54291 3.50208
# Velocity P-wave (km/s) = 5.61461 5.81441 5.71538
#
# Compressibility (1/GPa) = 0.03031329
#
# Stress axis : x y z
#
# Youngs Moduli (GPa) = 43.42707 78.21253 77.76447
#
# Poissons Ratio (x) = 0.40014 0.12627
# Poissons Ratio (y) = 0.22217 0.18972
# Poissons Ratio (z) = 0.07051 0.19081
#
# Static dielectric constant tensor:
#      x y z
#    x 1.854380 0.000000 0.000000 
#    y 0.000000 1.774100 0.000000 
#    z 0.000000 0.000000 1.747090 
# 
# From -- ./inp_files/11747.got.cif
#   From: 2010.05.17/outbox.cif.g08.bks.cpg/sg43_6_cif.got.tgz:11747.got - 2010.06.03 19:21:55.
