data_PCOD9370223
_publ_section_title
;
Structure prediction by ZEFSAII (Michael W. Deem and Ramdas Pophale) SiO2 
 PCOD9370223
Probable space group: F D D 2
;
_chemical_formula_sum "Si O2"
_cell_formula_units_Z 88
_cell_length_a 17.259899
_cell_length_b 8.117465
_cell_length_c 21.539350
_cell_angle_alpha 90.000000
_cell_angle_beta 90.000000
_cell_angle_gamma 90.000000
_cell_volume 3017.805656
_symmetry_space_group_name_H-M "F D D 2"
_symmetry_group_IT_number 43
_symmetry_cell_setting 'orthorhombic'
loop_
_space_group_symop_operation_xyz
x,y,z
-x,-y,z
1/4-x,1/4+y,1/4+z
1/4+x,1/4-y,1/4+z
x,1/2+y,1/2+z
-x,1/2-y,1/2+z
1/4-x,3/4+y,3/4+z
1/4+x,3/4-y,3/4+z
1/2+x,y,1/2+z
1/2-x,-y,1/2+z
3/4-x,1/4+y,3/4+z
3/4+x,1/4-y,3/4+z
1/2+x,1/2+y,z
1/2-x,1/2-y,z
3/4-x,3/4+y,1/4+z
3/4+x,3/4-y,1/4+z
loop_
_atom_site_type_symbol
_atom_site_label
_atom_site_fract_x
_atom_site_fract_y
_atom_site_fract_z
Si Si1 0.605536 0.607494 0.411140
Si Si2 0.840765 0.780776 0.533208
Si Si3 0.250000 0.750000 0.581854
Si Si4 0.971555 0.316478 0.467189
Si Si5 0.070443 0.685640 0.605536
Si Si6 0.435164 0.699425 0.728674
O O1 0.605486 0.472988 0.356436
O O2 0.629114 0.587007 0.483471
O O3 0.520282 0.692087 0.424436
O O4 0.658552 0.751896 0.379788
O O5 0.750000 0.750000 0.524396
O O6 0.866658 0.604445 0.502286
O O7 0.157596 0.763074 0.600977
O O8 0.261282 0.904037 0.535353
O O9 0.977015 0.297210 0.542064
O O10 0.878615 0.310988 0.463515
O O11 0.000000 0.500000 0.446309
O O12 0.026011 0.764332 0.663485
#
# Coordination Sequence:
#
# PCOD9370223 Si02
#       6
#    16  16   8  16  16  16
#     4  11  21  41  63  99 129 170 228 281 335 400
#     4  11  24  41  67  96 136 177 230 280 345 407
#     4  10  18  36  60  88 126 156 214 270 328 394
#     4  11  18  34  65  91 116 164 221 277 322 393
#     4  10  19  33  60  87 123 164 215 267 327 393
#     4  10  21  35  60  95 120 173 215 279 331 399
#
# _framework density 29.160259
#
# number of rings (size 3 to 8) (size 9 to 14) (size 15 to 20)
#    0.000    1.455    7.273    1.091    0.000    5.818 
#    0.000    7.273    2.000    0.000    0.000    0.000 
#    0.000    0.000    0.000    0.000    0.000    0.000 
#
# Total GULP energy -122788.897527 kJ/mol
# GULP energy per Si atom -5581.313524 kJ/mol
# Density = 2.909389 g / cm^3
# Si number density = 29.160259 Si / 1000 Ang^3
#
#
#
# Elastic Constant Matrix: (Units=GPa)
#
#
# Indices 1 2 3 4 5 6 
#
# 1 123.5101 11.6910 23.5739 0.0000 0.0000 0.0000
# 2 11.6910 45.2951 10.0401 0.0000 0.0000 0.0000
# 3 23.5739 10.0401 139.6898 0.0000 0.0000 0.0000
# 4 0.0000 0.0000 0.0000 50.2182 0.0000 0.0000
# 5 0.0000 0.0000 0.0000 0.0000 78.7621 0.0000
# 6 0.0000 0.0000 0.0000 0.0000 0.0000 36.2605
#
#
#
# Elastic Compliance Matrix: (Units=1/GPa)
#
#
# Indices 1 2 3 4 5 6 
#
# 1 0.008526 -0.001912 -0.001301 0.000000 0.000000 0.000000
# 2 -0.001912 0.022864 -0.001321 0.000000 0.000000 0.000000
# 3 -0.001301 -0.001321 0.007473 0.000000 0.000000 0.000000
# 4 0.000000 0.000000 0.000000 0.019913 0.000000 0.000000
# 5 0.000000 0.000000 0.000000 0.000000 0.012696 0.000000
# 6 0.000000 0.000000 0.000000 0.000000 0.000000 0.027578
#
#
# Mechanical properties :
#
#
# Convention : Reuss Voigt Hill
#
# Bulk Modulus (GPa) = 33.56314 44.34500 38.95407
# Shear Modulus (GPa) = 42.35476 50.59416 46.47446
#
# Velocity S-wave (km/s) = 3.81528 4.16990 3.99652
# Velocity P-wave (km/s) = 5.56268 6.19874 5.88930
#
# Compressibility (1/GPa) = 0.02979459
#
# Stress axis : x y z
#
# Youngs Moduli (GPa) = 117.28984 43.73742 133.81044
#
# Poissons Ratio (x) = 0.08363 0.17414
# Poissons Ratio (y) = 0.22427 0.17671
# Poissons Ratio (z) = 0.15264 0.05776
#
# Static dielectric constant tensor:
#      x y z
#    x 2.373150 0.000000 0.000000 
#    y 0.000000 2.456370 0.000000 
#    z 0.000000 0.000000 2.500020 
# 
# From -- ./inp_files/17063.got.cif
#   From: 2010.05.17/outbox.cif.g08.bks.cpg/sg43_9_cif.got.tgz:17063.got - 2010.06.03 19:21:55.
