data_PCOD9370713
_publ_section_title
;
Structure prediction by ZEFSAII (Michael W. Deem and Ramdas Pophale) SiO2 
 PCOD9370713
Probable space group: F D D 2
;
_chemical_formula_sum "Si O2"
_cell_formula_units_Z 120
_cell_length_a 10.252110
_cell_length_b 18.939085
_cell_length_c 27.369535
_cell_angle_alpha 90.000000
_cell_angle_beta 90.000000
_cell_angle_gamma 90.000000
_cell_volume 5314.221712
_symmetry_space_group_name_H-M "F D D 2"
_symmetry_group_IT_number 43
_symmetry_cell_setting 'orthorhombic'
loop_
_space_group_symop_operation_xyz
x,y,z
-x,-y,z
1/4-x,1/4+y,1/4+z
1/4+x,1/4-y,1/4+z
x,1/2+y,1/2+z
-x,1/2-y,1/2+z
1/4-x,3/4+y,3/4+z
1/4+x,3/4-y,3/4+z
1/2+x,y,1/2+z
1/2-x,-y,1/2+z
3/4-x,1/4+y,3/4+z
3/4+x,1/4-y,3/4+z
1/2+x,1/2+y,z
1/2-x,1/2-y,z
3/4-x,3/4+y,1/4+z
3/4+x,3/4-y,1/4+z
loop_
_atom_site_type_symbol
_atom_site_label
_atom_site_fract_x
_atom_site_fract_y
_atom_site_fract_z
Si Si1 0.827876 0.350308 0.723950
Si Si2 0.450060 0.813991 0.827187
Si Si3 0.527995 0.238507 0.002087
Si Si4 0.750000 0.750000 0.966247
Si Si5 0.802130 0.330128 0.926248
Si Si6 0.284126 0.907242 0.447008
Si Si7 0.691874 0.417583 0.343423
Si Si8 0.372140 0.303333 0.794198
O O1 0.807777 0.433587 0.733826
O O2 0.686453 0.323728 0.706004
O O3 0.877927 0.318672 0.775048
O O4 0.950338 0.357108 0.687019
O O5 0.355688 0.830046 0.871845
O O6 0.565289 0.870015 0.834890
O O7 0.523515 0.738444 0.827936
O O8 0.373868 0.234210 0.998818
O O9 0.587476 0.175302 0.968799
O O10 0.575244 0.232257 0.056958
O O11 0.723319 0.677857 0.937354
O O12 0.750000 0.250000 0.931125
O O13 0.221898 0.938885 0.398395
O O14 0.199363 0.926306 0.494745
O O15 0.811054 0.370017 0.322157
O O16 0.250000 0.250000 0.784110
#
# Coordination Sequence:
#
# PCOD9370713 Si02
#       8
#    16  16  16   8  16  16  16  16
#     4  10  24  42  65  98 130 175 224 280 327 413
#     4  11  24  40  68  93 130 179 218 271 341 405
#     4  10  20  42  63  94 129 164 225 277 323 392
#     4  10  20  38  68  90 124 170 216 276 324 386
#     4  10  22  40  65  91 126 171 223 276 322 396
#     4  11  24  41  68  96 135 172 220 280 342 393
#     4  11  23  41  67  98 127 172 224 277 335 400
#     4  10  25  44  65  99 135 171 223 277 332 408
#
# _framework density 22.580918
#
# number of rings (size 3 to 8) (size 9 to 14) (size 15 to 20)
#    0.000    1.600    2.667    0.800   10.267    0.000 
#    4.800    0.000    0.000    0.000    0.000    0.000 
#    0.000    0.000    0.000    0.000    0.000    0.000 
#
# Total GULP energy -167543.067472 kJ/mol
# GULP energy per Si atom -5584.768916 kJ/mol
# Density = 2.252952 g / cm^3
# Si number density = 22.580918 Si / 1000 Ang^3
#
#
#
# Elastic Constant Matrix: (Units=GPa)
#
#
# Indices 1 2 3 4 5 6 
#
# 1 87.5999 -3.5837 19.8278 0.0000 0.0000 0.0000
# 2 -3.5837 16.7550 -10.1316 0.0000 0.0000 0.0000
# 3 19.8278 -10.1316 92.0749 0.0000 0.0000 0.0000
# 4 0.0000 0.0000 0.0000 12.5283 0.0000 0.0000
# 5 0.0000 0.0000 0.0000 0.0000 37.0699 0.0000
# 6 0.0000 0.0000 0.0000 0.0000 0.0000 12.9636
#
#
#
# Elastic Compliance Matrix: (Units=1/GPa)
#
#
# Indices 1 2 3 4 5 6 
#
# 1 0.012019 0.001077 -0.002470 0.000000 0.000000 0.000000
# 2 0.001077 0.064035 0.006814 0.000000 0.000000 0.000000
# 3 -0.002470 0.006814 0.012142 0.000000 0.000000 0.000000
# 4 0.000000 0.000000 0.000000 0.079819 0.000000 0.000000
# 5 0.000000 0.000000 0.000000 0.000000 0.026976 0.000000
# 6 0.000000 0.000000 0.000000 0.000000 0.000000 0.077139
#
#
# Mechanical properties :
#
#
# Convention : Reuss Voigt Hill
#
# Bulk Modulus (GPa) = 10.09701 23.18386 16.64044
# Shear Modulus (GPa) = 16.98951 25.20017 21.09484
#
# Velocity S-wave (km/s) = 2.74594 3.34427 3.05977
# Velocity P-wave (km/s) = 3.81245 5.02011 4.45737
#
# Compressibility (1/GPa) = 0.09903924
#
# Stress axis : x y z
#
# Youngs Moduli (GPa) = 83.20448 15.61656 82.35646
#
# Poissons Ratio (x) = -0.01682 0.20339
# Poissons Ratio (y) = -0.08964 -0.56119
# Poissons Ratio (z) = 0.20548 -0.10641
#
# Static dielectric constant tensor:
#      x y z
#    x 1.894480 0.000000 0.000000 
#    y 0.000000 1.914040 0.000000 
#    z 0.000000 0.000000 1.905920 
# 
# From -- ./inp_files/21257.got.cif
#   From: 2010.05.17/outbox.cif.g08.bks.cpg/sg43_11_cif.got.tgz:21257.got - 2010.06.03 19:21:55.
