data_PCOD9370536
_publ_section_title
;
Structure prediction by ZEFSAII (Michael W. Deem and Ramdas Pophale) SiO2 
 PCOD9370536
Probable space group: F D D 2
;
_chemical_formula_sum "Si O2"
_cell_formula_units_Z 96
_cell_length_a 18.912117
_cell_length_b 25.388318
_cell_length_c 7.719573
_cell_angle_alpha 90.000000
_cell_angle_beta 90.000000
_cell_angle_gamma 90.000000
_cell_volume 3706.528586
_symmetry_space_group_name_H-M "F D D 2"
_symmetry_group_IT_number 43
_symmetry_cell_setting 'orthorhombic'
loop_
_space_group_symop_operation_xyz
x,y,z
-x,-y,z
1/4-x,1/4+y,1/4+z
1/4+x,1/4-y,1/4+z
x,1/2+y,1/2+z
-x,1/2-y,1/2+z
1/4-x,3/4+y,3/4+z
1/4+x,3/4-y,3/4+z
1/2+x,y,1/2+z
1/2-x,-y,1/2+z
3/4-x,1/4+y,3/4+z
3/4+x,1/4-y,3/4+z
1/2+x,1/2+y,z
1/2-x,1/2-y,z
3/4-x,3/4+y,1/4+z
3/4+x,3/4-y,1/4+z
loop_
_atom_site_type_symbol
_atom_site_label
_atom_site_fract_x
_atom_site_fract_y
_atom_site_fract_z
Si Si1 0.271158 0.529088 0.841960
Si Si2 0.137819 0.068376 0.917072
Si Si3 0.492317 0.620376 0.896534
Si Si4 0.959061 0.359423 0.892759
Si Si5 0.641776 0.778125 0.543666
Si Si6 0.575327 0.415493 0.275612
O O1 0.272751 0.571103 0.686358
O O2 0.187016 0.522682 0.870414
O O3 0.312700 0.474622 0.819210
O O4 0.300200 0.564171 0.000177
O O5 0.181144 0.117189 0.007119
O O6 0.117043 0.034042 0.088086
O O7 0.060141 0.085101 0.847479
O O8 0.456400 0.598981 0.080838
O O9 0.926773 0.416738 0.845920
O O10 0.908907 0.341385 0.041959
O O11 0.040393 0.373223 0.901044
O O12 0.684905 0.725374 0.575799
#
# Coordination Sequence:
#
# PCOD9370536 Si02
#       6
#    16  16  16  16  16  16
#     4  10  20  34  52  84 112 152 183 239 296 336
#     4  11  20  35  58  80 119 145 187 243 289 346
#     4  10  20  37  56  91 111 145 200 237 285 353
#     4  11  18  32  51  83 113 133 190 234 283 334
#     4  11  20  32  53  82 113 146 188 237 293 339
#     4  11  19  32  53  83 110 142 184 243 282 337
#
# _framework density 25.900245999999999
#
# number of rings (size 3 to 8) (size 9 to 14) (size 15 to 20)
#    0.000    1.333   10.000    0.500    0.000    0.000 
#    0.000    1.667    0.000    0.000    0.000    0.000 
#    0.000    0.000    0.000    0.000    0.000    0.000 
#
# Total GULP energy -134003.776073 kJ/mol
# GULP energy per Si atom -5583.490670 kJ/mol
# Density = 2.584130 g / cm^3
# Si number density = 25.900246 Si / 1000 Ang^3
#
#
#
# Elastic Constant Matrix: (Units=GPa)
#
#
# Indices 1 2 3 4 5 6 
#
# 1 127.9051 50.9135 0.6712 0.0000 -0.0001 -0.0003
# 2 50.9135 190.1528 19.1168 0.0000 0.0000 -0.0002
# 3 0.6712 19.1168 58.5523 -0.0005 0.0005 -0.0006
# 4 0.0000 0.0000 -0.0005 25.2185 0.0002 -0.0001
# 5 -0.0001 0.0000 0.0005 0.0002 16.4324 0.0003
# 6 -0.0003 -0.0002 -0.0006 -0.0001 0.0003 61.6226
#
#
#
# Elastic Compliance Matrix: (Units=1/GPa)
#
#
# Indices 1 2 3 4 5 6 
#
# 1 0.008778 -0.002420 0.000689 0.000000 0.000000 0.000000
# 2 -0.002420 0.006104 -0.001965 0.000000 0.000000 0.000000
# 3 0.000689 -0.001965 0.017712 0.000000 -0.000001 0.000000
# 4 0.000000 0.000000 0.000000 0.039653 0.000000 0.000000
# 5 0.000000 0.000000 -0.000001 0.000000 0.060855 0.000000
# 6 0.000000 0.000000 0.000000 0.000000 0.000000 0.016228
#
#
# Mechanical properties :
#
#
# Convention : Reuss Voigt Hill
#
# Bulk Modulus (GPa) = 39.67680 57.55702 48.61691
# Shear Modulus (GPa) = 30.28040 41.04862 35.66451
#
# Velocity S-wave (km/s) = 3.42294 3.98537 3.71481
# Velocity P-wave (km/s) = 5.56546 6.59154 6.10011
#
# Compressibility (1/GPa) = 0.02520364
#
# Stress axis : x y z
#
# Youngs Moduli (GPa) = 113.92377 163.81777 56.45732
#
# Poissons Ratio (x) = 0.39637 -0.03892
# Poissons Ratio (y) = 0.27565 0.11095
# Poissons Ratio (z) = -0.07853 0.32195
#
# Static dielectric constant tensor:
#      x y z
#    x 2.234440 0.000000 0.000000 
#    y 0.000000 2.004240 0.000000 
#    z 0.000000 0.000000 2.088570 
# 
# From -- ./inp_files/6692.got.cif
#   From: 2010.05.17/outbox.cif.g08.bks.cpg/sg43_4_cif.got.tgz:6692.got - 2010.06.03 19:21:55.
