data_PCOD9370750
_publ_section_title
;
Structure prediction by ZEFSAII (Michael W. Deem and Ramdas Pophale) SiO2 
 PCOD9370750
Probable space group: F D D 2
;
_chemical_formula_sum "Si O2"
_cell_formula_units_Z 64
_cell_length_a 5.219506
_cell_length_b 18.513549
_cell_length_c 26.634478
_cell_angle_alpha 90.000000
_cell_angle_beta 90.000000
_cell_angle_gamma 90.000000
_cell_volume 2573.731694
_symmetry_space_group_name_H-M "F D D 2"
_symmetry_group_IT_number 43
_symmetry_cell_setting 'orthorhombic'
loop_
_space_group_symop_operation_xyz
x,y,z
-x,-y,z
1/4-x,1/4+y,1/4+z
1/4+x,1/4-y,1/4+z
x,1/2+y,1/2+z
-x,1/2-y,1/2+z
1/4-x,3/4+y,3/4+z
1/4+x,3/4-y,3/4+z
1/2+x,y,1/2+z
1/2-x,-y,1/2+z
3/4-x,1/4+y,3/4+z
3/4+x,1/4-y,3/4+z
1/2+x,1/2+y,z
1/2-x,1/2-y,z
3/4-x,3/4+y,1/4+z
3/4+x,3/4-y,1/4+z
loop_
_atom_site_type_symbol
_atom_site_label
_atom_site_fract_x
_atom_site_fract_y
_atom_site_fract_z
Si Si1 0.756510 0.479444 0.570880
Si Si2 0.657001 0.071988 0.309304
Si Si3 0.814670 0.928354 0.926164
Si Si4 0.219506 0.102915 0.483876
O O1 0.500000 0.500000 0.598958
O O2 0.755600 0.396623 0.554817
O O3 0.758997 0.534908 0.523131
O O4 0.000000 0.500000 0.602557
O O5 0.740866 0.075137 0.367235
O O6 0.885632 0.083098 0.270710
O O7 0.500000 0.000000 0.300724
O O8 0.536077 0.918377 0.951740
O O9 0.030221 0.877179 0.951414
O O10 0.000000 0.000000 0.930690
#
# Coordination Sequence:
#
# PCOD9370750 Si02
#       4
#    16  16  16  16
#     4  10  20  39  66  87 118 166 208 245 305 380
#     4  10  23  41  65  98 130 161 211 274 320 363
#     4  11  22  38  64  93 122 167 215 252 310 390
#     4  11  22  42  66  88 124 172 213 251 311 391
#
# _framework density 24.866616
#
# number of rings (size 3 to 8) (size 9 to 14) (size 15 to 20)
#    0.000    1.500    0.000    9.000    0.000    6.000 
#    0.000   25.000    0.000    0.000    0.000    0.000 
#    0.000    0.000    0.000    0.000    0.000    0.000 
#
# Total GULP energy -89287.624996 kJ/mol
# GULP energy per Si atom -5580.476562 kJ/mol
# Density = 2.481002 g / cm^3
# Si number density = 24.866616 Si / 1000 Ang^3
#
#
#
# Elastic Constant Matrix: (Units=GPa)
#
#
# Indices 1 2 3 4 5 6 
#
# 1 187.4151 30.0353 31.4541 0.0000 0.0000 0.0000
# 2 30.0353 134.5068 8.9289 0.0000 0.0000 0.0000
# 3 31.4541 8.9289 112.0146 0.0000 0.0000 0.0000
# 4 0.0000 0.0000 0.0000 14.5521 0.0000 0.0000
# 5 0.0000 0.0000 0.0000 0.0000 -66.0550 0.0000
# 6 0.0000 0.0000 0.0000 0.0000 0.0000 26.6665
#
#
#
# Elastic Compliance Matrix: (Units=1/GPa)
#
#
# Indices 1 2 3 4 5 6 
#
# 1 0.005783 -0.001190 -0.001529 0.000000 0.000000 0.000000
# 2 -0.001190 0.007719 -0.000281 0.000000 0.000000 0.000000
# 3 -0.001529 -0.000281 0.009379 0.000000 0.000000 0.000000
# 4 0.000000 0.000000 0.000000 0.068719 0.000000 0.000000
# 5 0.000000 0.000000 0.000000 0.000000 -0.015139 0.000000
# 6 0.000000 0.000000 0.000000 0.000000 0.000000 0.037500
#
#
# Mechanical properties :
#
#
# Convention : Reuss Voigt Hill
#
# Bulk Modulus (GPa) = 59.23820 63.86368 61.55094
# Shear Modulus (GPa) = 39.81264 19.26727 29.53995
#
# Velocity S-wave (km/s) = 4.00565 2.78659 3.45038
# Velocity P-wave (km/s) = 6.72813 6.00763 6.37806
#
# Compressibility (1/GPa) = 0.01688100
#
# Stress axis : x y z
#
# Youngs Moduli (GPa) = 172.91891 129.55172 106.61904
#
# Poissons Ratio (x) = 0.15415 0.16303
# Poissons Ratio (y) = 0.20575 0.02998
# Poissons Ratio (z) = 0.26440 0.03643
#
# Static dielectric constant tensor:
#      x y z
#    x 2.172000 0.000000 0.000000 
#    y 0.000000 2.094660 0.000000 
#    z 0.000000 0.000000 1.992030 
# 
# From -- ./inp_files/27093.got.cif
#   From: 2010.05.17/outbox.cif.g08.bks.cpg/sg43_14_cif.got.tgz:27093.got - 2010.06.03 19:21:55.
