data_PCOD9370321
_publ_section_title
;
Structure prediction by ZEFSAII (Michael W. Deem and Ramdas Pophale) SiO2 
 PCOD9370321
Probable space group: F D D 2
;
_chemical_formula_sum "Si O2"
_cell_formula_units_Z 112
_cell_length_a 34.331834
_cell_length_b 11.754839
_cell_length_c 11.016541
_cell_angle_alpha 90.000000
_cell_angle_beta 90.000000
_cell_angle_gamma 90.000000
_cell_volume 4445.892365
_symmetry_space_group_name_H-M "F D D 2"
_symmetry_group_IT_number 43
_symmetry_cell_setting 'orthorhombic'
loop_
_space_group_symop_operation_xyz
x,y,z
-x,-y,z
1/4-x,1/4+y,1/4+z
1/4+x,1/4-y,1/4+z
x,1/2+y,1/2+z
-x,1/2-y,1/2+z
1/4-x,3/4+y,3/4+z
1/4+x,3/4-y,3/4+z
1/2+x,y,1/2+z
1/2-x,-y,1/2+z
3/4-x,1/4+y,3/4+z
3/4+x,1/4-y,3/4+z
1/2+x,1/2+y,z
1/2-x,1/2-y,z
3/4-x,3/4+y,1/4+z
3/4+x,3/4-y,1/4+z
loop_
_atom_site_type_symbol
_atom_site_label
_atom_site_fract_x
_atom_site_fract_y
_atom_site_fract_z
Si Si1 0.750000 0.250000 0.099160
Si Si2 0.319019 0.613610 0.118920
Si Si3 0.139141 0.472369 0.842873
Si Si4 0.319847 0.111015 0.218800
Si Si5 0.781763 0.907617 0.998301
Si Si6 0.750000 0.250000 0.714897
Si Si7 0.148717 0.246951 0.990714
Si Si8 0.458213 0.713483 0.258763
O O1 0.718457 0.321838 0.172591
O O2 0.772929 0.340855 0.018290
O O3 0.349469 0.709693 0.082675
O O4 0.340124 0.534921 0.215131
O O5 0.303139 0.527511 0.018839
O O6 0.136221 0.344421 0.895917
O O7 0.168846 0.535050 0.933460
O O8 0.285281 0.183360 0.279969
O O9 0.360109 0.072174 0.278485
O O10 0.335126 0.188635 0.107561
O O11 0.300297 0.005260 0.146782
O O12 0.769853 0.843084 0.123946
O O13 0.815084 0.827910 0.940102
O O14 0.739179 0.946088 0.950702
#
# Coordination Sequence:
#
# PCOD9370321 Si02
#       8
#     8  16  16  16  16   8  16  16
#     4  10  20  38  60  82 112 156 196 238 296 360
#     4  11  23  37  58  87 122 158 195 245 306 363
#     4  11  22  38  59  87 118 154 196 244 294 359
#     4   9  17  31  53  81 105 136 181 229 273 326
#     4   9  20  37  58  83 114 152 191 241 298 348
#     4   8  16  34  54  72 104 144 178 214 272 334
#     4  10  19  33  57  81 106 144 190 235 278 331
#     4   9  19  37  58  79 113 153 192 237 293 349
#
# _framework density 25.191794999999999
#
# number of rings (size 3 to 8) (size 9 to 14) (size 15 to 20)
#    0.000    2.286    0.000    4.286    0.000    3.429 
#    0.000    3.571    0.000    0.000    0.000    0.000 
#    0.000    0.000    0.000    0.000    0.000    0.000 
#
# Total GULP energy -156538.420383 kJ/mol
# GULP energy per Si atom -5590.657871 kJ/mol
# Density = 2.513446 g / cm^3
# Si number density = 25.191795 Si / 1000 Ang^3
#
#
#
# Elastic Constant Matrix: (Units=GPa)
#
#
# Indices 1 2 3 4 5 6 
#
# 1 163.3583 66.8814 12.7521 0.0000 0.0000 0.0000
# 2 66.8814 105.2420 6.8019 0.0000 0.0000 0.0000
# 3 12.7521 6.8019 21.3110 0.0000 0.0000 0.0000
# 4 0.0000 0.0000 0.0000 11.7085 0.0000 0.0000
# 5 0.0000 0.0000 0.0000 0.0000 -61.2805 0.0000
# 6 0.0000 0.0000 0.0000 0.0000 0.0000 67.2905
#
#
#
# Elastic Compliance Matrix: (Units=1/GPa)
#
#
# Indices 1 2 3 4 5 6 
#
# 1 0.008514 -0.005189 -0.003439 0.000000 0.000000 0.000000
# 2 -0.005189 0.012864 -0.001001 0.000000 0.000000 0.000000
# 3 -0.003439 -0.001001 0.049301 0.000000 0.000000 0.000000
# 4 0.000000 0.000000 0.000000 0.085408 0.000000 0.000000
# 5 0.000000 0.000000 0.000000 0.000000 -0.016318 0.000000
# 6 0.000000 0.000000 0.000000 0.000000 0.000000 0.014861
#
#
# Mechanical properties :
#
#
# Convention : Reuss Voigt Hill
#
# Bulk Modulus (GPa) = 19.44661 51.42023 35.43342
# Shear Modulus (GPa) = 26.17422 17.10876 21.64149
#
# Velocity S-wave (km/s) = 3.22685 2.60886 2.93417
# Velocity P-wave (km/s) = 4.64968 5.43421 5.05718
#
# Compressibility (1/GPa) = 0.05142284
#
# Stress axis : x y z
#
# Youngs Moduli (GPa) = 117.45061 77.73669 20.28339
#
# Poissons Ratio (x) = 0.40334 0.06975
# Poissons Ratio (y) = 0.60940 0.02031
# Poissons Ratio (z) = 0.40388 0.07782
#
# Static dielectric constant tensor:
#      x y z
#    x 2.009390 0.000000 0.000000 
#    y 0.000000 2.016860 0.000000 
#    z 0.000000 0.000000 2.023260 
# 
# From -- ./inp_files/9810.got.cif
#   From: 2010.05.17/outbox.cif.g08.bks.cpg/sg43_5_cif.got.tgz:9810.got - 2010.06.03 19:21:55.
