data_PCOD9370453
_publ_section_title
;
Structure prediction by ZEFSAII (Michael W. Deem and Ramdas Pophale) SiO2 
 PCOD9370453
Probable space group: F D D 2
;
_chemical_formula_sum "Si O2"
_cell_formula_units_Z 80
_cell_length_a 17.427132
_cell_length_b 7.270095
_cell_length_c 26.968317
_cell_angle_alpha 90.000000
_cell_angle_beta 90.000000
_cell_angle_gamma 90.000000
_cell_volume 3416.802303
_symmetry_space_group_name_H-M "F D D 2"
_symmetry_group_IT_number 43
_symmetry_cell_setting 'orthorhombic'
loop_
_space_group_symop_operation_xyz
x,y,z
-x,-y,z
1/4-x,1/4+y,1/4+z
1/4+x,1/4-y,1/4+z
x,1/2+y,1/2+z
-x,1/2-y,1/2+z
1/4-x,3/4+y,3/4+z
1/4+x,3/4-y,3/4+z
1/2+x,y,1/2+z
1/2-x,-y,1/2+z
3/4-x,1/4+y,3/4+z
3/4+x,1/4-y,3/4+z
1/2+x,1/2+y,z
1/2-x,1/2-y,z
3/4-x,3/4+y,1/4+z
3/4+x,3/4-y,1/4+z
loop_
_atom_site_type_symbol
_atom_site_label
_atom_site_fract_x
_atom_site_fract_y
_atom_site_fract_z
Si Si1 0.575015 0.373350 0.617670
Si Si2 0.882780 0.550411 0.013433
Si Si3 0.565951 0.362646 0.997690
Si Si4 0.775646 0.541137 0.469150
Si Si5 0.221418 0.562821 0.166970
O O1 0.500000 0.500000 0.612833
O O2 0.597601 0.330402 0.561417
O O3 0.545124 0.243138 0.661566
O O4 0.654259 0.465106 0.637047
O O5 0.910543 0.335603 0.021668
O O6 0.795291 0.562968 0.994354
O O7 0.931323 0.617792 0.967120
O O8 0.500000 0.500000 0.017238
O O9 0.643814 0.478723 0.996395
O O10 0.539730 0.309609 0.940643
O O11 0.750000 0.750000 0.473534
O O12 0.250000 0.750000 0.140590
#
# Coordination Sequence:
#
# PCOD9370453 Si02
#       5
#    16  16  16  16  16
#     4  12  22  41  71  98 135 192 240 284 368 428
#     4  10  23  42  65  95 135 186 233 288 354 429
#     4  10  19  38  68  95 130 179 225 291 356 409
#     4  10  22  42  69  97 141 177 232 303 357 429
#     4  10  21  39  63  93 137 178 226 291 342 422
#
# _framework density 23.413703999999999
#
# number of rings (size 3 to 8) (size 9 to 14) (size 15 to 20)
#    0.000    1.600    4.000    1.800    0.000    2.400 
#    0.000    8.000    0.000    0.000    0.000    0.000 
#    0.000    0.000    0.000    0.000    0.000    0.000 
#
# Total GULP energy -111567.594949 kJ/mol
# GULP energy per Si atom -5578.379747 kJ/mol
# Density = 2.336041 g / cm^3
# Si number density = 23.413704 Si / 1000 Ang^3
#
#
#
# Elastic Constant Matrix: (Units=GPa)
#
#
# Indices 1 2 3 4 5 6 
#
# 1 189.8419 33.5946 25.9089 0.0000 0.0000 0.0000
# 2 33.5946 58.2676 16.8085 0.0000 0.0000 0.0000
# 3 25.9089 16.8085 52.8254 0.0000 0.0000 0.0000
# 4 0.0000 0.0000 0.0000 16.2223 0.0000 0.0000
# 5 0.0000 0.0000 0.0000 0.0000 -4.6376 0.0000
# 6 0.0000 0.0000 0.0000 0.0000 0.0000 30.0604
#
#
#
# Elastic Compliance Matrix: (Units=1/GPa)
#
#
# Indices 1 2 3 4 5 6 
#
# 1 0.006061 -0.002903 -0.002049 0.000000 0.000000 0.000000
# 2 -0.002903 0.020288 -0.005031 0.000000 0.000000 0.000000
# 3 -0.002049 -0.005031 0.021536 0.000000 0.000000 0.000000
# 4 0.000000 0.000000 0.000000 0.061643 0.000000 0.000000
# 5 0.000000 0.000000 0.000000 0.000000 -0.215628 0.000000
# 6 0.000000 0.000000 0.000000 0.000000 0.000000 0.033266
#
#
# Mechanical properties :
#
#
# Convention : Reuss Voigt Hill
#
# Bulk Modulus (GPa) = 35.81984 50.39543 43.10763
# Shear Modulus (GPa) = -114.78084 23.30390 -45.73847
#
# Velocity S-wave (km/s) = -7.00923 3.15828 -4.42463
# Velocity P-wave (km/s) = 7.08336 5.90510 2.76620
#
# Compressibility (1/GPa) = 0.02791749
#
# Stress axis : x y z
#
# Youngs Moduli (GPa) = 164.99055 49.29127 46.43382
#
# Poissons Ratio (x) = 0.14312 0.09513
# Poissons Ratio (y) = 0.47904 0.23362
# Poissons Ratio (z) = 0.33804 0.24800
#
# Static dielectric constant tensor:
#      x y z
#    x 1.958450 0.000000 0.000000 
#    y 0.000000 2.009750 0.000000 
#    z 0.000000 0.000000 1.875920 
# 
# From -- ./inp_files/24091.got.cif
#   From: 2010.05.17/outbox.cif.g08.bks.cpg/sg43_13_cif.got.tgz:24091.got - 2010.06.03 19:21:55.
