data_PCOD9370971
_publ_section_title
;
Structure prediction by ZEFSAII (Michael W. Deem and Ramdas Pophale) SiO2 
 PCOD9370971
Probable space group: F D D 2
;
_chemical_formula_sum "Si O2"
_cell_formula_units_Z 72
_cell_length_a 5.281142
_cell_length_b 30.535674
_cell_length_c 19.114936
_cell_angle_alpha 90.000000
_cell_angle_beta 90.000000
_cell_angle_gamma 90.000000
_cell_volume 3082.536329
_symmetry_space_group_name_H-M "F D D 2"
_symmetry_group_IT_number 43
_symmetry_cell_setting 'orthorhombic'
loop_
_space_group_symop_operation_xyz
x,y,z
-x,-y,z
1/4-x,1/4+y,1/4+z
1/4+x,1/4-y,1/4+z
x,1/2+y,1/2+z
-x,1/2-y,1/2+z
1/4-x,3/4+y,3/4+z
1/4+x,3/4-y,3/4+z
1/2+x,y,1/2+z
1/2-x,-y,1/2+z
3/4-x,1/4+y,3/4+z
3/4+x,1/4-y,3/4+z
1/2+x,1/2+y,z
1/2-x,1/2-y,z
3/4-x,3/4+y,1/4+z
3/4+x,3/4-y,1/4+z
loop_
_atom_site_type_symbol
_atom_site_label
_atom_site_fract_x
_atom_site_fract_y
_atom_site_fract_z
Si Si1 0.824394 0.199423 0.738300
Si Si2 0.090173 0.295909 0.392511
Si Si3 0.750000 0.250000 0.491351
Si Si4 0.168393 0.861615 0.012831
Si Si5 0.860173 0.175667 0.581279
O O1 0.750000 0.250000 0.730102
O O2 0.973617 0.196932 0.811671
O O3 0.611381 0.163303 0.753338
O O4 0.911071 0.182880 0.662989
O O5 0.250000 0.250000 0.396989
O O6 0.200057 0.336390 0.437714
O O7 0.847046 0.285973 0.438272
O O8 0.921443 0.222424 0.544000
O O9 0.425505 0.855719 0.054004
O O10 0.921946 0.840960 0.055786
#
# Coordination Sequence:
#
# PCOD9370971 Si02
#       5
#    16  16   8  16  16
#     4  11  25  47  69 111 146 190 252 312 356 433
#     4  10  21  43  70 101 142 188 241 298 370 443
#     4  10  20  44  72 106 136 198 228 300 370 452
#     4  11  25  47  73 102 148 197 238 295 377 442
#     4  11  24  47  75 104 145 188 244 298 370 438
#
# _framework density 23.357389999999999
#
# number of rings (size 3 to 8) (size 9 to 14) (size 15 to 20)
#    0.000    1.333    3.333    1.333    0.000    3.556 
#   20.000    0.000    0.000    0.000    0.000    0.000 
#    0.000    0.000    0.000    0.000    0.000    0.000 
#
# Total GULP energy -100248.738958 kJ/mol
# GULP energy per Si atom -5569.374387 kJ/mol
# Density = 2.330423 g / cm^3
# Si number density = 23.357390 Si / 1000 Ang^3
#
#
#
# Elastic Constant Matrix: (Units=GPa)
#
#
# Indices 1 2 3 4 5 6 
#
# 1 52.6638 9.8132 38.3372 0.0000 0.0000 0.0000
# 2 9.8132 132.1031 24.2938 0.0000 0.0000 0.0000
# 3 38.3372 24.2938 185.4970 0.0000 0.0000 0.0000
# 4 0.0000 0.0000 0.0000 -82.6649 0.0000 0.0000
# 5 0.0000 0.0000 0.0000 0.0000 9.9576 0.0000
# 6 0.0000 0.0000 0.0000 0.0000 0.0000 28.3588
#
#
#
# Elastic Compliance Matrix: (Units=1/GPa)
#
#
# Indices 1 2 3 4 5 6 
#
# 1 0.022440 -0.000834 -0.004529 0.000000 0.000000 0.000000
# 2 -0.000834 0.007788 -0.000848 0.000000 0.000000 0.000000
# 3 -0.004529 -0.000848 0.006438 0.000000 0.000000 0.000000
# 4 0.000000 0.000000 0.000000 -0.012097 0.000000 0.000000
# 5 0.000000 0.000000 0.000000 0.000000 0.100426 0.000000
# 6 0.000000 0.000000 0.000000 0.000000 0.000000 0.035262
#
#
# Mechanical properties :
#
#
# Convention : Reuss Voigt Hill
#
# Bulk Modulus (GPa) = 41.24488 57.23915 49.24202
# Shear Modulus (GPa) = 27.66102 10.98494 19.32298
#
# Velocity S-wave (km/s) = 3.44503 2.17099 2.87936
# Velocity P-wave (km/s) = 5.78972 5.55367 5.67292
#
# Compressibility (1/GPa) = 0.02424543
#
# Stress axis : x y z
#
# Youngs Moduli (GPa) = 44.56238 128.40809 155.33121
#
# Poissons Ratio (x) = 0.10711 0.70343
# Poissons Ratio (y) = 0.03717 0.13165
# Poissons Ratio (z) = 0.20180 0.10883
#
# Static dielectric constant tensor:
#      x y z
#    x 1.923080 0.000000 0.000000 
#    y 0.000000 2.003210 0.000000 
#    z 0.000000 0.000000 1.880950 
# 
# From -- ./inp_files/15705.got.cif
#   From: 2010.05.17/outbox.cif.g08.bks.cpg/sg43_8_cif.got.tgz:15705.got - 2010.06.03 19:21:55.
