data_PCOD9370341
_publ_section_title
;
Structure prediction by ZEFSAII (Michael W. Deem and Ramdas Pophale) SiO2 
 PCOD9370341
Probable space group: F D D 2
;
_chemical_formula_sum "Si O2"
_cell_formula_units_Z 128
_cell_length_a 11.103507
_cell_length_b 24.524758
_cell_length_c 23.259077
_cell_angle_alpha 90.000000
_cell_angle_beta 90.000000
_cell_angle_gamma 90.000000
_cell_volume 6333.698380
_symmetry_space_group_name_H-M "F D D 2"
_symmetry_group_IT_number 43
_symmetry_cell_setting 'orthorhombic'
loop_
_space_group_symop_operation_xyz
x,y,z
-x,-y,z
1/4-x,1/4+y,1/4+z
1/4+x,1/4-y,1/4+z
x,1/2+y,1/2+z
-x,1/2-y,1/2+z
1/4-x,3/4+y,3/4+z
1/4+x,3/4-y,3/4+z
1/2+x,y,1/2+z
1/2-x,-y,1/2+z
3/4-x,1/4+y,3/4+z
3/4+x,1/4-y,3/4+z
1/2+x,1/2+y,z
1/2-x,1/2-y,z
3/4-x,3/4+y,1/4+z
3/4+x,3/4-y,1/4+z
loop_
_atom_site_type_symbol
_atom_site_label
_atom_site_fract_x
_atom_site_fract_y
_atom_site_fract_z
Si Si1 0.975401 0.443598 0.040560
Si Si2 0.900307 0.177621 0.671041
Si Si3 0.716360 0.689514 0.268040
Si Si4 0.218335 0.082863 0.332165
Si Si5 0.768694 0.459249 0.957441
Si Si6 0.288855 0.465471 0.800539
Si Si7 0.438565 0.098110 0.841895
Si Si8 0.619428 0.621168 0.716710
O O1 0.886243 0.401414 0.071306
O O2 0.000000 0.500000 0.073237
O O3 0.898994 0.460889 0.984741
O O4 0.093821 0.412143 0.018707
O O5 0.778014 0.180807 0.706020
O O6 0.976612 0.230604 0.690144
O O7 0.886162 0.187599 0.603191
O O8 0.982237 0.127714 0.694198
O O9 0.750000 0.750000 0.288981
O O10 0.759825 0.641117 0.308481
O O11 0.575107 0.688756 0.255145
O O12 0.236875 0.076387 0.400190
O O13 0.073305 0.083980 0.322372
O O14 0.285044 0.031019 0.303195
O O15 0.152282 0.448387 0.818638
O O16 0.335274 0.436722 0.742231
O O17 0.441179 0.108016 0.910449
#
# Coordination Sequence:
#
# PCOD9370341 Si02
#       8
#    16  16  16  16  16  16  16  16
#     4  11  19  32  59  87 111 146 191 240 291 347
#     4   9  19  36  57  79 113 155 196 240 285 353
#     4  10  22  39  57  83 117 154 200 243 293 364
#     4  11  20  36  60  85 116 157 192 245 304 350
#     4  10  19  34  59  84 108 148 199 238 288 356
#     4   9  21  35  57  89 113 151 199 247 295 353
#     4  10  20  34  57  87 121 147 189 244 304 356
#     4  10  19  35  56  84 117 145 189 249 290 344
#
# _framework density 20.209361999999999
#
# number of rings (size 3 to 8) (size 9 to 14) (size 15 to 20)
#    0.000    2.000    3.750    0.375    0.000    1.000 
#    0.000    6.875    0.000    0.000    0.000    0.000 
#    0.000    0.000    0.000    0.000    0.000    0.000 
#
# Total GULP energy -178232.635960 kJ/mol
# GULP energy per Si atom -5569.769874 kJ/mol
# Density = 2.016336 g / cm^3
# Si number density = 20.209362 Si / 1000 Ang^3
#
#
#
# Elastic Constant Matrix: (Units=GPa)
#
#
# Indices 1 2 3 4 5 6 
#
# 1 42.5014 17.6517 5.6266 0.0000 0.0000 0.0000
# 2 17.6517 122.0093 31.1749 0.0000 0.0000 0.0000
# 3 5.6266 31.1749 45.2201 0.0000 0.0000 0.0000
# 4 0.0000 0.0000 0.0000 23.1318 0.0000 0.0000
# 5 0.0000 0.0000 0.0000 0.0000 17.9004 0.0000
# 6 0.0000 0.0000 0.0000 0.0000 0.0000 18.3469
#
#
#
# Elastic Compliance Matrix: (Units=1/GPa)
#
#
# Indices 1 2 3 4 5 6 
#
# 1 0.025054 -0.003433 -0.000751 0.000000 0.000000 0.000000
# 2 -0.003433 0.010419 -0.006756 0.000000 0.000000 0.000000
# 3 -0.000751 -0.006756 0.026865 0.000000 0.000000 0.000000
# 4 0.000000 0.000000 0.000000 0.043230 0.000000 0.000000
# 5 0.000000 0.000000 0.000000 0.000000 0.055865 0.000000
# 6 0.000000 0.000000 0.000000 0.000000 0.000000 0.054505
#
#
# Mechanical properties :
#
#
# Convention : Reuss Voigt Hill
#
# Bulk Modulus (GPa) = 24.71637 35.40413 30.06025
# Shear Modulus (GPa) = 19.89633 22.22767 21.06200
#
# Velocity S-wave (km/s) = 3.14110 3.32003 3.23180
# Velocity P-wave (km/s) = 5.04103 5.67921 5.36961
#
# Compressibility (1/GPa) = 0.04045901
#
# Stress axis : x y z
#
# Youngs Moduli (GPa) = 39.91416 95.97928 37.22333
#
# Poissons Ratio (x) = 0.32948 0.02794
# Poissons Ratio (y) = 0.13702 0.25147
# Poissons Ratio (z) = 0.02996 0.64841
#
# Static dielectric constant tensor:
#      x y z
#    x 1.739550 0.000000 0.000000 
#    y 0.000000 1.797790 0.000000 
#    z 0.000000 0.000000 1.737130 
# 
# From -- ./inp_files/21320.got.cif
#   From: 2010.05.17/outbox.cif.g08.bks.cpg/sg43_11_cif.got.tgz:21320.got - 2010.06.03 19:21:55.
