data_PCOD9370824
_publ_section_title
;
Structure prediction by ZEFSAII (Michael W. Deem and Ramdas Pophale) SiO2 
 PCOD9370824
Probable space group: F D D 2
;
_chemical_formula_sum "Si O2"
_cell_formula_units_Z 88
_cell_length_a 7.550642
_cell_length_b 18.922455
_cell_length_c 23.994866
_cell_angle_alpha 90.000000
_cell_angle_beta 90.000000
_cell_angle_gamma 90.000000
_cell_volume 3428.306874
_symmetry_space_group_name_H-M "F D D 2"
_symmetry_group_IT_number 43
_symmetry_cell_setting 'orthorhombic'
loop_
_space_group_symop_operation_xyz
x,y,z
-x,-y,z
1/4-x,1/4+y,1/4+z
1/4+x,1/4-y,1/4+z
x,1/2+y,1/2+z
-x,1/2-y,1/2+z
1/4-x,3/4+y,3/4+z
1/4+x,3/4-y,3/4+z
1/2+x,y,1/2+z
1/2-x,-y,1/2+z
3/4-x,1/4+y,3/4+z
3/4+x,1/4-y,3/4+z
1/2+x,1/2+y,z
1/2-x,1/2-y,z
3/4-x,3/4+y,1/4+z
3/4+x,3/4-y,1/4+z
loop_
_atom_site_type_symbol
_atom_site_label
_atom_site_fract_x
_atom_site_fract_y
_atom_site_fract_z
Si Si1 0.242192 0.075411 0.211050
Si Si2 0.360494 0.564012 0.052261
Si Si3 0.605983 0.319160 0.486225
Si Si4 0.913268 0.383271 0.357016
Si Si5 0.552471 0.420063 0.396530
Si Si6 0.000000 0.500000 0.046541
O O1 0.193793 0.130052 0.259101
O O2 0.455409 0.066705 0.205141
O O3 0.188100 0.109021 0.151241
O O4 0.212751 0.993256 0.227244
O O5 0.500000 0.500000 0.065347
O O6 0.285358 0.612672 0.103663
O O7 0.189504 0.526935 0.023772
O O8 0.678898 0.325616 0.548913
O O9 0.523293 0.388759 0.458337
O O10 0.763749 0.426650 0.388300
O O11 0.823632 0.311937 0.335527
O O12 0.500000 0.500000 0.387375
#
# Coordination Sequence:
#
# PCOD9370824 Si02
#       6
#    16  16  16  16  16   8
#     4  10  21  40  66 102 145 197 258 310 378 473
#     4  11  23  44  73 109 160 197 262 320 395 482
#     4  10  21  40  69 101 146 197 250 315 388 453
#     4  10  20  40  67  94 146 195 241 306 387 445
#     4  10  22  42  69 109 150 189 253 321 390 471
#     4  10  22  42  72 102 144 202 242 324 390 454
#
# _framework density 25.668647
#
# number of rings (size 3 to 8) (size 9 to 14) (size 15 to 20)
#    0.000    1.818    0.000    5.455    1.273    0.000 
#    6.545   11.818    0.000    0.000    0.000    0.000 
#    0.000    0.000    0.000    0.000    0.000    0.000 
#
# Total GULP energy -122509.365537 kJ/mol
# GULP energy per Si atom -5568.607524 kJ/mol
# Density = 2.561022 g / cm^3
# Si number density = 25.668647 Si / 1000 Ang^3
#
#
#
# Elastic Constant Matrix: (Units=GPa)
#
#
# Indices 1 2 3 4 5 6 
#
# 1 97.9940 36.2190 11.9011 0.0000 0.0000 0.0000
# 2 36.2190 129.3618 17.3126 0.0000 0.0000 0.0000
# 3 11.9011 17.3126 126.2038 0.0000 0.0000 0.0000
# 4 0.0000 0.0000 0.0000 -3.0104 0.0000 0.0000
# 5 0.0000 0.0000 0.0000 0.0000 18.2289 0.0000
# 6 0.0000 0.0000 0.0000 0.0000 0.0000 39.6352
#
#
#
# Elastic Compliance Matrix: (Units=1/GPa)
#
#
# Indices 1 2 3 4 5 6 
#
# 1 0.011435 -0.003114 -0.000651 0.000000 0.000000 0.000000
# 2 -0.003114 0.008723 -0.000903 0.000000 0.000000 0.000000
# 3 -0.000651 -0.000903 0.008109 0.000000 0.000000 0.000000
# 4 0.000000 0.000000 0.000000 -0.332178 0.000000 0.000000
# 5 0.000000 0.000000 0.000000 0.000000 0.054858 0.000000
# 6 0.000000 0.000000 0.000000 0.000000 0.000000 0.025230
#
#
# Mechanical properties :
#
#
# Convention : Reuss Voigt Hill
#
# Bulk Modulus (GPa) = 52.82615 53.82502 53.32559
# Shear Modulus (GPa) = -24.01816 30.17919 3.08052
#
# Velocity S-wave (km/s) = -3.06224 3.43260 1.09668
# Velocity P-wave (km/s) = 2.84985 6.06012 4.73533
#
# Compressibility (1/GPa) = 0.01893002
#
# Stress axis : x y z
#
# Youngs Moduli (GPa) = 87.45166 114.63832 123.32051
#
# Poissons Ratio (x) = 0.35703 0.08029
# Poissons Ratio (y) = 0.27236 0.11135
# Poissons Ratio (z) = 0.05694 0.10351
#
# Static dielectric constant tensor:
#      x y z
#    x 1.963960 0.000000 0.000000 
#    y 0.000000 2.255650 0.000000 
#    z 0.000000 0.000000 2.215900 
# 
# From -- ./inp_files/20205.got.cif
#   From: 2010.05.17/outbox.cif.g08.bks.cpg/sg43_11_cif.got.tgz:20205.got - 2010.06.03 19:21:55.
