data_PCOD9370319
_publ_section_title
;
Structure prediction by ZEFSAII (Michael W. Deem and Ramdas Pophale) SiO2 
 PCOD9370319
Probable space group: F D D 2
;
_chemical_formula_sum "Si O2"
_cell_formula_units_Z 120
_cell_length_a 14.630619
_cell_length_b 13.198368
_cell_length_c 25.410502
_cell_angle_alpha 90.000000
_cell_angle_beta 90.000000
_cell_angle_gamma 90.000000
_cell_volume 4906.775397
_symmetry_space_group_name_H-M "F D D 2"
_symmetry_group_IT_number 43
_symmetry_cell_setting 'orthorhombic'
loop_
_space_group_symop_operation_xyz
x,y,z
-x,-y,z
1/4-x,1/4+y,1/4+z
1/4+x,1/4-y,1/4+z
x,1/2+y,1/2+z
-x,1/2-y,1/2+z
1/4-x,3/4+y,3/4+z
1/4+x,3/4-y,3/4+z
1/2+x,y,1/2+z
1/2-x,-y,1/2+z
3/4-x,1/4+y,3/4+z
3/4+x,1/4-y,3/4+z
1/2+x,1/2+y,z
1/2-x,1/2-y,z
3/4-x,3/4+y,1/4+z
3/4+x,3/4-y,1/4+z
loop_
_atom_site_type_symbol
_atom_site_label
_atom_site_fract_x
_atom_site_fract_y
_atom_site_fract_z
Si Si1 0.652596 0.369939 0.921590
Si Si2 0.384719 0.439718 0.512742
Si Si3 0.374850 0.366920 0.004475
Si Si4 0.670293 0.414704 0.038693
Si Si5 0.150617 0.348156 0.143183
Si Si6 0.079906 0.596956 0.276841
Si Si7 0.750000 0.750000 0.853179
Si Si8 0.130446 0.650729 0.901395
O O1 0.622025 0.479416 0.901020
O O2 0.760540 0.363309 0.908053
O O3 0.607366 0.269854 0.898691
O O4 0.640400 0.361854 0.984624
O O5 0.279330 0.422197 0.529679
O O6 0.389709 0.561407 0.506191
O O7 0.443333 0.424121 0.565150
O O8 0.407308 0.391481 0.456636
O O9 0.433843 0.374783 0.951541
O O10 0.378299 0.473637 0.034792
O O11 0.264397 0.355833 0.994497
O O12 0.388135 0.256093 0.028287
O O13 0.648966 0.361634 0.093964
O O14 0.201253 0.360589 0.087723
O O15 0.067778 0.427685 0.134739
#
# Coordination Sequence:
#
# PCOD9370319 Si02
#       8
#    16  16  16  16  16  16   8  16
#     4   9  20  35  55  83 110 144 192 235 281 342
#     4   9  20  36  53  83 115 146 192 232 279 350
#     4   9  17  32  54  79 102 133 178 222 272 337
#     4   9  18  35  57  79 108 148 191 229 281 340
#     4  10  19  33  55  77 105 144 178 227 286 329
#     4   9  17  32  54  79 106 137 176 224 277 335
#     4  10  20  36  54  80 118 148 184 240 292 344
#     4  10  19  36  57  78 113 154 187 235 284 332
#
# _framework density 24.45598
#
# number of rings (size 3 to 8) (size 9 to 14) (size 15 to 20)
#    0.000    2.667    0.000    2.400    0.000    1.067 
#    0.000   18.667    0.000   38.400    0.000    0.000 
#    0.000    0.000    0.000    0.000    0.000    0.000 
#
# Total GULP energy -167262.774921 kJ/mol
# GULP energy per Si atom -5575.425831 kJ/mol
# Density = 2.440032 g / cm^3
# Si number density = 24.455980 Si / 1000 Ang^3
#
#
#
# Elastic Constant Matrix: (Units=GPa)
#
#
# Indices 1 2 3 4 5 6 
#
# 1 54.2421 7.8223 34.0731 0.0000 0.0000 0.0000
# 2 7.8223 43.6305 21.2091 0.0000 0.0000 0.0000
# 3 34.0731 21.2091 201.0568 0.0000 0.0000 0.0000
# 4 0.0000 0.0000 0.0000 28.4242 0.0000 0.0000
# 5 0.0000 0.0000 0.0000 0.0000 13.6918 0.0000
# 6 0.0000 0.0000 0.0000 0.0000 0.0000 19.3543
#
#
#
# Elastic Compliance Matrix: (Units=1/GPa)
#
#
# Indices 1 2 3 4 5 6 
#
# 1 0.020818 -0.002126 -0.003304 0.000000 0.000000 0.000000
# 2 -0.002126 0.024376 -0.002211 0.000000 0.000000 0.000000
# 3 -0.003304 -0.002211 0.005767 0.000000 0.000000 0.000000
# 4 0.000000 0.000000 0.000000 0.035181 0.000000 0.000000
# 5 0.000000 0.000000 0.000000 0.000000 0.073036 0.000000
# 6 0.000000 0.000000 0.000000 0.000000 0.000000 0.051668
#
#
# Mechanical properties :
#
#
# Convention : Reuss Voigt Hill
#
# Bulk Modulus (GPa) = 28.02826 47.23759 37.63292
# Shear Modulus (GPa) = 21.00655 28.01572 24.51114
#
# Velocity S-wave (km/s) = 2.93397 3.38828 3.16928
# Velocity P-wave (km/s) = 4.79199 5.88766 5.36785
#
# Compressibility (1/GPa) = 0.03567827
#
# Stress axis : x y z
#
# Youngs Moduli (GPa) = 48.03585 41.02435 173.40564
#
# Poissons Ratio (x) = 0.08723 0.57288
# Poissons Ratio (y) = 0.10214 0.38340
# Poissons Ratio (z) = 0.15870 0.09070
#
# Static dielectric constant tensor:
#      x y z
#    x 1.999020 0.000000 0.000000 
#    y 0.000000 2.020590 0.000000 
#    z 0.000000 0.000000 1.927900 
# 
# From -- ./inp_files/18386.got.cif
#   From: 2010.05.17/outbox.cif.g08.bks.cpg/sg43_10_cif.got.tgz:18386.got - 2010.06.03 19:21:55.
