data_PCOD9370448
_publ_section_title
;
Structure prediction by ZEFSAII (Michael W. Deem and Ramdas Pophale) SiO2 
 PCOD9370448
Probable space group: F D D 2
;
_chemical_formula_sum "Si O2"
_cell_formula_units_Z 88
_cell_length_a 25.246496
_cell_length_b 5.548103
_cell_length_c 24.363073
_cell_angle_alpha 90.000000
_cell_angle_beta 90.000000
_cell_angle_gamma 90.000000
_cell_volume 3412.539538
_symmetry_space_group_name_H-M "F D D 2"
_symmetry_group_IT_number 43
_symmetry_cell_setting 'orthorhombic'
loop_
_space_group_symop_operation_xyz
x,y,z
-x,-y,z
1/4-x,1/4+y,1/4+z
1/4+x,1/4-y,1/4+z
x,1/2+y,1/2+z
-x,1/2-y,1/2+z
1/4-x,3/4+y,3/4+z
1/4+x,3/4-y,3/4+z
1/2+x,y,1/2+z
1/2-x,-y,1/2+z
3/4-x,1/4+y,3/4+z
3/4+x,1/4-y,3/4+z
1/2+x,1/2+y,z
1/2-x,1/2-y,z
3/4-x,3/4+y,1/4+z
3/4+x,3/4-y,1/4+z
loop_
_atom_site_type_symbol
_atom_site_label
_atom_site_fract_x
_atom_site_fract_y
_atom_site_fract_z
Si Si1 0.109234 0.800334 0.082770
Si Si2 0.943488 0.449998 0.734115
Si Si3 0.250000 0.750000 0.794591
Si Si4 0.907790 0.453478 0.350580
Si Si5 0.084357 0.061961 0.721113
Si Si6 0.457531 0.698215 0.446281
O O1 0.143047 0.800204 0.025165
O O2 0.117059 0.525798 0.102800
O O3 0.049404 0.882096 0.074701
O O4 0.136889 0.028235 0.112905
O O5 0.940706 0.693454 0.698538
O O6 0.000000 0.500000 0.763823
O O7 0.937919 0.196691 0.703091
O O8 0.271201 0.550010 0.752980
O O9 0.926849 0.450184 0.287270
O O10 0.949886 0.382020 0.396231
O O11 0.146621 0.103815 0.712271
O O12 0.500000 0.500000 0.428332
#
# Coordination Sequence:
#
# PCOD9370448 Si02
#       6
#    16  16   8  16  16  16
#     4  10  23  44  68 103 141 198 233 305 371 459
#     4  10  19  38  66  91 132 186 233 276 359 440
#     4  12  24  46  82 104 144 202 256 310 388 438
#     4  10  23  43  64  99 151 177 238 300 380 436
#     4  10  22  43  64  98 144 187 229 297 376 438
#     4  12  26  42  76 112 145 188 257 326 369 447
#
# _framework density 25.78725
#
# number of rings (size 3 to 8) (size 9 to 14) (size 15 to 20)
#    0.000    1.455    3.636    2.727    2.545    2.909 
#    6.545    0.000   12.000    0.000    0.000    0.000 
#    0.000    0.000    0.000    0.000    0.000    0.000 
#
# Total GULP energy -122895.524998 kJ/mol
# GULP energy per Si atom -5586.160227 kJ/mol
# Density = 2.572856 g / cm^3
# Si number density = 25.787250 Si / 1000 Ang^3
#
#
#
# Elastic Constant Matrix: (Units=GPa)
#
#
# Indices 1 2 3 4 5 6 
#
# 1 161.1228 47.1291 25.9044 -0.0001 0.0065 -0.0012
# 2 47.1291 208.1193 16.4364 -0.0001 0.0509 -0.0024
# 3 25.9044 16.4364 95.5200 -0.0002 0.0023 -0.0004
# 4 -0.0001 -0.0001 -0.0002 42.9193 0.0000 0.0011
# 5 0.0065 0.0509 0.0023 0.0000 -511.4077 -0.0121
# 6 -0.0012 -0.0024 -0.0004 0.0011 -0.0121 52.7574
#
#
#
# Elastic Compliance Matrix: (Units=1/GPa)
#
#
# Indices 1 2 3 4 5 6 
#
# 1 0.006886 -0.001431 -0.001621 0.000000 0.000000 0.000000
# 2 -0.001431 0.005169 -0.000501 0.000000 0.000000 0.000000
# 3 -0.001621 -0.000501 0.010995 0.000000 0.000000 0.000000
# 4 0.000000 0.000000 0.000000 0.023300 0.000000 0.000000
# 5 0.000000 0.000000 0.000000 0.000000 -0.001955 0.000000
# 6 0.000000 0.000000 0.000000 0.000000 0.000000 0.018955
#
#
# Mechanical properties :
#
#
# Convention : Reuss Voigt Hill
#
# Bulk Modulus (GPa) = 62.72702 71.52243 67.12472
# Shear Modulus (GPa) = 65.98980 -58.12672 3.93154
#
# Velocity S-wave (km/s) = 5.06415 -4.75287 1.23609
# Velocity P-wave (km/s) = 7.65322 1.52445 5.30320
#
# Compressibility (1/GPa) = 0.01594209
#
# Stress axis : x y z
#
# Youngs Moduli (GPa) = 145.22799 193.47476 90.95134
#
# Poissons Ratio (x) = 0.27691 0.14744
# Poissons Ratio (y) = 0.20786 0.04559
# Poissons Ratio (z) = 0.23543 0.09698
#
# Static dielectric constant tensor:
#      x y z
#    x 3.696330 -0.000020 0.000030 
#    y -0.000020 2.114930 0.000000 
#    z 0.000030 0.000000 2.103830 
# 
# From -- ./inp_files/29794.got.cif
#   From: 2010.05.17/outbox.cif.g08.bks.cpg/sg43_15_cif.got.tgz:29794.got - 2010.06.03 19:21:55.
