data_PCOD9370601
_publ_section_title
;
Structure prediction by ZEFSAII (Michael W. Deem and Ramdas Pophale) SiO2 
 PCOD9370601
Probable space group: F D D 2
;
_chemical_formula_sum "Si O2"
_cell_formula_units_Z 120
_cell_length_a 13.087260
_cell_length_b 14.115905
_cell_length_c 29.230928
_cell_angle_alpha 90.000000
_cell_angle_beta 90.000000
_cell_angle_gamma 90.000000
_cell_volume 5400.078344
_symmetry_space_group_name_H-M "F D D 2"
_symmetry_group_IT_number 43
_symmetry_cell_setting 'orthorhombic'
loop_
_space_group_symop_operation_xyz
x,y,z
-x,-y,z
1/4-x,1/4+y,1/4+z
1/4+x,1/4-y,1/4+z
x,1/2+y,1/2+z
-x,1/2-y,1/2+z
1/4-x,3/4+y,3/4+z
1/4+x,3/4-y,3/4+z
1/2+x,y,1/2+z
1/2-x,-y,1/2+z
3/4-x,1/4+y,3/4+z
3/4+x,1/4-y,3/4+z
1/2+x,1/2+y,z
1/2-x,1/2-y,z
3/4-x,3/4+y,1/4+z
3/4+x,3/4-y,1/4+z
loop_
_atom_site_type_symbol
_atom_site_label
_atom_site_fract_x
_atom_site_fract_y
_atom_site_fract_z
Si Si1 0.403157 0.139067 0.181520
Si Si2 0.886579 0.533851 0.855765
Si Si3 0.033987 0.774317 0.485936
Si Si4 0.618087 0.199297 0.209113
Si Si5 0.347988 0.404769 0.283956
Si Si6 0.661096 0.827943 0.079119
Si Si7 0.500000 0.500000 0.983407
Si Si8 0.056182 0.790184 0.299646
O O1 0.513163 0.137425 0.205525
O O2 0.402188 0.152949 0.126548
O O3 0.346592 0.232151 0.201554
O O4 0.338747 0.049277 0.200665
O O5 0.873425 0.513619 0.908342
O O6 0.819610 0.456642 0.830189
O O7 0.882631 0.640152 0.834716
O O8 0.000000 0.500000 0.842139
O O9 0.039353 0.876480 0.463325
O O10 0.097954 0.793787 0.533660
O O11 0.918648 0.739603 0.497334
O O12 0.610925 0.269253 0.251525
O O13 0.259358 0.337406 0.266792
O O14 0.449341 0.342457 0.287975
O O15 0.750000 0.750000 0.087049
O O16 0.706157 0.933584 0.069083
#
# Coordination Sequence:
#
# PCOD9370601 Si02
#       8
#    16  16  16  16  16  16   8  16
#     4  11  20  37  60  92 130 164 211 268 325 388
#     4  10  23  42  64  88 128 171 215 264 321 391
#     4  10  22  36  61  92 125 167 211 266 328 382
#     4  11  21  39  63  93 127 171 218 265 323 392
#     4  10  21  41  63  89 124 170 208 266 329 382
#     4  11  22  36  59  95 128 165 214 268 325 390
#     4  10  20  36  64  92 122 168 204 268 326 384
#     4  10  22  41  64  89 128 174 213 265 328 392
#
# _framework density 22.221900999999999
#
# number of rings (size 3 to 8) (size 9 to 14) (size 15 to 20)
#    0.000    1.600    2.000    3.600    1.867    1.067 
#    0.000    6.000    7.333    0.000    0.000    0.000 
#    0.000    0.000    0.000    0.000    0.000    0.000 
#
# Total GULP energy -167097.003210 kJ/mol
# GULP energy per Si atom -5569.900107 kJ/mol
# Density = 2.217132 g / cm^3
# Si number density = 22.221901 Si / 1000 Ang^3
#
#
#
# Elastic Constant Matrix: (Units=GPa)
#
#
# Indices 1 2 3 4 5 6 
#
# 1 42.5422 13.4621 -0.8170 0.0000 0.0000 0.0000
# 2 13.4621 79.6454 26.9043 0.0000 0.0000 0.0000
# 3 -0.8170 26.9043 104.1117 0.0000 0.0000 0.0000
# 4 0.0000 0.0000 0.0000 36.3815 0.0000 0.0000
# 5 0.0000 0.0000 0.0000 0.0000 20.6868 0.0000
# 6 0.0000 0.0000 0.0000 0.0000 0.0000 33.4050
#
#
#
# Elastic Compliance Matrix: (Units=1/GPa)
#
#
# Indices 1 2 3 4 5 6 
#
# 1 0.025023 -0.004707 0.001413 0.000000 0.000000 0.000000
# 2 -0.004707 0.014642 -0.003821 0.000000 0.000000 0.000000
# 3 0.001413 -0.003821 0.010603 0.000000 0.000000 0.000000
# 4 0.000000 0.000000 0.000000 0.027486 0.000000 0.000000
# 5 0.000000 0.000000 0.000000 0.000000 0.048340 0.000000
# 6 0.000000 0.000000 0.000000 0.000000 0.000000 0.029936
#
#
# Mechanical properties :
#
#
# Convention : Reuss Voigt Hill
#
# Bulk Modulus (GPa) = 27.74804 33.93312 30.84058
# Shear Modulus (GPa) = 27.43154 30.54467 28.98811
#
# Velocity S-wave (km/s) = 3.51727 3.71149 3.61568
# Velocity P-wave (km/s) = 5.38598 5.80260 5.59817
#
# Compressibility (1/GPa) = 0.03603858
#
# Stress axis : x y z
#
# Youngs Moduli (GPa) = 39.96397 68.29762 94.30867
#
# Poissons Ratio (x) = 0.32145 -0.13322
# Poissons Ratio (y) = 0.18810 0.36032
# Poissons Ratio (z) = -0.05645 0.26094
#
# Static dielectric constant tensor:
#      x y z
#    x 1.909740 0.000000 0.000000 
#    y 0.000000 1.940540 0.000000 
#    z 0.000000 0.000000 1.831820 
# 
# From -- ./inp_files/29219.got.cif
#   From: 2010.05.17/outbox.cif.g08.bks.cpg/sg43_15_cif.got.tgz:29219.got - 2010.06.03 19:21:55.
