data_PCOD9370992
_publ_section_title
;
Structure prediction by ZEFSAII (Michael W. Deem and Ramdas Pophale) SiO2 
 PCOD9370992
Probable space group: F D D 2
;
_chemical_formula_sum "Si O2"
_cell_formula_units_Z 48
_cell_length_a 12.607387
_cell_length_b 9.023424
_cell_length_c 16.470136
_cell_angle_alpha 90.000000
_cell_angle_beta 90.000000
_cell_angle_gamma 90.000000
_cell_volume 1873.672292
_symmetry_space_group_name_H-M "F D D 2"
_symmetry_group_IT_number 43
_symmetry_cell_setting 'orthorhombic'
loop_
_space_group_symop_operation_xyz
x,y,z
-x,-y,z
1/4-x,1/4+y,1/4+z
1/4+x,1/4-y,1/4+z
x,1/2+y,1/2+z
-x,1/2-y,1/2+z
1/4-x,3/4+y,3/4+z
1/4+x,3/4-y,3/4+z
1/2+x,y,1/2+z
1/2-x,-y,1/2+z
3/4-x,1/4+y,3/4+z
3/4+x,1/4-y,3/4+z
1/2+x,1/2+y,z
1/2-x,1/2-y,z
3/4-x,3/4+y,1/4+z
3/4+x,3/4-y,1/4+z
loop_
_atom_site_type_symbol
_atom_site_label
_atom_site_fract_x
_atom_site_fract_y
_atom_site_fract_z
Si Si1 0.453311 0.736339 0.001250
Si Si2 0.407433 0.678403 0.736768
Si Si3 0.582041 0.767573 0.850261
O O1 0.394066 0.849683 0.058912
O O2 0.560395 0.654979 0.032749
O O3 0.376513 0.599588 0.979739
O O4 0.493429 0.812761 0.917544
O O5 0.518747 0.677165 0.781544
O O6 0.403721 0.594977 0.651411
#
# Coordination Sequence:
#
# PCOD9370992 Si02
#       3
#    16  16  16
#     4   9  21  44  80 119 161 215 277 340 419 499
#     4   9  21  44  78 119 165 210 277 347 409 501
#     4  10  20  46  85 115 161 226 267 348 426 495
#
# _framework density 25.61814
#
# number of rings (size 3 to 8) (size 9 to 14) (size 15 to 20)
#    2.000    0.667    0.000    1.000    0.000    0.000 
#   12.000   13.333   14.667    0.000    0.000    0.000 
#    0.000    0.000    0.000    0.000    0.000    0.000 
#
# Total GULP energy -67162.389533 kJ/mol
# GULP energy per Si atom -5596.865794 kJ/mol
# Density = 2.555983 g / cm^3
# Si number density = 25.618140 Si / 1000 Ang^3
#
#
#
# Elastic Constant Matrix: (Units=GPa)
#
#
# Indices 1 2 3 4 5 6 
#
# 1 133.1987 98.3533 93.0747 0.0000 0.0000 0.0000
# 2 98.3533 218.7960 133.8088 0.0000 0.0000 0.0000
# 3 93.0747 133.8088 163.4213 0.0000 0.0000 0.0000
# 4 0.0000 0.0000 0.0000 63.8883 0.0000 0.0000
# 5 0.0000 0.0000 0.0000 0.0000 32.5793 0.0000
# 6 0.0000 0.0000 0.0000 0.0000 0.0000 56.1188
#
#
#
# Elastic Compliance Matrix: (Units=1/GPa)
#
#
# Indices 1 2 3 4 5 6 
#
# 1 0.013210 -0.002678 -0.005331 0.000000 0.000000 0.000000
# 2 -0.002678 0.009698 -0.006415 0.000000 0.000000 0.000000
# 3 -0.005331 -0.006415 0.014408 0.000000 0.000000 0.000000
# 4 0.000000 0.000000 0.000000 0.015652 0.000000 0.000000
# 5 0.000000 0.000000 0.000000 0.000000 0.030694 0.000000
# 6 0.000000 0.000000 0.000000 0.000000 0.000000 0.017819
#
#
# Mechanical properties :
#
#
# Convention : Reuss Voigt Hill
#
# Bulk Modulus (GPa) = 118.09741 129.54327 123.82034
# Shear Modulus (GPa) = 37.55103 43.19589 40.37346
#
# Velocity S-wave (km/s) = 3.83273 4.11072 3.97416
# Velocity P-wave (km/s) = 8.11083 8.55614 8.33646
#
# Compressibility (1/GPa) = 0.00846759
#
# Stress axis : x y z
#
# Youngs Moduli (GPa) = 75.70002 103.11879 69.40593
#
# Poissons Ratio (x) = 0.27615 0.37000
# Poissons Ratio (y) = 0.20272 0.44525
# Poissons Ratio (z) = 0.40355 0.66152
#
# Static dielectric constant tensor:
#      x y z
#    x 2.176110 0.000000 0.000000 
#    y 0.000000 1.982460 0.000000 
#    z 0.000000 0.000000 2.043210 
# 
# From -- ./inp_files/13065.got.cif
#   From: 2010.05.17/outbox.cif.g08.bks.cpg/sg43_7_cif.got.tgz:13065.got - 2010.06.03 19:21:55.
