data_PCOD9370447
_publ_section_title
;
Structure prediction by ZEFSAII (Michael W. Deem and Ramdas Pophale) SiO2 
 PCOD9370447
Probable space group: F D D 2
;
_chemical_formula_sum "Si O2"
_cell_formula_units_Z 120
_cell_length_a 10.747012
_cell_length_b 18.413533
_cell_length_c 26.932948
_cell_angle_alpha 90.000000
_cell_angle_beta 90.000000
_cell_angle_gamma 90.000000
_cell_volume 5329.773472
_symmetry_space_group_name_H-M "F D D 2"
_symmetry_group_IT_number 43
_symmetry_cell_setting 'orthorhombic'
loop_
_space_group_symop_operation_xyz
x,y,z
-x,-y,z
1/4-x,1/4+y,1/4+z
1/4+x,1/4-y,1/4+z
x,1/2+y,1/2+z
-x,1/2-y,1/2+z
1/4-x,3/4+y,3/4+z
1/4+x,3/4-y,3/4+z
1/2+x,y,1/2+z
1/2-x,-y,1/2+z
3/4-x,1/4+y,3/4+z
3/4+x,1/4-y,3/4+z
1/2+x,1/2+y,z
1/2-x,1/2-y,z
3/4-x,3/4+y,1/4+z
3/4+x,3/4-y,1/4+z
loop_
_atom_site_type_symbol
_atom_site_label
_atom_site_fract_x
_atom_site_fract_y
_atom_site_fract_z
Si Si1 0.308895 0.443533 0.461090
Si Si2 0.000000 0.500000 0.881495
Si Si3 0.961668 0.871769 0.022318
Si Si4 0.637686 0.522108 0.731094
Si Si5 0.042188 0.423682 0.417607
Si Si6 0.438268 0.276013 0.872393
Si Si7 0.427057 0.335752 0.777389
Si Si8 0.766363 0.116041 0.063327
O O1 0.414283 0.454182 0.419855
O O2 0.186447 0.429508 0.428981
O O3 0.308263 0.520253 0.489464
O O4 0.297372 0.389170 0.508447
O O5 0.962196 0.565555 0.843894
O O6 0.820687 0.889619 0.039738
O O7 0.083140 0.882703 0.055631
O O8 0.972925 0.787685 0.006194
O O9 0.975884 0.917740 0.971508
O O10 0.500000 0.500000 0.747630
O O11 0.639241 0.510800 0.672250
O O12 0.650908 0.602835 0.749827
O O13 0.011401 0.347270 0.391970
O O14 0.000000 0.500000 0.392906
O O15 0.358390 0.312231 0.828043
O O16 0.498994 0.209475 0.842791
#
# Coordination Sequence:
#
# PCOD9370447 Si02
#       8
#    16   8  16  16  16  16  16  16
#     4  10  23  44  67  98 140 189 233 296 360 434
#     4  12  26  50  68 100 148 200 246 294 374 448
#     4   9  19  38  67  94 131 170 224 293 342 415
#     4   9  19  38  61  94 132 171 220 281 346 410
#     4  10  19  38  65  99 135 174 225 292 357 410
#     4  10  22  37  63 101 130 173 231 283 350 429
#     4  10  19  38  66  95 131 177 218 288 354 413
#     4  10  24  47  67 101 136 190 245 292 369 430
#
# _framework density 22.515027
#
# number of rings (size 3 to 8) (size 9 to 14) (size 15 to 20)
#    0.000    2.133    1.333    0.800    1.867    1.600 
#   14.400    0.000    0.000    0.000    0.000    0.000 
#    0.000    0.000    0.000    0.000    0.000    0.000 
#
# Total GULP energy -167100.956566 kJ/mol
# GULP energy per Si atom -5570.031886 kJ/mol
# Density = 2.246378 g / cm^3
# Si number density = 22.515027 Si / 1000 Ang^3
#
#
#
# Elastic Constant Matrix: (Units=GPa)
#
#
# Indices 1 2 3 4 5 6 
#
# 1 33.3513 20.1010 32.2631 0.0000 0.0000 0.0000
# 2 20.1010 125.0159 61.7487 0.0000 0.0000 0.0000
# 3 32.2631 61.7487 106.5705 0.0000 0.0000 0.0000
# 4 0.0000 0.0000 0.0000 59.0777 0.0000 0.0000
# 5 0.0000 0.0000 0.0000 0.0000 14.0701 0.0000
# 6 0.0000 0.0000 0.0000 0.0000 0.0000 20.3417
#
#
#
# Elastic Compliance Matrix: (Units=1/GPa)
#
#
# Indices 1 2 3 4 5 6 
#
# 1 0.042442 -0.000669 -0.012461 0.000000 0.000000 0.000000
# 2 -0.000669 0.011217 -0.006296 0.000000 0.000000 0.000000
# 3 -0.012461 -0.006296 0.016804 0.000000 0.000000 0.000000
# 4 0.000000 0.000000 0.000000 0.016927 0.000000 0.000000
# 5 0.000000 0.000000 0.000000 0.000000 0.071072 0.000000
# 6 0.000000 0.000000 0.000000 0.000000 0.000000 0.049160
#
#
# Mechanical properties :
#
#
# Convention : Reuss Voigt Hill
#
# Bulk Modulus (GPa) = 31.63658 54.79591 43.21624
# Shear Modulus (GPa) = 19.45438 28.75290 24.10364
#
# Velocity S-wave (km/s) = 2.94268 3.57747 3.27549
# Velocity P-wave (km/s) = 5.06238 6.43853 5.79147
#
# Compressibility (1/GPa) = 0.03160898
#
# Stress axis : x y z
#
# Youngs Moduli (GPa) = 23.56178 89.15378 59.50915
#
# Poissons Ratio (x) = 0.05967 0.74154
# Poissons Ratio (y) = 0.01577 0.37470
# Poissons Ratio (z) = 0.29360 0.56135
#
# Static dielectric constant tensor:
#      x y z
#    x 1.865560 0.000000 0.000000 
#    y 0.000000 1.876340 0.000000 
#    z 0.000000 0.000000 1.847810 
# 
# From -- ./inp_files/25261.got.cif
#   From: 2010.05.17/outbox.cif.g08.bks.cpg/sg43_13_cif.got.tgz:25261.got - 2010.06.03 19:21:55.
