data_PCOD9370043
_publ_section_title
;
Structure prediction by ZEFSAII (Michael W. Deem and Ramdas Pophale) SiO2 
 PCOD9370043
Probable space group: F D D 2
;
_chemical_formula_sum "Si O2"
_cell_formula_units_Z 80
_cell_length_a 7.323648
_cell_length_b 19.678944
_cell_length_c 20.535227
_cell_angle_alpha 90.000000
_cell_angle_beta 90.000000
_cell_angle_gamma 90.000000
_cell_volume 2959.570980
_symmetry_space_group_name_H-M "F D D 2"
_symmetry_group_IT_number 43
_symmetry_cell_setting 'orthorhombic'
loop_
_space_group_symop_operation_xyz
x,y,z
-x,-y,z
1/4-x,1/4+y,1/4+z
1/4+x,1/4-y,1/4+z
x,1/2+y,1/2+z
-x,1/2-y,1/2+z
1/4-x,3/4+y,3/4+z
1/4+x,3/4-y,3/4+z
1/2+x,y,1/2+z
1/2-x,-y,1/2+z
3/4-x,1/4+y,3/4+z
3/4+x,1/4-y,3/4+z
1/2+x,1/2+y,z
1/2-x,1/2-y,z
3/4-x,3/4+y,1/4+z
3/4+x,3/4-y,1/4+z
loop_
_atom_site_type_symbol
_atom_site_label
_atom_site_fract_x
_atom_site_fract_y
_atom_site_fract_z
Si Si1 0.530177 0.257869 0.132350
Si Si2 0.749998 0.018984 0.239969
Si Si3 0.719823 0.992131 0.097587
Si Si4 0.709921 0.400666 0.482566
Si Si5 0.040081 0.349335 0.747371
O O1 0.468880 0.266897 0.058563
O O2 0.468100 0.312806 0.312300
O O3 0.468099 0.187195 0.167637
O O4 0.462344 0.316658 0.181559
O O5 0.077286 0.928985 0.251230
O O6 0.781118 0.983103 0.171375
O O7 0.000000 0.000000 0.378153
O O8 0.577282 0.071015 0.228708
O O9 0.500000 0.000000 0.101784
O O10 0.787658 0.933343 0.048378
O O11 0.500001 0.424796 0.489969
#
# Coordination Sequence:
#
# PCOD9370043 Si02
#       5
#    16  16  16  16  16
#     4   9  15  26  39  65  87  99 134 171 198 248
#     4  10  16  23  46  64  80 112 127 166 222 222
#     4   9  15  26  39  65  87  99 134 171 198 248
#     4   7  15  25  39  62  82  99 131 169 207 234
#     4   7  15  25  39  62  82  99 131 169 207 234
#
# _framework density 27.030947000000001
#
# number of rings (size 3 to 8) (size 9 to 14) (size 15 to 20)
#    1.200    2.400    0.000    3.600    0.000    0.000 
#    0.000    0.000    0.000    2.400    0.000    0.000 
#    0.000    0.000    0.000    0.000    0.000    0.000 
#
# Total GULP energy -111494.303491 kJ/mol
# GULP energy per Si atom -5574.715175 kJ/mol
# Density = 2.696942 g / cm^3
# Si number density = 27.030947 Si / 1000 Ang^3
#
#
#
# Elastic Constant Matrix: (Units=GPa)
#
#
# Indices 1 2 3 4 5 6 
#
# 1 96.3157 -0.6213 13.8033 0.0000 0.0000 0.0000
# 2 -0.6213 90.4210 40.0275 0.0000 0.0000 0.0000
# 3 13.8033 40.0275 248.5001 0.0000 0.0000 0.0000
# 4 0.0000 0.0000 0.0000 10.1319 0.0000 0.0000
# 5 0.0000 0.0000 0.0000 0.0000 26.0508 0.0000
# 6 0.0000 0.0000 0.0000 0.0000 0.0000 1.9268
#
#
#
# Elastic Compliance Matrix: (Units=1/GPa)
#
#
# Indices 1 2 3 4 5 6 
#
# 1 0.010476 0.000355 -0.000639 0.000000 0.000000 0.000000
# 2 0.000355 0.011921 -0.001940 0.000000 0.000000 0.000000
# 3 -0.000639 -0.001940 0.004372 0.000000 0.000000 0.000000
# 4 0.000000 0.000000 0.000000 0.098698 0.000000 0.000000
# 5 0.000000 0.000000 0.000000 0.000000 0.038386 0.000000
# 6 0.000000 0.000000 0.000000 0.000000 0.000000 0.519005
#
#
# Mechanical properties :
#
#
# Convention : Reuss Voigt Hill
#
# Bulk Modulus (GPa) = 44.80087 60.18398 52.49243
# Shear Modulus (GPa) = 7.19687 33.09039 20.14363
#
# Velocity S-wave (km/s) = 1.63347 3.50261 2.73281
# Velocity P-wave (km/s) = 4.49083 6.21859 5.42395
#
# Compressibility (1/GPa) = 0.02232099
#
# Stress axis : x y z
#
# Youngs Moduli (GPa) = 95.45258 83.88886 228.72287
#
# Poissons Ratio (x) = -0.02977 0.14618
# Poissons Ratio (y) = -0.03388 0.44368
# Poissons Ratio (z) = 0.06100 0.16273
#
# Static dielectric constant tensor:
#      x y z
#    x 2.206720 0.000000 0.000000 
#    y 0.000000 2.169540 0.000000 
#    z 0.000000 0.000000 2.073740 
# 
# From -- ./inp_files/17984.got.cif
#   From: 2010.05.17/outbox.cif.g08.bks.cpg/sg43_9_cif.got.tgz:17984.got - 2010.06.03 19:21:55.
