data_PCOD9370480
_publ_section_title
;
Structure prediction by ZEFSAII (Michael W. Deem and Ramdas Pophale) SiO2 
 PCOD9370480
Probable space group: F D D 2
;
_chemical_formula_sum "Si O2"
_cell_formula_units_Z 96
_cell_length_a 20.792089
_cell_length_b 24.160676
_cell_length_c 7.958157
_cell_angle_alpha 90.000000
_cell_angle_beta 90.000000
_cell_angle_gamma 90.000000
_cell_volume 3997.787536
_symmetry_space_group_name_H-M "F D D 2"
_symmetry_group_IT_number 43
_symmetry_cell_setting 'orthorhombic'
loop_
_space_group_symop_operation_xyz
x,y,z
-x,-y,z
1/4-x,1/4+y,1/4+z
1/4+x,1/4-y,1/4+z
x,1/2+y,1/2+z
-x,1/2-y,1/2+z
1/4-x,3/4+y,3/4+z
1/4+x,3/4-y,3/4+z
1/2+x,y,1/2+z
1/2-x,-y,1/2+z
3/4-x,1/4+y,3/4+z
3/4+x,1/4-y,3/4+z
1/2+x,1/2+y,z
1/2-x,1/2-y,z
3/4-x,3/4+y,1/4+z
3/4+x,3/4-y,1/4+z
loop_
_atom_site_type_symbol
_atom_site_label
_atom_site_fract_x
_atom_site_fract_y
_atom_site_fract_z
Si Si1 0.106993 0.614986 0.755880
Si Si2 0.743622 0.692503 0.610112
Si Si3 0.804694 0.206695 0.466570
Si Si4 0.666970 0.468241 0.837736
Si Si5 0.301818 0.988423 0.707304
Si Si6 0.603707 0.157468 0.133107
O O1 0.121068 0.661149 0.617197
O O2 0.145259 0.559027 0.727122
O O3 0.029915 0.604059 0.754412
O O4 0.120583 0.635638 0.944241
O O5 0.750000 0.750000 0.509032
O O6 0.789261 0.704853 0.768823
O O7 0.675388 0.675323 0.687503
O O8 0.750000 0.250000 0.537300
O O9 0.871292 0.235661 0.510296
O O10 0.817797 0.140199 0.490762
O O11 0.731348 0.463932 0.731187
O O12 0.688027 0.485513 0.024883
O O13 0.312991 0.037499 0.843317
#
# Coordination Sequence:
#
# PCOD9370480 Si02
#       6
#    16  16  16  16  16  16
#     4  10  22  43  66 105 145 189 234 303 373 435
#     4  10  19  39  73 104 132 185 248 301 352 439
#     4  10  25  45  67 105 150 181 238 306 370 427
#     4  11  27  46  69 103 149 186 248 301 372 438
#     4  11  25  47  72 107 138 197 244 300 369 447
#     4  10  22  41  77 104 142 188 250 295 364 448
#
# _framework density 24.013282
#
# number of rings (size 3 to 8) (size 9 to 14) (size 15 to 20)
#    0.000    1.667    1.667    1.000   11.667    1.333 
#   15.000    0.000    0.000    0.000    0.000    0.000 
#    0.000    0.000    0.000    0.000    0.000    0.000 
#
# Total GULP energy -133953.851777 kJ/mol
# GULP energy per Si atom -5581.410491 kJ/mol
# Density = 2.395863 g / cm^3
# Si number density = 24.013282 Si / 1000 Ang^3
#
#
#
# Elastic Constant Matrix: (Units=GPa)
#
#
# Indices 1 2 3 4 5 6 
#
# 1 102.3824 44.1780 20.7297 -0.0009 0.0011 0.0004
# 2 44.1780 155.7715 27.6107 -0.0007 0.0008 0.0003
# 3 20.7297 27.6107 60.6688 -0.0030 0.0035 0.0017
# 4 -0.0009 -0.0007 -0.0030 36.1235 0.0014 0.0006
# 5 0.0011 0.0008 0.0035 0.0014 23.1804 -0.0008
# 6 0.0004 0.0003 0.0017 0.0006 -0.0008 42.7601
#
#
#
# Elastic Compliance Matrix: (Units=1/GPa)
#
#
# Indices 1 2 3 4 5 6 
#
# 1 0.011511 -0.002793 -0.002662 0.000000 0.000000 0.000000
# 2 -0.002793 0.007661 -0.002532 0.000000 0.000000 0.000000
# 3 -0.002662 -0.002532 0.018545 0.000001 -0.000003 -0.000001
# 4 0.000000 0.000000 0.000001 0.027683 -0.000002 0.000000
# 5 0.000000 0.000000 -0.000003 -0.000002 0.043140 0.000001
# 6 0.000000 0.000000 -0.000001 0.000000 0.000001 0.023386
#
#
# Mechanical properties :
#
#
# Convention : Reuss Voigt Hill
#
# Bulk Modulus (GPa) = 45.99271 55.98440 50.98855
# Shear Modulus (GPa) = 32.22730 35.49973 33.86352
#
# Velocity S-wave (km/s) = 3.66739 3.84909 3.75934
# Velocity P-wave (km/s) = 6.09324 6.56647 6.33428
#
# Compressibility (1/GPa) = 0.02174258
#
# Stress axis : x y z
#
# Youngs Moduli (GPa) = 86.86992 130.53898 53.92298
#
# Poissons Ratio (x) = 0.36458 0.14356
# Poissons Ratio (y) = 0.24261 0.13654
# Poissons Ratio (z) = 0.23127 0.33053
#
# Static dielectric constant tensor:
#      x y z
#    x 1.945070 0.000000 0.000000 
#    y 0.000000 2.126330 0.000000 
#    z 0.000000 0.000000 1.902710 
# 
# From -- ./inp_files/3284.got.cif
#   From: 2010.05.17/outbox.cif.g08.bks.cpg/sg43_2_cif.got.tgz:3284.got - 2010.06.03 19:21:55.
