data_PCOD9370620
_publ_section_title
;
Structure prediction by ZEFSAII (Michael W. Deem and Ramdas Pophale) SiO2 
 PCOD9370620
Probable space group: F D D 2
;
_chemical_formula_sum "Si O2"
_cell_formula_units_Z 80
_cell_length_a 12.037071
_cell_length_b 12.857871
_cell_length_c 28.536527
_cell_angle_alpha 90.000000
_cell_angle_beta 90.000000
_cell_angle_gamma 90.000000
_cell_volume 4416.629849
_symmetry_space_group_name_H-M "F D D 2"
_symmetry_group_IT_number 43
_symmetry_cell_setting 'orthorhombic'
loop_
_space_group_symop_operation_xyz
x,y,z
-x,-y,z
1/4-x,1/4+y,1/4+z
1/4+x,1/4-y,1/4+z
x,1/2+y,1/2+z
-x,1/2-y,1/2+z
1/4-x,3/4+y,3/4+z
1/4+x,3/4-y,3/4+z
1/2+x,y,1/2+z
1/2-x,-y,1/2+z
3/4-x,1/4+y,3/4+z
3/4+x,1/4-y,3/4+z
1/2+x,1/2+y,z
1/2-x,1/2-y,z
3/4-x,3/4+y,1/4+z
3/4+x,3/4-y,1/4+z
loop_
_atom_site_type_symbol
_atom_site_label
_atom_site_fract_x
_atom_site_fract_y
_atom_site_fract_z
Si Si1 0.500000 0.500000 0.700871
Si Si2 0.742956 0.957630 0.217057
Si Si3 0.750000 0.250000 0.656228
Si Si4 0.880299 0.043794 0.294340
Si Si5 0.005374 0.293323 0.137818
Si Si6 0.597719 0.584926 0.453214
O O1 0.615983 0.489266 0.728064
O O2 0.498920 0.397565 0.668786
O O3 0.753164 0.852012 0.188887
O O4 0.814507 0.957160 0.264175
O O5 0.794882 0.054578 0.187910
O O6 0.866763 0.238983 0.629280
O O7 0.810210 0.065740 0.340289
O O8 0.887611 0.138062 0.256369
O O9 0.000000 0.000000 0.306991
O O10 0.943151 0.205550 0.168918
O O11 0.500000 0.500000 0.454405
#
# Coordination Sequence:
#
# PCOD9370620 Si02
#       6
#     8  16   8  16  16  16
#     4  10  20  37  60  90 116 164 194 247 312 364
#     4   9  21  38  60  85 118 159 195 243 312 351
#     4  10  22  39  58  84 128 160 188 257 306 362
#     4  10  22  36  61  90 117 158 208 247 297 363
#     4  11  21  37  62  88 123 156 208 245 306 367
#     4  10  20  39  63  88 116 161 197 258 297 359
#
# _framework density 18.113358000000002
#
# number of rings (size 3 to 8) (size 9 to 14) (size 15 to 20)
#    1.200    0.800    2.000    1.800    1.400    0.800 
#    0.000    2.000    0.000    0.000    0.000    0.000 
#    0.000    0.000    0.000    0.000    0.000    0.000 
#
# Total GULP energy -111340.752706 kJ/mol
# GULP energy per Si atom -5567.037635 kJ/mol
# Density = 1.807213 g / cm^3
# Si number density = 18.113358 Si / 1000 Ang^3
#
#
#
# Elastic Constant Matrix: (Units=GPa)
#
#
# Indices 1 2 3 4 5 6 
#
# 1 126.3377 15.1582 16.1926 0.0000 0.0000 0.0000
# 2 15.1582 93.4799 -2.3871 0.0000 0.0000 0.0000
# 3 16.1926 -2.3871 46.3849 0.0000 0.0000 0.0000
# 4 0.0000 0.0000 0.0000 12.4598 0.0000 0.0000
# 5 0.0000 0.0000 0.0000 0.0000 11.0509 0.0000
# 6 0.0000 0.0000 0.0000 0.0000 0.0000 22.9908
#
#
#
# Elastic Compliance Matrix: (Units=1/GPa)
#
#
# Indices 1 2 3 4 5 6 
#
# 1 0.008478 -0.001452 -0.003035 0.000000 0.000000 0.000000
# 2 -0.001452 0.010960 0.001071 0.000000 0.000000 0.000000
# 3 -0.003035 0.001071 0.022673 0.000000 0.000000 0.000000
# 4 0.000000 0.000000 0.000000 0.080258 0.000000 0.000000
# 5 0.000000 0.000000 0.000000 0.000000 0.090491 0.000000
# 6 0.000000 0.000000 0.000000 0.000000 0.000000 0.043496
#
#
# Mechanical properties :
#
#
# Convention : Reuss Voigt Hill
#
# Bulk Modulus (GPa) = 28.34432 36.01444 32.17938
# Shear Modulus (GPa) = 18.18525 25.11621 21.65073
#
# Velocity S-wave (km/s) = 3.17198 3.72776 3.46105
# Velocity P-wave (km/s) = 5.39422 6.20115 5.81171
#
# Compressibility (1/GPa) = 0.03528043
#
# Stress axis : x y z
#
# Youngs Moduli (GPa) = 117.94572 91.23802 44.10499
#
# Poissons Ratio (x) = 0.13251 0.13384
# Poissons Ratio (y) = 0.17129 -0.04724
# Poissons Ratio (z) = 0.35791 -0.09772
#
# Static dielectric constant tensor:
#      x y z
#    x 1.662000 0.000000 0.000000 
#    y 0.000000 1.610330 0.000000 
#    z 0.000000 0.000000 1.593850 
# 
# From -- ./inp_files/28424.got.cif
#   From: 2010.05.17/outbox.cif.g08.bks.cpg/sg43_15_cif.got.tgz:28424.got - 2010.06.03 19:21:55.
