data_PCOD9370520
_publ_section_title
;
Structure prediction by ZEFSAII (Michael W. Deem and Ramdas Pophale) SiO2 
 PCOD9370520
Probable space group: F D D 2
;
_chemical_formula_sum "Si O2"
_cell_formula_units_Z 72
_cell_length_a 16.220630
_cell_length_b 27.454553
_cell_length_c 7.081151
_cell_angle_alpha 90.000000
_cell_angle_beta 90.000000
_cell_angle_gamma 90.000000
_cell_volume 3153.450009
_symmetry_space_group_name_H-M "F D D 2"
_symmetry_group_IT_number 43
_symmetry_cell_setting 'orthorhombic'
loop_
_space_group_symop_operation_xyz
x,y,z
-x,-y,z
1/4-x,1/4+y,1/4+z
1/4+x,1/4-y,1/4+z
x,1/2+y,1/2+z
-x,1/2-y,1/2+z
1/4-x,3/4+y,3/4+z
1/4+x,3/4-y,3/4+z
1/2+x,y,1/2+z
1/2-x,-y,1/2+z
3/4-x,1/4+y,3/4+z
3/4+x,1/4-y,3/4+z
1/2+x,1/2+y,z
1/2-x,1/2-y,z
3/4-x,3/4+y,1/4+z
3/4+x,3/4-y,1/4+z
loop_
_atom_site_type_symbol
_atom_site_label
_atom_site_fract_x
_atom_site_fract_y
_atom_site_fract_z
Si Si1 0.500282 0.641477 0.738600
Si Si2 0.304844 0.529236 0.798162
Si Si3 0.659647 0.453612 0.233025
Si Si4 0.500000 0.000000 0.712848
Si Si5 0.835344 0.195247 0.627128
O O1 0.561125 0.652817 0.566269
O O2 0.410503 0.658840 0.674532
O O3 0.510983 0.585714 0.792800
O O4 0.532410 0.677278 0.906744
O O5 0.223184 0.495050 0.806733
O O6 0.376992 0.489559 0.754272
O O7 0.329094 0.547325 0.007178
O O8 0.568723 0.466606 0.306205
O O9 0.554783 0.033227 0.574401
#
# Coordination Sequence:
#
# PCOD9370520 Si02
#       5
#    16  16  16   8  16
#     4  11  23  46  62 101 127 177 215 274 323 397
#     4  10  19  43  69  85 131 177 203 273 320 387
#     4  10  20  40  66  90 128 167 221 255 331 379
#     4  10  20  44  62 102 126 176 214 270 322 394
#     4  10  24  40  68  94 135 167 223 260 336 385
#
# _framework density 22.832136999999999
#
# number of rings (size 3 to 8) (size 9 to 14) (size 15 to 20)
#    0.000    1.778    6.667    0.000    6.222    0.000 
#   12.000    2.222    0.000    0.000    0.000    0.000 
#    0.000    0.000    0.000    0.000    0.000    0.000 
#
# Total GULP energy -100506.273319 kJ/mol
# GULP energy per Si atom -5583.681851 kJ/mol
# Density = 2.278017 g / cm^3
# Si number density = 22.832137 Si / 1000 Ang^3
#
#
#
# Elastic Constant Matrix: (Units=GPa)
#
#
# Indices 1 2 3 4 5 6 
#
# 1 84.0690 4.3804 -9.5146 -0.0001 -0.0004 0.0000
# 2 4.3804 29.8221 -4.0935 -0.0001 0.0001 0.0000
# 3 -9.5146 -4.0935 55.2535 -0.0003 -0.0010 0.0000
# 4 -0.0001 -0.0001 -0.0003 2.3007 0.0001 0.0000
# 5 -0.0004 0.0001 -0.0010 0.0001 24.9103 0.0000
# 6 0.0000 0.0000 0.0000 0.0000 0.0000 31.6487
#
#
#
# Elastic Compliance Matrix: (Units=1/GPa)
#
#
# Indices 1 2 3 4 5 6 
#
# 1 0.012199 -0.001519 0.001988 0.000001 0.000000 0.000000
# 2 -0.001519 0.034066 0.002262 0.000001 0.000000 0.000000
# 3 0.001988 0.002262 0.018608 0.000002 0.000001 0.000000
# 4 0.000001 0.000001 0.000002 0.434650 -0.000002 0.000000
# 5 0.000000 0.000000 0.000001 -0.000002 0.040144 0.000000
# 6 0.000000 0.000000 0.000000 0.000000 0.000000 0.031597
#
#
# Mechanical properties :
#
#
# Convention : Reuss Voigt Hill
#
# Bulk Modulus (GPa) = 14.21743 16.74323 15.48033
# Shear Modulus (GPa) = 8.48540 23.66342 16.07441
#
# Velocity S-wave (km/s) = 1.92990 3.22282 2.65623
# Velocity P-wave (km/s) = 3.34760 4.60412 4.02519
#
# Compressibility (1/GPa) = 0.07033620
#
# Stress axis : x y z
#
# Youngs Moduli (GPa) = 81.97295 29.35492 53.73926
#
# Poissons Ratio (x) = 0.04459 -0.10684
# Poissons Ratio (y) = 0.12451 -0.12157
# Poissons Ratio (z) = -0.16297 -0.06641
#
# Static dielectric constant tensor:
#      x y z
#    x 1.894330 0.000000 0.000000 
#    y 0.000000 1.848620 0.000000 
#    z 0.000000 0.000000 1.879640 
# 
# From -- ./inp_files/2345.got.cif
#   From: 2010.05.17/outbox.cif.g08.bks.cpg/sg43_2_cif.got.tgz:2345.got - 2010.06.03 19:21:55.
