data_PCOD9370061
_publ_section_title
;
Structure prediction by ZEFSAII (Michael W. Deem and Ramdas Pophale) SiO2 
 PCOD9370061
Probable space group: F D D 2
;
_chemical_formula_sum "Si O2"
_cell_formula_units_Z 96
_cell_length_a 11.944247
_cell_length_b 10.021690
_cell_length_c 27.433980
_cell_angle_alpha 90.000000
_cell_angle_beta 90.000000
_cell_angle_gamma 90.000000
_cell_volume 3283.889674
_symmetry_space_group_name_H-M "F D D 2"
_symmetry_group_IT_number 43
_symmetry_cell_setting 'orthorhombic'
loop_
_space_group_symop_operation_xyz
x,y,z
-x,-y,z
1/4-x,1/4+y,1/4+z
1/4+x,1/4-y,1/4+z
x,1/2+y,1/2+z
-x,1/2-y,1/2+z
1/4-x,3/4+y,3/4+z
1/4+x,3/4-y,3/4+z
1/2+x,y,1/2+z
1/2-x,-y,1/2+z
3/4-x,1/4+y,3/4+z
3/4+x,1/4-y,3/4+z
1/2+x,1/2+y,z
1/2-x,1/2-y,z
3/4-x,3/4+y,1/4+z
3/4+x,3/4-y,1/4+z
loop_
_atom_site_type_symbol
_atom_site_label
_atom_site_fract_x
_atom_site_fract_y
_atom_site_fract_z
Si Si1 0.592928 0.656156 0.995610
Si Si2 0.223733 0.071813 0.335067
Si Si3 0.324354 0.564378 0.540464
Si Si4 0.153490 0.140824 0.467591
Si Si5 0.561533 0.259572 0.877080
Si Si6 0.780883 0.401339 0.411312
O O1 0.621741 0.808520 0.013261
O O2 0.602864 0.594206 0.941653
O O3 0.484236 0.640711 0.028808
O O4 0.695580 0.578104 0.021781
O O5 0.249907 0.926071 0.355146
O O6 0.104195 0.123802 0.351645
O O7 0.330389 0.144980 0.364400
O O8 0.375461 0.429766 0.518179
O O9 0.297246 0.559761 0.598467
O O10 0.298228 0.485438 0.436507
O O11 0.250000 0.250000 0.473829
O O12 0.061336 0.214966 0.433801
O O13 0.750000 0.250000 0.423995
#
# Coordination Sequence:
#
# PCOD9370061 Si02
#       6
#    16  16  16  16  16  16
#     4   9  16  30  51  77 105 143 188 241 289 356
#     4   9  17  29  52  77 108 143 187 238 298 347
#     4   9  17  29  51  76 108 143 192 236 290 358
#     4  10  16  30  51  76 104 143 190 235 297 354
#     4   9  16  30  51  77 108 142 190 241 287 361
#     4  10  16  30  52  78 100 143 186 231 294 360
#
# _framework density 29.233623999999999
#
# number of rings (size 3 to 8) (size 9 to 14) (size 15 to 20)
#    0.000    2.667    6.667    0.000    0.000    0.000 
#    0.000    3.333    3.667    4.000    0.000    0.000 
#    0.000    0.000    0.000    0.000    0.000    0.000 
#
# Total GULP energy -133917.296245 kJ/mol
# GULP energy per Si atom -5579.887344 kJ/mol
# Density = 2.916709 g / cm^3
# Si number density = 29.233624 Si / 1000 Ang^3
#
#
#
# Elastic Constant Matrix: (Units=GPa)
#
#
# Indices 1 2 3 4 5 6 
#
# 1 63.7227 35.0326 -2.6586 0.0000 0.0000 0.0000
# 2 35.0326 127.9272 26.6700 0.0000 0.0000 0.0000
# 3 -2.6586 26.6700 227.6698 0.0000 0.0000 0.0000
# 4 0.0000 0.0000 0.0000 28.7040 0.0000 0.0000
# 5 0.0000 0.0000 0.0000 0.0000 31.1166 0.0000
# 6 0.0000 0.0000 0.0000 0.0000 0.0000 59.6658
#
#
#
# Elastic Compliance Matrix: (Units=1/GPa)
#
#
# Indices 1 2 3 4 5 6 
#
# 1 0.018628 -0.005275 0.000836 0.000000 0.000000 0.000000
# 2 -0.005275 0.009507 -0.001175 0.000000 0.000000 0.000000
# 3 0.000836 -0.001175 0.004540 0.000000 0.000000 0.000000
# 4 0.000000 0.000000 0.000000 0.034838 0.000000 0.000000
# 5 0.000000 0.000000 0.000000 0.000000 0.032137 0.000000
# 6 0.000000 0.000000 0.000000 0.000000 0.000000 0.016760
#
#
# Mechanical properties :
#
#
# Convention : Reuss Voigt Hill
#
# Bulk Modulus (GPa) = 46.63281 59.71196 53.17238
# Shear Modulus (GPa) = 37.09517 47.91567 42.50542
#
# Velocity S-wave (km/s) = 3.56606 4.05292 3.81726
# Velocity P-wave (km/s) = 5.73952 6.50935 6.13652
#
# Compressibility (1/GPa) = 0.02144413
#
# Stress axis : x y z
#
# Youngs Moduli (GPa) = 53.68229 105.18970 220.27622
#
# Poissons Ratio (x) = 0.55492 -0.18404
# Poissons Ratio (y) = 0.28320 0.25888
# Poissons Ratio (z) = -0.04485 0.12362
#
# Static dielectric constant tensor:
#      x y z
#    x 2.261130 0.000000 0.000000 
#    y 0.000000 2.407010 0.000000 
#    z 0.000000 0.000000 2.590590 
# 
# From -- ./inp_files/22622.got.cif
#   From: 2010.05.17/outbox.cif.g08.bks.cpg/sg43_12_cif.got.tgz:22622.got - 2010.06.03 19:21:55.
