data_PCOD9370405
_publ_section_title
;
Structure prediction by ZEFSAII (Michael W. Deem and Ramdas Pophale) SiO2 
 PCOD9370405
Probable space group: F D D 2
;
_chemical_formula_sum "Si O2"
_cell_formula_units_Z 104
_cell_length_a 9.332182
_cell_length_b 22.071111
_cell_length_c 26.684282
_cell_angle_alpha 90.000000
_cell_angle_beta 90.000000
_cell_angle_gamma 90.000000
_cell_volume 5496.204920
_symmetry_space_group_name_H-M "F D D 2"
_symmetry_group_IT_number 43
_symmetry_cell_setting 'orthorhombic'
loop_
_space_group_symop_operation_xyz
x,y,z
-x,-y,z
1/4-x,1/4+y,1/4+z
1/4+x,1/4-y,1/4+z
x,1/2+y,1/2+z
-x,1/2-y,1/2+z
1/4-x,3/4+y,3/4+z
1/4+x,3/4-y,3/4+z
1/2+x,y,1/2+z
1/2-x,-y,1/2+z
3/4-x,1/4+y,3/4+z
3/4+x,1/4-y,3/4+z
1/2+x,1/2+y,z
1/2-x,1/2-y,z
3/4-x,3/4+y,1/4+z
3/4+x,3/4-y,1/4+z
loop_
_atom_site_type_symbol
_atom_site_label
_atom_site_fract_x
_atom_site_fract_y
_atom_site_fract_z
Si Si1 0.735166 0.839499 0.241380
Si Si2 0.428593 0.882436 0.382680
Si Si3 0.641451 0.622832 0.673138
Si Si4 0.493531 0.072487 0.271499
Si Si5 0.000000 0.500000 0.941754
Si Si6 0.239857 0.484416 0.517223
Si Si7 0.582663 0.253225 0.378627
O O1 0.738673 0.832906 0.181109
O O2 0.664621 0.902884 0.257275
O O3 0.621581 0.790049 0.261944
O O4 0.890796 0.824609 0.262225
O O5 0.256901 0.879892 0.391820
O O6 0.466758 0.908579 0.328317
O O7 0.481531 0.812869 0.387937
O O8 0.593970 0.607306 0.730576
O O9 0.724052 0.685513 0.665703
O O10 0.725262 0.563108 0.655198
O O11 0.500000 0.000000 0.265888
O O12 0.858250 0.490699 0.974889
O O13 0.319219 0.486509 0.569747
O O14 0.750000 0.250000 0.393934
#
# Coordination Sequence:
#
# PCOD9370405 Si02
#       7
#    16  16  16  16   8  16  16
#     4  10  22  40  57  94 121 157 210 263 297 377
#     4  10  19  37  62  87 119 162 207 248 318 365
#     4  10  22  36  60  93 122 159 210 257 300 386
#     4  11  21  38  64  93 124 163 212 258 312 377
#     4  12  20  40  62  90 126 166 208 260 324 368
#     4  11  21  38  64  86 123 163 208 252 309 379
#     4  10  19  37  64  86 116 165 207 246 306 385
#
# _framework density 18.922146999999999
#
# number of rings (size 3 to 8) (size 9 to 14) (size 15 to 20)
#    0.000    1.538    5.385    2.308    4.308    0.000 
#    5.538    0.000    0.000    2.769    0.000    0.000 
#    0.000    0.000    0.000    0.000    0.000    0.000 
#
# Total GULP energy -144925.126802 kJ/mol
# GULP energy per Si atom -5574.043339 kJ/mol
# Density = 1.887908 g / cm^3
# Si number density = 18.922147 Si / 1000 Ang^3
#
#
#
# Elastic Constant Matrix: (Units=GPa)
#
#
# Indices 1 2 3 4 5 6 
#
# 1 41.5740 19.0839 -6.9121 0.0000 0.0000 0.0000
# 2 19.0839 140.0225 21.8604 0.0000 0.0000 0.0000
# 3 -6.9121 21.8604 89.2500 0.0000 0.0000 0.0000
# 4 0.0000 0.0000 0.0000 21.8484 0.0000 0.0000
# 5 0.0000 0.0000 0.0000 0.0000 11.5789 0.0000
# 6 0.0000 0.0000 0.0000 0.0000 0.0000 29.9247
#
#
#
# Elastic Compliance Matrix: (Units=1/GPa)
#
#
# Indices 1 2 3 4 5 6 
#
# 1 0.026432 -0.004078 0.003046 0.000000 0.000000 0.000000
# 2 -0.004078 0.008055 -0.002289 0.000000 0.000000 0.000000
# 3 0.003046 -0.002289 0.012001 0.000000 0.000000 0.000000
# 4 0.000000 0.000000 0.000000 0.045770 0.000000 0.000000
# 5 0.000000 0.000000 0.000000 0.000000 0.086364 0.000000
# 6 0.000000 0.000000 0.000000 0.000000 0.000000 0.033417
#
#
# Mechanical properties :
#
#
# Convention : Reuss Voigt Hill
#
# Bulk Modulus (GPa) = 25.09664 37.65677 31.37670
# Shear Modulus (GPa) = 21.55525 28.45803 25.00664
#
# Velocity S-wave (km/s) = 3.37880 3.88229 3.63926
# Velocity P-wave (km/s) = 5.33981 6.32774 5.85465
#
# Compressibility (1/GPa) = 0.03984598
#
# Stress axis : x y z
#
# Youngs Moduli (GPa) = 37.83320 124.14926 83.32669
#
# Poissons Ratio (x) = 0.50628 -0.25380
# Poissons Ratio (y) = 0.15428 0.19071
# Poissons Ratio (z) = -0.11524 0.28414
#
# Static dielectric constant tensor:
#      x y z
#    x 1.651600 0.000000 0.000000 
#    y 0.000000 1.767060 0.000000 
#    z 0.000000 0.000000 1.658630 
# 
# From -- ./inp_files/24333.got.cif
#   From: 2010.05.17/outbox.cif.g08.bks.cpg/sg43_13_cif.got.tgz:24333.got - 2010.06.03 19:21:55.
