data_PCOD9370778
_publ_section_title
;
Structure prediction by ZEFSAII (Michael W. Deem and Ramdas Pophale) SiO2 
 PCOD9370778
Probable space group: F D D 2
;
_chemical_formula_sum "Si O2"
_cell_formula_units_Z 112
_cell_length_a 18.016724
_cell_length_b 16.584747
_cell_length_c 20.193794
_cell_angle_alpha 90.000000
_cell_angle_beta 90.000000
_cell_angle_gamma 90.000000
_cell_volume 6033.962378
_symmetry_space_group_name_H-M "F D D 2"
_symmetry_group_IT_number 43
_symmetry_cell_setting 'orthorhombic'
loop_
_space_group_symop_operation_xyz
x,y,z
-x,-y,z
1/4-x,1/4+y,1/4+z
1/4+x,1/4-y,1/4+z
x,1/2+y,1/2+z
-x,1/2-y,1/2+z
1/4-x,3/4+y,3/4+z
1/4+x,3/4-y,3/4+z
1/2+x,y,1/2+z
1/2-x,-y,1/2+z
3/4-x,1/4+y,3/4+z
3/4+x,1/4-y,3/4+z
1/2+x,1/2+y,z
1/2-x,1/2-y,z
3/4-x,3/4+y,1/4+z
3/4+x,3/4-y,1/4+z
loop_
_atom_site_type_symbol
_atom_site_label
_atom_site_fract_x
_atom_site_fract_y
_atom_site_fract_z
Si Si1 0.894071 0.968538 0.529700
Si Si2 0.681682 0.506880 0.345292
Si Si3 0.500000 0.000000 0.150211
Si Si4 0.000000 0.000000 0.148403
Si Si5 0.488460 0.327338 0.467475
Si Si6 0.004109 0.164828 0.220733
Si Si7 0.600946 0.127772 0.194381
Si Si8 0.606295 0.676403 0.337168
O O1 0.929903 0.996764 0.599257
O O2 0.958290 0.915850 0.492242
O O3 0.820762 0.914335 0.515482
O O4 0.863955 0.050907 0.496806
O O5 0.717871 0.483572 0.276183
O O6 0.737798 0.534417 0.403955
O O7 0.646117 0.425728 0.374793
O O8 0.625633 0.580962 0.337897
O O9 0.475433 0.923289 0.194548
O O10 0.068313 0.972880 0.103125
O O11 0.980070 0.924727 0.194869
O O12 0.575770 0.325371 0.454564
O O13 0.446892 0.308349 0.399498
O O14 0.068146 0.197027 0.268089
#
# Coordination Sequence:
#
# PCOD9370778 Si02
#       8
#    16  16   8   8  16  16  16  16
#     4  11  20  37  57  90 121 156 204 266 308 373
#     4  10  22  38  57  92 126 149 205 269 309 370
#     4  12  22  36  59  89 126 160 196 266 312 382
#     4  10  20  40  57  91 122 156 216 264 324 368
#     4  12  20  36  61  89 120 160 201 258 319 371
#     4  10  22  38  59  89 126 160 203 265 322 379
#     4  11  21  35  57  84 124 158 200 242 323 369
#     4  11  22  34  63  88 119 164 201 262 317 380
#
# _framework density 18.561599999999999
#
# number of rings (size 3 to 8) (size 9 to 14) (size 15 to 20)
#    0.000    1.143    7.143    1.714    0.000    0.000 
#    0.000    5.714    0.000    4.286    0.000    0.000 
#    0.000    0.000    0.000    0.000    0.000    0.000 
#
# Total GULP energy -155962.088361 kJ/mol
# GULP energy per Si atom -5570.074584 kJ/mol
# Density = 1.851935 g / cm^3
# Si number density = 18.561600 Si / 1000 Ang^3
#
#
#
# Elastic Constant Matrix: (Units=GPa)
#
#
# Indices 1 2 3 4 5 6 
#
# 1 46.8808 17.4984 23.1388 0.0000 0.0000 0.0000
# 2 17.4984 62.3242 26.9915 0.0000 0.0000 0.0000
# 3 23.1388 26.9915 102.2928 0.0000 0.0000 0.0000
# 4 0.0000 0.0000 0.0000 17.1348 0.0000 0.0000
# 5 0.0000 0.0000 0.0000 0.0000 34.5487 0.0000
# 6 0.0000 0.0000 0.0000 0.0000 0.0000 16.8533
#
#
#
# Elastic Compliance Matrix: (Units=1/GPa)
#
#
# Indices 1 2 3 4 5 6 
#
# 1 0.025448 -0.005252 -0.004371 0.000000 0.000000 0.000000
# 2 -0.005252 0.019199 -0.003878 0.000000 0.000000 0.000000
# 3 -0.004371 -0.003878 0.011788 0.000000 0.000000 0.000000
# 4 0.000000 0.000000 0.000000 0.058361 0.000000 0.000000
# 5 0.000000 0.000000 0.000000 0.000000 0.028945 0.000000
# 6 0.000000 0.000000 0.000000 0.000000 0.000000 0.059335
#
#
# Mechanical properties :
#
#
# Convention : Reuss Voigt Hill
#
# Bulk Modulus (GPa) = 33.97448 38.52836 36.25142
# Shear Modulus (GPa) = 20.84299 23.29863 22.07081
#
# Velocity S-wave (km/s) = 3.35462 3.54673 3.45201
# Velocity P-wave (km/s) = 5.77477 6.12980 5.95493
#
# Compressibility (1/GPa) = 0.02943386
#
# Stress axis : x y z
#
# Youngs Moduli (GPa) = 39.29543 52.08543 84.83382
#
# Poissons Ratio (x) = 0.27356 0.37077
# Poissons Ratio (y) = 0.20639 0.32898
# Poissons Ratio (z) = 0.17174 0.20199
#
# Static dielectric constant tensor:
#      x y z
#    x 1.655150 0.000000 0.000000 
#    y 0.000000 1.703080 0.000000 
#    z 0.000000 0.000000 1.688110 
# 
# From -- ./inp_files/18062.got.cif
#   From: 2010.05.17/outbox.cif.g08.bks.cpg/sg43_10_cif.got.tgz:18062.got - 2010.06.03 19:21:55.
