data_PCOD9370322
_publ_section_title
;
Structure prediction by ZEFSAII (Michael W. Deem and Ramdas Pophale) SiO2 
 PCOD9370322
Probable space group: F D D 2
;
_chemical_formula_sum "Si O2"
_cell_formula_units_Z 112
_cell_length_a 12.117755
_cell_length_b 15.214993
_cell_length_c 28.711138
_cell_angle_alpha 90.000000
_cell_angle_beta 90.000000
_cell_angle_gamma 90.000000
_cell_volume 5293.517231
_symmetry_space_group_name_H-M "F D D 2"
_symmetry_group_IT_number 43
_symmetry_cell_setting 'orthorhombic'
loop_
_space_group_symop_operation_xyz
x,y,z
-x,-y,z
1/4-x,1/4+y,1/4+z
1/4+x,1/4-y,1/4+z
x,1/2+y,1/2+z
-x,1/2-y,1/2+z
1/4-x,3/4+y,3/4+z
1/4+x,3/4-y,3/4+z
1/2+x,y,1/2+z
1/2-x,-y,1/2+z
3/4-x,1/4+y,3/4+z
3/4+x,1/4-y,3/4+z
1/2+x,1/2+y,z
1/2-x,1/2-y,z
3/4-x,3/4+y,1/4+z
3/4+x,3/4-y,1/4+z
loop_
_atom_site_type_symbol
_atom_site_label
_atom_site_fract_x
_atom_site_fract_y
_atom_site_fract_z
Si Si1 0.395548 0.432249 0.847180
Si Si2 0.457153 0.098169 0.529768
Si Si3 0.470175 0.602933 0.308724
Si Si4 0.734424 0.854763 0.660522
Si Si5 0.266496 0.357810 0.179593
Si Si6 0.761736 0.086237 0.881079
Si Si7 0.261142 0.355854 0.763510
O O1 0.500000 0.500000 0.838247
O O2 0.438985 0.365623 0.886804
O O3 0.295991 0.484499 0.873240
O O4 0.352543 0.389296 0.799982
O O5 0.324503 0.102137 0.533557
O O6 0.496228 0.142543 0.481662
O O7 0.504839 0.135661 0.577382
O O8 0.500000 0.000000 0.528415
O O9 0.500000 0.500000 0.311612
O O10 0.463683 0.637315 0.362005
O O11 0.356893 0.611446 0.281848
O O12 0.750000 0.750000 0.661466
O O13 0.602441 0.862716 0.654579
O O14 0.777270 0.887157 0.710226
O O15 0.250000 0.250000 0.182612
O O16 0.389226 0.375509 0.161137
O O17 0.250000 0.250000 0.763889
#
# Coordination Sequence:
#
# PCOD9370322 Si02
#       7
#    16  16  16  16  16  16  16
#     4   9  19  37  57  76 108 151 189 224 272 340
#     4  10  19  33  57  85 107 137 187 242 279 317
#     4  10  21  39  58  79 111 150 184 223 279 343
#     4   9  18  33  55  76 105 149 183 209 269 349
#     4   8  17  33  53  75 103 140 180 222 276 333
#     4   9  17  34  55  76 104 141 184 223 269 335
#     4  11  22  37  56  83 113 144 185 233 276 323
#
# _framework density 21.157955000000001
#
# number of rings (size 3 to 8) (size 9 to 14) (size 15 to 20)
#    0.000    2.857    0.000    3.429    0.000    2.286 
#    0.000   21.429    0.000    0.857    0.000    0.000 
#    0.000    0.000    0.000    0.000    0.000    0.000 
#
# Total GULP energy -156047.187371 kJ/mol
# GULP energy per Si atom -5573.113835 kJ/mol
# Density = 2.110980 g / cm^3
# Si number density = 21.157955 Si / 1000 Ang^3
#
#
#
# Elastic Constant Matrix: (Units=GPa)
#
#
# Indices 1 2 3 4 5 6 
#
# 1 40.3292 10.2674 35.4975 0.0000 0.0000 0.0000
# 2 10.2674 25.7420 13.3436 0.0000 0.0000 0.0000
# 3 35.4975 13.3436 164.3805 0.0000 0.0000 0.0000
# 4 0.0000 0.0000 0.0000 34.7145 0.0000 0.0000
# 5 0.0000 0.0000 0.0000 0.0000 -50.4952 0.0000
# 6 0.0000 0.0000 0.0000 0.0000 0.0000 22.6882
#
#
#
# Elastic Compliance Matrix: (Units=1/GPa)
#
#
# Indices 1 2 3 4 5 6 
#
# 1 0.032839 -0.009836 -0.006293 0.000000 0.000000 0.000000
# 2 -0.009836 0.043500 -0.001407 0.000000 0.000000 0.000000
# 3 -0.006293 -0.001407 0.007557 0.000000 0.000000 0.000000
# 4 0.000000 0.000000 0.000000 0.028806 0.000000 0.000000
# 5 0.000000 0.000000 0.000000 0.000000 -0.019804 0.000000
# 6 0.000000 0.000000 0.000000 0.000000 0.000000 0.044076
#
#
# Mechanical properties :
#
#
# Convention : Reuss Voigt Hill
#
# Bulk Modulus (GPa) = 20.48215 38.74098 29.61157
# Shear Modulus (GPa) = 26.55047 12.80437 19.67742
#
# Velocity S-wave (km/s) = 3.54626 2.46271 3.05294
# Velocity P-wave (km/s) = 5.14485 5.14166 5.14326
#
# Compressibility (1/GPa) = 0.04882299
#
# Stress axis : x y z
#
# Youngs Moduli (GPa) = 30.45136 22.98873 132.33395
#
# Poissons Ratio (x) = 0.22612 0.83279
# Poissons Ratio (y) = 0.29952 0.18619
# Poissons Ratio (z) = 0.19163 0.03234
#
# Static dielectric constant tensor:
#      x y z
#    x 2.252570 0.000000 0.000000 
#    y 0.000000 1.833300 0.000000 
#    z 0.000000 0.000000 1.811410 
# 
# From -- ./inp_files/28619.got.cif
#   From: 2010.05.17/outbox.cif.g08.bks.cpg/sg43_15_cif.got.tgz:28619.got - 2010.06.03 19:21:55.
