data_PCOD9370832
_publ_section_title
;
Structure prediction by ZEFSAII (Michael W. Deem and Ramdas Pophale) SiO2 
 PCOD9370832
Probable space group: F D D 2
;
_chemical_formula_sum "Si O2"
_cell_formula_units_Z 104
_cell_length_a 25.707391
_cell_length_b 11.845908
_cell_length_c 14.184339
_cell_angle_alpha 90.000000
_cell_angle_beta 90.000000
_cell_angle_gamma 90.000000
_cell_volume 4319.519716
_symmetry_space_group_name_H-M "F D D 2"
_symmetry_group_IT_number 43
_symmetry_cell_setting 'orthorhombic'
loop_
_space_group_symop_operation_xyz
x,y,z
-x,-y,z
1/4-x,1/4+y,1/4+z
1/4+x,1/4-y,1/4+z
x,1/2+y,1/2+z
-x,1/2-y,1/2+z
1/4-x,3/4+y,3/4+z
1/4+x,3/4-y,3/4+z
1/2+x,y,1/2+z
1/2-x,-y,1/2+z
3/4-x,1/4+y,3/4+z
3/4+x,1/4-y,3/4+z
1/2+x,1/2+y,z
1/2-x,1/2-y,z
3/4-x,3/4+y,1/4+z
3/4+x,3/4-y,1/4+z
loop_
_atom_site_type_symbol
_atom_site_label
_atom_site_fract_x
_atom_site_fract_y
_atom_site_fract_z
Si Si1 0.329117 0.539790 0.040700
Si Si2 0.811276 0.611930 0.081197
Si Si3 0.000000 0.000000 0.676231
Si Si4 0.456272 0.909425 0.541890
Si Si5 0.722077 0.638166 0.561870
Si Si6 0.824109 0.918597 0.851984
Si Si7 0.381048 0.989340 0.702321
O O1 0.273963 0.594705 0.009493
O O2 0.327138 0.523981 0.153695
O O3 0.335445 0.444052 0.962991
O O4 0.372620 0.636025 0.023523
O O5 0.775346 0.657681 0.996753
O O6 0.799911 0.673584 0.179915
O O7 0.800479 0.479564 0.102162
O O8 0.870477 0.644205 0.054662
O O9 0.958435 0.055955 0.607905
O O10 0.458111 0.774458 0.561227
O O11 0.500000 0.000000 0.571575
O O12 0.406737 0.940443 0.606539
O O13 0.750000 0.750000 0.609769
O O14 0.672720 0.678518 0.499652
#
# Coordination Sequence:
#
# PCOD9370832 Si02
#       7
#    16  16   8  16  16  16  16
#     4  10  20  40  68  95 131 171 233 289 338 418
#     4  12  24  44  75 101 142 190 243 297 367 441
#     4  12  26  46  72 102 148 190 234 310 380 422
#     4  11  23  42  72  99 132 182 247 295 345 433
#     4  10  23  46  66 101 141 185 231 298 362 423
#     4  11  24  45  68 104 146 184 242 303 368 433
#     4  10  21  39  68  96 128 177 228 292 346 416
#
# _framework density 24.076751000000002
#
# number of rings (size 3 to 8) (size 9 to 14) (size 15 to 20)
#    0.000    1.231    3.846    3.231    2.154    1.231 
#   12.462    0.000    0.000    0.000    0.000    0.000 
#    0.000    0.000    0.000    0.000    0.000    0.000 
#
# Total GULP energy -144787.893354 kJ/mol
# GULP energy per Si atom -5568.765129 kJ/mol
# Density = 2.402195 g / cm^3
# Si number density = 24.076751 Si / 1000 Ang^3
#
#
#
# Elastic Constant Matrix: (Units=GPa)
#
#
# Indices 1 2 3 4 5 6 
#
# 1 58.3439 29.0041 6.0358 0.0000 0.0000 0.0000
# 2 29.0041 103.9566 7.4609 0.0000 0.0000 0.0000
# 3 6.0358 7.4609 32.0201 0.0000 0.0000 0.0000
# 4 0.0000 0.0000 0.0000 32.7011 0.0000 0.0000
# 5 0.0000 0.0000 0.0000 0.0000 15.0302 0.0000
# 6 0.0000 0.0000 0.0000 0.0000 0.0000 32.4260
#
#
#
# Elastic Compliance Matrix: (Units=1/GPa)
#
#
# Indices 1 2 3 4 5 6 
#
# 1 0.020098 -0.005426 -0.002524 0.000000 0.000000 0.000000
# 2 -0.005426 0.011248 -0.001598 0.000000 0.000000 0.000000
# 3 -0.002524 -0.001598 0.032079 0.000000 0.000000 0.000000
# 4 0.000000 0.000000 0.000000 0.030580 0.000000 0.000000
# 5 0.000000 0.000000 0.000000 0.000000 0.066533 0.000000
# 6 0.000000 0.000000 0.000000 0.000000 0.000000 0.030839
#
#
# Mechanical properties :
#
#
# Convention : Reuss Voigt Hill
#
# Bulk Modulus (GPa) = 22.55913 31.03580 26.79747
# Shear Modulus (GPa) = 22.19753 26.15278 24.17515
#
# Velocity S-wave (km/s) = 3.03965 3.29937 3.17217
# Velocity P-wave (km/s) = 4.65933 5.23763 4.95692
#
# Compressibility (1/GPa) = 0.04432795
#
# Stress axis : x y z
#
# Youngs Moduli (GPa) = 49.75507 88.90430 31.17347
#
# Poissons Ratio (x) = 0.48243 0.07869
# Poissons Ratio (y) = 0.26999 0.04981
# Poissons Ratio (z) = 0.12559 0.14207
#
# Static dielectric constant tensor:
#      x y z
#    x 2.151880 0.000000 0.000000 
#    y 0.000000 2.119530 0.000000 
#    z 0.000000 0.000000 2.005100 
# 
# From -- ./inp_files/15064.got.cif
#   From: 2010.05.17/outbox.cif.g08.bks.cpg/sg43_8_cif.got.tgz:15064.got - 2010.06.03 19:21:55.
