data_PCOD9370851
_publ_section_title
;
Structure prediction by ZEFSAII (Michael W. Deem and Ramdas Pophale) SiO2 
 PCOD9370851
Probable space group: F D D 2
;
_chemical_formula_sum "Si O2"
_cell_formula_units_Z 120
_cell_length_a 23.249767
_cell_length_b 8.744275
_cell_length_c 26.797105
_cell_angle_alpha 90.000000
_cell_angle_beta 90.000000
_cell_angle_gamma 90.000000
_cell_volume 5447.914589
_symmetry_space_group_name_H-M "F D D 2"
_symmetry_group_IT_number 43
_symmetry_cell_setting 'orthorhombic'
loop_
_space_group_symop_operation_xyz
x,y,z
-x,-y,z
1/4-x,1/4+y,1/4+z
1/4+x,1/4-y,1/4+z
x,1/2+y,1/2+z
-x,1/2-y,1/2+z
1/4-x,3/4+y,3/4+z
1/4+x,3/4-y,3/4+z
1/2+x,y,1/2+z
1/2-x,-y,1/2+z
3/4-x,1/4+y,3/4+z
3/4+x,1/4-y,3/4+z
1/2+x,1/2+y,z
1/2-x,1/2-y,z
3/4-x,3/4+y,1/4+z
3/4+x,3/4-y,1/4+z
loop_
_atom_site_type_symbol
_atom_site_label
_atom_site_fract_x
_atom_site_fract_y
_atom_site_fract_z
Si Si1 0.673739 0.521135 0.402990
Si Si2 0.697681 0.136359 0.187751
Si Si3 0.917996 0.198455 0.713202
Si Si4 0.358036 0.482464 0.777692
Si Si5 0.252289 0.432122 0.114601
Si Si6 0.387102 0.414178 0.125507
Si Si7 0.785793 0.505517 0.014428
Si Si8 0.500000 0.000000 0.145686
O O1 0.610930 0.447250 0.412241
O O2 0.671036 0.677439 0.372602
O O3 0.694254 0.560321 0.460416
O O4 0.717203 0.401033 0.376445
O O5 0.750000 0.250000 0.178186
O O6 0.686465 0.120453 0.247149
O O7 0.717232 0.975845 0.163869
O O8 0.865467 0.133049 0.744152
O O9 0.900709 0.338282 0.678699
O O10 0.968694 0.224063 0.752486
O O11 0.947940 0.071038 0.678242
O O12 0.348360 0.537767 0.833537
O O13 0.419001 0.394166 0.771868
O O14 0.250000 0.250000 0.102986
O O15 0.320070 0.458126 0.120804
O O16 0.221829 0.539662 0.072461
#
# Coordination Sequence:
#
# PCOD9370851 Si02
#       8
#    16  16  16  16  16  16  16   8
#     4  10  23  44  66 105 139 184 237 306 360 424
#     4  11  23  43  70 101 151 183 229 304 373 430
#     4  11  19  40  70 101 128 185 229 305 343 420
#     4  11  21  42  69 101 139 193 237 286 362 449
#     4  12  22  39  72 108 132 192 247 293 359 438
#     4  12  25  39  70 105 147 177 246 309 363 426
#     4  10  20  40  72  96 134 180 250 284 346 436
#     4  10  20  40  76  88 132 182 236 276 360 416
#
# _framework density 22.026778
#
# number of rings (size 3 to 8) (size 9 to 14) (size 15 to 20)
#    0.000    1.067    8.000    0.800    0.933    2.133 
#    6.000    0.000   20.533    0.000    0.000    0.000 
#    0.000    0.000    0.000    0.000    0.000    0.000 
#
# Total GULP energy -167005.639634 kJ/mol
# GULP energy per Si atom -5566.854654 kJ/mol
# Density = 2.197664 g / cm^3
# Si number density = 22.026778 Si / 1000 Ang^3
#
#
#
# Elastic Constant Matrix: (Units=GPa)
#
#
# Indices 1 2 3 4 5 6 
#
# 1 73.7260 14.9487 25.6450 0.0000 0.0000 0.0000
# 2 14.9487 37.4510 18.4114 0.0000 0.0000 0.0000
# 3 25.6450 18.4114 60.4087 0.0000 0.0000 0.0000
# 4 0.0000 0.0000 0.0000 25.4941 0.0000 0.0000
# 5 0.0000 0.0000 0.0000 0.0000 28.9489 0.0000
# 6 0.0000 0.0000 0.0000 0.0000 0.0000 21.8678
#
#
#
# Elastic Compliance Matrix: (Units=1/GPa)
#
#
# Indices 1 2 3 4 5 6 
#
# 1 0.016329 -0.003658 -0.005817 0.000000 0.000000 0.000000
# 2 -0.003658 0.032227 -0.008269 0.000000 0.000000 0.000000
# 3 -0.005817 -0.008269 0.021544 0.000000 0.000000 0.000000
# 4 0.000000 0.000000 0.000000 0.039225 0.000000 0.000000
# 5 0.000000 0.000000 0.000000 0.000000 0.034544 0.000000
# 6 0.000000 0.000000 0.000000 0.000000 0.000000 0.045729
#
#
# Mechanical properties :
#
#
# Convention : Reuss Voigt Hill
#
# Bulk Modulus (GPa) = 28.89268 32.17732 30.53500
# Shear Modulus (GPa) = 21.13068 22.76754 21.94911
#
# Velocity S-wave (km/s) = 3.10065 3.21850 3.16012
# Velocity P-wave (km/s) = 5.09551 5.33401 5.21612
#
# Compressibility (1/GPa) = 0.03461084
#
# Stress axis : x y z
#
# Youngs Moduli (GPa) = 61.24118 31.02999 46.41721
#
# Poissons Ratio (x) = 0.11351 0.27002
# Poissons Ratio (y) = 0.22402 0.38383
# Poissons Ratio (z) = 0.35625 0.25659
#
# Static dielectric constant tensor:
#      x y z
#    x 1.817190 0.000000 0.000000 
#    y 0.000000 1.853750 0.000000 
#    z 0.000000 0.000000 1.827520 
# 
# From -- ./inp_files/26593.got.cif
#   From: 2010.05.17/outbox.cif.g08.bks.cpg/sg43_14_cif.got.tgz:26593.got - 2010.06.03 19:21:55.
