data_PCOD9370962
_publ_section_title
;
Structure prediction by ZEFSAII (Michael W. Deem and Ramdas Pophale) SiO2 
 PCOD9370962
Probable space group: F D D 2
;
_chemical_formula_sum "Si O2"
_cell_formula_units_Z 96
_cell_length_a 15.364761
_cell_length_b 26.109021
_cell_length_c 9.908022
_cell_angle_alpha 90.000000
_cell_angle_beta 90.000000
_cell_angle_gamma 90.000000
_cell_volume 3974.690886
_symmetry_space_group_name_H-M "F D D 2"
_symmetry_group_IT_number 43
_symmetry_cell_setting 'orthorhombic'
loop_
_space_group_symop_operation_xyz
x,y,z
-x,-y,z
1/4-x,1/4+y,1/4+z
1/4+x,1/4-y,1/4+z
x,1/2+y,1/2+z
-x,1/2-y,1/2+z
1/4-x,3/4+y,3/4+z
1/4+x,3/4-y,3/4+z
1/2+x,y,1/2+z
1/2-x,-y,1/2+z
3/4-x,1/4+y,3/4+z
3/4+x,1/4-y,3/4+z
1/2+x,1/2+y,z
1/2-x,1/2-y,z
3/4-x,3/4+y,1/4+z
3/4+x,3/4-y,1/4+z
loop_
_atom_site_type_symbol
_atom_site_label
_atom_site_fract_x
_atom_site_fract_y
_atom_site_fract_z
Si Si1 0.500000 0.500000 0.271821
Si Si2 0.555291 0.595906 0.457713
Si Si3 0.690273 0.588687 0.895945
Si Si4 0.500432 0.907177 0.361617
Si Si5 0.679100 0.530695 0.626610
Si Si6 0.387137 0.799975 0.819450
Si Si7 0.250000 0.250000 0.912934
O O1 0.529220 0.547966 0.364589
O O2 0.577119 0.480599 0.174511
O O3 0.475152 0.615902 0.547878
O O4 0.637403 0.580119 0.550978
O O5 0.584152 0.645446 0.377594
O O6 0.590034 0.594107 0.940429
O O7 0.697813 0.541794 0.786984
O O8 0.738275 0.602950 0.035776
O O9 0.579411 0.932379 0.443308
O O10 0.483365 0.950599 0.251323
O O11 0.771536 0.519688 0.556165
O O12 0.597224 0.492774 0.601897
#
# Coordination Sequence:
#
# PCOD9370962 Si02
#       7
#     8  16  16  16  16  16   8
#     4  12  28  46  76 106 156 206 262 318 394 466
#     4  11  23  46  72 104 142 196 254 311 377 469
#     4  10  21  41  70 101 134 195 234 302 377 457
#     4  11  24  41  70  99 144 185 240 304 383 443
#     4  10  22  43  69  99 137 184 245 299 372 453
#     4  11  26  46  68 108 149 192 248 324 383 457
#     4  10  20  44  64  96 132 176 244 298 344 458
#
# _framework density 24.152822
#
# number of rings (size 3 to 8) (size 9 to 14) (size 15 to 20)
#    0.000    1.333    3.333    3.000    7.000    1.333 
#    0.000    1.667    0.000    0.000    0.000    0.000 
#    0.000    0.000    0.000    0.000    0.000    0.000 
#
# Total GULP energy -133702.996372 kJ/mol
# GULP energy per Si atom -5570.958182 kJ/mol
# Density = 2.409785 g / cm^3
# Si number density = 24.152822 Si / 1000 Ang^3
#
#
#
# Elastic Constant Matrix: (Units=GPa)
#
#
# Indices 1 2 3 4 5 6 
#
# 1 150.6107 2.3836 19.5549 0.0000 0.0000 0.0000
# 2 2.3836 69.0577 -3.2225 0.0000 0.0000 0.0000
# 3 19.5549 -3.2225 44.9522 0.0000 0.0000 0.0000
# 4 0.0000 0.0000 0.0000 19.5472 0.0000 0.0000
# 5 0.0000 0.0000 0.0000 0.0000 32.1437 0.0000
# 6 0.0000 0.0000 0.0000 0.0000 0.0000 42.6849
#
#
#
# Elastic Compliance Matrix: (Units=1/GPa)
#
#
# Indices 1 2 3 4 5 6 
#
# 1 0.007047 -0.000388 -0.003094 0.000000 0.000000 0.000000
# 2 -0.000388 0.014551 0.001212 0.000000 0.000000 0.000000
# 3 -0.003094 0.001212 0.023678 0.000000 0.000000 0.000000
# 4 0.000000 0.000000 0.000000 0.051158 0.000000 0.000000
# 5 0.000000 0.000000 0.000000 0.000000 0.031110 0.000000
# 6 0.000000 0.000000 0.000000 0.000000 0.000000 0.023428
#
#
# Mechanical properties :
#
#
# Convention : Reuss Voigt Hill
#
# Bulk Modulus (GPa) = 24.54736 33.56140 29.05438
# Shear Modulus (GPa) = 29.56998 35.26880 32.41939
#
# Velocity S-wave (km/s) = 3.50278 3.82545 3.66766
# Velocity P-wave (km/s) = 5.15215 5.78253 5.47642
#
# Compressibility (1/GPa) = 0.04073758
#
# Stress axis : x y z
#
# Youngs Moduli (GPa) = 141.89576 68.72588 42.23252
#
# Poissons Ratio (x) = 0.02664 0.13065
# Poissons Ratio (y) = 0.05500 -0.05117
# Poissons Ratio (z) = 0.43896 -0.08328
#
# Static dielectric constant tensor:
#      x y z
#    x 2.018800 0.000000 0.000000 
#    y 0.000000 1.949900 0.000000 
#    z 0.000000 0.000000 2.001580 
# 
# From -- ./inp_files/6276.got.cif
#   From: 2010.05.17/outbox.cif.g08.bks.cpg/sg43_4_cif.got.tgz:6276.got - 2010.06.03 19:21:55.
