data_PCOD9370462
_publ_section_title
;
Structure prediction by ZEFSAII (Michael W. Deem and Ramdas Pophale) SiO2 
 PCOD9370462
Probable space group: F D D 2
;
_chemical_formula_sum "Si O2"
_cell_formula_units_Z 120
_cell_length_a 15.264855
_cell_length_b 14.920989
_cell_length_c 22.975667
_cell_angle_alpha 90.000000
_cell_angle_beta 90.000000
_cell_angle_gamma 90.000000
_cell_volume 5233.092624
_symmetry_space_group_name_H-M "F D D 2"
_symmetry_group_IT_number 43
_symmetry_cell_setting 'orthorhombic'
loop_
_space_group_symop_operation_xyz
x,y,z
-x,-y,z
1/4-x,1/4+y,1/4+z
1/4+x,1/4-y,1/4+z
x,1/2+y,1/2+z
-x,1/2-y,1/2+z
1/4-x,3/4+y,3/4+z
1/4+x,3/4-y,3/4+z
1/2+x,y,1/2+z
1/2-x,-y,1/2+z
3/4-x,1/4+y,3/4+z
3/4+x,1/4-y,3/4+z
1/2+x,1/2+y,z
1/2-x,1/2-y,z
3/4-x,3/4+y,1/4+z
3/4+x,3/4-y,1/4+z
loop_
_atom_site_type_symbol
_atom_site_label
_atom_site_fract_x
_atom_site_fract_y
_atom_site_fract_z
Si Si1 0.460052 0.199114 0.953260
Si Si2 0.654420 0.287579 0.567409
Si Si3 0.860326 0.407193 0.962731
Si Si4 0.187589 0.612962 0.077722
Si Si5 0.051776 0.595154 0.438959
Si Si6 0.313628 0.140318 0.316662
Si Si7 0.750000 0.250000 0.912649
Si Si8 0.870174 0.946239 0.335445
O O1 0.543437 0.135557 0.961541
O O2 0.417422 0.173232 0.891484
O O3 0.487487 0.304320 0.947594
O O4 0.397404 0.186647 0.009038
O O5 0.750000 0.250000 0.551095
O O6 0.656371 0.350238 0.624330
O O7 0.606598 0.198642 0.590149
O O8 0.788984 0.329230 0.950146
O O9 0.855489 0.463844 0.904131
O O10 0.835761 0.451024 0.023894
O O11 0.289515 0.642178 0.077789
O O12 0.133703 0.703792 0.062280
O O13 0.098769 0.585531 0.502590
O O14 0.000000 0.500000 0.436128
O O15 0.322049 0.213197 0.367096
O O16 0.210583 0.112343 0.312164
#
# Coordination Sequence:
#
# PCOD9370462 Si02
#       8
#    16  16  16  16  16  16   8  16
#     4  10  23  42  62  86 130 164 215 269 309 382
#     4  10  23  41  57  87 127 167 212 255 305 391
#     4  10  21  36  61  94 118 160 208 258 327 376
#     4  10  19  39  62  86 124 159 201 261 317 377
#     4  10  21  39  63  88 120 168 207 255 325 373
#     4  10  20  41  61  94 127 160 209 263 331 386
#     4  10  20  34  66 100 126 150 200 282 326 396
#     4   9  20  37  60  92 121 153 202 262 318 378
#
# _framework density 22.930990000000001
#
# number of rings (size 3 to 8) (size 9 to 14) (size 15 to 20)
#    0.000    2.133    0.667    2.400    3.733    1.067 
#   14.400    0.000    0.000    0.000    0.000    0.000 
#    0.000    0.000    0.000    0.000    0.000    0.000 
#
# Total GULP energy -167199.030267 kJ/mol
# GULP energy per Si atom -5573.301009 kJ/mol
# Density = 2.287880 g / cm^3
# Si number density = 22.930990 Si / 1000 Ang^3
#
#
#
# Elastic Constant Matrix: (Units=GPa)
#
#
# Indices 1 2 3 4 5 6 
#
# 1 40.9690 -3.0628 17.0290 0.0000 0.0000 0.0000
# 2 -3.0628 36.6413 10.7851 0.0000 0.0000 0.0000
# 3 17.0290 10.7851 185.2233 0.0000 0.0000 0.0000
# 4 0.0000 0.0000 0.0000 20.2134 0.0000 0.0000
# 5 0.0000 0.0000 0.0000 0.0000 6.1173 0.0000
# 6 0.0000 0.0000 0.0000 0.0000 0.0000 15.1197
#
#
#
# Elastic Compliance Matrix: (Units=1/GPa)
#
#
# Indices 1 2 3 4 5 6 
#
# 1 0.025676 0.002891 -0.002529 0.000000 0.000000 0.000000
# 2 0.002891 0.028093 -0.001902 0.000000 0.000000 0.000000
# 3 -0.002529 -0.001902 0.005742 0.000000 0.000000 0.000000
# 4 0.000000 0.000000 0.000000 0.049472 0.000000 0.000000
# 5 0.000000 0.000000 0.000000 0.000000 0.163472 0.000000
# 6 0.000000 0.000000 0.000000 0.000000 0.000000 0.066139
#
#
# Mechanical properties :
#
#
# Convention : Reuss Voigt Hill
#
# Bulk Modulus (GPa) = 17.72069 34.70403 26.21236
# Shear Modulus (GPa) = 13.87024 24.16222 19.01623
#
# Velocity S-wave (km/s) = 2.46208 3.24958 2.88285
# Velocity P-wave (km/s) = 3.97832 5.40802 4.74730
#
# Compressibility (1/GPa) = 0.05643120
#
# Stress axis : x y z
#
# Youngs Moduli (GPa) = 38.94701 35.59614 174.15197
#
# Poissons Ratio (x) = -0.10289 0.44041
# Poissons Ratio (y) = -0.11258 0.33116
# Poissons Ratio (z) = 0.09849 0.06769
#
# Static dielectric constant tensor:
#      x y z
#    x 1.626360 0.000000 0.000000 
#    y 0.000000 1.874920 0.000000 
#    z 0.000000 0.000000 1.901830 
# 
# From -- ./inp_files/21830.got.cif
#   From: 2010.05.17/outbox.cif.g08.bks.cpg/sg43_11_cif.got.tgz:21830.got - 2010.06.03 19:21:55.
