data_PCOD9370513
_publ_section_title
;
Structure prediction by ZEFSAII (Michael W. Deem and Ramdas Pophale) SiO2 
 PCOD9370513
Probable space group: F D D 2
;
_chemical_formula_sum "Si O2"
_cell_formula_units_Z 112
_cell_length_a 26.223197
_cell_length_b 14.922026
_cell_length_c 11.851293
_cell_angle_alpha 90.000000
_cell_angle_beta 90.000000
_cell_angle_gamma 90.000000
_cell_volume 4637.449200
_symmetry_space_group_name_H-M "F D D 2"
_symmetry_group_IT_number 43
_symmetry_cell_setting 'orthorhombic'
loop_
_space_group_symop_operation_xyz
x,y,z
-x,-y,z
1/4-x,1/4+y,1/4+z
1/4+x,1/4-y,1/4+z
x,1/2+y,1/2+z
-x,1/2-y,1/2+z
1/4-x,3/4+y,3/4+z
1/4+x,3/4-y,3/4+z
1/2+x,y,1/2+z
1/2-x,-y,1/2+z
3/4-x,1/4+y,3/4+z
3/4+x,1/4-y,3/4+z
1/2+x,1/2+y,z
1/2-x,1/2-y,z
3/4-x,3/4+y,1/4+z
3/4+x,3/4-y,1/4+z
loop_
_atom_site_type_symbol
_atom_site_label
_atom_site_fract_x
_atom_site_fract_y
_atom_site_fract_z
Si Si1 0.516274 0.103595 0.418200
Si Si2 0.178035 0.304188 0.477026
Si Si3 0.362368 0.530454 0.420081
Si Si4 0.467738 0.630333 0.145581
Si Si5 0.132139 0.408628 0.297074
Si Si6 0.271836 0.647524 0.403839
Si Si7 0.079401 0.353417 0.094004
O O1 0.481068 0.148581 0.514546
O O2 0.571695 0.119181 0.472519
O O3 0.519797 0.128439 0.286992
O O4 0.500000 0.000000 0.418884
O O5 0.154933 0.265135 0.590795
O O6 0.229656 0.364413 0.467312
O O7 0.190823 0.216127 0.404088
O O8 0.134784 0.362260 0.417207
O O9 0.319701 0.455181 0.443448
O O10 0.328805 0.614489 0.370249
O O11 0.393635 0.569068 0.524299
O O12 0.084005 0.381521 0.224763
O O13 0.141914 0.512658 0.313468
O O14 0.250000 0.750000 0.392623
O O15 0.230896 0.593868 0.328160
#
# Coordination Sequence:
#
# PCOD9370513 Si02
#       7
#    16  16  16  16  16  16  16
#     4  10  19  42  75 104 145 195 257 333 382 463
#     4  10  24  45  78 109 150 203 267 337 391 468
#     4  12  27  47  74 115 161 208 257 340 403 478
#     4  10  22  46  73 111 152 201 271 327 401 468
#     4  11  24  47  73 110 145 201 263 323 380 480
#     4  11  25  45  72 108 155 209 259 313 403 478
#     4  12  28  46  73 110 159 201 259 317 403 477
#
# _framework density 24.151208
#
# number of rings (size 3 to 8) (size 9 to 14) (size 15 to 20)
#    0.000    1.143    4.286    2.571   10.000    0.000 
#    2.571    0.000    0.000    0.000    0.000    0.000 
#    0.000    0.000    0.000    0.000    0.000    0.000 
#
# Total GULP energy -156462.651617 kJ/mol
# GULP energy per Si atom -5587.951843 kJ/mol
# Density = 2.409624 g / cm^3
# Si number density = 24.151208 Si / 1000 Ang^3
#
#
#
# Elastic Constant Matrix: (Units=GPa)
#
#
# Indices 1 2 3 4 5 6 
#
# 1 78.3677 17.8571 15.4903 0.0000 0.0000 0.0000
# 2 17.8571 105.4020 34.9111 0.0000 0.0000 0.0000
# 3 15.4903 34.9111 48.9591 0.0000 0.0000 0.0000
# 4 0.0000 0.0000 0.0000 29.8012 0.0000 0.0000
# 5 0.0000 0.0000 0.0000 0.0000 32.9485 0.0000
# 6 0.0000 0.0000 0.0000 0.0000 0.0000 51.6828
#
#
#
# Elastic Compliance Matrix: (Units=1/GPa)
#
#
# Indices 1 2 3 4 5 6 
#
# 1 0.013719 -0.001161 -0.003513 0.000000 0.000000 0.000000
# 2 -0.001161 0.012519 -0.008560 0.000000 0.000000 0.000000
# 3 -0.003513 -0.008560 0.027640 0.000000 0.000000 0.000000
# 4 0.000000 0.000000 0.000000 0.033556 0.000000 0.000000
# 5 0.000000 0.000000 0.000000 0.000000 0.030350 0.000000
# 6 0.000000 0.000000 0.000000 0.000000 0.000000 0.019349
#
#
# Mechanical properties :
#
#
# Convention : Reuss Voigt Hill
#
# Bulk Modulus (GPa) = 36.48059 41.02731 38.75395
# Shear Modulus (GPa) = 28.94553 33.85119 31.39836
#
# Velocity S-wave (km/s) = 3.46571 3.74790 3.60957
# Velocity P-wave (km/s) = 5.58146 5.97943 5.78387
#
# Compressibility (1/GPa) = 0.02741183
#
# Stress axis : x y z
#
# Youngs Moduli (GPa) = 72.89039 79.87659 36.17892
#
# Poissons Ratio (x) = 0.09272 0.12710
# Poissons Ratio (y) = 0.08461 0.30969
# Poissons Ratio (z) = 0.25606 0.68373
#
# Static dielectric constant tensor:
#      x y z
#    x 2.005010 0.000000 0.000000 
#    y 0.000000 1.930810 0.000000 
#    z 0.000000 0.000000 1.934650 
# 
# From -- ./inp_files/8287.got.cif
#   From: 2010.05.17/outbox.cif.g08.bks.cpg/sg43_5_cif.got.tgz:8287.got - 2010.06.03 19:21:55.
