data_PCOD9370642
_publ_section_title
;
Structure prediction by ZEFSAII (Michael W. Deem and Ramdas Pophale) SiO2 
 PCOD9370642
Probable space group: F D D 2
;
_chemical_formula_sum "Si O2"
_cell_formula_units_Z 96
_cell_length_a 11.228438
_cell_length_b 14.868276
_cell_length_c 27.987975
_cell_angle_alpha 90.000000
_cell_angle_beta 90.000000
_cell_angle_gamma 90.000000
_cell_volume 4672.522883
_symmetry_space_group_name_H-M "F D D 2"
_symmetry_group_IT_number 43
_symmetry_cell_setting 'orthorhombic'
loop_
_space_group_symop_operation_xyz
x,y,z
-x,-y,z
1/4-x,1/4+y,1/4+z
1/4+x,1/4-y,1/4+z
x,1/2+y,1/2+z
-x,1/2-y,1/2+z
1/4-x,3/4+y,3/4+z
1/4+x,3/4-y,3/4+z
1/2+x,y,1/2+z
1/2-x,-y,1/2+z
3/4-x,1/4+y,3/4+z
3/4+x,1/4-y,3/4+z
1/2+x,1/2+y,z
1/2-x,1/2-y,z
3/4-x,3/4+y,1/4+z
3/4+x,3/4-y,1/4+z
loop_
_atom_site_type_symbol
_atom_site_label
_atom_site_fract_x
_atom_site_fract_y
_atom_site_fract_z
Si Si1 0.131844 0.312230 0.689450
Si Si2 0.535789 0.105444 0.841187
Si Si3 0.058486 0.597334 0.043835
Si Si4 0.128882 0.449064 0.408843
Si Si5 0.887586 0.768656 0.052252
Si Si6 0.455740 0.103155 0.502138
O O1 0.250000 0.250000 0.690508
O O2 0.153677 0.372324 0.642311
O O3 0.133047 0.359624 0.741022
O O4 0.005765 0.261509 0.678861
O O5 0.411101 0.154088 0.833324
O O6 0.618962 0.129332 0.796612
O O7 0.500000 0.000000 0.838002
O O8 0.000000 0.500000 0.043783
O O9 0.965391 0.677441 0.053361
O O10 0.152509 0.430997 0.353320
O O11 0.103711 0.377924 0.450796
O O12 0.000000 0.500000 0.406835
O O13 0.750000 0.750000 0.045542
O O14 0.934750 0.831351 0.010518
O O15 0.500000 0.000000 0.503675
#
# Coordination Sequence:
#
# PCOD9370642 Si02
#       6
#    16  16  16  16  16  16
#     4  10  20  37  65  98 130 174 224 279 340 405
#     4  11  20  41  66  91 131 171 224 278 335 400
#     4  11  24  41  67  98 135 178 228 285 348 413
#     4  10  21  40  66  94 134 180 223 276 348 403
#     4  11  24  45  66  97 140 180 223 290 349 412
#     4  11  23  39  65  98 131 176 223 275 338 407
#
# _framework density 20.545645
#
# number of rings (size 3 to 8) (size 9 to 14) (size 15 to 20)
#    0.000    1.333    5.000    1.000    2.333    1.333 
#    3.000    4.167    0.000    0.000    0.000    0.000 
#    0.000    0.000    0.000    0.000    0.000    0.000 
#
# Total GULP energy -133648.779814 kJ/mol
# GULP energy per Si atom -5568.699159 kJ/mol
# Density = 2.049888 g / cm^3
# Si number density = 20.545645 Si / 1000 Ang^3
#
#
#
# Elastic Constant Matrix: (Units=GPa)
#
#
# Indices 1 2 3 4 5 6 
#
# 1 141.8992 14.7001 25.1540 0.0000 0.0000 0.0000
# 2 14.7001 49.5929 31.0094 0.0000 0.0000 0.0000
# 3 25.1540 31.0094 113.9859 0.0000 0.0000 0.0000
# 4 0.0000 0.0000 0.0000 -59.8550 0.0000 0.0000
# 5 0.0000 0.0000 0.0000 0.0000 32.7898 0.0000
# 6 0.0000 0.0000 0.0000 0.0000 0.0000 28.1368
#
#
#
# Elastic Compliance Matrix: (Units=1/GPa)
#
#
# Indices 1 2 3 4 5 6 
#
# 1 0.007416 -0.001416 -0.001251 0.000000 0.000000 0.000000
# 2 -0.001416 0.024568 -0.006371 0.000000 0.000000 0.000000
# 3 -0.001251 -0.006371 0.010782 0.000000 0.000000 0.000000
# 4 0.000000 0.000000 0.000000 -0.016707 0.000000 0.000000
# 5 0.000000 0.000000 0.000000 0.000000 0.030497 0.000000
# 6 0.000000 0.000000 0.000000 0.000000 0.000000 0.035541
#
#
# Mechanical properties :
#
#
# Convention : Reuss Voigt Hill
#
# Bulk Modulus (GPa) = 40.50326 49.68946 45.09636
# Shear Modulus (GPa) = 42.22883 15.85528 29.04206
#
# Velocity S-wave (km/s) = 4.53853 2.78098 3.76378
# Velocity P-wave (km/s) = 6.87175 5.87786 6.39415
#
# Compressibility (1/GPa) = 0.02468937
#
# Stress axis : x y z
#
# Youngs Moduli (GPa) = 134.84830 40.70417 92.74382
#
# Poissons Ratio (x) = 0.05762 0.11605
# Poissons Ratio (y) = 0.19090 0.59088
# Poissons Ratio (z) = 0.16874 0.25933
#
# Static dielectric constant tensor:
#      x y z
#    x 1.818390 0.000000 0.000000 
#    y 0.000000 1.947260 0.000000 
#    z 0.000000 0.000000 1.776230 
# 
# From -- ./inp_files/25069.got.cif
#   From: 2010.05.17/outbox.cif.g08.bks.cpg/sg43_13_cif.got.tgz:25069.got - 2010.06.03 19:21:55.
