data_PCOD9370156
_publ_section_title
;
Structure prediction by ZEFSAII (Michael W. Deem and Ramdas Pophale) SiO2 
 PCOD9370156
Probable space group: F D D 2
;
_chemical_formula_sum "Si O2"
_cell_formula_units_Z 112
_cell_length_a 26.963810
_cell_length_b 14.223640
_cell_length_c 10.966414
_cell_angle_alpha 90.000000
_cell_angle_beta 90.000000
_cell_angle_gamma 90.000000
_cell_volume 4205.877770
_symmetry_space_group_name_H-M "F D D 2"
_symmetry_group_IT_number 43
_symmetry_cell_setting 'orthorhombic'
loop_
_space_group_symop_operation_xyz
x,y,z
-x,-y,z
1/4-x,1/4+y,1/4+z
1/4+x,1/4-y,1/4+z
x,1/2+y,1/2+z
-x,1/2-y,1/2+z
1/4-x,3/4+y,3/4+z
1/4+x,3/4-y,3/4+z
1/2+x,y,1/2+z
1/2-x,-y,1/2+z
3/4-x,1/4+y,3/4+z
3/4+x,1/4-y,3/4+z
1/2+x,1/2+y,z
1/2-x,1/2-y,z
3/4-x,3/4+y,1/4+z
3/4+x,3/4-y,1/4+z
loop_
_atom_site_type_symbol
_atom_site_label
_atom_site_fract_x
_atom_site_fract_y
_atom_site_fract_z
Si Si1 0.920115 0.347215 0.839540
Si Si2 0.155351 0.640679 0.320646
Si Si3 0.720694 0.641827 0.607772
Si Si4 0.189816 0.132218 0.352335
Si Si5 0.797752 0.080949 0.570552
Si Si6 0.954671 0.313024 0.583350
Si Si7 0.812348 0.874039 0.076302
O O1 0.867805 0.389444 0.878802
O O2 0.929582 0.363599 0.696082
O O3 0.919854 0.232377 0.850808
O O4 0.971862 0.383018 0.893334
O O5 0.190154 0.684813 0.218158
O O6 0.100244 0.643638 0.265510
O O7 0.178320 0.536796 0.331324
O O8 0.159066 0.673143 0.462523
O O9 0.707869 0.685109 0.475276
O O10 0.705464 0.532001 0.585735
O O11 0.235216 0.056484 0.343515
O O12 0.187348 0.170336 0.212259
O O13 0.802482 0.117293 0.709047
O O14 0.744736 0.118389 0.529132
#
# Coordination Sequence:
#
# PCOD9370156 Si02
#       7
#    16  16  16  16  16  16  16
#     4   9  17  32  54  75 104 137 166 212 256 291
#     4  10  18  32  55  76 104 136 165 212 257 292
#     4   9  20  32  48  79 104 130 180 203 238 319
#     4  10  18  32  55  76 104 136 165 212 257 292
#     4   9  17  32  54  75 104 137 166 212 256 291
#     4   8  17  32  50  82 101 124 179 210 244 318
#     4   9  19  32  52  79  97 130 181 203 248 319
#
# _framework density 26.629398999999999
#
# number of rings (size 3 to 8) (size 9 to 14) (size 15 to 20)
#    0.000    2.857    0.000    2.571    0.000    2.286 
#    0.000    0.000    0.000   55.714    0.000    0.000 
#    0.000    0.000    0.000    0.000    0.000    0.000 
#
# Total GULP energy -156226.524503 kJ/mol
# GULP energy per Si atom -5579.518732 kJ/mol
# Density = 2.656879 g / cm^3
# Si number density = 26.629399 Si / 1000 Ang^3
#
#
#
# Elastic Constant Matrix: (Units=GPa)
#
#
# Indices 1 2 3 4 5 6 
#
# 1 268.1790 47.4138 21.2617 0.0000 0.0000 0.0000
# 2 47.4138 102.8006 9.8719 0.0000 0.0000 0.0000
# 3 21.2617 9.8719 101.0291 0.0000 0.0000 0.0000
# 4 0.0000 0.0000 0.0000 -19.9957 0.0000 0.0000
# 5 0.0000 0.0000 0.0000 0.0000 37.6746 0.0000
# 6 0.0000 0.0000 0.0000 0.0000 0.0000 31.2137
#
#
#
# Elastic Compliance Matrix: (Units=1/GPa)
#
#
# Indices 1 2 3 4 5 6 
#
# 1 0.004106 -0.001828 -0.000686 0.000000 0.000000 0.000000
# 2 -0.001828 0.010634 -0.000654 0.000000 0.000000 0.000000
# 3 -0.000686 -0.000654 0.010106 0.000000 0.000000 0.000000
# 4 0.000000 0.000000 0.000000 -0.050011 0.000000 0.000000
# 5 0.000000 0.000000 0.000000 0.000000 0.026543 0.000000
# 6 0.000000 0.000000 0.000000 0.000000 0.000000 0.032037
#
#
# Mechanical properties :
#
#
# Convention : Reuss Voigt Hill
#
# Bulk Modulus (GPa) = 54.02391 69.90040 61.96215
# Shear Modulus (GPa) = 108.88040 36.00929 72.44485
#
# Velocity S-wave (km/s) = 6.40125 3.68127 5.22148
# Velocity P-wave (km/s) = 8.65830 6.66148 7.72468
#
# Compressibility (1/GPa) = 0.01851032
#
# Stress axis : x y z
#
# Youngs Moduli (GPa) = 243.52129 94.04180 98.94772
#
# Poissons Ratio (x) = 0.17192 0.06784
# Poissons Ratio (y) = 0.44519 0.06474
# Poissons Ratio (z) = 0.16695 0.06153
#
# Static dielectric constant tensor:
#      x y z
#    x 2.145680 0.000000 0.000000 
#    y 0.000000 2.138820 0.000000 
#    z 0.000000 0.000000 2.211840 
# 
# From -- ./inp_files/7172.got.cif
#   From: 2010.05.17/outbox.cif.g08.bks.cpg/sg43_4_cif.got.tgz:7172.got - 2010.06.03 19:21:55.
