data_PCOD9370806
_publ_section_title
;
Structure prediction by ZEFSAII (Michael W. Deem and Ramdas Pophale) SiO2 
 PCOD9370806
Probable space group: F D D 2
;
_chemical_formula_sum "Si O2"
_cell_formula_units_Z 120
_cell_length_a 17.625242
_cell_length_b 15.094659
_cell_length_c 22.208579
_cell_angle_alpha 90.000000
_cell_angle_beta 90.000000
_cell_angle_gamma 90.000000
_cell_volume 5908.526212
_symmetry_space_group_name_H-M "F D D 2"
_symmetry_group_IT_number 43
_symmetry_cell_setting 'orthorhombic'
loop_
_space_group_symop_operation_xyz
x,y,z
-x,-y,z
1/4-x,1/4+y,1/4+z
1/4+x,1/4-y,1/4+z
x,1/2+y,1/2+z
-x,1/2-y,1/2+z
1/4-x,3/4+y,3/4+z
1/4+x,3/4-y,3/4+z
1/2+x,y,1/2+z
1/2-x,-y,1/2+z
3/4-x,1/4+y,3/4+z
3/4+x,1/4-y,3/4+z
1/2+x,1/2+y,z
1/2-x,1/2-y,z
3/4-x,3/4+y,1/4+z
3/4+x,3/4-y,1/4+z
loop_
_atom_site_type_symbol
_atom_site_label
_atom_site_fract_x
_atom_site_fract_y
_atom_site_fract_z
Si Si1 0.500000 0.500000 0.459880
Si Si2 0.276422 0.648073 0.981040
Si Si3 0.183639 0.477828 0.269611
Si Si4 0.205927 0.019621 0.381370
Si Si5 0.060898 0.632219 0.863259
Si Si6 0.062914 0.319206 0.425449
Si Si7 0.967879 0.097446 0.803717
Si Si8 0.354262 0.088705 0.983335
O O1 0.513978 0.582753 0.415527
O O2 0.422231 0.518484 0.495327
O O3 0.250000 0.750000 0.977068
O O4 0.232849 0.585061 0.934682
O O5 0.363583 0.647148 0.960169
O O6 0.268258 0.616567 0.049794
O O7 0.228064 0.494632 0.332626
O O8 0.245902 0.448742 0.221812
O O9 0.117866 0.404437 0.278750
O O10 0.143510 0.566979 0.245771
O O11 0.134665 0.070746 0.352494
O O12 0.174557 0.932604 0.415595
O O13 0.081226 0.728469 0.888867
O O14 0.036978 0.386625 0.374359
O O15 0.028593 0.163030 0.773772
O O16 0.000000 0.000000 0.791662
#
# Coordination Sequence:
#
# PCOD9370806 Si02
#       8
#     8  16  16  16  16  16  16  16
#     4  10  20  40  66 100 136 168 210 286 336 406
#     4  12  23  39  65  97 134 172 215 278 335 398
#     4  11  23  44  68  93 134 173 221 280 333 400
#     4  11  23  41  66  97 132 173 219 273 340 403
#     4  11  22  38  65  98 132 171 214 271 342 401
#     4  12  23  42  66  97 127 176 222 270 336 409
#     4  10  24  45  65  91 132 175 223 275 327 400
#     4  10  23  44  66  95 132 174 222 276 335 404
#
# _framework density 20.309633000000002
#
# number of rings (size 3 to 8) (size 9 to 14) (size 15 to 20)
#    0.000    1.067    6.000    0.800    0.000    2.133 
#    4.800    0.667    0.000    0.000    0.000    0.000 
#    0.000    0.000    0.000    0.000    0.000    0.000 
#
# Total GULP energy -167499.812582 kJ/mol
# GULP energy per Si atom -5583.327086 kJ/mol
# Density = 2.026341 g / cm^3
# Si number density = 20.309633 Si / 1000 Ang^3
#
#
#
# Elastic Constant Matrix: (Units=GPa)
#
#
# Indices 1 2 3 4 5 6 
#
# 1 121.7521 16.8437 39.6185 0.0000 0.0000 0.0000
# 2 16.8437 45.8601 22.6883 0.0000 0.0000 0.0000
# 3 39.6185 22.6883 85.3397 0.0000 0.0000 0.0000
# 4 0.0000 0.0000 0.0000 23.1635 0.0000 0.0000
# 5 0.0000 0.0000 0.0000 0.0000 25.2951 0.0000
# 6 0.0000 0.0000 0.0000 0.0000 0.0000 27.9802
#
#
#
# Elastic Compliance Matrix: (Units=1/GPa)
#
#
# Indices 1 2 3 4 5 6 
#
# 1 0.009769 -0.001548 -0.004124 0.000000 0.000000 0.000000
# 2 -0.001548 0.025353 -0.006022 0.000000 0.000000 0.000000
# 3 -0.004124 -0.006022 0.015233 0.000000 0.000000 0.000000
# 4 0.000000 0.000000 0.000000 0.043171 0.000000 0.000000
# 5 0.000000 0.000000 0.000000 0.000000 0.039533 0.000000
# 6 0.000000 0.000000 0.000000 0.000000 0.000000 0.035740
#
#
# Mechanical properties :
#
#
# Convention : Reuss Voigt Hill
#
# Bulk Modulus (GPa) = 37.07993 45.69474 41.38734
# Shear Modulus (GPa) = 24.85375 26.87452 25.86414
#
# Velocity S-wave (km/s) = 3.50200 3.64158 3.57247
# Velocity P-wave (km/s) = 5.88633 6.34266 6.11876
#
# Compressibility (1/GPa) = 0.02696877
#
# Stress axis : x y z
#
# Youngs Moduli (GPa) = 102.35951 39.44288 65.64575
#
# Poissons Ratio (x) = 0.06106 0.27072
# Poissons Ratio (y) = 0.15845 0.39530
# Poissons Ratio (z) = 0.42212 0.23751
#
# Static dielectric constant tensor:
#      x y z
#    x 1.739680 0.000000 0.000000 
#    y 0.000000 1.738220 0.000000 
#    z 0.000000 0.000000 1.694050 
# 
# From -- ./inp_files/14275.got.cif
#   From: 2010.05.17/outbox.cif.g08.bks.cpg/sg43_8_cif.got.tgz:14275.got - 2010.06.03 19:21:55.
