data_PCOD9370302
_publ_section_title
;
Structure prediction by ZEFSAII (Michael W. Deem and Ramdas Pophale) SiO2 
 PCOD9370302
Probable space group: F D D 2
;
_chemical_formula_sum "Si O2"
_cell_formula_units_Z 96
_cell_length_a 16.425126
_cell_length_b 9.026367
_cell_length_c 25.958135
_cell_angle_alpha 90.000000
_cell_angle_beta 90.000000
_cell_angle_gamma 90.000000
_cell_volume 3848.532726
_symmetry_space_group_name_H-M "F D D 2"
_symmetry_group_IT_number 43
_symmetry_cell_setting 'orthorhombic'
loop_
_space_group_symop_operation_xyz
x,y,z
-x,-y,z
1/4-x,1/4+y,1/4+z
1/4+x,1/4-y,1/4+z
x,1/2+y,1/2+z
-x,1/2-y,1/2+z
1/4-x,3/4+y,3/4+z
1/4+x,3/4-y,3/4+z
1/2+x,y,1/2+z
1/2-x,-y,1/2+z
3/4-x,1/4+y,3/4+z
3/4+x,1/4-y,3/4+z
1/2+x,1/2+y,z
1/2-x,1/2-y,z
3/4-x,3/4+y,1/4+z
3/4+x,3/4-y,1/4+z
loop_
_atom_site_type_symbol
_atom_site_label
_atom_site_fract_x
_atom_site_fract_y
_atom_site_fract_z
Si Si1 0.492067 0.700407 0.410620
Si Si2 0.406890 0.506530 0.104510
Si Si3 0.202954 0.064435 0.953520
Si Si4 0.872699 0.619653 0.984747
Si Si5 0.317019 0.372559 0.243379
Si Si6 0.637797 0.092588 0.349773
O O1 0.575179 0.680806 0.380057
O O2 0.423305 0.590760 0.432563
O O3 0.526457 0.737621 0.468234
O O4 0.439460 0.824911 0.377845
O O5 0.500000 0.500000 0.127048
O O6 0.381198 0.335618 0.092597
O O7 0.418550 0.605718 0.053249
O O8 0.158041 0.207259 0.978952
O O9 0.288133 0.033748 0.979367
O O10 0.207482 0.102457 0.893254
O O11 0.145962 0.923915 0.961886
O O12 0.903405 0.595518 0.042773
O O13 0.250000 0.250000 0.230243
#
# Coordination Sequence:
#
# PCOD9370302 Si02
#       6
#    16  16  16  16  16  16
#     4  11  21  36  57  82 113 139 183 229 270 325
#     4  11  21  30  54  84 112 140 181 224 280 320
#     4  10  19  28  51  83 112 134 179 223 276 323
#     4  10  20  32  51  81 112 141 178 224 275 319
#     4  11  16  30  49  84 107 136 171 233 271 317
#     4  11  19  32  56  82 111 142 171 231 280 314
#
# _framework density 24.944572000000001
#
# number of rings (size 3 to 8) (size 9 to 14) (size 15 to 20)
#    0.000    1.333    6.667    2.500    2.333    0.000 
#    0.000    0.000    3.667    5.000    0.000    0.000 
#    0.000    0.000    0.000    0.000    0.000    0.000 
#
# Total GULP energy -133764.665450 kJ/mol
# GULP energy per Si atom -5573.527727 kJ/mol
# Density = 2.488780 g / cm^3
# Si number density = 24.944572 Si / 1000 Ang^3
#
#
#
# Elastic Constant Matrix: (Units=GPa)
#
#
# Indices 1 2 3 4 5 6 
#
# 1 104.8397 16.3044 27.1396 0.0000 0.0000 0.0000
# 2 16.3044 56.8595 12.9725 0.0000 0.0000 0.0000
# 3 27.1396 12.9725 137.6404 0.0000 0.0000 0.0000
# 4 0.0000 0.0000 0.0000 -3.3221 0.0000 0.0000
# 5 0.0000 0.0000 0.0000 0.0000 25.7945 0.0000
# 6 0.0000 0.0000 0.0000 0.0000 0.0000 10.8518
#
#
#
# Elastic Compliance Matrix: (Units=1/GPa)
#
#
# Indices 1 2 3 4 5 6 
#
# 1 0.010407 -0.002571 -0.001810 0.000000 0.000000 0.000000
# 2 -0.002571 0.018609 -0.001247 0.000000 0.000000 0.000000
# 3 -0.001810 -0.001247 0.007740 0.000000 0.000000 0.000000
# 4 0.000000 0.000000 0.000000 -0.301011 0.000000 0.000000
# 5 0.000000 0.000000 0.000000 0.000000 0.038768 0.000000
# 6 0.000000 0.000000 0.000000 0.000000 0.000000 0.092150
#
#
# Mechanical properties :
#
#
# Convention : Reuss Voigt Hill
#
# Bulk Modulus (GPa) = 39.21597 45.79694 42.50645
# Shear Modulus (GPa) = -44.02116 22.85971 -10.58072
#
# Velocity S-wave (km/s) = -4.20546 3.03053 -2.06177
# Velocity P-wave (km/s) = 2.79747 5.53577 3.37779
#
# Compressibility (1/GPa) = 0.02549982
#
# Stress axis : x y z
#
# Youngs Moduli (GPa) = 96.09194 53.73748 129.20492
#
# Poissons Ratio (x) = 0.13817 0.23381
# Poissons Ratio (y) = 0.24707 0.16110
# Poissons Ratio (z) = 0.17389 0.06700
#
# Static dielectric constant tensor:
#      x y z
#    x 2.023070 0.000000 0.000000 
#    y 0.000000 2.229940 0.000000 
#    z 0.000000 0.000000 1.986660 
# 
# From -- ./inp_files/25962.got.cif
#   From: 2010.05.17/outbox.cif.g08.bks.cpg/sg43_13_cif.got.tgz:25962.got - 2010.06.03 19:21:55.
