data_PCOD9370597
_publ_section_title
;
Structure prediction by ZEFSAII (Michael W. Deem and Ramdas Pophale) SiO2 
 PCOD9370597
Probable space group: F D D 2
;
_chemical_formula_sum "Si O2"
_cell_formula_units_Z 120
_cell_length_a 29.163009
_cell_length_b 8.273677
_cell_length_c 22.608584
_cell_angle_alpha 90.000000
_cell_angle_beta 90.000000
_cell_angle_gamma 90.000000
_cell_volume 5455.119353
_symmetry_space_group_name_H-M "F D D 2"
_symmetry_group_IT_number 43
_symmetry_cell_setting 'orthorhombic'
loop_
_space_group_symop_operation_xyz
x,y,z
-x,-y,z
1/4-x,1/4+y,1/4+z
1/4+x,1/4-y,1/4+z
x,1/2+y,1/2+z
-x,1/2-y,1/2+z
1/4-x,3/4+y,3/4+z
1/4+x,3/4-y,3/4+z
1/2+x,y,1/2+z
1/2-x,-y,1/2+z
3/4-x,1/4+y,3/4+z
3/4+x,1/4-y,3/4+z
1/2+x,1/2+y,z
1/2-x,1/2-y,z
3/4-x,3/4+y,1/4+z
3/4+x,3/4-y,1/4+z
loop_
_atom_site_type_symbol
_atom_site_label
_atom_site_fract_x
_atom_site_fract_y
_atom_site_fract_z
Si Si1 0.057484 0.691403 0.881900
Si Si2 0.353624 0.986595 0.837389
Si Si3 0.389705 0.579397 0.963681
Si Si4 0.425548 0.222443 0.972699
Si Si5 0.000000 0.500000 0.978939
Si Si6 0.852707 0.512785 0.029531
Si Si7 0.554126 0.465934 0.189136
Si Si8 0.223236 0.906923 0.606416
O O1 0.097318 0.588913 0.853626
O O2 0.081187 0.851102 0.908925
O O3 0.035313 0.595864 0.936836
O O4 0.015862 0.730165 0.837622
O O5 0.344232 0.932289 0.770408
O O6 0.319251 0.900753 0.883667
O O7 0.364186 0.177579 0.828402
O O8 0.403203 0.398498 0.982658
O O9 0.337479 0.625325 0.944572
O O10 0.448017 0.248744 0.908777
O O11 0.468106 0.138756 0.008996
O O12 0.383993 0.099934 0.981595
O O13 0.815836 0.629755 0.059539
O O14 0.821128 0.382541 0.996585
O O15 0.500000 0.500000 0.187434
O O16 0.250000 0.750000 0.628249
#
# Coordination Sequence:
#
# PCOD9370597 Si02
#       8
#    16  16  16  16   8  16  16  16
#     4  10  20  39  63  98 122 168 218 287 323 392
#     4  10  21  41  63  93 132 178 218 270 343 405
#     4  10  22  39  67  87 136 174 218 275 342 397
#     4  11  23  42  62  99 136 172 217 288 336 395
#     4  10  20  36  64  88 126 164 218 270 328 390
#     4  11  24  38  68  92 135 175 216 275 343 403
#     4  10  23  43  62  97 132 176 222 275 338 414
#     4  11  23  39  68 101 128 165 229 282 330 398
#
# _framework density 21.997686000000002
#
# number of rings (size 3 to 8) (size 9 to 14) (size 15 to 20)
#    0.000    1.600    1.333    4.800    5.600    0.000 
#    7.200    0.000    0.000    0.000    1.733    0.000 
#    0.000    0.000    0.000    0.000    0.000    0.000 
#
# Total GULP energy -167066.935562 kJ/mol
# GULP energy per Si atom -5568.897852 kJ/mol
# Density = 2.194762 g / cm^3
# Si number density = 21.997686 Si / 1000 Ang^3
#
#
#
# Elastic Constant Matrix: (Units=GPa)
#
#
# Indices 1 2 3 4 5 6 
#
# 1 156.6660 61.8213 39.9738 0.0000 0.0000 0.0000
# 2 61.8213 94.6543 6.3080 0.0000 0.0000 0.0000
# 3 39.9738 6.3080 52.6190 0.0000 0.0000 0.0000
# 4 0.0000 0.0000 0.0000 20.8415 0.0000 0.0000
# 5 0.0000 0.0000 0.0000 0.0000 23.9421 0.0000
# 6 0.0000 0.0000 0.0000 0.0000 0.0000 36.3584
#
#
#
# Elastic Compliance Matrix: (Units=1/GPa)
#
#
# Indices 1 2 3 4 5 6 
#
# 1 0.010910 -0.006626 -0.007494 0.000000 0.000000 0.000000
# 2 -0.006626 0.014674 0.003275 0.000000 0.000000 0.000000
# 3 -0.007494 0.003275 0.024305 0.000000 0.000000 0.000000
# 4 0.000000 0.000000 0.000000 0.047981 0.000000 0.000000
# 5 0.000000 0.000000 0.000000 0.000000 0.041767 0.000000
# 6 0.000000 0.000000 0.000000 0.000000 0.000000 0.027504
#
#
# Mechanical properties :
#
#
# Convention : Reuss Voigt Hill
#
# Bulk Modulus (GPa) = 35.46290 57.79393 46.62842
# Shear Modulus (GPa) = 25.22309 29.28412 27.25360
#
# Velocity S-wave (km/s) = 3.38986 3.65257 3.52366
# Velocity P-wave (km/s) = 5.61050 6.64215 6.14800
#
# Compressibility (1/GPa) = 0.02819848
#
# Stress axis : x y z
#
# Youngs Moduli (GPa) = 91.66164 68.14686 41.14423
#
# Poissons Ratio (x) = 0.45154 0.30832
# Poissons Ratio (y) = 0.60735 -0.13473
# Poissons Ratio (z) = 0.68687 -0.22315
#
# Static dielectric constant tensor:
#      x y z
#    x 1.824250 0.000000 0.000000 
#    y 0.000000 1.915610 0.000000 
#    z 0.000000 0.000000 1.819660 
# 
# From -- ./inp_files/23021.got.cif
#   From: 2010.05.17/outbox.cif.g08.bks.cpg/sg43_12_cif.got.tgz:23021.got - 2010.06.03 19:21:55.
