data_PCOD9370617
_publ_section_title
;
Structure prediction by ZEFSAII (Michael W. Deem and Ramdas Pophale) SiO2 
 PCOD9370617
Probable space group: F D D 2
;
_chemical_formula_sum "Si O2"
_cell_formula_units_Z 96
_cell_length_a 10.935955
_cell_length_b 33.587860
_cell_length_c 11.567229
_cell_angle_alpha 90.000000
_cell_angle_beta 90.000000
_cell_angle_gamma 90.000000
_cell_volume 4248.820485
_symmetry_space_group_name_H-M "F D D 2"
_symmetry_group_IT_number 43
_symmetry_cell_setting 'orthorhombic'
loop_
_space_group_symop_operation_xyz
x,y,z
-x,-y,z
1/4-x,1/4+y,1/4+z
1/4+x,1/4-y,1/4+z
x,1/2+y,1/2+z
-x,1/2-y,1/2+z
1/4-x,3/4+y,3/4+z
1/4+x,3/4-y,3/4+z
1/2+x,y,1/2+z
1/2-x,-y,1/2+z
3/4-x,1/4+y,3/4+z
3/4+x,1/4-y,3/4+z
1/2+x,1/2+y,z
1/2-x,1/2-y,z
3/4-x,3/4+y,1/4+z
3/4+x,3/4-y,1/4+z
loop_
_atom_site_type_symbol
_atom_site_label
_atom_site_fract_x
_atom_site_fract_y
_atom_site_fract_z
Si Si1 0.762259 0.501001 0.724200
Si Si2 0.464532 0.166992 0.454770
Si Si3 0.750000 0.750000 0.104122
Si Si4 0.750000 0.250000 0.136954
Si Si5 0.442602 0.914953 0.922782
Si Si6 0.717876 0.666403 0.079649
Si Si7 0.932724 0.166407 0.399204
O O1 0.781137 0.461047 0.647431
O O2 0.626923 0.499072 0.781335
O O3 0.874011 0.498836 0.814510
O O4 0.764764 0.544745 0.670088
O O5 0.347228 0.164082 0.538757
O O6 0.578725 0.168069 0.541109
O O7 0.483519 0.127365 0.381820
O O8 0.748722 0.705384 0.158686
O O9 0.745981 0.207555 0.200681
O O10 0.516576 0.875045 0.946144
O O11 0.332663 0.913084 0.012730
O O12 0.804279 0.671249 0.966877
#
# Coordination Sequence:
#
# PCOD9370617 Si02
#       7
#    16  16   8   8  16  16  16
#     4   9  20  39  61  87 120 157 203 252 304 367
#     4  10  21  39  58  83 119 157 195 244 304 364
#     4   8  18  37  60  85 116 154 198 250 300 358
#     4  10  22  39  62  91 124 164 204 250 310 376
#     4  11  23  38  60  89 126 163 201 254 316 371
#     4  10  20  37  60  84 113 152 201 248 295 358
#     4  11  22  38  62  90 120 160 209 258 306 368
#
# _framework density 22.594507
#
# number of rings (size 3 to 8) (size 9 to 14) (size 15 to 20)
#    0.000    2.000    0.000    3.000    0.000    8.000 
#    0.000    6.667    0.000    5.000    0.000    0.000 
#    0.000    0.000    0.000    0.000    0.000    0.000 
#
# Total GULP energy -133672.764736 kJ/mol
# GULP energy per Si atom -5569.698531 kJ/mol
# Density = 2.254308 g / cm^3
# Si number density = 22.594507 Si / 1000 Ang^3
#
#
#
# Elastic Constant Matrix: (Units=GPa)
#
#
# Indices 1 2 3 4 5 6 
#
# 1 68.1500 17.8074 -8.1205 0.0000 0.0000 0.0000
# 2 17.8074 244.9582 20.6655 0.0000 0.0000 0.0000
# 3 -8.1205 20.6655 25.0625 0.0000 0.0000 0.0000
# 4 0.0000 0.0000 0.0000 38.0462 0.0000 0.0000
# 5 0.0000 0.0000 0.0000 0.0000 5.5468 0.0000
# 6 0.0000 0.0000 0.0000 0.0000 0.0000 30.4323
#
#
#
# Elastic Compliance Matrix: (Units=1/GPa)
#
#
# Indices 1 2 3 4 5 6 
#
# 1 0.015902 -0.001710 0.006562 0.000000 0.000000 0.000000
# 2 -0.001710 0.004571 -0.004323 0.000000 0.000000 0.000000
# 3 0.006562 -0.004323 0.045591 0.000000 0.000000 0.000000
# 4 0.000000 0.000000 0.000000 0.026284 0.000000 0.000000
# 5 0.000000 0.000000 0.000000 0.000000 0.180285 0.000000
# 6 0.000000 0.000000 0.000000 0.000000 0.000000 0.032860
#
#
# Mechanical properties :
#
#
# Convention : Reuss Voigt Hill
#
# Bulk Modulus (GPa) = 14.89799 44.31952 29.60875
# Shear Modulus (GPa) = 15.29945 35.32626 25.31285
#
# Velocity S-wave (km/s) = 2.60500 3.95839 3.35073
# Velocity P-wave (km/s) = 3.95676 6.36785 5.30120
#
# Compressibility (1/GPa) = 0.06712314
#
# Stress axis : x y z
#
# Youngs Moduli (GPa) = 62.88455 218.75437 21.93406
#
# Poissons Ratio (x) = 0.37399 -0.14393
# Poissons Ratio (y) = 0.10751 0.09483
# Poissons Ratio (z) = -0.41266 0.94573
#
# Static dielectric constant tensor:
#      x y z
#    x 1.826390 0.000000 0.000000 
#    y 0.000000 1.952590 0.000000 
#    z 0.000000 0.000000 1.836440 
# 
# From -- ./inp_files/9742.got.cif
#   From: 2010.05.17/outbox.cif.g08.bks.cpg/sg43_5_cif.got.tgz:9742.got - 2010.06.03 19:21:55.
