data_PCOD9370779
_publ_section_title
;
Structure prediction by ZEFSAII (Michael W. Deem and Ramdas Pophale) SiO2 
 PCOD9370779
Probable space group: F D D 2
;
_chemical_formula_sum "Si O2"
_cell_formula_units_Z 112
_cell_length_a 11.326992
_cell_length_b 32.034902
_cell_length_c 15.754165
_cell_angle_alpha 90.000000
_cell_angle_beta 90.000000
_cell_angle_gamma 90.000000
_cell_volume 5716.541797
_symmetry_space_group_name_H-M "F D D 2"
_symmetry_group_IT_number 43
_symmetry_cell_setting 'orthorhombic'
loop_
_space_group_symop_operation_xyz
x,y,z
-x,-y,z
1/4-x,1/4+y,1/4+z
1/4+x,1/4-y,1/4+z
x,1/2+y,1/2+z
-x,1/2-y,1/2+z
1/4-x,3/4+y,3/4+z
1/4+x,3/4-y,3/4+z
1/2+x,y,1/2+z
1/2-x,-y,1/2+z
3/4-x,1/4+y,3/4+z
3/4+x,1/4-y,3/4+z
1/2+x,1/2+y,z
1/2-x,1/2-y,z
3/4-x,3/4+y,1/4+z
3/4+x,3/4-y,1/4+z
loop_
_atom_site_type_symbol
_atom_site_label
_atom_site_fract_x
_atom_site_fract_y
_atom_site_fract_z
Si Si1 0.921922 0.691529 0.375000
Si Si2 0.498064 0.343464 0.550824
Si Si3 0.643862 0.503350 0.848120
Si Si4 0.199846 0.415656 0.280261
Si Si5 0.272821 0.114326 0.991785
Si Si6 0.365283 0.017820 0.540400
Si Si7 0.327121 0.344670 0.387980
O O1 0.997486 0.662829 0.436527
O O2 0.948873 0.674099 0.280998
O O3 0.946470 0.740423 0.363936
O O4 0.789854 0.682704 0.406016
O O5 0.554530 0.297123 0.564103
O O6 0.602709 0.375841 0.532570
O O7 0.452034 0.356955 0.643092
O O8 0.406297 0.346733 0.472373
O O9 0.500000 0.500000 0.840844
O O10 0.701691 0.464267 0.800700
O O11 0.675979 0.493173 0.946284
O O12 0.065225 0.401327 0.269766
O O13 0.274589 0.387012 0.345694
O O14 0.360387 0.066399 0.564981
O O15 0.500000 0.000000 0.540656
#
# Coordination Sequence:
#
# PCOD9370779 Si02
#       7
#    16  16  16  16  16  16  16
#     4  10  20  40  60  90 123 170 213 267 320 388
#     4  12  24  43  63  99 133 173 213 275 337 393
#     4  11  22  38  66  96 127 169 227 275 318 385
#     4  11  23  38  63  95 127 171 221 270 323 389
#     4  11  23  38  64  91 130 169 215 266 324 386
#     4   9  19  37  61  88 119 164 218 266 315 380
#     4  10  25  37  65  92 129 167 220 270 327 392
#
# _framework density 19.592265000000001
#
# number of rings (size 3 to 8) (size 9 to 14) (size 15 to 20)
#    0.000    1.429    4.286    0.857    8.000    0.000 
#    0.000    0.000    0.000    0.000    0.000    0.000 
#    0.000    0.000    0.000    0.000    0.000    0.000 
#
# Total GULP energy -155892.039910 kJ/mol
# GULP energy per Si atom -5567.572854 kJ/mol
# Density = 1.954767 g / cm^3
# Si number density = 19.592265 Si / 1000 Ang^3
#
#
#
# Elastic Constant Matrix: (Units=GPa)
#
#
# Indices 1 2 3 4 5 6 
#
# 1 47.0720 -2.8083 25.0968 0.0000 0.0000 0.0000
# 2 -2.8083 61.7385 7.0608 0.0000 0.0000 0.0000
# 3 25.0968 7.0608 98.6641 0.0000 0.0000 0.0000
# 4 0.0000 0.0000 0.0000 21.6796 0.0000 0.0000
# 5 0.0000 0.0000 0.0000 0.0000 25.0656 0.0000
# 6 0.0000 0.0000 0.0000 0.0000 0.0000 16.8610
#
#
#
# Elastic Compliance Matrix: (Units=1/GPa)
#
#
# Indices 1 2 3 4 5 6 
#
# 1 0.024788 0.001864 -0.006439 0.000000 0.000000 0.000000
# 2 0.001864 0.016471 -0.001653 0.000000 0.000000 0.000000
# 3 -0.006439 -0.001653 0.011891 0.000000 0.000000 0.000000
# 4 0.000000 0.000000 0.000000 0.046126 0.000000 0.000000
# 5 0.000000 0.000000 0.000000 0.000000 0.039895 0.000000
# 6 0.000000 0.000000 0.000000 0.000000 0.000000 0.059308
#
#
# Mechanical properties :
#
#
# Convention : Reuss Voigt Hill
#
# Bulk Modulus (GPa) = 24.57271 29.57478 27.07375
# Shear Modulus (GPa) = 22.27162 24.59626 23.43394
#
# Velocity S-wave (km/s) = 3.37524 3.54702 3.46219
# Velocity P-wave (km/s) = 5.26867 5.64827 5.46177
#
# Compressibility (1/GPa) = 0.04069555
#
# Stress axis : x y z
#
# Youngs Moduli (GPa) = 40.34198 60.71212 84.09402
#
# Poissons Ratio (x) = -0.11316 0.54145
# Poissons Ratio (y) = -0.07519 0.13900
# Poissons Ratio (z) = 0.25975 0.10035
#
# Static dielectric constant tensor:
#      x y z
#    x 1.701490 0.000000 0.000000 
#    y 0.000000 1.735540 0.000000 
#    z 0.000000 0.000000 1.740380 
# 
# From -- ./inp_files/9786.got.cif
#   From: 2010.05.17/outbox.cif.g08.bks.cpg/sg43_5_cif.got.tgz:9786.got - 2010.06.03 19:21:55.
