data_PCOD9370892
_publ_section_title
;
Structure prediction by ZEFSAII (Michael W. Deem and Ramdas Pophale) SiO2 
 PCOD9370892
Probable space group: F D D 2
;
_chemical_formula_sum "Si O2"
_cell_formula_units_Z 120
_cell_length_a 11.513244
_cell_length_b 19.679468
_cell_length_c 23.712221
_cell_angle_alpha 90.000000
_cell_angle_beta 90.000000
_cell_angle_gamma 90.000000
_cell_volume 5372.585017
_symmetry_space_group_name_H-M "F D D 2"
_symmetry_group_IT_number 43
_symmetry_cell_setting 'orthorhombic'
loop_
_space_group_symop_operation_xyz
x,y,z
-x,-y,z
1/4-x,1/4+y,1/4+z
1/4+x,1/4-y,1/4+z
x,1/2+y,1/2+z
-x,1/2-y,1/2+z
1/4-x,3/4+y,3/4+z
1/4+x,3/4-y,3/4+z
1/2+x,y,1/2+z
1/2-x,-y,1/2+z
3/4-x,1/4+y,3/4+z
3/4+x,1/4-y,3/4+z
1/2+x,1/2+y,z
1/2-x,1/2-y,z
3/4-x,3/4+y,1/4+z
3/4+x,3/4-y,1/4+z
loop_
_atom_site_type_symbol
_atom_site_label
_atom_site_fract_x
_atom_site_fract_y
_atom_site_fract_z
Si Si1 0.670922 0.034496 0.692020
Si Si2 0.746734 0.906833 0.463721
Si Si3 0.622779 0.997768 0.888609
Si Si4 0.682348 0.926808 0.784421
Si Si5 0.809156 0.460364 0.526498
Si Si6 0.750000 0.750000 0.353408
Si Si7 0.612725 0.628767 0.714256
Si Si8 0.365884 0.993182 0.125113
O O1 0.596978 0.102205 0.694096
O O2 0.604299 0.983710 0.647455
O O3 0.664914 0.997098 0.750968
O O4 0.801996 0.041988 0.670677
O O5 0.829186 0.872923 0.512158
O O6 0.823403 0.932741 0.410521
O O7 0.681753 0.974334 0.485772
O O8 0.697480 0.949469 0.848606
O O9 0.598940 0.952759 0.943532
O O10 0.500000 0.000000 0.857148
O O11 0.801051 0.895529 0.762283
O O12 0.761863 0.395260 0.492483
O O13 0.710132 0.487779 0.570296
O O14 0.928600 0.450506 0.561421
O O15 0.632654 0.577500 0.661548
O O16 0.500000 0.000000 0.110595
#
# Coordination Sequence:
#
# PCOD9370892 Si02
#       8
#    16  16  16  16  16   8  16  16
#     4  10  21  39  61  92 127 166 213 272 329 393
#     4  11  21  37  60  92 131 161 223 283 318 401
#     4  11  22  35  60  96 128 176 215 275 342 378
#     4  11  21  37  63  91 134 167 215 277 337 386
#     4  10  24  37  66  93 123 175 212 267 341 379
#     4  10  20  42  56  88 128 162 214 254 326 404
#     4  10  23  41  58  96 129 164 218 275 314 411
#     4  10  23  41  64  91 124 173 217 260 335 399
#
# _framework density 22.335616000000002
#
# number of rings (size 3 to 8) (size 9 to 14) (size 15 to 20)
#    0.000    1.600    2.667    1.600    3.733    3.200 
#    0.000    4.000    0.000    0.000    1.733    0.000 
#    0.000    0.000    0.000    0.000    0.000    0.000 
#
# Total GULP energy -167044.632290 kJ/mol
# GULP energy per Si atom -5568.154410 kJ/mol
# Density = 2.228478 g / cm^3
# Si number density = 22.335616 Si / 1000 Ang^3
#
#
#
# Elastic Constant Matrix: (Units=GPa)
#
#
# Indices 1 2 3 4 5 6 
#
# 1 76.4066 26.9892 13.8757 0.0000 0.0000 0.0000
# 2 26.9892 98.4119 31.7616 0.0000 0.0000 0.0000
# 3 13.8757 31.7616 67.6848 0.0000 0.0000 0.0000
# 4 0.0000 0.0000 0.0000 16.3233 0.0000 0.0000
# 5 0.0000 0.0000 0.0000 0.0000 37.6562 0.0000
# 6 0.0000 0.0000 0.0000 0.0000 0.0000 33.9114
#
#
#
# Elastic Compliance Matrix: (Units=1/GPa)
#
#
# Indices 1 2 3 4 5 6 
#
# 1 0.014590 -0.003578 -0.001312 0.000000 0.000000 0.000000
# 2 -0.003578 0.012852 -0.005298 0.000000 0.000000 0.000000
# 3 -0.001312 -0.005298 0.017529 0.000000 0.000000 0.000000
# 4 0.000000 0.000000 0.000000 0.061262 0.000000 0.000000
# 5 0.000000 0.000000 0.000000 0.000000 0.026556 0.000000
# 6 0.000000 0.000000 0.000000 0.000000 0.000000 0.029489
#
#
# Mechanical properties :
#
#
# Convention : Reuss Voigt Hill
#
# Bulk Modulus (GPa) = 40.65604 43.08404 41.87004
# Shear Modulus (GPa) = 26.19829 28.90329 27.55079
#
# Velocity S-wave (km/s) = 3.42853 3.60119 3.51592
# Velocity P-wave (km/s) = 5.82366 6.05167 5.93876
#
# Compressibility (1/GPa) = 0.02459659
#
# Stress axis : x y z
#
# Youngs Moduli (GPa) = 68.54035 77.80691 57.04737
#
# Poissons Ratio (x) = 0.27838 0.07485
# Poissons Ratio (y) = 0.24522 0.30221
# Poissons Ratio (z) = 0.08993 0.41219
#
# Static dielectric constant tensor:
#      x y z
#    x 1.908690 0.000000 0.000000 
#    y 0.000000 2.091330 0.000000 
#    z 0.000000 0.000000 1.924070 
# 
# From -- ./inp_files/21244.got.cif
#   From: 2010.05.17/outbox.cif.g08.bks.cpg/sg43_11_cif.got.tgz:21244.got - 2010.06.03 19:21:55.
