data_PCOD9370126
_publ_section_title
;
Structure prediction by ZEFSAII (Michael W. Deem and Ramdas Pophale) SiO2 
 PCOD9370126
Probable space group: F D D 2
;
_chemical_formula_sum "Si O2"
_cell_formula_units_Z 104
_cell_length_a 9.158971
_cell_length_b 19.653394
_cell_length_c 28.137490
_cell_angle_alpha 90.000000
_cell_angle_beta 90.000000
_cell_angle_gamma 90.000000
_cell_volume 5064.885109
_symmetry_space_group_name_H-M "F D D 2"
_symmetry_group_IT_number 43
_symmetry_cell_setting 'orthorhombic'
loop_
_space_group_symop_operation_xyz
x,y,z
-x,-y,z
1/4-x,1/4+y,1/4+z
1/4+x,1/4-y,1/4+z
x,1/2+y,1/2+z
-x,1/2-y,1/2+z
1/4-x,3/4+y,3/4+z
1/4+x,3/4-y,3/4+z
1/2+x,y,1/2+z
1/2-x,-y,1/2+z
3/4-x,1/4+y,3/4+z
3/4+x,1/4-y,3/4+z
1/2+x,1/2+y,z
1/2-x,1/2-y,z
3/4-x,3/4+y,1/4+z
3/4+x,3/4-y,1/4+z
loop_
_atom_site_type_symbol
_atom_site_label
_atom_site_fract_x
_atom_site_fract_y
_atom_site_fract_z
Si Si1 0.296771 0.069936 0.694060
Si Si2 0.236624 0.879293 0.607489
Si Si3 0.016942 0.143754 0.542957
Si Si4 0.363451 0.408990 0.204089
Si Si5 0.500000 0.500000 0.321726
Si Si6 0.288361 0.960547 0.094887
Si Si7 0.051514 0.867714 0.064764
O O1 0.216085 0.104339 0.738705
O O2 0.463162 0.099148 0.692521
O O3 0.199806 0.074358 0.646681
O O4 0.323228 0.988748 0.699002
O O5 0.270938 0.870800 0.663238
O O6 0.385262 0.864193 0.579533
O O7 0.105009 0.840458 0.582024
O O8 0.198952 0.959155 0.599117
O O9 0.137729 0.203101 0.543238
O O10 0.101452 0.075723 0.558742
O O11 0.326735 0.390054 0.258248
O O12 0.393599 0.441813 0.342235
O O13 0.125835 0.938552 0.079437
#
# Coordination Sequence:
#
# PCOD9370126 Si02
#       7
#    16  16  16  16   8  16  16
#     4  10  17  36  65  86 109 165 213 237 282 366
#     4  11  24  35  61  95 122 153 198 263 303 343
#     4  11  21  39  63  89 125 150 208 254 300 352
#     4  10  18  36  62  91 110 157 216 242 282 359
#     4  10  20  38  62  88 106 170 196 242 298 360
#     4  10  21  37  64  87 119 160 204 240 305 367
#     4  11  19  37  66  85 121 151 209 247 301 355
#
# _framework density 20.533536000000002
#
# number of rings (size 3 to 8) (size 9 to 14) (size 15 to 20)
#    0.000    1.538    6.154    0.923    0.000    1.846 
#    0.000    1.538   33.846    0.000    0.000    0.000 
#    0.000    0.000    0.000    0.000    0.000    0.000 
#
# Total GULP energy -144889.609261 kJ/mol
# GULP energy per Si atom -5572.677279 kJ/mol
# Density = 2.048680 g / cm^3
# Si number density = 20.533536 Si / 1000 Ang^3
#
#
#
# Elastic Constant Matrix: (Units=GPa)
#
#
# Indices 1 2 3 4 5 6 
#
# 1 73.5335 2.7995 25.5897 0.0000 0.0000 0.0000
# 2 2.7995 32.4420 19.5781 0.0000 0.0000 0.0000
# 3 25.5897 19.5781 118.6740 0.0000 0.0000 0.0000
# 4 0.0000 0.0000 0.0000 19.0931 0.0000 0.0000
# 5 0.0000 0.0000 0.0000 0.0000 14.0645 0.0000
# 6 0.0000 0.0000 0.0000 0.0000 0.0000 11.8689
#
#
#
# Elastic Compliance Matrix: (Units=1/GPa)
#
#
# Indices 1 2 3 4 5 6 
#
# 1 0.014717 0.000716 -0.003292 0.000000 0.000000 0.000000
# 2 0.000716 0.034267 -0.005808 0.000000 0.000000 0.000000
# 3 -0.003292 -0.005808 0.010094 0.000000 0.000000 0.000000
# 4 0.000000 0.000000 0.000000 0.052375 0.000000 0.000000
# 5 0.000000 0.000000 0.000000 0.000000 0.071101 0.000000
# 6 0.000000 0.000000 0.000000 0.000000 0.000000 0.084254
#
#
# Mechanical properties :
#
#
# Convention : Reuss Voigt Hill
#
# Bulk Modulus (GPa) = 23.63331 35.62048 29.62689
# Shear Modulus (GPa) = 16.79661 20.78410 18.79036
#
# Velocity S-wave (km/s) = 2.86319 3.18497 3.02835
# Velocity P-wave (km/s) = 4.73973 5.55972 5.16602
#
# Compressibility (1/GPa) = 0.04231317
#
# Stress axis : x y z
#
# Youngs Moduli (GPa) = 67.94639 29.18240 99.06518
#
# Poissons Ratio (x) = -0.02091 0.32610
# Poissons Ratio (y) = -0.04868 0.57534
# Poissons Ratio (z) = 0.22366 0.16948
#
# Static dielectric constant tensor:
#      x y z
#    x 1.754780 0.000000 0.000000 
#    y 0.000000 1.747540 0.000000 
#    z 0.000000 0.000000 1.788190 
# 
# From -- ./inp_files/24329.got.cif
#   From: 2010.05.17/outbox.cif.g08.bks.cpg/sg43_13_cif.got.tgz:24329.got - 2010.06.03 19:21:55.
