data_PCOD9370304
_publ_section_title
;
Structure prediction by ZEFSAII (Michael W. Deem and Ramdas Pophale) SiO2 
 PCOD9370304
Probable space group: F D D 2
;
_chemical_formula_sum "Si O2"
_cell_formula_units_Z 104
_cell_length_a 15.847023
_cell_length_b 20.556397
_cell_length_c 17.342580
_cell_angle_alpha 90.000000
_cell_angle_beta 90.000000
_cell_angle_gamma 90.000000
_cell_volume 5649.478904
_symmetry_space_group_name_H-M "F D D 2"
_symmetry_group_IT_number 43
_symmetry_cell_setting 'orthorhombic'
loop_
_space_group_symop_operation_xyz
x,y,z
-x,-y,z
1/4-x,1/4+y,1/4+z
1/4+x,1/4-y,1/4+z
x,1/2+y,1/2+z
-x,1/2-y,1/2+z
1/4-x,3/4+y,3/4+z
1/4+x,3/4-y,3/4+z
1/2+x,y,1/2+z
1/2-x,-y,1/2+z
3/4-x,1/4+y,3/4+z
3/4+x,1/4-y,3/4+z
1/2+x,1/2+y,z
1/2-x,1/2-y,z
3/4-x,3/4+y,1/4+z
3/4+x,3/4-y,1/4+z
loop_
_atom_site_type_symbol
_atom_site_label
_atom_site_fract_x
_atom_site_fract_y
_atom_site_fract_z
Si Si1 0.752154 0.451888 0.209220
Si Si2 0.500000 0.500000 0.622353
Si Si3 0.501916 0.866508 0.730836
Si Si4 0.172402 0.866260 0.462564
Si Si5 0.367082 0.642267 0.107464
Si Si6 0.433639 0.765120 0.311301
Si Si7 0.614387 0.963403 0.829266
O O1 0.837472 0.419489 0.240854
O O2 0.695929 0.399053 0.162367
O O3 0.779038 0.504634 0.146195
O O4 0.695309 0.478913 0.276713
O O5 0.483275 0.437716 0.676569
O O6 0.582699 0.489302 0.570864
O O7 0.538795 0.869013 0.643215
O O8 0.407961 0.872956 0.768835
O O9 0.535956 0.797215 0.762308
O O10 0.548956 0.926410 0.773881
O O11 0.208402 0.916661 0.523988
O O12 0.140717 0.911218 0.392469
O O13 0.342428 0.717914 0.116429
#
# Coordination Sequence:
#
# PCOD9370304 Si02
#       7
#    16   8  16  16  16  16  16
#     4   9  21  33  46  83 106 130 174 226 270 325
#     4  10  20  32  48  80 100 132 174 216 276 322
#     4  10  19  30  48  83 109 140 171 226 270 336
#     4  11  19  30  53  74 102 137 169 219 273 333
#     4  10  19  31  50  77 114 138 177 213 277 325
#     4  10  19  32  50  72 111 131 170 222 272 321
#     4  11  18  30  52  76 105 141 168 219 284 330
#
# _framework density 18.408778000000002
#
# number of rings (size 3 to 8) (size 9 to 14) (size 15 to 20)
#    0.000    1.846    6.154    1.385    2.154    0.000 
#    0.000    0.000    6.769    0.000    0.000    0.000 
#    0.000    0.000    0.000    0.000    0.000    0.000 
#
# Total GULP energy -144804.393717 kJ/mol
# GULP energy per Si atom -5569.399758 kJ/mol
# Density = 1.836688 g / cm^3
# Si number density = 18.408778 Si / 1000 Ang^3
#
#
#
# Elastic Constant Matrix: (Units=GPa)
#
#
# Indices 1 2 3 4 5 6 
#
# 1 40.7553 3.9280 26.9249 0.0000 0.0000 0.0000
# 2 3.9280 94.1336 17.6117 0.0000 0.0000 0.0000
# 3 26.9249 17.6117 50.1011 0.0000 0.0000 0.0000
# 4 0.0000 0.0000 0.0000 -31.3627 0.0000 0.0000
# 5 0.0000 0.0000 0.0000 0.0000 28.0060 0.0000
# 6 0.0000 0.0000 0.0000 0.0000 0.0000 16.4850
#
#
#
# Elastic Compliance Matrix: (Units=1/GPa)
#
#
# Indices 1 2 3 4 5 6 
#
# 1 0.038555 0.002427 -0.021573 0.000000 0.000000 0.000000
# 2 0.002427 0.011524 -0.005355 0.000000 0.000000 0.000000
# 3 -0.021573 -0.005355 0.033436 0.000000 0.000000 0.000000
# 4 0.000000 0.000000 0.000000 -0.031885 0.000000 0.000000
# 5 0.000000 0.000000 0.000000 0.000000 0.035707 0.000000
# 6 0.000000 0.000000 0.000000 0.000000 0.000000 0.060661
#
#
# Mechanical properties :
#
#
# Convention : Reuss Voigt Hill
#
# Bulk Modulus (GPa) = 28.97515 31.32434 30.14975
# Shear Modulus (GPa) = 23.98032 11.72735 17.85384
#
# Velocity S-wave (km/s) = 3.61315 2.52673 3.11763
# Velocity P-wave (km/s) = 5.76025 5.05622 5.41968
#
# Compressibility (1/GPa) = 0.03451233
#
# Stress axis : x y z
#
# Youngs Moduli (GPa) = 25.93694 86.77645 29.90798
#
# Poissons Ratio (x) = -0.21064 0.64521
# Poissons Ratio (y) = -0.06296 0.16017
# Poissons Ratio (z) = 0.55954 0.46472
#
# Static dielectric constant tensor:
#      x y z
#    x 1.680760 0.000000 0.000000 
#    y 0.000000 1.790850 0.000000 
#    z 0.000000 0.000000 1.661360 
# 
# From -- ./inp_files/14243.got.cif
#   From: 2010.05.17/outbox.cif.g08.bks.cpg/sg43_8_cif.got.tgz:14243.got - 2010.06.03 19:21:55.
