data_PCOD9370399
_publ_section_title
;
Structure prediction by ZEFSAII (Michael W. Deem and Ramdas Pophale) SiO2 
 PCOD9370399
Probable space group: F D D 2
;
_chemical_formula_sum "Si O2"
_cell_formula_units_Z 64
_cell_length_a 9.851715
_cell_length_b 16.569089
_cell_length_c 20.450980
_cell_angle_alpha 90.000000
_cell_angle_beta 90.000000
_cell_angle_gamma 90.000000
_cell_volume 3338.294096
_symmetry_space_group_name_H-M "F D D 2"
_symmetry_group_IT_number 43
_symmetry_cell_setting 'orthorhombic'
loop_
_space_group_symop_operation_xyz
x,y,z
-x,-y,z
1/4-x,1/4+y,1/4+z
1/4+x,1/4-y,1/4+z
x,1/2+y,1/2+z
-x,1/2-y,1/2+z
1/4-x,3/4+y,3/4+z
1/4+x,3/4-y,3/4+z
1/2+x,y,1/2+z
1/2-x,-y,1/2+z
3/4-x,1/4+y,3/4+z
3/4+x,1/4-y,3/4+z
1/2+x,1/2+y,z
1/2-x,1/2-y,z
3/4-x,3/4+y,1/4+z
3/4+x,3/4-y,1/4+z
loop_
_atom_site_type_symbol
_atom_site_label
_atom_site_fract_x
_atom_site_fract_y
_atom_site_fract_z
Si Si1 0.662902 0.985144 0.873300
Si Si2 0.245102 0.109504 0.483269
Si Si3 0.535856 0.259954 0.980983
Si Si4 0.129060 0.802463 0.362877
O O1 0.678326 0.890350 0.886051
O O2 0.500000 0.000000 0.861251
O O3 0.710655 0.040596 0.932009
O O4 0.746457 0.007529 0.807997
O O5 0.384698 0.156329 0.471057
O O6 0.134405 0.181334 0.475504
O O7 0.229738 0.072653 0.556064
O O8 0.426439 0.245735 0.925133
O O9 0.250000 0.750000 0.332219
#
# Coordination Sequence:
#
# PCOD9370399 Si02
#       4
#    16  16  16  16
#     4  11  19  37  64  88 112 157 205 241 296 368
#     4  10  19  37  64  86 116 158 203 241 301 365
#     4  10  19  37  59  91 118 152 201 248 295 360
#     4  11  23  38  61  92 121 158 203 255 298 352
#
# _framework density 19.171468000000001
#
# number of rings (size 3 to 8) (size 9 to 14) (size 15 to 20)
#    0.000    1.500    7.500    0.750    3.500    0.000 
#    4.500    1.250    0.000    0.000    0.000    0.000 
#    0.000    0.000    0.000    0.000    0.000    0.000 
#
# Total GULP energy -89220.369467 kJ/mol
# GULP energy per Si atom -5576.273092 kJ/mol
# Density = 1.912783 g / cm^3
# Si number density = 19.171468 Si / 1000 Ang^3
#
#
#
# Elastic Constant Matrix: (Units=GPa)
#
#
# Indices 1 2 3 4 5 6 
#
# 1 22.4027 22.0702 18.0157 0.0000 0.0000 0.0000
# 2 22.0702 119.8378 54.6429 0.0000 0.0000 0.0000
# 3 18.0157 54.6429 135.0337 0.0000 0.0000 0.0000
# 4 0.0000 0.0000 0.0000 42.0549 0.0000 0.0000
# 5 0.0000 0.0000 0.0000 0.0000 20.6378 0.0000
# 6 0.0000 0.0000 0.0000 0.0000 0.0000 13.7496
#
#
#
# Elastic Compliance Matrix: (Units=1/GPa)
#
#
# Indices 1 2 3 4 5 6 
#
# 1 0.056294 -0.008514 -0.004065 0.000000 0.000000 0.000000
# 2 -0.008514 0.011520 -0.003526 0.000000 0.000000 0.000000
# 3 -0.004065 -0.003526 0.009375 0.000000 0.000000 0.000000
# 4 0.000000 0.000000 0.000000 0.023778 0.000000 0.000000
# 5 0.000000 0.000000 0.000000 0.000000 0.048455 0.000000
# 6 0.000000 0.000000 0.000000 0.000000 0.000000 0.072730
#
#
# Mechanical properties :
#
#
# Convention : Reuss Voigt Hill
#
# Bulk Modulus (GPa) = 22.23263 51.85910 37.04586
# Shear Modulus (GPa) = 18.56285 27.45815 23.01050
#
# Velocity S-wave (km/s) = 3.11505 3.78860 3.46822
# Velocity P-wave (km/s) = 4.95580 6.80050 5.95008
#
# Compressibility (1/GPa) = 0.04497894
#
# Stress axis : x y z
#
# Youngs Moduli (GPa) = 17.76385 86.80310 106.66946
#
# Poissons Ratio (x) = 0.73903 0.43364
# Poissons Ratio (y) = 0.15124 0.37611
# Poissons Ratio (z) = 0.07222 0.30606
#
# Static dielectric constant tensor:
#      x y z
#    x 1.678050 0.000000 0.000000 
#    y 0.000000 1.644690 0.000000 
#    z 0.000000 0.000000 1.677610 
# 
# From -- ./inp_files/13119.got.cif
#   From: 2010.05.17/outbox.cif.g08.bks.cpg/sg43_7_cif.got.tgz:13119.got - 2010.06.03 19:21:55.
