data_PCOD9370621
_publ_section_title
;
Structure prediction by ZEFSAII (Michael W. Deem and Ramdas Pophale) SiO2 
 PCOD9370621
Probable space group: F D D 2
;
_chemical_formula_sum "Si O2"
_cell_formula_units_Z 112
_cell_length_a 15.945017
_cell_length_b 20.430553
_cell_length_c 17.911122
_cell_angle_alpha 90.000000
_cell_angle_beta 90.000000
_cell_angle_gamma 90.000000
_cell_volume 5834.825881
_symmetry_space_group_name_H-M "F D D 2"
_symmetry_group_IT_number 43
_symmetry_cell_setting 'orthorhombic'
loop_
_space_group_symop_operation_xyz
x,y,z
-x,-y,z
1/4-x,1/4+y,1/4+z
1/4+x,1/4-y,1/4+z
x,1/2+y,1/2+z
-x,1/2-y,1/2+z
1/4-x,3/4+y,3/4+z
1/4+x,3/4-y,3/4+z
1/2+x,y,1/2+z
1/2-x,-y,1/2+z
3/4-x,1/4+y,3/4+z
3/4+x,1/4-y,3/4+z
1/2+x,1/2+y,z
1/2-x,1/2-y,z
3/4-x,3/4+y,1/4+z
3/4+x,3/4-y,1/4+z
loop_
_atom_site_type_symbol
_atom_site_label
_atom_site_fract_x
_atom_site_fract_y
_atom_site_fract_z
Si Si1 0.482659 0.181403 0.662990
Si Si2 0.992207 0.240670 0.525367
Si Si3 0.415424 0.036098 0.687505
Si Si4 0.696367 0.308573 0.152962
Si Si5 0.136608 0.010319 0.626939
Si Si6 0.308075 0.557806 0.058807
Si Si7 0.508545 0.403210 0.568928
O O1 0.509143 0.196293 0.578747
O O2 0.444118 0.111483 0.686575
O O3 0.395546 0.221346 0.669257
O O4 0.557815 0.193111 0.720075
O O5 0.084868 0.230372 0.488418
O O6 0.977563 0.174244 0.572575
O O7 0.922758 0.245104 0.460542
O O8 0.382074 0.022461 0.603420
O O9 0.500000 0.000000 0.705435
O O10 0.750000 0.250000 0.120999
O O11 0.693944 0.369295 0.095478
O O12 0.737446 0.331269 0.231524
O O13 0.219678 0.025134 0.579697
O O14 0.072191 0.070555 0.614620
O O15 0.085795 0.947158 0.597708
#
# Coordination Sequence:
#
# PCOD9370621 Si02
#       7
#    16  16  16  16  16  16  16
#     4  11  23  37  60  92 125 166 208 257 323 389
#     4  11  24  41  63  97 130 168 212 267 325 385
#     4  10  23  41  65  89 125 165 210 272 316 375
#     4  11  20  31  63 100 126 159 203 267 332 371
#     4  10  20  37  60  92 134 159 212 260 317 385
#     4  10  20  38  57  93 130 156 210 263 312 395
#     4  11  19  38  65  91 127 167 206 268 317 377
#
# _framework density 19.195088999999999
#
# number of rings (size 3 to 8) (size 9 to 14) (size 15 to 20)
#    0.000    1.429    7.143    0.000    8.000    1.143 
#    2.571    0.000    6.286    0.000    0.000    0.000 
#    0.000    0.000    0.000    0.000    0.000    0.000 
#
# Total GULP energy -156053.179843 kJ/mol
# GULP energy per Si atom -5573.327852 kJ/mol
# Density = 1.915140 g / cm^3
# Si number density = 19.195089 Si / 1000 Ang^3
#
#
#
# Elastic Constant Matrix: (Units=GPa)
#
#
# Indices 1 2 3 4 5 6 
#
# 1 70.5778 17.7440 35.9490 0.0000 0.0000 0.0000
# 2 17.7440 37.6608 25.2915 0.0000 0.0000 0.0000
# 3 35.9490 25.2915 123.3705 0.0000 0.0000 0.0000
# 4 0.0000 0.0000 0.0000 24.7355 0.0000 0.0000
# 5 0.0000 0.0000 0.0000 0.0000 23.5878 0.0000
# 6 0.0000 0.0000 0.0000 0.0000 0.0000 19.7805
#
#
#
# Elastic Compliance Matrix: (Units=1/GPa)
#
#
# Indices 1 2 3 4 5 6 
#
# 1 0.017609 -0.005625 -0.003978 0.000000 0.000000 0.000000
# 2 -0.005625 0.032589 -0.005042 0.000000 0.000000 0.000000
# 3 -0.003978 -0.005042 0.010298 0.000000 0.000000 0.000000
# 4 0.000000 0.000000 0.000000 0.040428 0.000000 0.000000
# 5 0.000000 0.000000 0.000000 0.000000 0.042395 0.000000
# 6 0.000000 0.000000 0.000000 0.000000 0.000000 0.050555
#
#
# Mechanical properties :
#
#
# Convention : Reuss Voigt Hill
#
# Bulk Modulus (GPa) = 32.04437 43.28646 37.66541
# Shear Modulus (GPa) = 21.40723 23.79572 22.60147
#
# Velocity S-wave (km/s) = 3.34315 3.52473 3.43514
# Velocity P-wave (km/s) = 5.62428 6.25817 5.94967
#
# Compressibility (1/GPa) = 0.03120673
#
# Stress axis : x y z
#
# Youngs Moduli (GPa) = 56.78853 30.68523 97.10261
#
# Poissons Ratio (x) = 0.17261 0.38627
# Poissons Ratio (y) = 0.31945 0.48957
# Poissons Ratio (z) = 0.22590 0.15471
#
# Static dielectric constant tensor:
#      x y z
#    x 1.757170 0.000000 0.000000 
#    y 0.000000 1.914910 0.000000 
#    z 0.000000 0.000000 1.748390 
# 
# From -- ./inp_files/14318.got.cif
#   From: 2010.05.17/outbox.cif.g08.bks.cpg/sg43_8_cif.got.tgz:14318.got - 2010.06.03 19:21:55.
