data_PCOD9370902
_publ_section_title
;
Structure prediction by ZEFSAII (Michael W. Deem and Ramdas Pophale) SiO2 
 PCOD9370902
Probable space group: F D D 2
;
_chemical_formula_sum "Si O2"
_cell_formula_units_Z 112
_cell_length_a 10.710003
_cell_length_b 14.843293
_cell_length_c 27.147240
_cell_angle_alpha 90.000000
_cell_angle_beta 90.000000
_cell_angle_gamma 90.000000
_cell_volume 4315.643234
_symmetry_space_group_name_H-M "F D D 2"
_symmetry_group_IT_number 43
_symmetry_cell_setting 'orthorhombic'
loop_
_space_group_symop_operation_xyz
x,y,z
-x,-y,z
1/4-x,1/4+y,1/4+z
1/4+x,1/4-y,1/4+z
x,1/2+y,1/2+z
-x,1/2-y,1/2+z
1/4-x,3/4+y,3/4+z
1/4+x,3/4-y,3/4+z
1/2+x,y,1/2+z
1/2-x,-y,1/2+z
3/4-x,1/4+y,3/4+z
3/4+x,1/4-y,3/4+z
1/2+x,1/2+y,z
1/2-x,1/2-y,z
3/4-x,3/4+y,1/4+z
3/4+x,3/4-y,1/4+z
loop_
_atom_site_type_symbol
_atom_site_label
_atom_site_fract_x
_atom_site_fract_y
_atom_site_fract_z
Si Si1 0.366502 0.954579 0.480660
Si Si2 0.194488 0.383594 0.426132
Si Si3 0.545867 0.724376 0.968318
Si Si4 0.747762 0.529520 0.331610
Si Si5 0.947946 0.903782 0.462133
Si Si6 0.131202 0.463452 0.586220
Si Si7 0.093449 0.581030 0.081159
O O1 0.359227 0.856399 0.457748
O O2 0.500000 0.000000 0.466923
O O3 0.276260 0.027054 0.458729
O O4 0.361607 0.968456 0.539155
O O5 0.087595 0.320932 0.449773
O O6 0.163242 0.427222 0.373311
O O7 0.339657 0.356118 0.429397
O O8 0.555825 0.828261 0.955926
O O9 0.553455 0.728690 0.027738
O O10 0.645899 0.608849 0.323043
O O11 0.693918 0.432413 0.347528
O O12 0.910916 0.908228 0.520616
O O13 0.000000 0.000000 0.446175
O O14 0.274554 0.455929 0.601305
O O15 0.000000 0.500000 0.610019
O O16 0.000000 0.500000 0.093000
#
# Coordination Sequence:
#
# PCOD9370902 Si02
#       7
#    16  16  16  16  16  16  16
#     4   9  17  37  64  87 129 183 220 288 365 417
#     4  11  21  38  64  97 130 172 237 296 352 438
#     4  10  20  42  65  91 134 183 224 297 371 420
#     4  11  22  38  67 102 133 180 245 295 360 442
#     4  10  21  37  59  90 130 176 233 281 354 437
#     4  11  19  38  68  98 129 180 239 294 349 430
#     4  10  22  42  66  93 142 196 229 292 375 440
#
# _framework density 25.952099
#
# number of rings (size 3 to 8) (size 9 to 14) (size 15 to 20)
#    0.000    1.714    5.714    0.857    0.000    4.571 
#    0.000    8.571    0.000    0.000    0.000    0.000 
#    0.000    0.000    0.000    0.000    0.000    0.000 
#
# Total GULP energy -155958.493784 kJ/mol
# GULP energy per Si atom -5569.946207 kJ/mol
# Density = 2.589303 g / cm^3
# Si number density = 25.952099 Si / 1000 Ang^3
#
#
#
# Elastic Constant Matrix: (Units=GPa)
#
#
# Indices 1 2 3 4 5 6 
#
# 1 56.8000 30.2573 11.8624 0.0000 0.0000 0.0000
# 2 30.2573 239.9574 23.5310 0.0000 0.0000 0.0000
# 3 11.8624 23.5310 98.1600 0.0000 0.0000 0.0000
# 4 0.0000 0.0000 0.0000 2.2293 0.0000 0.0000
# 5 0.0000 0.0000 0.0000 0.0000 1.9925 0.0000
# 6 0.0000 0.0000 0.0000 0.0000 0.0000 23.8631
#
#
#
# Elastic Compliance Matrix: (Units=1/GPa)
#
#
# Indices 1 2 3 4 5 6 
#
# 1 0.019172 -0.002243 -0.001779 0.000000 0.000000 0.000000
# 2 -0.002243 0.004530 -0.000815 0.000000 0.000000 0.000000
# 3 -0.001779 -0.000815 0.010598 0.000000 0.000000 0.000000
# 4 0.000000 0.000000 0.000000 0.448568 0.000000 0.000000
# 5 0.000000 0.000000 0.000000 0.000000 0.501884 0.000000
# 6 0.000000 0.000000 0.000000 0.000000 0.000000 0.041906
#
#
# Mechanical properties :
#
#
# Convention : Reuss Voigt Hill
#
# Bulk Modulus (GPa) = 40.60786 58.46874 49.53830
# Shear Modulus (GPa) = 4.78679 27.56810 16.17745
#
# Velocity S-wave (km/s) = 1.35959 3.26278 2.49942
# Velocity P-wave (km/s) = 4.25979 6.06405 5.24016
#
# Compressibility (1/GPa) = 0.02462578
#
# Stress axis : x y z
#
# Youngs Moduli (GPa) = 52.15928 220.74324 94.35915
#
# Poissons Ratio (x) = 0.49513 0.16788
# Poissons Ratio (y) = 0.11699 0.07689
# Poissons Ratio (z) = 0.09280 0.17989
#
# Static dielectric constant tensor:
#      x y z
#    x 2.258690 0.000000 0.000000 
#    y 0.000000 2.261890 0.000000 
#    z 0.000000 0.000000 2.252990 
# 
# From -- ./inp_files/28635.got.cif
#   From: 2010.05.17/outbox.cif.g08.bks.cpg/sg43_15_cif.got.tgz:28635.got - 2010.06.03 19:21:55.
