data_PCOD9370695
_publ_section_title
;
Structure prediction by ZEFSAII (Michael W. Deem and Ramdas Pophale) SiO2 
 PCOD9370695
Probable space group: F D D 2
;
_chemical_formula_sum "Si O2"
_cell_formula_units_Z 120
_cell_length_a 24.628324
_cell_length_b 17.509039
_cell_length_c 13.311941
_cell_angle_alpha 90.000000
_cell_angle_beta 90.000000
_cell_angle_gamma 90.000000
_cell_volume 5740.352374
_symmetry_space_group_name_H-M "F D D 2"
_symmetry_group_IT_number 43
_symmetry_cell_setting 'orthorhombic'
loop_
_space_group_symop_operation_xyz
x,y,z
-x,-y,z
1/4-x,1/4+y,1/4+z
1/4+x,1/4-y,1/4+z
x,1/2+y,1/2+z
-x,1/2-y,1/2+z
1/4-x,3/4+y,3/4+z
1/4+x,3/4-y,3/4+z
1/2+x,y,1/2+z
1/2-x,-y,1/2+z
3/4-x,1/4+y,3/4+z
3/4+x,1/4-y,3/4+z
1/2+x,1/2+y,z
1/2-x,1/2-y,z
3/4-x,3/4+y,1/4+z
3/4+x,3/4-y,1/4+z
loop_
_atom_site_type_symbol
_atom_site_label
_atom_site_fract_x
_atom_site_fract_y
_atom_site_fract_z
Si Si1 0.476587 0.116722 0.368340
Si Si2 0.505380 0.854964 0.757339
Si Si3 0.250000 0.250000 0.614958
Si Si4 0.396782 0.693381 0.365842
Si Si5 0.419358 0.125323 0.574726
Si Si6 0.132798 0.225873 0.660458
Si Si7 0.586626 0.539505 0.823543
Si Si8 0.163610 0.003031 0.999712
O O1 0.464593 0.123490 0.487164
O O2 0.539206 0.103943 0.334495
O O3 0.444393 0.186648 0.319054
O O4 0.445425 0.039815 0.335713
O O5 0.478239 0.930525 0.798819
O O6 0.538316 0.816853 0.850091
O O7 0.550147 0.884021 0.679785
O O8 0.462601 0.798959 0.707200
O O9 0.197673 0.224208 0.673624
O O10 0.370756 0.607064 0.362144
O O11 0.384804 0.749901 0.272925
O O12 0.372029 0.717084 0.472281
O O13 0.390604 0.207775 0.588448
O O14 0.376574 0.057368 0.554410
O O15 0.628456 0.545153 0.915652
#
# Coordination Sequence:
#
# PCOD9370695 Si02
#       8
#    16  16   8  16  16  16  16  16
#     4  10  25  42  67  93 132 181 235 279 351 426
#     4  10  23  39  62 102 125 176 225 276 341 417
#     4  10  20  38  64  94 138 166 228 272 354 412
#     4  10  24  42  68  93 144 176 233 288 348 421
#     4  10  23  41  64 100 133 170 227 286 342 406
#     4  10  22  41  66 100 133 183 221 293 348 416
#     4  10  25  47  62  97 133 182 231 288 347 413
#     4  11  24  42  71  96 135 181 226 288 353 411
#
# _framework density 20.904640000000001
#
# number of rings (size 3 to 8) (size 9 to 14) (size 15 to 20)
#    0.000    1.867    1.333    0.000   11.200    6.400 
#    2.400    0.000    0.000    0.000    0.000    0.000 
#    0.000    0.000    0.000    0.000    0.000    0.000 
#
# Total GULP energy -167083.211400 kJ/mol
# GULP energy per Si atom -5569.440380 kJ/mol
# Density = 2.085706 g / cm^3
# Si number density = 20.904640 Si / 1000 Ang^3
#
#
#
# Elastic Constant Matrix: (Units=GPa)
#
#
# Indices 1 2 3 4 5 6 
#
# 1 85.6808 15.7343 39.3203 0.0000 0.0000 0.0000
# 2 15.7343 57.8735 19.4486 0.0000 0.0000 0.0000
# 3 39.3203 19.4486 87.7837 0.0000 0.0000 0.0000
# 4 0.0000 0.0000 0.0000 22.7708 0.0000 0.0000
# 5 0.0000 0.0000 0.0000 0.0000 22.0718 0.0000
# 6 0.0000 0.0000 0.0000 0.0000 0.0000 26.9722
#
#
#
# Elastic Compliance Matrix: (Units=1/GPa)
#
#
# Indices 1 2 3 4 5 6 
#
# 1 0.014893 -0.001953 -0.006238 0.000000 0.000000 0.000000
# 2 -0.001953 0.018925 -0.003318 0.000000 0.000000 0.000000
# 3 -0.006238 -0.003318 0.014921 0.000000 0.000000 0.000000
# 4 0.000000 0.000000 0.000000 0.043916 0.000000 0.000000
# 5 0.000000 0.000000 0.000000 0.000000 0.045307 0.000000
# 6 0.000000 0.000000 0.000000 0.000000 0.000000 0.037075
#
#
# Mechanical properties :
#
#
# Convention : Reuss Voigt Hill
#
# Bulk Modulus (GPa) = 38.87919 42.26048 40.56983
# Shear Modulus (GPa) = 24.19809 24.81861 24.50835
#
# Velocity S-wave (km/s) = 3.40596 3.44936 3.42773
# Velocity P-wave (km/s) = 5.84005 6.01031 5.92579
#
# Compressibility (1/GPa) = 0.02572070
#
# Stress axis : x y z
#
# Youngs Moduli (GPa) = 67.14761 52.84005 67.01961
#
# Poissons Ratio (x) = 0.10317 0.41808
# Poissons Ratio (y) = 0.13111 0.22239
# Poissons Ratio (z) = 0.41888 0.17534
#
# Static dielectric constant tensor:
#      x y z
#    x 1.761300 0.000000 0.000000 
#    y 0.000000 1.836280 0.000000 
#    z 0.000000 0.000000 1.737910 
# 
# From -- ./inp_files/11321.got.cif
#   From: 2010.05.17/outbox.cif.g08.bks.cpg/sg43_6_cif.got.tgz:11321.got - 2010.06.03 19:21:55.
