data_PCOD9370710
_publ_section_title
;
Structure prediction by ZEFSAII (Michael W. Deem and Ramdas Pophale) SiO2 
 PCOD9370710
Probable space group: F D D 2
;
_chemical_formula_sum "Si O2"
_cell_formula_units_Z 72
_cell_length_a 9.726066
_cell_length_b 24.814082
_cell_length_c 12.513716
_cell_angle_alpha 90.000000
_cell_angle_beta 90.000000
_cell_angle_gamma 90.000000
_cell_volume 3020.102757
_symmetry_space_group_name_H-M "F D D 2"
_symmetry_group_IT_number 43
_symmetry_cell_setting 'orthorhombic'
loop_
_space_group_symop_operation_xyz
x,y,z
-x,-y,z
1/4-x,1/4+y,1/4+z
1/4+x,1/4-y,1/4+z
x,1/2+y,1/2+z
-x,1/2-y,1/2+z
1/4-x,3/4+y,3/4+z
1/4+x,3/4-y,3/4+z
1/2+x,y,1/2+z
1/2-x,-y,1/2+z
3/4-x,1/4+y,3/4+z
3/4+x,1/4-y,3/4+z
1/2+x,1/2+y,z
1/2-x,1/2-y,z
3/4-x,3/4+y,1/4+z
3/4+x,3/4-y,1/4+z
loop_
_atom_site_type_symbol
_atom_site_label
_atom_site_fract_x
_atom_site_fract_y
_atom_site_fract_z
Si Si1 0.992873 0.773257 0.370370
Si Si2 0.065800 0.443459 0.794505
Si Si3 0.500000 0.000000 0.000582
Si Si4 0.574780 0.948281 0.412350
Si Si5 0.030342 0.339278 0.482022
O O1 0.143378 0.782453 0.322343
O O2 0.950892 0.809597 0.472686
O O3 0.886497 0.783573 0.275416
O O4 0.987674 0.710162 0.401550
O O5 0.000000 0.500000 0.752223
O O6 0.941042 0.403675 0.767391
O O7 0.078411 0.458780 0.919055
O O8 0.695961 0.928891 0.335103
O O9 0.482478 0.895975 0.434994
O O10 0.500000 0.000000 0.363683
#
# Coordination Sequence:
#
# PCOD9370710 Si02
#       5
#    16  16   8  16  16
#     4  11  20  40  71  97 144 185 230 302 354 423
#     4   8  17  38  62  98 133 180 228 287 346 425
#     4  10  20  38  68 102 140 186 230 294 354 418
#     4  12  24  42  71 105 140 199 242 305 371 440
#     4  11  23  43  70 103 145 189 252 293 373 444
#
# _framework density 23.840249
#
# number of rings (size 3 to 8) (size 9 to 14) (size 15 to 20)
#    0.667    0.889    2.222    4.667    1.556    0.000 
#    0.000    2.222   14.667    0.000    0.000    0.000 
#    0.000    0.000    0.000    0.000    0.000    0.000 
#
# Total GULP energy -100517.219608 kJ/mol
# GULP energy per Si atom -5584.289978 kJ/mol
# Density = 2.378599 g / cm^3
# Si number density = 23.840249 Si / 1000 Ang^3
#
#
#
# Elastic Constant Matrix: (Units=GPa)
#
#
# Indices 1 2 3 4 5 6 
#
# 1 89.4643 14.0838 56.3232 0.0000 0.0000 0.0000
# 2 14.0838 117.0816 43.8312 0.0000 0.0000 0.0000
# 3 56.3232 43.8312 128.3577 0.0000 0.0000 0.0000
# 4 0.0000 0.0000 0.0000 16.6820 0.0000 0.0000
# 5 0.0000 0.0000 0.0000 0.0000 36.2093 0.0000
# 6 0.0000 0.0000 0.0000 0.0000 0.0000 21.9751
#
#
#
# Elastic Compliance Matrix: (Units=1/GPa)
#
#
# Indices 1 2 3 4 5 6 
#
# 1 0.015506 0.000782 -0.007071 0.000000 0.000000 0.000000
# 2 0.000782 0.009832 -0.003701 0.000000 0.000000 0.000000
# 3 -0.007071 -0.003701 0.012157 0.000000 0.000000 0.000000
# 4 0.000000 0.000000 0.000000 0.059945 0.000000 0.000000
# 5 0.000000 0.000000 0.000000 0.000000 0.027617 0.000000
# 6 0.000000 0.000000 0.000000 0.000000 0.000000 0.045506
#
#
# Mechanical properties :
#
#
# Convention : Reuss Voigt Hill
#
# Bulk Modulus (GPa) = 57.09014 62.59778 59.84396
# Shear Modulus (GPa) = 25.46055 29.68431 27.57243
#
# Velocity S-wave (km/s) = 3.27152 3.53247 3.40450
# Velocity P-wave (km/s) = 6.18623 6.55378 6.37265
#
# Compressibility (1/GPa) = 0.01751616
#
# Stress axis : x y z
#
# Youngs Moduli (GPa) = 64.49006 101.70473 82.25570
#
# Poissons Ratio (x) = -0.07953 0.58164
# Poissons Ratio (y) = -0.05043 0.30440
# Poissons Ratio (z) = 0.45602 0.37637
#
# Static dielectric constant tensor:
#      x y z
#    x 2.013440 0.000000 0.000000 
#    y 0.000000 1.960720 0.000000 
#    z 0.000000 0.000000 1.911450 
# 
# From -- ./inp_files/5628.got.cif
#   From: 2010.05.17/outbox.cif.g08.bks.cpg/sg43_3_cif.got.tgz:5628.got - 2010.06.03 19:21:55.
