data_PCOD9370227
_publ_section_title
;
Structure prediction by ZEFSAII (Michael W. Deem and Ramdas Pophale) SiO2 
 PCOD9370227
Probable space group: F D D 2
;
_chemical_formula_sum "Si O2"
_cell_formula_units_Z 104
_cell_length_a 11.157371
_cell_length_b 29.328410
_cell_length_c 15.122510
_cell_angle_alpha 90.000000
_cell_angle_beta 90.000000
_cell_angle_gamma 90.000000
_cell_volume 4948.507964
_symmetry_space_group_name_H-M "F D D 2"
_symmetry_group_IT_number 43
_symmetry_cell_setting 'orthorhombic'
loop_
_space_group_symop_operation_xyz
x,y,z
-x,-y,z
1/4-x,1/4+y,1/4+z
1/4+x,1/4-y,1/4+z
x,1/2+y,1/2+z
-x,1/2-y,1/2+z
1/4-x,3/4+y,3/4+z
1/4+x,3/4-y,3/4+z
1/2+x,y,1/2+z
1/2-x,-y,1/2+z
3/4-x,1/4+y,3/4+z
3/4+x,1/4-y,3/4+z
1/2+x,1/2+y,z
1/2-x,1/2-y,z
3/4-x,3/4+y,1/4+z
3/4+x,3/4-y,1/4+z
loop_
_atom_site_type_symbol
_atom_site_label
_atom_site_fract_x
_atom_site_fract_y
_atom_site_fract_z
Si Si1 0.047539 0.409984 0.289070
Si Si2 0.290978 0.898620 0.705691
Si Si3 0.749538 0.484138 0.589111
Si Si4 0.000000 0.000000 0.695208
Si Si5 0.816761 0.623820 0.765809
Si Si6 0.303563 0.584883 0.076897
Si Si7 0.426607 0.331765 0.692767
O O1 0.190753 0.412347 0.277869
O O2 0.005028 0.388290 0.380354
O O3 0.988174 0.456524 0.259014
O O4 0.013647 0.373336 0.215322
O O5 0.313718 0.944701 0.648556
O O6 0.390511 0.870234 0.757461
O O7 0.621033 0.493268 0.637675
O O8 0.822017 0.530718 0.574985
O O9 0.720987 0.462468 0.493688
O O10 0.847304 0.602252 0.671658
O O11 0.696844 0.652032 0.740673
O O12 0.819280 0.582437 0.836975
O O13 0.911846 0.658057 0.809534
#
# Coordination Sequence:
#
# PCOD9370227 Si02
#       7
#    16  16  16   8  16  16  16
#     4  10  20  37  61  84 122 154 203 263 320 370
#     4  10  22  41  57  89 129 171 202 263 317 386
#     4  10  21  37  65  88 126 164 209 268 318 388
#     4  10  18  36  62  96 112 150 218 272 316 364
#     4  10  21  37  66  89 124 161 210 270 321 381
#     4  11  22  42  61  90 127 176 211 253 329 394
#     4  10  19  38  60  93 119 153 206 269 321 362
#
# _framework density 21.016435000000001
#
# number of rings (size 3 to 8) (size 9 to 14) (size 15 to 20)
#    0.000    1.846    0.000    6.462    0.000    0.000 
#   16.615    3.846    0.000    0.000    0.000    0.000 
#    0.000    0.000    0.000    0.000    0.000    0.000 
#
# Total GULP energy -144874.329580 kJ/mol
# GULP energy per Si atom -5572.089599 kJ/mol
# Density = 2.096860 g / cm^3
# Si number density = 21.016435 Si / 1000 Ang^3
#
#
#
# Elastic Constant Matrix: (Units=GPa)
#
#
# Indices 1 2 3 4 5 6 
#
# 1 35.5140 10.1494 23.2649 0.0000 0.0000 0.0000
# 2 10.1494 125.5755 44.0415 0.0000 0.0000 0.0000
# 3 23.2649 44.0415 132.7773 0.0000 0.0000 0.0000
# 4 0.0000 0.0000 0.0000 -13.7878 0.0000 0.0000
# 5 0.0000 0.0000 0.0000 0.0000 -1.3666 0.0000
# 6 0.0000 0.0000 0.0000 0.0000 0.0000 14.3871
#
#
#
# Elastic Compliance Matrix: (Units=1/GPa)
#
#
# Indices 1 2 3 4 5 6 
#
# 1 0.031863 -0.000698 -0.005351 0.000000 0.000000 0.000000
# 2 -0.000698 0.009027 -0.002872 0.000000 0.000000 0.000000
# 3 -0.005351 -0.002872 0.009422 0.000000 0.000000 0.000000
# 4 0.000000 0.000000 0.000000 -0.072528 0.000000 0.000000
# 5 0.000000 0.000000 0.000000 0.000000 -0.731762 0.000000
# 6 0.000000 0.000000 0.000000 0.000000 0.000000 0.069507
#
#
# Mechanical properties :
#
#
# Convention : Reuss Voigt Hill
#
# Bulk Modulus (GPa) = 30.79903 49.86426 40.33165
# Shear Modulus (GPa) = -7.62422 14.27395 3.32486
#
# Velocity S-wave (km/s) = -1.90673 2.60894 1.25915
# Velocity P-wave (km/s) = 3.13673 5.73177 4.62019
#
# Compressibility (1/GPa) = 0.03246855
#
# Stress axis : x y z
#
# Youngs Moduli (GPa) = 31.38422 110.77900 106.13894
#
# Poissons Ratio (x) = 0.07738 0.56798
# Poissons Ratio (y) = 0.02192 0.30481
# Poissons Ratio (z) = 0.16795 0.31814
#
# Static dielectric constant tensor:
#      x y z
#    x 1.884160 0.000000 0.000000 
#    y 0.000000 1.761010 0.000000 
#    z 0.000000 0.000000 1.773640 
# 
# From -- ./inp_files/13439.got.cif
#   From: 2010.05.17/outbox.cif.g08.bks.cpg/sg43_7_cif.got.tgz:13439.got - 2010.06.03 19:21:55.
