data_PCOD9370899
_publ_section_title
;
Structure prediction by ZEFSAII (Michael W. Deem and Ramdas Pophale) SiO2 
 PCOD9370899
Probable space group: F D D 2
;
_chemical_formula_sum "Si O2"
_cell_formula_units_Z 104
_cell_length_a 27.328023
_cell_length_b 13.598535
_cell_length_c 13.710655
_cell_angle_alpha 90.000000
_cell_angle_beta 90.000000
_cell_angle_gamma 90.000000
_cell_volume 5095.168381
_symmetry_space_group_name_H-M "F D D 2"
_symmetry_group_IT_number 43
_symmetry_cell_setting 'orthorhombic'
loop_
_space_group_symop_operation_xyz
x,y,z
-x,-y,z
1/4-x,1/4+y,1/4+z
1/4+x,1/4-y,1/4+z
x,1/2+y,1/2+z
-x,1/2-y,1/2+z
1/4-x,3/4+y,3/4+z
1/4+x,3/4-y,3/4+z
1/2+x,y,1/2+z
1/2-x,-y,1/2+z
3/4-x,1/4+y,3/4+z
3/4+x,1/4-y,3/4+z
1/2+x,1/2+y,z
1/2-x,1/2-y,z
3/4-x,3/4+y,1/4+z
3/4+x,3/4-y,1/4+z
loop_
_atom_site_type_symbol
_atom_site_label
_atom_site_fract_x
_atom_site_fract_y
_atom_site_fract_z
Si Si1 0.338409 0.626966 0.917500
Si Si2 0.879642 0.968182 0.654763
Si Si3 0.656564 0.943750 0.639159
Si Si4 0.065283 0.827113 0.230688
Si Si5 0.750000 0.750000 0.447350
Si Si6 0.419030 0.656829 0.594163
Si Si7 0.467024 0.335245 0.575674
O O1 0.384625 0.695535 0.891932
O O2 0.291076 0.691236 0.887437
O O3 0.337645 0.520212 0.871461
O O4 0.333851 0.602554 0.033242
O O5 0.835146 0.972074 0.578041
O O6 0.860487 0.901673 0.742871
O O7 0.927770 0.916660 0.609932
O O8 0.895934 0.080626 0.670789
O O9 0.612848 0.877184 0.682644
O O10 0.701208 0.940764 0.715299
O O11 0.029021 0.916676 0.255667
O O12 0.041426 0.754893 0.151465
O O13 0.476432 0.635651 0.581143
#
# Coordination Sequence:
#
# PCOD9370899 Si02
#       7
#    16  16  16  16   8  16  16
#     4  11  22  40  63  92 132 170 219 277 339 391
#     4  11  25  44  63  97 135 174 225 274 341 397
#     4  10  22  39  64  94 125 169 217 283 335 390
#     4  10  20  42  63  90 132 158 217 293 321 388
#     4  10  22  36  66  92 120 162 220 274 330 386
#     4  12  25  42  68  92 136 186 214 274 342 410
#     4  11  22  42  68  96 128 173 224 273 334 407
#
# _framework density 20.411494000000001
#
# number of rings (size 3 to 8) (size 9 to 14) (size 15 to 20)
#    0.000    1.231    4.615    1.385    2.154    0.000 
#    0.000    0.000    0.000    0.000    0.000    0.000 
#    0.000    0.000    0.000    0.000    0.000    0.000 
#
# Total GULP energy -145072.940158 kJ/mol
# GULP energy per Si atom -5579.728468 kJ/mol
# Density = 2.036504 g / cm^3
# Si number density = 20.411494 Si / 1000 Ang^3
#
#
#
# Elastic Constant Matrix: (Units=GPa)
#
#
# Indices 1 2 3 4 5 6 
#
# 1 80.1852 16.9648 9.7991 0.0000 0.0000 0.0000
# 2 16.9648 88.7242 0.5671 0.0000 0.0000 0.0000
# 3 9.7991 0.5671 54.1837 0.0000 0.0000 0.0000
# 4 0.0000 0.0000 0.0000 25.1088 0.0000 0.0000
# 5 0.0000 0.0000 0.0000 0.0000 14.1411 0.0000
# 6 0.0000 0.0000 0.0000 0.0000 0.0000 28.1794
#
#
#
# Elastic Compliance Matrix: (Units=1/GPa)
#
#
# Indices 1 2 3 4 5 6 
#
# 1 0.013296 -0.002527 -0.002378 0.000000 0.000000 0.000000
# 2 -0.002527 0.011752 0.000334 0.000000 0.000000 0.000000
# 3 -0.002378 0.000334 0.018882 0.000000 0.000000 0.000000
# 4 0.000000 0.000000 0.000000 0.039827 0.000000 0.000000
# 5 0.000000 0.000000 0.000000 0.000000 0.070716 0.000000
# 6 0.000000 0.000000 0.000000 0.000000 0.000000 0.035487
#
#
# Mechanical properties :
#
#
# Convention : Reuss Voigt Hill
#
# Bulk Modulus (GPa) = 28.74550 30.86168 29.80359
# Shear Modulus (GPa) = 23.73056 26.53667 25.13362
#
# Velocity S-wave (km/s) = 3.41340 3.60958 3.51286
# Velocity P-wave (km/s) = 5.44506 5.70304 5.57554
#
# Compressibility (1/GPa) = 0.03478805
#
# Stress axis : x y z
#
# Youngs Moduli (GPa) = 75.20811 85.09214 52.95953
#
# Poissons Ratio (x) = 0.21504 0.12595
# Poissons Ratio (y) = 0.19007 -0.01769
# Poissons Ratio (z) = 0.17886 -0.02842
#
# Static dielectric constant tensor:
#      x y z
#    x 1.721090 0.000000 0.000000 
#    y 0.000000 1.747400 0.000000 
#    z 0.000000 0.000000 1.749570 
# 
# From -- ./inp_files/15046.got.cif
#   From: 2010.05.17/outbox.cif.g08.bks.cpg/sg43_8_cif.got.tgz:15046.got - 2010.06.03 19:21:55.
