data_PCOD9370514
_publ_section_title
;
Structure prediction by ZEFSAII (Michael W. Deem and Ramdas Pophale) SiO2 
 PCOD9370514
Probable space group: F D D 2
;
_chemical_formula_sum "Si O2"
_cell_formula_units_Z 120
_cell_length_a 11.913724
_cell_length_b 14.921399
_cell_length_c 31.746983
_cell_angle_alpha 90.000000
_cell_angle_beta 90.000000
_cell_angle_gamma 90.000000
_cell_volume 5643.643052
_symmetry_space_group_name_H-M "F D D 2"
_symmetry_group_IT_number 43
_symmetry_cell_setting 'orthorhombic'
loop_
_space_group_symop_operation_xyz
x,y,z
-x,-y,z
1/4-x,1/4+y,1/4+z
1/4+x,1/4-y,1/4+z
x,1/2+y,1/2+z
-x,1/2-y,1/2+z
1/4-x,3/4+y,3/4+z
1/4+x,3/4-y,3/4+z
1/2+x,y,1/2+z
1/2-x,-y,1/2+z
3/4-x,1/4+y,3/4+z
3/4+x,1/4-y,3/4+z
1/2+x,1/2+y,z
1/2-x,1/2-y,z
3/4-x,3/4+y,1/4+z
3/4+x,3/4-y,1/4+z
loop_
_atom_site_type_symbol
_atom_site_label
_atom_site_fract_x
_atom_site_fract_y
_atom_site_fract_z
Si Si1 0.939312 0.750849 0.943150
Si Si2 0.828612 0.166217 0.974512
Si Si3 0.735238 0.858815 0.385610
Si Si4 0.250000 0.250000 0.007371
Si Si5 0.219114 0.113273 0.078339
Si Si6 0.055268 0.902945 0.624407
Si Si7 0.827084 0.096361 0.066416
Si Si8 0.321223 0.834575 0.131969
O O1 0.869010 0.825094 0.917649
O O2 0.961999 0.670249 0.910489
O O3 0.053919 0.793416 0.958525
O O4 0.854133 0.717764 0.978954
O O5 0.750000 0.250000 0.985353
O O6 0.769445 0.114732 0.935016
O O7 0.849827 0.114905 0.017881
O O8 0.750000 0.750000 0.388682
O O9 0.617203 0.888321 0.365354
O O10 0.828774 0.880092 0.349998
O O11 0.203049 0.171949 0.037103
O O12 0.348103 0.123986 0.092276
O O13 0.191783 0.009364 0.071026
O O14 0.955626 0.833052 0.631780
O O15 0.000000 0.000000 0.612169
O O16 0.716093 0.144336 0.084212
O O17 0.250000 0.750000 0.146983
#
# Coordination Sequence:
#
# PCOD9370514 Si02
#       8
#    16  16  16   8  16  16  16  16
#     4  11  21  47  67  95 144 191 234 298 366 436
#     4  11  22  39  69 102 136 180 235 298 364 427
#     4   9  19  39  66  93 130 179 226 287 358 419
#     4  12  26  40  68 102 136 186 240 292 354 450
#     4  11  22  43  66  95 136 187 232 291 362 431
#     4  10  19  42  75  90 134 193 229 285 366 427
#     4  11  22  41  67 101 142 180 239 304 366 429
#     4  11  22  40  73 102 136 191 244 296 364 442
#
# _framework density 21.262861999999998
#
# number of rings (size 3 to 8) (size 9 to 14) (size 15 to 20)
#    0.000    1.333    6.000    2.800    0.000    3.200 
#    4.800    1.333    1.467    0.000    0.000    0.000 
#    0.000    0.000    0.000    0.000    0.000    0.000 
#
# Total GULP energy -167530.468225 kJ/mol
# GULP energy per Si atom -5584.348941 kJ/mol
# Density = 2.121447 g / cm^3
# Si number density = 21.262862 Si / 1000 Ang^3
#
#
#
# Elastic Constant Matrix: (Units=GPa)
#
#
# Indices 1 2 3 4 5 6 
#
# 1 125.4344 35.0691 42.7119 0.0000 0.0000 0.0000
# 2 35.0691 60.0084 31.5264 0.0000 0.0000 0.0000
# 3 42.7119 31.5264 140.7530 0.0000 0.0000 0.0000
# 4 0.0000 0.0000 0.0000 15.1160 0.0000 0.0000
# 5 0.0000 0.0000 0.0000 0.0000 19.8909 0.0000
# 6 0.0000 0.0000 0.0000 0.0000 0.0000 28.3960
#
#
#
# Elastic Compliance Matrix: (Units=1/GPa)
#
#
# Indices 1 2 3 4 5 6 
#
# 1 0.009981 -0.004807 -0.001952 0.000000 0.000000 0.000000
# 2 -0.004807 0.021202 -0.003290 0.000000 0.000000 0.000000
# 3 -0.001952 -0.003290 0.008434 0.000000 0.000000 0.000000
# 4 0.000000 0.000000 0.000000 0.066155 0.000000 0.000000
# 5 0.000000 0.000000 0.000000 0.000000 0.050274 0.000000
# 6 0.000000 0.000000 0.000000 0.000000 0.000000 0.035216
#
#
# Mechanical properties :
#
#
# Convention : Reuss Voigt Hill
#
# Bulk Modulus (GPa) = 51.23439 60.53452 55.88445
# Shear Modulus (GPa) = 22.94968 27.13981 25.04474
#
# Velocity S-wave (km/s) = 3.28888 3.57654 3.43572
# Velocity P-wave (km/s) = 6.21050 6.75181 6.48681
#
# Compressibility (1/GPa) = 0.01951814
#
# Stress axis : x y z
#
# Youngs Moduli (GPa) = 100.18993 47.16458 118.56882
#
# Poissons Ratio (x) = 0.22674 0.23144
# Poissons Ratio (y) = 0.48166 0.39011
# Poissons Ratio (z) = 0.19557 0.15518
#
# Static dielectric constant tensor:
#      x y z
#    x 1.816080 0.000000 0.000000 
#    y 0.000000 1.809020 0.000000 
#    z 0.000000 0.000000 1.768740 
# 
# From -- ./inp_files/25191.got.cif
#   From: 2010.05.17/outbox.cif.g08.bks.cpg/sg43_13_cif.got.tgz:25191.got - 2010.06.03 19:21:55.
