data_PCOD9370856
_publ_section_title
;
Structure prediction by ZEFSAII (Michael W. Deem and Ramdas Pophale) SiO2 
 PCOD9370856
Probable space group: F D D 2
;
_chemical_formula_sum "Si O2"
_cell_formula_units_Z 120
_cell_length_a 13.923250
_cell_length_b 14.530438
_cell_length_c 28.972266
_cell_angle_alpha 90.000000
_cell_angle_beta 90.000000
_cell_angle_gamma 90.000000
_cell_volume 5861.405815
_symmetry_space_group_name_H-M "F D D 2"
_symmetry_group_IT_number 43
_symmetry_cell_setting 'orthorhombic'
loop_
_space_group_symop_operation_xyz
x,y,z
-x,-y,z
1/4-x,1/4+y,1/4+z
1/4+x,1/4-y,1/4+z
x,1/2+y,1/2+z
-x,1/2-y,1/2+z
1/4-x,3/4+y,3/4+z
1/4+x,3/4-y,3/4+z
1/2+x,y,1/2+z
1/2-x,-y,1/2+z
3/4-x,1/4+y,3/4+z
3/4+x,1/4-y,3/4+z
1/2+x,1/2+y,z
1/2-x,1/2-y,z
3/4-x,3/4+y,1/4+z
3/4+x,3/4-y,1/4+z
loop_
_atom_site_type_symbol
_atom_site_label
_atom_site_fract_x
_atom_site_fract_y
_atom_site_fract_z
Si Si1 0.817782 0.080326 0.259790
Si Si2 0.386103 0.490864 0.443169
Si Si3 0.794902 0.047228 0.052851
Si Si4 0.500000 0.500000 0.829530
Si Si5 0.649254 0.043846 0.841653
Si Si6 0.406029 0.887950 0.608189
Si Si7 0.165201 0.822890 0.967339
Si Si8 0.358620 0.092719 0.026425
O O1 0.870440 0.150432 0.225151
O O2 0.721755 0.134207 0.275854
O O3 0.860569 0.040934 0.307123
O O4 0.818011 0.984737 0.230140
O O5 0.500000 0.500000 0.436307
O O6 0.340463 0.484851 0.394001
O O7 0.341383 0.572972 0.472594
O O8 0.863721 0.970675 0.076792
O O9 0.691162 0.996351 0.050710
O O10 0.811047 0.136264 0.084881
O O11 0.825341 0.089211 0.002157
O O12 0.576795 0.442390 0.858163
O O13 0.556497 0.570823 0.797520
O O14 0.747776 0.100506 0.833664
O O15 0.422017 0.912032 0.662273
O O16 0.250000 0.750000 0.979721
#
# Coordination Sequence:
#
# PCOD9370856 Si02
#       8
#    16  16  16   8  16  16  16  16
#     4  10  21  38  61  90 125 163 200 259 318 388
#     4  10  22  38  64  89 122 164 208 261 319 380
#     4  10  22  35  63  92 121 170 205 259 320 383
#     4  10  22  40  64  84 124 178 204 260 314 392
#     4  11  21  38  65  94 125 165 212 263 324 380
#     4  11  21  40  61  92 130 166 214 265 322 381
#     4  11  22  39  63  96 127 161 214 270 321 377
#     4  10  20  41  60  85 124 169 205 252 323 375
#
# _framework density 20.472904
#
# number of rings (size 3 to 8) (size 9 to 14) (size 15 to 20)
#    0.000    1.600    1.333    4.400    0.000    3.200 
#    4.800    2.667   10.267    0.000    0.000    0.000 
#    0.000    0.000    0.000    0.000    0.000    0.000 
#
# Total GULP energy -167082.330388 kJ/mol
# GULP energy per Si atom -5569.411013 kJ/mol
# Density = 2.042631 g / cm^3
# Si number density = 20.472904 Si / 1000 Ang^3
#
#
#
# Elastic Constant Matrix: (Units=GPa)
#
#
# Indices 1 2 3 4 5 6 
#
# 1 49.8468 23.3448 25.2051 0.0000 0.0000 0.0000
# 2 23.3448 104.5719 56.6384 0.0000 0.0000 0.0000
# 3 25.2051 56.6384 129.1258 0.0000 0.0000 0.0000
# 4 0.0000 0.0000 0.0000 26.7276 0.0000 0.0000
# 5 0.0000 0.0000 0.0000 0.0000 44.5588 0.0000
# 6 0.0000 0.0000 0.0000 0.0000 0.0000 36.3405
#
#
#
# Elastic Compliance Matrix: (Units=1/GPa)
#
#
# Indices 1 2 3 4 5 6 
#
# 1 0.023238 -0.003582 -0.002965 0.000000 0.000000 0.000000
# 2 -0.003582 0.013095 -0.005045 0.000000 0.000000 0.000000
# 3 -0.002965 -0.005045 0.010536 0.000000 0.000000 0.000000
# 4 0.000000 0.000000 0.000000 0.037414 0.000000 0.000000
# 5 0.000000 0.000000 0.000000 0.000000 0.022442 0.000000
# 6 0.000000 0.000000 0.000000 0.000000 0.000000 0.027517
#
#
# Mechanical properties :
#
#
# Convention : Reuss Voigt Hill
#
# Bulk Modulus (GPa) = 42.21905 54.88013 48.54959
# Shear Modulus (GPa) = 30.24423 33.41581 31.83002
#
# Velocity S-wave (km/s) = 3.84771 4.04443 3.94730
# Velocity P-wave (km/s) = 6.35661 6.97670 6.67386
#
# Compressibility (1/GPa) = 0.02368599
#
# Stress axis : x y z
#
# Youngs Moduli (GPa) = 43.03261 76.36716 94.91436
#
# Poissons Ratio (x) = 0.27354 0.28142
# Poissons Ratio (y) = 0.15414 0.47880
# Poissons Ratio (z) = 0.12759 0.38524
#
# Static dielectric constant tensor:
#      x y z
#    x 1.802390 0.000000 0.000000 
#    y 0.000000 1.784930 0.000000 
#    z 0.000000 0.000000 1.705600 
# 
# From -- ./inp_files/29211.got.cif
#   From: 2010.05.17/outbox.cif.g08.bks.cpg/sg43_15_cif.got.tgz:29211.got - 2010.06.03 19:21:55.
