data_PCOD9370130
_publ_section_title
;
Structure prediction by ZEFSAII (Michael W. Deem and Ramdas Pophale) SiO2 
 PCOD9370130
Probable space group: F D D 2
;
_chemical_formula_sum "Si O2"
_cell_formula_units_Z 112
_cell_length_a 13.414013
_cell_length_b 14.817518
_cell_length_c 27.595891
_cell_angle_alpha 90.000000
_cell_angle_beta 90.000000
_cell_angle_gamma 90.000000
_cell_volume 5485.024948
_symmetry_space_group_name_H-M "F D D 2"
_symmetry_group_IT_number 43
_symmetry_cell_setting 'orthorhombic'
loop_
_space_group_symop_operation_xyz
x,y,z
-x,-y,z
1/4-x,1/4+y,1/4+z
1/4+x,1/4-y,1/4+z
x,1/2+y,1/2+z
-x,1/2-y,1/2+z
1/4-x,3/4+y,3/4+z
1/4+x,3/4-y,3/4+z
1/2+x,y,1/2+z
1/2-x,-y,1/2+z
3/4-x,1/4+y,3/4+z
3/4+x,1/4-y,3/4+z
1/2+x,1/2+y,z
1/2-x,1/2-y,z
3/4-x,3/4+y,1/4+z
3/4+x,3/4-y,1/4+z
loop_
_atom_site_type_symbol
_atom_site_label
_atom_site_fract_x
_atom_site_fract_y
_atom_site_fract_z
Si Si1 0.101120 0.944824 0.121780
Si Si2 0.982977 0.103156 0.628486
Si Si3 0.701990 0.836331 0.185781
Si Si4 0.515917 0.777805 0.566787
Si Si5 0.793180 0.013498 0.217361
Si Si6 0.406710 0.169555 0.286818
Si Si7 0.678277 0.837740 0.977999
O O1 0.073351 0.847654 0.100828
O O2 0.158075 0.936454 0.172518
O O3 0.151568 0.005023 0.078663
O O4 0.000000 0.000000 0.132224
O O5 0.874383 0.111654 0.652042
O O6 0.991240 0.183031 0.590826
O O7 0.054939 0.126220 0.674075
O O8 0.000000 0.000000 0.612152
O O9 0.750000 0.750000 0.161261
O O10 0.646959 0.804350 0.235492
O O11 0.781967 0.910863 0.199031
O O12 0.585060 0.752320 0.520795
O O13 0.413814 0.834513 0.553171
O O14 0.685456 0.057443 0.230005
O O15 0.519602 0.145328 0.270588
O O16 0.750000 0.750000 0.977683
#
# Coordination Sequence:
#
# PCOD9370130 Si02
#       7
#    16  16  16  16  16  16  16
#     4  10  23  41  60  97 137 176 225 276 337 407
#     4  10  20  39  61  92 135 168 209 276 336 406
#     4  10  19  32  64 100 126 162 217 279 344 393
#     4  10  21  39  63  90 131 172 222 277 328 404
#     4  11  21  40  65  93 134 174 219 281 335 407
#     4   9  18  37  63  95 134 166 212 279 334 395
#     4  10  17  39  62  93 134 164 208 278 342 388
#
# _framework density 20.419233999999999
#
# number of rings (size 3 to 8) (size 9 to 14) (size 15 to 20)
#    0.000    2.000    5.714    2.143    4.000    1.143 
#    0.000    3.571    0.000    0.000    0.000    0.000 
#    0.000    0.000    0.000    0.000    0.000    0.000 
#
# Total GULP energy -155997.284822 kJ/mol
# GULP energy per Si atom -5571.331601 kJ/mol
# Density = 2.037276 g / cm^3
# Si number density = 20.419234 Si / 1000 Ang^3
#
#
#
# Elastic Constant Matrix: (Units=GPa)
#
#
# Indices 1 2 3 4 5 6 
#
# 1 53.3724 26.0569 27.4485 0.0000 0.0000 0.0000
# 2 26.0569 104.7397 48.4592 0.0000 0.0000 0.0000
# 3 27.4485 48.4592 104.2800 0.0000 0.0000 0.0000
# 4 0.0000 0.0000 0.0000 20.7632 0.0000 0.0000
# 5 0.0000 0.0000 0.0000 0.0000 23.5912 0.0000
# 6 0.0000 0.0000 0.0000 0.0000 0.0000 14.1640
#
#
#
# Elastic Compliance Matrix: (Units=1/GPa)
#
#
# Indices 1 2 3 4 5 6 
#
# 1 0.022730 -0.003677 -0.004274 0.000000 0.000000 0.000000
# 2 -0.003677 0.012757 -0.004960 0.000000 0.000000 0.000000
# 3 -0.004274 -0.004960 0.013020 0.000000 0.000000 0.000000
# 4 0.000000 0.000000 0.000000 0.048162 0.000000 0.000000
# 5 0.000000 0.000000 0.000000 0.000000 0.042389 0.000000
# 6 0.000000 0.000000 0.000000 0.000000 0.000000 0.070601
#
#
# Mechanical properties :
#
#
# Convention : Reuss Voigt Hill
#
# Bulk Modulus (GPa) = 44.08544 51.81348 47.94946
# Shear Modulus (GPa) = 20.57247 22.39885 21.48566
#
# Velocity S-wave (km/s) = 3.17756 3.31561 3.24732
# Velocity P-wave (km/s) = 5.92449 6.33148 6.13136
#
# Compressibility (1/GPa) = 0.02268322
#
# Stress axis : x y z
#
# Youngs Moduli (GPa) = 43.99552 78.38652 76.80658
#
# Poissons Ratio (x) = 0.28824 0.32828
# Poissons Ratio (y) = 0.16178 0.38100
# Poissons Ratio (z) = 0.18804 0.38883
#
# Static dielectric constant tensor:
#      x y z
#    x 1.772490 0.000000 0.000000 
#    y 0.000000 1.717890 0.000000 
#    z 0.000000 0.000000 1.828190 
# 
# From -- ./inp_files/21713.got.cif
#   From: 2010.05.17/outbox.cif.g08.bks.cpg/sg43_11_cif.got.tgz:21713.got - 2010.06.03 19:21:55.
