data_PCOD9370629
_publ_section_title
;
Structure prediction by ZEFSAII (Michael W. Deem and Ramdas Pophale) SiO2 
 PCOD9370629
Probable space group: F D D 2
;
_chemical_formula_sum "Si O2"
_cell_formula_units_Z 112
_cell_length_a 26.294600
_cell_length_b 23.677148
_cell_length_c 7.975012
_cell_angle_alpha 90.000000
_cell_angle_beta 90.000000
_cell_angle_gamma 90.000000
_cell_volume 4965.092029
_symmetry_space_group_name_H-M "F D D 2"
_symmetry_group_IT_number 43
_symmetry_cell_setting 'orthorhombic'
loop_
_space_group_symop_operation_xyz
x,y,z
-x,-y,z
1/4-x,1/4+y,1/4+z
1/4+x,1/4-y,1/4+z
x,1/2+y,1/2+z
-x,1/2-y,1/2+z
1/4-x,3/4+y,3/4+z
1/4+x,3/4-y,3/4+z
1/2+x,y,1/2+z
1/2-x,-y,1/2+z
3/4-x,1/4+y,3/4+z
3/4+x,1/4-y,3/4+z
1/2+x,1/2+y,z
1/2-x,1/2-y,z
3/4-x,3/4+y,1/4+z
3/4+x,3/4-y,1/4+z
loop_
_atom_site_type_symbol
_atom_site_label
_atom_site_fract_x
_atom_site_fract_y
_atom_site_fract_z
Si Si1 0.532092 0.549405 0.083190
Si Si2 0.588501 0.649830 0.681200
Si Si3 0.312854 0.397877 0.738492
Si Si4 0.642364 0.012676 0.482901
Si Si5 0.245191 0.314018 0.944168
Si Si6 0.059796 0.668415 0.568056
Si Si7 0.228774 0.486767 0.730343
O O1 0.500000 0.500000 0.168852
O O2 0.588975 0.526513 0.062483
O O3 0.538765 0.612019 0.153737
O O4 0.507471 0.560358 0.897432
O O5 0.647094 0.639211 0.632748
O O6 0.556154 0.594478 0.633591
O O7 0.559591 0.703693 0.603939
O O8 0.581161 0.655935 0.882260
O O9 0.267494 0.437276 0.667444
O O10 0.348216 0.443988 0.831901
O O11 0.288537 0.355048 0.873549
O O12 0.645389 0.948465 0.419595
O O13 0.691532 0.017278 0.600809
O O14 0.250000 0.250000 0.883889
O O15 0.015428 0.714866 0.550964
#
# Coordination Sequence:
#
# PCOD9370629 Si02
#       7
#    16  16  16  16  16  16  16
#     4  10  21  35  58  91 121 154 209 265 309 368
#     4  10  20  38  61  94 123 168 210 261 323 383
#     4  10  20  37  63  88 129 164 218 260 312 401
#     4  11  21  38  63  92 121 163 211 263 319 381
#     4   9  18  31  57  88 115 150 206 258 291 351
#     4  10  20  37  65  91 119 165 216 257 317 384
#     4  10  22  38  61  94 132 165 207 267 333 382
#
# _framework density 22.557486999999998
#
# number of rings (size 3 to 8) (size 9 to 14) (size 15 to 20)
#    0.000    2.000    2.857    3.429    4.000    1.143 
#    2.571    0.000   15.714    0.000    0.000    0.000 
#    0.000    0.000    0.000    0.000    0.000    0.000 
#
# Total GULP energy -156242.186012 kJ/mol
# GULP energy per Si atom -5580.078072 kJ/mol
# Density = 2.250614 g / cm^3
# Si number density = 22.557487 Si / 1000 Ang^3
#
#
#
# Elastic Constant Matrix: (Units=GPa)
#
#
# Indices 1 2 3 4 5 6 
#
# 1 125.9551 48.7358 9.4289 -0.0004 0.0028 -0.0005
# 2 48.7358 166.5650 8.6017 -0.0016 0.0079 0.0008
# 3 9.4289 8.6017 12.5483 -0.0052 0.0142 0.0027
# 4 -0.0004 -0.0016 -0.0052 19.4724 0.0092 0.0025
# 5 0.0028 0.0079 0.0142 0.0092 -5.4530 -0.0057
# 6 -0.0005 0.0008 0.0027 0.0025 -0.0057 42.5899
#
#
#
# Elastic Compliance Matrix: (Units=1/GPa)
#
#
# Indices 1 2 3 4 5 6 
#
# 1 0.009281 -0.002442 -0.005300 -0.000001 -0.000013 0.000000
# 2 -0.002442 0.006866 -0.002872 0.000000 0.000001 0.000000
# 3 -0.005300 -0.002872 0.085643 0.000023 0.000217 -0.000005
# 4 -0.000001 0.000000 0.000023 0.051355 0.000087 -0.000003
# 5 -0.000013 0.000001 0.000217 0.000087 -0.183385 -0.000025
# 6 0.000000 0.000000 -0.000005 -0.000003 -0.000025 0.023480
#
#
# Mechanical properties :
#
#
# Convention : Reuss Voigt Hill
#
# Bulk Modulus (GPa) = 12.41269 48.73346 30.57308
# Shear Modulus (GPa) = 121.00346 27.20867 74.10607
#
# Velocity S-wave (km/s) = 7.33203 3.47680 5.73789
# Velocity P-wave (km/s) = 8.78595 6.14561 7.58160
#
# Compressibility (1/GPa) = 0.08056271
#
# Stress axis : x y z
#
# Youngs Moduli (GPa) = 107.74810 145.63580 11.67640
#
# Poissons Ratio (x) = 0.35562 0.06188
# Poissons Ratio (y) = 0.26310 0.03353
# Poissons Ratio (z) = 0.57105 0.41827
#
# Static dielectric constant tensor:
#      x y z
#    x 1.908690 0.000010 0.000000 
#    y 0.000010 1.879530 -0.000010 
#    z 0.000000 -0.000010 1.915710 
# 
# From -- ./inp_files/8000.got.cif
#   From: 2010.05.17/outbox.cif.g08.bks.cpg/sg43_4_cif.got.tgz:8000.got - 2010.06.03 19:21:55.
