data_PCOD9370167
_publ_section_title
;
Structure prediction by ZEFSAII (Michael W. Deem and Ramdas Pophale) SiO2 
 PCOD9370167
Probable space group: F D D 2
;
_chemical_formula_sum "Si O2"
_cell_formula_units_Z 96
_cell_length_a 14.698497
_cell_length_b 10.661288
_cell_length_c 28.719817
_cell_angle_alpha 90.000000
_cell_angle_beta 90.000000
_cell_angle_gamma 90.000000
_cell_volume 4500.536329
_symmetry_space_group_name_H-M "F D D 2"
_symmetry_group_IT_number 43
_symmetry_cell_setting 'orthorhombic'
loop_
_space_group_symop_operation_xyz
x,y,z
-x,-y,z
1/4-x,1/4+y,1/4+z
1/4+x,1/4-y,1/4+z
x,1/2+y,1/2+z
-x,1/2-y,1/2+z
1/4-x,3/4+y,3/4+z
1/4+x,3/4-y,3/4+z
1/2+x,y,1/2+z
1/2-x,-y,1/2+z
3/4-x,1/4+y,3/4+z
3/4+x,1/4-y,3/4+z
1/2+x,1/2+y,z
1/2-x,1/2-y,z
3/4-x,3/4+y,1/4+z
3/4+x,3/4-y,1/4+z
loop_
_atom_site_type_symbol
_atom_site_label
_atom_site_fract_x
_atom_site_fract_y
_atom_site_fract_z
Si Si1 0.646574 0.099633 0.146710
Si Si2 0.864585 0.114014 0.140443
Si Si3 0.612790 0.238808 0.790312
Si Si4 0.890536 0.997556 0.748561
Si Si5 0.394893 0.005669 0.739245
Si Si6 0.890313 0.244027 0.297071
O O1 0.754888 0.115241 0.140555
O O2 0.605813 0.240945 0.147561
O O3 0.631446 0.025403 0.194415
O O4 0.614529 0.028600 0.100476
O O5 0.893895 0.054056 0.091595
O O6 0.891468 0.032172 0.184765
O O7 0.643057 0.373514 0.771386
O O8 0.501469 0.245387 0.793107
O O9 0.641755 0.128001 0.755300
O O10 0.858044 0.875344 0.776497
O O11 0.000000 0.000000 0.751596
O O12 0.356749 0.126561 0.766220
O O13 0.500000 0.000000 0.754094
#
# Coordination Sequence:
#
# PCOD9370167 Si02
#       6
#    16  16  16  16  16  16
#     4  10  19  34  57  82 104 136 183 222 259 313
#     4  10  19  34  57  81 104 139 182 220 259 313
#     4   9  19  33  53  78 106 141 177 212 260 321
#     4  10  20  35  54  81 111 138 174 220 267 315
#     4  10  18  33  55  78 103 139 179 213 257 314
#     4   9  17  33  56  76 104 143 177 211 258 322
#
# _framework density 21.330791999999999
#
# number of rings (size 3 to 8) (size 9 to 14) (size 15 to 20)
#    0.000    2.333    3.333    0.000    0.000    1.333 
#    0.000    5.833    0.000    0.000    0.000    0.000 
#    0.000    0.000    0.000    0.000    0.000    0.000 
#
# Total GULP energy -134014.541987 kJ/mol
# GULP energy per Si atom -5583.939249 kJ/mol
# Density = 2.128224 g / cm^3
# Si number density = 21.330792 Si / 1000 Ang^3
#
#
#
# Elastic Constant Matrix: (Units=GPa)
#
#
# Indices 1 2 3 4 5 6 
#
# 1 52.1898 6.3540 -14.2916 0.0000 0.0000 0.0000
# 2 6.3540 216.7664 124.3562 0.0000 0.0000 0.0000
# 3 -14.2916 124.3562 181.2928 0.0000 0.0000 0.0000
# 4 0.0000 0.0000 0.0000 34.3815 0.0000 0.0000
# 5 0.0000 0.0000 0.0000 0.0000 23.7919 0.0000
# 6 0.0000 0.0000 0.0000 0.0000 0.0000 -5.4303
#
#
#
# Elastic Compliance Matrix: (Units=1/GPa)
#
#
# Indices 1 2 3 4 5 6 
#
# 1 0.020376 -0.002504 0.003324 0.000000 0.000000 0.000000
# 2 -0.002504 0.007914 -0.005626 0.000000 0.000000 0.000000
# 3 0.003324 -0.005626 0.009637 0.000000 0.000000 0.000000
# 4 0.000000 0.000000 0.000000 0.029085 0.000000 0.000000
# 5 0.000000 0.000000 0.000000 0.000000 0.042031 0.000000
# 6 0.000000 0.000000 0.000000 0.000000 0.000000 -0.184151
#
#
# Mechanical properties :
#
#
# Convention : Reuss Voigt Hill
#
# Bulk Modulus (GPa) = 35.31730 75.89847 55.60789
# Shear Modulus (GPa) = -89.19665 32.80396 -28.19635
#
# Velocity S-wave (km/s) = -6.47354 3.92582 -3.63969
# Velocity P-wave (km/s) = 6.26759 7.49722 2.90909
#
# Compressibility (1/GPa) = 0.02831473
#
# Stress axis : x y z
#
# Youngs Moduli (GPa) = 49.07743 126.35304 103.76458
#
# Poissons Ratio (x) = 0.31642 -0.34492
# Poissons Ratio (y) = 0.12290 0.58380
# Poissons Ratio (z) = -0.16313 0.71088
#
# Static dielectric constant tensor:
#      x y z
#    x 1.825210 0.000000 0.000000 
#    y 0.000000 1.765590 0.000000 
#    z 0.000000 0.000000 1.729170 
# 
# From -- ./inp_files/17196.got.cif
#   From: 2010.05.17/outbox.cif.g08.bks.cpg/sg43_9_cif.got.tgz:17196.got - 2010.06.03 19:21:55.
