data_PCOD9370785
_publ_section_title
;
Structure prediction by ZEFSAII (Michael W. Deem and Ramdas Pophale) SiO2 
 PCOD9370785
Probable space group: F D D 2
;
_chemical_formula_sum "Si O2"
_cell_formula_units_Z 112
_cell_length_a 20.379850
_cell_length_b 17.262447
_cell_length_c 16.719626
_cell_angle_alpha 90.000000
_cell_angle_beta 90.000000
_cell_angle_gamma 90.000000
_cell_volume 5882.066090
_symmetry_space_group_name_H-M "F D D 2"
_symmetry_group_IT_number 43
_symmetry_cell_setting 'orthorhombic'
loop_
_space_group_symop_operation_xyz
x,y,z
-x,-y,z
1/4-x,1/4+y,1/4+z
1/4+x,1/4-y,1/4+z
x,1/2+y,1/2+z
-x,1/2-y,1/2+z
1/4-x,3/4+y,3/4+z
1/4+x,3/4-y,3/4+z
1/2+x,y,1/2+z
1/2-x,-y,1/2+z
3/4-x,1/4+y,3/4+z
3/4+x,1/4-y,3/4+z
1/2+x,1/2+y,z
1/2-x,1/2-y,z
3/4-x,3/4+y,1/4+z
3/4+x,3/4-y,1/4+z
loop_
_atom_site_type_symbol
_atom_site_label
_atom_site_fract_x
_atom_site_fract_y
_atom_site_fract_z
Si Si1 0.681240 0.721330 0.888010
Si Si2 0.247717 0.919939 0.991044
Si Si3 0.002395 0.810860 0.628137
Si Si4 0.644451 0.857681 0.786703
Si Si5 0.701728 0.959026 0.228682
Si Si6 0.177978 0.969990 0.139724
Si Si7 0.449440 0.433138 0.092367
O O1 0.750000 0.750000 0.925286
O O2 0.695737 0.630683 0.880143
O O3 0.670700 0.770654 0.805965
O O4 0.616755 0.734777 0.940053
O O5 0.316298 0.895934 0.031273
O O6 0.229344 0.864296 0.917600
O O7 0.251896 0.006479 0.954866
O O8 0.193463 0.923254 0.059217
O O9 0.026460 0.758921 0.554766
O O10 0.930448 0.844791 0.607380
O O11 0.665742 0.904927 0.707677
O O12 0.692570 0.873702 0.266415
O O13 0.760031 0.976590 0.165726
O O14 0.116825 0.025970 0.122810
O O15 0.500000 0.500000 0.070274
#
# Coordination Sequence:
#
# PCOD9370785 Si02
#       7
#    16  16  16  16  16  16  16
#     4  10  20  40  62  91 122 160 208 259 316 373
#     4  11  22  42  64  91 127 170 206 268 328 383
#     4   9  22  39  62  89 127 162 208 264 314 378
#     4  10  21  40  62  95 123 162 212 265 319 386
#     4  10  22  42  62  88 125 164 206 260 314 376
#     4  11  23  41  66  93 124 167 214 259 325 387
#     4  11  24  41  64  91 129 162 213 262 313 385
#
# _framework density 19.040928000000001
#
# number of rings (size 3 to 8) (size 9 to 14) (size 15 to 20)
#    0.000    1.714    2.857    0.857    2.000    3.429 
#    7.714    0.000    0.000    0.000    0.000    0.000 
#    0.000    0.000    0.000    0.000    0.000    0.000 
#
# Total GULP energy -156043.827924 kJ/mol
# GULP energy per Si atom -5572.993854 kJ/mol
# Density = 1.899759 g / cm^3
# Si number density = 19.040928 Si / 1000 Ang^3
#
#
#
# Elastic Constant Matrix: (Units=GPa)
#
#
# Indices 1 2 3 4 5 6 
#
# 1 128.8082 32.2210 13.7901 0.0000 0.0000 0.0000
# 2 32.2210 86.6248 23.2077 0.0000 0.0000 0.0000
# 3 13.7901 23.2077 40.8632 0.0000 0.0000 0.0000
# 4 0.0000 0.0000 0.0000 27.5923 0.0000 0.0000
# 5 0.0000 0.0000 0.0000 0.0000 13.5370 0.0000
# 6 0.0000 0.0000 0.0000 0.0000 0.0000 26.0937
#
#
#
# Elastic Compliance Matrix: (Units=1/GPa)
#
#
# Indices 1 2 3 4 5 6 
#
# 1 0.008617 -0.002861 -0.001283 0.000000 0.000000 0.000000
# 2 -0.002861 0.014566 -0.007307 0.000000 0.000000 0.000000
# 3 -0.001283 -0.007307 0.029055 0.000000 0.000000 0.000000
# 4 0.000000 0.000000 0.000000 0.036242 0.000000 0.000000
# 5 0.000000 0.000000 0.000000 0.000000 0.073872 0.000000
# 6 0.000000 0.000000 0.000000 0.000000 0.000000 0.038323
#
#
# Mechanical properties :
#
#
# Convention : Reuss Voigt Hill
#
# Bulk Modulus (GPa) = 34.08884 43.85930 38.97407
# Shear Modulus (GPa) = 21.42661 25.91642 23.67151
#
# Velocity S-wave (km/s) = 3.35818 3.69330 3.52972
# Velocity P-wave (km/s) = 5.74267 6.42429 6.09302
#
# Compressibility (1/GPa) = 0.02933511
#
# Stress axis : x y z
#
# Youngs Moduli (GPa) = 116.05546 68.65325 34.41787
#
# Poissons Ratio (x) = 0.19644 0.04415
# Poissons Ratio (y) = 0.33208 0.25149
# Poissons Ratio (z) = 0.14887 0.50164
#
# Static dielectric constant tensor:
#      x y z
#    x 1.651070 0.000000 0.000000 
#    y 0.000000 1.694460 0.000000 
#    z 0.000000 0.000000 1.635870 
# 
# From -- ./inp_files/14636.got.cif
#   From: 2010.05.17/outbox.cif.g08.bks.cpg/sg43_8_cif.got.tgz:14636.got - 2010.06.03 19:21:55.
