data_PCOD9370183
_publ_section_title
;
Structure prediction by ZEFSAII (Michael W. Deem and Ramdas Pophale) SiO2 
 PCOD9370183
Probable space group: F D D 2
;
_chemical_formula_sum "Si O2"
_cell_formula_units_Z 112
_cell_length_a 27.941624
_cell_length_b 13.187541
_cell_length_c 12.056726
_cell_angle_alpha 90.000000
_cell_angle_beta 90.000000
_cell_angle_gamma 90.000000
_cell_volume 4442.678216
_symmetry_space_group_name_H-M "F D D 2"
_symmetry_group_IT_number 43
_symmetry_cell_setting 'orthorhombic'
loop_
_space_group_symop_operation_xyz
x,y,z
-x,-y,z
1/4-x,1/4+y,1/4+z
1/4+x,1/4-y,1/4+z
x,1/2+y,1/2+z
-x,1/2-y,1/2+z
1/4-x,3/4+y,3/4+z
1/4+x,3/4-y,3/4+z
1/2+x,y,1/2+z
1/2-x,-y,1/2+z
3/4-x,1/4+y,3/4+z
3/4+x,1/4-y,3/4+z
1/2+x,1/2+y,z
1/2-x,1/2-y,z
3/4-x,3/4+y,1/4+z
3/4+x,3/4-y,1/4+z
loop_
_atom_site_type_symbol
_atom_site_label
_atom_site_fract_x
_atom_site_fract_y
_atom_site_fract_z
Si Si1 0.137132 0.113531 0.652750
Si Si2 0.085125 0.584613 0.917925
Si Si3 0.750000 0.750000 0.026612
Si Si4 0.435459 0.320201 0.841357
Si Si5 0.000000 0.500000 0.609699
Si Si6 0.153958 0.194932 0.238895
Si Si7 0.416676 0.637457 0.745047
Si Si8 0.234544 0.928260 0.023116
O O1 0.107119 0.104221 0.538787
O O2 0.169856 0.214302 0.645675
O O3 0.102758 0.142218 0.753120
O O4 0.159488 0.003069 0.681181
O O5 0.121195 0.634002 0.826635
O O6 0.035602 0.641788 0.892132
O O7 0.773948 0.657859 0.097712
O O8 0.795954 0.797055 0.960197
O O9 0.463598 0.226213 0.781448
O O10 0.955756 0.543010 0.541649
O O11 0.980632 0.412882 0.689190
O O12 0.133411 0.308021 0.210578
O O13 0.157866 0.135835 0.124223
O O14 0.450878 0.733340 0.729324
#
# Coordination Sequence:
#
# PCOD9370183 Si02
#       8
#    16  16   8  16   8  16  16  16
#     4  10  20  36  60  88 122 162 209 256 314 378
#     4  10  18  34  58  88 123 162 206 263 313 365
#     4  10  23  44  63  82 122 164 212 264 323 384
#     4  10  22  40  61  87 121 165 210 258 314 383
#     4  12  21  34  59  96 130 166 208 260 317 382
#     4  11  21  35  60  91 124 160 209 261 318 376
#     4  10  22  40  60  89 123 166 211 268 321 378
#     4  10  20  34  57  88 125 163 207 258 313 366
#
# _framework density 25.21002
#
# number of rings (size 3 to 8) (size 9 to 14) (size 15 to 20)
#    0.000    1.714    0.000    7.286    0.000    1.143 
#    0.000    3.571    0.000    1.714    0.000    0.000 
#    0.000    0.000    0.000    0.000    0.000    0.000 
#
# Total GULP energy -156461.700212 kJ/mol
# GULP energy per Si atom -5587.917865 kJ/mol
# Density = 2.515264 g / cm^3
# Si number density = 25.210020 Si / 1000 Ang^3
#
#
#
# Elastic Constant Matrix: (Units=GPa)
#
#
# Indices 1 2 3 4 5 6 
#
# 1 85.3097 8.3776 -0.1914 0.0000 0.0000 0.0000
# 2 8.3776 150.7201 10.4326 0.0000 0.0000 0.0000
# 3 -0.1914 10.4326 76.8684 0.0000 0.0000 0.0000
# 4 0.0000 0.0000 0.0000 57.8960 0.0000 0.0000
# 5 0.0000 0.0000 0.0000 0.0000 11.4197 0.0000
# 6 0.0000 0.0000 0.0000 0.0000 0.0000 -3.0305
#
#
#
# Elastic Compliance Matrix: (Units=1/GPa)
#
#
# Indices 1 2 3 4 5 6 
#
# 1 0.011787 -0.000663 0.000119 0.000000 0.000000 0.000000
# 2 -0.000663 0.006735 -0.000916 0.000000 0.000000 0.000000
# 3 0.000119 -0.000916 0.013134 0.000000 0.000000 0.000000
# 4 0.000000 0.000000 0.000000 0.017272 0.000000 0.000000
# 5 0.000000 0.000000 0.000000 0.000000 0.087568 0.000000
# 6 0.000000 0.000000 0.000000 0.000000 0.000000 -0.329984
#
#
# Mechanical properties :
#
#
# Convention : Reuss Voigt Hill
#
# Bulk Modulus (GPa) = 34.79868 38.90398 36.85133
# Shear Modulus (GPa) = -27.62610 32.87567 2.62478
#
# Velocity S-wave (km/s) = -3.31394 3.61511 1.02148
# Velocity P-wave (km/s) = 0.89968 5.73505 4.00508
#
# Compressibility (1/GPa) = 0.02873672
#
# Stress axis : x y z
#
# Youngs Moduli (GPa) = 84.83623 148.47640 76.13929
#
# Poissons Ratio (x) = 0.09851 -0.00909
# Poissons Ratio (y) = 0.05628 0.06972
# Poissons Ratio (z) = -0.01013 0.13597
#
# Static dielectric constant tensor:
#      x y z
#    x 2.200030 0.000000 0.000000 
#    y 0.000000 2.052190 0.000000 
#    z 0.000000 0.000000 1.962720 
# 
# From -- ./inp_files/11684.got.cif
#   From: 2010.05.17/outbox.cif.g08.bks.cpg/sg43_6_cif.got.tgz:11684.got - 2010.06.03 19:21:55.
