data_PCOD9370068
_publ_section_title
;
Structure prediction by ZEFSAII (Michael W. Deem and Ramdas Pophale) SiO2 
 PCOD9370068
Probable space group: F D D 2
;
_chemical_formula_sum "Si O2"
_cell_formula_units_Z 64
_cell_length_a 39.568539
_cell_length_b 12.882856
_cell_length_c 5.268286
_cell_angle_alpha 90.000000
_cell_angle_beta 90.000000
_cell_angle_gamma 90.000000
_cell_volume 2685.539292
_symmetry_space_group_name_H-M "F D D 2"
_symmetry_group_IT_number 43
_symmetry_cell_setting 'orthorhombic'
loop_
_space_group_symop_operation_xyz
x,y,z
-x,-y,z
1/4-x,1/4+y,1/4+z
1/4+x,1/4-y,1/4+z
x,1/2+y,1/2+z
-x,1/2-y,1/2+z
1/4-x,3/4+y,3/4+z
1/4+x,3/4-y,3/4+z
1/2+x,y,1/2+z
1/2-x,-y,1/2+z
3/4-x,1/4+y,3/4+z
3/4+x,1/4-y,3/4+z
1/2+x,1/2+y,z
1/2-x,1/2-y,z
3/4-x,3/4+y,1/4+z
3/4+x,3/4-y,1/4+z
loop_
_atom_site_type_symbol
_atom_site_label
_atom_site_fract_x
_atom_site_fract_y
_atom_site_fract_z
Si Si1 0.255465 0.069992 0.561650
Si Si2 0.595770 0.905430 0.429424
Si Si3 0.688228 0.661964 0.680703
Si Si4 0.578101 0.704163 0.192118
O O1 0.227717 0.157411 0.619994
O O2 0.293958 0.106367 0.509578
O O3 0.244778 0.006629 0.307010
O O4 0.584279 0.948227 0.697894
O O5 0.584922 0.785041 0.421012
O O6 0.635580 0.907912 0.380014
O O7 0.574947 0.958189 0.197513
O O8 0.680726 0.538572 0.726078
#
# Coordination Sequence:
#
# PCOD9370068 Si02
#       4
#    16  16  16  16
#     4  10  16  31  51  75  96 126 177 217 242 285
#     4  10  20  30  51  75 104 128 165 210 265 294
#     4   9  19  32  49  77  96 131 165 218 243 304
#     4   9  21  31  53  77 100 133 167 217 251 305
#
# _framework density 23.831339
#
# number of rings (size 3 to 8) (size 9 to 14) (size 15 to 20)
#    1.500    1.000    2.500    0.000    3.500    0.000 
#    0.000    0.000    0.000    1.500    0.000    0.000 
#    0.000    0.000    0.000    0.000    0.000    0.000 
#
# Total GULP energy -89140.940388 kJ/mol
# GULP energy per Si atom -5571.308774 kJ/mol
# Density = 2.377710 g / cm^3
# Si number density = 23.831339 Si / 1000 Ang^3
#
#
#
# Elastic Constant Matrix: (Units=GPa)
#
#
# Indices 1 2 3 4 5 6 
#
# 1 221.9949 38.6544 44.2976 0.0001 0.0001 0.0001
# 2 38.6544 40.8976 4.1128 0.0001 0.0000 0.0000
# 3 44.2976 4.1128 143.6632 0.0001 0.0001 0.0001
# 4 0.0001 0.0001 0.0001 -6.8280 0.0001 0.0001
# 5 0.0001 0.0000 0.0001 0.0001 30.9191 0.0001
# 6 0.0001 0.0000 0.0001 0.0001 0.0001 42.0090
#
#
#
# Elastic Compliance Matrix: (Units=1/GPa)
#
#
# Indices 1 2 3 4 5 6 
#
# 1 0.005745 -0.005267 -0.001621 0.000000 0.000000 0.000000
# 2 -0.005267 0.029351 0.000784 0.000000 0.000000 0.000000
# 3 -0.001621 0.000784 0.007438 0.000000 0.000000 0.000000
# 4 0.000000 0.000000 0.000000 -0.146455 0.000001 0.000000
# 5 0.000000 0.000000 0.000000 0.000001 0.032343 0.000000
# 6 0.000000 0.000000 0.000000 0.000000 0.000000 0.023804
#
#
# Mechanical properties :
#
#
# Convention : Reuss Voigt Hill
#
# Bulk Modulus (GPa) = 32.97509 64.52059 48.74784
# Shear Modulus (GPa) = -196.40176 34.51940 -80.94118
#
# Velocity S-wave (km/s) = -9.08802 3.81003 -5.83420
# Velocity P-wave (km/s) = 9.81101 6.81819 4.98840
#
# Compressibility (1/GPa) = 0.03032592
#
# Stress axis : x y z
#
# Youngs Moduli (GPa) = 174.06104 34.07087 134.44453
#
# Poissons Ratio (x) = 0.17945 0.21789
# Poissons Ratio (y) = 0.91678 -0.10538
# Poissons Ratio (z) = 0.28210 -0.02670
#
# Static dielectric constant tensor:
#      x y z
#    x 1.916480 0.000000 0.000000 
#    y 0.000000 1.995040 0.000000 
#    z 0.000000 0.000000 1.886300 
# 
# From -- ./inp_files/535.got.cif
#   From: 2010.05.17/outbox.cif.g08.bks.cpg/sg43_1_cif.got.tgz:535.got - 2010.06.03 19:21:55.
