data_PCOD9370640
_publ_section_title
;
Structure prediction by ZEFSAII (Michael W. Deem and Ramdas Pophale) SiO2 
 PCOD9370640
Probable space group: F D D 2
;
_chemical_formula_sum "Si O2"
_cell_formula_units_Z 64
_cell_length_a 19.394086
_cell_length_b 12.136787
_cell_length_c 13.486109
_cell_angle_alpha 90.000000
_cell_angle_beta 90.000000
_cell_angle_gamma 90.000000
_cell_volume 3174.385837
_symmetry_space_group_name_H-M "F D D 2"
_symmetry_group_IT_number 43
_symmetry_cell_setting 'orthorhombic'
loop_
_space_group_symop_operation_xyz
x,y,z
-x,-y,z
1/4-x,1/4+y,1/4+z
1/4+x,1/4-y,1/4+z
x,1/2+y,1/2+z
-x,1/2-y,1/2+z
1/4-x,3/4+y,3/4+z
1/4+x,3/4-y,3/4+z
1/2+x,y,1/2+z
1/2-x,-y,1/2+z
3/4-x,1/4+y,3/4+z
3/4+x,1/4-y,3/4+z
1/2+x,1/2+y,z
1/2-x,1/2-y,z
3/4-x,3/4+y,1/4+z
3/4+x,3/4-y,1/4+z
loop_
_atom_site_type_symbol
_atom_site_label
_atom_site_fract_x
_atom_site_fract_y
_atom_site_fract_z
Si Si1 0.820277 0.997467 0.383020
Si Si2 0.799191 0.354650 0.063146
Si Si3 0.545249 0.294145 0.774416
Si Si4 0.064582 0.923332 0.963244
O O1 0.887597 0.073236 0.382487
O O2 0.829961 0.894463 0.458088
O O3 0.812024 0.938817 0.277459
O O4 0.754072 0.060209 0.428519
O O5 0.750000 0.250000 0.050306
O O6 0.750649 0.457501 0.088927
O O7 0.561120 0.394383 0.846783
O O8 0.364760 0.514850 0.989643
O O9 0.000000 0.000000 0.990229
#
# Coordination Sequence:
#
# PCOD9370640 Si02
#       4
#    16  16  16  16
#     4  10  20  39  63  94 125 169 207 270 311 388
#     4  10  20  37  65  94 130 165 224 250 329 378
#     4  10  25  40  67  98 125 175 216 265 328 386
#     4  12  22  43  68  94 129 169 224 270 324 388
#
# _framework density 20.161380000000001
#
# number of rings (size 3 to 8) (size 9 to 14) (size 15 to 20)
#    1.500    0.000    2.500    3.750    0.000    0.000 
#    9.000    0.000    0.000    0.000    0.000    0.000 
#    0.000    0.000    0.000    0.000    0.000    0.000 
#
# Total GULP energy -89137.149731 kJ/mol
# GULP energy per Si atom -5571.071858 kJ/mol
# Density = 2.011549 g / cm^3
# Si number density = 20.161380 Si / 1000 Ang^3
#
#
#
# Elastic Constant Matrix: (Units=GPa)
#
#
# Indices 1 2 3 4 5 6 
#
# 1 176.7100 31.4869 47.9916 0.0000 0.0000 0.0000
# 2 31.4869 15.0381 0.0343 0.0000 0.0000 0.0000
# 3 47.9916 0.0343 45.9918 0.0000 0.0000 0.0000
# 4 0.0000 0.0000 0.0000 23.6122 0.0000 0.0000
# 5 0.0000 0.0000 0.0000 0.0000 14.6848 0.0000
# 6 0.0000 0.0000 0.0000 0.0000 0.0000 27.9531
#
#
#
# Elastic Compliance Matrix: (Units=1/GPa)
#
#
# Indices 1 2 3 4 5 6 
#
# 1 0.016433 -0.034369 -0.017122 0.000000 0.000000 0.000000
# 2 -0.034369 0.138378 0.035760 0.000000 0.000000 0.000000
# 3 -0.017122 0.035760 0.039583 0.000000 0.000000 0.000000
# 4 0.000000 0.000000 0.000000 0.042351 0.000000 0.000000
# 5 0.000000 0.000000 0.000000 0.000000 0.068098 0.000000
# 6 0.000000 0.000000 0.000000 0.000000 0.000000 0.035774
#
#
# Mechanical properties :
#
#
# Convention : Reuss Voigt Hill
#
# Bulk Modulus (GPa) = 6.13752 44.08505 25.11128
# Shear Modulus (GPa) = 11.72640 23.79848 17.76244
#
# Velocity S-wave (km/s) = 2.41431 3.43942 2.97141
# Velocity P-wave (km/s) = 3.28978 6.13892 4.92489
#
# Compressibility (1/GPa) = 0.16293233
#
# Stress axis : x y z
#
# Youngs Moduli (GPa) = 60.85332 7.22660 25.26351
#
# Poissons Ratio (x) = 0.24837 0.43256
# Poissons Ratio (y) = 2.09144 -0.90342
# Poissons Ratio (z) = 1.04193 -0.25842
#
# Static dielectric constant tensor:
#      x y z
#    x 1.702170 0.000000 0.000000 
#    y 0.000000 1.691200 0.000000 
#    z 0.000000 0.000000 1.745220 
# 
# From -- ./inp_files/7402.got.cif
#   From: 2010.05.17/outbox.cif.g08.bks.cpg/sg43_4_cif.got.tgz:7402.got - 2010.06.03 19:21:55.
