data_PCOD9370111
_publ_section_title
;
Structure prediction by ZEFSAII (Michael W. Deem and Ramdas Pophale) SiO2 
 PCOD9370111
Probable space group: F D D 2
;
_chemical_formula_sum "Si O2"
_cell_formula_units_Z 128
_cell_length_a 17.504882
_cell_length_b 21.855244
_cell_length_c 17.905250
_cell_angle_alpha 90.000000
_cell_angle_beta 90.000000
_cell_angle_gamma 90.000000
_cell_volume 6850.073575
_symmetry_space_group_name_H-M "F D D 2"
_symmetry_group_IT_number 43
_symmetry_cell_setting 'orthorhombic'
loop_
_space_group_symop_operation_xyz
x,y,z
-x,-y,z
1/4-x,1/4+y,1/4+z
1/4+x,1/4-y,1/4+z
x,1/2+y,1/2+z
-x,1/2-y,1/2+z
1/4-x,3/4+y,3/4+z
1/4+x,3/4-y,3/4+z
1/2+x,y,1/2+z
1/2-x,-y,1/2+z
3/4-x,1/4+y,3/4+z
3/4+x,1/4-y,3/4+z
1/2+x,1/2+y,z
1/2-x,1/2-y,z
3/4-x,3/4+y,1/4+z
3/4+x,3/4-y,1/4+z
loop_
_atom_site_type_symbol
_atom_site_label
_atom_site_fract_x
_atom_site_fract_y
_atom_site_fract_z
Si Si1 0.058571 0.149354 0.152640
Si Si2 0.562241 0.947037 0.687075
Si Si3 0.764977 0.968284 0.536924
Si Si4 0.527203 0.746927 0.034909
Si Si5 0.433166 0.707330 0.892347
Si Si6 0.681906 0.791863 0.714561
Si Si7 0.623123 0.956705 0.849811
Si Si8 0.954266 0.644494 0.937627
O O1 0.127830 0.100935 0.150327
O O2 0.979366 0.109709 0.147557
O O3 0.043472 0.186863 0.228986
O O4 0.068461 0.197692 0.086149
O O5 0.588235 0.933956 0.771755
O O6 0.500000 0.000000 0.694751
O O7 0.630006 0.981602 0.644853
O O8 0.850053 0.968361 0.501843
O O9 0.775056 0.928714 0.611585
O O10 0.733209 0.033231 0.567654
O O11 0.460124 0.776041 0.085537
O O12 0.485847 0.712628 0.965777
O O13 0.569909 0.804531 0.997454
O O14 0.750000 0.750000 0.747724
O O15 0.668525 0.768035 0.629775
O O16 0.719437 0.858629 0.714177
O O17 0.606772 0.906712 0.913549
#
# Coordination Sequence:
#
# PCOD9370111 Si02
#       8
#    16  16  16  16  16  16  16  16
#     4  11  21  34  59  81 118 155 199 241 294 357
#     4   9  17  31  51  85 115 145 176 231 308 358
#     4  11  21  34  58  85 120 157 192 238 309 365
#     4  10  21  33  55  86 114 149 194 237 296 350
#     4   9  23  35  54  85 120 151 191 243 298 355
#     4  10  21  34  58  89 119 154 189 241 310 366
#     4  10  17  31  51  86 120 143 179 233 303 367
#     4  10  20  32  54  83 124 148 182 236 298 356
#
# _framework density 18.685932000000001
#
# number of rings (size 3 to 8) (size 9 to 14) (size 15 to 20)
#    0.000    2.000    2.500    1.875    8.750    0.000 
#    0.000    0.000   11.000    0.000    0.000    0.000 
#    0.000    0.000    0.000    0.000    0.000    0.000 
#
# Total GULP energy -178304.261359 kJ/mol
# GULP energy per Si atom -5572.008167 kJ/mol
# Density = 1.864340 g / cm^3
# Si number density = 18.685932 Si / 1000 Ang^3
#
#
#
# Elastic Constant Matrix: (Units=GPa)
#
#
# Indices 1 2 3 4 5 6 
#
# 1 60.7140 16.8665 27.4410 0.0000 0.0000 0.0000
# 2 16.8665 84.8470 42.5522 0.0000 0.0000 0.0000
# 3 27.4410 42.5522 70.5298 0.0000 0.0000 0.0000
# 4 0.0000 0.0000 0.0000 35.2131 0.0000 0.0000
# 5 0.0000 0.0000 0.0000 0.0000 22.0296 0.0000
# 6 0.0000 0.0000 0.0000 0.0000 0.0000 24.4604
#
#
#
# Elastic Compliance Matrix: (Units=1/GPa)
#
#
# Indices 1 2 3 4 5 6 
#
# 1 0.019986 -0.000105 -0.007713 0.000000 0.000000 0.000000
# 2 -0.000105 0.016900 -0.010155 0.000000 0.000000 0.000000
# 3 -0.007713 -0.010155 0.023306 0.000000 0.000000 0.000000
# 4 0.000000 0.000000 0.000000 0.028398 0.000000 0.000000
# 5 0.000000 0.000000 0.000000 0.000000 0.045393 0.000000
# 6 0.000000 0.000000 0.000000 0.000000 0.000000 0.040882
#
#
# Mechanical properties :
#
#
# Convention : Reuss Voigt Hill
#
# Bulk Modulus (GPa) = 41.24369 43.31225 42.27797
# Shear Modulus (GPa) = 22.84222 24.95605 23.89913
#
# Velocity S-wave (km/s) = 3.50012 3.65849 3.58018
# Velocity P-wave (km/s) = 6.20116 6.40901 6.30594
#
# Compressibility (1/GPa) = 0.02424613
#
# Stress axis : x y z
#
# Youngs Moduli (GPa) = 50.03590 59.17237 42.90747
#
# Poissons Ratio (x) = 0.00621 0.33092
# Poissons Ratio (y) = 0.00525 0.43573
# Poissons Ratio (z) = 0.38590 0.60091
#
# Static dielectric constant tensor:
#      x y z
#    x 1.683430 0.000000 0.000000 
#    y 0.000000 1.710840 0.000000 
#    z 0.000000 0.000000 1.657880 
# 
# From -- ./inp_files/14378.got.cif
#   From: 2010.05.17/outbox.cif.g08.bks.cpg/sg43_8_cif.got.tgz:14378.got - 2010.06.03 19:21:55.
