data_PCOD9370237
_publ_section_title
;
Structure prediction by ZEFSAII (Michael W. Deem and Ramdas Pophale) SiO2 
 PCOD9370237
Probable space group: F D D 2
;
_chemical_formula_sum "Si O2"
_cell_formula_units_Z 120
_cell_length_a 28.820026
_cell_length_b 18.646241
_cell_length_c 9.216135
_cell_angle_alpha 90.000000
_cell_angle_beta 90.000000
_cell_angle_gamma 90.000000
_cell_volume 4952.614093
_symmetry_space_group_name_H-M "F D D 2"
_symmetry_group_IT_number 43
_symmetry_cell_setting 'orthorhombic'
loop_
_space_group_symop_operation_xyz
x,y,z
-x,-y,z
1/4-x,1/4+y,1/4+z
1/4+x,1/4-y,1/4+z
x,1/2+y,1/2+z
-x,1/2-y,1/2+z
1/4-x,3/4+y,3/4+z
1/4+x,3/4-y,3/4+z
1/2+x,y,1/2+z
1/2-x,-y,1/2+z
3/4-x,1/4+y,3/4+z
3/4+x,1/4-y,3/4+z
1/2+x,1/2+y,z
1/2-x,1/2-y,z
3/4-x,3/4+y,1/4+z
3/4+x,3/4-y,1/4+z
loop_
_atom_site_type_symbol
_atom_site_label
_atom_site_fract_x
_atom_site_fract_y
_atom_site_fract_z
Si Si1 0.553325 0.228855 0.113300
Si Si2 0.347481 0.339980 0.528002
Si Si3 0.550339 0.390434 0.006754
Si Si4 0.888653 0.120314 0.726594
Si Si5 0.204356 0.363403 0.101486
Si Si6 0.534331 0.355075 0.536738
Si Si7 0.591388 0.029811 0.079231
Si Si8 0.250000 0.250000 0.785281
O O1 0.606576 0.206287 0.072213
O O2 0.545012 0.311951 0.080836
O O3 0.542613 0.191974 0.271184
O O4 0.511680 0.190966 0.020314
O O5 0.321258 0.312183 0.386513
O O6 0.307980 0.364071 0.643086
O O7 0.372124 0.417515 0.510931
O O8 0.589106 0.387829 0.882244
O O9 0.502158 0.408051 0.927603
O O10 0.835264 0.139467 0.723586
O O11 0.923363 0.173165 0.635465
O O12 0.889954 0.046277 0.632399
O O13 0.180832 0.315209 0.974007
O O14 0.517274 0.428664 0.616806
O O15 0.548062 0.025392 0.967155
#
# Coordination Sequence:
#
# PCOD9370237 Si02
#       8
#    16  16  16  16  16  16  16   8
#     4  11  24  44  69  98 139 175 225 277 343 419
#     4  11  25  43  64  99 135 178 218 284 345 398
#     4  12  28  42  65 106 138 166 232 293 337 401
#     4  11  23  41  69  99 129 181 232 274 338 410
#     4  11  22  45  68 100 133 186 223 274 352 412
#     4  11  21  40  72  96 124 181 227 266 336 407
#     4  10  20  41  72  91 130 177 230 276 325 422
#     4  10  18  36  66  96 120 162 234 266 306 406
#
# _framework density 24.229628999999999
#
# number of rings (size 3 to 8) (size 9 to 14) (size 15 to 20)
#    0.000    1.067    6.667    1.600    5.600    2.133 
#    0.000    1.333    0.000    0.000    0.000    0.000 
#    0.000    0.000    0.000    0.000    0.000    0.000 
#
# Total GULP energy -167126.867209 kJ/mol
# GULP energy per Si atom -5570.895574 kJ/mol
# Density = 2.417448 g / cm^3
# Si number density = 24.229629 Si / 1000 Ang^3
#
#
#
# Elastic Constant Matrix: (Units=GPa)
#
#
# Indices 1 2 3 4 5 6 
#
# 1 172.2809 -1.6851 56.4702 0.0000 0.0000 0.0000
# 2 -1.6851 65.8733 -22.1526 0.0000 0.0000 0.0000
# 3 56.4702 -22.1526 107.3696 0.0000 0.0000 0.0000
# 4 0.0000 0.0000 0.0000 18.3263 0.0000 0.0000
# 5 0.0000 0.0000 0.0000 0.0000 37.6509 0.0000
# 6 0.0000 0.0000 0.0000 0.0000 0.0000 19.5339
#
#
#
# Elastic Compliance Matrix: (Units=1/GPa)
#
#
# Indices 1 2 3 4 5 6 
#
# 1 0.007094 -0.001153 -0.003969 0.000000 0.000000 0.000000
# 2 -0.001153 0.016500 0.004011 0.000000 0.000000 0.000000
# 3 -0.003969 0.004011 0.012229 0.000000 0.000000 0.000000
# 4 0.000000 0.000000 0.000000 0.054567 0.000000 0.000000
# 5 0.000000 0.000000 0.000000 0.000000 0.026560 0.000000
# 6 0.000000 0.000000 0.000000 0.000000 0.000000 0.051193
#
#
# Mechanical properties :
#
#
# Convention : Reuss Voigt Hill
#
# Bulk Modulus (GPa) = 29.76212 45.64320 37.70266
# Shear Modulus (GPa) = 27.53835 35.96165 31.75000
#
# Velocity S-wave (km/s) = 3.37494 3.85671 3.62384
# Velocity P-wave (km/s) = 5.24376 6.22181 5.75361
#
# Compressibility (1/GPa) = 0.03359976
#
# Stress axis : x y z
#
# Youngs Moduli (GPa) = 140.96066 60.60622 81.77519
#
# Poissons Ratio (x) = 0.06990 0.32457
# Poissons Ratio (y) = 0.16257 -0.32799
# Poissons Ratio (z) = 0.55948 -0.24308
#
# Static dielectric constant tensor:
#      x y z
#    x 2.040850 0.000000 0.000000 
#    y 0.000000 2.035470 0.000000 
#    z 0.000000 0.000000 1.974740 
# 
# From -- ./inp_files/4357.got.cif
#   From: 2010.05.17/outbox.cif.g08.bks.cpg/sg43_3_cif.got.tgz:4357.got - 2010.06.03 19:21:55.
