data_PCOD9370457
_publ_section_title
;
Structure prediction by ZEFSAII (Michael W. Deem and Ramdas Pophale) SiO2 
 PCOD9370457
Probable space group: F D D 2
;
_chemical_formula_sum "Si O2"
_cell_formula_units_Z 72
_cell_length_a 10.245124
_cell_length_b 10.827655
_cell_length_c 27.634573
_cell_angle_alpha 90.000000
_cell_angle_beta 90.000000
_cell_angle_gamma 90.000000
_cell_volume 3065.521646
_symmetry_space_group_name_H-M "F D D 2"
_symmetry_group_IT_number 43
_symmetry_cell_setting 'orthorhombic'
loop_
_space_group_symop_operation_xyz
x,y,z
-x,-y,z
1/4-x,1/4+y,1/4+z
1/4+x,1/4-y,1/4+z
x,1/2+y,1/2+z
-x,1/2-y,1/2+z
1/4-x,3/4+y,3/4+z
1/4+x,3/4-y,3/4+z
1/2+x,y,1/2+z
1/2-x,-y,1/2+z
3/4-x,1/4+y,3/4+z
3/4+x,1/4-y,3/4+z
1/2+x,1/2+y,z
1/2-x,1/2-y,z
3/4-x,3/4+y,1/4+z
3/4+x,3/4-y,1/4+z
loop_
_atom_site_type_symbol
_atom_site_label
_atom_site_fract_x
_atom_site_fract_y
_atom_site_fract_z
Si Si1 0.625904 0.912057 0.155420
Si Si2 0.475839 0.358490 0.456735
Si Si3 0.026440 0.125350 0.273750
Si Si4 0.868852 0.847490 0.800501
Si Si5 0.500000 0.000000 0.480416
O O1 0.639720 0.810012 0.196518
O O2 0.500000 0.000000 0.158920
O O3 0.745402 0.007157 0.166063
O O4 0.625638 0.844765 0.103341
O O5 0.500000 0.500000 0.440275
O O6 0.331916 0.357579 0.480841
O O7 0.582096 0.335813 0.500660
O O8 0.175573 0.143241 0.259042
O O9 0.991692 0.257525 0.295988
O O10 0.000000 0.000000 0.303790
O O11 0.750000 0.750000 0.803855
#
# Coordination Sequence:
#
# PCOD9370457 Si02
#       5
#    16  16  16  16   8
#     4  11  21  39  61  92 126 160 212 253 314 384
#     4   9  18  37  62  81 119 167 198 258 312 363
#     4  10  19  39  58  83 125 154 207 255 306 364
#     4   8  19  37  60  89 117 164 205 251 313 368
#     4  12  24  38  64  96 118 168 208 254 314 384
#
# _framework density 23.487031000000002
#
# number of rings (size 3 to 8) (size 9 to 14) (size 15 to 20)
#    0.000    2.667    2.222    2.667    0.000    0.889 
#    6.000    4.444    0.000    0.000    0.000    0.000 
#    0.000    0.000    0.000    0.000    0.000    0.000 
#
# Total GULP energy -100272.200464 kJ/mol
# GULP energy per Si atom -5570.677804 kJ/mol
# Density = 2.343357 g / cm^3
# Si number density = 23.487031 Si / 1000 Ang^3
#
#
#
# Elastic Constant Matrix: (Units=GPa)
#
#
# Indices 1 2 3 4 5 6 
#
# 1 62.2844 5.3800 10.4028 0.0000 0.0000 0.0000
# 2 5.3800 68.8647 2.0056 0.0000 0.0000 0.0000
# 3 10.4028 2.0056 72.1730 0.0000 0.0000 0.0000
# 4 0.0000 0.0000 0.0000 -54.1519 0.0000 0.0000
# 5 0.0000 0.0000 0.0000 0.0000 -2.6350 0.0000
# 6 0.0000 0.0000 0.0000 0.0000 0.0000 43.4369
#
#
#
# Elastic Compliance Matrix: (Units=1/GPa)
#
#
# Indices 1 2 3 4 5 6 
#
# 1 0.016554 -0.001225 -0.002352 0.000000 0.000000 0.000000
# 2 -0.001225 0.014624 -0.000230 0.000000 0.000000 0.000000
# 3 -0.002352 -0.000230 0.014201 0.000000 0.000000 0.000000
# 4 0.000000 0.000000 0.000000 -0.018467 0.000000 0.000000
# 5 0.000000 0.000000 0.000000 0.000000 -0.379504 0.000000
# 6 0.000000 0.000000 0.000000 0.000000 0.000000 0.023022
#
#
# Mechanical properties :
#
#
# Convention : Reuss Voigt Hill
#
# Bulk Modulus (GPa) = 26.47927 26.54431 26.51179
# Shear Modulus (GPa) = -16.16196 9.69889 -3.23154
#
# Velocity S-wave (km/s) = -2.62606 2.03431 -1.17425
# Velocity P-wave (km/s) = 1.45037 4.10416 3.07796
#
# Compressibility (1/GPa) = 0.03776539
#
# Stress axis : x y z
#
# Youngs Moduli (GPa) = 60.40836 68.38255 70.41754
#
# Poissons Ratio (x) = 0.08375 0.16562
# Poissons Ratio (y) = 0.07399 0.01618
# Poissons Ratio (z) = 0.14208 0.01572
#
# Static dielectric constant tensor:
#      x y z
#    x 2.034630 0.000000 0.000000 
#    y 0.000000 2.114390 0.000000 
#    z 0.000000 0.000000 1.950330 
# 
# From -- ./inp_files/24842.got.cif
#   From: 2010.05.17/outbox.cif.g08.bks.cpg/sg43_13_cif.got.tgz:24842.got - 2010.06.03 19:21:55.
