data_PCOD9370243
_publ_section_title
;
Structure prediction by ZEFSAII (Michael W. Deem and Ramdas Pophale) SiO2 
 PCOD9370243
Probable space group: F D D 2
;
_chemical_formula_sum "Si O2"
_cell_formula_units_Z 112
_cell_length_a 11.522961
_cell_length_b 20.691502
_cell_length_c 21.926184
_cell_angle_alpha 90.000000
_cell_angle_beta 90.000000
_cell_angle_gamma 90.000000
_cell_volume 5227.802398
_symmetry_space_group_name_H-M "F D D 2"
_symmetry_group_IT_number 43
_symmetry_cell_setting 'orthorhombic'
loop_
_space_group_symop_operation_xyz
x,y,z
-x,-y,z
1/4-x,1/4+y,1/4+z
1/4+x,1/4-y,1/4+z
x,1/2+y,1/2+z
-x,1/2-y,1/2+z
1/4-x,3/4+y,3/4+z
1/4+x,3/4-y,3/4+z
1/2+x,y,1/2+z
1/2-x,-y,1/2+z
3/4-x,1/4+y,3/4+z
3/4+x,1/4-y,3/4+z
1/2+x,1/2+y,z
1/2-x,1/2-y,z
3/4-x,3/4+y,1/4+z
3/4+x,3/4-y,1/4+z
loop_
_atom_site_type_symbol
_atom_site_label
_atom_site_fract_x
_atom_site_fract_y
_atom_site_fract_z
Si Si1 0.638652 0.406084 0.222920
Si Si2 0.384132 0.670989 0.540869
Si Si3 0.230167 0.961385 0.998896
Si Si4 0.999503 0.785683 0.114205
Si Si5 0.250000 0.750000 0.459164
Si Si6 0.381103 0.034236 0.092670
Si Si7 0.500000 0.000000 0.814834
Si Si8 0.800715 0.822222 0.341305
O O1 0.770648 0.401455 0.241330
O O2 0.583545 0.336688 0.232727
O O3 0.564586 0.450156 0.269578
O O4 0.623910 0.428488 0.153868
O O5 0.433557 0.736788 0.569742
O O6 0.271113 0.689126 0.502618
O O7 0.380658 0.611478 0.587106
O O8 0.126953 0.921617 0.030344
O O9 0.276484 0.009616 0.050701
O O10 0.205215 0.986297 0.931216
O O11 0.140111 0.776805 0.104070
O O12 0.975969 0.861894 0.100507
O O13 0.358066 0.762518 0.413254
O O14 0.500000 0.000000 0.068086
O O15 0.750000 0.750000 0.336748
#
# Coordination Sequence:
#
# PCOD9370243 Si02
#       8
#    16  16  16  16   8  16   8  16
#     4  10  19  37  64  92 122 159 211 264 314 371
#     4  11  23  42  65  93 135 171 217 263 326 384
#     4  11  22  40  63  95 127 160 216 264 320 376
#     4  10  25  38  65  96 125 166 212 267 326 376
#     4  10  24  43  64  95 132 176 220 260 330 392
#     4  10  23  41  64  99 122 168 218 266 324 374
#     4  10  18  37  62  91 120 152 202 270 318 360
#     4  11  23  40  63  93 127 170 209 263 322 389
#
# _framework density 21.423915999999998
#
# number of rings (size 3 to 8) (size 9 to 14) (size 15 to 20)
#    0.429    1.143    3.571    0.857    3.000    1.143 
#    1.286    0.000    0.000    0.000    0.000    0.000 
#    0.000    0.000    0.000    0.000    0.000    0.000 
#
# Total GULP energy -155963.497761 kJ/mol
# GULP energy per Si atom -5570.124920 kJ/mol
# Density = 2.137515 g / cm^3
# Si number density = 21.423916 Si / 1000 Ang^3
#
#
#
# Elastic Constant Matrix: (Units=GPa)
#
#
# Indices 1 2 3 4 5 6 
#
# 1 14.5157 -2.1239 13.9996 0.0000 0.0000 0.0000
# 2 -2.1239 85.8951 6.2712 0.0000 0.0000 0.0000
# 3 13.9996 6.2712 92.6244 0.0000 0.0000 0.0000
# 4 0.0000 0.0000 0.0000 20.4477 0.0000 0.0000
# 5 0.0000 0.0000 0.0000 0.0000 7.1831 0.0000
# 6 0.0000 0.0000 0.0000 0.0000 0.0000 27.7760
#
#
#
# Elastic Compliance Matrix: (Units=1/GPa)
#
#
# Indices 1 2 3 4 5 6 
#
# 1 0.081371 0.002924 -0.012497 0.000000 0.000000 0.000000
# 2 0.002924 0.011805 -0.001241 0.000000 0.000000 0.000000
# 3 -0.012497 -0.001241 0.012769 0.000000 0.000000 0.000000
# 4 0.000000 0.000000 0.000000 0.048905 0.000000 0.000000
# 5 0.000000 0.000000 0.000000 0.000000 0.139215 0.000000
# 6 0.000000 0.000000 0.000000 0.000000 0.000000 0.036002
#
#
# Mechanical properties :
#
#
# Convention : Reuss Voigt Hill
#
# Bulk Modulus (GPa) = 11.85985 25.48102 18.67043
# Shear Modulus (GPa) = 13.16476 22.74058 17.95267
#
# Velocity S-wave (km/s) = 2.48158 3.26154 2.89792
# Velocity P-wave (km/s) = 3.70928 5.10911 4.46441
#
# Compressibility (1/GPa) = 0.08431813
#
# Stress axis : x y z
#
# Youngs Moduli (GPa) = 12.28935 84.70959 78.31379
#
# Poissons Ratio (x) = -0.24772 0.97867
# Poissons Ratio (y) = -0.03594 0.09721
# Poissons Ratio (z) = 0.15358 0.10515
#
# Static dielectric constant tensor:
#      x y z
#    x 1.790580 0.000000 0.000000 
#    y 0.000000 1.847380 0.000000 
#    z 0.000000 0.000000 1.801840 
# 
# From -- ./inp_files/21210.got.cif
#   From: 2010.05.17/outbox.cif.g08.bks.cpg/sg43_11_cif.got.tgz:21210.got - 2010.06.03 19:21:55.
