data_PCOD9370942
_publ_section_title
;
Structure prediction by ZEFSAII (Michael W. Deem and Ramdas Pophale) SiO2 
 PCOD9370942
Probable space group: F D D 2
;
_chemical_formula_sum "Si O2"
_cell_formula_units_Z 56
_cell_length_a 7.324535
_cell_length_b 12.931163
_cell_length_c 24.593847
_cell_angle_alpha 90.000000
_cell_angle_beta 90.000000
_cell_angle_gamma 90.000000
_cell_volume 2329.400217
_symmetry_space_group_name_H-M "F D D 2"
_symmetry_group_IT_number 43
_symmetry_cell_setting 'orthorhombic'
loop_
_space_group_symop_operation_xyz
x,y,z
-x,-y,z
1/4-x,1/4+y,1/4+z
1/4+x,1/4-y,1/4+z
x,1/2+y,1/2+z
-x,1/2-y,1/2+z
1/4-x,3/4+y,3/4+z
1/4+x,3/4-y,3/4+z
1/2+x,y,1/2+z
1/2-x,-y,1/2+z
3/4-x,1/4+y,3/4+z
3/4+x,1/4-y,3/4+z
1/2+x,1/2+y,z
1/2-x,1/2-y,z
3/4-x,3/4+y,1/4+z
3/4+x,3/4-y,1/4+z
loop_
_atom_site_type_symbol
_atom_site_label
_atom_site_fract_x
_atom_site_fract_y
_atom_site_fract_z
Si Si1 0.458820 0.276756 0.807390
Si Si2 0.202341 0.482951 0.441382
Si Si3 0.500000 0.500000 0.765119
Si Si4 0.012245 0.327814 0.923073
O O1 0.250000 0.250000 0.793179
O O2 0.561846 0.225759 0.756882
O O3 0.498162 0.397593 0.800815
O O4 0.484366 0.233868 0.867190
O O5 0.316846 0.382499 0.425441
O O6 0.332518 0.580795 0.425317
O O7 0.000000 0.500000 0.419611
O O8 0.324943 0.491244 0.724491
#
# Coordination Sequence:
#
# PCOD9370942 Si02
#       4
#    16  16   8  16
#     4  11  21  44  77 112 159 206 260 328 405 471
#     4  10  22  48  75 112 152 204 267 331 394 479
#     4  10  20  42  78 112 160 206 250 334 392 466
#     4  10  21  45  76 109 157 204 255 333 400 470
#
# _framework density 24.040524999999999
#
# number of rings (size 3 to 8) (size 9 to 14) (size 15 to 20)
#    0.000    1.714    7.143    0.000    0.000    0.000 
#    7.714   14.286    0.000    6.857    0.000    0.000 
#    0.000    0.000    0.000    0.000    0.000    0.000 
#
# Total GULP energy -78368.349431 kJ/mol
# GULP energy per Si atom -5597.739245 kJ/mol
# Density = 2.398581 g / cm^3
# Si number density = 24.040525 Si / 1000 Ang^3
#
#
#
# Elastic Constant Matrix: (Units=GPa)
#
#
# Indices 1 2 3 4 5 6 
#
# 1 198.5856 58.5410 47.3789 0.0000 0.0000 0.0000
# 2 58.5410 128.9057 77.6331 0.0000 0.0000 0.0000
# 3 47.3789 77.6331 180.1367 0.0000 0.0000 0.0000
# 4 0.0000 0.0000 0.0000 51.0955 0.0000 0.0000
# 5 0.0000 0.0000 0.0000 0.0000 17.2724 0.0000
# 6 0.0000 0.0000 0.0000 0.0000 0.0000 18.1603
#
#
#
# Elastic Compliance Matrix: (Units=1/GPa)
#
#
# Indices 1 2 3 4 5 6 
#
# 1 0.005851 -0.002337 -0.000532 0.000000 0.000000 0.000000
# 2 -0.002337 0.011410 -0.004303 0.000000 0.000000 0.000000
# 3 -0.000532 -0.004303 0.007546 0.000000 0.000000 0.000000
# 4 0.000000 0.000000 0.000000 0.019571 0.000000 0.000000
# 5 0.000000 0.000000 0.000000 0.000000 0.057896 0.000000
# 6 0.000000 0.000000 0.000000 0.000000 0.000000 0.055065
#
#
# Mechanical properties :
#
#
# Convention : Reuss Voigt Hill
#
# Bulk Modulus (GPa) = 95.56608 97.19266 96.37937
# Shear Modulus (GPa) = 28.54354 38.91064 33.72709
#
# Velocity S-wave (km/s) = 3.44947 4.02748 3.74963
# Velocity P-wave (km/s) = 7.46348 7.88314 7.67618
#
# Compressibility (1/GPa) = 0.01046396
#
# Stress axis : x y z
#
# Youngs Moduli (GPa) = 170.89816 87.64016 132.52801
#
# Poissons Ratio (x) = 0.20482 0.07048
# Poissons Ratio (y) = 0.39940 0.57024
# Poissons Ratio (z) = 0.09089 0.37710
#
# Static dielectric constant tensor:
#      x y z
#    x 1.900770 0.000000 0.000000 
#    y 0.000000 1.963910 0.000000 
#    z 0.000000 0.000000 1.899940 
# 
# From -- ./inp_files/27620.got.cif
#   From: 2010.05.17/outbox.cif.g08.bks.cpg/sg43_14_cif.got.tgz:27620.got - 2010.06.03 19:21:55.
