data_PCOD9370925
_publ_section_title
;
Structure prediction by ZEFSAII (Michael W. Deem and Ramdas Pophale) SiO2 
 PCOD9370925
Probable space group: F D D 2
;
_chemical_formula_sum "Si O2"
_cell_formula_units_Z 120
_cell_length_a 7.319312
_cell_length_b 26.294769
_cell_length_c 23.749461
_cell_angle_alpha 90.000000
_cell_angle_beta 90.000000
_cell_angle_gamma 90.000000
_cell_volume 4570.812198
_symmetry_space_group_name_H-M "F D D 2"
_symmetry_group_IT_number 43
_symmetry_cell_setting 'orthorhombic'
loop_
_space_group_symop_operation_xyz
x,y,z
-x,-y,z
1/4-x,1/4+y,1/4+z
1/4+x,1/4-y,1/4+z
x,1/2+y,1/2+z
-x,1/2-y,1/2+z
1/4-x,3/4+y,3/4+z
1/4+x,3/4-y,3/4+z
1/2+x,y,1/2+z
1/2-x,-y,1/2+z
3/4-x,1/4+y,3/4+z
3/4+x,1/4-y,3/4+z
1/2+x,1/2+y,z
1/2-x,1/2-y,z
3/4-x,3/4+y,1/4+z
3/4+x,3/4-y,1/4+z
loop_
_atom_site_type_symbol
_atom_site_label
_atom_site_fract_x
_atom_site_fract_y
_atom_site_fract_z
Si Si1 0.763882 0.150428 0.997050
Si Si2 0.441339 0.807796 0.106475
Si Si3 0.959118 0.555508 0.638386
Si Si4 0.750000 0.750000 0.062678
Si Si5 0.864841 0.088454 0.603609
Si Si6 0.427530 0.582425 0.723676
Si Si7 0.069728 0.715283 0.771654
Si Si8 0.618820 0.439691 0.480271
O O1 0.645970 0.161327 0.941029
O O2 0.803045 0.090469 0.996823
O O3 0.962468 0.173195 0.985604
O O4 0.678118 0.175434 0.052479
O O5 0.563262 0.756680 0.098471
O O6 0.594223 0.852176 0.111978
O O7 0.322951 0.809534 0.163655
O O8 0.818819 0.545474 0.588407
O O9 0.000000 0.500000 0.662685
O O10 0.146356 0.577125 0.609026
O O11 0.733032 0.797216 0.020040
O O12 0.953379 0.064622 0.659560
O O13 0.953097 0.072236 0.544313
O O14 0.489253 0.641005 0.730727
O O15 0.250000 0.750000 0.764400
O O16 0.933571 0.752881 0.741146
#
# Coordination Sequence:
#
# PCOD9370925 Si02
#       8
#    16  16  16   8  16  16  16  16
#     4  11  25  45  66 109 147 180 237 315 365 432
#     4  11  28  40  68 107 150 185 232 308 374 435
#     4  10  21  39  74 103 132 190 257 288 348 444
#     4  12  26  44  70 102 136 196 232 288 380 458
#     4  10  20  42  68  98 137 185 232 307 346 434
#     4  10  23  43  75  98 139 189 242 296 357 440
#     4  11  21  42  76 103 130 194 249 293 353 444
#     4  11  21  46  72 104 139 186 255 287 359 446
#
# _framework density 26.253540999999998
#
# number of rings (size 3 to 8) (size 9 to 14) (size 15 to 20)
#    0.000    1.333    5.333    0.000    4.667    1.067 
#    4.800    0.000    2.933    0.000    0.000    0.000 
#    0.000    0.000    0.000    0.000    0.000    0.000 
#
# Total GULP energy -167534.521370 kJ/mol
# GULP energy per Si atom -5584.484046 kJ/mol
# Density = 2.619379 g / cm^3
# Si number density = 26.253541 Si / 1000 Ang^3
#
#
#
# Elastic Constant Matrix: (Units=GPa)
#
#
# Indices 1 2 3 4 5 6 
#
# 1 96.5481 7.6279 68.3734 0.0000 0.0000 0.0000
# 2 7.6279 99.9156 84.5057 0.0000 0.0000 0.0000
# 3 68.3734 84.5057 188.0059 0.0000 0.0000 0.0000
# 4 0.0000 0.0000 0.0000 25.3454 0.0000 0.0000
# 5 0.0000 0.0000 0.0000 0.0000 23.6738 0.0000
# 6 0.0000 0.0000 0.0000 0.0000 0.0000 26.7275
#
#
#
# Elastic Compliance Matrix: (Units=1/GPa)
#
#
# Indices 1 2 3 4 5 6 
#
# 1 0.015857 0.005916 -0.008426 0.000000 0.000000 0.000000
# 2 0.005916 0.018354 -0.010401 0.000000 0.000000 0.000000
# 3 -0.008426 -0.010401 0.013059 0.000000 0.000000 0.000000
# 4 0.000000 0.000000 0.000000 0.039455 0.000000 0.000000
# 5 0.000000 0.000000 0.000000 0.000000 0.042241 0.000000
# 6 0.000000 0.000000 0.000000 0.000000 0.000000 0.037415
#
#
# Mechanical properties :
#
#
# Convention : Reuss Voigt Hill
#
# Bulk Modulus (GPa) = 46.62675 78.38705 62.50690
# Shear Modulus (GPa) = 25.08129 30.08018 27.58073
#
# Velocity S-wave (km/s) = 3.09422 3.38858 3.24474
# Velocity P-wave (km/s) = 5.52850 6.72551 6.15617
#
# Compressibility (1/GPa) = 0.02144692
#
# Stress axis : x y z
#
# Youngs Moduli (GPa) = 63.06256 54.48439 76.57837
#
# Poissons Ratio (x) = -0.32232 0.64525
# Poissons Ratio (y) = -0.37307 0.79651
# Poissons Ratio (z) = 0.53137 0.56671
#
# Static dielectric constant tensor:
#      x y z
#    x 1.938850 0.000000 0.000000 
#    y 0.000000 1.972310 0.000000 
#    z 0.000000 0.000000 2.063270 
# 
# From -- ./inp_files/20452.got.cif
#   From: 2010.05.17/outbox.cif.g08.bks.cpg/sg43_11_cif.got.tgz:20452.got - 2010.06.03 19:21:55.
