data_PCOD9370159
_publ_section_title
;
Structure prediction by ZEFSAII (Michael W. Deem and Ramdas Pophale) SiO2 
 PCOD9370159
Probable space group: F D D 2
;
_chemical_formula_sum "Si O2"
_cell_formula_units_Z 80
_cell_length_a 24.934377
_cell_length_b 18.764162
_cell_length_c 6.531299
_cell_angle_alpha 90.000000
_cell_angle_beta 90.000000
_cell_angle_gamma 90.000000
_cell_volume 3055.816428
_symmetry_space_group_name_H-M "F D D 2"
_symmetry_group_IT_number 43
_symmetry_cell_setting 'orthorhombic'
loop_
_space_group_symop_operation_xyz
x,y,z
-x,-y,z
1/4-x,1/4+y,1/4+z
1/4+x,1/4-y,1/4+z
x,1/2+y,1/2+z
-x,1/2-y,1/2+z
1/4-x,3/4+y,3/4+z
1/4+x,3/4-y,3/4+z
1/2+x,y,1/2+z
1/2-x,-y,1/2+z
3/4-x,1/4+y,3/4+z
3/4+x,1/4-y,3/4+z
1/2+x,1/2+y,z
1/2-x,1/2-y,z
3/4-x,3/4+y,1/4+z
3/4+x,3/4-y,1/4+z
loop_
_atom_site_type_symbol
_atom_site_label
_atom_site_fract_x
_atom_site_fract_y
_atom_site_fract_z
Si Si1 0.772198 0.338152 0.807620
Si Si2 0.341786 0.370166 0.685339
Si Si3 0.449213 0.828646 0.782516
Si Si4 0.492156 0.813533 0.183064
Si Si5 0.351311 0.760938 0.531330
O O1 0.747667 0.392330 0.640319
O O2 0.799595 0.276321 0.671843
O O3 0.822513 0.362708 0.951271
O O4 0.722803 0.343639 0.970989
O O5 0.290402 0.404332 0.801200
O O6 0.348378 0.296892 0.808614
O O7 0.386047 0.428816 0.744819
O O8 0.494121 0.767563 0.735909
O O9 0.399291 0.801868 0.650376
O O10 0.442129 0.821373 0.028142
#
# Coordination Sequence:
#
# PCOD9370159 Si02
#       5
#    16  16  16  16  16
#     4  10  20  36  57  87 127 158 207 273 315 383
#     4   9  21  37  57  89 124 165 206 258 318 392
#     4  10  18  32  58  88 119 158 209 264 317 376
#     4   9  17  31  55  90 114 147 204 268 313 363
#     4  10  22  38  60  92 125 165 212 259 330 387
#
# _framework density 26.179582
#
# number of rings (size 3 to 8) (size 9 to 14) (size 15 to 20)
#    0.000    2.400    2.000    0.000    0.000    6.400 
#    0.000    1.000    0.000    0.000    0.000    0.000 
#    0.000    0.000    0.000    0.000    0.000    0.000 
#
# Total GULP energy -111655.215202 kJ/mol
# GULP energy per Si atom -5582.760760 kJ/mol
# Density = 2.612000 g / cm^3
# Si number density = 26.179582 Si / 1000 Ang^3
#
#
#
# Elastic Constant Matrix: (Units=GPa)
#
#
# Indices 1 2 3 4 5 6 
#
# 1 94.7764 24.4613 39.3411 -0.0001 -0.0002 -0.0001
# 2 24.4613 60.7417 33.8189 0.0026 0.0001 -0.0003
# 3 39.3411 33.8189 163.7843 0.0074 0.0002 -0.0003
# 4 -0.0001 0.0026 0.0074 32.3368 0.0003 -0.0002
# 5 -0.0002 0.0001 0.0002 0.0003 54.2771 0.0000
# 6 -0.0001 -0.0003 -0.0003 -0.0002 0.0000 33.9418
#
#
#
# Elastic Compliance Matrix: (Units=1/GPa)
#
#
# Indices 1 2 3 4 5 6 
#
# 1 0.012444 -0.003782 -0.002208 0.000001 0.000000 0.000000
# 2 -0.003782 0.019751 -0.003170 -0.000001 0.000000 0.000000
# 3 -0.002208 -0.003170 0.007291 -0.000001 0.000000 0.000000
# 4 0.000001 -0.000001 -0.000001 0.030925 0.000000 0.000000
# 5 0.000000 0.000000 0.000000 0.000000 0.018424 0.000000
# 6 0.000000 0.000000 0.000000 0.000000 0.000000 0.029462
#
#
# Mechanical properties :
#
#
# Convention : Reuss Voigt Hill
#
# Bulk Modulus (GPa) = 47.24634 57.17168 52.20901
# Shear Modulus (GPa) = 34.80176 38.88988 36.84582
#
# Velocity S-wave (km/s) = 3.64998 3.85841 3.75564
# Velocity P-wave (km/s) = 5.98743 6.46029 6.22835
#
# Compressibility (1/GPa) = 0.02116566
#
# Stress axis : x y z
#
# Youngs Moduli (GPa) = 80.36132 50.63033 137.16445
#
# Poissons Ratio (x) = 0.19148 0.30288
# Poissons Ratio (y) = 0.30391 0.43480
# Poissons Ratio (z) = 0.17745 0.16049
#
# Static dielectric constant tensor:
#      x y z
#    x 2.133080 0.000000 0.000000 
#    y 0.000000 2.014400 0.000000 
#    z 0.000000 0.000000 2.123650 
# 
# From -- ./inp_files/962.got.cif
#   From: 2010.05.17/outbox.cif.g08.bks.cpg/sg43_1_cif.got.tgz:962.got - 2010.06.03 19:21:55.
