data_PCOD9370730
_publ_section_title
;
Structure prediction by ZEFSAII (Michael W. Deem and Ramdas Pophale) SiO2 
 PCOD9370730
Probable space group: F D D 2
;
_chemical_formula_sum "Si O2"
_cell_formula_units_Z 120
_cell_length_a 19.716732
_cell_length_b 12.506816
_cell_length_c 23.924986
_cell_angle_alpha 90.000000
_cell_angle_beta 90.000000
_cell_angle_gamma 90.000000
_cell_volume 5899.746974
_symmetry_space_group_name_H-M "F D D 2"
_symmetry_group_IT_number 43
_symmetry_cell_setting 'orthorhombic'
loop_
_space_group_symop_operation_xyz
x,y,z
-x,-y,z
1/4-x,1/4+y,1/4+z
1/4+x,1/4-y,1/4+z
x,1/2+y,1/2+z
-x,1/2-y,1/2+z
1/4-x,3/4+y,3/4+z
1/4+x,3/4-y,3/4+z
1/2+x,y,1/2+z
1/2-x,-y,1/2+z
3/4-x,1/4+y,3/4+z
3/4+x,1/4-y,3/4+z
1/2+x,1/2+y,z
1/2-x,1/2-y,z
3/4-x,3/4+y,1/4+z
3/4+x,3/4-y,1/4+z
loop_
_atom_site_type_symbol
_atom_site_label
_atom_site_fract_x
_atom_site_fract_y
_atom_site_fract_z
Si Si1 0.696597 0.330789 0.912230
Si Si2 0.250000 0.750000 0.704338
Si Si3 0.039617 0.106606 0.621464
Si Si4 0.914927 0.216110 0.582285
Si Si5 0.989903 0.758072 0.722760
Si Si6 0.628977 0.101513 0.515738
Si Si7 0.828149 0.512738 0.092165
Si Si8 0.941617 0.200585 0.887349
O O1 0.750000 0.250000 0.885066
O O2 0.679708 0.434300 0.873856
O O3 0.734462 0.386772 0.963802
O O4 0.625364 0.271510 0.923033
O O5 0.189247 0.796862 0.742869
O O6 0.283051 0.839555 0.664498
O O7 0.048982 0.193677 0.669967
O O8 0.986773 0.156856 0.576965
O O9 0.111382 0.070023 0.598633
O O10 0.000000 0.000000 0.642109
O O11 0.886727 0.274377 0.527345
O O12 0.860823 0.129950 0.604547
O O13 0.947896 0.768686 0.778889
O O14 0.058719 0.828596 0.725255
O O15 0.659725 0.056623 0.574586
O O16 0.762358 0.487811 0.130054
#
# Coordination Sequence:
#
# PCOD9370730 Si02
#       8
#    16   8  16  16  16  16  16  16
#     4  10  20  39  62  84 126 169 202 258 323 376
#     4  12  22  38  62  92 132 160 212 276 322 388
#     4   9  20  37  61  86 124 160 199 255 318 376
#     4   9  20  37  60  93 120 162 205 260 317 368
#     4  10  21  38  62  91 118 165 212 250 329 382
#     4  10  22  35  59  94 122 158 208 264 330 377
#     4  10  21  38  62  91 130 157 207 269 306 377
#     4  10  21  36  59  90 127 157 209 265 312 373
#
# _framework density 20.339855
#
# number of rings (size 3 to 8) (size 9 to 14) (size 15 to 20)
#    0.000    2.133    1.333    1.600    9.333    2.133 
#    2.400    0.000    5.867    0.000    0.000    0.000 
#    0.000    0.000    0.000    0.000    0.000    0.000 
#
# Total GULP energy -167066.895631 kJ/mol
# GULP energy per Si atom -5568.896521 kJ/mol
# Density = 2.029356 g / cm^3
# Si number density = 20.339855 Si / 1000 Ang^3
#
#
#
# Elastic Constant Matrix: (Units=GPa)
#
#
# Indices 1 2 3 4 5 6 
#
# 1 179.3330 43.1235 32.4674 0.0000 0.0000 0.0000
# 2 43.1235 37.6849 17.0615 0.0000 0.0000 0.0000
# 3 32.4674 17.0615 45.0938 0.0000 0.0000 0.0000
# 4 0.0000 0.0000 0.0000 18.5858 0.0000 0.0000
# 5 0.0000 0.0000 0.0000 0.0000 27.4278 0.0000
# 6 0.0000 0.0000 0.0000 0.0000 0.0000 37.1549
#
#
#
# Elastic Compliance Matrix: (Units=1/GPa)
#
#
# Indices 1 2 3 4 5 6 
#
# 1 0.007968 -0.007868 -0.002760 0.000000 0.000000 0.000000
# 2 -0.007868 0.039791 -0.009390 0.000000 0.000000 0.000000
# 3 -0.002760 -0.009390 0.027716 0.000000 0.000000 0.000000
# 4 0.000000 0.000000 0.000000 0.053805 0.000000 0.000000
# 5 0.000000 0.000000 0.000000 0.000000 0.036459 0.000000
# 6 0.000000 0.000000 0.000000 0.000000 0.000000 0.026914
#
#
# Mechanical properties :
#
#
# Convention : Reuss Voigt Hill
#
# Bulk Modulus (GPa) = 28.21797 49.71294 38.96545
# Shear Modulus (GPa) = 20.44971 27.93099 24.19035
#
# Velocity S-wave (km/s) = 3.17425 3.70971 3.45238
# Velocity P-wave (km/s) = 5.22856 6.54549 5.92374
#
# Compressibility (1/GPa) = 0.03543841
#
# Stress axis : x y z
#
# Youngs Moduli (GPa) = 125.50270 25.13133 36.08041
#
# Poissons Ratio (x) = 0.19774 0.09958
# Poissons Ratio (y) = 0.98750 0.33879
# Poissons Ratio (z) = 0.34637 0.23598
#
# Static dielectric constant tensor:
#      x y z
#    x 1.774610 0.000000 0.000000 
#    y 0.000000 1.754550 0.000000 
#    z 0.000000 0.000000 1.786680 
# 
# From -- ./inp_files/26061.got.cif
#   From: 2010.05.17/outbox.cif.g08.bks.cpg/sg43_14_cif.got.tgz:26061.got - 2010.06.03 19:21:55.
