data_PCOD9370455
_publ_section_title
;
Structure prediction by ZEFSAII (Michael W. Deem and Ramdas Pophale) SiO2 
 PCOD9370455
Probable space group: F D D 2
;
_chemical_formula_sum "Si O2"
_cell_formula_units_Z 120
_cell_length_a 12.761172
_cell_length_b 20.690895
_cell_length_c 25.274522
_cell_angle_alpha 90.000000
_cell_angle_beta 90.000000
_cell_angle_gamma 90.000000
_cell_volume 6673.486556
_symmetry_space_group_name_H-M "F D D 2"
_symmetry_group_IT_number 43
_symmetry_cell_setting 'orthorhombic'
loop_
_space_group_symop_operation_xyz
x,y,z
-x,-y,z
1/4-x,1/4+y,1/4+z
1/4+x,1/4-y,1/4+z
x,1/2+y,1/2+z
-x,1/2-y,1/2+z
1/4-x,3/4+y,3/4+z
1/4+x,3/4-y,3/4+z
1/2+x,y,1/2+z
1/2-x,-y,1/2+z
3/4-x,1/4+y,3/4+z
3/4+x,1/4-y,3/4+z
1/2+x,1/2+y,z
1/2-x,1/2-y,z
3/4-x,3/4+y,1/4+z
3/4+x,3/4-y,1/4+z
loop_
_atom_site_type_symbol
_atom_site_label
_atom_site_fract_x
_atom_site_fract_y
_atom_site_fract_z
Si Si1 0.586379 0.087932 0.853860
Si Si2 0.516552 0.385771 0.013934
Si Si3 0.898523 0.080305 0.196030
Si Si4 0.133092 0.042641 0.846645
Si Si5 0.500000 0.000000 0.443340
Si Si6 0.324185 0.852914 0.571932
Si Si7 0.114013 0.190145 0.569981
Si Si8 0.107891 0.309604 0.424855
O O1 0.663797 0.128846 0.816258
O O2 0.611530 0.106956 0.914071
O O3 0.463711 0.098872 0.842232
O O4 0.611714 0.014394 0.836727
O O5 0.394590 0.389546 0.029225
O O6 0.552221 0.447290 0.980482
O O7 0.534823 0.326216 0.974483
O O8 0.865136 0.071379 0.256821
O O9 0.024384 0.076736 0.193567
O O10 0.857076 0.016814 0.164904
O O11 0.247899 0.071881 0.842215
O O12 0.082244 0.036031 0.905001
O O13 0.046636 0.083345 0.813785
O O14 0.131080 0.967213 0.828704
O O15 0.331332 0.895926 0.624921
#
# Coordination Sequence:
#
# PCOD9370455 Si02
#       8
#    16  16  16  16   8  16  16  16
#     4  11  22  34  60  88 115 151 197 248 292 359
#     4  12  19  36  56  89 115 144 195 248 305 341
#     4  11  21  33  56  90 113 150 196 241 300 352
#     4  10  19  39  54  77 113 152 197 226 288 360
#     4  10  24  32  60  92 108 152 194 248 296 342
#     4  10  20  32  56  81 109 149 183 248 286 349
#     4  11  21  39  59  80 116 160 193 237 299 351
#     4  11  18  33  55  82 119 143 184 248 300 340
#
# _framework density 17.981604999999998
#
# number of rings (size 3 to 8) (size 9 to 14) (size 15 to 20)
#    0.000    1.333    8.000    0.800    1.867    0.000 
#    2.400    0.000    0.000    0.800    0.000    0.000 
#    0.000    0.000    0.000    0.000    0.000    0.000 
#
# Total GULP energy -167165.349276 kJ/mol
# GULP energy per Si atom -5572.178309 kJ/mol
# Density = 1.794068 g / cm^3
# Si number density = 17.981605 Si / 1000 Ang^3
#
#
#
# Elastic Constant Matrix: (Units=GPa)
#
#
# Indices 1 2 3 4 5 6 
#
# 1 116.4048 6.9805 29.0045 0.0000 0.0000 0.0000
# 2 6.9805 31.0244 26.4837 0.0000 0.0000 0.0000
# 3 29.0045 26.4837 83.1122 0.0000 0.0000 0.0000
# 4 0.0000 0.0000 0.0000 23.1310 0.0000 0.0000
# 5 0.0000 0.0000 0.0000 0.0000 16.7171 0.0000
# 6 0.0000 0.0000 0.0000 0.0000 0.0000 16.2413
#
#
#
# Elastic Compliance Matrix: (Units=1/GPa)
#
#
# Indices 1 2 3 4 5 6 
#
# 1 0.009429 0.000944 -0.003591 0.000000 0.000000 0.000000
# 2 0.000944 0.044371 -0.014468 0.000000 0.000000 0.000000
# 3 -0.003591 -0.014468 0.017896 0.000000 0.000000 0.000000
# 4 0.000000 0.000000 0.000000 0.043232 0.000000 0.000000
# 5 0.000000 0.000000 0.000000 0.000000 0.059819 0.000000
# 6 0.000000 0.000000 0.000000 0.000000 0.000000 0.061571
#
#
# Mechanical properties :
#
#
# Convention : Reuss Voigt Hill
#
# Bulk Modulus (GPa) = 26.69190 39.49764 33.09477
# Shear Modulus (GPa) = 17.66553 22.42273 20.04413
#
# Velocity S-wave (km/s) = 3.13776 3.53509 3.34234
# Velocity P-wave (km/s) = 5.29185 6.21899 5.77405
#
# Compressibility (1/GPa) = 0.03746455
#
# Stress axis : x y z
#
# Youngs Moduli (GPa) = 106.05629 22.53723 55.87966
#
# Poissons Ratio (x) = -0.02128 0.20069
# Poissons Ratio (y) = -0.10014 0.80849
# Poissons Ratio (z) = 0.38089 0.32608
#
# Static dielectric constant tensor:
#      x y z
#    x 1.639790 0.000000 0.000000 
#    y 0.000000 1.659030 0.000000 
#    z 0.000000 0.000000 1.625600 
# 
# From -- ./inp_files/21247.got.cif
#   From: 2010.05.17/outbox.cif.g08.bks.cpg/sg43_11_cif.got.tgz:21247.got - 2010.06.03 19:21:55.
