data_PCOD9370389
_publ_section_title
;
Structure prediction by ZEFSAII (Michael W. Deem and Ramdas Pophale) SiO2 
 PCOD9370389
Probable space group: F D D 2
;
_chemical_formula_sum "Si O2"
_cell_formula_units_Z 96
_cell_length_a 29.068293
_cell_length_b 14.038995
_cell_length_c 8.664050
_cell_angle_alpha 90.000000
_cell_angle_beta 90.000000
_cell_angle_gamma 90.000000
_cell_volume 3535.708873
_symmetry_space_group_name_H-M "F D D 2"
_symmetry_group_IT_number 43
_symmetry_cell_setting 'orthorhombic'
loop_
_space_group_symop_operation_xyz
x,y,z
-x,-y,z
1/4-x,1/4+y,1/4+z
1/4+x,1/4-y,1/4+z
x,1/2+y,1/2+z
-x,1/2-y,1/2+z
1/4-x,3/4+y,3/4+z
1/4+x,3/4-y,3/4+z
1/2+x,y,1/2+z
1/2-x,-y,1/2+z
3/4-x,1/4+y,3/4+z
3/4+x,1/4-y,3/4+z
1/2+x,1/2+y,z
1/2-x,1/2-y,z
3/4-x,3/4+y,1/4+z
3/4+x,3/4-y,1/4+z
loop_
_atom_site_type_symbol
_atom_site_label
_atom_site_fract_x
_atom_site_fract_y
_atom_site_fract_z
Si Si1 0.962782 0.362343 0.702940
Si Si2 0.794842 0.636955 0.966676
Si Si3 0.857807 0.140701 0.747047
Si Si4 0.344442 0.039670 0.718947
Si Si5 0.556286 0.409183 0.234746
Si Si6 0.549327 0.409233 0.590566
O O1 0.924419 0.317271 0.590308
O O2 0.948620 0.321964 0.866946
O O3 0.952133 0.476792 0.709867
O O4 0.014905 0.357416 0.645370
O O5 0.826552 0.554617 0.893299
O O6 0.740151 0.615280 0.953580
O O7 0.796328 0.726535 0.852290
O O8 0.818181 0.675626 0.125070
O O9 0.885298 0.196961 0.882955
O O10 0.899216 0.107911 0.644331
O O11 0.390090 0.106472 0.703365
O O12 0.545271 0.384034 0.411598
#
# Coordination Sequence:
#
# PCOD9370389 Si02
#       6
#    16  16  16  16  16  16
#     4  10  20  39  60  92 120 163 219 266 317 405
#     4  11  22  41  69  90 129 180 224 271 334 414
#     4  11  25  38  61 102 133 159 222 287 338 388
#     4  11  21  39  64  93 127 165 213 276 331 394
#     4  10  19  36  67  86 119 170 219 259 328 400
#     4  11  21  41  67  93 126 180 227 267 336 420
#
# _framework density 27.151555999999999
#
# number of rings (size 3 to 8) (size 9 to 14) (size 15 to 20)
#    0.000    1.333    5.000    2.000    0.000    6.667 
#    0.000    8.333    0.000    0.000    0.000    0.000 
#    0.000    0.000    0.000    0.000    0.000    0.000 
#
# Total GULP energy -133878.266320 kJ/mol
# GULP energy per Si atom -5578.261097 kJ/mol
# Density = 2.708976 g / cm^3
# Si number density = 27.151556 Si / 1000 Ang^3
#
#
#
# Elastic Constant Matrix: (Units=GPa)
#
#
# Indices 1 2 3 4 5 6 
#
# 1 181.9690 14.8445 19.7409 0.0000 0.0000 0.0000
# 2 14.8445 54.1442 7.6476 0.0000 0.0000 0.0000
# 3 19.7409 7.6476 97.1994 0.0000 0.0000 0.0000
# 4 0.0000 0.0000 0.0000 24.8212 0.0000 0.0000
# 5 0.0000 0.0000 0.0000 0.0000 41.7902 0.0000
# 6 0.0000 0.0000 0.0000 0.0000 0.0000 17.0965
#
#
#
# Elastic Compliance Matrix: (Units=1/GPa)
#
#
# Indices 1 2 3 4 5 6 
#
# 1 0.005725 -0.001421 -0.001051 0.000000 0.000000 0.000000
# 2 -0.001421 0.019030 -0.001209 0.000000 0.000000 0.000000
# 3 -0.001051 -0.001209 0.010597 0.000000 0.000000 0.000000
# 4 0.000000 0.000000 0.000000 0.040288 0.000000 0.000000
# 5 0.000000 0.000000 0.000000 0.000000 0.023929 0.000000
# 6 0.000000 0.000000 0.000000 0.000000 0.000000 0.058491
#
#
# Mechanical properties :
#
#
# Convention : Reuss Voigt Hill
#
# Bulk Modulus (GPa) = 35.72710 46.41986 41.07348
# Shear Modulus (GPa) = 28.61200 36.14690 32.37945
#
# Velocity S-wave (km/s) = 3.24973 3.65266 3.45707
# Velocity P-wave (km/s) = 5.22188 5.90956 5.57633
#
# Compressibility (1/GPa) = 0.02798996
#
# Stress axis : x y z
#
# Youngs Moduli (GPa) = 174.66028 52.54981 94.36929
#
# Poissons Ratio (x) = 0.07469 0.09918
# Poissons Ratio (y) = 0.24824 0.11405
# Poissons Ratio (z) = 0.18357 0.06351
#
# Static dielectric constant tensor:
#      x y z
#    x 2.133260 0.000000 0.000000 
#    y 0.000000 2.225300 0.000000 
#    z 0.000000 0.000000 2.153250 
# 
# From -- ./inp_files/3296.got.cif
#   From: 2010.05.17/outbox.cif.g08.bks.cpg/sg43_2_cif.got.tgz:3296.got - 2010.06.03 19:21:55.
