data_PCOD9370870
_publ_section_title
;
Structure prediction by ZEFSAII (Michael W. Deem and Ramdas Pophale) SiO2 
 PCOD9370870
Probable space group: F D D 2
;
_chemical_formula_sum "Si O2"
_cell_formula_units_Z 104
_cell_length_a 19.773844
_cell_length_b 29.610388
_cell_length_c 8.497210
_cell_angle_alpha 90.000000
_cell_angle_beta 90.000000
_cell_angle_gamma 90.000000
_cell_volume 4975.211565
_symmetry_space_group_name_H-M "F D D 2"
_symmetry_group_IT_number 43
_symmetry_cell_setting 'orthorhombic'
loop_
_space_group_symop_operation_xyz
x,y,z
-x,-y,z
1/4-x,1/4+y,1/4+z
1/4+x,1/4-y,1/4+z
x,1/2+y,1/2+z
-x,1/2-y,1/2+z
1/4-x,3/4+y,3/4+z
1/4+x,3/4-y,3/4+z
1/2+x,y,1/2+z
1/2-x,-y,1/2+z
3/4-x,1/4+y,3/4+z
3/4+x,1/4-y,3/4+z
1/2+x,1/2+y,z
1/2-x,1/2-y,z
3/4-x,3/4+y,1/4+z
3/4+x,3/4-y,1/4+z
loop_
_atom_site_type_symbol
_atom_site_label
_atom_site_fract_x
_atom_site_fract_y
_atom_site_fract_z
Si Si1 0.244600 0.843306 0.820910
Si Si2 0.745260 0.537862 0.725211
Si Si3 0.527845 0.307524 0.112893
Si Si4 0.250000 0.250000 0.901011
Si Si5 0.608309 0.030415 0.385600
Si Si6 0.863546 0.285841 0.920869
Si Si7 0.187524 0.295030 0.616633
O O1 0.248231 0.896233 0.797096
O O2 0.196127 0.816663 0.700631
O O3 0.319937 0.822862 0.830083
O O4 0.218694 0.830298 0.995109
O O5 0.741653 0.549722 0.543083
O O6 0.751463 0.484490 0.761512
O O7 0.675800 0.551694 0.810174
O O8 0.821502 0.554289 0.764837
O O9 0.608929 0.308515 0.124152
O O10 0.226846 0.290000 0.781419
O O11 0.184153 0.248776 0.014349
O O12 0.630673 0.000769 0.535340
O O13 0.818985 0.255512 0.039911
#
# Coordination Sequence:
#
# PCOD9370870 Si02
#       7
#    16  16  16   8  16  16  16
#     4  11  23  43  66  99 128 177 222 274 331 403
#     4  11  23  42  64  96 128 181 213 270 343 404
#     4  11  25  41  68  90 135 170 221 276 336 395
#     4  12  18  36  68  96 124 170 226 282 306 400
#     4  11  21  39  71  97 130 176 232 269 332 403
#     4  10  20  41  66  90 133 180 209 263 349 411
#     4  10  21  39  65  95 127 174 217 263 339 402
#
# _framework density 20.903634
#
# number of rings (size 3 to 8) (size 9 to 14) (size 15 to 20)
#    0.000    1.231    6.154    0.923    2.154    0.000 
#    0.000    6.154    0.000    0.000    0.000    0.000 
#    0.000    0.000    0.000    0.000    0.000    0.000 
#
# Total GULP energy -144876.882832 kJ/mol
# GULP energy per Si atom -5572.187801 kJ/mol
# Density = 2.085606 g / cm^3
# Si number density = 20.903634 Si / 1000 Ang^3
#
#
#
# Elastic Constant Matrix: (Units=GPa)
#
#
# Indices 1 2 3 4 5 6 
#
# 1 133.9268 21.1437 23.2461 0.0000 0.0001 0.0000
# 2 21.1437 60.6934 7.6463 -0.0001 0.0000 0.0000
# 3 23.2461 7.6463 58.7141 -0.0001 0.0004 0.0001
# 4 0.0000 -0.0001 -0.0001 8.8664 0.0000 0.0000
# 5 0.0001 0.0000 0.0004 0.0000 37.6927 0.0000
# 6 0.0000 0.0000 0.0001 0.0000 0.0000 8.0092
#
#
#
# Elastic Compliance Matrix: (Units=1/GPa)
#
#
# Indices 1 2 3 4 5 6 
#
# 1 0.008387 -0.002545 -0.002989 0.000000 0.000000 0.000000
# 2 -0.002545 0.017523 -0.001274 0.000000 0.000000 0.000000
# 3 -0.002989 -0.001274 0.018381 0.000000 0.000000 0.000000
# 4 0.000000 0.000000 0.000000 0.112785 0.000000 0.000000
# 5 0.000000 0.000000 0.000000 0.000000 0.026530 0.000000
# 6 0.000000 0.000000 0.000000 0.000000 0.000000 0.124856
#
#
# Mechanical properties :
#
#
# Convention : Reuss Voigt Hill
#
# Bulk Modulus (GPa) = 32.60064 39.71183 36.15624
# Shear Modulus (GPa) = 15.04636 24.33356 19.68996
#
# Velocity S-wave (km/s) = 2.68581 3.41557 3.07243
# Velocity P-wave (km/s) = 5.02470 5.88163 5.46998
#
# Compressibility (1/GPa) = 0.03067424
#
# Stress axis : x y z
#
# Youngs Moduli (GPa) = 119.22543 57.06623 54.40350
#
# Poissons Ratio (x) = 0.14525 0.16263
# Poissons Ratio (y) = 0.30347 0.06933
# Poissons Ratio (z) = 0.35640 0.07272
#
# Static dielectric constant tensor:
#      x y z
#    x 1.922630 0.000000 0.000000 
#    y 0.000000 1.731790 0.000000 
#    z 0.000000 0.000000 1.749680 
# 
# From -- ./inp_files/3384.got.cif
#   From: 2010.05.17/outbox.cif.g08.bks.cpg/sg43_2_cif.got.tgz:3384.got - 2010.06.03 19:21:55.
