data_PCOD9370422
_publ_section_title
;
Structure prediction by ZEFSAII (Michael W. Deem and Ramdas Pophale) SiO2 
 PCOD9370422
Probable space group: F D D 2
;
_chemical_formula_sum "Si O2"
_cell_formula_units_Z 96
_cell_length_a 17.585245
_cell_length_b 28.664984
_cell_length_c 9.286963
_cell_angle_alpha 90.000000
_cell_angle_beta 90.000000
_cell_angle_gamma 90.000000
_cell_volume 4681.379428
_symmetry_space_group_name_H-M "F D D 2"
_symmetry_group_IT_number 43
_symmetry_cell_setting 'orthorhombic'
loop_
_space_group_symop_operation_xyz
x,y,z
-x,-y,z
1/4-x,1/4+y,1/4+z
1/4+x,1/4-y,1/4+z
x,1/2+y,1/2+z
-x,1/2-y,1/2+z
1/4-x,3/4+y,3/4+z
1/4+x,3/4-y,3/4+z
1/2+x,y,1/2+z
1/2-x,-y,1/2+z
3/4-x,1/4+y,3/4+z
3/4+x,1/4-y,3/4+z
1/2+x,1/2+y,z
1/2-x,1/2-y,z
3/4-x,3/4+y,1/4+z
3/4+x,3/4-y,1/4+z
loop_
_atom_site_type_symbol
_atom_site_label
_atom_site_fract_x
_atom_site_fract_y
_atom_site_fract_z
Si Si1 0.379920 0.795326 0.893830
Si Si2 0.797849 0.862157 0.873582
Si Si3 0.977350 0.045271 0.391701
Si Si4 0.392359 0.399433 0.479628
Si Si5 0.445319 0.204025 0.957420
Si Si6 0.169983 0.222113 0.071657
O O1 0.368757 0.851190 0.910381
O O2 0.360800 0.780015 0.734090
O O3 0.319463 0.776822 0.008456
O O4 0.465685 0.784426 0.943567
O O5 0.822774 0.830706 0.735366
O O6 0.706294 0.859397 0.853776
O O7 0.817727 0.915485 0.835490
O O8 0.821312 0.830652 0.008549
O O9 0.055730 0.072585 0.365395
O O10 0.000000 0.000000 0.484276
O O11 0.327418 0.428576 0.557448
O O12 0.391690 0.248024 0.982445
O O13 0.250000 0.250000 0.068548
#
# Coordination Sequence:
#
# PCOD9370422 Si02
#       6
#    16  16  16  16  16  16
#     4  11  23  40  60 100 133 153 218 283 319 374
#     4   9  20  40  70  86 121 180 220 247 326 406
#     4  10  19  37  67  90 120 175 215 247 325 402
#     4   9  18  42  67  87 120 180 211 253 314 418
#     4  11  22  43  68  94 129 177 222 265 324 404
#     4  12  24  44  66  99 136 169 220 281 332 395
#
# _framework density 20.506775000000001
#
# number of rings (size 3 to 8) (size 9 to 14) (size 15 to 20)
#    1.000    0.667    3.333    2.000    0.000    2.667 
#    9.000    0.000    0.000    0.000    0.000    0.000 
#    0.000    0.000    0.000    0.000    0.000    0.000 
#
# Total GULP energy -133643.433440 kJ/mol
# GULP energy per Si atom -5568.476393 kJ/mol
# Density = 2.046010 g / cm^3
# Si number density = 20.506775 Si / 1000 Ang^3
#
#
#
# Elastic Constant Matrix: (Units=GPa)
#
#
# Indices 1 2 3 4 5 6 
#
# 1 113.4986 35.6864 33.9336 0.0000 0.0000 0.0000
# 2 35.6864 63.1118 20.5761 0.0000 0.0000 0.0000
# 3 33.9336 20.5761 67.6274 0.0000 0.0000 0.0000
# 4 0.0000 0.0000 0.0000 24.5216 0.0000 0.0000
# 5 0.0000 0.0000 0.0000 0.0000 24.4949 0.0000
# 6 0.0000 0.0000 0.0000 0.0000 0.0000 27.7444
#
#
#
# Elastic Compliance Matrix: (Units=1/GPa)
#
#
# Indices 1 2 3 4 5 6 
#
# 1 0.011743 -0.005239 -0.004298 0.000000 0.000000 0.000000
# 2 -0.005239 0.019927 -0.003434 0.000000 0.000000 0.000000
# 3 -0.004298 -0.003434 0.017989 0.000000 0.000000 0.000000
# 4 0.000000 0.000000 0.000000 0.040780 0.000000 0.000000
# 5 0.000000 0.000000 0.000000 0.000000 0.040825 0.000000
# 6 0.000000 0.000000 0.000000 0.000000 0.000000 0.036043
#
#
# Mechanical properties :
#
#
# Convention : Reuss Voigt Hill
#
# Bulk Modulus (GPa) = 42.16609 47.18112 44.67360
# Shear Modulus (GPa) = 24.85651 25.62163 25.23907
#
# Velocity S-wave (km/s) = 3.48532 3.53855 3.51204
# Velocity P-wave (km/s) = 6.06657 6.30497 6.18692
#
# Compressibility (1/GPa) = 0.02371574
#
# Stress axis : x y z
#
# Youngs Moduli (GPa) = 85.15752 50.18392 55.59072
#
# Poissons Ratio (x) = 0.26289 0.23895
# Poissons Ratio (y) = 0.44611 0.19091
# Poissons Ratio (z) = 0.36604 0.17234
#
# Static dielectric constant tensor:
#      x y z
#    x 1.725960 0.000000 0.000000 
#    y 0.000000 1.959540 0.000000 
#    z 0.000000 0.000000 1.761790 
# 
# From -- ./inp_files/3720.got.cif
#   From: 2010.05.17/outbox.cif.g08.bks.cpg/sg43_2_cif.got.tgz:3720.got - 2010.06.03 19:21:55.
