data_PCOD9370801
_publ_section_title
;
Structure prediction by ZEFSAII (Michael W. Deem and Ramdas Pophale) SiO2 
 PCOD9370801
Probable space group: F D D 2
;
_chemical_formula_sum "Si O2"
_cell_formula_units_Z 88
_cell_length_a 16.978270
_cell_length_b 8.858329
_cell_length_c 25.281571
_cell_angle_alpha 90.000000
_cell_angle_beta 90.000000
_cell_angle_gamma 90.000000
_cell_volume 3802.325563
_symmetry_space_group_name_H-M "F D D 2"
_symmetry_group_IT_number 43
_symmetry_cell_setting 'orthorhombic'
loop_
_space_group_symop_operation_xyz
x,y,z
-x,-y,z
1/4-x,1/4+y,1/4+z
1/4+x,1/4-y,1/4+z
x,1/2+y,1/2+z
-x,1/2-y,1/2+z
1/4-x,3/4+y,3/4+z
1/4+x,3/4-y,3/4+z
1/2+x,y,1/2+z
1/2-x,-y,1/2+z
3/4-x,1/4+y,3/4+z
3/4+x,1/4-y,3/4+z
1/2+x,1/2+y,z
1/2-x,1/2-y,z
3/4-x,3/4+y,1/4+z
3/4+x,3/4-y,1/4+z
loop_
_atom_site_type_symbol
_atom_site_label
_atom_site_fract_x
_atom_site_fract_y
_atom_site_fract_z
Si Si1 0.058508 0.819214 0.058490
Si Si2 0.750000 0.250000 0.963974
Si Si3 0.112540 0.708378 0.517785
Si Si4 0.554972 0.773119 0.349194
Si Si5 0.652476 0.046532 0.045684
Si Si6 0.612901 0.952398 0.445212
O O1 0.077822 0.643194 0.063583
O O2 0.964146 0.833237 0.054245
O O3 0.122171 0.902941 0.096841
O O4 0.082842 0.879367 0.000127
O O5 0.698236 0.376412 0.934666
O O6 0.694242 0.148418 0.000928
O O7 0.183414 0.620856 0.546095
O O8 0.108662 0.629303 0.460082
O O9 0.127446 0.885186 0.522691
O O10 0.467853 0.708762 0.342049
O O11 0.563027 0.884990 0.397872
#
# Coordination Sequence:
#
# PCOD9370801 Si02
#       6
#    16   8  16  16  16  16
#     4  10  22  43  63  95 135 177 216 281 350 399
#     4  10  20  40  64  96 130 178 224 272 350 408
#     4  11  23  38  66  95 135 173 223 277 344 401
#     4  11  21  39  69  92 128 177 229 274 337 415
#     4  11  20  42  68  94 128 182 220 282 343 404
#     4  10  22  38  66  94 129 176 229 271 340 411
#
# _framework density 23.143732
#
# number of rings (size 3 to 8) (size 9 to 14) (size 15 to 20)
#    0.000    1.455    5.455    3.273    2.545    2.909 
#    0.000   10.909    4.000    0.000    0.000    0.000 
#    0.000    0.000    0.000    0.000    0.000    0.000 
#
# Total GULP energy -122674.148019 kJ/mol
# GULP energy per Si atom -5576.097637 kJ/mol
# Density = 2.309106 g / cm^3
# Si number density = 23.143732 Si / 1000 Ang^3
#
#
#
# Elastic Constant Matrix: (Units=GPa)
#
#
# Indices 1 2 3 4 5 6 
#
# 1 107.3948 34.1250 9.1816 0.0000 0.0000 0.0000
# 2 34.1250 164.2709 19.2001 0.0000 0.0000 0.0000
# 3 9.1816 19.2001 65.7228 0.0000 0.0000 0.0000
# 4 0.0000 0.0000 0.0000 23.8877 0.0000 0.0000
# 5 0.0000 0.0000 0.0000 0.0000 8.0211 0.0000
# 6 0.0000 0.0000 0.0000 0.0000 0.0000 49.1797
#
#
#
# Elastic Compliance Matrix: (Units=1/GPa)
#
#
# Indices 1 2 3 4 5 6 
#
# 1 0.010012 -0.001984 -0.000819 0.000000 0.000000 0.000000
# 2 -0.001984 0.006696 -0.001679 0.000000 0.000000 0.000000
# 3 -0.000819 -0.001679 0.015820 0.000000 0.000000 0.000000
# 4 0.000000 0.000000 0.000000 0.041863 0.000000 0.000000
# 5 0.000000 0.000000 0.000000 0.000000 0.124672 0.000000
# 6 0.000000 0.000000 0.000000 0.000000 0.000000 0.020334
#
#
# Mechanical properties :
#
#
# Convention : Reuss Voigt Hill
#
# Bulk Modulus (GPa) = 42.43771 51.37799 46.90785
# Shear Modulus (GPa) = 21.16718 34.54315 27.85517
#
# Velocity S-wave (km/s) = 3.02751 3.86754 3.47302
# Velocity P-wave (km/s) = 5.53150 6.49550 6.03279
#
# Compressibility (1/GPa) = 0.02356395
#
# Stress axis : x y z
#
# Youngs Moduli (GPa) = 99.88101 149.34484 63.20981
#
# Poissons Ratio (x) = 0.29632 0.05177
# Poissons Ratio (y) = 0.19817 0.10613
# Poissons Ratio (z) = 0.08181 0.25074
#
# Static dielectric constant tensor:
#      x y z
#    x 1.945840 0.000000 0.000000 
#    y 0.000000 1.946540 0.000000 
#    z 0.000000 0.000000 1.869220 
# 
# From -- ./inp_files/29406.got.cif
#   From: 2010.05.17/outbox.cif.g08.bks.cpg/sg43_15_cif.got.tgz:29406.got - 2010.06.03 19:21:55.
