data_PCOD9370091
_publ_section_title
;
Structure prediction by ZEFSAII (Michael W. Deem and Ramdas Pophale) SiO2 
 PCOD9370091
Probable space group: F D D 2
;
_chemical_formula_sum "Si O2"
_cell_formula_units_Z 88
_cell_length_a 9.483871
_cell_length_b 23.477504
_cell_length_c 16.526874
_cell_angle_alpha 90.000000
_cell_angle_beta 90.000000
_cell_angle_gamma 90.000000
_cell_volume 3679.834420
_symmetry_space_group_name_H-M "F D D 2"
_symmetry_group_IT_number 43
_symmetry_cell_setting 'orthorhombic'
loop_
_space_group_symop_operation_xyz
x,y,z
-x,-y,z
1/4-x,1/4+y,1/4+z
1/4+x,1/4-y,1/4+z
x,1/2+y,1/2+z
-x,1/2-y,1/2+z
1/4-x,3/4+y,3/4+z
1/4+x,3/4-y,3/4+z
1/2+x,y,1/2+z
1/2-x,-y,1/2+z
3/4-x,1/4+y,3/4+z
3/4+x,1/4-y,3/4+z
1/2+x,1/2+y,z
1/2-x,1/2-y,z
3/4-x,3/4+y,1/4+z
3/4+x,3/4-y,1/4+z
loop_
_atom_site_type_symbol
_atom_site_label
_atom_site_fract_x
_atom_site_fract_y
_atom_site_fract_z
Si Si1 0.609574 0.106391 0.027460
Si Si2 0.174384 0.184714 0.914955
Si Si3 0.536078 0.228895 0.983016
Si Si4 0.750000 0.250000 0.840905
Si Si5 0.868435 0.918412 0.345850
Si Si6 0.585717 0.354285 0.807389
O O1 0.538974 0.066551 0.094115
O O2 0.766329 0.127428 0.052797
O O3 0.527739 0.166825 0.021413
O O4 0.598456 0.076755 0.940431
O O5 0.109821 0.241174 0.957170
O O6 0.032550 0.159233 0.872766
O O7 0.220253 0.138440 0.981121
O O8 0.636250 0.223448 0.903870
O O9 0.606337 0.273411 0.045428
O O10 0.663262 0.294710 0.788278
O O11 0.713066 0.891433 0.342673
#
# Coordination Sequence:
#
# PCOD9370091 Si02
#       6
#    16  16  16   8  16  16
#     4  12  22  42  66  96 135 166 215 284 327 375
#     4  10  23  40  62  95 135 163 211 274 330 388
#     4  10  20  41  67  91 129 178 215 261 323 401
#     4  10  16  38  68  86 116 174 222 258 298 406
#     4  11  21  39  70  94 122 175 227 260 317 401
#     4  10  20  40  62  89 125 169 214 260 318 397
#
# _framework density 23.91412
#
# number of rings (size 3 to 8) (size 9 to 14) (size 15 to 20)
#    0.000    1.455    3.636    3.273    0.000    0.000 
#    9.818    8.182    0.000    0.000    0.000    0.000 
#    0.000    0.000    0.000    0.000    0.000    0.000 
#
# Total GULP energy -123149.296765 kJ/mol
# GULP energy per Si atom -5597.695307 kJ/mol
# Density = 2.385969 g / cm^3
# Si number density = 23.914120 Si / 1000 Ang^3
#
#
#
# Elastic Constant Matrix: (Units=GPa)
#
#
# Indices 1 2 3 4 5 6 
#
# 1 112.4452 10.9883 17.6377 0.0000 0.0000 0.0000
# 2 10.9883 100.1441 42.6772 0.0000 0.0000 0.0000
# 3 17.6377 42.6772 120.2211 0.0000 0.0000 0.0000
# 4 0.0000 0.0000 0.0000 51.1876 0.0000 0.0000
# 5 0.0000 0.0000 0.0000 0.0000 25.9687 0.0000
# 6 0.0000 0.0000 0.0000 0.0000 0.0000 28.0890
#
#
#
# Elastic Compliance Matrix: (Units=1/GPa)
#
#
# Indices 1 2 3 4 5 6 
#
# 1 0.009125 -0.000507 -0.001159 0.000000 0.000000 0.000000
# 2 -0.000507 0.011794 -0.004112 0.000000 0.000000 0.000000
# 3 -0.001159 -0.004112 0.009948 0.000000 0.000000 0.000000
# 4 0.000000 0.000000 0.000000 0.019536 0.000000 0.000000
# 5 0.000000 0.000000 0.000000 0.000000 0.038508 0.000000
# 6 0.000000 0.000000 0.000000 0.000000 0.000000 0.035601
#
#
# Mechanical properties :
#
#
# Convention : Reuss Voigt Hill
#
# Bulk Modulus (GPa) = 51.78757 52.82408 52.30582
# Shear Modulus (GPa) = 35.08674 38.48287 36.78481
#
# Velocity S-wave (km/s) = 3.83456 4.01585 3.92625
# Velocity P-wave (km/s) = 6.42711 6.60604 6.51719
#
# Compressibility (1/GPa) = 0.01930965
#
# Stress axis : x y z
#
# Youngs Moduli (GPa) = 109.59460 84.79076 100.52511
#
# Poissons Ratio (x) = 0.04303 0.11646
# Poissons Ratio (y) = 0.05562 0.41338
# Poissons Ratio (z) = 0.12697 0.34868
#
# Static dielectric constant tensor:
#      x y z
#    x 1.968400 0.000000 0.000000 
#    y 0.000000 1.968710 0.000000 
#    z 0.000000 0.000000 1.859600 
# 
# From -- ./inp_files/9661.got.cif
#   From: 2010.05.17/outbox.cif.g08.bks.cpg/sg43_5_cif.got.tgz:9661.got - 2010.06.03 19:21:55.
