data_PCOD9370723
_publ_section_title
;
Structure prediction by ZEFSAII (Michael W. Deem and Ramdas Pophale) SiO2 
 PCOD9370723
Probable space group: F D D 2
;
_chemical_formula_sum "Si O2"
_cell_formula_units_Z 56
_cell_length_a 11.945606
_cell_length_b 11.405601
_cell_length_c 14.953616
_cell_angle_alpha 90.000000
_cell_angle_beta 90.000000
_cell_angle_gamma 90.000000
_cell_volume 2037.382564
_symmetry_space_group_name_H-M "F D D 2"
_symmetry_group_IT_number 43
_symmetry_cell_setting 'orthorhombic'
loop_
_space_group_symop_operation_xyz
x,y,z
-x,-y,z
1/4-x,1/4+y,1/4+z
1/4+x,1/4-y,1/4+z
x,1/2+y,1/2+z
-x,1/2-y,1/2+z
1/4-x,3/4+y,3/4+z
1/4+x,3/4-y,3/4+z
1/2+x,y,1/2+z
1/2-x,-y,1/2+z
3/4-x,1/4+y,3/4+z
3/4+x,1/4-y,3/4+z
1/2+x,1/2+y,z
1/2-x,1/2-y,z
3/4-x,3/4+y,1/4+z
3/4+x,3/4-y,1/4+z
loop_
_atom_site_type_symbol
_atom_site_label
_atom_site_fract_x
_atom_site_fract_y
_atom_site_fract_z
Si Si1 0.081557 0.713025 0.442220
Si Si2 0.750000 0.750000 0.513859
Si Si3 0.366702 0.062246 0.395747
Si Si4 0.537078 0.136231 0.076119
O O1 0.129994 0.678019 0.539237
O O2 0.148739 0.768442 0.357540
O O3 0.984543 0.617024 0.426025
O O4 0.017691 0.835291 0.479546
O O5 0.721975 0.857488 0.447812
O O6 0.640182 0.727954 0.571575
O O7 0.305269 0.934332 0.398149
#
# Coordination Sequence:
#
# PCOD9370723 Si02
#       4
#    16   8  16  16
#     4   9  20  43  73  94 148 187 239 294 374 414
#     4  10  20  38  72  96 140 194 238 280 378 426
#     4   9  21  37  73 102 131 197 240 285 364 448
#     4   9  21  36  73  99 134 194 238 289 362 443
#
# _framework density 27.486243999999999
#
# number of rings (size 3 to 8) (size 9 to 14) (size 15 to 20)
#    1.714    1.143    0.000    0.000    8.000    0.000 
#    0.000    0.000   37.714    0.000    0.000    0.000 
#    0.000    0.000    0.000    0.000    0.000    0.000 
#
# Total GULP energy -77937.173422 kJ/mol
# GULP energy per Si atom -5566.940959 kJ/mol
# Density = 2.742368 g / cm^3
# Si number density = 27.486244 Si / 1000 Ang^3
#
#
#
# Elastic Constant Matrix: (Units=GPa)
#
#
# Indices 1 2 3 4 5 6 
#
# 1 99.3079 -28.9060 -11.0497 0.0000 0.0000 0.0000
# 2 -28.9060 164.1824 13.4136 0.0000 0.0000 0.0000
# 3 -11.0497 13.4136 64.3028 0.0000 0.0000 0.0000
# 4 0.0000 0.0000 0.0000 152.8533 0.0000 0.0000
# 5 0.0000 0.0000 0.0000 0.0000 21.9098 0.0000
# 6 0.0000 0.0000 0.0000 0.0000 0.0000 -17.2756
#
#
#
# Elastic Compliance Matrix: (Units=1/GPa)
#
#
# Indices 1 2 3 4 5 6 
#
# 1 0.010750 0.001772 0.001478 0.000000 0.000000 0.000000
# 2 0.001772 0.006488 -0.001049 0.000000 0.000000 0.000000
# 3 0.001478 -0.001049 0.016024 0.000000 0.000000 0.000000
# 4 0.000000 0.000000 0.000000 0.006542 0.000000 0.000000
# 5 0.000000 0.000000 0.000000 0.000000 0.045642 0.000000
# 6 0.000000 0.000000 0.000000 0.000000 0.000000 -0.057885
#
#
# Mechanical properties :
#
#
# Convention : Reuss Voigt Hill
#
# Bulk Modulus (GPa) = 26.55092 30.52322 28.53707
# Shear Modulus (GPa) = 139.99759 55.11983 97.55871
#
# Velocity S-wave (km/s) = 7.14453 4.48298 5.96412
# Velocity P-wave (km/s) = 8.81701 6.15834 7.60476
#
# Compressibility (1/GPa) = 0.03766347
#
# Stress axis : x y z
#
# Youngs Moduli (GPa) = 93.02448 154.11991 62.40577
#
# Poissons Ratio (x) = -0.27309 -0.09221
# Poissons Ratio (y) = -0.16483 0.06546
# Poissons Ratio (z) = -0.13745 0.16167
#
# Static dielectric constant tensor:
#      x y z
#    x 2.270070 0.000000 0.000000 
#    y 0.000000 2.430790 0.000000 
#    z 0.000000 0.000000 2.084290 
# 
# From -- ./inp_files/5863.got.cif
#   From: 2010.05.17/outbox.cif.g08.bks.cpg/sg43_3_cif.got.tgz:5863.got - 2010.06.03 19:21:55.
