data_PCOD9370880
_publ_section_title
;
Structure prediction by ZEFSAII (Michael W. Deem and Ramdas Pophale) SiO2 
 PCOD9370880
Probable space group: F D D 2
;
_chemical_formula_sum "Si O2"
_cell_formula_units_Z 104
_cell_length_a 16.612799
_cell_length_b 10.946222
_cell_length_c 22.939524
_cell_angle_alpha 90.000000
_cell_angle_beta 90.000000
_cell_angle_gamma 90.000000
_cell_volume 4171.492473
_symmetry_space_group_name_H-M "F D D 2"
_symmetry_group_IT_number 43
_symmetry_cell_setting 'orthorhombic'
loop_
_space_group_symop_operation_xyz
x,y,z
-x,-y,z
1/4-x,1/4+y,1/4+z
1/4+x,1/4-y,1/4+z
x,1/2+y,1/2+z
-x,1/2-y,1/2+z
1/4-x,3/4+y,3/4+z
1/4+x,3/4-y,3/4+z
1/2+x,y,1/2+z
1/2-x,-y,1/2+z
3/4-x,1/4+y,3/4+z
3/4+x,1/4-y,3/4+z
1/2+x,1/2+y,z
1/2-x,1/2-y,z
3/4-x,3/4+y,1/4+z
3/4+x,3/4-y,1/4+z
loop_
_atom_site_type_symbol
_atom_site_label
_atom_site_fract_x
_atom_site_fract_y
_atom_site_fract_z
Si Si1 0.698629 0.057328 0.573710
Si Si2 0.191888 0.462701 0.367699
Si Si3 0.689595 0.857263 0.179155
Si Si4 0.250000 0.250000 0.454934
Si Si5 0.572317 0.579081 0.394641
Si Si6 0.668988 0.519137 0.489718
Si Si7 0.968682 0.168472 0.506308
O O1 0.630434 0.157273 0.577840
O O2 0.763528 0.093495 0.622639
O O3 0.659374 0.932066 0.598052
O O4 0.749958 0.037992 0.515925
O O5 0.145330 0.556947 0.408696
O O6 0.213818 0.350781 0.410682
O O7 0.246729 0.528204 0.318551
O O8 0.750000 0.750000 0.203082
O O9 0.679319 0.969582 0.221715
O O10 0.310872 0.334053 0.492759
O O11 0.500000 0.500000 0.370201
O O12 0.647273 0.504835 0.420827
O O13 0.534009 0.629593 0.456466
O O14 0.595120 0.441512 0.518007
#
# Coordination Sequence:
#
# PCOD9370880 Si02
#       7
#    16  16  16   8  16  16  16
#     4  10  20  41  68  89 128 181 221 280 343 417
#     4  11  23  44  62  99 132 171 230 288 346 422
#     4   9  20  40  70  95 125 172 228 285 352 417
#     4  12  28  44  62 104 150 174 232 308 348 428
#     4   9  20  42  64  95 133 167 228 287 337 415
#     4  11  23  45  67 100 137 182 235 283 358 432
#     4  10  22  42  70  96 128 178 229 288 352 422
#
# _framework density 24.931125000000002
#
# number of rings (size 3 to 8) (size 9 to 14) (size 15 to 20)
#    0.000    1.846    3.077    0.000    4.308    0.000 
#   11.077    0.000    0.000    0.000    0.000    0.000 
#    0.000    0.000    0.000    0.000    0.000    0.000 
#
# Total GULP energy -144879.046985 kJ/mol
# GULP energy per Si atom -5572.271038 kJ/mol
# Density = 2.487438 g / cm^3
# Si number density = 24.931125 Si / 1000 Ang^3
#
#
#
# Elastic Constant Matrix: (Units=GPa)
#
#
# Indices 1 2 3 4 5 6 
#
# 1 38.6849 10.4790 44.4942 0.0000 0.0000 0.0000
# 2 10.4790 98.5891 43.5010 0.0000 0.0000 0.0000
# 3 44.4942 43.5010 88.3632 0.0000 0.0000 0.0000
# 4 0.0000 0.0000 0.0000 4.5887 0.0000 0.0000
# 5 0.0000 0.0000 0.0000 0.0000 11.1220 0.0000
# 6 0.0000 0.0000 0.0000 0.0000 0.0000 44.4145
#
#
#
# Elastic Compliance Matrix: (Units=1/GPa)
#
#
# Indices 1 2 3 4 5 6 
#
# 1 0.068545 0.010148 -0.039511 0.000000 0.000000 0.000000
# 2 0.010148 0.014460 -0.012229 0.000000 0.000000 0.000000
# 3 -0.039511 -0.012229 0.037232 0.000000 0.000000 0.000000
# 4 0.000000 0.000000 0.000000 0.217928 0.000000 0.000000
# 5 0.000000 0.000000 0.000000 0.000000 0.089912 0.000000
# 6 0.000000 0.000000 0.000000 0.000000 0.000000 0.022515
#
#
# Mechanical properties :
#
#
# Convention : Reuss Voigt Hill
#
# Bulk Modulus (GPa) = 26.98726 46.95395 36.97061
# Shear Modulus (GPa) = 9.15539 20.50257 14.82898
#
# Velocity S-wave (km/s) = 1.91840 2.87081 2.44149
# Velocity P-wave (km/s) = 3.96928 5.46471 4.77589
#
# Compressibility (1/GPa) = 0.03705452
#
# Stress axis : x y z
#
# Youngs Moduli (GPa) = 14.58894 69.15566 26.85851
#
# Poissons Ratio (x) = -0.70178 1.06120
# Poissons Ratio (y) = -0.14805 0.32844
# Poissons Ratio (z) = 0.57642 0.84567
#
# Static dielectric constant tensor:
#      x y z
#    x 2.262340 0.000000 0.000000 
#    y 0.000000 2.019330 0.000000 
#    z 0.000000 0.000000 2.049690 
# 
# From -- ./inp_files/25148.got.cif
#   From: 2010.05.17/outbox.cif.g08.bks.cpg/sg43_13_cif.got.tgz:25148.got - 2010.06.03 19:21:55.
