data_PCOD9370587
_publ_section_title
;
Structure prediction by ZEFSAII (Michael W. Deem and Ramdas Pophale) SiO2 
 PCOD9370587
Probable space group: F D D 2
;
_chemical_formula_sum "Si O2"
_cell_formula_units_Z 104
_cell_length_a 14.321306
_cell_length_b 24.063001
_cell_length_c 13.884089
_cell_angle_alpha 90.000000
_cell_angle_beta 90.000000
_cell_angle_gamma 90.000000
_cell_volume 4784.645901
_symmetry_space_group_name_H-M "F D D 2"
_symmetry_group_IT_number 43
_symmetry_cell_setting 'orthorhombic'
loop_
_space_group_symop_operation_xyz
x,y,z
-x,-y,z
1/4-x,1/4+y,1/4+z
1/4+x,1/4-y,1/4+z
x,1/2+y,1/2+z
-x,1/2-y,1/2+z
1/4-x,3/4+y,3/4+z
1/4+x,3/4-y,3/4+z
1/2+x,y,1/2+z
1/2-x,-y,1/2+z
3/4-x,1/4+y,3/4+z
3/4+x,1/4-y,3/4+z
1/2+x,1/2+y,z
1/2-x,1/2-y,z
3/4-x,3/4+y,1/4+z
3/4+x,3/4-y,1/4+z
loop_
_atom_site_type_symbol
_atom_site_label
_atom_site_fract_x
_atom_site_fract_y
_atom_site_fract_z
Si Si1 0.788883 0.350581 0.445780
Si Si2 0.771737 0.037652 0.747148
Si Si3 0.500000 0.500000 0.050906
Si Si4 0.414801 0.168159 0.009898
Si Si5 0.920787 0.614813 0.607601
Si Si6 0.527553 0.836264 0.790810
Si Si7 0.449765 0.221283 0.286127
O O1 0.878239 0.312550 0.466400
O O2 0.803994 0.370487 0.334609
O O3 0.695908 0.323122 0.490551
O O4 0.785219 0.409889 0.499541
O O5 0.729164 0.084157 0.815674
O O6 0.705810 0.030732 0.652950
O O7 0.787977 0.976522 0.789842
O O8 0.477032 0.556988 0.106157
O O9 0.597118 0.511888 0.997925
O O10 0.445549 0.155831 0.901030
O O11 0.829629 0.607185 0.541833
O O12 0.906435 0.630869 0.718582
O O13 0.522078 0.770835 0.764323
#
# Coordination Sequence:
#
# PCOD9370587 Si02
#       7
#    16  16   8  16  16  16  16
#     4  12  22  43  65  96 133 179 219 277 337 399
#     4  11  23  41  66 101 133 169 223 279 340 400
#     4  10  20  36  62  90 128 162 208 266 332 376
#     4  11  25  42  67  92 137 179 225 272 338 409
#     4  11  21  39  64  92 127 164 216 277 323 392
#     4  10  23  40  63  90 128 173 219 269 326 389
#     4  10  21  40  61  96 129 167 213 273 324 401
#
# _framework density 21.736194999999999
#
# number of rings (size 3 to 8) (size 9 to 14) (size 15 to 20)
#    0.000    1.231    3.077    3.231    0.000    0.000 
#    2.769    1.538    3.385    0.000    0.000    0.000 
#    0.000    0.000    0.000    0.000    0.000    0.000 
#
# Total GULP energy -145032.532203 kJ/mol
# GULP energy per Si atom -5578.174315 kJ/mol
# Density = 2.168672 g / cm^3
# Si number density = 21.736195 Si / 1000 Ang^3
#
#
#
# Elastic Constant Matrix: (Units=GPa)
#
#
# Indices 1 2 3 4 5 6 
#
# 1 49.5221 -24.6835 -10.6884 0.0000 0.0000 0.0000
# 2 -24.6835 59.2833 7.0034 0.0000 0.0000 0.0000
# 3 -10.6884 7.0034 40.1840 0.0000 0.0000 0.0000
# 4 0.0000 0.0000 0.0000 26.2790 0.0000 0.0000
# 5 0.0000 0.0000 0.0000 0.0000 22.6435 0.0000
# 6 0.0000 0.0000 0.0000 0.0000 0.0000 24.7253
#
#
#
# Elastic Compliance Matrix: (Units=1/GPa)
#
#
# Indices 1 2 3 4 5 6 
#
# 1 0.026518 0.010423 0.005237 0.000000 0.000000 0.000000
# 2 0.010423 0.021319 -0.000943 0.000000 0.000000 0.000000
# 3 0.005237 -0.000943 0.026443 0.000000 0.000000 0.000000
# 4 0.000000 0.000000 0.000000 0.038053 0.000000 0.000000
# 5 0.000000 0.000000 0.000000 0.000000 0.044163 0.000000
# 6 0.000000 0.000000 0.000000 0.000000 0.000000 0.040444
#
#
# Mechanical properties :
#
#
# Convention : Reuss Voigt Hill
#
# Bulk Modulus (GPa) = 9.64200 10.25028 9.94614
# Shear Modulus (GPa) = 24.74277 26.55341 25.64809
#
# Velocity S-wave (km/s) = 3.37756 3.49896 3.43880
# Velocity P-wave (km/s) = 4.43352 4.58799 4.51142
#
# Compressibility (1/GPa) = 0.10371298
#
# Stress axis : x y z
#
# Youngs Moduli (GPa) = 37.70986 46.90612 37.81730
#
# Poissons Ratio (x) = -0.48888 -0.19805
# Poissons Ratio (y) = -0.39303 0.03567
# Poissons Ratio (z) = -0.19749 0.04425
#
# Static dielectric constant tensor:
#      x y z
#    x 1.850020 0.000000 0.000000 
#    y 0.000000 1.771080 0.000000 
#    z 0.000000 0.000000 1.822060 
# 
# From -- ./inp_files/10208.got.cif
#   From: 2010.05.17/outbox.cif.g08.bks.cpg/sg43_6_cif.got.tgz:10208.got - 2010.06.03 19:21:55.
