data_PCOD9370283
_publ_section_title
;
Structure prediction by ZEFSAII (Michael W. Deem and Ramdas Pophale) SiO2 
 PCOD9370283
Probable space group: F D D 2
;
_chemical_formula_sum "Si O2"
_cell_formula_units_Z 120
_cell_length_a 21.198816
_cell_length_b 21.033602
_cell_length_c 13.049237
_cell_angle_alpha 90.000000
_cell_angle_beta 90.000000
_cell_angle_gamma 90.000000
_cell_volume 5818.491123
_symmetry_space_group_name_H-M "F D D 2"
_symmetry_group_IT_number 43
_symmetry_cell_setting 'orthorhombic'
loop_
_space_group_symop_operation_xyz
x,y,z
-x,-y,z
1/4-x,1/4+y,1/4+z
1/4+x,1/4-y,1/4+z
x,1/2+y,1/2+z
-x,1/2-y,1/2+z
1/4-x,3/4+y,3/4+z
1/4+x,3/4-y,3/4+z
1/2+x,y,1/2+z
1/2-x,-y,1/2+z
3/4-x,1/4+y,3/4+z
3/4+x,1/4-y,3/4+z
1/2+x,1/2+y,z
1/2-x,1/2-y,z
3/4-x,3/4+y,1/4+z
3/4+x,3/4-y,1/4+z
loop_
_atom_site_type_symbol
_atom_site_label
_atom_site_fract_x
_atom_site_fract_y
_atom_site_fract_z
Si Si1 0.681157 0.724996 0.516020
Si Si2 0.391593 0.154326 0.036568
Si Si3 0.500000 0.000000 0.147247
Si Si4 0.073739 0.484961 0.392981
Si Si5 0.464056 0.166783 0.830186
Si Si6 0.298489 0.373839 0.005581
Si Si7 0.866616 0.263447 0.241129
Si Si8 0.834216 0.505700 0.584035
O O1 0.750000 0.750000 0.483119
O O2 0.693037 0.650018 0.532775
O O3 0.661770 0.749428 0.629108
O O4 0.624543 0.741838 0.438646
O O5 0.351242 0.216669 0.058466
O O6 0.417419 0.140193 0.149701
O O7 0.361928 0.087422 0.999735
O O8 0.443345 0.167921 0.949697
O O9 0.503937 0.933825 0.211714
O O10 0.561061 0.999116 0.073424
O O11 0.083440 0.415900 0.343966
O O12 0.113532 0.491755 0.495419
O O13 0.000000 0.500000 0.413066
O O14 0.424114 0.218985 0.769536
O O15 0.537235 0.184587 0.825898
O O16 0.291460 0.442508 0.061220
#
# Coordination Sequence:
#
# PCOD9370283 Si02
#       8
#    16  16   8  16  16  16  16  16
#     4  11  26  47  70  96 137 189 236 283 352 425
#     4   9  21  42  63 104 135 165 225 284 351 399
#     4  10  18  40  72 104 140 164 236 292 350 414
#     4  11  23  43  68  98 137 184 226 281 346 422
#     4  11  26  42  70 101 136 177 230 293 347 418
#     4  10  22  39  69  97 132 181 218 291 337 411
#     4  10  22  40  73 104 131 178 229 295 346 413
#     4  11  28  46  64 101 145 184 237 282 351 428
#
# _framework density 20.623905000000001
#
# number of rings (size 3 to 8) (size 9 to 14) (size 15 to 20)
#    0.000    1.600    1.333    2.000    5.600    3.200 
#    0.000    0.000    0.000    0.000    0.000    0.000 
#    0.000    0.000    0.000    0.000    0.000    0.000 
#
# Total GULP energy -167182.913949 kJ/mol
# GULP energy per Si atom -5572.763798 kJ/mol
# Density = 2.057696 g / cm^3
# Si number density = 20.623905 Si / 1000 Ang^3
#
#
#
# Elastic Constant Matrix: (Units=GPa)
#
#
# Indices 1 2 3 4 5 6 
#
# 1 95.1915 33.5243 36.5280 0.0000 0.0000 0.0000
# 2 33.5243 88.7042 29.3821 0.0000 0.0000 0.0000
# 3 36.5280 29.3821 102.2649 0.0000 0.0000 0.0000
# 4 0.0000 0.0000 0.0000 28.8990 0.0000 0.0000
# 5 0.0000 0.0000 0.0000 0.0000 28.1475 0.0000
# 6 0.0000 0.0000 0.0000 0.0000 0.0000 516.1728
#
#
#
# Elastic Compliance Matrix: (Units=1/GPa)
#
#
# Indices 1 2 3 4 5 6 
#
# 1 0.013239 -0.003799 -0.003637 0.000000 0.000000 0.000000
# 2 -0.003799 0.013549 -0.002536 0.000000 0.000000 0.000000
# 3 -0.003637 -0.002536 0.011806 0.000000 0.000000 0.000000
# 4 0.000000 0.000000 0.000000 0.034603 0.000000 0.000000
# 5 0.000000 0.000000 0.000000 0.000000 0.035527 0.000000
# 6 0.000000 0.000000 0.000000 0.000000 0.000000 0.001937
#
#
# Mechanical properties :
#
#
# Convention : Reuss Voigt Hill
#
# Bulk Modulus (GPa) = 53.61846 53.89216 53.75531
# Shear Modulus (GPa) = 36.54370 127.09226 81.81798
#
# Velocity S-wave (km/s) = 4.21397 7.85860 6.30536
# Velocity P-wave (km/s) = 7.05205 10.41782 8.89557
#
# Compressibility (1/GPa) = 0.01865029
#
# Stress axis : x y z
#
# Youngs Moduli (GPa) = 75.53639 73.80596 84.69986
#
# Poissons Ratio (x) = 0.28035 0.30808
# Poissons Ratio (y) = 0.28693 0.21480
# Poissons Ratio (z) = 0.27475 0.18717
#
# Static dielectric constant tensor:
#      x y z
#    x 1.789970 0.000000 0.000000 
#    y 0.000000 1.773540 0.000000 
#    z 0.000000 0.000000 1.717650 
# 
# From -- ./inp_files/7627.got.cif
#   From: 2010.05.17/outbox.cif.g08.bks.cpg/sg43_4_cif.got.tgz:7627.got - 2010.06.03 19:21:55.
