data_PCOD9370611
_publ_section_title
;
Structure prediction by ZEFSAII (Michael W. Deem and Ramdas Pophale) SiO2 
 PCOD9370611
Probable space group: F D D 2
;
_chemical_formula_sum "Si O2"
_cell_formula_units_Z 64
_cell_length_a 14.552291
_cell_length_b 19.158517
_cell_length_c 10.072815
_cell_angle_alpha 90.000000
_cell_angle_beta 90.000000
_cell_angle_gamma 90.000000
_cell_volume 2808.303990
_symmetry_space_group_name_H-M "F D D 2"
_symmetry_group_IT_number 43
_symmetry_cell_setting 'orthorhombic'
loop_
_space_group_symop_operation_xyz
x,y,z
-x,-y,z
1/4-x,1/4+y,1/4+z
1/4+x,1/4-y,1/4+z
x,1/2+y,1/2+z
-x,1/2-y,1/2+z
1/4-x,3/4+y,3/4+z
1/4+x,3/4-y,3/4+z
1/2+x,y,1/2+z
1/2-x,-y,1/2+z
3/4-x,1/4+y,3/4+z
3/4+x,1/4-y,3/4+z
1/2+x,1/2+y,z
1/2-x,1/2-y,z
3/4-x,3/4+y,1/4+z
3/4+x,3/4-y,1/4+z
loop_
_atom_site_type_symbol
_atom_site_label
_atom_site_fract_x
_atom_site_fract_y
_atom_site_fract_z
Si Si1 0.347916 0.502810 0.168670
Si Si2 0.147520 0.843255 0.391958
Si Si3 0.299912 0.459501 0.873163
Si Si4 0.695097 0.839605 0.623272
O O1 0.263451 0.494307 0.273992
O O2 0.358043 0.586404 0.143123
O O3 0.422096 0.453884 0.242123
O O4 0.325168 0.480769 0.020009
O O5 0.235426 0.892258 0.393710
O O6 0.137421 0.804288 0.530505
O O7 0.160867 0.799093 0.256380
O O8 0.051744 0.887167 0.380912
#
# Coordination Sequence:
#
# PCOD9370611 Si02
#       4
#    16  16  16  16
#     4  10  21  36  60  86 116 152 194 243 295 351
#     4   8  19  36  57  81 112 152 193 241 295 352
#     4  10  20  37  59  83 114 151 194 242 296 353
#     4  10  20  38  58  83 114 151 193 237 294 353
#
# _framework density 22.789556000000001
#
# number of rings (size 3 to 8) (size 9 to 14) (size 15 to 20)
#    0.000    3.000    0.000    3.000    0.000    8.000 
#    0.000    0.000    0.000    6.000    0.000    0.000 
#    0.000    0.000    0.000    0.000    0.000    0.000 
#
# Total GULP energy -89076.110672 kJ/mol
# GULP energy per Si atom -5567.256917 kJ/mol
# Density = 2.273769 g / cm^3
# Si number density = 22.789556 Si / 1000 Ang^3
#
#
#
# Elastic Constant Matrix: (Units=GPa)
#
#
# Indices 1 2 3 4 5 6 
#
# 1 39.8309 17.9806 44.5224 0.0000 0.0000 0.0000
# 2 17.9806 68.2972 48.8573 0.0000 0.0000 0.0000
# 3 44.5224 48.8573 252.2219 0.0000 0.0000 0.0000
# 4 0.0000 0.0000 0.0000 32.3573 0.0000 0.0000
# 5 0.0000 0.0000 0.0000 0.0000 35.0454 0.0000
# 6 0.0000 0.0000 0.0000 0.0000 0.0000 18.5710
#
#
#
# Elastic Compliance Matrix: (Units=1/GPa)
#
#
# Indices 1 2 3 4 5 6 
#
# 1 0.032804 -0.005217 -0.004780 0.000000 0.000000 0.000000
# 2 -0.005217 0.017827 -0.002532 0.000000 0.000000 0.000000
# 3 -0.004780 -0.002532 0.005299 0.000000 0.000000 0.000000
# 4 0.000000 0.000000 0.000000 0.030905 0.000000 0.000000
# 5 0.000000 0.000000 0.000000 0.000000 0.028534 0.000000
# 6 0.000000 0.000000 0.000000 0.000000 0.000000 0.053847
#
#
# Mechanical properties :
#
#
# Convention : Reuss Voigt Hill
#
# Bulk Modulus (GPa) = 32.39222 64.78563 48.58892
# Shear Modulus (GPa) = 24.44200 33.79406 29.11803
#
# Velocity S-wave (km/s) = 3.27847 3.85499 3.57836
# Velocity P-wave (km/s) = 5.34562 6.95011 6.19999
#
# Compressibility (1/GPa) = 0.03087161
#
# Stress axis : x y z
#
# Youngs Moduli (GPa) = 30.48387 56.09517 188.71234
#
# Poissons Ratio (x) = 0.29264 0.90206
# Poissons Ratio (y) = 0.15903 0.47788
# Poissons Ratio (z) = 0.14572 0.14205
#
# Static dielectric constant tensor:
#      x y z
#    x 1.911160 0.000000 0.000000 
#    y 0.000000 1.979110 0.000000 
#    z 0.000000 0.000000 1.961800 
# 
# From -- ./inp_files/2259.got.cif
#   From: 2010.05.17/outbox.cif.g08.bks.cpg/sg43_2_cif.got.tgz:2259.got - 2010.06.03 19:21:55.
