data_PCOD9370881
_publ_section_title
;
Structure prediction by ZEFSAII (Michael W. Deem and Ramdas Pophale) SiO2 
 PCOD9370881
Probable space group: F D D 2
;
_chemical_formula_sum "Si O2"
_cell_formula_units_Z 88
_cell_length_a 21.464669
_cell_length_b 23.515855
_cell_length_c 8.905437
_cell_angle_alpha 90.000000
_cell_angle_beta 90.000000
_cell_angle_gamma 90.000000
_cell_volume 4495.108770
_symmetry_space_group_name_H-M "F D D 2"
_symmetry_group_IT_number 43
_symmetry_cell_setting 'orthorhombic'
loop_
_space_group_symop_operation_xyz
x,y,z
-x,-y,z
1/4-x,1/4+y,1/4+z
1/4+x,1/4-y,1/4+z
x,1/2+y,1/2+z
-x,1/2-y,1/2+z
1/4-x,3/4+y,3/4+z
1/4+x,3/4-y,3/4+z
1/2+x,y,1/2+z
1/2-x,-y,1/2+z
3/4-x,1/4+y,3/4+z
3/4+x,1/4-y,3/4+z
1/2+x,1/2+y,z
1/2-x,1/2-y,z
3/4-x,3/4+y,1/4+z
3/4+x,3/4-y,1/4+z
loop_
_atom_site_type_symbol
_atom_site_label
_atom_site_fract_x
_atom_site_fract_y
_atom_site_fract_z
Si Si1 0.411568 0.000031 0.174920
Si Si2 0.448328 0.412832 0.167632
Si Si3 0.557295 0.300216 0.882545
Si Si4 0.241482 0.331257 0.086904
Si Si5 0.000000 0.000000 0.399766
Si Si6 0.793066 0.029884 0.850112
O O1 0.451539 0.043721 0.276792
O O2 0.341365 0.015163 0.215380
O O3 0.433115 0.937620 0.233526
O O4 0.440147 0.007393 0.009364
O O5 0.375873 0.429123 0.175477
O O6 0.486395 0.445246 0.296625
O O7 0.452887 0.344638 0.159005
O O8 0.474130 0.433199 0.006920
O O9 0.514052 0.354024 0.837397
O O10 0.559188 0.259749 0.739376
O O11 0.524480 0.271875 0.026272
#
# Coordination Sequence:
#
# PCOD9370881 Si02
#       6
#    16  16  16  16   8  16
#     4  10  20  41  68  91 125 173 221 258 320 395
#     4  11  22  42  66  94 130 174 218 267 323 398
#     4  11  24  39  65  97 131 171 214 272 327 382
#     4   9  19  39  66  87 118 179 216 248 329 387
#     4  10  24  36  70  98 126 168 230 262 314 394
#     4  11  25  42  65  96 137 168 220 269 330 379
#
# _framework density 19.576836
#
# number of rings (size 3 to 8) (size 9 to 14) (size 15 to 20)
#    0.000    1.818    3.636    1.091    2.545    2.909 
#    0.000    0.000   16.000    0.000    0.000    0.000 
#    0.000    0.000    0.000    0.000    0.000    0.000 
#
# Total GULP energy -122736.887206 kJ/mol
# GULP energy per Si atom -5578.949418 kJ/mol
# Density = 1.953228 g / cm^3
# Si number density = 19.576836 Si / 1000 Ang^3
#
#
#
# Elastic Constant Matrix: (Units=GPa)
#
#
# Indices 1 2 3 4 5 6 
#
# 1 62.6776 17.3042 45.7238 -0.0001 0.0001 0.0000
# 2 17.3042 66.5001 34.8025 -0.0001 0.0001 0.0001
# 3 45.7238 34.8025 108.8942 -0.0008 0.0009 0.0002
# 4 -0.0001 -0.0001 -0.0008 20.7050 0.0004 0.0001
# 5 0.0001 0.0001 0.0009 0.0004 17.2073 -0.0001
# 6 0.0000 0.0001 0.0002 0.0001 -0.0001 23.1449
#
#
#
# Elastic Compliance Matrix: (Units=1/GPa)
#
#
# Indices 1 2 3 4 5 6 
#
# 1 0.023069 -0.001121 -0.009328 0.000000 0.000000 0.000000
# 2 -0.001121 0.018112 -0.005318 0.000000 0.000000 0.000000
# 3 -0.009328 -0.005318 0.014800 0.000000 -0.000001 0.000000
# 4 0.000000 0.000000 0.000000 0.048297 -0.000001 0.000000
# 5 0.000000 0.000000 -0.000001 -0.000001 0.058115 0.000000
# 6 0.000000 0.000000 0.000000 0.000000 0.000000 0.043206
#
#
# Mechanical properties :
#
#
# Convention : Reuss Voigt Hill
#
# Bulk Modulus (GPa) = 40.90523 48.19254 44.54889
# Shear Modulus (GPa) = 20.38459 21.56088 20.97273
#
# Velocity S-wave (km/s) = 3.23036 3.32225 3.27663
# Velocity P-wave (km/s) = 5.90370 6.27591 6.09265
#
# Compressibility (1/GPa) = 0.02444675
#
# Stress axis : x y z
#
# Youngs Moduli (GPa) = 43.34773 55.21070 67.56871
#
# Poissons Ratio (x) = 0.06189 0.63030
# Poissons Ratio (y) = 0.04859 0.35933
# Poissons Ratio (z) = 0.40436 0.29361
#
# Static dielectric constant tensor:
#      x y z
#    x 1.715630 0.000000 0.000000 
#    y 0.000000 1.706690 0.000000 
#    z 0.000000 0.000000 1.675830 
# 
# From -- ./inp_files/3207.got.cif
#   From: 2010.05.17/outbox.cif.g08.bks.cpg/sg43_2_cif.got.tgz:3207.got - 2010.06.03 19:21:55.
