data_PCOD9370928
_publ_section_title
;
Structure prediction by ZEFSAII (Michael W. Deem and Ramdas Pophale) SiO2 
 PCOD9370928
Probable space group: F D D 2
;
_chemical_formula_sum "Si O2"
_cell_formula_units_Z 112
_cell_length_a 14.166494
_cell_length_b 25.972821
_cell_length_c 11.995346
_cell_angle_alpha 90.000000
_cell_angle_beta 90.000000
_cell_angle_gamma 90.000000
_cell_volume 4413.613344
_symmetry_space_group_name_H-M "F D D 2"
_symmetry_group_IT_number 43
_symmetry_cell_setting 'orthorhombic'
loop_
_space_group_symop_operation_xyz
x,y,z
-x,-y,z
1/4-x,1/4+y,1/4+z
1/4+x,1/4-y,1/4+z
x,1/2+y,1/2+z
-x,1/2-y,1/2+z
1/4-x,3/4+y,3/4+z
1/4+x,3/4-y,3/4+z
1/2+x,y,1/2+z
1/2-x,-y,1/2+z
3/4-x,1/4+y,3/4+z
3/4+x,1/4-y,3/4+z
1/2+x,1/2+y,z
1/2-x,1/2-y,z
3/4-x,3/4+y,1/4+z
3/4+x,3/4-y,1/4+z
loop_
_atom_site_type_symbol
_atom_site_label
_atom_site_fract_x
_atom_site_fract_y
_atom_site_fract_z
Si Si1 0.413410 0.081994 0.043080
Si Si2 0.932766 0.654246 0.538570
Si Si3 0.045546 0.806795 0.544959
Si Si4 0.902472 0.004503 0.351423
Si Si5 0.693489 0.556861 0.050024
Si Si6 0.415969 0.038413 0.526131
Si Si7 0.361808 0.298565 0.020889
O O1 0.445685 0.136679 0.995548
O O2 0.299896 0.077381 0.053274
O O3 0.448293 0.070410 0.168764
O O4 0.433382 0.036937 0.957971
O O5 0.886058 0.696967 0.617204
O O6 0.899062 0.668484 0.411462
O O7 0.914974 0.595867 0.572471
O O8 0.043523 0.667611 0.536208
O O9 0.086558 0.816146 0.671800
O O10 0.104156 0.759590 0.494205
O O11 0.938150 0.785904 0.554616
O O12 0.000000 0.000000 0.283939
O O13 0.677528 0.494981 0.053844
O O14 0.430540 0.047366 0.393422
O O15 0.500000 0.000000 0.556379
#
# Coordination Sequence:
#
# PCOD9370928 Si02
#       7
#    16  16  16  16  16  16  16
#     4  10  20  42  69  92 136 177 220 281 329 400
#     4  10  22  43  65  87 136 175 216 286 331 406
#     4   9  19  41  69  98 131 167 222 284 337 396
#     4  10  23  46  61  97 135 179 228 265 338 421
#     4   9  21  39  64  98 127 170 226 277 341 405
#     4  11  24  38  64 101 130 168 228 281 349 409
#     4   9  21  39  65  99 128 169 224 276 344 391
#
# _framework density 25.376034000000001
#
# number of rings (size 3 to 8) (size 9 to 14) (size 15 to 20)
#    0.000    2.286    0.000    1.714   10.000    1.143 
#   12.857    2.857    0.000    0.000    0.000    0.000 
#    0.000    0.000    0.000    0.000    0.000    0.000 
#
# Total GULP energy -156430.706920 kJ/mol
# GULP energy per Si atom -5586.810961 kJ/mol
# Density = 2.531828 g / cm^3
# Si number density = 25.376034 Si / 1000 Ang^3
#
#
#
# Elastic Constant Matrix: (Units=GPa)
#
#
# Indices 1 2 3 4 5 6 
#
# 1 81.4157 65.1044 -8.6481 0.0000 0.0000 0.0000
# 2 65.1044 274.3353 27.9216 0.0000 0.0000 0.0000
# 3 -8.6481 27.9216 72.0861 0.0000 0.0000 0.0000
# 4 0.0000 0.0000 0.0000 23.6660 0.0000 0.0000
# 5 0.0000 0.0000 0.0000 0.0000 4.8821 0.0000
# 6 0.0000 0.0000 0.0000 0.0000 0.0000 31.2394
#
#
#
# Elastic Compliance Matrix: (Units=1/GPa)
#
#
# Indices 1 2 3 4 5 6 
#
# 1 0.015975 -0.004150 0.003524 0.000000 0.000000 0.000000
# 2 -0.004150 0.004873 -0.002385 0.000000 0.000000 0.000000
# 3 0.003524 -0.002385 0.015219 0.000000 0.000000 0.000000
# 4 0.000000 0.000000 0.000000 0.042255 0.000000 0.000000
# 5 0.000000 0.000000 0.000000 0.000000 0.204831 0.000000
# 6 0.000000 0.000000 0.000000 0.000000 0.000000 0.032011
#
#
# Mechanical properties :
#
#
# Convention : Reuss Voigt Hill
#
# Bulk Modulus (GPa) = 33.28362 66.28809 49.78586
# Shear Modulus (GPa) = 15.09658 34.85477 24.97568
#
# Velocity S-wave (km/s) = 2.44173 3.71014 3.14064
# Velocity P-wave (km/s) = 4.59283 6.67327 5.72829
#
# Compressibility (1/GPa) = 0.03004481
#
# Stress axis : x y z
#
# Youngs Moduli (GPa) = 62.59600 205.22133 65.70746
#
# Poissons Ratio (x) = 0.85165 -0.23155
# Poissons Ratio (y) = 0.25977 0.15673
# Poissons Ratio (z) = -0.22059 0.48951
#
# Static dielectric constant tensor:
#      x y z
#    x 2.085150 0.000000 0.000000 
#    y 0.000000 2.047860 0.000000 
#    z 0.000000 0.000000 2.109710 
# 
# From -- ./inp_files/10170.got.cif
#   From: 2010.05.17/outbox.cif.g08.bks.cpg/sg43_6_cif.got.tgz:10170.got - 2010.06.03 19:21:55.
