data_PCOD9370279
_publ_section_title
;
Structure prediction by ZEFSAII (Michael W. Deem and Ramdas Pophale) SiO2 
 PCOD9370279
Probable space group: F D D 2
;
_chemical_formula_sum "Si O2"
_cell_formula_units_Z 104
_cell_length_a 18.418322
_cell_length_b 21.210276
_cell_length_c 14.230678
_cell_angle_alpha 90.000000
_cell_angle_beta 90.000000
_cell_angle_gamma 90.000000
_cell_volume 5559.323838
_symmetry_space_group_name_H-M "F D D 2"
_symmetry_group_IT_number 43
_symmetry_cell_setting 'orthorhombic'
loop_
_space_group_symop_operation_xyz
x,y,z
-x,-y,z
1/4-x,1/4+y,1/4+z
1/4+x,1/4-y,1/4+z
x,1/2+y,1/2+z
-x,1/2-y,1/2+z
1/4-x,3/4+y,3/4+z
1/4+x,3/4-y,3/4+z
1/2+x,y,1/2+z
1/2-x,-y,1/2+z
3/4-x,1/4+y,3/4+z
3/4+x,1/4-y,3/4+z
1/2+x,1/2+y,z
1/2-x,1/2-y,z
3/4-x,3/4+y,1/4+z
3/4+x,3/4-y,1/4+z
loop_
_atom_site_type_symbol
_atom_site_label
_atom_site_fract_x
_atom_site_fract_y
_atom_site_fract_z
Si Si1 0.598644 0.727943 0.054630
Si Si2 0.500000 0.500000 0.203808
Si Si3 0.836383 0.808886 0.620043
Si Si4 0.000000 0.500000 0.023621
Si Si5 0.000000 0.500000 0.401664
Si Si6 0.212811 0.038063 0.417497
Si Si7 0.354766 0.451144 0.615156
Si Si8 0.776590 0.649157 0.310067
O O1 0.678064 0.745940 0.089203
O O2 0.539262 0.742066 0.135781
O O3 0.588708 0.652445 0.039212
O O4 0.579236 0.764939 0.959739
O O5 0.451000 0.542521 0.271652
O O6 0.455215 0.452700 0.136889
O O7 0.775181 0.804216 0.701168
O O8 0.896120 0.755265 0.636732
O O9 0.869804 0.877453 0.627367
O O10 0.930037 0.482971 0.083602
O O11 0.997073 0.438261 0.468936
O O12 0.202315 0.045410 0.528899
O O13 0.215529 0.104129 0.359334
#
# Coordination Sequence:
#
# PCOD9370279 Si02
#       8
#    16   8  16   8   8  16  16  16
#     4  10  24  43  64 100 128 176 219 268 348 396
#     4  10  18  40  68  94 124 170 220 282 316 386
#     4  10  20  36  64  91 127 165 214 277 321 379
#     4   9  23  35  59  94 116 172 212 252 328 376
#     4  11  23  45  65  98 136 178 224 280 340 420
#     4   9  22  42  59  99 124 171 226 258 337 395
#     4  11  21  43  63  92 136 168 218 278 324 403
#     4   9  22  42  62  95 130 170 226 267 338 390
#
# _framework density 18.70731
#
# number of rings (size 3 to 8) (size 9 to 14) (size 15 to 20)
#    0.923    1.231    1.538    0.462    4.308    2.462 
#   13.846    0.000    0.000    0.000    0.000    0.000 
#    0.000    0.000    0.000    0.000    0.000    0.000 
#
# Total GULP energy -144754.618546 kJ/mol
# GULP energy per Si atom -5567.485329 kJ/mol
# Density = 1.866473 g / cm^3
# Si number density = 18.707310 Si / 1000 Ang^3
#
#
#
# Elastic Constant Matrix: (Units=GPa)
#
#
# Indices 1 2 3 4 5 6 
#
# 1 60.2788 7.9921 25.2927 0.0000 0.0000 0.0000
# 2 7.9921 98.5419 47.4116 0.0000 0.0000 0.0000
# 3 25.2927 47.4116 92.1870 0.0000 0.0000 0.0000
# 4 0.0000 0.0000 0.0000 16.8093 0.0000 0.0000
# 5 0.0000 0.0000 0.0000 0.0000 20.8015 0.0000
# 6 0.0000 0.0000 0.0000 0.0000 0.0000 23.4541
#
#
#
# Elastic Compliance Matrix: (Units=1/GPa)
#
#
# Indices 1 2 3 4 5 6 
#
# 1 0.018868 0.001276 -0.005833 0.000000 0.000000 0.000000
# 2 0.001276 0.013571 -0.007330 0.000000 0.000000 0.000000
# 3 -0.005833 -0.007330 0.016218 0.000000 0.000000 0.000000
# 4 0.000000 0.000000 0.000000 0.059491 0.000000 0.000000
# 5 0.000000 0.000000 0.000000 0.000000 0.048074 0.000000
# 6 0.000000 0.000000 0.000000 0.000000 0.000000 0.042636
#
#
# Mechanical properties :
#
#
# Convention : Reuss Voigt Hill
#
# Bulk Modulus (GPa) = 40.18740 45.82229 43.00485
# Shear Modulus (GPa) = 21.65208 23.56706 22.60957
#
# Velocity S-wave (km/s) = 3.40577 3.55319 3.48026
# Velocity P-wave (km/s) = 6.08231 6.43281 6.26001
#
# Compressibility (1/GPa) = 0.02488342
#
# Stress axis : x y z
#
# Youngs Moduli (GPa) = 53.00009 73.68650 61.66168
#
# Poissons Ratio (x) = -0.09404 0.35967
# Poissons Ratio (y) = -0.06764 0.45196
# Poissons Ratio (z) = 0.30915 0.54010
#
# Static dielectric constant tensor:
#      x y z
#    x 1.628930 0.000000 0.000000 
#    y 0.000000 1.645720 0.000000 
#    z 0.000000 0.000000 1.655870 
# 
# From -- ./inp_files/10657.got.cif
#   From: 2010.05.17/outbox.cif.g08.bks.cpg/sg43_6_cif.got.tgz:10657.got - 2010.06.03 19:21:55.
