data_PCOD9370547
_publ_section_title
;
Structure prediction by ZEFSAII (Michael W. Deem and Ramdas Pophale) SiO2 
 PCOD9370547
Probable space group: F D D 2
;
_chemical_formula_sum "Si O2"
_cell_formula_units_Z 96
_cell_length_a 33.068758
_cell_length_b 9.860955
_cell_length_c 15.381668
_cell_angle_alpha 90.000000
_cell_angle_beta 90.000000
_cell_angle_gamma 90.000000
_cell_volume 5015.800959
_symmetry_space_group_name_H-M "F D D 2"
_symmetry_group_IT_number 43
_symmetry_cell_setting 'orthorhombic'
loop_
_space_group_symop_operation_xyz
x,y,z
-x,-y,z
1/4-x,1/4+y,1/4+z
1/4+x,1/4-y,1/4+z
x,1/2+y,1/2+z
-x,1/2-y,1/2+z
1/4-x,3/4+y,3/4+z
1/4+x,3/4-y,3/4+z
1/2+x,y,1/2+z
1/2-x,-y,1/2+z
3/4-x,1/4+y,3/4+z
3/4+x,1/4-y,3/4+z
1/2+x,1/2+y,z
1/2-x,1/2-y,z
3/4-x,3/4+y,1/4+z
3/4+x,3/4-y,1/4+z
loop_
_atom_site_type_symbol
_atom_site_label
_atom_site_fract_x
_atom_site_fract_y
_atom_site_fract_z
Si Si1 0.086810 0.015097 0.190070
Si Si2 0.500000 0.500000 0.123542
Si Si3 0.645552 0.495425 0.331343
Si Si4 0.042777 0.869641 0.972087
Si Si5 0.585809 0.048820 0.238752
Si Si6 0.000000 0.000000 0.818881
Si Si7 0.382934 0.454417 0.921246
O O1 0.039048 0.031747 0.179852
O O2 0.100276 0.892061 0.127478
O O3 0.102230 0.980292 0.286522
O O4 0.108241 0.155526 0.164870
O O5 0.513615 0.384969 0.054897
O O6 0.677228 0.498890 0.249815
O O7 0.656065 0.387810 0.404302
O O8 0.073728 0.998991 0.961612
O O9 0.016590 0.881674 0.884455
O O10 0.538414 0.039799 0.261178
O O11 0.606245 0.902240 0.223444
O O12 0.607236 0.103583 0.325964
#
# Coordination Sequence:
#
# PCOD9370547 Si02
#       7
#    16   8  16  16  16   8  16
#     4  10  20  36  57  78 106 148 185 219 266 331
#     4   9  16  30  56  83 100 128 184 233 254 294
#     4  10  20  35  55  81 112 144 176 220 276 327
#     4   8  17  35  55  77 106 143 182 219 262 323
#     4  11  21  35  56  84 111 140 180 231 275 315
#     4   9  20  36  56  81 108 144 188 225 264 322
#     4  10  20  36  57  78 107 148 185 216 268 337
#
# _framework density 19.139514999999999
#
# number of rings (size 3 to 8) (size 9 to 14) (size 15 to 20)
#    0.000    2.333    0.000    4.000    0.000    2.667 
#    0.000    0.000    0.000    6.000    0.000    0.000 
#    0.000    0.000    0.000    0.000    0.000    0.000 
#
# Total GULP energy -133675.667642 kJ/mol
# GULP energy per Si atom -5569.819485 kJ/mol
# Density = 1.909595 g / cm^3
# Si number density = 19.139515 Si / 1000 Ang^3
#
#
#
# Elastic Constant Matrix: (Units=GPa)
#
#
# Indices 1 2 3 4 5 6 
#
# 1 155.3024 22.7028 71.9210 0.0000 0.0000 0.0000
# 2 22.7028 49.7305 30.2895 0.0000 0.0000 0.0000
# 3 71.9210 30.2895 115.6971 0.0000 0.0000 0.0000
# 4 0.0000 0.0000 0.0000 31.3131 0.0000 0.0000
# 5 0.0000 0.0000 0.0000 0.0000 46.7397 0.0000
# 6 0.0000 0.0000 0.0000 0.0000 0.0000 11.8389
#
#
#
# Elastic Compliance Matrix: (Units=1/GPa)
#
#
# Indices 1 2 3 4 5 6 
#
# 1 0.009072 -0.000841 -0.005419 0.000000 0.000000 0.000000
# 2 -0.000841 0.024001 -0.005761 0.000000 0.000000 0.000000
# 3 -0.005419 -0.005761 0.013520 0.000000 0.000000 0.000000
# 4 0.000000 0.000000 0.000000 0.031936 0.000000 0.000000
# 5 0.000000 0.000000 0.000000 0.000000 0.021395 0.000000
# 6 0.000000 0.000000 0.000000 0.000000 0.000000 0.084467
#
#
# Mechanical properties :
#
#
# Convention : Reuss Voigt Hill
#
# Bulk Modulus (GPa) = 44.34316 63.39517 53.86916
# Shear Modulus (GPa) = 23.15365 31.03280 27.09322
#
# Velocity S-wave (km/s) = 3.48189 4.03103 3.76648
# Velocity P-wave (km/s) = 6.27562 7.40676 6.86453
#
# Compressibility (1/GPa) = 0.02255139
#
# Stress axis : x y z
#
# Youngs Moduli (GPa) = 110.23496 41.66500 73.96396
#
# Poissons Ratio (x) = 0.03503 0.40081
# Poissons Ratio (y) = 0.09268 0.42609
# Poissons Ratio (z) = 0.59737 0.24003
#
# Static dielectric constant tensor:
#      x y z
#    x 1.697880 0.000000 0.000000 
#    y 0.000000 1.674760 0.000000 
#    z 0.000000 0.000000 1.721710 
# 
# From -- ./inp_files/9747.got.cif
#   From: 2010.05.17/outbox.cif.g08.bks.cpg/sg43_5_cif.got.tgz:9747.got - 2010.06.03 19:21:55.
