data_PCOD9370766
_publ_section_title
;
Structure prediction by ZEFSAII (Michael W. Deem and Ramdas Pophale) SiO2 
 PCOD9370766
Probable space group: F D D 2
;
_chemical_formula_sum "Si O2"
_cell_formula_units_Z 88
_cell_length_a 7.853555
_cell_length_b 31.419514
_cell_length_c 17.344864
_cell_angle_alpha 90.000000
_cell_angle_beta 90.000000
_cell_angle_gamma 90.000000
_cell_volume 4279.929857
_symmetry_space_group_name_H-M "F D D 2"
_symmetry_group_IT_number 43
_symmetry_cell_setting 'orthorhombic'
loop_
_space_group_symop_operation_xyz
x,y,z
-x,-y,z
1/4-x,1/4+y,1/4+z
1/4+x,1/4-y,1/4+z
x,1/2+y,1/2+z
-x,1/2-y,1/2+z
1/4-x,3/4+y,3/4+z
1/4+x,3/4-y,3/4+z
1/2+x,y,1/2+z
1/2-x,-y,1/2+z
3/4-x,1/4+y,3/4+z
3/4+x,1/4-y,3/4+z
1/2+x,1/2+y,z
1/2-x,1/2-y,z
3/4-x,3/4+y,1/4+z
3/4+x,3/4-y,1/4+z
loop_
_atom_site_type_symbol
_atom_site_label
_atom_site_fract_x
_atom_site_fract_y
_atom_site_fract_z
Si Si1 0.646222 0.025806 0.184270
Si Si2 0.372645 0.195465 0.404443
Si Si3 0.799322 0.831633 0.823800
Si Si4 0.085798 0.720811 0.185793
Si Si5 0.250000 0.750000 0.770393
Si Si6 0.895963 0.331117 0.031126
O O1 0.563858 0.042411 0.105212
O O2 0.699249 0.068439 0.225788
O O3 0.500000 0.000000 0.228051
O O4 0.795881 0.991506 0.176441
O O5 0.535638 0.166821 0.380297
O O6 0.262405 0.208648 0.328171
O O7 0.267022 0.175920 0.475336
O O8 0.880179 0.818742 0.742516
O O9 0.681555 0.872560 0.814664
O O10 0.250000 0.750000 0.192514
O O11 0.087912 0.703004 0.099449
O O12 0.917202 0.744877 0.216966
#
# Coordination Sequence:
#
# PCOD9370766 Si02
#       6
#    16  16  16  16   8  16
#     4  10  20  39  69  88 125 181 228 263 338 430
#     4  10  20  42  69  92 127 190 228 259 351 435
#     4  10  23  43  63  97 135 179 217 284 350 413
#     4  11  24  42  66 100 131 168 232 284 334 397
#     4  10  20  42  68  92 126 174 226 276 330 418
#     4  12  23  41  65 101 135 167 231 291 339 398
#
# _framework density 20.561084999999999
#
# number of rings (size 3 to 8) (size 9 to 14) (size 15 to 20)
#    0.000    1.455    1.818    4.909    1.273    0.000 
#    6.545    5.455    0.000    0.000    0.000    0.000 
#    0.000    0.000    0.000    0.000    0.000    0.000 
#
# Total GULP energy -122591.401648 kJ/mol
# GULP energy per Si atom -5572.336439 kJ/mol
# Density = 2.051429 g / cm^3
# Si number density = 20.561085 Si / 1000 Ang^3
#
#
#
# Elastic Constant Matrix: (Units=GPa)
#
#
# Indices 1 2 3 4 5 6 
#
# 1 136.5212 64.1732 58.9231 0.0000 0.0000 0.0000
# 2 64.1732 101.2058 37.0851 0.0000 0.0000 0.0000
# 3 58.9231 37.0851 116.1686 0.0000 0.0000 0.0000
# 4 0.0000 0.0000 0.0000 23.5256 0.0000 0.0000
# 5 0.0000 0.0000 0.0000 0.0000 12.8561 0.0000
# 6 0.0000 0.0000 0.0000 0.0000 0.0000 29.7981
#
#
#
# Elastic Compliance Matrix: (Units=1/GPa)
#
#
# Indices 1 2 3 4 5 6 
#
# 1 0.011961 -0.006071 -0.004129 0.000000 0.000000 0.000000
# 2 -0.006071 0.014272 -0.001477 0.000000 0.000000 0.000000
# 3 -0.004129 -0.001477 0.011174 0.000000 0.000000 0.000000
# 4 0.000000 0.000000 0.000000 0.042507 0.000000 0.000000
# 5 0.000000 0.000000 0.000000 0.000000 0.077784 0.000000
# 6 0.000000 0.000000 0.000000 0.000000 0.000000 0.033559
#
#
# Mechanical properties :
#
#
# Convention : Reuss Voigt Hill
#
# Bulk Modulus (GPa) = 71.15799 74.91761 73.03780
# Shear Modulus (GPa) = 22.80057 26.15024 24.47540
#
# Velocity S-wave (km/s) = 3.33366 3.57014 3.45392
# Velocity P-wave (km/s) = 7.03569 7.31507 7.17674
#
# Compressibility (1/GPa) = 0.01405323
#
# Stress axis : x y z
#
# Youngs Moduli (GPa) = 83.60781 70.06922 89.49656
#
# Poissons Ratio (x) = 0.42541 0.36949
# Poissons Ratio (y) = 0.50760 0.13214
# Poissons Ratio (z) = 0.34518 0.10346
#
# Static dielectric constant tensor:
#      x y z
#    x 1.797510 0.000000 0.000000 
#    y 0.000000 1.723210 0.000000 
#    z 0.000000 0.000000 1.774000 
# 
# From -- ./inp_files/12879.got.cif
#   From: 2010.05.17/outbox.cif.g08.bks.cpg/sg43_7_cif.got.tgz:12879.got - 2010.06.03 19:21:55.
