data_PCOD9370173
_publ_section_title
;
Structure prediction by ZEFSAII (Michael W. Deem and Ramdas Pophale) SiO2 
 PCOD9370173
Probable space group: F D D 2
;
_chemical_formula_sum "Si O2"
_cell_formula_units_Z 96
_cell_length_a 20.360616
_cell_length_b 19.777106
_cell_length_c 9.530164
_cell_angle_alpha 90.000000
_cell_angle_beta 90.000000
_cell_angle_gamma 90.000000
_cell_volume 3837.549839
_symmetry_space_group_name_H-M "F D D 2"
_symmetry_group_IT_number 43
_symmetry_cell_setting 'orthorhombic'
loop_
_space_group_symop_operation_xyz
x,y,z
-x,-y,z
1/4-x,1/4+y,1/4+z
1/4+x,1/4-y,1/4+z
x,1/2+y,1/2+z
-x,1/2-y,1/2+z
1/4-x,3/4+y,3/4+z
1/4+x,3/4-y,3/4+z
1/2+x,y,1/2+z
1/2-x,-y,1/2+z
3/4-x,1/4+y,3/4+z
3/4+x,1/4-y,3/4+z
1/2+x,1/2+y,z
1/2-x,1/2-y,z
3/4-x,3/4+y,1/4+z
3/4+x,3/4-y,1/4+z
loop_
_atom_site_type_symbol
_atom_site_label
_atom_site_fract_x
_atom_site_fract_y
_atom_site_fract_z
Si Si1 0.360700 0.065959 0.839220
Si Si2 0.311655 0.519458 0.894752
Si Si3 0.039180 0.946218 0.948951
Si Si4 0.742685 0.841441 0.481930
Si Si5 0.724548 0.539706 0.153683
Si Si6 0.182178 0.286871 0.762920
O O1 0.432107 0.079485 0.770991
O O2 0.333190 0.143603 0.848166
O O3 0.321014 0.016553 0.732400
O O4 0.377828 0.021371 0.978404
O O5 0.386770 0.526936 0.936229
O O6 0.272585 0.581206 0.963789
O O7 0.279434 0.460255 0.985007
O O8 0.293206 0.523716 0.732332
O O9 0.048323 0.865891 0.932490
O O10 0.985884 0.940534 0.078865
O O11 0.000000 0.000000 0.853852
O O12 0.697410 0.813901 0.604417
O O13 0.250000 0.250000 0.804033
#
# Coordination Sequence:
#
# PCOD9370173 Si02
#       6
#    16  16  16  16  16  16
#     4  11  19  36  60  99 137 177 224 301 369 427
#     4  11  23  41  67 106 140 184 243 294 373 429
#     4  11  23  39  69  99 139 188 243 301 358 441
#     4  10  18  33  62  99 129 167 227 302 349 417
#     4  11  24  40  71 102 144 185 236 307 360 446
#     4  10  20  31  58  93 135 171 231 292 362 419
#
# _framework density 25.01596
#
# number of rings (size 3 to 8) (size 9 to 14) (size 15 to 20)
#    0.000    1.333    3.333    4.500    4.667    0.000 
#    0.000    1.667    3.667    1.000    0.000    1.167 
#    0.000    0.000    0.000    0.000    0.000    0.000 
#
# Total GULP energy -133674.936154 kJ/mol
# GULP energy per Si atom -5569.789006 kJ/mol
# Density = 2.495902 g / cm^3
# Si number density = 25.015960 Si / 1000 Ang^3
#
#
#
# Elastic Constant Matrix: (Units=GPa)
#
#
# Indices 1 2 3 4 5 6 
#
# 1 97.6505 51.0927 43.9386 0.0000 0.0000 0.0000
# 2 51.0927 141.6228 5.8665 0.0000 0.0000 0.0000
# 3 43.9386 5.8665 102.5160 0.0000 0.0000 0.0000
# 4 0.0000 0.0000 0.0000 4.3344 0.0000 0.0000
# 5 0.0000 0.0000 0.0000 0.0000 7.6561 0.0000
# 6 0.0000 0.0000 0.0000 0.0000 0.0000 39.4803
#
#
#
# Elastic Compliance Matrix: (Units=1/GPa)
#
#
# Indices 1 2 3 4 5 6 
#
# 1 0.016099 -0.005535 -0.006583 0.000000 0.000000 0.000000
# 2 -0.005535 0.008981 0.001858 0.000000 0.000000 0.000000
# 3 -0.006583 0.001858 0.012470 0.000000 0.000000 0.000000
# 4 0.000000 0.000000 0.000000 0.230713 0.000000 0.000000
# 5 0.000000 0.000000 0.000000 0.000000 0.130614 0.000000
# 6 0.000000 0.000000 0.000000 0.000000 0.000000 0.025329
#
#
# Mechanical properties :
#
#
# Convention : Reuss Voigt Hill
#
# Bulk Modulus (GPa) = 58.72119 60.39831 59.55975
# Shear Modulus (GPa) = 11.10117 26.35360 18.72738
#
# Velocity S-wave (km/s) = 2.10885 3.24924 2.73906
# Velocity P-wave (km/s) = 5.42717 6.18653 5.81925
#
# Compressibility (1/GPa) = 0.01702963
#
# Stress axis : x y z
#
# Youngs Moduli (GPa) = 62.11588 111.34675 80.19356
#
# Poissons Ratio (x) = 0.61633 0.52794
# Poissons Ratio (y) = 0.34383 -0.14904
# Poissons Ratio (z) = 0.40893 -0.20694
#
# Static dielectric constant tensor:
#      x y z
#    x 1.967980 0.000000 0.000000 
#    y 0.000000 3.884540 0.000000 
#    z 0.000000 0.000000 2.169000 
# 
# From -- ./inp_files/7100.got.cif
#   From: 2010.05.17/outbox.cif.g08.bks.cpg/sg43_4_cif.got.tgz:7100.got - 2010.06.03 19:21:55.
