data_PCOD9370129
_publ_section_title
;
Structure prediction by ZEFSAII (Michael W. Deem and Ramdas Pophale) SiO2 
 PCOD9370129
Probable space group: F D D 2
;
_chemical_formula_sum "Si O2"
_cell_formula_units_Z 104
_cell_length_a 8.182412
_cell_length_b 31.589692
_cell_length_c 20.447385
_cell_angle_alpha 90.000000
_cell_angle_beta 90.000000
_cell_angle_gamma 90.000000
_cell_volume 5285.237517
_symmetry_space_group_name_H-M "F D D 2"
_symmetry_group_IT_number 43
_symmetry_cell_setting 'orthorhombic'
loop_
_space_group_symop_operation_xyz
x,y,z
-x,-y,z
1/4-x,1/4+y,1/4+z
1/4+x,1/4-y,1/4+z
x,1/2+y,1/2+z
-x,1/2-y,1/2+z
1/4-x,3/4+y,3/4+z
1/4+x,3/4-y,3/4+z
1/2+x,y,1/2+z
1/2-x,-y,1/2+z
3/4-x,1/4+y,3/4+z
3/4+x,1/4-y,3/4+z
1/2+x,1/2+y,z
1/2-x,1/2-y,z
3/4-x,3/4+y,1/4+z
3/4+x,3/4-y,1/4+z
loop_
_atom_site_type_symbol
_atom_site_label
_atom_site_fract_x
_atom_site_fract_y
_atom_site_fract_z
Si Si1 0.909679 0.077097 0.907260
Si Si2 0.593536 0.277204 0.213373
Si Si3 0.250000 0.250000 0.064584
Si Si4 0.645090 0.286527 0.767890
Si Si5 0.036376 0.669660 0.383549
Si Si6 0.890734 0.957472 0.615911
Si Si7 0.440273 0.748454 0.968746
O O1 0.719523 0.064819 0.917805
O O2 0.978539 0.042674 0.856656
O O3 0.954951 0.124140 0.887704
O O4 0.992636 0.068524 0.978186
O O5 0.750000 0.250000 0.194356
O O6 0.452058 0.241772 0.215640
O O7 0.607748 0.293417 0.288415
O O8 0.416519 0.245623 0.022188
O O9 0.750000 0.250000 0.804162
O O10 0.519702 0.308997 0.815467
O O11 0.234160 0.670413 0.386016
O O12 0.970664 0.701820 0.438290
O O13 0.736670 0.966529 0.662471
O O14 0.000000 0.000000 0.625568
O O15 0.250000 0.750000 0.988980
#
# Coordination Sequence:
#
# PCOD9370129 Si02
#       7
#    16  16   8  16  16  16  16
#     4  11  26  39  64  95 138 175 213 282 345 392
#     4  10  17  38  67  91 118 171 230 264 324 407
#     4  12  24  48  58  92 144 186 208 264 358 404
#     4  10  19  38  66  89 117 170 222 261 326 398
#     4  11  21  40  65  99 129 165 225 286 323 391
#     4   9  17  36  67  95 120 163 219 276 317 390
#     4  11  23  41  69  93 129 178 221 266 337 408
#
# _framework density 19.677451000000001
#
# number of rings (size 3 to 8) (size 9 to 14) (size 15 to 20)
#    0.000    1.538    9.231    0.462    4.308    0.615 
#    2.769    1.538    0.000    0.000    0.000    0.000 
#    0.000    0.000    0.000    0.000    0.000    0.000 
#
# Total GULP energy -144882.498194 kJ/mol
# GULP energy per Si atom -5572.403777 kJ/mol
# Density = 1.963266 g / cm^3
# Si number density = 19.677451 Si / 1000 Ang^3
#
#
#
# Elastic Constant Matrix: (Units=GPa)
#
#
# Indices 1 2 3 4 5 6 
#
# 1 134.8442 34.1117 32.9767 0.0000 0.0000 0.0000
# 2 34.1117 107.9528 28.9873 0.0000 0.0000 0.0000
# 3 32.9767 28.9873 58.4665 0.0000 0.0000 0.0000
# 4 0.0000 0.0000 0.0000 15.5894 0.0000 0.0000
# 5 0.0000 0.0000 0.0000 0.0000 37.4104 0.0000
# 6 0.0000 0.0000 0.0000 0.0000 0.0000 28.6856
#
#
#
# Elastic Compliance Matrix: (Units=1/GPa)
#
#
# Indices 1 2 3 4 5 6 
#
# 1 0.008859 -0.001682 -0.004163 0.000000 0.000000 0.000000
# 2 -0.001682 0.011005 -0.004508 0.000000 0.000000 0.000000
# 3 -0.004163 -0.004508 0.021687 0.000000 0.000000 0.000000
# 4 0.000000 0.000000 0.000000 0.064146 0.000000 0.000000
# 5 0.000000 0.000000 0.000000 0.000000 0.026731 0.000000
# 6 0.000000 0.000000 0.000000 0.000000 0.000000 0.034861
#
#
# Mechanical properties :
#
#
# Convention : Reuss Voigt Hill
#
# Bulk Modulus (GPa) = 47.97030 54.82388 51.39709
# Shear Modulus (GPa) = 25.64852 30.01627 27.83239
#
# Velocity S-wave (km/s) = 3.61425 3.90989 3.76497
# Velocity P-wave (km/s) = 6.46902 6.95016 6.71390
#
# Compressibility (1/GPa) = 0.02084623
#
# Stress axis : x y z
#
# Youngs Moduli (GPa) = 112.87319 90.86704 46.11066
#
# Poissons Ratio (x) = 0.15280 0.19197
# Poissons Ratio (y) = 0.18980 0.20786
# Poissons Ratio (z) = 0.46992 0.40961
#
# Static dielectric constant tensor:
#      x y z
#    x 1.810100 0.000000 0.000000 
#    y 0.000000 1.678670 0.000000 
#    z 0.000000 0.000000 1.738260 
# 
# From -- ./inp_files/16537.got.cif
#   From: 2010.05.17/outbox.cif.g08.bks.cpg/sg43_9_cif.got.tgz:16537.got - 2010.06.03 19:21:55.
