data_PCOD9370950
_publ_section_title
;
Structure prediction by ZEFSAII (Michael W. Deem and Ramdas Pophale) SiO2 
 PCOD9370950
Probable space group: F D D 2
;
_chemical_formula_sum "Si O2"
_cell_formula_units_Z 104
_cell_length_a 6.859492
_cell_length_b 31.176984
_cell_length_c 20.593304
_cell_angle_alpha 90.000000
_cell_angle_beta 90.000000
_cell_angle_gamma 90.000000
_cell_volume 4404.048415
_symmetry_space_group_name_H-M "F D D 2"
_symmetry_group_IT_number 43
_symmetry_cell_setting 'orthorhombic'
loop_
_space_group_symop_operation_xyz
x,y,z
-x,-y,z
1/4-x,1/4+y,1/4+z
1/4+x,1/4-y,1/4+z
x,1/2+y,1/2+z
-x,1/2-y,1/2+z
1/4-x,3/4+y,3/4+z
1/4+x,3/4-y,3/4+z
1/2+x,y,1/2+z
1/2-x,-y,1/2+z
3/4-x,1/4+y,3/4+z
3/4+x,1/4-y,3/4+z
1/2+x,1/2+y,z
1/2-x,1/2-y,z
3/4-x,3/4+y,1/4+z
3/4+x,3/4-y,1/4+z
loop_
_atom_site_type_symbol
_atom_site_label
_atom_site_fract_x
_atom_site_fract_y
_atom_site_fract_z
Si Si1 0.200409 0.419570 0.450480
Si Si2 0.829792 0.051196 0.546947
Si Si3 0.883744 0.057462 0.401518
Si Si4 0.500000 0.500000 0.295823
Si Si5 0.097700 0.124959 0.871014
Si Si6 0.787553 0.538162 0.582180
Si Si7 0.809175 0.176261 0.946774
O O1 0.387581 0.439398 0.416884
O O2 0.129236 0.444016 0.514169
O O3 0.254248 0.370740 0.472419
O O4 0.040149 0.413368 0.394888
O O5 0.808082 0.041533 0.470962
O O6 0.791193 0.102216 0.554074
O O7 0.398865 0.274646 0.593216
O O8 0.712501 0.013614 0.583253
O O9 0.806326 0.104355 0.381027
O O10 0.398517 0.559331 0.142852
O O11 0.420294 0.462717 0.249745
O O12 0.305390 0.201525 0.822249
O O13 0.021080 0.163824 0.916887
#
# Coordination Sequence:
#
# PCOD9370950 Si02
#       7
#    16  16  16   8  16  16  16
#     4   9  23  41  71  98 133 184 229 293 353 432
#     4  10  22  41  70 102 134 185 238 295 350 426
#     4  11  24  45  70  99 143 184 240 292 361 425
#     4  12  26  44  70 104 144 194 228 308 368 416
#     4  10  24  40  69 105 130 186 234 284 358 437
#     4  10  20  43  67 101 137 180 235 288 353 426
#     4  10  24  40  67 103 139 186 231 295 363 424
#
# _framework density 23.614636999999998
#
# number of rings (size 3 to 8) (size 9 to 14) (size 15 to 20)
#    0.923    0.923    0.000    3.692    8.615    1.231 
#    0.000    2.308   10.154    0.000    0.000    0.000 
#    0.000    0.000    0.000    0.000    0.000    0.000 
#
# Total GULP energy -144980.325859 kJ/mol
# GULP energy per Si atom -5576.166379 kJ/mol
# Density = 2.356089 g / cm^3
# Si number density = 23.614637 Si / 1000 Ang^3
#
#
#
# Elastic Constant Matrix: (Units=GPa)
#
#
# Indices 1 2 3 4 5 6 
#
# 1 58.3905 22.8191 36.0185 0.0000 0.0000 0.0000
# 2 22.8191 128.3162 54.0147 0.0000 0.0000 0.0000
# 3 36.0185 54.0147 96.8131 0.0000 0.0000 0.0000
# 4 0.0000 0.0000 0.0000 56.0785 0.0000 0.0000
# 5 0.0000 0.0000 0.0000 0.0000 19.1725 0.0000
# 6 0.0000 0.0000 0.0000 0.0000 0.0000 38.0407
#
#
#
# Elastic Compliance Matrix: (Units=1/GPa)
#
#
# Indices 1 2 3 4 5 6 
#
# 1 0.022264 -0.000618 -0.007939 0.000000 0.000000 0.000000
# 2 -0.000618 0.010203 -0.005462 0.000000 0.000000 0.000000
# 3 -0.007939 -0.005462 0.016330 0.000000 0.000000 0.000000
# 4 0.000000 0.000000 0.000000 0.017832 0.000000 0.000000
# 5 0.000000 0.000000 0.000000 0.000000 0.052158 0.000000
# 6 0.000000 0.000000 0.000000 0.000000 0.000000 0.026288
#
#
# Mechanical properties :
#
#
# Convention : Reuss Voigt Hill
#
# Bulk Modulus (GPa) = 48.17019 56.58051 52.37535
# Shear Modulus (GPa) = 27.77272 34.03616 30.90444
#
# Velocity S-wave (km/s) = 3.43312 3.80059 3.62152
# Velocity P-wave (km/s) = 6.01314 6.57809 6.30195
#
# Compressibility (1/GPa) = 0.02075973
#
# Stress axis : x y z
#
# Youngs Moduli (GPa) = 44.91459 98.01505 61.23548
#
# Poissons Ratio (x) = 0.06053 0.48613
# Poissons Ratio (y) = 0.02774 0.33450
# Poissons Ratio (z) = 0.35657 0.53541
#
# Static dielectric constant tensor:
#      x y z
#    x 2.002340 0.000000 0.000000 
#    y 0.000000 1.951510 0.000000 
#    z 0.000000 0.000000 1.967410 
# 
# From -- ./inp_files/28016.got.cif
#   From: 2010.05.17/outbox.cif.g08.bks.cpg/sg43_15_cif.got.tgz:28016.got - 2010.06.03 19:21:55.
