data_PCOD9370450
_publ_section_title
;
Structure prediction by ZEFSAII (Michael W. Deem and Ramdas Pophale) SiO2 
 PCOD9370450
Probable space group: F D D 2
;
_chemical_formula_sum "Si O2"
_cell_formula_units_Z 64
_cell_length_a 17.120044
_cell_length_b 6.574723
_cell_length_c 24.857231
_cell_angle_alpha 90.000000
_cell_angle_beta 90.000000
_cell_angle_gamma 90.000000
_cell_volume 2797.918662
_symmetry_space_group_name_H-M "F D D 2"
_symmetry_group_IT_number 43
_symmetry_cell_setting 'orthorhombic'
loop_
_space_group_symop_operation_xyz
x,y,z
-x,-y,z
1/4-x,1/4+y,1/4+z
1/4+x,1/4-y,1/4+z
x,1/2+y,1/2+z
-x,1/2-y,1/2+z
1/4-x,3/4+y,3/4+z
1/4+x,3/4-y,3/4+z
1/2+x,y,1/2+z
1/2-x,-y,1/2+z
3/4-x,1/4+y,3/4+z
3/4+x,1/4-y,3/4+z
1/2+x,1/2+y,z
1/2-x,1/2-y,z
3/4-x,3/4+y,1/4+z
3/4+x,3/4-y,1/4+z
loop_
_atom_site_type_symbol
_atom_site_label
_atom_site_fract_x
_atom_site_fract_y
_atom_site_fract_z
Si Si1 0.502013 0.256329 0.057910
Si Si2 0.575152 0.127114 0.661712
Si Si3 0.814949 0.578033 0.200443
Si Si4 0.337043 0.751584 0.106740
O O1 0.500000 0.500000 0.053661
O O2 0.454562 0.227172 0.112934
O O3 0.635032 0.460471 0.135738
O O4 0.460078 0.202139 0.002827
O O5 0.610524 0.274076 0.706468
O O6 0.500000 0.000000 0.679830
O O7 0.658243 0.947609 0.816569
O O8 0.750000 0.750000 0.186833
O O9 0.829746 0.420589 0.153069
O O10 0.250000 0.750000 0.082232
#
# Coordination Sequence:
#
# PCOD9370450 Si02
#       4
#    16  16  16  16
#     4   8  20  39  61  94 133 172 220 270 333 384
#     4   9  20  40  63  91 132 175 210 280 325 387
#     4  11  20  38  65  93 134 176 218 273 330 387
#     4  10  19  38  66  92 132 175 216 276 332 388
#
# _framework density 22.874144999999999
#
# number of rings (size 3 to 8) (size 9 to 14) (size 15 to 20)
#    0.000    3.000    2.500    0.000    0.000    4.000 
#    4.500   11.250   11.000    0.000    0.000    0.000 
#    0.000    0.000    0.000    0.000    0.000    0.000 
#
# Total GULP energy -89183.477166 kJ/mol
# GULP energy per Si atom -5573.967323 kJ/mol
# Density = 2.282208 g / cm^3
# Si number density = 22.874145 Si / 1000 Ang^3
#
#
#
# Elastic Constant Matrix: (Units=GPa)
#
#
# Indices 1 2 3 4 5 6 
#
# 1 177.1723 58.2897 70.4192 0.0000 0.0000 -0.0001
# 2 58.2897 83.3854 32.1647 -0.0001 0.0000 -0.0002
# 3 70.4192 32.1647 94.0890 0.0000 0.0000 0.0000
# 4 0.0000 -0.0001 0.0000 18.5205 0.0000 0.0000
# 5 0.0000 0.0000 0.0000 0.0000 28.6118 0.0000
# 6 -0.0001 -0.0002 0.0000 0.0000 0.0000 43.0904
#
#
#
# Elastic Compliance Matrix: (Units=1/GPa)
#
#
# Indices 1 2 3 4 5 6 
#
# 1 0.009234 -0.004365 -0.005419 0.000000 0.000000 0.000000
# 2 -0.004365 0.015877 -0.002161 0.000000 0.000000 0.000000
# 3 -0.005419 -0.002161 0.015423 0.000000 0.000000 0.000000
# 4 0.000000 0.000000 0.000000 0.053994 0.000000 0.000000
# 5 0.000000 0.000000 0.000000 0.000000 0.034951 0.000000
# 6 0.000000 0.000000 0.000000 0.000000 0.000000 0.023207
#
#
# Mechanical properties :
#
#
# Convention : Reuss Voigt Hill
#
# Bulk Modulus (GPa) = 60.07953 75.15488 67.61720
# Shear Modulus (GPa) = 27.45394 30.96275 29.20834
#
# Velocity S-wave (km/s) = 3.46817 3.68314 3.57727
# Velocity P-wave (km/s) = 6.50845 7.14244 6.83280
#
# Compressibility (1/GPa) = 0.01664461
#
# Stress axis : x y z
#
# Youngs Moduli (GPa) = 108.29520 62.98359 64.83943
#
# Poissons Ratio (x) = 0.27490 0.35136
# Poissons Ratio (y) = 0.47267 0.14012
# Poissons Ratio (z) = 0.58685 0.13611
#
# Static dielectric constant tensor:
#      x y z
#    x 1.937150 0.000000 0.000000 
#    y 0.000000 1.908030 0.000000 
#    z 0.000000 0.000000 1.909240 
# 
# From -- ./inp_files/17876.got.cif
#   From: 2010.05.17/outbox.cif.g08.bks.cpg/sg43_9_cif.got.tgz:17876.got - 2010.06.03 19:21:55.
