data_PCOD9370875
_publ_section_title
;
Structure prediction by ZEFSAII (Michael W. Deem and Ramdas Pophale) SiO2 
 PCOD9370875
Probable space group: F D D 2
;
_chemical_formula_sum "Si O2"
_cell_formula_units_Z 88
_cell_length_a 23.959136
_cell_length_b 23.319900
_cell_length_c 6.795559
_cell_angle_alpha 90.000000
_cell_angle_beta 90.000000
_cell_angle_gamma 90.000000
_cell_volume 3796.846362
_symmetry_space_group_name_H-M "F D D 2"
_symmetry_group_IT_number 43
_symmetry_cell_setting 'orthorhombic'
loop_
_space_group_symop_operation_xyz
x,y,z
-x,-y,z
1/4-x,1/4+y,1/4+z
1/4+x,1/4-y,1/4+z
x,1/2+y,1/2+z
-x,1/2-y,1/2+z
1/4-x,3/4+y,3/4+z
1/4+x,3/4-y,3/4+z
1/2+x,y,1/2+z
1/2-x,-y,1/2+z
3/4-x,1/4+y,3/4+z
3/4+x,1/4-y,3/4+z
1/2+x,1/2+y,z
1/2-x,1/2-y,z
3/4-x,3/4+y,1/4+z
3/4+x,3/4-y,1/4+z
loop_
_atom_site_type_symbol
_atom_site_label
_atom_site_fract_x
_atom_site_fract_y
_atom_site_fract_z
Si Si1 0.000000 0.000000 0.883271
Si Si2 0.630027 0.024718 0.995471
Si Si3 0.545151 0.309907 0.558076
Si Si4 0.876835 0.517928 0.553526
Si Si5 0.292487 0.140862 0.936370
Si Si6 0.374306 0.842034 0.477157
O O1 0.002197 0.057508 0.753012
O O2 0.941000 0.998639 0.000632
O O3 0.689178 0.045170 0.084255
O O4 0.587670 0.076055 0.051353
O O5 0.623295 0.917942 0.461180
O O6 0.613847 0.969829 0.128602
O O7 0.573309 0.260210 0.690449
O O8 0.483949 0.335235 0.583214
O O9 0.581410 0.362896 0.639982
O O10 0.870065 0.498522 0.776499
O O11 0.318340 0.115785 0.137637
#
# Coordination Sequence:
#
# PCOD9370875 Si02
#       6
#     8  16  16  16  16  16
#     4  12  20  40  74 102 130 188 244 284 350 422
#     4  10  23  43  65 101 138 183 236 296 353 423
#     4  10  21  43  66  96 141 177 236 296 351 425
#     4  11  23  42  66 100 144 179 235 297 350 425
#     4  11  21  43  73  99 140 196 238 293 362 422
#     4  10  20  41  67  93 142 178 229 297 348 421
#
# _framework density 23.177129999999998
#
# number of rings (size 3 to 8) (size 9 to 14) (size 15 to 20)
#    0.000    1.455    7.273    0.000    0.000    5.091 
#    9.818    0.000    0.000    0.000    0.000    0.000 
#    0.000    0.000    0.000    0.000    0.000    0.000 
#
# Total GULP energy -122596.230403 kJ/mol
# GULP energy per Si atom -5572.555927 kJ/mol
# Density = 2.312438 g / cm^3
# Si number density = 23.177130 Si / 1000 Ang^3
#
#
#
# Elastic Constant Matrix: (Units=GPa)
#
#
# Indices 1 2 3 4 5 6 
#
# 1 67.1614 28.7504 29.3900 -0.0010 0.0013 0.0008
# 2 28.7504 65.3983 34.0987 -0.0038 0.0005 0.0006
# 3 29.3900 34.0987 164.4910 -0.0100 0.0044 0.0027
# 4 -0.0010 -0.0038 -0.0100 34.7295 0.0022 0.0018
# 5 0.0013 0.0005 0.0044 0.0022 18.4317 0.0000
# 6 0.0008 0.0006 0.0027 0.0018 0.0000 40.5485
#
#
#
# Elastic Compliance Matrix: (Units=1/GPa)
#
#
# Indices 1 2 3 4 5 6 
#
# 1 0.018829 -0.007314 -0.001848 -0.000001 -0.000001 0.000000
# 2 -0.007314 0.019985 -0.002836 0.000001 0.000001 0.000000
# 3 -0.001848 -0.002836 0.006997 0.000002 -0.000001 0.000000
# 4 -0.000001 0.000001 0.000002 0.028794 -0.000003 -0.000001
# 5 -0.000001 0.000001 -0.000001 -0.000003 0.054254 0.000000
# 6 0.000000 0.000000 0.000000 -0.000001 0.000000 0.024662
#
#
# Mechanical properties :
#
#
# Convention : Reuss Voigt Hill
#
# Bulk Modulus (GPa) = 45.83937 53.50323 49.67130
# Shear Modulus (GPa) = 27.05768 32.39602 29.72685
#
# Velocity S-wave (km/s) = 3.42047 3.74272 3.58522
# Velocity P-wave (km/s) = 5.95150 6.46621 6.21418
#
# Compressibility (1/GPa) = 0.02181531
#
# Stress axis : x y z
#
# Youngs Moduli (GPa) = 53.10883 50.03732 142.90887
#
# Poissons Ratio (x) = 0.36598 0.26410
# Poissons Ratio (y) = 0.38845 0.40530
# Poissons Ratio (z) = 0.09815 0.14191
#
# Static dielectric constant tensor:
#      x y z
#    x 2.004010 0.000000 0.000000 
#    y 0.000000 1.899830 0.000000 
#    z 0.000000 0.000000 1.921130 
# 
# From -- ./inp_files/7130.got.cif
#   From: 2010.05.17/outbox.cif.g08.bks.cpg/sg43_4_cif.got.tgz:7130.got - 2010.06.03 19:21:55.
