data_PCOD9370509
_publ_section_title
;
Structure prediction by ZEFSAII (Michael W. Deem and Ramdas Pophale) SiO2 
 PCOD9370509
Probable space group: F D D 2
;
_chemical_formula_sum "Si O2"
_cell_formula_units_Z 72
_cell_length_a 12.245687
_cell_length_b 7.180386
_cell_length_c 32.118343
_cell_angle_alpha 90.000000
_cell_angle_beta 90.000000
_cell_angle_gamma 90.000000
_cell_volume 2824.126057
_symmetry_space_group_name_H-M "F D D 2"
_symmetry_group_IT_number 43
_symmetry_cell_setting 'orthorhombic'
loop_
_space_group_symop_operation_xyz
x,y,z
-x,-y,z
1/4-x,1/4+y,1/4+z
1/4+x,1/4-y,1/4+z
x,1/2+y,1/2+z
-x,1/2-y,1/2+z
1/4-x,3/4+y,3/4+z
1/4+x,3/4-y,3/4+z
1/2+x,y,1/2+z
1/2-x,-y,1/2+z
3/4-x,1/4+y,3/4+z
3/4+x,1/4-y,3/4+z
1/2+x,1/2+y,z
1/2-x,1/2-y,z
3/4-x,3/4+y,1/4+z
3/4+x,3/4-y,1/4+z
loop_
_atom_site_type_symbol
_atom_site_label
_atom_site_fract_x
_atom_site_fract_y
_atom_site_fract_z
Si Si1 0.599287 0.871667 0.062920
Si Si2 0.885698 0.600450 0.486566
Si Si3 0.750000 0.250000 0.151465
Si Si4 0.340374 0.021498 0.580328
Si Si5 0.596925 0.716183 0.719791
O O1 0.714848 0.953069 0.076626
O O2 0.500000 0.000000 0.075364
O O3 0.588277 0.664899 0.080699
O O4 0.610663 0.874020 0.012626
O O5 0.875737 0.811400 0.470546
O O6 0.867450 0.619994 0.536662
O O7 0.784405 0.474422 0.470153
O O8 0.000000 0.500000 0.478607
O O9 0.665841 0.139724 0.181294
O O10 0.333101 0.139664 0.621618
#
# Coordination Sequence:
#
# PCOD9370509 Si02
#       5
#    16  16   8  16  16
#     4  10  19  42  70 101 134 200 259 304 359 487
#     4  10  21  44  72 103 130 203 261 297 368 486
#     4  12  24  46  62 110 160 188 236 342 390 446
#     4  10  23  40  70 102 143 190 251 311 397 444
#     4  10  22  41  71 100 149 189 249 318 377 443
#
# _framework density 25.494613000000001
#
# number of rings (size 3 to 8) (size 9 to 14) (size 15 to 20)
#    0.000    1.778    1.111    4.000    0.000    0.000 
#   16.000    0.000    0.000    0.000    0.000    0.000 
#    0.000    0.000    0.000    0.000    0.000    0.000 
#
# Total GULP energy -100882.170172 kJ/mol
# GULP energy per Si atom -5604.565010 kJ/mol
# Density = 2.543659 g / cm^3
# Si number density = 25.494613 Si / 1000 Ang^3
#
#
#
# Elastic Constant Matrix: (Units=GPa)
#
#
# Indices 1 2 3 4 5 6 
#
# 1 179.4411 40.7800 34.9682 0.0000 0.0000 0.0000
# 2 40.7800 99.4039 27.0294 0.0000 0.0000 0.0000
# 3 34.9682 27.0294 105.1903 0.0000 0.0000 0.0000
# 4 0.0000 0.0000 0.0000 15.7042 0.0000 0.0000
# 5 0.0000 0.0000 0.0000 0.0000 39.1176 0.0000
# 6 0.0000 0.0000 0.0000 0.0000 0.0000 49.8019
#
#
#
# Elastic Compliance Matrix: (Units=1/GPa)
#
#
# Indices 1 2 3 4 5 6 
#
# 1 0.006374 -0.002192 -0.001556 0.000000 0.000000 0.000000
# 2 -0.002192 0.011569 -0.002244 0.000000 0.000000 0.000000
# 3 -0.001556 -0.002244 0.010600 0.000000 0.000000 0.000000
# 4 0.000000 0.000000 0.000000 0.063677 0.000000 0.000000
# 5 0.000000 0.000000 0.000000 0.000000 0.025564 0.000000
# 6 0.000000 0.000000 0.000000 0.000000 0.000000 0.020080
#
#
# Mechanical properties :
#
#
# Convention : Reuss Voigt Hill
#
# Bulk Modulus (GPa) = 60.38536 65.51005 62.94771
# Shear Modulus (GPa) = 32.18157 39.67526 35.92841
#
# Velocity S-wave (km/s) = 3.55672 3.94918 3.75808
# Velocity P-wave (km/s) = 6.37213 6.82247 6.60114
#
# Compressibility (1/GPa) = 0.01656031
#
# Stress axis : x y z
#
# Youngs Moduli (GPa) = 156.88316 86.43470 94.33610
#
# Poissons Ratio (x) = 0.18946 0.14676
# Poissons Ratio (y) = 0.34388 0.21171
# Poissons Ratio (z) = 0.24407 0.19398
#
# Static dielectric constant tensor:
#      x y z
#    x 2.046660 0.000000 0.000000 
#    y 0.000000 2.083980 0.000000 
#    z 0.000000 0.000000 1.973280 
# 
# From -- ./inp_files/16957.got.cif
#   From: 2010.05.17/outbox.cif.g08.bks.cpg/sg43_9_cif.got.tgz:16957.got - 2010.06.03 19:21:55.
