data_PCOD9370029
_publ_section_title
;
Structure prediction by ZEFSAII (Michael W. Deem and Ramdas Pophale) SiO2 
 PCOD9370029
Probable space group: F D D 2
;
_chemical_formula_sum "Si O2"
_cell_formula_units_Z 104
_cell_length_a 13.831538
_cell_length_b 13.285354
_cell_length_c 26.044151
_cell_angle_alpha 90.000000
_cell_angle_beta 90.000000
_cell_angle_gamma 90.000000
_cell_volume 4785.791896
_symmetry_space_group_name_H-M "F D D 2"
_symmetry_group_IT_number 43
_symmetry_cell_setting 'orthorhombic'
loop_
_space_group_symop_operation_xyz
x,y,z
-x,-y,z
1/4-x,1/4+y,1/4+z
1/4+x,1/4-y,1/4+z
x,1/2+y,1/2+z
-x,1/2-y,1/2+z
1/4-x,3/4+y,3/4+z
1/4+x,3/4-y,3/4+z
1/2+x,y,1/2+z
1/2-x,-y,1/2+z
3/4-x,1/4+y,3/4+z
3/4+x,1/4-y,3/4+z
1/2+x,1/2+y,z
1/2-x,1/2-y,z
3/4-x,3/4+y,1/4+z
3/4+x,3/4-y,1/4+z
loop_
_atom_site_type_symbol
_atom_site_label
_atom_site_fract_x
_atom_site_fract_y
_atom_site_fract_z
Si Si1 0.750000 0.250000 0.026700
Si Si2 0.741802 0.562147 0.450824
Si Si3 0.512621 0.189273 0.295479
Si Si4 0.279648 0.365355 0.796104
Si Si5 0.894434 0.615520 0.854016
Si Si6 0.208767 0.909069 0.189132
Si Si7 0.844874 0.680601 0.371668
O O1 0.833749 0.269738 0.068095
O O2 0.764935 0.156430 0.989112
O O3 0.755153 0.465270 0.485939
O O4 0.629300 0.579433 0.437797
O O5 0.805455 0.582620 0.400946
O O6 0.606454 0.119355 0.300696
O O7 0.554797 0.291795 0.322694
O O8 0.414261 0.160504 0.323720
O O9 0.250000 0.250000 0.780298
O O10 0.220281 0.375808 0.849028
O O11 0.238670 0.427160 0.747781
O O12 0.948784 0.621114 0.907490
O O13 0.161993 0.005347 0.161053
O O14 0.750000 0.750000 0.360204
#
# Coordination Sequence:
#
# PCOD9370029 Si02
#       7
#     8  16  16  16  16  16  16
#     4  10  14  26  38  66  96 120 154 202 262 298
#     4  10  15  28  47  67  96 126 170 215 253 311
#     4   9  18  28  46  70  94 134 161 210 275 306
#     4  10  16  29  42  65 103 124 159 212 262 311
#     4   9  18  24  42  68  97 126 156 204 262 318
#     4  10  16  27  44  72  94 129 162 208 267 311
#     4   9  17  30  49  70  98 127 176 217 258 321
#
# _framework density 21.730991
#
# number of rings (size 3 to 8) (size 9 to 14) (size 15 to 20)
#    0.000    2.462    6.923    0.000    1.077    0.000 
#    0.000    0.000    3.385    0.000    0.000    0.000 
#    0.000    0.000    0.000    0.000    0.000    0.000 
#
# Total GULP energy -144886.082789 kJ/mol
# GULP energy per Si atom -5572.541646 kJ/mol
# Density = 2.168153 g / cm^3
# Si number density = 21.730991 Si / 1000 Ang^3
#
#
#
# Elastic Constant Matrix: (Units=GPa)
#
#
# Indices 1 2 3 4 5 6 
#
# 1 161.1012 14.2584 84.7854 0.0000 0.0000 0.0000
# 2 14.2584 17.2112 7.2022 0.0000 0.0000 0.0000
# 3 84.7854 7.2022 100.9507 0.0000 0.0000 0.0000
# 4 0.0000 0.0000 0.0000 9.2535 0.0000 0.0000
# 5 0.0000 0.0000 0.0000 0.0000 8.4334 0.0000
# 6 0.0000 0.0000 0.0000 0.0000 0.0000 13.6743
#
#
#
# Elastic Compliance Matrix: (Units=1/GPa)
#
#
# Indices 1 2 3 4 5 6 
#
# 1 0.011647 -0.005727 -0.009374 0.000000 0.000000 0.000000
# 2 -0.005727 0.062705 0.000336 0.000000 0.000000 0.000000
# 3 -0.009374 0.000336 0.017755 0.000000 0.000000 0.000000
# 4 0.000000 0.000000 0.000000 0.108067 0.000000 0.000000
# 5 0.000000 0.000000 0.000000 0.000000 0.118577 0.000000
# 6 0.000000 0.000000 0.000000 0.000000 0.000000 0.073130
#
#
# Mechanical properties :
#
#
# Convention : Reuss Voigt Hill
#
# Bulk Modulus (GPa) = 15.97996 54.63945 35.30971
# Shear Modulus (GPa) = 11.30533 17.80670 14.55602
#
# Velocity S-wave (km/s) = 2.28335 2.86565 2.59091
# Velocity P-wave (km/s) = 3.78432 6.01227 5.02337
#
# Compressibility (1/GPa) = 0.06257836
#
# Stress axis : x y z
#
# Youngs Moduli (GPa) = 85.85629 15.94766 56.32358
#
# Poissons Ratio (x) = 0.09133 0.52796
# Poissons Ratio (y) = 0.49166 -0.01892
# Poissons Ratio (z) = 0.80479 -0.00536
#
# Static dielectric constant tensor:
#      x y z
#    x 1.877750 0.000000 0.000000 
#    y 0.000000 1.874380 0.000000 
#    z 0.000000 0.000000 1.812210 
# 
# From -- ./inp_files/26103.got.cif
#   From: 2010.05.17/outbox.cif.g08.bks.cpg/sg43_14_cif.got.tgz:26103.got - 2010.06.03 19:21:55.
