data_PCOD9370428
_publ_section_title
;
Structure prediction by ZEFSAII (Michael W. Deem and Ramdas Pophale) SiO2 
 PCOD9370428
Probable space group: F D D 2
;
_chemical_formula_sum "Si O2"
_cell_formula_units_Z 80
_cell_length_a 13.605119
_cell_length_b 24.401950
_cell_length_c 9.445191
_cell_angle_alpha 90.000000
_cell_angle_beta 90.000000
_cell_angle_gamma 90.000000
_cell_volume 3135.722501
_symmetry_space_group_name_H-M "F D D 2"
_symmetry_group_IT_number 43
_symmetry_cell_setting 'orthorhombic'
loop_
_space_group_symop_operation_xyz
x,y,z
-x,-y,z
1/4-x,1/4+y,1/4+z
1/4+x,1/4-y,1/4+z
x,1/2+y,1/2+z
-x,1/2-y,1/2+z
1/4-x,3/4+y,3/4+z
1/4+x,3/4-y,3/4+z
1/2+x,y,1/2+z
1/2-x,-y,1/2+z
3/4-x,1/4+y,3/4+z
3/4+x,1/4-y,3/4+z
1/2+x,1/2+y,z
1/2-x,1/2-y,z
3/4-x,3/4+y,1/4+z
3/4+x,3/4-y,1/4+z
loop_
_atom_site_type_symbol
_atom_site_label
_atom_site_fract_x
_atom_site_fract_y
_atom_site_fract_z
Si Si1 0.430785 0.166981 0.735340
Si Si2 0.694306 0.305055 0.987672
Si Si3 0.884954 0.953830 0.918997
Si Si4 0.000429 0.111054 0.675953
Si Si5 0.365596 0.265969 0.907165
O O1 0.404630 0.186032 0.577556
O O2 0.503123 0.115100 0.743343
O O3 0.330481 0.143027 0.803733
O O4 0.437994 0.223139 0.829492
O O5 0.750000 0.250000 0.044946
O O6 0.676451 0.291983 0.824220
O O7 0.783059 0.922672 0.938369
O O8 0.957432 0.919647 0.813985
O O9 0.868893 0.007582 0.825179
O O10 0.899334 0.079650 0.630339
O O11 0.250000 0.250000 0.872268
#
# Coordination Sequence:
#
# PCOD9370428 Si02
#       5
#    16  16  16  16  16
#     4  10  21  37  59  84 112 150 194 233 281 340
#     4  12  23  39  58  86 120 149 184 243 290 325
#     4  10  20  35  56  81 113 150 189 233 283 338
#     4  10  19  38  59  81 111 151 193 232 276 342
#     4   8  17  35  58  78 105 150 189 223 274 337
#
# _framework density 25.512460000000001
#
# number of rings (size 3 to 8) (size 9 to 14) (size 15 to 20)
#    0.000    2.400    0.000    7.200    0.000    0.000 
#    0.000   12.000    0.000    0.000    0.000    0.000 
#    0.000    0.000    0.000    0.000    0.000    0.000 
#
# Total GULP energy -111558.837860 kJ/mol
# GULP energy per Si atom -5577.941893 kJ/mol
# Density = 2.545439 g / cm^3
# Si number density = 25.512460 Si / 1000 Ang^3
#
#
#
# Elastic Constant Matrix: (Units=GPa)
#
#
# Indices 1 2 3 4 5 6 
#
# 1 45.3387 28.4650 21.1530 0.0000 0.0000 0.0000
# 2 28.4650 96.4762 8.1243 0.0000 0.0000 0.0000
# 3 21.1530 8.1243 159.1261 0.0000 0.0000 0.0000
# 4 0.0000 0.0000 0.0000 -63.7453 0.0000 0.0000
# 5 0.0000 0.0000 0.0000 0.0000 -15.8258 0.0000
# 6 0.0000 0.0000 0.0000 0.0000 0.0000 41.9565
#
#
#
# Elastic Compliance Matrix: (Units=1/GPa)
#
#
# Indices 1 2 3 4 5 6 
#
# 1 0.028802 -0.008211 -0.003409 0.000000 0.000000 0.000000
# 2 -0.008211 0.012751 0.000440 0.000000 0.000000 0.000000
# 3 -0.003409 0.000440 0.006715 0.000000 0.000000 0.000000
# 4 0.000000 0.000000 0.000000 -0.015687 0.000000 0.000000
# 5 0.000000 0.000000 0.000000 0.000000 -0.063188 0.000000
# 6 0.000000 0.000000 0.000000 0.000000 0.000000 0.023834
#
#
# Mechanical properties :
#
#
# Convention : Reuss Voigt Hill
#
# Bulk Modulus (GPa) = 38.59801 46.26954 42.43377
# Shear Modulus (GPa) = 206.42291 8.69032 107.55661
#
# Velocity S-wave (km/s) = 9.00479 1.84762 6.50000
# Velocity P-wave (km/s) = 11.10302 4.76729 8.54412
#
# Compressibility (1/GPa) = 0.02590807
#
# Stress axis : x y z
#
# Youngs Moduli (GPa) = 34.71991 78.42688 148.91885
#
# Poissons Ratio (x) = 0.64395 0.50774
# Poissons Ratio (y) = 0.28508 -0.06560
# Poissons Ratio (z) = 0.11838 -0.03455
#
# Static dielectric constant tensor:
#      x y z
#    x 2.065990 0.000000 0.000000 
#    y 0.000000 2.546620 0.000000 
#    z 0.000000 0.000000 2.018120 
# 
# From -- ./inp_files/2799.got.cif
#   From: 2010.05.17/outbox.cif.g08.bks.cpg/sg43_2_cif.got.tgz:2799.got - 2010.06.03 19:21:55.
