data_PCOD9370550
_publ_section_title
;
Structure prediction by ZEFSAII (Michael W. Deem and Ramdas Pophale) SiO2 
 PCOD9370550
Probable space group: F D D 2
;
_chemical_formula_sum "Si O2"
_cell_formula_units_Z 112
_cell_length_a 19.265288
_cell_length_b 14.079886
_cell_length_c 22.086971
_cell_angle_alpha 90.000000
_cell_angle_beta 90.000000
_cell_angle_gamma 90.000000
_cell_volume 5991.158443
_symmetry_space_group_name_H-M "F D D 2"
_symmetry_group_IT_number 43
_symmetry_cell_setting 'orthorhombic'
loop_
_space_group_symop_operation_xyz
x,y,z
-x,-y,z
1/4-x,1/4+y,1/4+z
1/4+x,1/4-y,1/4+z
x,1/2+y,1/2+z
-x,1/2-y,1/2+z
1/4-x,3/4+y,3/4+z
1/4+x,3/4-y,3/4+z
1/2+x,y,1/2+z
1/2-x,-y,1/2+z
3/4-x,1/4+y,3/4+z
3/4+x,1/4-y,3/4+z
1/2+x,1/2+y,z
1/2-x,1/2-y,z
3/4-x,3/4+y,1/4+z
3/4+x,3/4-y,1/4+z
loop_
_atom_site_type_symbol
_atom_site_label
_atom_site_fract_x
_atom_site_fract_y
_atom_site_fract_z
Si Si1 0.008038 0.750000 0.376810
Si Si2 0.822326 0.197297 0.663275
Si Si3 0.576777 0.657885 0.130601
Si Si4 0.173223 0.092115 0.373019
Si Si5 0.376897 0.753065 0.962279
Si Si6 0.072326 0.947296 0.340345
Si Si7 0.126896 0.003065 0.041341
O O1 0.954384 0.757858 0.433768
O O2 0.954384 0.742142 0.319852
O O3 0.053726 0.656645 0.389245
O O4 0.053725 0.843355 0.364375
O O5 0.750000 0.250000 0.676947
O O6 0.865276 0.263502 0.617651
O O7 0.868394 0.208516 0.723808
O O8 0.500000 0.698402 0.126810
O O9 0.596059 0.600215 0.192626
O O10 0.581891 0.576904 0.080366
O O11 0.168109 0.173096 0.423254
O O12 0.153941 0.149785 0.310994
O O13 0.115276 0.013501 0.385969
O O14 0.368393 0.791484 0.029812
O O15 0.000000 0.000000 0.326673
#
# Coordination Sequence:
#
# PCOD9370550 Si02
#       7
#    16  16  16  16  16  16  16
#     4  10  24  40  56  98 118 150 212 240 292 378
#     4  12  21  38  64  84 125 161 192 250 306 348
#     4  10  20  35  57  93 120 144 203 248 295 361
#     4  10  20  35  57  93 120 144 203 248 295 361
#     4  10  20  35  62  90 117 148 193 258 300 339
#     4  12  21  38  64  84 125 161 192 250 306 348
#     4  10  20  35  62  90 117 148 193 258 300 339
#
# _framework density 18.694215
#
# number of rings (size 3 to 8) (size 9 to 14) (size 15 to 20)
#    0.000    1.714    5.714    4.286    4.000    0.000 
#    0.000    2.143    6.286    0.000    0.000    0.000 
#    0.000    0.000    0.000    0.000    0.000    0.000 
#
# Total GULP energy -156004.309705 kJ/mol
# GULP energy per Si atom -5571.582489 kJ/mol
# Density = 1.865167 g / cm^3
# Si number density = 18.694215 Si / 1000 Ang^3
#
#
#
# Elastic Constant Matrix: (Units=GPa)
#
#
# Indices 1 2 3 4 5 6 
#
# 1 91.2634 59.1866 9.3955 0.0000 0.0000 0.0000
# 2 59.1866 133.5814 30.6459 0.0000 0.0000 0.0000
# 3 9.3955 30.6459 38.8929 0.0000 0.0000 0.0000
# 4 0.0000 0.0000 0.0000 8.2001 0.0000 0.0000
# 5 0.0000 0.0000 0.0000 0.0000 5.7715 0.0000
# 6 0.0000 0.0000 0.0000 0.0000 0.0000 11.0416
#
#
#
# Elastic Compliance Matrix: (Units=1/GPa)
#
#
# Indices 1 2 3 4 5 6 
#
# 1 0.015506 -0.007337 0.002036 0.000000 0.000000 0.000000
# 2 -0.007337 0.012610 -0.008164 0.000000 0.000000 0.000000
# 3 0.002036 -0.008164 0.031652 0.000000 0.000000 0.000000
# 4 0.000000 0.000000 0.000000 0.121949 0.000000 0.000000
# 5 0.000000 0.000000 0.000000 0.000000 0.173265 0.000000
# 6 0.000000 0.000000 0.000000 0.000000 0.000000 0.090567
#
#
# Mechanical properties :
#
#
# Convention : Reuss Voigt Hill
#
# Bulk Modulus (GPa) = 30.45259 51.35487 40.90373
# Shear Modulus (GPa) = 10.34283 15.96996 13.15640
#
# Velocity S-wave (km/s) = 2.35471 2.92597 2.65574
# Velocity P-wave (km/s) = 4.87012 6.24065 5.59749
#
# Compressibility (1/GPa) = 0.03283793
#
# Stress axis : x y z
#
# Youngs Moduli (GPa) = 64.49017 79.30228 31.59316
#
# Poissons Ratio (x) = 0.58188 -0.06431
# Poissons Ratio (y) = 0.47319 0.25791
# Poissons Ratio (z) = -0.13128 0.64739
#
# Static dielectric constant tensor:
#      x y z
#    x 1.644740 0.000000 0.000000 
#    y 0.000000 1.651230 0.000000 
#    z 0.000000 0.000000 1.733240 
# 
# From -- ./inp_files/22425.got.cif
#   From: 2010.05.17/outbox.cif.g08.bks.cpg/sg43_12_cif.got.tgz:22425.got - 2010.06.03 19:21:55.
