data_PCOD9370009
_publ_section_title
;
Structure prediction by ZEFSAII (Michael W. Deem and Ramdas Pophale) SiO2 
 PCOD9370009
Probable space group: F M M 2
;
_chemical_formula_sum "Si O2"
_cell_formula_units_Z 24
_cell_length_a 24.000000
_cell_length_b 9.000000
_cell_length_c 24.000000
_cell_angle_alpha 90.000000
_cell_angle_beta 90.000000
_cell_angle_gamma 90.000000
_cell_volume 5184.000000
_symmetry_space_group_name_H-M "F M M 2"
_symmetry_group_IT_number 42
_symmetry_cell_setting 'orthorhombic'
loop_
_space_group_symop_operation_xyz
x,y,z
-x,-y,z
-x,y,z
x,-y,z
x,1/2+y,1/2+z
-x,1/2-y,1/2+z
-x,1/2+y,1/2+z
x,1/2-y,1/2+z
1/2+x,y,1/2+z
1/2-x,-y,1/2+z
1/2-x,y,1/2+z
1/2+x,-y,1/2+z
1/2+x,1/2+y,z
1/2-x,1/2-y,z
1/2-x,1/2+y,z
1/2+x,1/2-y,z
loop_
_atom_site_type_symbol
_atom_site_label
_atom_site_fract_x
_atom_site_fract_y
_atom_site_fract_z
Si Si1 0.500000 0.677623 0.717000
Si Si2 0.690179 0.823532 0.649022
Si Si3 0.390384 0.676830 0.045384
Si Si4 0.805067 0.330015 0.461715
Si Si5 0.612559 0.677022 0.252164
Si Si6 0.500000 0.676241 0.588406
Si Si7 0.806380 0.671366 0.328573
O O1 0.500000 0.500000 0.719106
O O2 0.445667 0.743587 0.744975
O O3 0.500000 0.727754 0.652582
O O4 0.750000 0.750000 0.648136
O O5 0.654683 0.793938 0.593692
O O6 0.652924 0.775232 0.701448
O O7 0.697605 0.000000 0.653607
O O8 0.402304 0.500000 0.044610
O O9 0.445774 0.762325 0.058987
O O10 0.361495 0.727715 0.988468
O O11 0.800764 0.500000 0.480196
O O12 0.750000 0.250000 0.482246
O O13 0.805793 0.326128 0.395345
O O14 0.606430 0.500000 0.250467
O O15 0.642593 0.733310 0.307144
O O16 0.500000 0.500000 0.588658
O O17 0.808814 0.500000 0.310100
O O18 0.750000 0.750000 0.308186
#
# Coordination Sequence:
#
# PCOD9370009 Si02
#       7
#     8  16  16  16  16   8  16
#     4  11  23  39  58  81 110 147 186 232 281 332
#     4  10  21  33  51  79 110 140 175 220 272 326
#     4  10  20  37  57  79 109 147 185 225 273 329
#     4   9  19  35  58  84 112 148 187 226 276 328
#     4  11  22  37  57  82 110 147 188 228 277 334
#     4  11  23  37  56  83 110 145 186 228 277 328
#     4  10  20  36  57  84 115 149 188 231 278 331
#
# _framework density 4.6296299999999997
#
# number of rings (size 3 to 8) (size 9 to 14) (size 15 to 20)
#    0.000    1.833    1.667    2.500    0.000    5.333 
#    0.000    0.833    0.000    2.000    0.000    0.000 
#    0.000    0.000    0.000    0.000    0.000    0.000 
#
# Total GULP energy -133919.772999 kJ/mol
# GULP energy per Si atom -5579.990542 kJ/mol
# Density = 0.461909 g / cm^3
# Si number density = 4.629630 Si / 1000 Ang^3
#
#
#
# Elastic Constant Matrix: (Units=GPa)
#
#
# Indices 1 2 3 4 5 6 
#
# 1 151.6831 51.6188 23.9981 0.0000 0.0000 0.0000
# 2 51.6188 35.9326 24.3463 0.0000 0.0000 0.0000
# 3 23.9981 24.3463 9.0663 0.0000 0.0000 0.0000
# 4 0.0000 0.0000 0.0000 18.5960 0.0000 0.0000
# 5 0.0000 0.0000 0.0000 0.0000 -168.9536 0.0000
# 6 0.0000 0.0000 0.0000 0.0000 0.0000 36.5047
#
#
#
# Elastic Compliance Matrix: (Units=1/GPa)
#
#
# Indices 1 2 3 4 5 6 
#
# 1 0.010667 -0.004646 -0.015759 0.000000 0.000000 0.000000
# 2 -0.004646 -0.031937 0.098060 0.000000 0.000000 0.000000
# 3 -0.015759 0.098060 -0.111313 0.000000 0.000000 0.000000
# 4 0.000000 0.000000 0.000000 0.053775 0.000000 0.000000
# 5 0.000000 0.000000 0.000000 0.000000 -0.005919 0.000000
# 6 0.000000 0.000000 0.000000 0.000000 0.000000 0.027394
#
#
# Mechanical properties :
#
#
# Convention : Reuss Voigt Hill
#
# Bulk Modulus (GPa) = 44.00260 44.06760 44.03510
# Shear Modulus (GPa) = -24.38231 -16.32267 -20.35249
#
# Velocity S-wave (km/s) = -3.63250 -2.97210 -3.31877
# Velocity P-wave (km/s) = 2.49391 3.47424 3.02407
#
# Compressibility (1/GPa) = 0.02272593
#
# Stress axis : x y z
#
# Youngs Moduli (GPa) = 93.74665 -31.31191 -8.98365
#
# Poissons Ratio (x) = -0.14547 -0.14158
# Poissons Ratio (y) = 0.43554 0.88093
# Poissons Ratio (z) = 1.47738 3.07044
#
# Static dielectric constant tensor:
#      x y z
#    x 1.593280 0.000000 0.000000 
#    y 0.000000 1.623550 0.000000 
#    z 0.000000 0.000000 1.662980 
# 
# From -- ./inp_files/28063.got.cif
#   From: 2010.05.17/outbox.ucp.g08.bks.cvg/sg42_15_cif.got.tgz:28063.got - 2010.06.11 16:29:10.
