data_PCOD9370508
_publ_section_title
;
Structure prediction by ZEFSAII (Michael W. Deem and Ramdas Pophale) SiO2 
 PCOD9370508
Probable space group: F D D 2
;
_chemical_formula_sum "Si O2"
_cell_formula_units_Z 88
_cell_length_a 17.726036
_cell_length_b 16.557372
_cell_length_c 11.856084
_cell_angle_alpha 90.000000
_cell_angle_beta 90.000000
_cell_angle_gamma 90.000000
_cell_volume 3479.720013
_symmetry_space_group_name_H-M "F D D 2"
_symmetry_group_IT_number 43
_symmetry_cell_setting 'orthorhombic'
loop_
_space_group_symop_operation_xyz
x,y,z
-x,-y,z
1/4-x,1/4+y,1/4+z
1/4+x,1/4-y,1/4+z
x,1/2+y,1/2+z
-x,1/2-y,1/2+z
1/4-x,3/4+y,3/4+z
1/4+x,3/4-y,3/4+z
1/2+x,y,1/2+z
1/2-x,-y,1/2+z
3/4-x,1/4+y,3/4+z
3/4+x,1/4-y,3/4+z
1/2+x,1/2+y,z
1/2-x,1/2-y,z
3/4-x,3/4+y,1/4+z
3/4+x,3/4-y,1/4+z
loop_
_atom_site_type_symbol
_atom_site_label
_atom_site_fract_x
_atom_site_fract_y
_atom_site_fract_z
Si Si1 0.418580 0.137315 0.699160
Si Si2 0.621863 0.693078 0.666537
Si Si3 0.791087 0.490783 0.492689
Si Si4 0.594730 0.275714 0.507232
Si Si5 0.965383 0.650120 0.444754
Si Si6 0.000000 0.000000 0.792389
O O1 0.362727 0.215090 0.702241
O O2 0.387654 0.070476 0.783773
O O3 0.498525 0.172504 0.749855
O O4 0.432249 0.124524 0.565618
O O5 0.531891 0.689176 0.696064
O O6 0.663125 0.619322 0.727376
O O7 0.847580 0.490776 0.389901
O O8 0.830677 0.449662 0.599290
O O9 0.530295 0.217104 0.464330
O O10 0.676215 0.249056 0.465224
O O11 0.998120 0.576110 0.375567
#
# Coordination Sequence:
#
# PCOD9370508 Si02
#       6
#    16  16  16  16  16   8
#     4   9  21  38  67  95 140 176 230 278 353 413
#     4  10  19  42  69  99 131 185 225 290 345 424
#     4   9  21  39  68  93 134 181 219 298 335 413
#     4  11  23  43  67  97 136 172 239 281 352 417
#     4  11  23  43  63 102 138 175 230 290 345 416
#     4  12  26  38  70  98 128 190 220 284 342 428
#
# _framework density 25.289390000000001
#
# number of rings (size 3 to 8) (size 9 to 14) (size 15 to 20)
#    1.091    0.727    3.636    0.000    2.545    1.455 
#    0.000    0.000    0.000    0.000    0.000    0.000 
#    0.000    0.000    0.000    0.000    0.000    0.000 
#
# Total GULP energy -122782.856152 kJ/mol
# GULP energy per Si atom -5581.038916 kJ/mol
# Density = 2.523183 g / cm^3
# Si number density = 25.289390 Si / 1000 Ang^3
#
#
#
# Elastic Constant Matrix: (Units=GPa)
#
#
# Indices 1 2 3 4 5 6 
#
# 1 30.2643 1.7257 7.7701 0.0000 0.0000 0.0000
# 2 1.7257 43.6016 -9.3211 0.0000 0.0000 0.0000
# 3 7.7701 -9.3211 90.6176 0.0000 0.0000 0.0000
# 4 0.0000 0.0000 0.0000 27.6048 0.0000 0.0000
# 5 0.0000 0.0000 0.0000 0.0000 17.1750 0.0000
# 6 0.0000 0.0000 0.0000 0.0000 0.0000 25.8171
#
#
#
# Elastic Compliance Matrix: (Units=1/GPa)
#
#
# Indices 1 2 3 4 5 6 
#
# 1 0.033958 -0.002011 -0.003119 0.000000 0.000000 0.000000
# 2 -0.002011 0.023570 0.002597 0.000000 0.000000 0.000000
# 3 -0.003119 0.002597 0.011570 0.000000 0.000000 0.000000
# 4 0.000000 0.000000 0.000000 0.036226 0.000000 0.000000
# 5 0.000000 0.000000 0.000000 0.000000 0.058224 0.000000
# 6 0.000000 0.000000 0.000000 0.000000 0.000000 0.038734
#
#
# Mechanical properties :
#
#
# Convention : Reuss Voigt Hill
#
# Bulk Modulus (GPa) = 15.61710 18.31476 16.96593
# Shear Modulus (GPa) = 21.86368 25.07331 23.46849
#
# Velocity S-wave (km/s) = 2.94350 3.15215 3.04961
# Velocity P-wave (km/s) = 4.21200 4.52834 4.37304
#
# Compressibility (1/GPa) = 0.06403239
#
# Stress axis : x y z
#
# Youngs Moduli (GPa) = 29.44849 42.42743 86.43113
#
# Poissons Ratio (x) = 0.08531 0.26954
# Poissons Ratio (y) = 0.05921 -0.22445
# Poissons Ratio (z) = 0.09184 -0.11018
#
# Static dielectric constant tensor:
#      x y z
#    x 2.062880 0.000000 0.000000 
#    y 0.000000 2.054500 0.000000 
#    z 0.000000 0.000000 2.038640 
# 
# From -- ./inp_files/7069.got.cif
#   From: 2010.05.17/outbox.cif.g08.bks.cpg/sg43_4_cif.got.tgz:7069.got - 2010.06.03 19:21:55.
