data_PCOD9370510
_publ_section_title
;
Structure prediction by ZEFSAII (Michael W. Deem and Ramdas Pophale) SiO2 
 PCOD9370510
Probable space group: F D D 2
;
_chemical_formula_sum "Si O2"
_cell_formula_units_Z 64
_cell_length_a 18.093176
_cell_length_b 6.308272
_cell_length_c 19.462084
_cell_angle_alpha 90.000000
_cell_angle_beta 90.000000
_cell_angle_gamma 90.000000
_cell_volume 2221.337567
_symmetry_space_group_name_H-M "F D D 2"
_symmetry_group_IT_number 43
_symmetry_cell_setting 'orthorhombic'
loop_
_space_group_symop_operation_xyz
x,y,z
-x,-y,z
1/4-x,1/4+y,1/4+z
1/4+x,1/4-y,1/4+z
x,1/2+y,1/2+z
-x,1/2-y,1/2+z
1/4-x,3/4+y,3/4+z
1/4+x,3/4-y,3/4+z
1/2+x,y,1/2+z
1/2-x,-y,1/2+z
3/4-x,1/4+y,3/4+z
3/4+x,1/4-y,3/4+z
1/2+x,1/2+y,z
1/2-x,1/2-y,z
3/4-x,3/4+y,1/4+z
3/4+x,3/4-y,1/4+z
loop_
_atom_site_type_symbol
_atom_site_label
_atom_site_fract_x
_atom_site_fract_y
_atom_site_fract_z
Si Si1 0.109373 0.611039 0.338540
Si Si2 0.000000 0.000000 0.377231
Si Si3 0.000000 0.500000 0.231972
Si Si4 0.927939 0.148051 0.964988
Si Si5 0.230180 0.009761 0.351890
O O1 0.067340 0.458752 0.284676
O O2 0.117593 0.498750 0.413232
O O3 0.051973 0.811423 0.343653
O O4 0.196451 0.608850 0.320558
O O5 0.945209 0.860891 0.423656
O O6 0.034674 0.664011 0.177107
O O7 0.917011 0.216017 0.043556
O O8 0.000000 0.000000 0.970917
O O9 0.250000 0.250000 0.367414
#
# Coordination Sequence:
#
# PCOD9370510 Si02
#       5
#    16   8   8  16  16
#     4  11  25  47  81 110 165 204 268 332 393 498
#     4  10  19  42  72 107 146 210 246 310 411 454
#     4  12  27  46  70 131 144 208 282 316 417 462
#     4   9  20  44  72 108 149 209 258 309 412 467
#     4  11  28  49  76 118 158 203 273 335 402 470
#
# _framework density 28.811471000000001
#
# number of rings (size 3 to 8) (size 9 to 14) (size 15 to 20)
#    0.000    1.500    3.750    0.750   12.250    2.000 
#    4.500    0.000    0.000    0.000    0.000    0.000 
#    0.000    0.000    0.000    0.000    0.000    0.000 
#
# Total GULP energy -89291.436205 kJ/mol
# GULP energy per Si atom -5580.714763 kJ/mol
# Density = 2.874589 g / cm^3
# Si number density = 28.811471 Si / 1000 Ang^3
#
#
#
# Elastic Constant Matrix: (Units=GPa)
#
#
# Indices 1 2 3 4 5 6 
#
# 1 157.1683 47.4632 73.1965 0.0000 0.0000 0.0000
# 2 47.4632 162.8542 69.4924 0.0000 0.0000 -0.0001
# 3 73.1965 69.4924 191.0886 0.0000 0.0000 0.0000
# 4 0.0000 0.0000 0.0000 56.9012 0.0000 0.0000
# 5 0.0000 0.0000 0.0000 0.0000 34.5240 0.0000
# 6 0.0000 -0.0001 0.0000 0.0000 0.0000 56.8363
#
#
#
# Elastic Compliance Matrix: (Units=1/GPa)
#
#
# Indices 1 2 3 4 5 6 
#
# 1 0.007938 -0.001203 -0.002603 0.000000 0.000000 0.000000
# 2 -0.001203 0.007451 -0.002249 0.000000 0.000000 0.000000
# 3 -0.002603 -0.002249 0.007048 0.000000 0.000000 0.000000
# 4 0.000000 0.000000 0.000000 0.017574 0.000000 0.000000
# 5 0.000000 0.000000 0.000000 0.000000 0.028965 0.000000
# 6 0.000000 0.000000 0.000000 0.000000 0.000000 0.017594
#
#
# Mechanical properties :
#
#
# Convention : Reuss Voigt Hill
#
# Bulk Modulus (GPa) = 96.83083 99.04612 97.93848
# Shear Modulus (GPa) = 48.96042 51.04958 50.00500
#
# Velocity S-wave (km/s) = 4.12677 4.21390 4.17057
# Velocity P-wave (km/s) = 7.50922 7.62416 7.56691
#
# Compressibility (1/GPa) = 0.01032729
#
# Stress axis : x y z
#
# Youngs Moduli (GPa) = 125.97244 134.21751 141.87969
#
# Poissons Ratio (x) = 0.16142 0.36937
# Poissons Ratio (y) = 0.15150 0.31907
# Poissons Ratio (z) = 0.32795 0.30183
#
# Static dielectric constant tensor:
#      x y z
#    x 2.296490 0.000000 0.000000 
#    y 0.000000 2.622260 0.000000 
#    z 0.000000 0.000000 2.241680 
# 
# From -- ./inp_files/18485.got.cif
#   From: 2010.05.17/outbox.cif.g08.bks.cpg/sg43_10_cif.got.tgz:18485.got - 2010.06.03 19:21:55.
