data_PCOD9370000
_publ_section_title
;
Structure prediction by ZEFSAII (Michael W. Deem and Ramdas Pophale) SiO2 
 PCOD9370000
Probable space group: F M M 2
;
_chemical_formula_sum "Si O2"
_cell_formula_units_Z 24
_cell_length_a 21.000000
_cell_length_b 15.000000
_cell_length_c 15.000000
_cell_angle_alpha 90.000000
_cell_angle_beta 90.000000
_cell_angle_gamma 90.000000
_cell_volume 4725.000000
_symmetry_space_group_name_H-M "F M M 2"
_symmetry_group_IT_number 42
_symmetry_cell_setting 'orthorhombic'
loop_
_space_group_symop_operation_xyz
x,y,z
-x,-y,z
-x,y,z
x,-y,z
x,1/2+y,1/2+z
-x,1/2-y,1/2+z
-x,1/2+y,1/2+z
x,1/2-y,1/2+z
1/2+x,y,1/2+z
1/2-x,-y,1/2+z
1/2-x,y,1/2+z
1/2+x,-y,1/2+z
1/2+x,1/2+y,z
1/2-x,1/2-y,z
1/2-x,1/2+y,z
1/2+x,1/2-y,z
loop_
_atom_site_type_symbol
_atom_site_label
_atom_site_fract_x
_atom_site_fract_y
_atom_site_fract_z
Si Si1 0.625522 0.258137 0.218940
Si Si2 0.760368 0.103890 0.961477
Si Si3 0.500000 0.604602 0.579231
Si Si4 0.887684 0.104522 0.068408
Si Si5 0.362264 0.605813 0.574581
Si Si6 0.250000 0.250000 0.320338
Si Si7 0.000000 0.305646 0.271860
Si Si8 0.500000 0.896245 0.446061
O O1 0.603162 0.334588 0.152808
O O2 0.639430 0.168020 0.161778
O O3 0.691166 0.284182 0.263519
O O4 0.566635 0.243619 0.284861
O O5 0.773921 0.168994 0.880717
O O6 0.757958 0.000000 0.934729
O O7 0.816311 0.113983 0.032840
O O8 0.693941 0.129555 0.007585
O O9 0.500000 0.500000 0.604533
O O10 0.432534 0.620465 0.533002
O O11 0.500000 0.661419 0.669868
O O12 0.898038 0.000000 0.087275
O O13 0.936722 0.138217 0.993514
O O14 0.355457 0.500000 0.595936
O O15 0.000000 0.384245 0.341680
O O16 0.500000 0.000000 0.464351
#
# Coordination Sequence:
#
# PCOD9370000 Si02
#       8
#    16  16   8  16  16   8   8   8
#     4  11  22  36  56  82 111 144 182 225 273 323
#     4  10  21  37  56  80 110 144 183 225 270 322
#     4   8  15  29  52  81 110 139 174 217 261 310
#     4  10  21  38  59  80 106 145 189 226 264 320
#     4   9  18  34  56  80 108 143 181 221 267 324
#     4  12  24  36  54  80 112 144 178 228 282 324
#     4  10  20  33  52  84 115 140 173 218 273 321
#     4  10  20  36  59  83 109 143 181 225 274 323
#
# _framework density 5.0793650000000001
#
# number of rings (size 3 to 8) (size 9 to 14) (size 15 to 20)
#    0.000    2.000    0.000    3.750    0.000    2.000 
#    0.000    0.833    0.000    0.000    0.000    1.167 
#    0.000    0.000    0.000    0.000    0.000    0.000 
#
# Total GULP energy -133804.134424 kJ/mol
# GULP energy per Si atom -5575.172268 kJ/mol
# Density = 0.506780 g / cm^3
# Si number density = 5.079365 Si / 1000 Ang^3
#
#
#
# Elastic Constant Matrix: (Units=GPa)
#
#
# Indices 1 2 3 4 5 6 
#
# 1 97.2343 6.8945 13.7731 0.0000 0.0000 0.0000
# 2 6.8945 21.8879 2.0865 0.0000 0.0000 0.0000
# 3 13.7731 2.0865 19.6242 0.0000 0.0000 0.0000
# 4 0.0000 0.0000 0.0000 59.5432 0.0000 0.0000
# 5 0.0000 0.0000 0.0000 0.0000 26.6701 0.0000
# 6 0.0000 0.0000 0.0000 0.0000 0.0000 -434.6934
#
#
#
# Elastic Compliance Matrix: (Units=1/GPa)
#
#
# Indices 1 2 3 4 5 6 
#
# 1 0.011600 -0.002907 -0.007832 0.000000 0.000000 0.000000
# 2 -0.002907 0.046884 -0.002944 0.000000 0.000000 0.000000
# 3 -0.007832 -0.002944 0.056767 0.000000 0.000000 0.000000
# 4 0.000000 0.000000 0.000000 0.016795 0.000000 0.000000
# 5 0.000000 0.000000 0.000000 0.000000 0.037495 0.000000
# 6 0.000000 0.000000 0.000000 0.000000 0.000000 -0.002300
#
#
# Mechanical properties :
#
#
# Convention : Reuss Voigt Hill
#
# Bulk Modulus (GPa) = 11.37873 20.47276 15.92574
# Shear Modulus (GPa) = 22.33112 -61.96319 -19.81603
#
# Velocity S-wave (km/s) = 3.31888 -5.52845 -3.12640
# Velocity P-wave (km/s) = 4.50547 5.53654 2.27531
#
# Compressibility (1/GPa) = 0.08788327
#
# Stress axis : x y z
#
# Youngs Moduli (GPa) = 86.20689 21.32933 17.61573
#
# Poissons Ratio (x) = 0.06201 0.13797
# Poissons Ratio (y) = 0.25063 0.05187
# Poissons Ratio (z) = 0.67519 0.06280
#
# Static dielectric constant tensor:
#      x y z
#    x 1.755620 0.000000 0.000000 
#    y 0.000000 1.705540 0.000000 
#    z 0.000000 0.000000 1.675250 
# 
# From -- ./inp_files/15872.got.cif
#   From: 2010.05.17/outbox.ucp.g08.bks.cvg/sg42_8_cif.got.tgz:15872.got - 2010.06.11 16:29:10.
