data_PCOD9370177
_publ_section_title
;
Structure prediction by ZEFSAII (Michael W. Deem and Ramdas Pophale) SiO2 
 PCOD9370177
Probable space group: F D D 2
;
_chemical_formula_sum "Si O2"
_cell_formula_units_Z 128
_cell_length_a 13.072902
_cell_length_b 16.261821
_cell_length_c 25.593752
_cell_angle_alpha 90.000000
_cell_angle_beta 90.000000
_cell_angle_gamma 90.000000
_cell_volume 5440.955065
_symmetry_space_group_name_H-M "F D D 2"
_symmetry_group_IT_number 43
_symmetry_cell_setting 'orthorhombic'
loop_
_space_group_symop_operation_xyz
x,y,z
-x,-y,z
1/4-x,1/4+y,1/4+z
1/4+x,1/4-y,1/4+z
x,1/2+y,1/2+z
-x,1/2-y,1/2+z
1/4-x,3/4+y,3/4+z
1/4+x,3/4-y,3/4+z
1/2+x,y,1/2+z
1/2-x,-y,1/2+z
3/4-x,1/4+y,3/4+z
3/4+x,1/4-y,3/4+z
1/2+x,1/2+y,z
1/2-x,1/2-y,z
3/4-x,3/4+y,1/4+z
3/4+x,3/4-y,1/4+z
loop_
_atom_site_type_symbol
_atom_site_label
_atom_site_fract_x
_atom_site_fract_y
_atom_site_fract_z
Si Si1 0.445293 0.376104 0.492110
Si Si2 0.907990 0.799469 0.884161
Si Si3 0.025121 0.594453 0.769089
Si Si4 0.243152 0.070232 0.242952
Si Si5 0.723401 0.636837 0.632478
Si Si6 0.917533 0.345490 0.269228
Si Si7 0.139895 0.737745 0.571932
Si Si8 0.993130 0.320462 0.153512
O O1 0.329922 0.394716 0.509117
O O2 0.462850 0.277488 0.499581
O O3 0.455645 0.397906 0.431867
O O4 0.544964 0.420319 0.516066
O O5 0.922823 0.702771 0.889540
O O6 0.953299 0.817170 0.826402
O O7 0.797563 0.842581 0.888488
O O8 0.965072 0.834524 0.935037
O O9 0.135524 0.617706 0.747229
O O10 0.000000 0.500000 0.753007
O O11 0.035691 0.600480 0.830801
O O12 0.331216 0.081789 0.287413
O O13 0.621031 0.690225 0.631474
O O14 0.914051 0.444140 0.276129
O O15 0.976049 0.319752 0.216530
O O16 0.250000 0.750000 0.599409
O O17 0.062628 0.759558 0.619112
#
# Coordination Sequence:
#
# PCOD9370177 Si02
#       8
#    16  16  16  16  16  16  16  16
#     4   8  17  32  51  76 103 132 172 219 264 323
#     4  10  19  33  53  80 109 143 185 230 277 330
#     4  10  18  34  54  74 105 141 178 218 268 331
#     4   9  18  32  54  77 101 142 183 215 263 328
#     4  10  19  33  54  80 106 139 182 228 279 331
#     4   9  18  33  54  81 109 137 178 232 285 327
#     4  10  19  34  56  81 106 139 188 231 270 336
#     4  10  19  33  55  81 109 141 179 235 292 334
#
# _framework density 23.525282000000001
#
# number of rings (size 3 to 8) (size 9 to 14) (size 15 to 20)
#    0.000    2.500    0.000    4.875    0.000    0.000 
#    0.000   10.000    0.000    3.750    0.000    0.000 
#    0.000    0.000    0.000    0.000    0.000    0.000 
#
# Total GULP energy -178208.126717 kJ/mol
# GULP energy per Si atom -5569.003960 kJ/mol
# Density = 2.347174 g / cm^3
# Si number density = 23.525282 Si / 1000 Ang^3
#
#
#
# Elastic Constant Matrix: (Units=GPa)
#
#
# Indices 1 2 3 4 5 6 
#
# 1 102.4666 -2.2312 75.1552 0.0000 0.0000 0.0000
# 2 -2.2312 29.4330 0.3473 0.0000 0.0000 0.0000
# 3 75.1552 0.3473 172.7107 0.0000 0.0000 0.0000
# 4 0.0000 0.0000 0.0000 22.4433 0.0000 0.0000
# 5 0.0000 0.0000 0.0000 0.0000 29.5073 0.0000
# 6 0.0000 0.0000 0.0000 0.0000 0.0000 17.4169
#
#
#
# Elastic Compliance Matrix: (Units=1/GPa)
#
#
# Indices 1 2 3 4 5 6 
#
# 1 0.014374 0.001163 -0.006257 0.000000 0.000000 0.000000
# 2 0.001163 0.034070 -0.000575 0.000000 0.000000 0.000000
# 3 -0.006257 -0.000575 0.008514 0.000000 0.000000 0.000000
# 4 0.000000 0.000000 0.000000 0.044557 0.000000 0.000000
# 5 0.000000 0.000000 0.000000 0.000000 0.033890 0.000000
# 6 0.000000 0.000000 0.000000 0.000000 0.000000 0.057416
#
#
# Mechanical properties :
#
#
# Convention : Reuss Voigt Hill
#
# Bulk Modulus (GPa) = 21.91954 50.12810 36.02382
# Shear Modulus (GPa) = 22.79307 29.29610 26.04458
#
# Velocity S-wave (km/s) = 3.11605 3.53271 3.33090
# Velocity P-wave (km/s) = 4.72060 6.16397 5.48993
#
# Compressibility (1/GPa) = 0.04562140
#
# Stress axis : x y z
#
# Youngs Moduli (GPa) = 69.56992 29.35098 117.45345
#
# Poissons Ratio (x) = -0.03415 0.73493
# Poissons Ratio (y) = -0.08094 0.06751
# Poissons Ratio (z) = 0.43531 0.01687
#
# Static dielectric constant tensor:
#      x y z
#    x 2.007160 0.000000 0.000000 
#    y 0.000000 2.047030 0.000000 
#    z 0.000000 0.000000 1.871120 
# 
# From -- ./inp_files/25336.got.cif
#   From: 2010.05.17/outbox.cif.g08.bks.cpg/sg43_13_cif.got.tgz:25336.got - 2010.06.03 19:21:55.
