data_PCOD9370248
_publ_section_title
;
Structure prediction by ZEFSAII (Michael W. Deem and Ramdas Pophale) SiO2 
 PCOD9370248
Probable space group: F D D 2
;
_chemical_formula_sum "Si O2"
_cell_formula_units_Z 120
_cell_length_a 17.460438
_cell_length_b 16.454471
_cell_length_c 22.441295
_cell_angle_alpha 90.000000
_cell_angle_beta 90.000000
_cell_angle_gamma 90.000000
_cell_volume 6447.435011
_symmetry_space_group_name_H-M "F D D 2"
_symmetry_group_IT_number 43
_symmetry_cell_setting 'orthorhombic'
loop_
_space_group_symop_operation_xyz
x,y,z
-x,-y,z
1/4-x,1/4+y,1/4+z
1/4+x,1/4-y,1/4+z
x,1/2+y,1/2+z
-x,1/2-y,1/2+z
1/4-x,3/4+y,3/4+z
1/4+x,3/4-y,3/4+z
1/2+x,y,1/2+z
1/2-x,-y,1/2+z
3/4-x,1/4+y,3/4+z
3/4+x,1/4-y,3/4+z
1/2+x,1/2+y,z
1/2-x,1/2-y,z
3/4-x,3/4+y,1/4+z
3/4+x,3/4-y,1/4+z
loop_
_atom_site_type_symbol
_atom_site_label
_atom_site_fract_x
_atom_site_fract_y
_atom_site_fract_z
Si Si1 0.112475 0.849459 0.574470
Si Si2 0.922070 0.049318 0.463593
Si Si3 0.481934 0.232289 0.538565
Si Si4 0.846294 0.903984 0.392661
Si Si5 0.739329 0.083171 0.115372
Si Si6 0.500000 0.500000 0.857873
Si Si7 0.032990 0.160614 0.915110
Si Si8 0.318349 0.812704 0.010781
O O1 0.116964 0.916529 0.522799
O O2 0.178392 0.780458 0.569248
O O3 0.132811 0.887136 0.639215
O O4 0.032673 0.804869 0.565122
O O5 0.948164 0.124599 0.422210
O O6 0.870649 0.988815 0.424292
O O7 0.000000 0.000000 0.478832
O O8 0.463706 0.169773 0.590955
O O9 0.522401 0.189364 0.482472
O O10 0.400336 0.270039 0.519085
O O11 0.815446 0.846534 0.444344
O O12 0.924580 0.867705 0.365757
O O13 0.694212 0.114510 0.057673
O O14 0.741644 0.987390 0.125269
O O15 0.484856 0.579356 0.898991
O O16 0.250000 0.750000 0.022823
#
# Coordination Sequence:
#
# PCOD9370248 Si02
#       8
#    16  16  16  16  16   8  16  16
#     4  10  22  44  64  95 132 180 225 279 332 414
#     4  10  18  37  68 103 133 165 216 283 349 395
#     4  12  22  43  69  97 136 175 226 281 342 404
#     4  11  23  38  65 104 133 174 224 278 339 406
#     4  11  19  40  70  97 137 175 215 289 351 390
#     4   8  24  46  62  86 134 180 226 272 322 414
#     4  10  22  44  68  89 132 180 221 281 340 391
#     4  12  23  41  67 104 141 171 228 285 338 419
#
# _framework density 18.612053
#
# number of rings (size 3 to 8) (size 9 to 14) (size 15 to 20)
#    0.800    0.533    5.333    2.000    0.000    1.067 
#    3.600    0.000    0.000    0.000    0.000    0.000 
#    0.000    0.000    0.000    0.000    0.000    0.000 
#
# Total GULP energy -167248.966941 kJ/mol
# GULP energy per Si atom -5574.965565 kJ/mol
# Density = 1.856969 g / cm^3
# Si number density = 18.612053 Si / 1000 Ang^3
#
#
#
# Elastic Constant Matrix: (Units=GPa)
#
#
# Indices 1 2 3 4 5 6 
#
# 1 71.8930 29.4533 43.2216 0.0000 0.0000 0.0000
# 2 29.4533 106.2798 36.0957 0.0000 0.0000 0.0000
# 3 43.2216 36.0957 120.2392 0.0000 0.0000 0.0000
# 4 0.0000 0.0000 0.0000 25.3616 0.0000 0.0000
# 5 0.0000 0.0000 0.0000 0.0000 32.4000 0.0000
# 6 0.0000 0.0000 0.0000 0.0000 0.0000 20.7642
#
#
#
# Elastic Compliance Matrix: (Units=1/GPa)
#
#
# Indices 1 2 3 4 5 6 
#
# 1 0.018688 -0.003226 -0.005749 0.000000 0.000000 0.000000
# 2 -0.003226 0.011034 -0.002153 0.000000 0.000000 0.000000
# 3 -0.005749 -0.002153 0.011030 0.000000 0.000000 0.000000
# 4 0.000000 0.000000 0.000000 0.039430 0.000000 0.000000
# 5 0.000000 0.000000 0.000000 0.000000 0.030864 0.000000
# 6 0.000000 0.000000 0.000000 0.000000 0.000000 0.048160
#
#
# Mechanical properties :
#
#
# Convention : Reuss Voigt Hill
#
# Bulk Modulus (GPa) = 54.06759 57.32813 55.69786
# Shear Modulus (GPa) = 26.64867 28.34791 27.49829
#
# Velocity S-wave (km/s) = 3.78801 3.90692 3.84793
# Velocity P-wave (km/s) = 6.94586 7.15685 7.05214
#
# Compressibility (1/GPa) = 0.01849537
#
# Stress axis : x y z
#
# Youngs Moduli (GPa) = 53.51142 90.62575 90.66563
#
# Poissons Ratio (x) = 0.29239 0.52123
# Poissons Ratio (y) = 0.17265 0.19518
# Poissons Ratio (z) = 0.30763 0.19509
#
# Static dielectric constant tensor:
#      x y z
#    x 1.638050 0.000000 0.000000 
#    y 0.000000 1.665640 0.000000 
#    z 0.000000 0.000000 1.648120 
# 
# From -- ./inp_files/18075.got.cif
#   From: 2010.05.17/outbox.cif.g08.bks.cpg/sg43_10_cif.got.tgz:18075.got - 2010.06.03 19:21:55.
