data_PCOD9370883
_publ_section_title
;
Structure prediction by ZEFSAII (Michael W. Deem and Ramdas Pophale) SiO2 
 PCOD9370883
Probable space group: F D D 2
;
_chemical_formula_sum "Si O2"
_cell_formula_units_Z 64
_cell_length_a 8.481641
_cell_length_b 14.618038
_cell_length_c 25.739364
_cell_angle_alpha 90.000000
_cell_angle_beta 90.000000
_cell_angle_gamma 90.000000
_cell_volume 3191.293770
_symmetry_space_group_name_H-M "F D D 2"
_symmetry_group_IT_number 43
_symmetry_cell_setting 'orthorhombic'
loop_
_space_group_symop_operation_xyz
x,y,z
-x,-y,z
1/4-x,1/4+y,1/4+z
1/4+x,1/4-y,1/4+z
x,1/2+y,1/2+z
-x,1/2-y,1/2+z
1/4-x,3/4+y,3/4+z
1/4+x,3/4-y,3/4+z
1/2+x,y,1/2+z
1/2-x,-y,1/2+z
3/4-x,1/4+y,3/4+z
3/4+x,1/4-y,3/4+z
1/2+x,1/2+y,z
1/2-x,1/2-y,z
3/4-x,3/4+y,1/4+z
3/4+x,3/4-y,1/4+z
loop_
_atom_site_type_symbol
_atom_site_label
_atom_site_fract_x
_atom_site_fract_y
_atom_site_fract_z
Si Si1 0.187360 0.350491 0.743630
Si Si2 0.667583 0.651118 0.228622
Si Si3 0.070050 0.762696 0.416956
Si Si4 0.978127 0.899600 0.333151
O O1 0.250000 0.250000 0.749811
O O2 0.307333 0.415370 0.714239
O O3 0.137491 0.390194 0.799040
O O4 0.018216 0.344611 0.714192
O O5 0.750000 0.750000 0.228628
O O6 0.749247 0.580809 0.189432
O O7 0.654865 0.611016 0.287982
O O8 0.250000 0.750000 0.400747
O O9 0.974225 0.814074 0.371622
O O10 0.000000 0.000000 0.358266
#
# Coordination Sequence:
#
# PCOD9370883 Si02
#       4
#    16  16  16  16
#     4  10  20  41  68  93 142 174 221 294 344 408
#     4  10  22  42  66 101 144 176 230 294 346 414
#     4  12  23  40  71 104 137 185 237 282 350 422
#     4  10  22  43  69  98 137 181 233 290 358 402
#
# _framework density 20.054562000000001
#
# number of rings (size 3 to 8) (size 9 to 14) (size 15 to 20)
#    1.500    0.000    2.500    3.750    0.000    2.000 
#    0.000    0.000    0.000    0.000    0.000    0.000 
#    0.000    0.000    0.000    0.000    0.000    0.000 
#
# Total GULP energy -89089.269099 kJ/mol
# GULP energy per Si atom -5568.079319 kJ/mol
# Density = 2.000892 g / cm^3
# Si number density = 20.054562 Si / 1000 Ang^3
#
#
#
# Elastic Constant Matrix: (Units=GPa)
#
#
# Indices 1 2 3 4 5 6 
#
# 1 59.6502 29.9260 5.0025 0.0000 0.0000 0.0000
# 2 29.9260 154.8247 32.4403 0.0000 0.0000 0.0000
# 3 5.0025 32.4403 73.3096 0.0000 0.0000 0.0000
# 4 0.0000 0.0000 0.0000 25.8538 0.0000 0.0000
# 5 0.0000 0.0000 0.0000 0.0000 16.9008 0.0000
# 6 0.0000 0.0000 0.0000 0.0000 0.0000 35.0911
#
#
#
# Elastic Compliance Matrix: (Units=1/GPa)
#
#
# Indices 1 2 3 4 5 6 
#
# 1 0.018573 -0.003664 0.000354 0.000000 0.000000 0.000000
# 2 -0.003664 0.007842 -0.003220 0.000000 0.000000 0.000000
# 3 0.000354 -0.003220 0.015042 0.000000 0.000000 0.000000
# 4 0.000000 0.000000 0.000000 0.038679 0.000000 0.000000
# 5 0.000000 0.000000 0.000000 0.000000 0.059169 0.000000
# 6 0.000000 0.000000 0.000000 0.000000 0.000000 0.028497
#
#
# Mechanical properties :
#
#
# Convention : Reuss Voigt Hill
#
# Bulk Modulus (GPa) = 35.21622 46.94691 41.08157
# Shear Modulus (GPa) = 26.27055 30.26351 28.26703
#
# Velocity S-wave (km/s) = 3.62325 3.88888 3.75841
# Velocity P-wave (km/s) = 5.92472 6.60491 6.27404
#
# Compressibility (1/GPa) = 0.02839601
#
# Stress axis : x y z
#
# Youngs Moduli (GPa) = 53.84166 127.52076 66.48251
#
# Poissons Ratio (x) = 0.46725 -0.02354
# Poissons Ratio (y) = 0.19728 0.21408
# Poissons Ratio (z) = -0.01906 0.41063
#
# Static dielectric constant tensor:
#      x y z
#    x 1.694510 0.000000 0.000000 
#    y 0.000000 1.697230 0.000000 
#    z 0.000000 0.000000 1.750660 
# 
# From -- ./inp_files/19932.got.cif
#   From: 2010.05.17/outbox.cif.g08.bks.cpg/sg43_10_cif.got.tgz:19932.got - 2010.06.03 19:21:55.
