data_PCOD9370652
_publ_section_title
;
Structure prediction by ZEFSAII (Michael W. Deem and Ramdas Pophale) SiO2 
 PCOD9370652
Probable space group: F D D 2
;
_chemical_formula_sum "Si O2"
_cell_formula_units_Z 120
_cell_length_a 22.301268
_cell_length_b 9.992009
_cell_length_c 21.118813
_cell_angle_alpha 90.000000
_cell_angle_beta 90.000000
_cell_angle_gamma 90.000000
_cell_volume 4705.999514
_symmetry_space_group_name_H-M "F D D 2"
_symmetry_group_IT_number 43
_symmetry_cell_setting 'orthorhombic'
loop_
_space_group_symop_operation_xyz
x,y,z
-x,-y,z
1/4-x,1/4+y,1/4+z
1/4+x,1/4-y,1/4+z
x,1/2+y,1/2+z
-x,1/2-y,1/2+z
1/4-x,3/4+y,3/4+z
1/4+x,3/4-y,3/4+z
1/2+x,y,1/2+z
1/2-x,-y,1/2+z
3/4-x,1/4+y,3/4+z
3/4+x,1/4-y,3/4+z
1/2+x,1/2+y,z
1/2-x,1/2-y,z
3/4-x,3/4+y,1/4+z
3/4+x,3/4-y,1/4+z
loop_
_atom_site_type_symbol
_atom_site_label
_atom_site_fract_x
_atom_site_fract_y
_atom_site_fract_z
Si Si1 0.880434 0.995289 0.872080
Si Si2 0.501310 0.222960 0.155784
Si Si3 0.231603 0.115005 0.723456
Si Si4 0.120619 0.410873 0.876079
Si Si5 0.500000 0.500000 0.082439
Si Si6 0.084582 0.636754 0.501746
Si Si7 0.603729 0.194739 0.907935
Si Si8 0.704440 0.125655 0.012206
O O1 0.814521 0.932726 0.885046
O O2 0.883104 0.028905 0.795070
O O3 0.888145 0.149321 0.894279
O O4 0.913206 0.907643 0.927843
O O5 0.558945 0.139035 0.134269
O O6 0.504601 0.374081 0.128743
O O7 0.509139 0.253056 0.230762
O O8 0.250000 0.250000 0.757991
O O9 0.167494 0.138564 0.690049
O O10 0.284742 0.084027 0.675379
O O11 0.223464 0.981502 0.761143
O O12 0.114897 0.569573 0.860701
O O13 0.082461 0.333215 0.824146
O O14 0.560445 0.510634 0.041077
O O15 0.650146 0.165416 0.964969
O O16 0.750000 0.250000 0.023012
#
# Coordination Sequence:
#
# PCOD9370652 Si02
#       8
#    16  16  16  16   8  16  16  16
#     4  11  24  41  70 102 144 181 234 299 372 446
#     4  10  20  38  58 100 132 179 228 297 359 430
#     4  10  23  46  64  93 128 179 242 286 358 439
#     4  10  22  36  61  93 132 174 231 293 353 431
#     4  10  20  40  68 100 138 174 248 290 376 448
#     4  11  24  43  68 101 140 190 237 295 366 447
#     4  10  21  36  63  98 129 175 224 293 361 419
#     4  11  18  31  59  94 126 162 220 293 351 407
#
# _framework density 25.499366999999999
#
# number of rings (size 3 to 8) (size 9 to 14) (size 15 to 20)
#    0.000    1.600    2.000    4.400    7.467    1.067 
#    7.200    0.667    2.933    0.000    0.000    0.000 
#    0.000    0.000    0.000    0.000    0.000    0.000 
#
# Total GULP energy -167017.077526 kJ/mol
# GULP energy per Si atom -5567.235918 kJ/mol
# Density = 2.544133 g / cm^3
# Si number density = 25.499367 Si / 1000 Ang^3
#
#
#
# Elastic Constant Matrix: (Units=GPa)
#
#
# Indices 1 2 3 4 5 6 
#
# 1 94.5412 2.2861 -10.1759 0.0000 0.0000 0.0000
# 2 2.2861 91.0826 21.0606 0.0000 0.0000 0.0000
# 3 -10.1759 21.0606 82.1943 0.0000 0.0000 0.0000
# 4 0.0000 0.0000 0.0000 24.3681 0.0000 0.0000
# 5 0.0000 0.0000 0.0000 0.0000 30.7389 0.0000
# 6 0.0000 0.0000 0.0000 0.0000 0.0000 24.1150
#
#
#
# Elastic Compliance Matrix: (Units=1/GPa)
#
#
# Indices 1 2 3 4 5 6 
#
# 1 0.010752 -0.000614 0.001489 0.000000 0.000000 0.000000
# 2 -0.000614 0.011706 -0.003075 0.000000 0.000000 0.000000
# 3 0.001489 -0.003075 0.013139 0.000000 0.000000 0.000000
# 4 0.000000 0.000000 0.000000 0.041037 0.000000 0.000000
# 5 0.000000 0.000000 0.000000 0.000000 0.032532 0.000000
# 6 0.000000 0.000000 0.000000 0.000000 0.000000 0.041468
#
#
# Mechanical properties :
#
#
# Convention : Reuss Voigt Hill
#
# Bulk Modulus (GPa) = 32.05659 32.68443 32.37051
# Shear Modulus (GPa) = 30.22357 32.82091 31.52224
#
# Velocity S-wave (km/s) = 3.44651 3.59155 3.51977
# Velocity P-wave (km/s) = 5.33261 5.48129 5.40746
#
# Compressibility (1/GPa) = 0.03119484
#
# Stress axis : x y z
#
# Youngs Moduli (GPa) = 93.00197 85.42960 76.11186
#
# Poissons Ratio (x) = 0.05246 -0.11329
# Poissons Ratio (y) = 0.05711 0.23407
# Poissons Ratio (z) = -0.13844 0.26272
#
# Static dielectric constant tensor:
#      x y z
#    x 2.048150 0.000000 0.000000 
#    y 0.000000 2.137740 0.000000 
#    z 0.000000 0.000000 2.140840 
# 
# From -- ./inp_files/18650.got.cif
#   From: 2010.05.17/outbox.cif.g08.bks.cpg/sg43_10_cif.got.tgz:18650.got - 2010.06.03 19:21:55.
