data_PCOD9370192
_publ_section_title
;
Structure prediction by ZEFSAII (Michael W. Deem and Ramdas Pophale) SiO2 
 PCOD9370192
Probable space group: F D D 2
;
_chemical_formula_sum "Si O2"
_cell_formula_units_Z 80
_cell_length_a 16.441094
_cell_length_b 29.530309
_cell_length_c 7.289290
_cell_angle_alpha 90.000000
_cell_angle_beta 90.000000
_cell_angle_gamma 90.000000
_cell_volume 3539.027460
_symmetry_space_group_name_H-M "F D D 2"
_symmetry_group_IT_number 43
_symmetry_cell_setting 'orthorhombic'
loop_
_space_group_symop_operation_xyz
x,y,z
-x,-y,z
1/4-x,1/4+y,1/4+z
1/4+x,1/4-y,1/4+z
x,1/2+y,1/2+z
-x,1/2-y,1/2+z
1/4-x,3/4+y,3/4+z
1/4+x,3/4-y,3/4+z
1/2+x,y,1/2+z
1/2-x,-y,1/2+z
3/4-x,1/4+y,3/4+z
3/4+x,1/4-y,3/4+z
1/2+x,1/2+y,z
1/2-x,1/2-y,z
3/4-x,3/4+y,1/4+z
3/4+x,3/4-y,1/4+z
loop_
_atom_site_type_symbol
_atom_site_label
_atom_site_fract_x
_atom_site_fract_y
_atom_site_fract_z
Si Si1 0.334294 0.313396 0.418640
Si Si2 0.529511 0.119193 0.887623
Si Si3 0.119207 0.570503 0.198230
Si Si4 0.173921 0.998619 0.435066
Si Si5 0.356286 0.473278 0.050651
O O1 0.391684 0.351717 0.333642
O O2 0.249911 0.332843 0.488489
O O3 0.380813 0.296054 0.604858
O O4 0.337258 0.268054 0.300450
O O5 0.453366 0.152883 0.911071
O O6 0.550613 0.095528 0.080989
O O7 0.110044 0.564245 0.414327
O O8 0.131458 0.520873 0.109021
O O9 0.267486 0.988262 0.474014
O O10 0.162108 0.034252 0.266583
#
# Coordination Sequence:
#
# PCOD9370192 Si02
#       5
#    16  16  16  16  16
#     4   9  20  35  63  92 129 164 222 246 339 367
#     4  10  20  35  64  97 124 170 199 291 319 365
#     4  11  20  39  65  87 135 166 217 262 332 371
#     4  10  18  34  63  90 119 176 214 248 309 407
#     4  10  18  35  62  93 118 180 216 251 305 417
#
# _framework density 22.605080999999998
#
# number of rings (size 3 to 8) (size 9 to 14) (size 15 to 20)
#    1.200    0.800    6.000    0.000    0.000    0.800 
#    0.000    2.000   26.400    0.000    0.000    0.000 
#    0.000    0.000    0.000    0.000    0.000    0.000 
#
# Total GULP energy -111596.270073 kJ/mol
# GULP energy per Si atom -5579.813504 kJ/mol
# Density = 2.255363 g / cm^3
# Si number density = 22.605081 Si / 1000 Ang^3
#
#
#
# Elastic Constant Matrix: (Units=GPa)
#
#
# Indices 1 2 3 4 5 6 
#
# 1 97.8325 18.7921 21.6747 -0.0001 -0.0003 0.0000
# 2 18.7921 24.8937 -12.5943 0.0000 0.0001 0.0000
# 3 21.6747 -12.5943 73.6970 -0.0002 -0.0007 0.0001
# 4 -0.0001 0.0000 -0.0002 34.9146 0.0001 0.0000
# 5 -0.0003 0.0001 -0.0007 0.0001 31.2021 -0.0001
# 6 0.0000 0.0000 0.0001 0.0000 -0.0001 2.2755
#
#
#
# Elastic Compliance Matrix: (Units=1/GPa)
#
#
# Indices 1 2 3 4 5 6 
#
# 1 0.014450 -0.014294 -0.006693 0.000000 0.000000 0.000000
# 2 -0.014294 0.058113 0.014135 0.000000 0.000000 0.000000
# 3 -0.006693 0.014135 0.017953 0.000000 0.000000 0.000000
# 4 0.000000 0.000000 0.000000 0.028641 0.000000 0.000000
# 5 0.000000 0.000000 0.000000 0.000000 0.032049 0.000001
# 6 0.000000 0.000000 0.000000 0.000000 0.000001 0.439462
#
#
# Mechanical properties :
#
#
# Convention : Reuss Voigt Hill
#
# Bulk Modulus (GPa) = 13.01877 28.01868 20.51872
# Shear Modulus (GPa) = 7.93682 24.91516 16.42599
#
# Velocity S-wave (km/s) = 1.87582 3.32353 2.69857
# Velocity P-wave (km/s) = 3.23471 5.21053 4.33664
#
# Compressibility (1/GPa) = 0.07681218
#
# Stress axis : x y z
#
# Youngs Moduli (GPa) = 69.20431 17.20798 55.70109
#
# Poissons Ratio (x) = 0.24597 0.37278
# Poissons Ratio (y) = 0.98921 -0.78734
# Poissons Ratio (z) = 0.46316 -0.24324
#
# Static dielectric constant tensor:
#      x y z
#    x 1.829170 0.000000 0.000000 
#    y 0.000000 1.857690 0.000000 
#    z 0.000000 0.000000 1.815770 
# 
# From -- ./inp_files/2859.got.cif
#   From: 2010.05.17/outbox.cif.g08.bks.cpg/sg43_2_cif.got.tgz:2859.got - 2010.06.03 19:21:55.
