data_PCOD9370348
_publ_section_title
;
Structure prediction by ZEFSAII (Michael W. Deem and Ramdas Pophale) SiO2 
 PCOD9370348
Probable space group: F D D 2
;
_chemical_formula_sum "Si O2"
_cell_formula_units_Z 112
_cell_length_a 13.803349
_cell_length_b 28.606825
_cell_length_c 11.953790
_cell_angle_alpha 90.000000
_cell_angle_beta 90.000000
_cell_angle_gamma 90.000000
_cell_volume 4720.192929
_symmetry_space_group_name_H-M "F D D 2"
_symmetry_group_IT_number 43
_symmetry_cell_setting 'orthorhombic'
loop_
_space_group_symop_operation_xyz
x,y,z
-x,-y,z
1/4-x,1/4+y,1/4+z
1/4+x,1/4-y,1/4+z
x,1/2+y,1/2+z
-x,1/2-y,1/2+z
1/4-x,3/4+y,3/4+z
1/4+x,3/4-y,3/4+z
1/2+x,y,1/2+z
1/2-x,-y,1/2+z
3/4-x,1/4+y,3/4+z
3/4+x,1/4-y,3/4+z
1/2+x,1/2+y,z
1/2-x,1/2-y,z
3/4-x,3/4+y,1/4+z
3/4+x,3/4-y,1/4+z
loop_
_atom_site_type_symbol
_atom_site_label
_atom_site_fract_x
_atom_site_fract_y
_atom_site_fract_z
Si Si1 0.176940 0.689470 0.753650
Si Si2 0.338700 0.808027 0.486038
Si Si3 0.385623 0.710359 0.460851
Si Si4 0.389930 0.634406 0.297795
Si Si5 0.587471 0.089516 0.805112
Si Si6 0.113306 0.782623 0.853258
Si Si7 0.293162 0.907937 0.423536
O O1 0.164962 0.696552 0.620530
O O2 0.144904 0.636434 0.772230
O O3 0.114379 0.728338 0.820530
O O4 0.286083 0.698654 0.795340
O O5 0.404504 0.764990 0.446106
O O6 0.229262 0.797687 0.445193
O O7 0.355715 0.860914 0.446611
O O8 0.434539 0.674357 0.376844
O O9 0.409642 0.692538 0.584121
O O10 0.475930 0.598535 0.271943
O O11 0.348732 0.660574 0.188776
O O12 0.307438 0.608238 0.368328
O O13 0.627556 0.046331 0.733310
O O14 0.034797 0.813973 0.788501
#
# Coordination Sequence:
#
# PCOD9370348 Si02
#       7
#    16  16  16  16  16  16  16
#     4  11  21  39  69 103 139 169 225 289 342 394
#     4  10  19  34  66 100 129 167 225 286 331 392
#     4  10  19  39  62  93 134 168 222 275 341 392
#     4  11  25  43  66  92 140 185 214 278 341 415
#     4  12  24  45  67  98 139 182 222 270 353 406
#     4  11  22  40  70 104 129 175 230 285 333 403
#     4  11  20  37  71  97 131 176 228 273 340 397
#
# _framework density 23.727843
#
# number of rings (size 3 to 8) (size 9 to 14) (size 15 to 20)
#    0.000    1.143    7.143    0.857    0.000    0.000 
#    0.000   14.286    3.143    0.000    0.000    0.000 
#    0.000    0.000    0.000    0.000    0.000    0.000 
#
# Total GULP energy -156591.850990 kJ/mol
# GULP energy per Si atom -5592.566107 kJ/mol
# Density = 2.367384 g / cm^3
# Si number density = 23.727843 Si / 1000 Ang^3
#
#
#
# Elastic Constant Matrix: (Units=GPa)
#
#
# Indices 1 2 3 4 5 6 
#
# 1 51.4582 24.0872 19.5164 0.0000 0.0000 0.0000
# 2 24.0872 110.2265 16.1179 0.0000 0.0000 0.0000
# 3 19.5164 16.1179 107.3698 0.0000 0.0000 0.0000
# 4 0.0000 0.0000 0.0000 32.6872 0.0000 0.0000
# 5 0.0000 0.0000 0.0000 0.0000 16.4744 0.0000
# 6 0.0000 0.0000 0.0000 0.0000 0.0000 30.9233
#
#
#
# Elastic Compliance Matrix: (Units=1/GPa)
#
#
# Indices 1 2 3 4 5 6 
#
# 1 0.022853 -0.004485 -0.003481 0.000000 0.000000 0.000000
# 2 -0.004485 0.010156 -0.000709 0.000000 0.000000 0.000000
# 3 -0.003481 -0.000709 0.010053 0.000000 0.000000 0.000000
# 4 0.000000 0.000000 0.000000 0.030593 0.000000 0.000000
# 5 0.000000 0.000000 0.000000 0.000000 0.060700 0.000000
# 6 0.000000 0.000000 0.000000 0.000000 0.000000 0.032338
#
#
# Mechanical properties :
#
#
# Convention : Reuss Voigt Hill
#
# Bulk Modulus (GPa) = 38.89291 43.16641 41.02966
# Shear Modulus (GPa) = 25.95877 29.97252 27.96565
#
# Velocity S-wave (km/s) = 3.31119 3.55798 3.43680
# Velocity P-wave (km/s) = 5.57184 5.92543 5.75136
#
# Compressibility (1/GPa) = 0.02571163
#
# Stress axis : x y z
#
# Youngs Moduli (GPa) = 43.75853 98.46372 99.47517
#
# Poissons Ratio (x) = 0.44160 0.34624
# Poissons Ratio (y) = 0.19625 0.07056
# Poissons Ratio (z) = 0.15231 0.06985
#
# Static dielectric constant tensor:
#      x y z
#    x 1.944960 0.000000 0.000000 
#    y 0.000000 1.913750 0.000000 
#    z 0.000000 0.000000 1.924890 
# 
# From -- ./inp_files/6307.got.cif
#   From: 2010.05.17/outbox.cif.g08.bks.cpg/sg43_4_cif.got.tgz:6307.got - 2010.06.03 19:21:55.
