data_PCOD9370776
_publ_section_title
;
Structure prediction by ZEFSAII (Michael W. Deem and Ramdas Pophale) SiO2 
 PCOD9370776
Probable space group: F D D 2
;
_chemical_formula_sum "Si O2"
_cell_formula_units_Z 80
_cell_length_a 28.242035
_cell_length_b 22.504729
_cell_length_c 4.953459
_cell_angle_alpha 90.000000
_cell_angle_beta 90.000000
_cell_angle_gamma 90.000000
_cell_volume 3148.316222
_symmetry_space_group_name_H-M "F D D 2"
_symmetry_group_IT_number 43
_symmetry_cell_setting 'orthorhombic'
loop_
_space_group_symop_operation_xyz
x,y,z
-x,-y,z
1/4-x,1/4+y,1/4+z
1/4+x,1/4-y,1/4+z
x,1/2+y,1/2+z
-x,1/2-y,1/2+z
1/4-x,3/4+y,3/4+z
1/4+x,3/4-y,3/4+z
1/2+x,y,1/2+z
1/2-x,-y,1/2+z
3/4-x,1/4+y,3/4+z
3/4+x,1/4-y,3/4+z
1/2+x,1/2+y,z
1/2-x,1/2-y,z
3/4-x,3/4+y,1/4+z
3/4+x,3/4-y,1/4+z
loop_
_atom_site_type_symbol
_atom_site_label
_atom_site_fract_x
_atom_site_fract_y
_atom_site_fract_z
Si Si1 0.339680 0.193821 0.029230
Si Si2 0.805668 0.933173 0.719446
Si Si3 0.341593 0.613340 0.025188
Si Si4 0.251574 0.081146 0.217521
Si Si5 0.190150 0.679717 0.557942
O O1 0.393912 0.213710 0.983323
O O2 0.341059 0.171686 0.335978
O O3 0.308335 0.251731 0.986882
O O4 0.330175 0.138345 0.824403
O O5 0.788480 0.940464 0.420093
O O6 0.763115 0.946507 0.930042
O O7 0.815938 0.864333 0.802051
O O8 0.300551 0.575577 0.875862
O O9 0.393063 0.583505 0.988255
O O10 0.237613 0.151498 0.187160
#
# Coordination Sequence:
#
# PCOD9370776 Si02
#       5
#    16  16  16  16  16
#     4  11  21  38  62  87 117 163 202 251 310 374
#     4   9  19  39  55  82 122 153 195 258 299 361
#     4  11  23  39  62  87 120 162 203 246 320 366
#     4  10  20  40  57  83 126 152 197 261 303 359
#     4   9  23  38  61  84 125 158 201 256 307 364
#
# _framework density 25.410409999999999
#
# number of rings (size 3 to 8) (size 9 to 14) (size 15 to 20)
#    1.200    0.800    2.000    1.200    2.800    0.800 
#    0.000    2.000    0.000    0.000    0.000    0.000 
#    0.000    0.000    0.000    0.000    0.000    0.000 
#
# Total GULP energy -111593.097480 kJ/mol
# GULP energy per Si atom -5579.654874 kJ/mol
# Density = 2.535258 g / cm^3
# Si number density = 25.410410 Si / 1000 Ang^3
#
#
#
# Elastic Constant Matrix: (Units=GPa)
#
#
# Indices 1 2 3 4 5 6 
#
# 1 102.7371 10.1433 -7.5929 0.0596 0.0956 -0.0079
# 2 10.1433 79.2402 -5.7471 0.1204 0.2301 0.0649
# 3 -7.5929 -5.7471 89.1796 0.1263 0.3517 0.1121
# 4 0.0596 0.1204 0.1263 -20.8033 0.0170 0.0248
# 5 0.0956 0.2301 0.3517 0.0170 34.3757 -0.0808
# 6 -0.0079 0.0649 0.1121 0.0248 -0.0808 43.2770
#
#
#
# Elastic Compliance Matrix: (Units=1/GPa)
#
#
# Indices 1 2 3 4 5 6 
#
# 1 0.009910 -0.001213 0.000766 0.000026 -0.000027 0.000002
# 2 -0.001213 0.012828 0.000724 0.000075 -0.000090 -0.000022
# 3 0.000766 0.000724 0.011326 0.000075 -0.000123 -0.000031
# 4 0.000026 0.000075 0.000075 -0.048068 0.000022 0.000027
# 5 -0.000027 -0.000090 -0.000123 0.000022 0.029092 0.000055
# 6 0.000002 -0.000022 -0.000031 0.000027 0.000055 0.023107
#
#
# Mechanical properties :
#
#
# Convention : Reuss Voigt Hill
#
# Bulk Modulus (GPa) = 28.88838 29.41816 29.15327
# Shear Modulus (GPa) = 101.66642 29.66013 65.66327
#
# Velocity S-wave (km/s) = 6.33219 3.42020 5.08893
# Velocity P-wave (km/s) = 8.05329 5.21530 6.78435
#
# Compressibility (1/GPa) = 0.03461599
#
# Stress axis : x y z
#
# Youngs Moduli (GPa) = 100.90879 77.95583 88.29581
#
# Poissons Ratio (x) = 0.09456 -0.06760
# Poissons Ratio (y) = 0.12240 -0.06390
# Poissons Ratio (z) = -0.07726 -0.05641
#
# Static dielectric constant tensor:
#      x y z
#    x 2.067970 -0.000550 0.000410 
#    y -0.000550 2.083420 -0.000150 
#    z 0.000410 -0.000150 1.918340 
# 
# From -- ./inp_files/1360.got.cif
#   From: 2010.05.17/outbox.cif.g08.bks.cpg/sg43_1_cif.got.tgz:1360.got - 2010.06.03 19:21:55.
