data_PCOD9370019
_publ_section_title
;
Structure prediction by ZEFSAII (Michael W. Deem and Ramdas Pophale) SiO2 
 PCOD9370019
Probable space group: F M M 2
;
_chemical_formula_sum "Si O2"
_cell_formula_units_Z 20
_cell_length_a 27.000000
_cell_length_b 9.000000
_cell_length_c 18.000000
_cell_angle_alpha 90.000000
_cell_angle_beta 90.000000
_cell_angle_gamma 90.000000
_cell_volume 4374.000000
_symmetry_space_group_name_H-M "F M M 2"
_symmetry_group_IT_number 42
_symmetry_cell_setting 'orthorhombic'
loop_
_space_group_symop_operation_xyz
x,y,z
-x,-y,z
-x,y,z
x,-y,z
x,1/2+y,1/2+z
-x,1/2-y,1/2+z
-x,1/2+y,1/2+z
x,1/2-y,1/2+z
1/2+x,y,1/2+z
1/2-x,-y,1/2+z
1/2-x,y,1/2+z
1/2+x,-y,1/2+z
1/2+x,1/2+y,z
1/2-x,1/2-y,z
1/2-x,1/2+y,z
1/2+x,1/2-y,z
loop_
_atom_site_type_symbol
_atom_site_label
_atom_site_fract_x
_atom_site_fract_y
_atom_site_fract_z
Si Si1 0.000000 0.179243 0.080060
Si Si2 0.103241 0.677339 0.656991
Si Si3 0.197777 0.319591 0.077801
Si Si4 0.802897 0.318716 0.412216
Si Si5 0.899842 0.677711 0.835157
Si Si6 0.500000 0.819790 0.404201
O O1 0.948653 0.227950 0.119117
O O2 0.000000 0.000000 0.086965
O O3 0.000000 0.214315 0.992563
O O4 0.109856 0.500000 0.640778
O O5 0.150469 0.766196 0.625345
O O6 0.099314 0.693709 0.745816
O O7 0.200765 0.500000 0.073911
O O8 0.250000 0.250000 0.106438
O O9 0.191588 0.247291 0.995712
O O10 0.801118 0.500000 0.412816
O O11 0.750000 0.250000 0.384818
O O12 0.850640 0.258690 0.367147
O O13 0.898200 0.500000 0.852214
O O14 0.950057 0.749917 0.868716
O O15 0.500000 0.000000 0.395270
#
# Coordination Sequence:
#
# PCOD9370019 Si02
#       6
#     8  16  16  16  16   8
#     4   9  19  37  61  85 110 149 194 235 285 342
#     4  10  21  39  61  85 117 156 196 240 292 348
#     4  11  22  38  61  88 118 153 196 243 292 350
#     4  11  22  39  62  87 118 155 198 246 296 352
#     4  11  23  39  60  87 120 158 200 245 294 350
#     4  11  22  37  61  89 118 155 200 247 295 352
#
# _framework density 4.5724739999999997
#
# number of rings (size 3 to 8) (size 9 to 14) (size 15 to 20)
#    0.000    1.400    0.000    7.500    0.000    5.600 
#    0.000    1.500    0.000    0.000    0.000    0.000 
#    0.000    0.000    0.000    0.000    0.000    0.000 
#
# Total GULP energy -111753.712294 kJ/mol
# GULP energy per Si atom -5587.685615 kJ/mol
# Density = 0.456207 g / cm^3
# Si number density = 4.572474 Si / 1000 Ang^3
#
#
#
# Elastic Constant Matrix: (Units=GPa)
#
#
# Indices 1 2 3 4 5 6 
#
# 1 220.3268 89.1329 84.1227 0.0000 0.0000 0.0000
# 2 89.1329 169.6379 56.8876 0.0000 0.0000 0.0000
# 3 84.1227 56.8876 94.7937 0.0000 0.0000 0.0000
# 4 0.0000 0.0000 0.0000 29.9257 0.0000 0.0000
# 5 0.0000 0.0000 0.0000 0.0000 35.0096 0.0000
# 6 0.0000 0.0000 0.0000 0.0000 0.0000 43.3298
#
#
#
# Elastic Compliance Matrix: (Units=1/GPa)
#
#
# Indices 1 2 3 4 5 6 
#
# 1 0.007427 -0.002118 -0.005319 0.000000 0.000000 0.000000
# 2 -0.002118 0.007984 -0.002912 0.000000 0.000000 0.000000
# 3 -0.005319 -0.002912 0.017017 0.000000 0.000000 0.000000
# 4 0.000000 0.000000 0.000000 0.033416 0.000000 0.000000
# 5 0.000000 0.000000 0.000000 0.000000 0.028564 0.000000
# 6 0.000000 0.000000 0.000000 0.000000 0.000000 0.023079
#
#
# Mechanical properties :
#
#
# Convention : Reuss Voigt Hill
#
# Bulk Modulus (GPa) = 85.25614 105.00498 95.13056
# Shear Modulus (GPa) = 35.18765 38.62739 36.90752
#
# Velocity S-wave (km/s) = 4.39097 4.60058 4.49700
# Velocity P-wave (km/s) = 8.51014 9.26049 8.89323
#
# Compressibility (1/GPa) = 0.01172936
#
# Stress axis : x y z
#
# Youngs Moduli (GPa) = 134.64967 125.24443 58.76418
#
# Poissons Ratio (x) = 0.26531 0.31259
# Poissons Ratio (y) = 0.28524 0.17110
# Poissons Ratio (z) = 0.71625 0.36467
#
# Static dielectric constant tensor:
#      x y z
#    x 1.622360 0.000000 0.000000 
#    y 0.000000 1.619030 0.000000 
#    z 0.000000 0.000000 1.623620 
# 
# From -- ./inp_files/22450.got.cif
#   From: 2010.05.17/outbox.ucp.g08.bks.cvg/sg42_12_cif.got.tgz:22450.got - 2010.06.11 16:29:10.
