data_PCOD9370678
_publ_section_title
;
Structure prediction by ZEFSAII (Michael W. Deem and Ramdas Pophale) SiO2 
 PCOD9370678
Probable space group: F D D 2
;
_chemical_formula_sum "Si O2"
_cell_formula_units_Z 88
_cell_length_a 16.686026
_cell_length_b 9.410742
_cell_length_c 23.171067
_cell_angle_alpha 90.000000
_cell_angle_beta 90.000000
_cell_angle_gamma 90.000000
_cell_volume 3638.503660
_symmetry_space_group_name_H-M "F D D 2"
_symmetry_group_IT_number 43
_symmetry_cell_setting 'orthorhombic'
loop_
_space_group_symop_operation_xyz
x,y,z
-x,-y,z
1/4-x,1/4+y,1/4+z
1/4+x,1/4-y,1/4+z
x,1/2+y,1/2+z
-x,1/2-y,1/2+z
1/4-x,3/4+y,3/4+z
1/4+x,3/4-y,3/4+z
1/2+x,y,1/2+z
1/2-x,-y,1/2+z
3/4-x,1/4+y,3/4+z
3/4+x,1/4-y,3/4+z
1/2+x,1/2+y,z
1/2-x,1/2-y,z
3/4-x,3/4+y,1/4+z
3/4+x,3/4-y,1/4+z
loop_
_atom_site_type_symbol
_atom_site_label
_atom_site_fract_x
_atom_site_fract_y
_atom_site_fract_z
Si Si1 0.500000 0.500000 0.905270
Si Si2 0.653511 0.358308 0.871273
Si Si3 0.340518 0.211632 0.612821
Si Si4 0.065329 0.127851 0.709960
Si Si5 0.438450 0.831351 0.504164
Si Si6 0.942988 0.332940 0.748757
O O1 0.579425 0.470989 0.868855
O O2 0.493825 0.368082 0.950057
O O3 0.714919 0.401071 0.820179
O O4 0.693185 0.371259 0.932880
O O5 0.614400 0.203029 0.870646
O O6 0.250000 0.250000 0.632753
O O7 0.401691 0.307223 0.649724
O O8 0.331851 0.207170 0.542590
O O9 0.025090 0.243592 0.752621
O O10 0.141821 0.060980 0.741349
O O11 0.000000 0.000000 0.700176
O O12 0.374035 0.960030 0.502662
#
# Coordination Sequence:
#
# PCOD9370678 Si02
#       6
#     8  16  16  16  16  16
#     4  10  20  38  62  94 130 166 222 272 332 404
#     4  10  22  38  64  93 126 180 215 275 339 405
#     4  11  24  40  65  96 137 173 225 288 345 413
#     4  10  22  44  67  98 135 182 230 280 348 421
#     4   9  20  39  64  92 125 170 227 267 327 407
#     4   9  22  40  63  92 129 170 221 274 343 409
#
# _framework density 24.185766999999998
#
# number of rings (size 3 to 8) (size 9 to 14) (size 15 to 20)
#    0.000    2.182    0.000    1.091    8.909    4.364 
#    0.000    0.909    0.000    0.000    0.000    0.000 
#    0.000    0.000    0.000    0.000    0.000    0.000 
#
# Total GULP energy -122758.340328 kJ/mol
# GULP energy per Si atom -5579.924560 kJ/mol
# Density = 2.413072 g / cm^3
# Si number density = 24.185767 Si / 1000 Ang^3
#
#
#
# Elastic Constant Matrix: (Units=GPa)
#
#
# Indices 1 2 3 4 5 6 
#
# 1 58.1853 16.2258 5.3487 0.0000 0.0000 0.0000
# 2 16.2258 75.8965 38.8916 0.0000 0.0000 0.0000
# 3 5.3487 38.8916 119.5021 0.0000 0.0000 0.0000
# 4 0.0000 0.0000 0.0000 33.1557 0.0000 0.0000
# 5 0.0000 0.0000 0.0000 0.0000 24.2500 0.0000
# 6 0.0000 0.0000 0.0000 0.0000 0.0000 55.2575
#
#
#
# Elastic Compliance Matrix: (Units=1/GPa)
#
#
# Indices 1 2 3 4 5 6 
#
# 1 0.018306 -0.004193 0.000545 0.000000 0.000000 0.000000
# 2 -0.004193 0.016773 -0.005271 0.000000 0.000000 0.000000
# 3 0.000545 -0.005271 0.010059 0.000000 0.000000 0.000000
# 4 0.000000 0.000000 0.000000 0.030161 0.000000 0.000000
# 5 0.000000 0.000000 0.000000 0.000000 0.041237 0.000000
# 6 0.000000 0.000000 0.000000 0.000000 0.000000 0.018097
#
#
# Mechanical properties :
#
#
# Convention : Reuss Voigt Hill
#
# Bulk Modulus (GPa) = 36.62948 41.61288 39.12118
# Shear Modulus (GPa) = 30.94619 35.40717 33.17668
#
# Velocity S-wave (km/s) = 3.58092 3.83033 3.70772
# Velocity P-wave (km/s) = 5.68113 6.06670 5.87708
#
# Compressibility (1/GPa) = 0.02730041
#
# Stress axis : x y z
#
# Youngs Moduli (GPa) = 54.62802 59.61841 99.41219
#
# Poissons Ratio (x) = 0.24998 -0.05421
# Poissons Ratio (y) = 0.22905 0.52402
# Poissons Ratio (z) = -0.02979 0.31426
#
# Static dielectric constant tensor:
#      x y z
#    x 2.020240 0.000000 0.000000 
#    y 0.000000 1.999510 0.000000 
#    z 0.000000 0.000000 2.077310 
# 
# From -- ./inp_files/22352.got.cif
#   From: 2010.05.17/outbox.cif.g08.bks.cpg/sg43_12_cif.got.tgz:22352.got - 2010.06.03 19:21:55.
