data_PCOD9370726
_publ_section_title
;
Structure prediction by ZEFSAII (Michael W. Deem and Ramdas Pophale) SiO2 
 PCOD9370726
Probable space group: F D D 2
;
_chemical_formula_sum "Si O2"
_cell_formula_units_Z 112
_cell_length_a 20.598037
_cell_length_b 20.338695
_cell_length_c 13.535160
_cell_angle_alpha 90.000000
_cell_angle_beta 90.000000
_cell_angle_gamma 90.000000
_cell_volume 5670.381926
_symmetry_space_group_name_H-M "F D D 2"
_symmetry_group_IT_number 43
_symmetry_cell_setting 'orthorhombic'
loop_
_space_group_symop_operation_xyz
x,y,z
-x,-y,z
1/4-x,1/4+y,1/4+z
1/4+x,1/4-y,1/4+z
x,1/2+y,1/2+z
-x,1/2-y,1/2+z
1/4-x,3/4+y,3/4+z
1/4+x,3/4-y,3/4+z
1/2+x,y,1/2+z
1/2-x,-y,1/2+z
3/4-x,1/4+y,3/4+z
3/4+x,1/4-y,3/4+z
1/2+x,1/2+y,z
1/2-x,1/2-y,z
3/4-x,3/4+y,1/4+z
3/4+x,3/4-y,1/4+z
loop_
_atom_site_type_symbol
_atom_site_label
_atom_site_fract_x
_atom_site_fract_y
_atom_site_fract_z
Si Si1 0.323714 0.042376 0.509270
Si Si2 0.317279 0.789178 0.597545
Si Si3 0.633216 0.971953 0.136172
Si Si4 0.363404 0.418378 0.346727
Si Si5 0.438561 0.153592 0.793039
Si Si6 0.187395 0.710474 0.194506
Si Si7 0.466714 0.185887 0.411074
O O1 0.373113 0.020796 0.422503
O O2 0.343944 0.116902 0.535661
O O3 0.246404 0.052193 0.496258
O O4 0.323463 0.990707 0.599686
O O5 0.250000 0.750000 0.615358
O O6 0.341913 0.781807 0.485516
O O7 0.300977 0.865256 0.616938
O O8 0.706414 0.947471 0.153794
O O9 0.641035 0.047334 0.100889
O O10 0.601423 0.936668 0.040990
O O11 0.345623 0.377663 0.445169
O O12 0.396340 0.485639 0.382920
O O13 0.304491 0.436095 0.274843
O O14 0.457371 0.097709 0.870518
O O15 0.250000 0.750000 0.231128
#
# Coordination Sequence:
#
# PCOD9370726 Si02
#       7
#    16  16  16  16  16  16  16
#     4  10  21  41  60  88 122 157 203 250 303 364
#     4  11  25  41  63  92 124 161 209 250 307 371
#     4  10  24  41  60  90 125 165 204 254 305 372
#     4  10  20  39  60  93 120 155 204 252 306 366
#     4  10  21  38  63  88 122 161 201 254 308 359
#     4  11  21  38  64  92 124 159 207 255 309 362
#     4  10  23  41  64  88 122 162 204 252 312 362
#
# _framework density 19.751756
#
# number of rings (size 3 to 8) (size 9 to 14) (size 15 to 20)
#    0.000    1.714    1.429    2.143    4.000    0.000 
#    2.571    2.143    0.000    0.000    0.000    0.000 
#    0.000    0.000    0.000    0.000    0.000    0.000 
#
# Total GULP energy -156045.711216 kJ/mol
# GULP energy per Si atom -5573.061115 kJ/mol
# Density = 1.970680 g / cm^3
# Si number density = 19.751756 Si / 1000 Ang^3
#
#
#
# Elastic Constant Matrix: (Units=GPa)
#
#
# Indices 1 2 3 4 5 6 
#
# 1 90.0707 14.3508 56.0789 0.0000 0.0000 0.0000
# 2 14.3508 48.9213 32.1353 0.0000 0.0000 0.0000
# 3 56.0789 32.1353 132.4341 0.0000 0.0000 0.0000
# 4 0.0000 0.0000 0.0000 20.7130 0.0000 0.0000
# 5 0.0000 0.0000 0.0000 0.0000 37.1008 0.0000
# 6 0.0000 0.0000 0.0000 0.0000 0.0000 23.7903
#
#
#
# Elastic Compliance Matrix: (Units=1/GPa)
#
#
# Indices 1 2 3 4 5 6 
#
# 1 0.015081 -0.000273 -0.006320 0.000000 0.000000 0.000000
# 2 -0.000273 0.024322 -0.005786 0.000000 0.000000 0.000000
# 3 -0.006320 -0.005786 0.011631 0.000000 0.000000 0.000000
# 4 0.000000 0.000000 0.000000 0.048279 0.000000 0.000000
# 5 0.000000 0.000000 0.000000 0.000000 0.026954 0.000000
# 6 0.000000 0.000000 0.000000 0.000000 0.000000 0.042034
#
#
# Mechanical properties :
#
#
# Convention : Reuss Voigt Hill
#
# Bulk Modulus (GPa) = 38.05709 52.95067 45.50388
# Shear Modulus (GPa) = 24.77511 27.57824 26.17667
#
# Velocity S-wave (km/s) = 3.54549 3.74069 3.64439
# Velocity P-wave (km/s) = 6.00584 6.74709 6.38723
#
# Compressibility (1/GPa) = 0.02627632
#
# Stress axis : x y z
#
# Youngs Moduli (GPa) = 66.31077 41.11533 85.97691
#
# Poissons Ratio (x) = 0.01121 0.54335
# Poissons Ratio (y) = 0.01807 0.49749
# Poissons Ratio (z) = 0.41906 0.23791
#
# Static dielectric constant tensor:
#      x y z
#    x 1.743430 0.000000 0.000000 
#    y 0.000000 1.681010 0.000000 
#    z 0.000000 0.000000 1.701090 
# 
# From -- ./inp_files/7174.got.cif
#   From: 2010.05.17/outbox.cif.g08.bks.cpg/sg43_4_cif.got.tgz:7174.got - 2010.06.03 19:21:55.
