data_PCOD9370266
_publ_section_title
;
Structure prediction by ZEFSAII (Michael W. Deem and Ramdas Pophale) SiO2 
 PCOD9370266
Probable space group: F D D 2
;
_chemical_formula_sum "Si O2"
_cell_formula_units_Z 96
_cell_length_a 12.067057
_cell_length_b 21.594633
_cell_length_c 14.589609
_cell_angle_alpha 90.000000
_cell_angle_beta 90.000000
_cell_angle_gamma 90.000000
_cell_volume 3801.813818
_symmetry_space_group_name_H-M "F D D 2"
_symmetry_group_IT_number 43
_symmetry_cell_setting 'orthorhombic'
loop_
_space_group_symop_operation_xyz
x,y,z
-x,-y,z
1/4-x,1/4+y,1/4+z
1/4+x,1/4-y,1/4+z
x,1/2+y,1/2+z
-x,1/2-y,1/2+z
1/4-x,3/4+y,3/4+z
1/4+x,3/4-y,3/4+z
1/2+x,y,1/2+z
1/2-x,-y,1/2+z
3/4-x,1/4+y,3/4+z
3/4+x,1/4-y,3/4+z
1/2+x,1/2+y,z
1/2-x,1/2-y,z
3/4-x,3/4+y,1/4+z
3/4+x,3/4-y,1/4+z
loop_
_atom_site_type_symbol
_atom_site_label
_atom_site_fract_x
_atom_site_fract_y
_atom_site_fract_z
Si Si1 0.533220 0.899235 0.217060
Si Si2 0.989922 0.313230 0.374917
Si Si3 0.439984 0.633432 0.200894
Si Si4 0.590178 0.909920 0.522145
Si Si5 0.033349 0.319035 0.969224
Si Si6 0.166130 0.981163 0.869239
O O1 0.610810 0.917470 0.132100
O O2 0.534204 0.835294 0.276043
O O3 0.406153 0.910873 0.191247
O O4 0.587168 0.946050 0.294784
O O5 0.001155 0.242279 0.408567
O O6 0.038331 0.359220 0.453490
O O7 0.531549 0.635047 0.280104
O O8 0.315827 0.617808 0.224772
O O9 0.469004 0.695625 0.144000
O O10 0.467842 0.584732 0.119134
O O11 0.603090 0.971684 0.463917
O O12 0.052648 0.294029 0.072578
#
# Coordination Sequence:
#
# PCOD9370266 Si02
#       6
#    16  16  16  16  16  16
#     4  10  20  36  63  85 117 166 209 260 311 379
#     4  10  18  39  60  85 122 157 213 258 305 375
#     4  10  20  35  62  87 124 166 209 266 333 381
#     4   9  17  37  60  86 124 162 202 279 306 380
#     4  11  21  36  63  92 120 175 204 260 343 375
#     4   8  18  37  60  82 124 160 212 265 306 390
#
# _framework density 25.251104999999999
#
# number of rings (size 3 to 8) (size 9 to 14) (size 15 to 20)
#    1.000    1.333    3.333    2.000    0.000    2.000 
#    3.000    0.000    3.667    0.000    0.000    0.000 
#    0.000    0.000    0.000    0.000    0.000    0.000 
#
# Total GULP energy -133744.417140 kJ/mol
# GULP energy per Si atom -5572.684048 kJ/mol
# Density = 2.519363 g / cm^3
# Si number density = 25.251105 Si / 1000 Ang^3
#
#
#
# Elastic Constant Matrix: (Units=GPa)
#
#
# Indices 1 2 3 4 5 6 
#
# 1 177.4326 50.3911 -12.2408 0.0000 0.0000 0.0000
# 2 50.3911 88.8830 9.8506 0.0000 0.0000 0.0000
# 3 -12.2408 9.8506 73.4305 0.0000 0.0000 0.0000
# 4 0.0000 0.0000 0.0000 32.0715 0.0000 0.0000
# 5 0.0000 0.0000 0.0000 0.0000 38.7120 0.0000
# 6 0.0000 0.0000 0.0000 0.0000 0.0000 47.0145
#
#
#
# Elastic Compliance Matrix: (Units=1/GPa)
#
#
# Indices 1 2 3 4 5 6 
#
# 1 0.006922 -0.004113 0.001706 0.000000 0.000000 0.000000
# 2 -0.004113 0.013865 -0.002546 0.000000 0.000000 0.000000
# 3 0.001706 -0.002546 0.014244 0.000000 0.000000 0.000000
# 4 0.000000 0.000000 0.000000 0.031180 0.000000 0.000000
# 5 0.000000 0.000000 0.000000 0.000000 0.025832 0.000000
# 6 0.000000 0.000000 0.000000 0.000000 0.000000 0.021270
#
#
# Mechanical properties :
#
#
# Convention : Reuss Voigt Hill
#
# Bulk Modulus (GPa) = 39.80211 48.41642 44.10927
# Shear Modulus (GPa) = 37.99563 43.00929 40.50246
#
# Velocity S-wave (km/s) = 3.88327 4.13154 4.00933
# Velocity P-wave (km/s) = 5.99192 6.47882 6.24012
#
# Compressibility (1/GPa) = 0.02512430
#
# Stress axis : x y z
#
# Youngs Moduli (GPa) = 144.47148 72.12496 70.20433
#
# Poissons Ratio (x) = 0.29667 -0.11974
# Poissons Ratio (y) = 0.59425 0.17871
# Poissons Ratio (z) = -0.24642 0.18360
#
# Static dielectric constant tensor:
#      x y z
#    x 2.066010 0.000000 0.000000 
#    y 0.000000 2.039910 0.000000 
#    z 0.000000 0.000000 2.079820 
# 
# From -- ./inp_files/17307.got.cif
#   From: 2010.05.17/outbox.cif.g08.bks.cpg/sg43_9_cif.got.tgz:17307.got - 2010.06.03 19:21:55.
