data_PCOD9370270
_publ_section_title
;
Structure prediction by ZEFSAII (Michael W. Deem and Ramdas Pophale) SiO2 
 PCOD9370270
Probable space group: F D D 2
;
_chemical_formula_sum "Si O2"
_cell_formula_units_Z 80
_cell_length_a 24.611365
_cell_length_b 18.055183
_cell_length_c 8.956796
_cell_angle_alpha 90.000000
_cell_angle_beta 90.000000
_cell_angle_gamma 90.000000
_cell_volume 3980.066045
_symmetry_space_group_name_H-M "F D D 2"
_symmetry_group_IT_number 43
_symmetry_cell_setting 'orthorhombic'
loop_
_space_group_symop_operation_xyz
x,y,z
-x,-y,z
1/4-x,1/4+y,1/4+z
1/4+x,1/4-y,1/4+z
x,1/2+y,1/2+z
-x,1/2-y,1/2+z
1/4-x,3/4+y,3/4+z
1/4+x,3/4-y,3/4+z
1/2+x,y,1/2+z
1/2-x,-y,1/2+z
3/4-x,1/4+y,3/4+z
3/4+x,1/4-y,3/4+z
1/2+x,1/2+y,z
1/2-x,1/2-y,z
3/4-x,3/4+y,1/4+z
3/4+x,3/4-y,1/4+z
loop_
_atom_site_type_symbol
_atom_site_label
_atom_site_fract_x
_atom_site_fract_y
_atom_site_fract_z
Si Si1 0.214833 0.929573 0.358710
Si Si2 0.653511 0.886701 0.423774
Si Si3 0.953758 0.271840 0.426986
Si Si4 0.233540 0.132454 0.599768
Si Si5 0.605477 0.466185 0.194705
O O1 0.220016 0.928862 0.535524
O O2 0.243125 0.862410 0.268335
O O3 0.153402 0.940976 0.306080
O O4 0.246941 0.999779 0.287119
O O5 0.659238 0.937007 0.276598
O O6 0.713035 0.886681 0.503413
O O7 0.639302 0.801478 0.398960
O O8 0.612117 0.919692 0.543813
O O9 0.943378 0.189856 0.357123
O O10 0.200151 0.198555 0.529372
#
# Coordination Sequence:
#
# PCOD9370270 Si02
#       5
#    16  16  16  16  16
#     4   9  19  36  63  84 123 164 204 251 324 366
#     4  11  23  37  65  92 125 169 207 265 321 381
#     4  10  18  40  60  89 120 165 206 259 315 374
#     4   9  19  38  59  86 124 166 201 259 312 380
#     4  11  22  39  61  95 123 165 213 253 322 388
#
# _framework density 20.100169999999999
#
# number of rings (size 3 to 8) (size 9 to 14) (size 15 to 20)
#    1.200    0.800    2.000    1.800    0.000    1.600 
#    0.000    0.000    0.000    7.200    0.000    0.000 
#    0.000    0.000    0.000    0.000    0.000    0.000 
#
# Total GULP energy -111341.145906 kJ/mol
# GULP energy per Si atom -5567.057295 kJ/mol
# Density = 2.005442 g / cm^3
# Si number density = 20.100170 Si / 1000 Ang^3
#
#
#
# Elastic Constant Matrix: (Units=GPa)
#
#
# Indices 1 2 3 4 5 6 
#
# 1 52.2686 3.9900 10.3574 0.0000 0.0000 0.0000
# 2 3.9900 60.4050 -7.2253 0.0000 0.0000 0.0000
# 3 10.3574 -7.2253 86.4230 0.0000 0.0000 0.0000
# 4 0.0000 0.0000 0.0000 14.1412 0.0000 0.0000
# 5 0.0000 0.0000 0.0000 0.0000 11.0181 0.0000
# 6 0.0000 0.0000 0.0000 0.0000 0.0000 18.7098
#
#
#
# Elastic Compliance Matrix: (Units=1/GPa)
#
#
# Indices 1 2 3 4 5 6 
#
# 1 0.019750 -0.001604 -0.002501 0.000000 0.000000 0.000000
# 2 -0.001604 0.016852 0.001601 0.000000 0.000000 0.000000
# 3 -0.002501 0.001601 0.012005 0.000000 0.000000 0.000000
# 4 0.000000 0.000000 0.000000 0.070715 0.000000 0.000000
# 5 0.000000 0.000000 0.000000 0.000000 0.090759 0.000000
# 6 0.000000 0.000000 0.000000 0.000000 0.000000 0.053448
#
#
# Mechanical properties :
#
#
# Convention : Reuss Voigt Hill
#
# Bulk Modulus (GPa) = 22.93595 23.70453 23.32024
# Shear Modulus (GPa) = 17.66348 21.57213 19.61781
#
# Velocity S-wave (km/s) = 2.96763 3.27958 3.12749
# Velocity P-wave (km/s) = 4.81435 5.11465 4.96677
#
# Compressibility (1/GPa) = 0.04359968
#
# Stress axis : x y z
#
# Youngs Moduli (GPa) = 50.63303 59.33878 83.30151
#
# Poissons Ratio (x) = 0.09516 0.20834
# Poissons Ratio (y) = 0.08120 -0.13338
# Poissons Ratio (z) = 0.12663 -0.09501
#
# Static dielectric constant tensor:
#      x y z
#    x 1.698750 0.000000 0.000000 
#    y 0.000000 1.748080 0.000000 
#    z 0.000000 0.000000 1.706270 
# 
# From -- ./inp_files/4660.got.cif
#   From: 2010.05.17/outbox.cif.g08.bks.cpg/sg43_3_cif.got.tgz:4660.got - 2010.06.03 19:21:55.
