data_PCOD9370317
_publ_section_title
;
Structure prediction by ZEFSAII (Michael W. Deem and Ramdas Pophale) SiO2 
 PCOD9370317
Probable space group: F D D 2
;
_chemical_formula_sum "Si O2"
_cell_formula_units_Z 112
_cell_length_a 14.985146
_cell_length_b 10.484626
_cell_length_c 26.883579
_cell_angle_alpha 90.000000
_cell_angle_beta 90.000000
_cell_angle_gamma 90.000000
_cell_volume 4223.777258
_symmetry_space_group_name_H-M "F D D 2"
_symmetry_group_IT_number 43
_symmetry_cell_setting 'orthorhombic'
loop_
_space_group_symop_operation_xyz
x,y,z
-x,-y,z
1/4-x,1/4+y,1/4+z
1/4+x,1/4-y,1/4+z
x,1/2+y,1/2+z
-x,1/2-y,1/2+z
1/4-x,3/4+y,3/4+z
1/4+x,3/4-y,3/4+z
1/2+x,y,1/2+z
1/2-x,-y,1/2+z
3/4-x,1/4+y,3/4+z
3/4+x,1/4-y,3/4+z
1/2+x,1/2+y,z
1/2-x,1/2-y,z
3/4-x,3/4+y,1/4+z
3/4+x,3/4-y,1/4+z
loop_
_atom_site_type_symbol
_atom_site_label
_atom_site_fract_x
_atom_site_fract_y
_atom_site_fract_z
Si Si1 0.120303 0.267351 0.038430
Si Si2 0.428821 0.326084 0.456134
Si Si3 0.854895 0.299990 0.368137
Si Si4 0.138198 0.403197 0.944558
Si Si5 0.089078 0.080996 0.282470
Si Si6 0.650609 0.793586 0.213402
Si Si7 0.685248 0.043080 0.606267
O O1 0.068658 0.377269 0.069487
O O2 0.162620 0.177630 0.081313
O O3 0.176134 0.345667 0.996212
O O4 0.081712 0.154110 0.004268
O O5 0.531796 0.367012 0.449058
O O6 0.364926 0.445674 0.445370
O O7 0.408111 0.271070 0.510363
O O8 0.410512 0.221485 0.413700
O O9 0.826966 0.166737 0.394694
O O10 0.857334 0.394201 0.415359
O O11 0.958205 0.276977 0.352181
O O12 0.088567 0.189680 0.239745
O O13 0.108803 0.169559 0.329725
O O14 0.000000 0.000000 0.290337
O O15 0.750000 0.750000 0.200550
#
# Coordination Sequence:
#
# PCOD9370317 Si02
#       7
#    16  16  16  16  16  16  16
#     4  10  19  32  56  92 110 151 203 269 308 353
#     4  10  21  42  60  88 122 169 214 258 315 398
#     4  10  19  36  63  88 119 159 222 261 305 387
#     4   9  21  36  63  88 118 164 217 257 307 386
#     4  11  24  37  61  99 134 160 207 286 340 372
#     4  10  20  40  63  90 124 169 218 262 312 401
#     4  10  22  36  62  92 118 168 221 257 318 395
#
# _framework density 26.516551
#
# number of rings (size 3 to 8) (size 9 to 14) (size 15 to 20)
#    0.000    2.000    0.000    4.714    6.000    0.000 
#    0.000    9.286    0.000    0.000    0.000    0.000 
#    0.000    0.000    0.000    0.000    0.000    0.000 
#
# Total GULP energy -156489.279326 kJ/mol
# GULP energy per Si atom -5588.902833 kJ/mol
# Density = 2.645620 g / cm^3
# Si number density = 26.516551 Si / 1000 Ang^3
#
#
#
# Elastic Constant Matrix: (Units=GPa)
#
#
# Indices 1 2 3 4 5 6 
#
# 1 52.2704 24.7749 20.8228 0.0000 0.0000 0.0000
# 2 24.7749 158.4477 56.1149 0.0000 0.0000 0.0000
# 3 20.8228 56.1149 148.8926 0.0000 0.0000 0.0000
# 4 0.0000 0.0000 0.0000 59.7339 0.0000 0.0000
# 5 0.0000 0.0000 0.0000 0.0000 26.6670 0.0000
# 6 0.0000 0.0000 0.0000 0.0000 0.0000 47.0397
#
#
#
# Elastic Compliance Matrix: (Units=1/GPa)
#
#
# Indices 1 2 3 4 5 6 
#
# 1 0.021154 -0.002608 -0.001976 0.000000 0.000000 0.000000
# 2 -0.002608 0.007605 -0.002501 0.000000 0.000000 0.000000
# 3 -0.001976 -0.002501 0.007935 0.000000 0.000000 0.000000
# 4 0.000000 0.000000 0.000000 0.016741 0.000000 0.000000
# 5 0.000000 0.000000 0.000000 0.000000 0.037500 0.000000
# 6 0.000000 0.000000 0.000000 0.000000 0.000000 0.021259
#
#
# Mechanical properties :
#
#
# Convention : Reuss Voigt Hill
#
# Bulk Modulus (GPa) = 44.39596 62.55955 53.47775
# Shear Modulus (GPa) = 37.34911 43.88131 40.61521
#
# Velocity S-wave (km/s) = 3.75710 4.07242 3.91793
# Velocity P-wave (km/s) = 5.96658 6.76436 6.37796
#
# Compressibility (1/GPa) = 0.02252457
#
# Stress axis : x y z
#
# Youngs Moduli (GPa) = 47.27143 131.49391 126.01972
#
# Poissons Ratio (x) = 0.34294 0.24896
# Poissons Ratio (y) = 0.12329 0.31523
# Poissons Ratio (z) = 0.09339 0.32892
#
# Static dielectric constant tensor:
#      x y z
#    x 2.215900 0.000000 0.000000 
#    y 0.000000 2.100720 0.000000 
#    z 0.000000 0.000000 2.039690 
# 
# From -- ./inp_files/22395.got.cif
#   From: 2010.05.17/outbox.cif.g08.bks.cpg/sg43_12_cif.got.tgz:22395.got - 2010.06.03 19:21:55.
