data_PCOD9370814
_publ_section_title
;
Structure prediction by ZEFSAII (Michael W. Deem and Ramdas Pophale) SiO2 
 PCOD9370814
Probable space group: F D D 2
;
_chemical_formula_sum "Si O2"
_cell_formula_units_Z 88
_cell_length_a 10.704157
_cell_length_b 22.855565
_cell_length_c 14.466860
_cell_angle_alpha 90.000000
_cell_angle_beta 90.000000
_cell_angle_gamma 90.000000
_cell_volume 3539.310877
_symmetry_space_group_name_H-M "F D D 2"
_symmetry_group_IT_number 43
_symmetry_cell_setting 'orthorhombic'
loop_
_space_group_symop_operation_xyz
x,y,z
-x,-y,z
1/4-x,1/4+y,1/4+z
1/4+x,1/4-y,1/4+z
x,1/2+y,1/2+z
-x,1/2-y,1/2+z
1/4-x,3/4+y,3/4+z
1/4+x,3/4-y,3/4+z
1/2+x,y,1/2+z
1/2-x,-y,1/2+z
3/4-x,1/4+y,3/4+z
3/4+x,1/4-y,3/4+z
1/2+x,1/2+y,z
1/2-x,1/2-y,z
3/4-x,3/4+y,1/4+z
3/4+x,3/4-y,1/4+z
loop_
_atom_site_type_symbol
_atom_site_label
_atom_site_fract_x
_atom_site_fract_y
_atom_site_fract_z
Si Si1 0.250000 0.250000 0.254190
Si Si2 0.238978 0.960512 0.490416
Si Si3 0.954653 0.280182 0.458766
Si Si4 0.374819 0.119809 0.546569
Si Si5 0.929825 0.418865 0.190243
Si Si6 0.122455 0.576507 0.975043
O O1 0.372830 0.225589 0.201977
O O2 0.297705 0.309178 0.305035
O O3 0.247278 0.968947 0.601396
O O4 0.187700 0.896949 0.473532
O O5 0.143955 0.008649 0.452955
O O6 0.929046 0.211524 0.479508
O O7 0.815855 0.306113 0.467143
O O8 0.044883 0.324646 0.512578
O O9 0.262383 0.104246 0.478059
O O10 0.311030 0.138753 0.642276
O O11 0.928263 0.420892 0.078400
#
# Coordination Sequence:
#
# PCOD9370814 Si02
#       6
#     8  16  16  16  16  16
#     4  10  20  40  66  94 134 174 230 286 338 410
#     4  10  21  42  67  98 137 180 229 294 344 418
#     4  10  22  40  71  96 141 181 239 284 350 417
#     4  11  22  44  64 100 136 184 227 288 350 415
#     4  10  22  43  66 103 134 185 236 291 344 428
#     4  10  25  42  66  98 141 176 233 283 356 423
#
# _framework density 24.863598
#
# number of rings (size 3 to 8) (size 9 to 14) (size 15 to 20)
#    0.000    1.818    1.818    1.091    2.545    1.455 
#    9.818    0.000    0.000    0.000    0.000    0.000 
#    0.000    0.000    0.000    0.000    0.000    0.000 
#
# Total GULP energy -123030.685742 kJ/mol
# GULP energy per Si atom -5592.303897 kJ/mol
# Density = 2.480701 g / cm^3
# Si number density = 24.863598 Si / 1000 Ang^3
#
#
#
# Elastic Constant Matrix: (Units=GPa)
#
#
# Indices 1 2 3 4 5 6 
#
# 1 106.1921 52.9049 0.6248 0.0000 0.0000 0.0000
# 2 52.9049 221.5026 47.8758 0.0000 0.0000 0.0000
# 3 0.6248 47.8758 45.5428 0.0000 0.0000 0.0000
# 4 0.0000 0.0000 0.0000 29.2490 0.0000 0.0000
# 5 0.0000 0.0000 0.0000 0.0000 13.4412 0.0000
# 6 0.0000 0.0000 0.0000 0.0000 0.0000 20.5477
#
#
#
# Elastic Compliance Matrix: (Units=1/GPa)
#
#
# Indices 1 2 3 4 5 6 
#
# 1 0.011082 -0.003383 0.003404 0.000000 0.000000 0.000000
# 2 -0.003383 0.006874 -0.007180 0.000000 0.000000 0.000000
# 3 0.003404 -0.007180 0.029459 0.000000 0.000000 0.000000
# 4 0.000000 0.000000 0.000000 0.034189 0.000000 0.000000
# 5 0.000000 0.000000 0.000000 0.000000 0.074398 0.000000
# 6 0.000000 0.000000 0.000000 0.000000 0.000000 0.048667
#
#
# Mechanical properties :
#
#
# Convention : Reuss Voigt Hill
#
# Bulk Modulus (GPa) = 30.21391 64.00537 47.10964
# Shear Modulus (GPa) = 21.73719 30.76971 26.25345
#
# Velocity S-wave (km/s) = 2.95999 3.52169 3.25299
# Velocity P-wave (km/s) = 4.88470 6.50652 5.75305
#
# Compressibility (1/GPa) = 0.03309734
#
# Stress axis : x y z
#
# Youngs Moduli (GPa) = 90.23568 145.46538 33.94577
#
# Poissons Ratio (x) = 0.49205 -0.11555
# Poissons Ratio (y) = 0.30523 0.24374
# Poissons Ratio (z) = -0.30715 1.04448
#
# Static dielectric constant tensor:
#      x y z
#    x 2.046140 0.000000 0.000000 
#    y 0.000000 1.986340 0.000000 
#    z 0.000000 0.000000 1.942410 
# 
# From -- ./inp_files/9580.got.cif
#   From: 2010.05.17/outbox.cif.g08.bks.cpg/sg43_5_cif.got.tgz:9580.got - 2010.06.03 19:21:55.
