data_PCOD9370027
_publ_section_title
;
Structure prediction by ZEFSAII (Michael W. Deem and Ramdas Pophale) SiO2 
 PCOD9370027
Probable space group: F M M 2
;
_chemical_formula_sum "Si O2"
_cell_formula_units_Z 24
_cell_length_a 12.000000
_cell_length_b 30.000000
_cell_length_c 15.000000
_cell_angle_alpha 90.000000
_cell_angle_beta 90.000000
_cell_angle_gamma 90.000000
_cell_volume 5400.000000
_symmetry_space_group_name_H-M "F M M 2"
_symmetry_group_IT_number 42
_symmetry_cell_setting 'orthorhombic'
loop_
_space_group_symop_operation_xyz
x,y,z
-x,-y,z
-x,y,z
x,-y,z
x,1/2+y,1/2+z
-x,1/2-y,1/2+z
-x,1/2+y,1/2+z
x,1/2-y,1/2+z
1/2+x,y,1/2+z
1/2-x,-y,1/2+z
1/2-x,y,1/2+z
1/2+x,-y,1/2+z
1/2+x,1/2+y,z
1/2-x,1/2-y,z
1/2-x,1/2+y,z
1/2+x,1/2-y,z
loop_
_atom_site_type_symbol
_atom_site_label
_atom_site_fract_x
_atom_site_fract_y
_atom_site_fract_z
Si Si1 0.500000 0.796548 0.473068
Si Si2 0.632574 0.052744 0.799907
Si Si3 0.742933 0.887995 0.151420
Si Si4 0.000000 0.861507 0.711522
Si Si5 0.722632 0.446910 0.974931
Si Si6 0.000000 0.898953 0.909024
Si Si7 0.661335 0.711677 0.137280
Si Si8 0.000000 0.242008 0.771761
O O1 0.500000 0.849668 0.453395
O O2 0.400655 0.786678 0.541750
O O3 0.500000 0.769074 0.378662
O O4 0.500000 0.062435 0.796139
O O5 0.701408 0.083621 0.731661
O O6 0.682722 0.059058 0.899082
O O7 0.647319 0.000000 0.777650
O O8 0.613117 0.876644 0.164543
O O9 0.801599 0.839502 0.147944
O O10 0.755690 0.917756 0.062872
O O11 0.000000 0.886955 0.805525
O O12 0.000000 0.807865 0.728118
O O13 0.713817 0.500000 0.994019
O O14 0.607928 0.427407 0.935243
O O15 0.750000 0.750000 0.127238
O O16 0.599167 0.728834 0.227686
#
# Coordination Sequence:
#
# PCOD9370027 Si02
#       8
#     8  16  16   8  16   8  16   8
#     4  10  23  42  64  90 126 162 217 263 315 375
#     4  10  24  45  65  93 130 168 215 268 323 389
#     4  12  24  43  66  97 129 172 216 265 327 382
#     4  11  23  42  67  90 132 169 215 265 320 387
#     4  11  24  42  65  95 130 171 216 265 324 387
#     4  11  20  43  65  95 124 164 211 267 320 378
#     4  11  23  42  63  92 128 165 213 263 316 385
#     4  10  23  43  62  93 124 169 207 269 324 368
#
# _framework density 4.4444439999999998
#
# number of rings (size 3 to 8) (size 9 to 14) (size 15 to 20)
#    0.000    1.167    5.000    0.750    4.667    0.667 
#    3.000    1.250    0.000    0.000    0.000    0.000 
#    0.000    0.000    0.000    0.000    0.000    0.000 
#
# Total GULP energy -133758.589513 kJ/mol
# GULP energy per Si atom -5573.274563 kJ/mol
# Density = 0.443433 g / cm^3
# Si number density = 4.444444 Si / 1000 Ang^3
#
#
#
# Elastic Constant Matrix: (Units=GPa)
#
#
# Indices 1 2 3 4 5 6 
#
# 1 115.8077 68.8648 58.2501 0.0000 0.0000 0.0000
# 2 68.8648 163.2380 90.2046 0.0000 0.0000 0.0000
# 3 58.2501 90.2046 125.8697 0.0000 0.0000 0.0000
# 4 0.0000 0.0000 0.0000 38.7021 0.0000 0.0000
# 5 0.0000 0.0000 0.0000 0.0000 74.8537 0.0000
# 6 0.0000 0.0000 0.0000 0.0000 0.0000 43.4013
#
#
#
# Elastic Compliance Matrix: (Units=1/GPa)
#
#
# Indices 1 2 3 4 5 6 
#
# 1 0.012286 -0.003380 -0.003264 0.000000 0.000000 0.000000
# 2 -0.003380 0.011072 -0.006371 0.000000 0.000000 0.000000
# 3 -0.003264 -0.006371 0.014021 0.000000 0.000000 0.000000
# 4 0.000000 0.000000 0.000000 0.025838 0.000000 0.000000
# 5 0.000000 0.000000 0.000000 0.000000 0.013359 0.000000
# 6 0.000000 0.000000 0.000000 0.000000 0.000000 0.023041
#
#
# Mechanical properties :
#
#
# Convention : Reuss Voigt Hill
#
# Bulk Modulus (GPa) = 88.10026 93.28382 90.69204
# Shear Modulus (GPa) = 38.63064 43.89779 41.26422
#
# Velocity S-wave (km/s) = 4.66657 4.97455 4.82302
# Velocity P-wave (km/s) = 8.87129 9.25099 9.06313
#
# Compressibility (1/GPa) = 0.01135070
#
# Stress axis : x y z
#
# Youngs Moduli (GPa) = 81.39080 90.31502 71.32174
#
# Poissons Ratio (x) = 0.30523 0.23279
# Poissons Ratio (y) = 0.27507 0.45439
# Poissons Ratio (z) = 0.26565 0.57540
#
# Static dielectric constant tensor:
#      x y z
#    x 1.722080 0.000000 0.000000 
#    y 0.000000 1.584130 0.000000 
#    z 0.000000 0.000000 1.589550 
# 
# From -- ./inp_files/13219.got.cif
#   From: 2010.05.17/outbox.ucp.g08.bks.cvg/sg42_7_cif.got.tgz:13219.got - 2010.06.11 16:29:10.
