data_PCOD9370981
_publ_section_title
;
Structure prediction by ZEFSAII (Michael W. Deem and Ramdas Pophale) SiO2 
 PCOD9370981
Probable space group: F D D 2
;
_chemical_formula_sum "Si O2"
_cell_formula_units_Z 88
_cell_length_a 23.845787
_cell_length_b 10.827689
_cell_length_c 14.418303
_cell_angle_alpha 90.000000
_cell_angle_beta 90.000000
_cell_angle_gamma 90.000000
_cell_volume 3722.730363
_symmetry_space_group_name_H-M "F D D 2"
_symmetry_group_IT_number 43
_symmetry_cell_setting 'orthorhombic'
loop_
_space_group_symop_operation_xyz
x,y,z
-x,-y,z
1/4-x,1/4+y,1/4+z
1/4+x,1/4-y,1/4+z
x,1/2+y,1/2+z
-x,1/2-y,1/2+z
1/4-x,3/4+y,3/4+z
1/4+x,3/4-y,3/4+z
1/2+x,y,1/2+z
1/2-x,-y,1/2+z
3/4-x,1/4+y,3/4+z
3/4+x,1/4-y,3/4+z
1/2+x,1/2+y,z
1/2-x,1/2-y,z
3/4-x,3/4+y,1/4+z
3/4+x,3/4-y,1/4+z
loop_
_atom_site_type_symbol
_atom_site_label
_atom_site_fract_x
_atom_site_fract_y
_atom_site_fract_z
Si Si1 0.851571 0.111848 0.675410
Si Si2 0.644465 0.153926 0.221238
Si Si3 0.274475 0.507914 0.402391
Si Si4 0.750000 0.250000 0.288412
Si Si5 0.930420 0.749725 0.300117
Si Si6 0.567116 0.888818 0.489953
O O1 0.877443 0.131397 0.575404
O O2 0.900908 0.130735 0.750725
O O3 0.809627 0.222355 0.699908
O O4 0.832118 0.971506 0.676906
O O5 0.587893 0.204021 0.176966
O O6 0.694329 0.251039 0.227080
O O7 0.249765 0.628932 0.351998
O O8 0.236701 0.475958 0.491530
O O9 0.279096 0.400543 0.326159
O O10 0.882240 0.851580 0.277449
O O11 0.937702 0.709439 0.406361
#
# Coordination Sequence:
#
# PCOD9370981 Si02
#       6
#    16  16  16   8  16  16
#     4  10  20  45  75 100 145 191 255 304 366 453
#     4  12  23  45  74 106 148 201 249 312 371 467
#     4  12  26  46  77 112 152 200 249 319 392 454
#     4  12  26  44  72 102 150 190 250 300 380 444
#     4  10  22  48  75 110 151 193 260 312 383 460
#     4  10  24  46  76 108 158 190 256 324 376 459
#
# _framework density 23.638563999999999
#
# number of rings (size 3 to 8) (size 9 to 14) (size 15 to 20)
#    1.091    0.000    5.455    0.000    2.545    1.455 
#    0.000    7.273    0.000    0.000    0.000    0.000 
#    0.000    0.000    0.000    0.000    0.000    0.000 
#
# Total GULP energy -122913.372044 kJ/mol
# GULP energy per Si atom -5586.971457 kJ/mol
# Density = 2.358476 g / cm^3
# Si number density = 23.638564 Si / 1000 Ang^3
#
#
#
# Elastic Constant Matrix: (Units=GPa)
#
#
# Indices 1 2 3 4 5 6 
#
# 1 108.1824 50.9825 52.4806 0.0000 0.0000 0.0000
# 2 50.9825 83.1033 46.9811 0.0000 0.0000 0.0000
# 3 52.4806 46.9811 109.0360 0.0000 0.0000 0.0000
# 4 0.0000 0.0000 0.0000 32.4089 0.0000 0.0000
# 5 0.0000 0.0000 0.0000 0.0000 45.7206 0.0000
# 6 0.0000 0.0000 0.0000 0.0000 0.0000 28.4146
#
#
#
# Elastic Compliance Matrix: (Units=1/GPa)
#
#
# Indices 1 2 3 4 5 6 
#
# 1 0.014261 -0.006436 -0.004091 0.000000 0.000000 0.000000
# 2 -0.006436 0.018813 -0.005008 0.000000 0.000000 0.000000
# 3 -0.004091 -0.005008 0.013298 0.000000 0.000000 0.000000
# 4 0.000000 0.000000 0.000000 0.030856 0.000000 0.000000
# 5 0.000000 0.000000 0.000000 0.000000 0.021872 0.000000
# 6 0.000000 0.000000 0.000000 0.000000 0.000000 0.035193
#
#
# Mechanical properties :
#
#
# Convention : Reuss Voigt Hill
#
# Bulk Modulus (GPa) = 65.35218 66.80111 66.07665
# Shear Modulus (GPa) = 29.33146 31.30065 30.31605
#
# Velocity S-wave (km/s) = 3.52636 3.64281 3.58506
# Velocity P-wave (km/s) = 6.65483 6.78338 6.71941
#
# Compressibility (1/GPa) = 0.01530171
#
# Stress axis : x y z
#
# Youngs Moduli (GPa) = 70.11901 53.15432 75.19797
#
# Poissons Ratio (x) = 0.34212 0.30763
# Poissons Ratio (y) = 0.45132 0.37661
# Poissons Ratio (z) = 0.28685 0.26621
#
# Static dielectric constant tensor:
#      x y z
#    x 1.995880 0.000000 0.000000 
#    y 0.000000 1.927720 0.000000 
#    z 0.000000 0.000000 1.873070 
# 
# From -- ./inp_files/11214.got.cif
#   From: 2010.05.17/outbox.cif.g08.bks.cpg/sg43_6_cif.got.tgz:11214.got - 2010.06.03 19:21:55.
