data_PCOD9370932
_publ_section_title
;
Structure prediction by ZEFSAII (Michael W. Deem and Ramdas Pophale) SiO2 
 PCOD9370932
Probable space group: F D D 2
;
_chemical_formula_sum "Si O2"
_cell_formula_units_Z 96
_cell_length_a 14.526572
_cell_length_b 11.983314
_cell_length_c 24.981007
_cell_angle_alpha 90.000000
_cell_angle_beta 90.000000
_cell_angle_gamma 90.000000
_cell_volume 4348.605606
_symmetry_space_group_name_H-M "F D D 2"
_symmetry_group_IT_number 43
_symmetry_cell_setting 'orthorhombic'
loop_
_space_group_symop_operation_xyz
x,y,z
-x,-y,z
1/4-x,1/4+y,1/4+z
1/4+x,1/4-y,1/4+z
x,1/2+y,1/2+z
-x,1/2-y,1/2+z
1/4-x,3/4+y,3/4+z
1/4+x,3/4-y,3/4+z
1/2+x,y,1/2+z
1/2-x,-y,1/2+z
3/4-x,1/4+y,3/4+z
3/4+x,1/4-y,3/4+z
1/2+x,1/2+y,z
1/2-x,1/2-y,z
3/4-x,3/4+y,1/4+z
3/4+x,3/4-y,1/4+z
loop_
_atom_site_type_symbol
_atom_site_label
_atom_site_fract_x
_atom_site_fract_y
_atom_site_fract_z
Si Si1 0.868188 0.168452 0.384810
Si Si2 0.301368 0.131185 0.586928
Si Si3 0.061245 0.174768 0.966236
Si Si4 0.076668 0.818220 0.182260
Si Si5 0.213390 0.371826 0.771320
Si Si6 0.627943 0.932983 0.472678
O O1 0.866095 0.274677 0.423688
O O2 0.804185 0.136663 0.334688
O O3 0.860007 0.060053 0.423115
O O4 0.783783 0.943816 0.605488
O O5 0.250000 0.250000 0.591095
O O6 0.380247 0.121497 0.631072
O O7 0.344542 0.120840 0.529141
O O8 0.961027 0.127364 0.947730
O O9 0.106059 0.061596 0.987656
O O10 0.030465 0.277195 0.004724
O O11 0.120814 0.874838 0.235169
O O12 0.032463 0.177655 0.185908
O O13 0.250000 0.250000 0.756027
#
# Coordination Sequence:
#
# PCOD9370932 Si02
#       6
#    16  16  16  16  16  16
#     4  11  23  43  69 103 137 179 238 284 341 429
#     4  10  20  42  72 103 136 181 245 285 335 434
#     4  11  25  48  64  98 155 173 227 307 348 418
#     4  11  22  43  74 101 132 185 236 283 348 414
#     4  12  23  45  74 100 136 189 233 290 351 420
#     4  11  26  45  67 105 144 188 223 295 371 407
#
# _framework density 22.076039999999999
#
# number of rings (size 3 to 8) (size 9 to 14) (size 15 to 20)
#    0.000    1.000    5.000    2.500    2.333    0.000 
#    9.000    0.000    0.000    0.000    0.000    0.000 
#    0.000    0.000    0.000    0.000    0.000    0.000 
#
# Total GULP energy -133830.021186 kJ/mol
# GULP energy per Si atom -5576.250883 kJ/mol
# Density = 2.202579 g / cm^3
# Si number density = 22.076040 Si / 1000 Ang^3
#
#
#
# Elastic Constant Matrix: (Units=GPa)
#
#
# Indices 1 2 3 4 5 6 
#
# 1 65.7219 2.2216 35.3002 0.0000 0.0000 0.0000
# 2 2.2216 78.3390 35.0882 0.0000 0.0000 0.0000
# 3 35.3002 35.0882 96.1808 0.0000 0.0000 0.0000
# 4 0.0000 0.0000 0.0000 19.0955 0.0000 0.0000
# 5 0.0000 0.0000 0.0000 0.0000 28.9035 0.0000
# 6 0.0000 0.0000 0.0000 0.0000 0.0000 22.8820
#
#
#
# Elastic Compliance Matrix: (Units=1/GPa)
#
#
# Indices 1 2 3 4 5 6 
#
# 1 0.019595 0.003186 -0.008354 0.000000 0.000000 0.000000
# 2 0.003186 0.015776 -0.006925 0.000000 0.000000 0.000000
# 3 -0.008354 -0.006925 0.015989 0.000000 0.000000 0.000000
# 4 0.000000 0.000000 0.000000 0.052368 0.000000 0.000000
# 5 0.000000 0.000000 0.000000 0.000000 0.034598 0.000000
# 6 0.000000 0.000000 0.000000 0.000000 0.000000 0.043702
#
#
# Mechanical properties :
#
#
# Convention : Reuss Voigt Hill
#
# Bulk Modulus (GPa) = 36.79815 42.82907 39.81361
# Shear Modulus (GPa) = 23.22627 25.35165 24.28896
#
# Velocity S-wave (km/s) = 3.24713 3.39245 3.32059
# Velocity P-wave (km/s) = 5.54649 5.89812 5.72500
#
# Compressibility (1/GPa) = 0.02717528
#
# Stress axis : x y z
#
# Youngs Moduli (GPa) = 51.03335 63.38609 62.54115
#
# Poissons Ratio (x) = -0.20196 0.52247
# Poissons Ratio (y) = -0.16260 0.43309
# Poissons Ratio (z) = 0.42634 0.43894
#
# Static dielectric constant tensor:
#      x y z
#    x 1.885160 0.000000 0.000000 
#    y 0.000000 1.870620 0.000000 
#    z 0.000000 0.000000 1.793540 
# 
# From -- ./inp_files/22624.got.cif
#   From: 2010.05.17/outbox.cif.g08.bks.cpg/sg43_12_cif.got.tgz:22624.got - 2010.06.03 19:21:55.
