data_PCOD9370222
_publ_section_title
;
Structure prediction by ZEFSAII (Michael W. Deem and Ramdas Pophale) SiO2 
 PCOD9370222
Probable space group: F D D 2
;
_chemical_formula_sum "Si O2"
_cell_formula_units_Z 104
_cell_length_a 16.391695
_cell_length_b 16.391766
_cell_length_c 19.678498
_cell_angle_alpha 90.000000
_cell_angle_beta 90.000000
_cell_angle_gamma 90.000000
_cell_volume 5287.392580
_symmetry_space_group_name_H-M "F D D 2"
_symmetry_group_IT_number 43
_symmetry_cell_setting 'orthorhombic'
loop_
_space_group_symop_operation_xyz
x,y,z
-x,-y,z
1/4-x,1/4+y,1/4+z
1/4+x,1/4-y,1/4+z
x,1/2+y,1/2+z
-x,1/2-y,1/2+z
1/4-x,3/4+y,3/4+z
1/4+x,3/4-y,3/4+z
1/2+x,y,1/2+z
1/2-x,-y,1/2+z
3/4-x,1/4+y,3/4+z
3/4+x,1/4-y,3/4+z
1/2+x,1/2+y,z
1/2-x,1/2-y,z
3/4-x,3/4+y,1/4+z
3/4+x,3/4-y,1/4+z
loop_
_atom_site_type_symbol
_atom_site_label
_atom_site_fract_x
_atom_site_fract_y
_atom_site_fract_z
Si Si1 0.872666 0.872666 0.492670
Si Si2 0.498369 0.864987 0.325993
Si Si3 0.114987 0.751630 0.575994
Si Si4 0.606670 0.893330 0.887176
Si Si5 0.258064 0.497036 0.694857
Si Si6 0.500000 0.500000 0.489621
Si Si7 0.997035 0.758064 0.694856
O O1 0.834402 0.834404 0.560059
O O2 0.926338 0.808199 0.450775
O O3 0.938063 0.938063 0.524816
O O4 0.808200 0.926338 0.450774
O O5 0.412085 0.912087 0.317931
O O6 0.506072 0.827608 0.401165
O O7 0.507530 0.793703 0.270356
O O8 0.568450 0.931549 0.314237
O O9 0.043702 0.742467 0.520357
O O10 0.077609 0.743927 0.651166
O O11 0.578381 0.802264 0.904098
O O12 0.554780 0.945220 0.940748
O O13 0.697737 0.921621 0.904095
#
# Coordination Sequence:
#
# PCOD9370222 Si02
#       7
#    16  16  16  16  16   8  16
#     4  10  20  36  60  90 120 152 190 245 309 366
#     4  11  24  42  61  89 124 166 208 255 310 373
#     4  11  24  42  61  89 124 166 208 255 310 373
#     4  10  18  36  60  86 116 148 188 250 301 355
#     4  11  21  40  64  90 121 156 203 256 309 366
#     4   8  20  32  52  88 116 140 188 236 288 354
#     4  11  21  40  64  90 121 156 203 256 309 366
#
# _framework density 19.669429999999998
#
# number of rings (size 3 to 8) (size 9 to 14) (size 15 to 20)
#    0.000    1.538    4.615    0.923    0.000    0.000 
#    8.308    0.000    0.000    0.000    0.000    0.000 
#    0.000    0.000    0.000    0.000    0.000    0.000 
#
# Total GULP energy -145019.023192 kJ/mol
# GULP energy per Si atom -5577.654738 kJ/mol
# Density = 1.962466 g / cm^3
# Si number density = 19.669430 Si / 1000 Ang^3
#
#
#
# Elastic Constant Matrix: (Units=GPa)
#
#
# Indices 1 2 3 4 5 6 
#
# 1 57.3708 14.3723 20.3254 0.0000 0.0000 0.0000
# 2 14.3723 57.3715 20.3263 0.0000 0.0000 0.0000
# 3 20.3254 20.3263 91.9387 0.0000 0.0000 0.0000
# 4 0.0000 0.0000 0.0000 -25.2354 0.0000 0.0000
# 5 0.0000 0.0000 0.0000 0.0000 -25.2452 0.0000
# 6 0.0000 0.0000 0.0000 0.0000 0.0000 19.1010
#
#
#
# Elastic Compliance Matrix: (Units=1/GPa)
#
#
# Indices 1 2 3 4 5 6 
#
# 1 0.019596 -0.003661 -0.003523 0.000000 0.000000 0.000000
# 2 -0.003661 0.019596 -0.003523 0.000000 0.000000 0.000000
# 3 -0.003523 -0.003523 0.012434 0.000000 0.000000 0.000000
# 4 0.000000 0.000000 0.000000 -0.039627 0.000000 0.000000
# 5 0.000000 0.000000 0.000000 0.000000 -0.039611 0.000000
# 6 0.000000 0.000000 0.000000 0.000000 0.000000 0.052353
#
#
# Mechanical properties :
#
#
# Convention : Reuss Voigt Hill
#
# Bulk Modulus (GPa) = 33.09890 35.19210 34.14550
# Shear Modulus (GPa) = 88.92903 3.83453 46.38178
#
# Velocity S-wave (km/s) = 6.73127 1.39776 4.86126
# Velocity P-wave (km/s) = 8.79076 4.53162 6.99332
#
# Compressibility (1/GPa) = 0.03021248
#
# Stress axis : x y z
#
# Youngs Moduli (GPa) = 51.03180 51.03210 80.42151
#
# Poissons Ratio (x) = 0.18682 0.28330
# Poissons Ratio (y) = 0.18682 0.28332
# Poissons Ratio (z) = 0.17977 0.17978
#
# Static dielectric constant tensor:
#      x y z
#    x 1.735560 0.000000 0.000000 
#    y 0.000000 1.735550 0.000000 
#    z 0.000000 0.000000 1.685150 
# 
# From -- ./inp_files/14250.got.cif
#   From: 2010.05.17/outbox.cif.g08.bks.cpg/sg43_8_cif.got.tgz:14250.got - 2010.06.03 19:21:55.
