data_PCOD9370332
_publ_section_title
;
Structure prediction by ZEFSAII (Michael W. Deem and Ramdas Pophale) SiO2 
 PCOD9370332
Probable space group: F D D 2
;
_chemical_formula_sum "Si O2"
_cell_formula_units_Z 104
_cell_length_a 14.575932
_cell_length_b 16.070792
_cell_length_c 21.199014
_cell_angle_alpha 90.000000
_cell_angle_beta 90.000000
_cell_angle_gamma 90.000000
_cell_volume 4965.800586
_symmetry_space_group_name_H-M "F D D 2"
_symmetry_group_IT_number 43
_symmetry_cell_setting 'orthorhombic'
loop_
_space_group_symop_operation_xyz
x,y,z
-x,-y,z
1/4-x,1/4+y,1/4+z
1/4+x,1/4-y,1/4+z
x,1/2+y,1/2+z
-x,1/2-y,1/2+z
1/4-x,3/4+y,3/4+z
1/4+x,3/4-y,3/4+z
1/2+x,y,1/2+z
1/2-x,-y,1/2+z
3/4-x,1/4+y,3/4+z
3/4+x,1/4-y,3/4+z
1/2+x,1/2+y,z
1/2-x,1/2-y,z
3/4-x,3/4+y,1/4+z
3/4+x,3/4-y,1/4+z
loop_
_atom_site_type_symbol
_atom_site_label
_atom_site_fract_x
_atom_site_fract_y
_atom_site_fract_z
Si Si1 0.367066 0.138016 0.760770
Si Si2 0.087866 0.555726 0.202244
Si Si3 0.509410 0.257264 0.356723
Si Si4 0.250000 0.250000 0.522817
Si Si5 0.013943 0.198824 0.625101
Si Si6 0.366574 0.151682 0.626005
Si Si7 0.312450 0.177113 0.099401
O O1 0.427515 0.203064 0.800909
O O2 0.437749 0.066105 0.737084
O O3 0.298009 0.094813 0.809881
O O4 0.326066 0.170418 0.695797
O O5 0.180287 0.524236 0.169502
O O6 0.071001 0.649357 0.178024
O O7 0.089065 0.551724 0.277225
O O8 0.000000 0.500000 0.180410
O O9 0.413275 0.306429 0.361590
O O10 0.507735 0.158983 0.348871
O O11 0.313933 0.199013 0.570331
O O12 0.037178 0.297243 0.625885
O O13 0.908510 0.176494 0.635359
O O14 0.250000 0.250000 0.125472
#
# Coordination Sequence:
#
# PCOD9370332 Si02
#       7
#    16  16  16   8  16  16  16
#     4   9  18  32  58  82 112 151 183 247 295 351
#     4  10  19  35  61  84 115 152 202 256 298 364
#     4  10  20  36  57  88 117 150 205 245 301 357
#     4   8  18  34  48  86 114 136 186 238 282 346
#     4  10  20  36  57  88 117 150 205 245 301 357
#     4  10  19  34  56  82 118 146 184 244 298 351
#     4  11  23  38  59  81 120 163 201 251 305 360
#
# _framework density 20.943249000000002
#
# number of rings (size 3 to 8) (size 9 to 14) (size 15 to 20)
#    0.000    2.154    1.538    2.769    0.000    1.231 
#    2.769    0.000    3.385    0.000    0.000    0.000 
#    0.000    0.000    0.000    0.000    0.000    0.000 
#
# Total GULP energy -144898.517673 kJ/mol
# GULP energy per Si atom -5573.019910 kJ/mol
# Density = 2.089558 g / cm^3
# Si number density = 20.943249 Si / 1000 Ang^3
#
#
#
# Elastic Constant Matrix: (Units=GPa)
#
#
# Indices 1 2 3 4 5 6 
#
# 1 32.2478 32.4622 -11.7439 0.0000 0.0000 0.0000
# 2 32.4622 133.4261 -12.6765 0.0000 0.0000 0.0000
# 3 -11.7439 -12.6765 35.9371 0.0000 0.0000 0.0000
# 4 0.0000 0.0000 0.0000 -6.2878 0.0000 0.0000
# 5 0.0000 0.0000 0.0000 0.0000 -2.9421 0.0000
# 6 0.0000 0.0000 0.0000 0.0000 0.0000 29.8937
#
#
#
# Elastic Compliance Matrix: (Units=1/GPa)
#
#
# Indices 1 2 3 4 5 6 
#
# 1 0.045064 -0.009896 0.011236 0.000000 0.000000 0.000000
# 2 -0.009896 0.009928 0.000268 0.000000 0.000000 0.000000
# 3 0.011236 0.000268 0.031593 0.000000 0.000000 0.000000
# 4 0.000000 0.000000 0.000000 -0.159039 0.000000 0.000000
# 5 0.000000 0.000000 0.000000 0.000000 -0.339898 0.000000
# 6 0.000000 0.000000 0.000000 0.000000 0.000000 0.033452
#
#
# Mechanical properties :
#
#
# Convention : Reuss Voigt Hill
#
# Bulk Modulus (GPa) = 11.13604 24.18828 17.66216
# Shear Modulus (GPa) = -14.19719 17.03739 1.42010
#
# Velocity S-wave (km/s) = -2.60645 2.85529 0.82434
# Velocity P-wave (km/s) = 1.93115 4.73759 3.05904
#
# Compressibility (1/GPa) = 0.08979852
#
# Stress axis : x y z
#
# Youngs Moduli (GPa) = 22.19074 100.72503 31.65302
#
# Poissons Ratio (x) = 0.99682 -0.35564
# Poissons Ratio (y) = 0.21961 -0.00848
# Poissons Ratio (z) = -0.24932 -0.02699
#
# Static dielectric constant tensor:
#      x y z
#    x 1.782170 0.000000 0.000000 
#    y 0.000000 1.808990 0.000000 
#    z 0.000000 0.000000 1.741700 
# 
# From -- ./inp_files/17626.got.cif
#   From: 2010.05.17/outbox.cif.g08.bks.cpg/sg43_9_cif.got.tgz:17626.got - 2010.06.03 19:21:55.
