data_PCOD9370056
_publ_section_title
;
Structure prediction by ZEFSAII (Michael W. Deem and Ramdas Pophale) SiO2 
 PCOD9370056
Probable space group: F D D 2
;
_chemical_formula_sum "Si O2"
_cell_formula_units_Z 88
_cell_length_a 30.005345
_cell_length_b 8.082136
_cell_length_c 14.171106
_cell_angle_alpha 90.000000
_cell_angle_beta 90.000000
_cell_angle_gamma 90.000000
_cell_volume 3436.596357
_symmetry_space_group_name_H-M "F D D 2"
_symmetry_group_IT_number 43
_symmetry_cell_setting 'orthorhombic'
loop_
_space_group_symop_operation_xyz
x,y,z
-x,-y,z
1/4-x,1/4+y,1/4+z
1/4+x,1/4-y,1/4+z
x,1/2+y,1/2+z
-x,1/2-y,1/2+z
1/4-x,3/4+y,3/4+z
1/4+x,3/4-y,3/4+z
1/2+x,y,1/2+z
1/2-x,-y,1/2+z
3/4-x,1/4+y,3/4+z
3/4+x,1/4-y,3/4+z
1/2+x,1/2+y,z
1/2-x,1/2-y,z
3/4-x,3/4+y,1/4+z
3/4+x,3/4-y,1/4+z
loop_
_atom_site_type_symbol
_atom_site_label
_atom_site_fract_x
_atom_site_fract_y
_atom_site_fract_z
Si Si1 0.250000 0.250000 0.199590
Si Si2 0.676010 0.514400 0.897352
Si Si3 0.271873 0.513735 0.337763
Si Si4 0.321292 0.847068 0.997612
Si Si5 0.328471 0.302623 0.082934
Si Si6 0.829990 0.663896 0.685698
O O1 0.279317 0.353948 0.272687
O O2 0.289158 0.193305 0.128415
O O3 0.719049 0.530836 0.833074
O O4 0.627555 0.515970 0.851059
O O5 0.680087 0.333998 0.947602
O O6 0.678886 0.659075 0.974103
O O7 0.286167 0.463865 0.443341
O O8 0.299620 0.646451 0.278498
O O9 0.369208 0.923033 0.970638
O O10 0.317539 0.803375 0.108532
O O11 0.326909 0.487739 0.129494
#
# Coordination Sequence:
#
# PCOD9370056 Si02
#       6
#     8  16  16  16  16  16
#     4  10  18  32  50  84 106 152 184 240 288 354
#     4  10  18  30  49  86 111 148 189 242 288 349
#     4  11  18  29  52  84 113 154 193 237 302 348
#     4  10  16  29  46  79 119 148 192 248 292 339
#     4   9  19  30  51  82 115 142 192 242 286 352
#     4   9  18  27  47  80 117 148 193 245 292 342
#
# _framework density 25.606732000000001
#
# number of rings (size 3 to 8) (size 9 to 14) (size 15 to 20)
#    0.000    2.182    3.636    1.091    5.091    0.000 
#    0.000    0.000    0.000    0.000   47.273    0.000 
#    0.000    0.000    0.000    0.000    0.000    0.000 
#
# Total GULP energy -122935.919157 kJ/mol
# GULP energy per Si atom -5587.996325 kJ/mol
# Density = 2.554845 g / cm^3
# Si number density = 25.606732 Si / 1000 Ang^3
#
#
#
# Elastic Constant Matrix: (Units=GPa)
#
#
# Indices 1 2 3 4 5 6 
#
# 1 128.8239 5.0803 39.7150 0.0000 0.0000 0.0000
# 2 5.0803 101.5461 46.6737 0.0000 0.0000 0.0000
# 3 39.7150 46.6737 142.3978 0.0000 0.0000 0.0000
# 4 0.0000 0.0000 0.0000 30.0711 0.0000 0.0000
# 5 0.0000 0.0000 0.0000 0.0000 26.8325 0.0000
# 6 0.0000 0.0000 0.0000 0.0000 0.0000 -34.3383
#
#
#
# Elastic Compliance Matrix: (Units=1/GPa)
#
#
# Indices 1 2 3 4 5 6 
#
# 1 0.008546 0.000786 -0.002641 0.000000 0.000000 0.000000
# 2 0.000786 0.011667 -0.004043 0.000000 0.000000 0.000000
# 3 -0.002641 -0.004043 0.009085 0.000000 0.000000 0.000000
# 4 0.000000 0.000000 0.000000 0.033255 0.000000 0.000000
# 5 0.000000 0.000000 0.000000 0.000000 0.037268 0.000000
# 6 0.000000 0.000000 0.000000 0.000000 0.000000 -0.029122
#
#
# Mechanical properties :
#
#
# Convention : Reuss Voigt Hill
#
# Bulk Modulus (GPa) = 57.14007 61.74508 59.44258
# Shear Modulus (GPa) = 56.60729 23.26631 39.93680
#
# Velocity S-wave (km/s) = 4.70685 3.01757 3.95349
# Velocity P-wave (km/s) = 7.20431 6.02546 6.64109
#
# Compressibility (1/GPa) = 0.01750085
#
# Stress axis : x y z
#
# Youngs Moduli (GPa) = 117.01688 85.71285 110.07739
#
# Poissons Ratio (x) = -0.06741 0.29074
# Poissons Ratio (y) = -0.09203 0.44509
# Poissons Ratio (z) = 0.30907 0.34657
#
# Static dielectric constant tensor:
#      x y z
#    x 1.972390 0.000000 0.000000 
#    y 0.000000 2.173530 0.000000 
#    z 0.000000 0.000000 1.995820 
# 
# From -- ./inp_files/8225.got.cif
#   From: 2010.05.17/outbox.cif.g08.bks.cpg/sg43_5_cif.got.tgz:8225.got - 2010.06.03 19:21:55.
