data_PCOD9370081
_publ_section_title
;
Structure prediction by ZEFSAII (Michael W. Deem and Ramdas Pophale) SiO2 
 PCOD9370081
Probable space group: F D D 2
;
_chemical_formula_sum "Si O2"
_cell_formula_units_Z 112
_cell_length_a 11.007631
_cell_length_b 16.153708
_cell_length_c 31.235361
_cell_angle_alpha 90.000000
_cell_angle_beta 90.000000
_cell_angle_gamma 90.000000
_cell_volume 5554.086260
_symmetry_space_group_name_H-M "F D D 2"
_symmetry_group_IT_number 43
_symmetry_cell_setting 'orthorhombic'
loop_
_space_group_symop_operation_xyz
x,y,z
-x,-y,z
1/4-x,1/4+y,1/4+z
1/4+x,1/4-y,1/4+z
x,1/2+y,1/2+z
-x,1/2-y,1/2+z
1/4-x,3/4+y,3/4+z
1/4+x,3/4-y,3/4+z
1/2+x,y,1/2+z
1/2-x,-y,1/2+z
3/4-x,1/4+y,3/4+z
3/4+x,1/4-y,3/4+z
1/2+x,1/2+y,z
1/2-x,1/2-y,z
3/4-x,3/4+y,1/4+z
3/4+x,3/4-y,1/4+z
loop_
_atom_site_type_symbol
_atom_site_label
_atom_site_fract_x
_atom_site_fract_y
_atom_site_fract_z
Si Si1 0.250000 0.250000 0.711520
Si Si2 0.608046 0.249315 0.344365
Si Si3 0.857997 0.596148 0.481817
Si Si4 0.521517 0.713232 0.932937
Si Si5 0.507608 0.186002 0.259772
Si Si6 0.750000 0.750000 0.985160
Si Si7 0.603743 0.886647 0.664057
Si Si8 0.202358 0.343926 0.578675
O O1 0.363882 0.284500 0.738687
O O2 0.295741 0.176491 0.681790
O O3 0.750000 0.250000 0.334049
O O4 0.585380 0.198623 0.387636
O O5 0.524522 0.208329 0.308878
O O6 0.559124 0.343727 0.344548
O O7 0.841894 0.498045 0.489475
O O8 0.757670 0.620368 0.445871
O O9 0.831414 0.635702 0.529055
O O10 0.976838 0.636400 0.460936
O O11 0.626348 0.760823 0.958477
O O12 0.407413 0.772212 0.922020
O O13 0.485125 0.088742 0.257163
O O14 0.595851 0.864966 0.613399
O O15 0.250000 0.250000 0.580927
#
# Coordination Sequence:
#
# PCOD9370081 Si02
#       8
#     8  16  16  16  16   8  16  16
#     4  10  16  33  64  90 118 152 212 267 302 360
#     4  10  21  39  65  93 126 170 220 266 313 377
#     4  10  23  40  63  92 131 167 214 268 331 377
#     4  11  22  40  63  92 128 171 208 264 326 391
#     4  10  22  40  63  94 124 169 212 270 317 386
#     4  12  24  39  66  90 126 172 210 253 334 390
#     4  10  19  35  62  94 122 163 216 267 314 378
#     4  10  20  35  62  98 125 162 213 271 320 376
#
# _framework density 20.165333
#
# number of rings (size 3 to 8) (size 9 to 14) (size 15 to 20)
#    0.000    1.714    3.571    1.286    0.000    1.714 
#    2.571    1.429    0.000    0.000    0.000    0.000 
#    0.000    0.000    0.000    0.000    0.000    0.000 
#
# Total GULP energy -156026.689062 kJ/mol
# GULP energy per Si atom -5572.381752 kJ/mol
# Density = 2.011944 g / cm^3
# Si number density = 20.165333 Si / 1000 Ang^3
#
#
#
# Elastic Constant Matrix: (Units=GPa)
#
#
# Indices 1 2 3 4 5 6 
#
# 1 43.9662 30.3074 22.0389 0.0000 0.0000 0.0000
# 2 30.3074 141.9445 59.5815 0.0000 0.0000 0.0000
# 3 22.0389 59.5815 98.4167 0.0000 0.0000 0.0000
# 4 0.0000 0.0000 0.0000 38.4914 0.0000 0.0000
# 5 0.0000 0.0000 0.0000 0.0000 19.7724 0.0000
# 6 0.0000 0.0000 0.0000 0.0000 0.0000 31.0777
#
#
#
# Elastic Compliance Matrix: (Units=1/GPa)
#
#
# Indices 1 2 3 4 5 6 
#
# 1 0.027539 -0.004413 -0.003495 0.000000 0.000000 0.000000
# 2 -0.004413 0.010152 -0.005158 0.000000 0.000000 0.000000
# 3 -0.003495 -0.005158 0.014066 0.000000 0.000000 0.000000
# 4 0.000000 0.000000 0.000000 0.025980 0.000000 0.000000
# 5 0.000000 0.000000 0.000000 0.000000 0.050576 0.000000
# 6 0.000000 0.000000 0.000000 0.000000 0.000000 0.032177
#
#
# Mechanical properties :
#
#
# Convention : Reuss Voigt Hill
#
# Bulk Modulus (GPa) = 39.02446 56.46476 47.74461
# Shear Modulus (GPa) = 25.61946 29.36160 27.49053
#
# Velocity S-wave (km/s) = 3.56823 3.81995 3.69624
# Velocity P-wave (km/s) = 6.03081 6.89331 6.47643
#
# Compressibility (1/GPa) = 0.02562495
#
# Stress axis : x y z
#
# Youngs Moduli (GPa) = 36.31251 98.49990 71.09197
#
# Poissons Ratio (x) = 0.43466 0.24849
# Poissons Ratio (y) = 0.16024 0.36669
# Poissons Ratio (z) = 0.12693 0.50807
#
# Static dielectric constant tensor:
#      x y z
#    x 1.742140 0.000000 0.000000 
#    y 0.000000 1.708600 0.000000 
#    z 0.000000 0.000000 1.754990 
# 
# From -- ./inp_files/28669.got.cif
#   From: 2010.05.17/outbox.cif.g08.bks.cpg/sg43_15_cif.got.tgz:28669.got - 2010.06.03 19:21:55.
