data_PCOD9370537
_publ_section_title
;
Structure prediction by ZEFSAII (Michael W. Deem and Ramdas Pophale) SiO2 
 PCOD9370537
Probable space group: F D D 2
;
_chemical_formula_sum "Si O2"
_cell_formula_units_Z 88
_cell_length_a 26.172197
_cell_length_b 15.454564
_cell_length_c 13.490143
_cell_angle_alpha 90.000000
_cell_angle_beta 90.000000
_cell_angle_gamma 90.000000
_cell_volume 5456.491605
_symmetry_space_group_name_H-M "F D D 2"
_symmetry_group_IT_number 43
_symmetry_cell_setting 'orthorhombic'
loop_
_space_group_symop_operation_xyz
x,y,z
-x,-y,z
1/4-x,1/4+y,1/4+z
1/4+x,1/4-y,1/4+z
x,1/2+y,1/2+z
-x,1/2-y,1/2+z
1/4-x,3/4+y,3/4+z
1/4+x,3/4-y,3/4+z
1/2+x,y,1/2+z
1/2-x,-y,1/2+z
3/4-x,1/4+y,3/4+z
3/4+x,1/4-y,3/4+z
1/2+x,1/2+y,z
1/2-x,1/2-y,z
3/4-x,3/4+y,1/4+z
3/4+x,3/4-y,1/4+z
loop_
_atom_site_type_symbol
_atom_site_label
_atom_site_fract_x
_atom_site_fract_y
_atom_site_fract_z
Si Si1 0.812714 0.091122 0.662070
Si Si2 0.000000 0.000000 0.847628
Si Si3 0.165361 0.841426 0.296382
Si Si4 0.680323 0.671856 0.928536
Si Si5 0.495720 0.211955 0.055236
Si Si6 0.416648 0.263864 0.694510
O O1 0.783949 0.182449 0.658459
O O2 0.871017 0.096704 0.699234
O O3 0.816984 0.055629 0.549162
O O4 0.781692 0.023305 0.728132
O O5 0.962689 0.054653 0.775417
O O6 0.181963 0.756624 0.357794
O O7 0.215134 0.891805 0.256994
O O8 0.123815 0.810409 0.217937
O O9 0.142859 0.908722 0.377700
O O10 0.705740 0.593063 0.869545
O O11 0.533396 0.261805 0.131750
#
# Coordination Sequence:
#
# PCOD9370537 Si02
#       6
#    16   8  16  16  16  16
#     4  11  22  32  59  84 115 150 182 237 284 332
#     4  12  18  40  54  88 116 140 188 242 280 330
#     4   9  18  33  55  81 113 143 182 239 270 325
#     4  11  18  35  55  85 110 142 193 234 275 322
#     4  10  20  34  54  83 115 148 182 228 286 329
#     4   9  19  34  56  84 112 142 191 229 276 328
#
# _framework density 16.127579000000001
#
# number of rings (size 3 to 8) (size 9 to 14) (size 15 to 20)
#    1.091    0.727    5.455    1.091    7.636    0.000 
#    0.000    1.818    0.000    0.000    0.000    0.000 
#    0.000    0.000    0.000    0.000    0.000    0.000 
#
# Total GULP energy -122483.999076 kJ/mol
# GULP energy per Si atom -5567.454503 kJ/mol
# Density = 1.609087 g / cm^3
# Si number density = 16.127579 Si / 1000 Ang^3
#
#
#
# Elastic Constant Matrix: (Units=GPa)
#
#
# Indices 1 2 3 4 5 6 
#
# 1 127.6030 62.5896 33.3729 0.0000 0.0000 0.0000
# 2 62.5896 89.2111 37.6898 0.0000 0.0000 0.0000
# 3 33.3729 37.6898 34.0808 0.0000 0.0000 0.0000
# 4 0.0000 0.0000 0.0000 28.1881 0.0000 0.0000
# 5 0.0000 0.0000 0.0000 0.0000 0.3368 0.0000
# 6 0.0000 0.0000 0.0000 0.0000 0.0000 0.1154
#
#
#
# Elastic Compliance Matrix: (Units=1/GPa)
#
#
# Indices 1 2 3 4 5 6 
#
# 1 0.012339 -0.006667 -0.004709 0.000000 0.000000 0.000000
# 2 -0.006667 0.024642 -0.020723 0.000000 0.000000 0.000000
# 3 -0.004709 -0.020723 0.056871 0.000000 0.000000 0.000000
# 4 0.000000 0.000000 0.000000 0.035476 0.000000 0.000000
# 5 0.000000 0.000000 0.000000 0.000000 2.969118 0.000000
# 6 0.000000 0.000000 0.000000 0.000000 0.000000 8.666590
#
#
# Mechanical properties :
#
#
# Convention : Reuss Voigt Hill
#
# Bulk Modulus (GPa) = 33.72336 57.57771 45.65054
# Shear Modulus (GPa) = 0.42233 13.54423 6.98328
#
# Velocity S-wave (km/s) = 0.51229 2.90111 2.08313
# Velocity P-wave (km/s) = 4.61581 6.85571 5.84408
#
# Compressibility (1/GPa) = 0.02965303
#
# Stress axis : x y z
#
# Youngs Moduli (GPa) = 81.04584 40.58134 17.58379
#
# Poissons Ratio (x) = 0.27056 0.08281
# Poissons Ratio (y) = 0.54035 0.36438
# Poissons Ratio (z) = 0.38166 0.84095
#
# Static dielectric constant tensor:
#      x y z
#    x 1.567220 0.000000 0.000000 
#    y 0.000000 1.534040 0.000000 
#    z 0.000000 0.000000 1.521800 
# 
# From -- ./inp_files/10246.got.cif
#   From: 2010.05.17/outbox.cif.g08.bks.cpg/sg43_6_cif.got.tgz:10246.got - 2010.06.03 19:21:55.
