data_PCOD9370957
_publ_section_title
;
Structure prediction by ZEFSAII (Michael W. Deem and Ramdas Pophale) SiO2 
 PCOD9370957
Probable space group: F D D 2
;
_chemical_formula_sum "Si O2"
_cell_formula_units_Z 72
_cell_length_a 10.823802
_cell_length_b 9.730930
_cell_length_c 26.598203
_cell_angle_alpha 90.000000
_cell_angle_beta 90.000000
_cell_angle_gamma 90.000000
_cell_volume 2801.473275
_symmetry_space_group_name_H-M "F D D 2"
_symmetry_group_IT_number 43
_symmetry_cell_setting 'orthorhombic'
loop_
_space_group_symop_operation_xyz
x,y,z
-x,-y,z
1/4-x,1/4+y,1/4+z
1/4+x,1/4-y,1/4+z
x,1/2+y,1/2+z
-x,1/2-y,1/2+z
1/4-x,3/4+y,3/4+z
1/4+x,3/4-y,3/4+z
1/2+x,y,1/2+z
1/2-x,-y,1/2+z
3/4-x,1/4+y,3/4+z
3/4+x,1/4-y,3/4+z
1/2+x,1/2+y,z
1/2-x,1/2-y,z
3/4-x,3/4+y,1/4+z
3/4+x,3/4-y,1/4+z
loop_
_atom_site_type_symbol
_atom_site_label
_atom_site_fract_x
_atom_site_fract_y
_atom_site_fract_z
Si Si1 0.881218 0.273125 0.507100
Si Si2 0.500000 0.500000 0.498921
Si Si3 0.887585 0.201537 0.663622
Si Si4 0.185968 0.583513 0.848137
Si Si5 0.819402 0.959701 0.589144
O O1 0.750000 0.250000 0.536017
O O2 0.832435 0.379149 0.465720
O O3 0.881143 0.970108 0.534293
O O4 0.952760 0.146888 0.477821
O O5 0.518306 0.176449 0.547613
O O6 0.750000 0.250000 0.670845
O O7 0.877030 0.083344 0.621066
O O8 0.973072 0.327022 0.645835
O O9 0.118892 0.437513 0.856809
O O10 0.078457 0.695361 0.842044
#
# Coordination Sequence:
#
# PCOD9370957 Si02
#       5
#    16   8  16  16  16
#     4  11  24  43  70 100 142 184 240 293 352 426
#     4  10  22  44  72 104 134 192 240 286 366 424
#     4  12  25  43  64 103 143 184 241 291 358 430
#     4  10  22  43  70 100 133 190 233 295 356 419
#     4  10  20  43  73  93 138 186 236 287 363 421
#
# _framework density 25.700762000000001
#
# number of rings (size 3 to 8) (size 9 to 14) (size 15 to 20)
#    0.000    1.333    4.444    2.000    0.000    6.222 
#    0.000    6.667    0.000    0.000    0.000    0.000 
#    0.000    0.000    0.000    0.000    0.000    0.000 
#
# Total GULP energy -100557.493268 kJ/mol
# GULP energy per Si atom -5586.527404 kJ/mol
# Density = 2.564227 g / cm^3
# Si number density = 25.700762 Si / 1000 Ang^3
#
#
#
# Elastic Constant Matrix: (Units=GPa)
#
#
# Indices 1 2 3 4 5 6 
#
# 1 189.4060 42.8542 43.4453 0.0000 0.0000 0.0000
# 2 42.8542 80.9529 10.1149 0.0000 0.0000 0.0000
# 3 43.4453 10.1149 80.6379 0.0000 0.0000 0.0000
# 4 0.0000 0.0000 0.0000 4.2117 0.0000 0.0000
# 5 0.0000 0.0000 0.0000 0.0000 15.4399 0.0000
# 6 0.0000 0.0000 0.0000 0.0000 0.0000 67.6907
#
#
#
# Elastic Compliance Matrix: (Units=1/GPa)
#
#
# Indices 1 2 3 4 5 6 
#
# 1 0.006737 -0.003162 -0.003233 0.000000 0.000000 0.000000
# 2 -0.003162 0.014034 -0.000057 0.000000 0.000000 0.000000
# 3 -0.003233 -0.000057 0.014150 0.000000 0.000000 0.000000
# 4 0.000000 0.000000 0.000000 0.237434 0.000000 0.000000
# 5 0.000000 0.000000 0.000000 0.000000 0.064767 0.000000
# 6 0.000000 0.000000 0.000000 0.000000 0.000000 0.014773
#
#
# Mechanical properties :
#
#
# Convention : Reuss Voigt Hill
#
# Bulk Modulus (GPa) = 45.41920 60.42506 52.92213
# Shear Modulus (GPa) = 13.43591 34.44062 23.93827
#
# Velocity S-wave (km/s) = 2.28892 3.66466 3.05523
# Velocity P-wave (km/s) = 4.96953 6.43959 5.75172
#
# Compressibility (1/GPa) = 0.02201712
#
# Stress axis : x y z
#
# Youngs Moduli (GPa) = 148.44082 71.25570 70.67146
#
# Poissons Ratio (x) = 0.22533 0.22847
# Poissons Ratio (y) = 0.46941 0.00400
# Poissons Ratio (z) = 0.47989 0.00403
#
# Static dielectric constant tensor:
#      x y z
#    x 2.080410 0.000000 0.000000 
#    y 0.000000 2.226390 0.000000 
#    z 0.000000 0.000000 2.037420 
# 
# From -- ./inp_files/28959.got.cif
#   From: 2010.05.17/outbox.cif.g08.bks.cpg/sg43_15_cif.got.tgz:28959.got - 2010.06.03 19:21:55.
