data_PCOD9370853
_publ_section_title
;
Structure prediction by ZEFSAII (Michael W. Deem and Ramdas Pophale) SiO2 
 PCOD9370853
Probable space group: F D D 2
;
_chemical_formula_sum "Si O2"
_cell_formula_units_Z 80
_cell_length_a 19.583880
_cell_length_b 13.158730
_cell_length_c 14.513411
_cell_angle_alpha 90.000000
_cell_angle_beta 90.000000
_cell_angle_gamma 90.000000
_cell_volume 3740.091346
_symmetry_space_group_name_H-M "F D D 2"
_symmetry_group_IT_number 43
_symmetry_cell_setting 'orthorhombic'
loop_
_space_group_symop_operation_xyz
x,y,z
-x,-y,z
1/4-x,1/4+y,1/4+z
1/4+x,1/4-y,1/4+z
x,1/2+y,1/2+z
-x,1/2-y,1/2+z
1/4-x,3/4+y,3/4+z
1/4+x,3/4-y,3/4+z
1/2+x,y,1/2+z
1/2-x,-y,1/2+z
3/4-x,1/4+y,3/4+z
3/4+x,1/4-y,3/4+z
1/2+x,1/2+y,z
1/2-x,1/2-y,z
3/4-x,3/4+y,1/4+z
3/4+x,3/4-y,1/4+z
loop_
_atom_site_type_symbol
_atom_site_label
_atom_site_fract_x
_atom_site_fract_y
_atom_site_fract_z
Si Si1 0.577017 0.274246 0.937650
Si Si2 0.512828 0.159209 0.088578
Si Si3 0.251679 0.629848 0.541799
Si Si4 0.322399 0.193549 0.592829
Si Si5 0.609628 0.979949 0.032987
O O1 0.553165 0.362343 0.871102
O O2 0.570465 0.173685 0.874191
O O3 0.527556 0.255403 0.025055
O O4 0.647652 0.291086 0.991044
O O5 0.489013 0.172123 0.192876
O O6 0.451874 0.098898 0.039471
O O7 0.578829 0.081702 0.081346
O O8 0.250000 0.750000 0.522389
O O9 0.322808 0.574689 0.571029
O O10 0.250000 0.250000 0.598231
O O11 0.368324 0.240749 0.675680
#
# Coordination Sequence:
#
# PCOD9370853 Si02
#       5
#    16  16  16  16  16
#     4  11  26  43  69 109 141 185 234 298 359 421
#     4  10  21  41  70 104 130 186 237 294 341 425
#     4  12  26  43  69 107 148 185 231 298 365 425
#     4  11  23  44  75 102 140 185 245 289 355 422
#     4  10  20  40  72  99 133 180 249 285 335 422
#
# _framework density 21.389852000000001
#
# number of rings (size 3 to 8) (size 9 to 14) (size 15 to 20)
#    0.000    1.200    8.000    0.000    8.400    1.600 
#    0.000    5.000    0.000    0.000    0.000    0.000 
#    0.000    0.000    0.000    0.000    0.000    0.000 
#
# Total GULP energy -111532.674745 kJ/mol
# GULP energy per Si atom -5576.633737 kJ/mol
# Density = 2.134117 g / cm^3
# Si number density = 21.389852 Si / 1000 Ang^3
#
#
#
# Elastic Constant Matrix: (Units=GPa)
#
#
# Indices 1 2 3 4 5 6 
#
# 1 43.0869 -0.6841 29.8892 0.0000 0.0000 0.0000
# 2 -0.6841 20.7848 20.0880 0.0000 0.0000 0.0000
# 3 29.8892 20.0880 127.1677 0.0000 0.0000 0.0000
# 4 0.0000 0.0000 0.0000 24.1612 0.0000 0.0000
# 5 0.0000 0.0000 0.0000 0.0000 38.5898 0.0000
# 6 0.0000 0.0000 0.0000 0.0000 0.0000 8.3519
#
#
#
# Elastic Compliance Matrix: (Units=1/GPa)
#
#
# Indices 1 2 3 4 5 6 
#
# 1 0.029067 0.008922 -0.008241 0.000000 0.000000 0.000000
# 2 0.008922 0.059519 -0.011499 0.000000 0.000000 0.000000
# 3 -0.008241 -0.011499 0.011617 0.000000 0.000000 0.000000
# 4 0.000000 0.000000 0.000000 0.041389 0.000000 0.000000
# 5 0.000000 0.000000 0.000000 0.000000 0.025914 0.000000
# 6 0.000000 0.000000 0.000000 0.000000 0.000000 0.119734
#
#
# Mechanical properties :
#
#
# Convention : Reuss Voigt Hill
#
# Bulk Modulus (GPa) = 12.72800 32.18062 22.45431
# Shear Modulus (GPa) = 14.92246 23.67033 19.29639
#
# Velocity S-wave (km/s) = 2.64416 3.33019 3.00680
# Velocity P-wave (km/s) = 3.90967 5.46483 4.75131
#
# Compressibility (1/GPa) = 0.07856695
#
# Stress axis : x y z
#
# Youngs Moduli (GPa) = 34.40269 16.80130 86.08022
#
# Poissons Ratio (x) = -0.14990 0.70941
# Poissons Ratio (y) = -0.30693 0.98983
# Poissons Ratio (z) = 0.28352 0.19320
#
# Static dielectric constant tensor:
#      x y z
#    x 1.833630 0.000000 0.000000 
#    y 0.000000 1.799420 0.000000 
#    z 0.000000 0.000000 1.773280 
# 
# From -- ./inp_files/10865.got.cif
#   From: 2010.05.17/outbox.cif.g08.bks.cpg/sg43_6_cif.got.tgz:10865.got - 2010.06.03 19:21:55.
