data_PCOD9370235
_publ_section_title
;
Structure prediction by ZEFSAII (Michael W. Deem and Ramdas Pophale) SiO2 
 PCOD9370235
Probable space group: F D D 2
;
_chemical_formula_sum "Si O2"
_cell_formula_units_Z 88
_cell_length_a 26.575190
_cell_length_b 10.151014
_cell_length_c 11.701268
_cell_angle_alpha 90.000000
_cell_angle_beta 90.000000
_cell_angle_gamma 90.000000
_cell_volume 3156.594033
_symmetry_space_group_name_H-M "F D D 2"
_symmetry_group_IT_number 43
_symmetry_cell_setting 'orthorhombic'
loop_
_space_group_symop_operation_xyz
x,y,z
-x,-y,z
1/4-x,1/4+y,1/4+z
1/4+x,1/4-y,1/4+z
x,1/2+y,1/2+z
-x,1/2-y,1/2+z
1/4-x,3/4+y,3/4+z
1/4+x,3/4-y,3/4+z
1/2+x,y,1/2+z
1/2-x,-y,1/2+z
3/4-x,1/4+y,3/4+z
3/4+x,1/4-y,3/4+z
1/2+x,1/2+y,z
1/2-x,1/2-y,z
3/4-x,3/4+y,1/4+z
3/4+x,3/4-y,1/4+z
loop_
_atom_site_type_symbol
_atom_site_label
_atom_site_fract_x
_atom_site_fract_y
_atom_site_fract_z
Si Si1 0.961167 0.757665 0.147940
Si Si2 0.169215 0.361772 0.681377
Si Si3 0.569981 0.026951 0.188561
Si Si4 0.932413 0.337993 0.425715
Si Si5 0.601411 0.390112 0.991703
Si Si6 0.750000 0.750000 0.521129
O O1 0.962022 0.608480 0.192503
O O2 0.905101 0.815293 0.183590
O O3 0.998591 0.865715 0.199196
O O4 0.967076 0.754098 0.010317
O O5 0.181495 0.330416 0.810731
O O6 0.114742 0.345956 0.620587
O O7 0.172914 0.520266 0.673293
O O8 0.202744 0.267628 0.603817
O O9 0.628120 0.978487 0.194250
O O10 0.561070 0.126351 0.293347
O O11 0.932447 0.482283 0.483928
#
# Coordination Sequence:
#
# PCOD9370235 Si02
#       6
#    16  16  16  16  16   8
#     4  10  21  41  62  89 121 174 213 259 322 398
#     4  11  22  39  61  98 126 164 210 275 320 383
#     4  11  21  35  61  93 129 151 210 276 318 374
#     4  11  18  36  63  92 120 161 206 268 313 381
#     4  10  18  36  65  86 118 162 215 253 310 379
#     4  10  24  44  58  84 134 170 216 254 340 392
#
# _framework density 27.878150000000002
#
# number of rings (size 3 to 8) (size 9 to 14) (size 15 to 20)
#    0.000    1.455    5.455    3.273    0.000    0.000 
#    6.545    0.909    0.000    0.000    0.000    0.000 
#    0.000    0.000    0.000    0.000    0.000    0.000 
#
# Total GULP energy -123222.727973 kJ/mol
# GULP energy per Si atom -5601.033090 kJ/mol
# Density = 2.781470 g / cm^3
# Si number density = 27.878150 Si / 1000 Ang^3
#
#
#
# Elastic Constant Matrix: (Units=GPa)
#
#
# Indices 1 2 3 4 5 6 
#
# 1 83.1029 29.1788 31.0482 0.0000 0.0000 0.0000
# 2 29.1788 121.2638 47.6327 0.0000 0.0000 0.0000
# 3 31.0482 47.6327 235.2770 0.0000 0.0000 0.0000
# 4 0.0000 0.0000 0.0000 32.6763 0.0000 0.0000
# 5 0.0000 0.0000 0.0000 0.0000 33.5463 0.0000
# 6 0.0000 0.0000 0.0000 0.0000 0.0000 45.8023
#
#
#
# Elastic Compliance Matrix: (Units=1/GPa)
#
#
# Indices 1 2 3 4 5 6 
#
# 1 0.013457 -0.002760 -0.001217 0.000000 0.000000 0.000000
# 2 -0.002760 0.009525 -0.001564 0.000000 0.000000 0.000000
# 3 -0.001217 -0.001564 0.004728 0.000000 0.000000 0.000000
# 4 0.000000 0.000000 0.000000 0.030603 0.000000 0.000000
# 5 0.000000 0.000000 0.000000 0.000000 0.029810 0.000000
# 6 0.000000 0.000000 0.000000 0.000000 0.000000 0.021833
#
#
# Mechanical properties :
#
#
# Convention : Reuss Voigt Hill
#
# Bulk Modulus (GPa) = 60.14243 72.81813 66.48028
# Shear Modulus (GPa) = 39.50063 44.52391 42.01227
#
# Velocity S-wave (km/s) = 3.76826 4.00070 3.88622
# Velocity P-wave (km/s) = 6.36814 6.89330 6.63592
#
# Compressibility (1/GPa) = 0.01662720
#
# Stress axis : x y z
#
# Youngs Moduli (GPa) = 74.31040 104.98687 211.52433
#
# Poissons Ratio (x) = 0.28976 0.25744
# Poissons Ratio (y) = 0.20510 0.33086
# Poissons Ratio (z) = 0.09044 0.16422
#
# Static dielectric constant tensor:
#      x y z
#    x 2.268990 0.000000 0.000000 
#    y 0.000000 2.173360 0.000000 
#    z 0.000000 0.000000 2.254360 
# 
# From -- ./inp_files/8212.got.cif
#   From: 2010.05.17/outbox.cif.g08.bks.cpg/sg43_5_cif.got.tgz:8212.got - 2010.06.03 19:21:55.
