data_PCOD9370829
_publ_section_title
;
Structure prediction by ZEFSAII (Michael W. Deem and Ramdas Pophale) SiO2 
 PCOD9370829
Probable space group: F D D 2
;
_chemical_formula_sum "Si O2"
_cell_formula_units_Z 104
_cell_length_a 17.774431
_cell_length_b 32.109437
_cell_length_c 7.815158
_cell_angle_alpha 90.000000
_cell_angle_beta 90.000000
_cell_angle_gamma 90.000000
_cell_volume 4460.321464
_symmetry_space_group_name_H-M "F D D 2"
_symmetry_group_IT_number 43
_symmetry_cell_setting 'orthorhombic'
loop_
_space_group_symop_operation_xyz
x,y,z
-x,-y,z
1/4-x,1/4+y,1/4+z
1/4+x,1/4-y,1/4+z
x,1/2+y,1/2+z
-x,1/2-y,1/2+z
1/4-x,3/4+y,3/4+z
1/4+x,3/4-y,3/4+z
1/2+x,y,1/2+z
1/2-x,-y,1/2+z
3/4-x,1/4+y,3/4+z
3/4+x,1/4-y,3/4+z
1/2+x,1/2+y,z
1/2-x,1/2-y,z
3/4-x,3/4+y,1/4+z
3/4+x,3/4-y,1/4+z
loop_
_atom_site_type_symbol
_atom_site_label
_atom_site_fract_x
_atom_site_fract_y
_atom_site_fract_z
Si Si1 0.767235 0.492158 0.708880
Si Si2 0.098936 0.785719 0.287429
Si Si3 0.573920 0.921081 0.238924
Si Si4 0.636229 0.927199 0.623169
Si Si5 0.250000 0.750000 0.313415
Si Si6 0.471731 0.130690 0.763099
Si Si7 0.513391 0.154235 0.370359
O O1 0.786866 0.476109 0.896554
O O2 0.682244 0.509526 0.697206
O O3 0.823266 0.530020 0.671115
O O4 0.772106 0.450117 0.595755
O O5 0.178168 0.769737 0.220656
O O6 0.088201 0.834208 0.319802
O O7 0.603243 0.929579 0.431732
O O8 0.520362 0.880605 0.247773
O O9 0.647173 0.910561 0.125279
O O10 0.530299 0.961221 0.173058
O O11 0.570605 0.913274 0.753898
O O12 0.701380 0.891300 0.612057
O O13 0.491382 0.139480 0.562884
#
# Coordination Sequence:
#
# PCOD9370829 Si02
#       7
#    16  16  16  16   8  16  16
#     4  10  20  40  68  88 122 173 215 250 324 387
#     4  10  22  40  63  87 127 168 207 263 311 378
#     4  10  21  39  61  91 127 162 209 264 320 378
#     4   9  18  35  64  90 121 165 212 256 314 388
#     4  12  24  40  58  94 138 160 206 278 324 360
#     4   8  17  34  57  85 119 158 204 254 307 365
#     4   9  18  38  61  87 119 163 210 259 306 376
#
# _framework density 23.316704000000001
#
# number of rings (size 3 to 8) (size 9 to 14) (size 15 to 20)
#    0.000    2.462    1.538    0.923    0.000    2.462 
#    2.769    5.385    0.000    0.000    0.000    0.000 
#    0.000    0.000    0.000    0.000    0.000    0.000 
#
# Total GULP energy -145210.440768 kJ/mol
# GULP energy per Si atom -5585.016953 kJ/mol
# Density = 2.326363 g / cm^3
# Si number density = 23.316704 Si / 1000 Ang^3
#
#
#
# Elastic Constant Matrix: (Units=GPa)
#
#
# Indices 1 2 3 4 5 6 
#
# 1 84.8328 46.8339 8.0377 0.0000 -0.0003 0.0000
# 2 46.8339 136.3177 9.4376 0.0000 0.0000 0.0000
# 3 8.0377 9.4376 30.8355 0.0000 -0.0005 0.0000
# 4 0.0000 0.0000 0.0000 20.3807 0.0000 0.0000
# 5 -0.0003 0.0000 -0.0005 0.0000 22.5572 0.0000
# 6 0.0000 0.0000 0.0000 0.0000 0.0000 52.4885
#
#
#
# Elastic Compliance Matrix: (Units=1/GPa)
#
#
# Indices 1 2 3 4 5 6 
#
# 1 0.014710 -0.004892 -0.002337 0.000000 0.000000 0.000000
# 2 -0.004892 0.009122 -0.001517 0.000000 0.000000 0.000000
# 3 -0.002337 -0.001517 0.033503 0.000000 0.000001 0.000000
# 4 0.000000 0.000000 0.000000 0.049066 0.000000 0.000000
# 5 0.000000 0.000000 0.000001 0.000000 0.044332 0.000000
# 6 0.000000 0.000000 0.000000 0.000000 0.000000 0.019052
#
#
# Mechanical properties :
#
#
# Convention : Reuss Voigt Hill
#
# Bulk Modulus (GPa) = 25.09811 42.28938 33.69374
# Shear Modulus (GPa) = 24.93051 31.59706 28.26378
#
# Velocity S-wave (km/s) = 3.27343 3.68520 3.48540
# Velocity P-wave (km/s) = 5.00744 6.02361 5.53888
#
# Compressibility (1/GPa) = 0.03984364
#
# Stress axis : x y z
#
# Youngs Moduli (GPa) = 67.98048 109.63053 29.84765
#
# Poissons Ratio (x) = 0.53632 0.06976
# Poissons Ratio (y) = 0.33257 0.04527
# Poissons Ratio (z) = 0.15888 0.16626
#
# Static dielectric constant tensor:
#      x y z
#    x 1.892330 0.000000 0.000000 
#    y 0.000000 1.890360 0.000000 
#    z 0.000000 0.000000 1.925400 
# 
# From -- ./inp_files/10681.got.cif
#   From: 2010.05.17/outbox.cif.g08.bks.cpg/sg43_6_cif.got.tgz:10681.got - 2010.06.03 19:21:55.
