data_PCOD9370739
_publ_section_title
;
Structure prediction by ZEFSAII (Michael W. Deem and Ramdas Pophale) SiO2 
 PCOD9370739
Probable space group: F D D 2
;
_chemical_formula_sum "Si O2"
_cell_formula_units_Z 120
_cell_length_a 17.562066
_cell_length_b 12.396792
_cell_length_c 25.147869
_cell_angle_alpha 90.000000
_cell_angle_beta 90.000000
_cell_angle_gamma 90.000000
_cell_volume 5475.025027
_symmetry_space_group_name_H-M "F D D 2"
_symmetry_group_IT_number 43
_symmetry_cell_setting 'orthorhombic'
loop_
_space_group_symop_operation_xyz
x,y,z
-x,-y,z
1/4-x,1/4+y,1/4+z
1/4+x,1/4-y,1/4+z
x,1/2+y,1/2+z
-x,1/2-y,1/2+z
1/4-x,3/4+y,3/4+z
1/4+x,3/4-y,3/4+z
1/2+x,y,1/2+z
1/2-x,-y,1/2+z
3/4-x,1/4+y,3/4+z
3/4+x,1/4-y,3/4+z
1/2+x,1/2+y,z
1/2-x,1/2-y,z
3/4-x,3/4+y,1/4+z
3/4+x,3/4-y,1/4+z
loop_
_atom_site_type_symbol
_atom_site_label
_atom_site_fract_x
_atom_site_fract_y
_atom_site_fract_z
Si Si1 0.403240 0.187860 0.213460
Si Si2 0.000000 0.500000 0.451013
Si Si3 0.440819 0.910858 0.746379
Si Si4 0.066943 0.576802 0.868914
Si Si5 0.075252 0.630507 0.124758
Si Si6 0.900611 0.102787 0.596786
Si Si7 0.383346 0.956908 0.236705
Si Si8 0.462712 0.230865 0.446153
O O1 0.321634 0.220407 0.237805
O O2 0.451813 0.295170 0.218476
O O3 0.382340 0.163043 0.151992
O O4 0.423726 0.073825 0.238361
O O5 0.023468 0.389135 0.422059
O O6 0.453363 0.892921 0.808795
O O7 0.356071 0.958522 0.737105
O O8 0.500000 0.000000 0.726917
O O9 0.138734 0.496783 0.866242
O O10 0.068494 0.681923 0.904897
O O11 0.000000 0.500000 0.891185
O O12 0.119100 0.524319 0.102528
O O13 0.078165 0.608170 0.188205
O O14 0.992399 0.618366 0.098774
O O15 0.866749 0.149777 0.543233
O O16 0.293821 0.978670 0.220015
#
# Coordination Sequence:
#
# PCOD9370739 Si02
#       8
#    16   8  16  16  16  16  16  16
#     4   9  20  39  59  88 124 158 216 264 318 407
#     4   8  18  38  62  80 116 160 214 258 304 388
#     4  10  23  39  58  93 129 164 203 275 339 392
#     4  11  22  38  61  90 126 163 213 265 324 399
#     4  10  22  39  58  95 128 161 220 282 323 411
#     4  10  22  39  62  90 129 167 214 276 337 391
#     4  10  20  40  66  88 119 176 217 269 338 394
#     4  10  20  39  64  88 120 170 216 267 330 400
#
# _framework density 21.917708999999999
#
# number of rings (size 3 to 8) (size 9 to 14) (size 15 to 20)
#    0.000    2.133    1.333    0.800    1.867    5.333 
#    2.400    2.667    2.933    0.000    0.000    0.000 
#    0.000    0.000    0.000    0.000    0.000    0.000 
#
# Total GULP energy -167289.380293 kJ/mol
# GULP energy per Si atom -5576.312676 kJ/mol
# Density = 2.186782 g / cm^3
# Si number density = 21.917709 Si / 1000 Ang^3
#
#
#
# Elastic Constant Matrix: (Units=GPa)
#
#
# Indices 1 2 3 4 5 6 
#
# 1 48.5193 27.6629 -6.6448 0.0000 0.0000 0.0000
# 2 27.6629 158.8341 62.0056 0.0000 0.0000 0.0000
# 3 -6.6448 62.0056 95.4849 0.0000 0.0000 0.0000
# 4 0.0000 0.0000 0.0000 20.7848 0.0000 0.0000
# 5 0.0000 0.0000 0.0000 0.0000 24.1379 0.0000
# 6 0.0000 0.0000 0.0000 0.0000 0.0000 38.1762
#
#
#
# Elastic Compliance Matrix: (Units=1/GPa)
#
#
# Indices 1 2 3 4 5 6 
#
# 1 0.025360 -0.006840 0.006206 0.000000 0.000000 0.000000
# 2 -0.006840 0.010279 -0.007151 0.000000 0.000000 0.000000
# 3 0.006206 -0.007151 0.015548 0.000000 0.000000 0.000000
# 4 0.000000 0.000000 0.000000 0.048112 0.000000 0.000000
# 5 0.000000 0.000000 0.000000 0.000000 0.041429 0.000000
# 6 0.000000 0.000000 0.000000 0.000000 0.000000 0.026194
#
#
# Mechanical properties :
#
#
# Convention : Reuss Voigt Hill
#
# Bulk Modulus (GPa) = 28.07513 52.09842 40.08678
# Shear Modulus (GPa) = 25.72517 31.27407 28.49962
#
# Velocity S-wave (km/s) = 3.42967 3.78151 3.60988
# Velocity P-wave (km/s) = 5.34047 6.54890 5.97531
#
# Compressibility (1/GPa) = 0.03561871
#
# Stress axis : x y z
#
# Youngs Moduli (GPa) = 39.43250 97.29039 64.31622
#
# Poissons Ratio (x) = 0.66542 -0.39916
# Poissons Ratio (y) = 0.26970 0.45990
# Poissons Ratio (z) = -0.24473 0.69568
#
# Static dielectric constant tensor:
#      x y z
#    x 1.963780 0.000000 0.000000 
#    y 0.000000 1.847780 0.000000 
#    z 0.000000 0.000000 1.761590 
# 
# From -- ./inp_files/25264.got.cif
#   From: 2010.05.17/outbox.cif.g08.bks.cpg/sg43_13_cif.got.tgz:25264.got - 2010.06.03 19:21:55.
