data_PCOD9370247
_publ_section_title
;
Structure prediction by ZEFSAII (Michael W. Deem and Ramdas Pophale) SiO2 
 PCOD9370247
Probable space group: F D D 2
;
_chemical_formula_sum "Si O2"
_cell_formula_units_Z 120
_cell_length_a 11.215600
_cell_length_b 21.108225
_cell_length_c 19.472351
_cell_angle_alpha 90.000000
_cell_angle_beta 90.000000
_cell_angle_gamma 90.000000
_cell_volume 4609.911799
_symmetry_space_group_name_H-M "F D D 2"
_symmetry_group_IT_number 43
_symmetry_cell_setting 'orthorhombic'
loop_
_space_group_symop_operation_xyz
x,y,z
-x,-y,z
1/4-x,1/4+y,1/4+z
1/4+x,1/4-y,1/4+z
x,1/2+y,1/2+z
-x,1/2-y,1/2+z
1/4-x,3/4+y,3/4+z
1/4+x,3/4-y,3/4+z
1/2+x,y,1/2+z
1/2-x,-y,1/2+z
3/4-x,1/4+y,3/4+z
3/4+x,1/4-y,3/4+z
1/2+x,1/2+y,z
1/2-x,1/2-y,z
3/4-x,3/4+y,1/4+z
3/4+x,3/4-y,1/4+z
loop_
_atom_site_type_symbol
_atom_site_label
_atom_site_fract_x
_atom_site_fract_y
_atom_site_fract_z
Si Si1 0.137475 0.128316 0.697740
Si Si2 0.526412 0.181349 0.762600
Si Si3 0.020167 0.575071 0.559990
Si Si4 0.685382 0.489101 0.724392
Si Si5 0.500000 0.500000 0.833254
Si Si6 0.383423 0.083616 0.695393
Si Si7 0.374038 0.535352 0.583296
Si Si8 0.668510 0.554238 0.934647
O O1 0.111546 0.054805 0.710669
O O2 0.270326 0.124934 0.667536
O O3 0.134452 0.165974 0.770259
O O4 0.033421 0.160593 0.655092
O O5 0.651413 0.147131 0.775855
O O6 0.430158 0.127215 0.755629
O O7 0.477202 0.231526 0.818533
O O8 0.543593 0.230832 0.699653
O O9 0.991893 0.582706 0.640648
O O10 0.000000 0.500000 0.550183
O O11 0.129697 0.584393 0.508435
O O12 0.615632 0.470864 0.793284
O O13 0.820108 0.518343 0.720757
O O14 0.662160 0.443796 0.659848
O O15 0.559469 0.551722 0.882893
O O16 0.500000 0.500000 0.584022
#
# Coordination Sequence:
#
# PCOD9370247 Si02
#       8
#    16  16  16  16   8  16  16  16
#     4   9  22  38  63 104 124 171 232 283 341 417
#     4  10  18  37  67  91 123 172 220 279 336 410
#     4  10  20  40  67  90 126 179 226 271 353 418
#     4  10  23  36  61 100 125 176 223 284 334 411
#     4  12  22  40  58  86 142 174 210 272 340 408
#     4  10  21  38  67  96 129 164 235 290 325 415
#     4  11  17  35  65  92 130 167 219 277 351 398
#     4  10  22  39  64  90 132 180 219 276 348 416
#
# _framework density 26.030867000000001
#
# number of rings (size 3 to 8) (size 9 to 14) (size 15 to 20)
#    0.800    1.067    5.333    0.000    0.000    4.267 
#    0.000    0.000    8.800    0.000    0.000    0.000 
#    0.000    0.000    0.000    0.000    0.000    0.000 
#
# Total GULP energy -167242.685057 kJ/mol
# GULP energy per Si atom -5574.756169 kJ/mol
# Density = 2.597162 g / cm^3
# Si number density = 26.030867 Si / 1000 Ang^3
#
#
#
# Elastic Constant Matrix: (Units=GPa)
#
#
# Indices 1 2 3 4 5 6 
#
# 1 110.7644 1.9875 22.8567 0.0000 0.0000 0.0000
# 2 1.9875 69.7373 26.8077 0.0000 0.0000 0.0000
# 3 22.8567 26.8077 106.5199 0.0000 0.0000 0.0000
# 4 0.0000 0.0000 0.0000 33.9147 0.0000 0.0000
# 5 0.0000 0.0000 0.0000 0.0000 43.2411 0.0000
# 6 0.0000 0.0000 0.0000 0.0000 0.0000 29.1578
#
#
#
# Elastic Compliance Matrix: (Units=1/GPa)
#
#
# Indices 1 2 3 4 5 6 
#
# 1 0.009467 0.000566 -0.002174 0.000000 0.000000 0.000000
# 2 0.000566 0.015909 -0.004125 0.000000 0.000000 0.000000
# 3 -0.002174 -0.004125 0.010893 0.000000 0.000000 0.000000
# 4 0.000000 0.000000 0.000000 0.029486 0.000000 0.000000
# 5 0.000000 0.000000 0.000000 0.000000 0.023126 0.000000
# 6 0.000000 0.000000 0.000000 0.000000 0.000000 0.034296
#
#
# Mechanical properties :
#
#
# Convention : Reuss Voigt Hill
#
# Bulk Modulus (GPa) = 40.31937 43.36952 41.84444
# Shear Modulus (GPa) = 34.98706 36.95403 35.97055
#
# Velocity S-wave (km/s) = 3.67012 3.77188 3.72135
# Velocity P-wave (km/s) = 5.78640 5.97213 5.88000
#
# Compressibility (1/GPa) = 0.02480198
#
# Stress axis : x y z
#
# Youngs Moduli (GPa) = 105.63486 62.85677 91.80598
#
# Poissons Ratio (x) = -0.03556 0.19956
# Poissons Ratio (y) = -0.05977 0.37872
# Poissons Ratio (z) = 0.22962 0.25930
#
# Static dielectric constant tensor:
#      x y z
#    x 2.113720 0.000000 0.000000 
#    y 0.000000 2.042230 0.000000 
#    z 0.000000 0.000000 2.206430 
# 
# From -- ./inp_files/17350.got.cif
#   From: 2010.05.17/outbox.cif.g08.bks.cpg/sg43_9_cif.got.tgz:17350.got - 2010.06.03 19:21:55.
