data_PCOD9370400
_publ_section_title
;
Structure prediction by ZEFSAII (Michael W. Deem and Ramdas Pophale) SiO2 
 PCOD9370400
Probable space group: F D D 2
;
_chemical_formula_sum "Si O2"
_cell_formula_units_Z 120
_cell_length_a 11.342935
_cell_length_b 25.037779
_cell_length_c 16.529763
_cell_angle_alpha 90.000000
_cell_angle_beta 90.000000
_cell_angle_gamma 90.000000
_cell_volume 4694.484094
_symmetry_space_group_name_H-M "F D D 2"
_symmetry_group_IT_number 43
_symmetry_cell_setting 'orthorhombic'
loop_
_space_group_symop_operation_xyz
x,y,z
-x,-y,z
1/4-x,1/4+y,1/4+z
1/4+x,1/4-y,1/4+z
x,1/2+y,1/2+z
-x,1/2-y,1/2+z
1/4-x,3/4+y,3/4+z
1/4+x,3/4-y,3/4+z
1/2+x,y,1/2+z
1/2-x,-y,1/2+z
3/4-x,1/4+y,3/4+z
3/4+x,1/4-y,3/4+z
1/2+x,1/2+y,z
1/2-x,1/2-y,z
3/4-x,3/4+y,1/4+z
3/4+x,3/4-y,1/4+z
loop_
_atom_site_type_symbol
_atom_site_label
_atom_site_fract_x
_atom_site_fract_y
_atom_site_fract_z
Si Si1 0.796317 0.934705 0.552060
Si Si2 0.332302 0.090262 0.115994
Si Si3 0.887103 0.477632 0.614688
Si Si4 0.250000 0.250000 0.825625
Si Si5 0.300207 0.166106 0.590999
Si Si6 0.196673 0.103162 0.718310
Si Si7 0.591835 0.042940 0.437170
Si Si8 0.191565 0.482010 0.838766
O O1 0.727012 0.881224 0.526418
O O2 0.942158 0.884159 0.427117
O O3 0.695307 0.973565 0.586313
O O4 0.901923 0.971192 0.519407
O O5 0.205024 0.067279 0.139682
O O6 0.365485 0.109042 0.023513
O O7 0.344991 0.146489 0.159060
O O8 0.420384 0.040586 0.127945
O O9 0.937600 0.454294 0.531324
O O10 0.000000 0.500000 0.663896
O O11 0.136829 0.086777 0.634164
O O12 0.179649 0.199899 0.599332
O O13 0.404780 0.206839 0.572875
O O14 0.239523 0.051699 0.768919
O O15 0.719849 0.019820 0.414434
O O16 0.500000 0.000000 0.399925
#
# Coordination Sequence:
#
# PCOD9370400 Si02
#       8
#    16  16  16   8  16  16  16  16
#     4   9  20  39  57  92 121 166 211 267 323 373
#     4  10  21  38  64  95 124 167 210 270 323 378
#     4  10  22  41  63  86 127 169 212 258 320 400
#     4  10  20  36  66  86 124 158 216 266 316 378
#     4   9  20  35  59  86 127 159 211 268 322 373
#     4   9  20  37  58  92 131 161 218 265 320 391
#     4  10  22  39  59  90 129 167 212 256 320 390
#     4  10  19  37  59  92 125 168 211 263 325 386
#
# _framework density 25.561914000000002
#
# number of rings (size 3 to 8) (size 9 to 14) (size 15 to 20)
#    0.800    1.600    0.000    2.400    1.867    5.333 
#    7.200    5.333    0.000    0.000    0.000    0.000 
#    0.000    0.000    0.000    0.000    0.000    0.000 
#
# Total GULP energy -167182.915032 kJ/mol
# GULP energy per Si atom -5572.763834 kJ/mol
# Density = 2.550373 g / cm^3
# Si number density = 25.561914 Si / 1000 Ang^3
#
#
#
# Elastic Constant Matrix: (Units=GPa)
#
#
# Indices 1 2 3 4 5 6 
#
# 1 141.0991 70.7538 2.8957 0.0000 0.0000 0.0000
# 2 70.7538 163.5265 13.7467 0.0000 0.0000 0.0000
# 3 2.8957 13.7467 56.3791 0.0000 0.0000 0.0000
# 4 0.0000 0.0000 0.0000 27.9286 0.0000 0.0000
# 5 0.0000 0.0000 0.0000 0.0000 11.7996 0.0000
# 6 0.0000 0.0000 0.0000 0.0000 0.0000 48.3000
#
#
#
# Elastic Compliance Matrix: (Units=1/GPa)
#
#
# Indices 1 2 3 4 5 6 
#
# 1 0.009065 -0.003964 0.000501 0.000000 0.000000 0.000000
# 2 -0.003964 0.007977 -0.001741 0.000000 0.000000 0.000000
# 3 0.000501 -0.001741 0.018136 0.000000 0.000000 0.000000
# 4 0.000000 0.000000 0.000000 0.035806 0.000000 0.000000
# 5 0.000000 0.000000 0.000000 0.000000 0.084748 0.000000
# 6 0.000000 0.000000 0.000000 0.000000 0.000000 0.020704
#
#
# Mechanical properties :
#
#
# Convention : Reuss Voigt Hill
#
# Bulk Modulus (GPa) = 40.37406 59.53303 49.95354
# Shear Modulus (GPa) = 25.62780 35.84622 30.73701
#
# Velocity S-wave (km/s) = 3.16979 3.74883 3.47140
# Velocity P-wave (km/s) = 5.40607 6.48680 5.97094
#
# Compressibility (1/GPa) = 0.02476838
#
# Stress axis : x y z
#
# Youngs Moduli (GPa) = 110.31698 125.36325 55.13917
#
# Poissons Ratio (x) = 0.49697 -0.02762
# Poissons Ratio (y) = 0.43732 0.09602
# Poissons Ratio (z) = -0.05527 0.21830
#
# Static dielectric constant tensor:
#      x y z
#    x 2.161260 0.000000 0.000000 
#    y 0.000000 2.144510 0.000000 
#    z 0.000000 0.000000 2.248940 
# 
# From -- ./inp_files/17272.got.cif
#   From: 2010.05.17/outbox.cif.g08.bks.cpg/sg43_9_cif.got.tgz:17272.got - 2010.06.03 19:21:55.
