data_PCOD9370184
_publ_section_title
;
Structure prediction by ZEFSAII (Michael W. Deem and Ramdas Pophale) SiO2 
 PCOD9370184
Probable space group: F D D 2
;
_chemical_formula_sum "Si O2"
_cell_formula_units_Z 112
_cell_length_a 14.849348
_cell_length_b 11.656384
_cell_length_c 27.095157
_cell_angle_alpha 90.000000
_cell_angle_beta 90.000000
_cell_angle_gamma 90.000000
_cell_volume 4689.892663
_symmetry_space_group_name_H-M "F D D 2"
_symmetry_group_IT_number 43
_symmetry_cell_setting 'orthorhombic'
loop_
_space_group_symop_operation_xyz
x,y,z
-x,-y,z
1/4-x,1/4+y,1/4+z
1/4+x,1/4-y,1/4+z
x,1/2+y,1/2+z
-x,1/2-y,1/2+z
1/4-x,3/4+y,3/4+z
1/4+x,3/4-y,3/4+z
1/2+x,y,1/2+z
1/2-x,-y,1/2+z
3/4-x,1/4+y,3/4+z
3/4+x,1/4-y,3/4+z
1/2+x,1/2+y,z
1/2-x,1/2-y,z
3/4-x,3/4+y,1/4+z
3/4+x,3/4-y,1/4+z
loop_
_atom_site_type_symbol
_atom_site_label
_atom_site_fract_x
_atom_site_fract_y
_atom_site_fract_z
Si Si1 0.652933 0.501665 0.714660
Si Si2 0.392000 0.734220 0.943713
Si Si3 0.487388 0.665733 0.561544
Si Si4 0.250000 0.250000 0.615299
Si Si5 0.500000 0.000000 0.144411
Si Si6 0.425035 0.150222 0.779141
Si Si7 0.684786 0.090731 0.881804
Si Si8 0.067103 0.250618 0.215346
O O1 0.752160 0.511238 0.691420
O O2 0.666841 0.556330 0.768816
O O3 0.576267 0.554041 0.679433
O O4 0.618715 0.370131 0.716917
O O5 0.342707 0.776702 0.893192
O O6 0.386016 0.605879 0.964851
O O7 0.338566 0.808740 0.984714
O O8 0.455508 0.596987 0.609791
O O9 0.570497 0.586629 0.542604
O O10 0.534416 0.786540 0.579360
O O11 0.277572 0.350657 0.577618
O O12 0.161176 0.281860 0.644539
O O13 0.492583 0.244829 0.758563
O O14 0.759805 0.041214 0.917973
#
# Coordination Sequence:
#
# PCOD9370184 Si02
#       8
#    16  16  16   8   8  16  16  16
#     4  11  26  45  72 104 147 201 248 314 395 461
#     4  10  21  40  64 101 141 188 241 301 379 448
#     4  10  24  47  70 105 144 198 260 317 380 475
#     4  10  18  34  59  98 128 174 241 300 358 424
#     4  12  26  52  73 100 162 192 259 328 396 462
#     4   9  18  37  66  97 135 182 241 298 361 439
#     4  10  21  38  68 100 137 182 249 306 361 453
#     4  11  20  43  65 101 148 189 233 316 385 455
#
# _framework density 23.881143999999999
#
# number of rings (size 3 to 8) (size 9 to 14) (size 15 to 20)
#    0.000    1.714    2.857    1.714    4.000    1.143 
#    7.714    1.429    0.000    0.000    0.000    0.000 
#    0.000    0.000    0.000    0.000    0.000    0.000 
#
# Total GULP energy -156154.137638 kJ/mol
# GULP energy per Si atom -5576.933487 kJ/mol
# Density = 2.382679 g / cm^3
# Si number density = 23.881144 Si / 1000 Ang^3
#
#
#
# Elastic Constant Matrix: (Units=GPa)
#
#
# Indices 1 2 3 4 5 6 
#
# 1 135.4682 22.6407 47.3456 0.0000 0.0000 0.0000
# 2 22.6407 115.7213 40.7077 0.0000 0.0000 0.0000
# 3 47.3456 40.7077 89.6112 0.0000 0.0000 0.0000
# 4 0.0000 0.0000 0.0000 30.3250 0.0000 0.0000
# 5 0.0000 0.0000 0.0000 0.0000 38.3018 0.0000
# 6 0.0000 0.0000 0.0000 0.0000 0.0000 42.1326
#
#
#
# Elastic Compliance Matrix: (Units=1/GPa)
#
#
# Indices 1 2 3 4 5 6 
#
# 1 0.009055 -0.000106 -0.004736 0.000000 0.000000 0.000000
# 2 -0.000106 0.010286 -0.004617 0.000000 0.000000 0.000000
# 3 -0.004736 -0.004617 0.015759 0.000000 0.000000 0.000000
# 4 0.000000 0.000000 0.000000 0.032976 0.000000 0.000000
# 5 0.000000 0.000000 0.000000 0.000000 0.026108 0.000000
# 6 0.000000 0.000000 0.000000 0.000000 0.000000 0.023735
#
#
# Mechanical properties :
#
#
# Convention : Reuss Voigt Hill
#
# Bulk Modulus (GPa) = 61.79417 62.46537 62.12977
# Shear Modulus (GPa) = 35.15424 37.49232 36.32328
#
# Velocity S-wave (km/s) = 3.84089 3.96656 3.90423
# Velocity P-wave (km/s) = 6.75291 6.86962 6.81152
#
# Compressibility (1/GPa) = 0.01618276
#
# Stress axis : x y z
#
# Youngs Moduli (GPa) = 110.44020 97.21738 63.45605
#
# Poissons Ratio (x) = 0.01026 0.30053
# Poissons Ratio (y) = 0.01165 0.29297
# Poissons Ratio (z) = 0.52305 0.44885
#
# Static dielectric constant tensor:
#      x y z
#    x 1.894680 0.000000 0.000000 
#    y 0.000000 2.084300 0.000000 
#    z 0.000000 0.000000 2.000980 
# 
# From -- ./inp_files/29113.got.cif
#   From: 2010.05.17/outbox.cif.g08.bks.cpg/sg43_15_cif.got.tgz:29113.got - 2010.06.03 19:21:55.
