data_PCOD9370500
_publ_section_title
;
Structure prediction by ZEFSAII (Michael W. Deem and Ramdas Pophale) SiO2 
 PCOD9370500
Probable space group: F D D 2
;
_chemical_formula_sum "Si O2"
_cell_formula_units_Z 104
_cell_length_a 26.117628
_cell_length_b 23.113489
_cell_length_c 7.259173
_cell_angle_alpha 90.000000
_cell_angle_beta 90.000000
_cell_angle_gamma 90.000000
_cell_volume 4382.141390
_symmetry_space_group_name_H-M "F D D 2"
_symmetry_group_IT_number 43
_symmetry_cell_setting 'orthorhombic'
loop_
_space_group_symop_operation_xyz
x,y,z
-x,-y,z
1/4-x,1/4+y,1/4+z
1/4+x,1/4-y,1/4+z
x,1/2+y,1/2+z
-x,1/2-y,1/2+z
1/4-x,3/4+y,3/4+z
1/4+x,3/4-y,3/4+z
1/2+x,y,1/2+z
1/2-x,-y,1/2+z
3/4-x,1/4+y,3/4+z
3/4+x,1/4-y,3/4+z
1/2+x,1/2+y,z
1/2-x,1/2-y,z
3/4-x,3/4+y,1/4+z
3/4+x,3/4-y,1/4+z
loop_
_atom_site_type_symbol
_atom_site_label
_atom_site_fract_x
_atom_site_fract_y
_atom_site_fract_z
Si Si1 0.517294 0.332159 0.977610
Si Si2 0.118015 0.570642 0.699605
Si Si3 0.000000 0.500000 0.027245
Si Si4 0.916821 0.887263 0.841809
Si Si5 0.722289 0.539640 0.638397
Si Si6 0.790676 0.134720 0.202681
Si Si7 0.884682 0.010603 0.561608
O O1 0.575363 0.345685 0.935859
O O2 0.474543 0.375479 0.911367
O O3 0.502524 0.270002 0.893796
O O4 0.517593 0.321564 0.196061
O O5 0.102374 0.564761 0.486606
O O6 0.080606 0.619447 0.786555
O O7 0.116656 0.516305 0.846981
O O8 0.992487 0.441613 0.911926
O O9 0.944562 0.509855 0.122555
O O10 0.923296 0.899132 0.626393
O O11 0.884501 0.827041 0.838306
O O12 0.753109 0.583858 0.766567
O O13 0.662540 0.525044 0.656094
#
# Coordination Sequence:
#
# PCOD9370500 Si02
#       7
#    16  16   8  16  16  16  16
#     4  10  21  40  69 104 134 173 241 292 348 431
#     4  10  22  44  64 103 139 179 241 295 359 430
#     4  10  24  42  58  98 142 170 232 280 360 438
#     4  11  23  44  71 101 137 190 235 293 365 433
#     4  10  19  41  70  99 134 179 242 297 347 425
#     4  11  23  43  69  98 136 191 231 298 366 429
#     4   9  22  42  67 103 138 186 237 293 361 438
#
# _framework density 23.732690000000002
#
# number of rings (size 3 to 8) (size 9 to 14) (size 15 to 20)
#    0.000    1.846    1.538    2.769    2.154    3.692 
#   13.846    3.077    0.000    0.000    0.000    0.000 
#    0.000    0.000    0.000    0.000    0.000    0.000 
#
# Total GULP energy -144817.772949 kJ/mol
# GULP energy per Si atom -5569.914344 kJ/mol
# Density = 2.367867 g / cm^3
# Si number density = 23.732690 Si / 1000 Ang^3
#
#
#
# Elastic Constant Matrix: (Units=GPa)
#
#
# Indices 1 2 3 4 5 6 
#
# 1 192.2416 38.6201 20.3576 0.0046 -0.0031 -0.0011
# 2 38.6201 61.6519 -3.8624 0.0052 -0.0009 -0.0035
# 3 20.3576 -3.8624 102.7157 0.0031 0.0020 -0.0066
# 4 0.0046 0.0052 0.0031 27.8139 -0.0006 -0.0036
# 5 -0.0031 -0.0009 0.0020 -0.0006 33.8986 0.0021
# 6 -0.0011 -0.0035 -0.0066 -0.0036 0.0021 19.0346
#
#
#
# Elastic Compliance Matrix: (Units=1/GPa)
#
#
# Indices 1 2 3 4 5 6 
#
# 1 0.006135 -0.003929 -0.001364 0.000000 0.000001 -0.000001
# 2 -0.003929 0.018774 0.001485 -0.000003 0.000000 0.000004
# 3 -0.001364 0.001485 0.010062 -0.000001 -0.000001 0.000004
# 4 0.000000 -0.000003 -0.000001 0.035953 0.000001 0.000007
# 5 0.000001 0.000000 -0.000001 0.000001 0.029500 -0.000003
# 6 -0.000001 0.000004 0.000004 0.000007 -0.000003 0.052536
#
#
# Mechanical properties :
#
#
# Convention : Reuss Voigt Hill
#
# Bulk Modulus (GPa) = 36.55568 51.87108 44.21338
# Shear Modulus (GPa) = 29.46465 36.24901 32.85683
#
# Velocity S-wave (km/s) = 3.52735 3.91242 3.72486
# Velocity P-wave (km/s) = 5.65916 6.50486 6.09669
#
# Compressibility (1/GPa) = 0.02735553
#
# Stress axis : x y z
#
# Youngs Moduli (GPa) = 162.98646 53.26454 99.38655
#
# Poissons Ratio (x) = 0.20927 0.13554
# Poissons Ratio (y) = 0.64035 -0.14755
# Poissons Ratio (z) = 0.22227 -0.07908
#
# Static dielectric constant tensor:
#      x y z
#    x 1.911750 -0.000010 0.000010 
#    y -0.000010 1.972290 -0.000010 
#    z 0.000010 -0.000010 2.076030 
# 
# From -- ./inp_files/3832.got.cif
#   From: 2010.05.17/outbox.cif.g08.bks.cpg/sg43_2_cif.got.tgz:3832.got - 2010.06.03 19:21:55.
