data_PCOD9370376
_publ_section_title
;
Structure prediction by ZEFSAII (Michael W. Deem and Ramdas Pophale) SiO2 
 PCOD9370376
Probable space group: F D D 2
;
_chemical_formula_sum "Si O2"
_cell_formula_units_Z 120
_cell_length_a 10.972797
_cell_length_b 25.960769
_cell_length_c 18.145650
_cell_angle_alpha 90.000000
_cell_angle_beta 90.000000
_cell_angle_gamma 90.000000
_cell_volume 5169.010654
_symmetry_space_group_name_H-M "F D D 2"
_symmetry_group_IT_number 43
_symmetry_cell_setting 'orthorhombic'
loop_
_space_group_symop_operation_xyz
x,y,z
-x,-y,z
1/4-x,1/4+y,1/4+z
1/4+x,1/4-y,1/4+z
x,1/2+y,1/2+z
-x,1/2-y,1/2+z
1/4-x,3/4+y,3/4+z
1/4+x,3/4-y,3/4+z
1/2+x,y,1/2+z
1/2-x,-y,1/2+z
3/4-x,1/4+y,3/4+z
3/4+x,1/4-y,3/4+z
1/2+x,1/2+y,z
1/2-x,1/2-y,z
3/4-x,3/4+y,1/4+z
3/4+x,3/4-y,1/4+z
loop_
_atom_site_type_symbol
_atom_site_label
_atom_site_fract_x
_atom_site_fract_y
_atom_site_fract_z
Si Si1 0.750000 0.750000 0.168110
Si Si2 0.404785 0.648394 0.447755
Si Si3 0.680306 0.676196 0.037565
Si Si4 0.009070 0.395567 0.591521
Si Si5 0.552390 0.077780 0.755741
Si Si6 0.564568 0.734098 0.288135
Si Si7 0.896649 0.398266 0.035776
Si Si8 0.507091 0.759268 0.440616
O O1 0.701156 0.704910 0.114929
O O2 0.630563 0.760283 0.218793
O O3 0.312334 0.661484 0.511288
O O4 0.325585 0.649176 0.372739
O O5 0.493571 0.603393 0.477395
O O6 0.488527 0.698562 0.437683
O O7 0.601302 0.624724 0.042928
O O8 0.606222 0.713644 0.981523
O O9 0.959969 0.395378 0.674719
O O10 0.112613 0.354405 0.567729
O O11 0.075043 0.448667 0.571207
O O12 0.420061 0.092353 0.783874
O O13 0.622129 0.025870 0.734727
O O14 0.452091 0.694405 0.270960
O O15 0.522654 0.771931 0.353821
#
# Coordination Sequence:
#
# PCOD9370376 Si02
#       8
#     8  16  16  16  16  16  16  16
#     4  12  22  38  68  98 132 160 224 278 312 378
#     4  11  23  42  60  90 127 185 211 261 321 398
#     4  11  23  42  62  91 130 172 210 261 325 389
#     4  10  21  36  61  92 125 158 212 264 320 378
#     4  10  19  36  60  92 119 161 208 270 322 374
#     4  10  22  39  65 101 126 165 214 275 326 377
#     4  10  22  38  62  88 129 163 224 263 323 381
#     4  10  21  39  64  90 130 167 207 265 339 387
#
# _framework density 23.215274000000001
#
# number of rings (size 3 to 8) (size 9 to 14) (size 15 to 20)
#    0.000    1.600    1.333    4.800    0.000    5.867 
#    0.000    1.333    0.000    0.000    0.000    0.000 
#    0.000    0.000    0.000    0.000    0.000    0.000 
#
# Total GULP energy -167167.846299 kJ/mol
# GULP energy per Si atom -5572.261543 kJ/mol
# Density = 2.316244 g / cm^3
# Si number density = 23.215274 Si / 1000 Ang^3
#
#
#
# Elastic Constant Matrix: (Units=GPa)
#
#
# Indices 1 2 3 4 5 6 
#
# 1 57.1433 3.1923 26.8854 0.0000 0.0000 0.0000
# 2 3.1923 44.0435 23.9249 0.0000 0.0000 0.0000
# 3 26.8854 23.9249 105.2344 0.0000 0.0000 0.0000
# 4 0.0000 0.0000 0.0000 18.9959 0.0000 0.0000
# 5 0.0000 0.0000 0.0000 0.0000 25.4955 0.0000
# 6 0.0000 0.0000 0.0000 0.0000 0.0000 21.5933
#
#
#
# Elastic Compliance Matrix: (Units=1/GPa)
#
#
# Indices 1 2 3 4 5 6 
#
# 1 0.019979 0.001511 -0.005448 0.000000 0.000000 0.000000
# 2 0.001511 0.026018 -0.006301 0.000000 0.000000 0.000000
# 3 -0.005448 -0.006301 0.012327 0.000000 0.000000 0.000000
# 4 0.000000 0.000000 0.000000 0.052643 0.000000 0.000000
# 5 0.000000 0.000000 0.000000 0.000000 0.039223 0.000000
# 6 0.000000 0.000000 0.000000 0.000000 0.000000 0.046311
#
#
# Mechanical properties :
#
#
# Convention : Reuss Voigt Hill
#
# Bulk Modulus (GPa) = 26.42136 34.93626 30.67881
# Shear Modulus (GPa) = 21.77780 23.37819 22.57799
#
# Velocity S-wave (km/s) = 3.06613 3.17680 3.12196
# Velocity P-wave (km/s) = 4.89292 5.34205 5.12241
#
# Compressibility (1/GPa) = 0.03784816
#
# Stress axis : x y z
#
# Youngs Moduli (GPa) = 50.05366 38.43461 81.12291
#
# Poissons Ratio (x) = -0.05808 0.44194
# Poissons Ratio (y) = -0.07564 0.51118
# Poissons Ratio (z) = 0.27268 0.24219
#
# Static dielectric constant tensor:
#      x y z
#    x 1.916160 0.000000 0.000000 
#    y 0.000000 1.909220 0.000000 
#    z 0.000000 0.000000 1.954430 
# 
# From -- ./inp_files/13488.got.cif
#   From: 2010.05.17/outbox.cif.g08.bks.cpg/sg43_7_cif.got.tgz:13488.got - 2010.06.03 19:21:55.
