data_PCOD9370286
_publ_section_title
;
Structure prediction by ZEFSAII (Michael W. Deem and Ramdas Pophale) SiO2 
 PCOD9370286
Probable space group: F D D 2
;
_chemical_formula_sum "Si O2"
_cell_formula_units_Z 120
_cell_length_a 8.374051
_cell_length_b 24.125495
_cell_length_c 22.826066
_cell_angle_alpha 90.000000
_cell_angle_beta 90.000000
_cell_angle_gamma 90.000000
_cell_volume 4611.507327
_symmetry_space_group_name_H-M "F D D 2"
_symmetry_group_IT_number 43
_symmetry_cell_setting 'orthorhombic'
loop_
_space_group_symop_operation_xyz
x,y,z
-x,-y,z
1/4-x,1/4+y,1/4+z
1/4+x,1/4-y,1/4+z
x,1/2+y,1/2+z
-x,1/2-y,1/2+z
1/4-x,3/4+y,3/4+z
1/4+x,3/4-y,3/4+z
1/2+x,y,1/2+z
1/2-x,-y,1/2+z
3/4-x,1/4+y,3/4+z
3/4+x,1/4-y,3/4+z
1/2+x,1/2+y,z
1/2-x,1/2-y,z
3/4-x,3/4+y,1/4+z
3/4+x,3/4-y,1/4+z
loop_
_atom_site_type_symbol
_atom_site_label
_atom_site_fract_x
_atom_site_fract_y
_atom_site_fract_z
Si Si1 0.750000 0.250000 0.745541
Si Si2 0.119261 0.929344 0.103108
Si Si3 0.091860 0.222189 0.479637
Si Si4 0.840714 0.300310 0.449213
Si Si5 0.702693 0.176437 0.133372
Si Si6 0.541589 0.740337 0.134869
Si Si7 0.578637 0.878248 0.004667
Si Si8 0.221478 0.128410 0.116432
O O1 0.667299 0.207157 0.790934
O O2 0.605340 0.258025 0.699296
O O3 0.151777 0.970302 0.158024
O O4 0.261319 0.884617 0.107838
O O5 0.952210 0.899028 0.115342
O O6 0.250000 0.250000 0.502990
O O7 0.953945 0.266431 0.493361
O O8 0.081238 0.158678 0.499351
O O9 0.750000 0.250000 0.414108
O O10 0.700733 0.332054 0.480727
O O11 0.943074 0.349842 0.421539
O O12 0.534856 0.202022 0.109969
O O13 0.872489 0.207660 0.128943
O O14 0.682956 0.172787 0.203824
O O15 0.677609 0.694498 0.115921
O O16 0.663785 0.893566 0.064506
#
# Coordination Sequence:
#
# PCOD9370286 Si02
#       8
#     8  16  16  16  16  16  16  16
#     4  12  22  40  70 114 130 184 240 314 354 430
#     4  10  20  38  76  96 135 180 240 286 361 422
#     4  10  18  41  69  95 130 173 231 293 341 420
#     4  10  22  41  68  96 133 176 236 301 347 414
#     4   9  21  47  63  98 141 193 229 298 349 449
#     4  10  24  41  69  95 151 183 237 290 372 427
#     4  10  23  41  67  97 137 179 234 287 355 428
#     4  11  22  42  67  99 140 190 229 294 365 436
#
# _framework density 26.021863
#
# number of rings (size 3 to 8) (size 9 to 14) (size 15 to 20)
#    0.000    1.867    2.000    0.800    3.733    0.000 
#   15.600    0.000   14.667    0.000    0.000    0.000 
#    0.000    0.000    0.000    0.000    0.000    0.000 
#
# Total GULP energy -167235.502763 kJ/mol
# GULP energy per Si atom -5574.516759 kJ/mol
# Density = 2.596264 g / cm^3
# Si number density = 26.021863 Si / 1000 Ang^3
#
#
#
# Elastic Constant Matrix: (Units=GPa)
#
#
# Indices 1 2 3 4 5 6 
#
# 1 103.1271 28.6361 11.5014 0.0000 0.0000 0.0000
# 2 28.6361 70.1860 11.5308 0.0000 0.0000 0.0000
# 3 11.5014 11.5308 73.7890 0.0000 0.0000 0.0000
# 4 0.0000 0.0000 0.0000 24.8350 0.0000 0.0000
# 5 0.0000 0.0000 0.0000 0.0000 20.8490 0.0000
# 6 0.0000 0.0000 0.0000 0.0000 0.0000 55.6234
#
#
#
# Elastic Compliance Matrix: (Units=1/GPa)
#
#
# Indices 1 2 3 4 5 6 
#
# 1 0.011013 -0.004322 -0.001041 0.000000 0.000000 0.000000
# 2 -0.004322 0.016320 -0.001877 0.000000 0.000000 0.000000
# 3 -0.001041 -0.001877 0.014008 0.000000 0.000000 0.000000
# 4 0.000000 0.000000 0.000000 0.040266 0.000000 0.000000
# 5 0.000000 0.000000 0.000000 0.000000 0.047964 0.000000
# 6 0.000000 0.000000 0.000000 0.000000 0.000000 0.017978
#
#
# Mechanical properties :
#
#
# Convention : Reuss Voigt Hill
#
# Bulk Modulus (GPa) = 37.22946 38.93763 38.08354
# Shear Modulus (GPa) = 29.24291 33.29040 31.26665
#
# Velocity S-wave (km/s) = 3.35592 3.58064 3.47010
# Velocity P-wave (km/s) = 5.41796 5.66486 5.54279
#
# Compressibility (1/GPa) = 0.02686045
#
# Stress axis : x y z
#
# Youngs Moduli (GPa) = 90.80088 61.27569 71.38948
#
# Poissons Ratio (x) = 0.26485 0.07433
# Poissons Ratio (y) = 0.39247 0.13396
# Poissons Ratio (z) = 0.09454 0.11498
#
# Static dielectric constant tensor:
#      x y z
#    x 2.262770 0.000000 0.000000 
#    y 0.000000 2.223950 0.000000 
#    z 0.000000 0.000000 2.110630 
# 
# From -- ./inp_files/20460.got.cif
#   From: 2010.05.17/outbox.cif.g08.bks.cpg/sg43_11_cif.got.tgz:20460.got - 2010.06.03 19:21:55.
