data_PCOD9370209
_publ_section_title
;
Structure prediction by ZEFSAII (Michael W. Deem and Ramdas Pophale) SiO2 
 PCOD9370209
Probable space group: F D D 2
;
_chemical_formula_sum "Si O2"
_cell_formula_units_Z 104
_cell_length_a 13.985984
_cell_length_b 17.803632
_cell_length_c 19.619063
_cell_angle_alpha 90.000000
_cell_angle_beta 90.000000
_cell_angle_gamma 90.000000
_cell_volume 4885.172433
_symmetry_space_group_name_H-M "F D D 2"
_symmetry_group_IT_number 43
_symmetry_cell_setting 'orthorhombic'
loop_
_space_group_symop_operation_xyz
x,y,z
-x,-y,z
1/4-x,1/4+y,1/4+z
1/4+x,1/4-y,1/4+z
x,1/2+y,1/2+z
-x,1/2-y,1/2+z
1/4-x,3/4+y,3/4+z
1/4+x,3/4-y,3/4+z
1/2+x,y,1/2+z
1/2-x,-y,1/2+z
3/4-x,1/4+y,3/4+z
3/4+x,1/4-y,3/4+z
1/2+x,1/2+y,z
1/2-x,1/2-y,z
3/4-x,3/4+y,1/4+z
3/4+x,3/4-y,1/4+z
loop_
_atom_site_type_symbol
_atom_site_label
_atom_site_fract_x
_atom_site_fract_y
_atom_site_fract_z
Si Si1 0.951344 0.268304 0.452160
Si Si2 0.427776 0.438819 0.971280
Si Si3 0.826239 0.693490 0.620683
Si Si4 0.218699 0.468083 0.952952
Si Si5 0.785392 0.863715 0.756657
Si Si6 0.250000 0.250000 0.875612
Si Si7 0.819761 0.031673 0.072698
O O1 0.963338 0.354166 0.474355
O O2 0.968904 0.203315 0.507190
O O3 0.845104 0.255286 0.421001
O O4 0.023862 0.250519 0.390752
O O5 0.500000 0.500000 0.939280
O O6 0.323323 0.436642 0.935700
O O7 0.399601 0.475505 0.043929
O O8 0.750000 0.750000 0.586459
O O9 0.917105 0.741606 0.641417
O O10 0.775902 0.666760 0.691957
O O11 0.849419 0.617355 0.581869
O O12 0.144264 0.410387 0.987354
O O13 0.240520 0.528038 0.012906
O O14 0.750445 0.820985 0.823836
#
# Coordination Sequence:
#
# PCOD9370209 Si02
#       7
#    16  16  16  16  16   8  16
#     4  11  22  37  64  92 119 163 199 246 313 360
#     4  10  23  45  55  82 132 158 206 250 284 375
#     4   9  16  33  63  91 116 154 195 250 310 348
#     4   9  17  37  58  84 124 149 194 255 289 349
#     4  10  18  35  62  94 126 140 202 259 291 362
#     4  12  18  36  64  98 124 156 192 254 314 348
#     4   9  20  38  60  83 123 158 194 251 301 356
#
# _framework density 21.288910000000001
#
# number of rings (size 3 to 8) (size 9 to 14) (size 15 to 20)
#    0.923    1.231    3.846    0.923    0.000    0.000 
#    5.538    7.692    0.000    0.000    0.000    0.000 
#    0.000    0.000    0.000    0.000    0.000    0.000 
#
# Total GULP energy -145031.618955 kJ/mol
# GULP energy per Si atom -5578.139191 kJ/mol
# Density = 2.124046 g / cm^3
# Si number density = 21.288910 Si / 1000 Ang^3
#
#
#
# Elastic Constant Matrix: (Units=GPa)
#
#
# Indices 1 2 3 4 5 6 
#
# 1 88.7103 34.2610 14.7348 0.0000 0.0000 0.0000
# 2 34.2610 203.5979 43.5131 0.0000 0.0000 0.0000
# 3 14.7348 43.5131 49.7358 0.0000 0.0000 0.0000
# 4 0.0000 0.0000 0.0000 26.8250 0.0000 0.0000
# 5 0.0000 0.0000 0.0000 0.0000 -16.6976 0.0000
# 6 0.0000 0.0000 0.0000 0.0000 0.0000 17.4194
#
#
#
# Elastic Compliance Matrix: (Units=1/GPa)
#
#
# Indices 1 2 3 4 5 6 
#
# 1 0.012257 -0.001582 -0.002247 0.000000 0.000000 0.000000
# 2 -0.001582 0.006246 -0.004995 0.000000 0.000000 0.000000
# 3 -0.002247 -0.004995 0.025142 0.000000 0.000000 0.000000
# 4 0.000000 0.000000 0.000000 0.037279 0.000000 0.000000
# 5 0.000000 0.000000 0.000000 0.000000 -0.059889 0.000000
# 6 0.000000 0.000000 0.000000 0.000000 0.000000 0.057407
#
#
# Mechanical properties :
#
#
# Convention : Reuss Voigt Hill
#
# Bulk Modulus (GPa) = 38.46803 58.56243 48.51523
# Shear Modulus (GPa) = 47.72997 22.14504 34.93751
#
# Velocity S-wave (km/s) = 4.74012 3.22874 4.05546
# Velocity P-wave (km/s) = 6.93305 6.43955 6.69085
#
# Compressibility (1/GPa) = 0.02599561
#
# Stress axis : x y z
#
# Youngs Moduli (GPa) = 81.58613 160.11456 39.77371
#
# Poissons Ratio (x) = 0.25336 0.08937
# Poissons Ratio (y) = 0.12910 0.19868
# Poissons Ratio (z) = 0.18331 0.79982
#
# Static dielectric constant tensor:
#      x y z
#    x 1.838340 0.000000 0.000000 
#    y 0.000000 1.778730 0.000000 
#    z 0.000000 0.000000 1.771340 
# 
# From -- ./inp_files/21806.got.cif
#   From: 2010.05.17/outbox.cif.g08.bks.cpg/sg43_11_cif.got.tgz:21806.got - 2010.06.03 19:21:55.
