data_PCOD9370309
_publ_section_title
;
Structure prediction by ZEFSAII (Michael W. Deem and Ramdas Pophale) SiO2 
 PCOD9370309
Probable space group: F D D 2
;
_chemical_formula_sum "Si O2"
_cell_formula_units_Z 128
_cell_length_a 24.697213
_cell_length_b 22.739180
_cell_length_c 12.552860
_cell_angle_alpha 90.000000
_cell_angle_beta 90.000000
_cell_angle_gamma 90.000000
_cell_volume 7049.615527
_symmetry_space_group_name_H-M "F D D 2"
_symmetry_group_IT_number 43
_symmetry_cell_setting 'orthorhombic'
loop_
_space_group_symop_operation_xyz
x,y,z
-x,-y,z
1/4-x,1/4+y,1/4+z
1/4+x,1/4-y,1/4+z
x,1/2+y,1/2+z
-x,1/2-y,1/2+z
1/4-x,3/4+y,3/4+z
1/4+x,3/4-y,3/4+z
1/2+x,y,1/2+z
1/2-x,-y,1/2+z
3/4-x,1/4+y,3/4+z
3/4+x,1/4-y,3/4+z
1/2+x,1/2+y,z
1/2-x,1/2-y,z
3/4-x,3/4+y,1/4+z
3/4+x,3/4-y,1/4+z
loop_
_atom_site_type_symbol
_atom_site_label
_atom_site_fract_x
_atom_site_fract_y
_atom_site_fract_z
Si Si1 0.228326 0.039101 0.995000
Si Si2 0.069450 0.765812 0.967861
Si Si3 0.958134 0.084328 0.494951
Si Si4 0.048905 0.283068 0.013395
Si Si5 0.196753 0.863214 0.394291
Si Si6 0.860871 0.748992 0.876047
Si Si7 0.154774 0.681012 0.043521
Si Si8 0.183385 0.559995 0.951585
O O1 0.191936 0.033053 0.889344
O O2 0.266311 0.095986 0.970277
O O3 0.265900 0.980146 0.990136
O O4 0.195066 0.043503 0.103871
O O5 0.124833 0.728180 0.969026
O O6 0.073568 0.804379 0.075025
O O7 0.014416 0.728762 0.992674
O O8 0.939519 0.151167 0.473216
O O9 0.923809 0.053926 0.588548
O O10 0.946269 0.049575 0.386278
O O11 0.017756 0.092666 0.542125
O O12 0.087071 0.238932 0.949260
O O13 0.174163 0.801103 0.435773
O O14 0.147265 0.904179 0.357220
O O15 0.884236 0.718840 0.768435
O O16 0.183746 0.628150 0.981752
#
# Coordination Sequence:
#
# PCOD9370309 Si02
#       8
#    16  16  16  16  16  16  16  16
#     4  10  19  35  53  76 107 148 184 221 277 333
#     4  11  19  35  53  76 111 148 186 225 277 337
#     4  11  18  32  51  80 113 135 175 233 288 326
#     4  10  20  31  52  79 106 144 184 230 272 334
#     4  10  20  32  51  84 109 137 177 235 282 326
#     4  11  19  31  53  83 111 136 179 233 290 324
#     4  11  19  31  53  80 113 138 183 229 281 332
#     4  10  19  31  50  79 105 143 178 231 276 319
#
# _framework density 18.157018999999998
#
# number of rings (size 3 to 8) (size 9 to 14) (size 15 to 20)
#    0.000    1.500    8.750    0.375    0.000    0.000 
#    0.000    2.500    0.000    0.000    0.000    0.000 
#    0.000    0.000    0.000    0.000    0.000    0.000 
#
# Total GULP energy -178144.619968 kJ/mol
# GULP energy per Si atom -5567.019374 kJ/mol
# Density = 1.811569 g / cm^3
# Si number density = 18.157019 Si / 1000 Ang^3
#
#
#
# Elastic Constant Matrix: (Units=GPa)
#
#
# Indices 1 2 3 4 5 6 
#
# 1 55.3711 13.4303 24.6907 0.0000 0.0000 0.0000
# 2 13.4303 37.0842 13.6368 0.0000 0.0000 0.0000
# 3 24.6907 13.6368 112.1534 0.0000 0.0000 0.0000
# 4 0.0000 0.0000 0.0000 26.8604 0.0000 0.0000
# 5 0.0000 0.0000 0.0000 0.0000 31.9576 0.0000
# 6 0.0000 0.0000 0.0000 0.0000 0.0000 26.1282
#
#
#
# Elastic Compliance Matrix: (Units=1/GPa)
#
#
# Indices 1 2 3 4 5 6 
#
# 1 0.021338 -0.006281 -0.003934 0.000000 0.000000 0.000000
# 2 -0.006281 0.030077 -0.002274 0.000000 0.000000 0.000000
# 3 -0.003934 -0.002274 0.010059 0.000000 0.000000 0.000000
# 4 0.000000 0.000000 0.000000 0.037229 0.000000 0.000000
# 5 0.000000 0.000000 0.000000 0.000000 0.031291 0.000000
# 6 0.000000 0.000000 0.000000 0.000000 0.000000 0.038273
#
#
# Mechanical properties :
#
#
# Convention : Reuss Voigt Hill
#
# Bulk Modulus (GPa) = 27.40099 34.23605 30.81852
# Shear Modulus (GPa) = 24.34155 27.17930 25.76042
#
# Velocity S-wave (km/s) = 3.66541 3.87318 3.77073
# Velocity P-wave (km/s) = 5.74783 6.23687 5.99734
#
# Compressibility (1/GPa) = 0.03649503
#
# Stress axis : x y z
#
# Youngs Moduli (GPa) = 46.86574 33.24832 99.41428
#
# Poissons Ratio (x) = 0.20883 0.39107
# Poissons Ratio (y) = 0.29436 0.22609
# Poissons Ratio (z) = 0.18436 0.07562
#
# Static dielectric constant tensor:
#      x y z
#    x 1.666180 0.000000 0.000000 
#    y 0.000000 1.657380 0.000000 
#    z 0.000000 0.000000 1.668780 
# 
# From -- ./inp_files/8065.got.cif
#   From: 2010.05.17/outbox.cif.g08.bks.cpg/sg43_5_cif.got.tgz:8065.got - 2010.06.03 19:21:55.
