data_PCOD9370784
_publ_section_title
;
Structure prediction by ZEFSAII (Michael W. Deem and Ramdas Pophale) SiO2 
 PCOD9370784
Probable space group: F D D 2
;
_chemical_formula_sum "Si O2"
_cell_formula_units_Z 120
_cell_length_a 25.147705
_cell_length_b 22.380049
_cell_length_c 8.164577
_cell_angle_alpha 90.000000
_cell_angle_beta 90.000000
_cell_angle_gamma 90.000000
_cell_volume 4595.080027
_symmetry_space_group_name_H-M "F D D 2"
_symmetry_group_IT_number 43
_symmetry_cell_setting 'orthorhombic'
loop_
_space_group_symop_operation_xyz
x,y,z
-x,-y,z
1/4-x,1/4+y,1/4+z
1/4+x,1/4-y,1/4+z
x,1/2+y,1/2+z
-x,1/2-y,1/2+z
1/4-x,3/4+y,3/4+z
1/4+x,3/4-y,3/4+z
1/2+x,y,1/2+z
1/2-x,-y,1/2+z
3/4-x,1/4+y,3/4+z
3/4+x,1/4-y,3/4+z
1/2+x,1/2+y,z
1/2-x,1/2-y,z
3/4-x,3/4+y,1/4+z
3/4+x,3/4-y,1/4+z
loop_
_atom_site_type_symbol
_atom_site_label
_atom_site_fract_x
_atom_site_fract_y
_atom_site_fract_z
Si Si1 0.956579 0.692336 0.421240
Si Si2 0.629694 0.720122 0.989721
Si Si3 0.941113 0.561380 0.809070
Si Si4 0.085536 0.188453 0.349955
Si Si5 0.592245 0.061098 0.796707
Si Si6 0.000000 0.500000 0.257201
Si Si7 0.660231 0.603475 0.827410
Si Si8 0.774161 0.656992 0.277506
O O1 0.958678 0.762329 0.383645
O O2 0.906151 0.686033 0.546827
O O3 0.940264 0.662315 0.247801
O O4 0.008155 0.661719 0.498060
O O5 0.613962 0.698862 0.173958
O O6 0.691835 0.729605 0.949847
O O7 0.607724 0.789466 0.995294
O O8 0.619293 0.659489 0.876834
O O9 0.881741 0.558212 0.733156
O O10 0.940467 0.493113 0.870070
O O11 0.980025 0.570559 0.657225
O O12 0.944748 0.613540 0.939065
O O13 0.066861 0.121362 0.362084
O O14 0.578240 0.067213 0.603563
O O15 0.984340 0.442251 0.363349
#
# Coordination Sequence:
#
# PCOD9370784 Si02
#       8
#    16  16  16  16  16   8  16  16
#     4  10  21  41  64  91 123 167 219 268 322 398
#     4  11  23  41  67  93 127 174 228 271 329 405
#     4  11  22  36  62  94 129 159 215 276 327 392
#     4  10  20  40  62  88 123 169 217 261 325 402
#     4  11  20  38  69  89 121 168 225 260 315 399
#     4  12  18  38  68  94 114 162 240 274 306 396
#     4  11  23  39  60  97 132 171 208 278 344 395
#     4  12  20  38  67  94 118 169 225 272 316 395
#
# _framework density 26.114887
#
# number of rings (size 3 to 8) (size 9 to 14) (size 15 to 20)
#    0.000    1.067    6.667    1.600    1.867    0.000 
#    2.400    2.667   11.733    0.000    0.000    0.000 
#    0.000    0.000    0.000    0.000    0.000    0.000 
#
# Total GULP energy -167360.075369 kJ/mol
# GULP energy per Si atom -5578.669179 kJ/mol
# Density = 2.605545 g / cm^3
# Si number density = 26.114887 Si / 1000 Ang^3
#
#
#
# Elastic Constant Matrix: (Units=GPa)
#
#
# Indices 1 2 3 4 5 6 
#
# 1 61.7721 -4.5412 -2.8011 0.0002 -0.0003 -0.0002
# 2 -4.5412 182.6576 6.3978 -0.0014 0.0007 0.0007
# 3 -2.8011 6.3978 36.7318 -0.0030 0.0003 -0.0001
# 4 0.0002 -0.0014 -0.0030 30.5366 0.0001 -0.0001
# 5 -0.0003 0.0007 0.0003 0.0001 -6.2837 -0.0009
# 6 -0.0002 0.0007 -0.0001 -0.0001 -0.0009 21.4631
#
#
#
# Elastic Compliance Matrix: (Units=1/GPa)
#
#
# Indices 1 2 3 4 5 6 
#
# 1 0.016269 0.000363 0.001177 0.000000 -0.000001 0.000000
# 2 0.000363 0.005516 -0.000933 0.000000 0.000001 0.000000
# 3 0.001177 -0.000933 0.027477 0.000003 0.000001 0.000000
# 4 0.000000 0.000000 0.000003 0.032748 0.000001 0.000000
# 5 -0.000001 0.000001 0.000001 0.000001 -0.159142 -0.000007
# 6 0.000000 0.000000 0.000000 0.000000 -0.000007 0.046592
#
#
# Mechanical properties :
#
#
# Convention : Reuss Voigt Hill
#
# Bulk Modulus (GPa) = 19.81112 31.03025 25.42068
# Shear Modulus (GPa) = -334.88974 27.95026 -153.46974
#
# Velocity S-wave (km/s) = -11.33647 3.27506 -7.67429
# Velocity P-wave (km/s) = 12.79654 5.11951 8.29283
#
# Compressibility (1/GPa) = 0.05047671
#
# Stress axis : x y z
#
# Youngs Moduli (GPa) = 61.46800 181.27632 36.39448
#
# Poissons Ratio (x) = -0.06585 -0.04285
# Poissons Ratio (y) = -0.02233 0.03396
# Poissons Ratio (z) = -0.07237 0.16915
#
# Static dielectric constant tensor:
#      x y z
#    x 2.239270 -0.000010 0.000000 
#    y -0.000010 2.407300 0.000000 
#    z 0.000000 0.000000 2.139010 
# 
# From -- ./inp_files/4805.got.cif
#   From: 2010.05.17/outbox.cif.g08.bks.cpg/sg43_3_cif.got.tgz:4805.got - 2010.06.03 19:21:55.
