data_PCOD9370094
_publ_section_title
;
Structure prediction by ZEFSAII (Michael W. Deem and Ramdas Pophale) SiO2 
 PCOD9370094
Probable space group: F D D 2
;
_chemical_formula_sum "Si O2"
_cell_formula_units_Z 80
_cell_length_a 12.727489
_cell_length_b 11.951877
_cell_length_c 24.458216
_cell_angle_alpha 90.000000
_cell_angle_beta 90.000000
_cell_angle_gamma 90.000000
_cell_volume 3720.519812
_symmetry_space_group_name_H-M "F D D 2"
_symmetry_group_IT_number 43
_symmetry_cell_setting 'orthorhombic'
loop_
_space_group_symop_operation_xyz
x,y,z
-x,-y,z
1/4-x,1/4+y,1/4+z
1/4+x,1/4-y,1/4+z
x,1/2+y,1/2+z
-x,1/2-y,1/2+z
1/4-x,3/4+y,3/4+z
1/4+x,3/4-y,3/4+z
1/2+x,y,1/2+z
1/2-x,-y,1/2+z
3/4-x,1/4+y,3/4+z
3/4+x,1/4-y,3/4+z
1/2+x,1/2+y,z
1/2-x,1/2-y,z
3/4-x,3/4+y,1/4+z
3/4+x,3/4-y,1/4+z
loop_
_atom_site_type_symbol
_atom_site_label
_atom_site_fract_x
_atom_site_fract_y
_atom_site_fract_z
Si Si1 0.068170 0.891533 0.530940
Si Si2 0.750000 0.250000 0.961713
Si Si3 0.640447 0.816679 0.138214
Si Si4 0.731536 0.524542 0.193976
Si Si5 0.782078 0.007510 0.001837
Si Si6 0.750000 0.250000 0.768601
O O1 0.073463 0.811810 0.583555
O O2 0.186128 0.929588 0.517394
O O3 0.019066 0.829187 0.479372
O O4 0.000000 0.000000 0.543845
O O5 0.640365 0.257874 0.928943
O O6 0.752846 0.363239 0.997646
O O7 0.750000 0.750000 0.131637
O O8 0.683337 0.943017 0.148416
O O9 0.574422 0.776671 0.190935
O O10 0.737220 0.634894 0.233367
O O11 0.882625 0.991256 0.041864
#
# Coordination Sequence:
#
# PCOD9370094 Si02
#       6
#    16   8  16  16  16   8
#     4  12  27  39  66 103 135 175 218 279 357 393
#     4  10  16  40  67  80 120 176 212 262 323 398
#     4  11  24  43  64  98 128 178 233 269 328 412
#     4  10  20  42  66  88 133 171 216 279 330 392
#     4  10  20  42  66  88 133 171 216 279 330 392
#     4   8  18  36  63  90 110 174 210 254 321 380
#
# _framework density 21.502372000000001
#
# number of rings (size 3 to 8) (size 9 to 14) (size 15 to 20)
#    0.000    1.600    8.000    0.000    8.400    0.000 
#    0.000    6.000    4.400    0.000    0.000    0.000 
#    0.000    0.000    0.000    0.000    0.000    0.000 
#
# Total GULP energy -111462.724415 kJ/mol
# GULP energy per Si atom -5573.136221 kJ/mol
# Density = 2.145343 g / cm^3
# Si number density = 21.502372 Si / 1000 Ang^3
#
#
#
# Elastic Constant Matrix: (Units=GPa)
#
#
# Indices 1 2 3 4 5 6 
#
# 1 121.2897 20.5093 13.9126 0.0000 0.0000 0.0000
# 2 20.5093 63.3056 11.5947 0.0000 0.0000 0.0000
# 3 13.9126 11.5947 58.6609 0.0000 0.0000 0.0000
# 4 0.0000 0.0000 0.0000 14.9783 0.0000 0.0000
# 5 0.0000 0.0000 0.0000 0.0000 15.9786 0.0000
# 6 0.0000 0.0000 0.0000 0.0000 0.0000 39.3956
#
#
#
# Elastic Compliance Matrix: (Units=1/GPa)
#
#
# Indices 1 2 3 4 5 6 
#
# 1 0.008864 -0.002580 -0.001592 0.000000 0.000000 0.000000
# 2 -0.002580 0.017141 -0.002776 0.000000 0.000000 0.000000
# 3 -0.001592 -0.002776 0.017973 0.000000 0.000000 0.000000
# 4 0.000000 0.000000 0.000000 0.066763 0.000000 0.000000
# 5 0.000000 0.000000 0.000000 0.000000 0.062584 0.000000
# 6 0.000000 0.000000 0.000000 0.000000 0.000000 0.025384
#
#
# Mechanical properties :
#
#
# Convention : Reuss Voigt Hill
#
# Bulk Modulus (GPa) = 33.24333 37.25439 35.24886
# Shear Modulus (GPa) = 22.45858 27.21980 24.83919
#
# Velocity S-wave (km/s) = 3.23533 3.56181 3.40249
# Velocity P-wave (km/s) = 5.42682 5.85479 5.64486
#
# Compressibility (1/GPa) = 0.03008123
#
# Stress axis : x y z
#
# Youngs Moduli (GPa) = 112.82083 58.34074 55.63754
#
# Poissons Ratio (x) = 0.15052 0.08859
# Poissons Ratio (y) = 0.29107 0.15445
# Poissons Ratio (z) = 0.17964 0.16196
#
# Static dielectric constant tensor:
#      x y z
#    x 1.828600 0.000000 0.000000 
#    y 0.000000 1.789330 0.000000 
#    z 0.000000 0.000000 1.797190 
# 
# From -- ./inp_files/21621.got.cif
#   From: 2010.05.17/outbox.cif.g08.bks.cpg/sg43_11_cif.got.tgz:21621.got - 2010.06.03 19:21:55.
