data_PCOD9370865
_publ_section_title
;
Structure prediction by ZEFSAII (Michael W. Deem and Ramdas Pophale) SiO2 
 PCOD9370865
Probable space group: F D D 2
;
_chemical_formula_sum "Si O2"
_cell_formula_units_Z 104
_cell_length_a 17.804939
_cell_length_b 9.461013
_cell_length_c 30.976452
_cell_angle_alpha 90.000000
_cell_angle_beta 90.000000
_cell_angle_gamma 90.000000
_cell_volume 5218.068814
_symmetry_space_group_name_H-M "F D D 2"
_symmetry_group_IT_number 43
_symmetry_cell_setting 'orthorhombic'
loop_
_space_group_symop_operation_xyz
x,y,z
-x,-y,z
1/4-x,1/4+y,1/4+z
1/4+x,1/4-y,1/4+z
x,1/2+y,1/2+z
-x,1/2-y,1/2+z
1/4-x,3/4+y,3/4+z
1/4+x,3/4-y,3/4+z
1/2+x,y,1/2+z
1/2-x,-y,1/2+z
3/4-x,1/4+y,3/4+z
3/4+x,1/4-y,3/4+z
1/2+x,1/2+y,z
1/2-x,1/2-y,z
3/4-x,3/4+y,1/4+z
3/4+x,3/4-y,1/4+z
loop_
_atom_site_type_symbol
_atom_site_label
_atom_site_fract_x
_atom_site_fract_y
_atom_site_fract_z
Si Si1 0.177318 0.934960 0.116500
Si Si2 0.418881 0.286727 0.091681
Si Si3 0.625738 0.961850 0.248097
Si Si4 0.692320 0.382020 0.653950
Si Si5 0.250000 0.750000 0.046781
Si Si6 0.266307 0.026628 0.994449
Si Si7 0.037603 0.349124 0.656697
O O1 0.190695 0.825249 0.078249
O O2 0.126630 0.863513 0.153389
O O3 0.127011 0.068768 0.101962
O O4 0.256550 0.994470 0.133352
O O5 0.369941 0.169880 0.118616
O O6 0.500561 0.298621 0.112540
O O7 0.427301 0.278052 0.040315
O O8 0.659848 0.927972 0.200853
O O9 0.562733 0.843067 0.258477
O O10 0.580563 0.108576 0.250153
O O11 0.750000 0.250000 0.660460
O O12 0.219181 0.622036 0.017620
O O13 0.261188 0.003643 0.943669
O O14 0.000000 0.500000 0.666769
#
# Coordination Sequence:
#
# PCOD9370865 Si02
#       7
#    16  16  16  16   8  16  16
#     4  10  23  37  62  92 125 165 214 270 332 396
#     4  10  20  41  65  91 123 171 224 267 324 403
#     4  11  23  41  65  98 127 166 230 274 319 404
#     4  10  22  40  68  94 130 177 219 274 342 404
#     4  12  22  40  66  92 130 174 218 268 344 398
#     4  11  23  40  65  93 128 173 217 266 331 407
#     4  10  21  41  62  89 127 166 210 266 330 396
#
# _framework density 19.930745000000002
#
# number of rings (size 3 to 8) (size 9 to 14) (size 15 to 20)
#    0.000    1.538    3.846    0.923    6.462    1.846 
#    2.769    0.000    0.000    0.000    0.000    0.000 
#    0.000    0.000    0.000    0.000    0.000    0.000 
#
# Total GULP energy -144995.609462 kJ/mol
# GULP energy per Si atom -5576.754210 kJ/mol
# Density = 1.988538 g / cm^3
# Si number density = 19.930745 Si / 1000 Ang^3
#
#
#
# Elastic Constant Matrix: (Units=GPa)
#
#
# Indices 1 2 3 4 5 6 
#
# 1 37.5433 26.6776 -2.5519 0.0000 0.0000 0.0000
# 2 26.6776 81.9161 34.9878 0.0000 0.0000 0.0000
# 3 -2.5519 34.9878 88.5214 0.0000 0.0000 0.0000
# 4 0.0000 0.0000 0.0000 2.1945 0.0000 0.0000
# 5 0.0000 0.0000 0.0000 0.0000 4.3247 0.0000
# 6 0.0000 0.0000 0.0000 0.0000 0.0000 2.1405
#
#
#
# Elastic Compliance Matrix: (Units=1/GPa)
#
#
# Indices 1 2 3 4 5 6 
#
# 1 0.038151 -0.015513 0.007231 0.000000 0.000000 0.000000
# 2 -0.015513 0.020995 -0.008745 0.000000 0.000000 0.000000
# 3 0.007231 -0.008745 0.014962 0.000000 0.000000 0.000000
# 4 0.000000 0.000000 0.000000 0.455686 0.000000 0.000000
# 5 0.000000 0.000000 0.000000 0.000000 0.231230 0.000000
# 6 0.000000 0.000000 0.000000 0.000000 0.000000 0.467190
#
#
# Mechanical properties :
#
#
# Convention : Reuss Voigt Hill
#
# Bulk Modulus (GPa) = 24.96684 36.24532 30.60608
# Shear Modulus (GPa) = 3.91966 11.65642 7.78804
#
# Velocity S-wave (km/s) = 1.40389 2.42098 1.97890
# Velocity P-wave (km/s) = 3.89639 5.10294 4.53993
#
# Compressibility (1/GPa) = 0.04005312
#
# Stress axis : x y z
#
# Youngs Moduli (GPa) = 26.21172 47.62999 66.83689
#
# Poissons Ratio (x) = 0.73890 -0.48332
# Poissons Ratio (y) = 0.40663 0.58452
# Poissons Ratio (z) = -0.18955 0.41655
#
# Static dielectric constant tensor:
#      x y z
#    x 1.722730 0.000000 0.000000 
#    y 0.000000 1.813410 0.000000 
#    z 0.000000 0.000000 1.723180 
# 
# From -- ./inp_files/26338.got.cif
#   From: 2010.05.17/outbox.cif.g08.bks.cpg/sg43_14_cif.got.tgz:26338.got - 2010.06.03 19:21:55.
