data_PCOD9370128
_publ_section_title
;
Structure prediction by ZEFSAII (Michael W. Deem and Ramdas Pophale) SiO2 
 PCOD9370128
Probable space group: F D D 2
;
_chemical_formula_sum "Si O2"
_cell_formula_units_Z 120
_cell_length_a 25.768097
_cell_length_b 16.758937
_cell_length_c 13.703014
_cell_angle_alpha 90.000000
_cell_angle_beta 90.000000
_cell_angle_gamma 90.000000
_cell_volume 5917.590609
_symmetry_space_group_name_H-M "F D D 2"
_symmetry_group_IT_number 43
_symmetry_cell_setting 'orthorhombic'
loop_
_space_group_symop_operation_xyz
x,y,z
-x,-y,z
1/4-x,1/4+y,1/4+z
1/4+x,1/4-y,1/4+z
x,1/2+y,1/2+z
-x,1/2-y,1/2+z
1/4-x,3/4+y,3/4+z
1/4+x,3/4-y,3/4+z
1/2+x,y,1/2+z
1/2-x,-y,1/2+z
3/4-x,1/4+y,3/4+z
3/4+x,1/4-y,3/4+z
1/2+x,1/2+y,z
1/2-x,1/2-y,z
3/4-x,3/4+y,1/4+z
3/4+x,3/4-y,1/4+z
loop_
_atom_site_type_symbol
_atom_site_label
_atom_site_fract_x
_atom_site_fract_y
_atom_site_fract_z
Si Si1 0.586524 0.495886 0.068780
Si Si2 0.535593 0.389301 0.906977
Si Si3 0.000000 0.000000 0.206950
Si Si4 0.684054 0.456822 0.649820
Si Si5 0.182123 0.957650 0.172134
Si Si6 0.742333 0.028496 0.334009
Si Si7 0.732426 0.580328 0.512084
Si Si8 0.662683 0.122990 0.464998
O O1 0.545750 0.537783 0.140692
O O2 0.623618 0.442188 0.138549
O O3 0.551470 0.446464 0.993967
O O4 0.624768 0.553916 0.009254
O O5 0.475585 0.366080 0.888259
O O6 0.561549 0.303551 0.930905
O O7 0.562251 0.417349 0.807406
O O8 0.975301 0.074832 0.262068
O O9 0.702829 0.494562 0.752513
O O10 0.691910 0.523801 0.567926
O O11 0.625876 0.427284 0.654185
O O12 0.210676 0.931101 0.271848
O O13 0.216527 0.933293 0.078889
O O14 0.709372 0.086162 0.403208
O O15 0.761305 0.957091 0.404492
#
# Coordination Sequence:
#
# PCOD9370128 Si02
#       8
#    16  16   8  16  16  16  16  16
#     4  11  20  33  56 103 123 150 204 264 328 368
#     4   9  18  34  53  92 126 151 197 263 319 371
#     4  12  24  34  66  92 128 158 210 272 318 382
#     4  10  21  36  60  90 122 164 208 261 327 370
#     4   9  21  34  60  85 124 168 203 251 328 368
#     4  10  17  38  59  86 126 167 208 254 311 393
#     4  10  20  41  56  90 128 163 207 266 314 382
#     4  11  19  32  63  91 120 170 202 254 321 383
#
# _framework density 20.278524000000001
#
# number of rings (size 3 to 8) (size 9 to 14) (size 15 to 20)
#    0.000    2.133    4.000    4.000    3.733    0.000 
#    0.000    2.667    0.000    0.000    6.933    0.000 
#    0.000    0.000    0.000    0.000    0.000    0.000 
#
# Total GULP energy -167199.199109 kJ/mol
# GULP energy per Si atom -5573.306637 kJ/mol
# Density = 2.023237 g / cm^3
# Si number density = 20.278524 Si / 1000 Ang^3
#
#
#
# Elastic Constant Matrix: (Units=GPa)
#
#
# Indices 1 2 3 4 5 6 
#
# 1 84.9109 18.8066 29.5083 0.0000 0.0000 0.0000
# 2 18.8066 54.1597 31.1503 0.0000 0.0000 0.0000
# 3 29.5083 31.1503 83.4698 0.0000 0.0000 0.0000
# 4 0.0000 0.0000 0.0000 26.8457 0.0000 0.0000
# 5 0.0000 0.0000 0.0000 0.0000 18.2831 0.0000
# 6 0.0000 0.0000 0.0000 0.0000 0.0000 14.4917
#
#
#
# Elastic Compliance Matrix: (Units=1/GPa)
#
#
# Indices 1 2 3 4 5 6 
#
# 1 0.013689 -0.002508 -0.003903 0.000000 0.000000 0.000000
# 2 -0.002508 0.023970 -0.008059 0.000000 0.000000 0.000000
# 3 -0.003903 -0.008059 0.016368 0.000000 0.000000 0.000000
# 4 0.000000 0.000000 0.000000 0.037250 0.000000 0.000000
# 5 0.000000 0.000000 0.000000 0.000000 0.054695 0.000000
# 6 0.000000 0.000000 0.000000 0.000000 0.000000 0.069005
#
#
# Mechanical properties :
#
#
# Convention : Reuss Voigt Hill
#
# Bulk Modulus (GPa) = 39.86278 42.38565 41.12422
# Shear Modulus (GPa) = 19.81931 21.46246 20.64089
#
# Velocity S-wave (km/s) = 3.12966 3.25681 3.19387
# Velocity P-wave (km/s) = 5.72363 5.92364 5.82450
#
# Compressibility (1/GPa) = 0.02508606
#
# Stress axis : x y z
#
# Youngs Moduli (GPa) = 73.05082 41.71896 61.09605
#
# Poissons Ratio (x) = 0.10465 0.23847
# Poissons Ratio (y) = 0.18325 0.49235
# Poissons Ratio (z) = 0.28513 0.33620
#
# Static dielectric constant tensor:
#      x y z
#    x 1.753270 0.000000 0.000000 
#    y 0.000000 1.764170 0.000000 
#    z 0.000000 0.000000 1.751240 
# 
# From -- ./inp_files/8026.got.cif
#   From: 2010.05.17/outbox.cif.g08.bks.cpg/sg43_5_cif.got.tgz:8026.got - 2010.06.03 19:21:55.
