data_PCOD9370873
_publ_section_title
;
Structure prediction by ZEFSAII (Michael W. Deem and Ramdas Pophale) SiO2 
 PCOD9370873
Probable space group: F D D 2
;
_chemical_formula_sum "Si O2"
_cell_formula_units_Z 112
_cell_length_a 20.115600
_cell_length_b 11.068396
_cell_length_c 23.369003
_cell_angle_alpha 90.000000
_cell_angle_beta 90.000000
_cell_angle_gamma 90.000000
_cell_volume 5203.048380
_symmetry_space_group_name_H-M "F D D 2"
_symmetry_group_IT_number 43
_symmetry_cell_setting 'orthorhombic'
loop_
_space_group_symop_operation_xyz
x,y,z
-x,-y,z
1/4-x,1/4+y,1/4+z
1/4+x,1/4-y,1/4+z
x,1/2+y,1/2+z
-x,1/2-y,1/2+z
1/4-x,3/4+y,3/4+z
1/4+x,3/4-y,3/4+z
1/2+x,y,1/2+z
1/2-x,-y,1/2+z
3/4-x,1/4+y,3/4+z
3/4+x,1/4-y,3/4+z
1/2+x,1/2+y,z
1/2-x,1/2-y,z
3/4-x,3/4+y,1/4+z
3/4+x,3/4-y,1/4+z
loop_
_atom_site_type_symbol
_atom_site_label
_atom_site_fract_x
_atom_site_fract_y
_atom_site_fract_z
Si Si1 0.317479 0.812998 0.426820
Si Si2 0.579164 0.191080 0.608836
Si Si3 0.540573 0.746958 0.896977
Si Si4 0.154846 0.296633 0.527104
Si Si5 0.500000 0.000000 0.681153
Si Si6 0.750000 0.750000 0.626611
Si Si7 0.754859 0.391097 0.758863
Si Si8 0.950320 0.180548 0.799574
O O1 0.250000 0.750000 0.405897
O O2 0.382238 0.734478 0.411864
O O3 0.304857 0.846589 0.493637
O O4 0.335087 0.937763 0.394598
O O5 0.548395 0.212698 0.546491
O O6 0.646872 0.118144 0.596137
O O7 0.525721 0.108550 0.642314
O O8 0.513949 0.652439 0.943111
O O9 0.519427 0.698723 0.834031
O O10 0.501421 0.872593 0.907775
O O11 0.188708 0.226765 0.474331
O O12 0.185842 0.243866 0.584910
O O13 0.076712 0.305614 0.521946
O O14 0.179818 0.436061 0.527750
O O15 0.750000 0.250000 0.774758
#
# Coordination Sequence:
#
# PCOD9370873 Si02
#       8
#    16  16  16  16   8   8  16  16
#     4  12  29  48  68 108 149 192 244 296 367 448
#     4  12  24  43  69 105 140 184 244 302 365 429
#     4  11  26  46  73 102 140 192 238 299 366 434
#     4  10  20  41  67 105 134 174 233 294 362 428
#     4  11  20  38  68 102 138 168 229 304 360 412
#     4   9  24  46  68  98 140 182 235 286 360 434
#     4  12  23  40  70 104 140 178 242 301 355 442
#     4  11  23  46  76 101 140 189 242 302 364 434
#
# _framework density 21.525842000000001
#
# number of rings (size 3 to 8) (size 9 to 14) (size 15 to 20)
#    0.000    0.857    5.000    0.857    6.000    1.143 
#    1.286    0.000    0.000    0.000    0.000    0.000 
#    0.000    0.000    0.000    0.000    0.000    0.000 
#
# Total GULP energy -156380.191869 kJ/mol
# GULP energy per Si atom -5585.006852 kJ/mol
# Density = 2.147685 g / cm^3
# Si number density = 21.525842 Si / 1000 Ang^3
#
#
#
# Elastic Constant Matrix: (Units=GPa)
#
#
# Indices 1 2 3 4 5 6 
#
# 1 114.7741 4.8937 18.2611 0.0000 0.0000 0.0000
# 2 4.8937 60.5057 21.2997 0.0000 0.0000 0.0000
# 3 18.2611 21.2997 76.6517 0.0000 0.0000 0.0000
# 4 0.0000 0.0000 0.0000 1.2161 0.0000 0.0000
# 5 0.0000 0.0000 0.0000 0.0000 20.4051 0.0000
# 6 0.0000 0.0000 0.0000 0.0000 0.0000 26.4672
#
#
#
# Elastic Compliance Matrix: (Units=1/GPa)
#
#
# Indices 1 2 3 4 5 6 
#
# 1 0.009056 0.000030 -0.002166 0.000000 0.000000 0.000000
# 2 0.000030 0.018319 -0.005098 0.000000 0.000000 0.000000
# 3 -0.002166 -0.005098 0.014979 0.000000 0.000000 0.000000
# 4 0.000000 0.000000 0.000000 0.822299 0.000000 0.000000
# 5 0.000000 0.000000 0.000000 0.000000 0.049007 0.000000
# 6 0.000000 0.000000 0.000000 0.000000 0.000000 0.037783
#
#
# Mechanical properties :
#
#
# Convention : Reuss Voigt Hill
#
# Bulk Modulus (GPa) = 35.85896 37.87117 36.86507
# Shear Modulus (GPa) = 5.12713 23.44950 14.28831
#
# Velocity S-wave (km/s) = 1.54500 3.30413 2.57918
# Velocity P-wave (km/s) = 4.45841 5.67344 5.10222
#
# Compressibility (1/GPa) = 0.02788703
#
# Stress axis : x y z
#
# Youngs Moduli (GPa) = 110.42310 54.58673 66.76226
#
# Poissons Ratio (x) = -0.00164 0.14459
# Poissons Ratio (y) = -0.00331 0.34033
# Poissons Ratio (z) = 0.23915 0.27827
#
# Static dielectric constant tensor:
#      x y z
#    x 1.787190 0.000000 0.000000 
#    y 0.000000 1.765290 0.000000 
#    z 0.000000 0.000000 1.796470 
# 
# From -- ./inp_files/22438.got.cif
#   From: 2010.05.17/outbox.cif.g08.bks.cpg/sg43_12_cif.got.tgz:22438.got - 2010.06.03 19:21:55.
