data_PCOD9370253
_publ_section_title
;
Structure prediction by ZEFSAII (Michael W. Deem and Ramdas Pophale) SiO2 
 PCOD9370253
Probable space group: F D D 2
;
_chemical_formula_sum "Si O2"
_cell_formula_units_Z 120
_cell_length_a 24.686396
_cell_length_b 15.707461
_cell_length_c 13.132872
_cell_angle_alpha 90.000000
_cell_angle_beta 90.000000
_cell_angle_gamma 90.000000
_cell_volume 5092.410358
_symmetry_space_group_name_H-M "F D D 2"
_symmetry_group_IT_number 43
_symmetry_cell_setting 'orthorhombic'
loop_
_space_group_symop_operation_xyz
x,y,z
-x,-y,z
1/4-x,1/4+y,1/4+z
1/4+x,1/4-y,1/4+z
x,1/2+y,1/2+z
-x,1/2-y,1/2+z
1/4-x,3/4+y,3/4+z
1/4+x,3/4-y,3/4+z
1/2+x,y,1/2+z
1/2-x,-y,1/2+z
3/4-x,1/4+y,3/4+z
3/4+x,1/4-y,3/4+z
1/2+x,1/2+y,z
1/2-x,1/2-y,z
3/4-x,3/4+y,1/4+z
3/4+x,3/4-y,1/4+z
loop_
_atom_site_type_symbol
_atom_site_label
_atom_site_fract_x
_atom_site_fract_y
_atom_site_fract_z
Si Si1 0.446558 0.840202 0.436150
Si Si2 0.844546 0.237950 0.026664
Si Si3 0.250000 0.750000 0.785164
Si Si4 0.018327 0.185465 0.724683
Si Si5 0.963123 0.802627 0.492542
Si Si6 0.605521 0.923914 0.540940
Si Si7 0.996847 0.121147 0.288342
Si Si8 0.095750 0.363698 0.305244
O O1 0.439393 0.834469 0.314797
O O2 0.493819 0.774955 0.472487
O O3 0.390046 0.831154 0.494894
O O4 0.468136 0.932826 0.466448
O O5 0.899907 0.277415 0.982004
O O6 0.872904 0.162655 0.092165
O O7 0.807280 0.316799 0.057505
O O8 0.902292 0.105085 0.922416
O O9 0.202901 0.695603 0.838106
O O10 0.010050 0.287396 0.736717
O O11 0.964292 0.135784 0.760254
O O12 0.030988 0.166439 0.608213
O O13 0.980558 0.865007 0.402702
O O14 0.703747 0.823006 0.479826
O O15 0.637448 0.013416 0.541189
#
# Coordination Sequence:
#
# PCOD9370253 Si02
#       8
#    16  16   8  16  16  16  16  16
#     4  10  22  39  63 102 137 173 235 297 349 437
#     4  11  23  43  71  95 143 182 237 303 361 424
#     4  10  18  38  62  98 138 166 228 294 366 414
#     4  11  22  43  66  96 141 184 237 294 369 434
#     4  11  24  43  70  96 141 189 235 300 361 441
#     4  11  21  38  69 103 135 188 225 300 366 426
#     4  10  25  45  64 103 139 182 247 295 358 445
#     4  11  22  39  67 101 145 178 235 300 362 428
#
# _framework density 23.564478999999999
#
# number of rings (size 3 to 8) (size 9 to 14) (size 15 to 20)
#    0.000    1.333    4.000    1.600    1.867    1.067 
#    0.000    2.667    0.000    0.000    0.000    0.000 
#    0.000    0.000    0.000    0.000    0.000    0.000 
#
# Total GULP energy -167313.110516 kJ/mol
# GULP energy per Si atom -5577.103684 kJ/mol
# Density = 2.351085 g / cm^3
# Si number density = 23.564479 Si / 1000 Ang^3
#
#
#
# Elastic Constant Matrix: (Units=GPa)
#
#
# Indices 1 2 3 4 5 6 
#
# 1 149.2304 47.3583 41.5187 0.0000 0.0000 0.0000
# 2 47.3583 77.1819 26.6075 0.0000 0.0000 0.0000
# 3 41.5187 26.6075 147.6649 0.0000 0.0000 0.0000
# 4 0.0000 0.0000 0.0000 40.5696 0.0000 0.0000
# 5 0.0000 0.0000 0.0000 0.0000 31.2947 0.0000
# 6 0.0000 0.0000 0.0000 0.0000 0.0000 51.9976
#
#
#
# Elastic Compliance Matrix: (Units=1/GPa)
#
#
# Indices 1 2 3 4 5 6 
#
# 1 0.008651 -0.004766 -0.001574 0.000000 0.000000 0.000000
# 2 -0.004766 0.016440 -0.001622 0.000000 0.000000 0.000000
# 3 -0.001574 -0.001622 0.007507 0.000000 0.000000 0.000000
# 4 0.000000 0.000000 0.000000 0.024649 0.000000 0.000000
# 5 0.000000 0.000000 0.000000 0.000000 0.031954 0.000000
# 6 0.000000 0.000000 0.000000 0.000000 0.000000 0.019232
#
#
# Mechanical properties :
#
#
# Convention : Reuss Voigt Hill
#
# Bulk Modulus (GPa) = 59.97203 67.22734 63.59969
# Shear Modulus (GPa) = 38.48668 42.01190 40.24929
#
# Velocity S-wave (km/s) = 4.04573 4.22696 4.13734
# Velocity P-wave (km/s) = 6.87963 7.23975 7.06199
#
# Compressibility (1/GPa) = 0.01667444
#
# Stress axis : x y z
#
# Youngs Moduli (GPa) = 115.58896 60.82728 133.21099
#
# Poissons Ratio (x) = 0.28990 0.20964
# Poissons Ratio (y) = 0.55088 0.21610
# Poissons Ratio (z) = 0.18191 0.09868
#
# Static dielectric constant tensor:
#      x y z
#    x 1.986960 0.000000 0.000000 
#    y 0.000000 1.932940 0.000000 
#    z 0.000000 0.000000 1.989940 
# 
# From -- ./inp_files/11550.got.cif
#   From: 2010.05.17/outbox.cif.g08.bks.cpg/sg43_6_cif.got.tgz:11550.got - 2010.06.03 19:21:55.
