data_PCOD9370676
_publ_section_title
;
Structure prediction by ZEFSAII (Michael W. Deem and Ramdas Pophale) SiO2 
 PCOD9370676
Probable space group: F D D 2
;
_chemical_formula_sum "Si O2"
_cell_formula_units_Z 128
_cell_length_a 8.500724
_cell_length_b 27.633220
_cell_length_c 26.922387
_cell_angle_alpha 90.000000
_cell_angle_beta 90.000000
_cell_angle_gamma 90.000000
_cell_volume 6324.132686
_symmetry_space_group_name_H-M "F D D 2"
_symmetry_group_IT_number 43
_symmetry_cell_setting 'orthorhombic'
loop_
_space_group_symop_operation_xyz
x,y,z
-x,-y,z
1/4-x,1/4+y,1/4+z
1/4+x,1/4-y,1/4+z
x,1/2+y,1/2+z
-x,1/2-y,1/2+z
1/4-x,3/4+y,3/4+z
1/4+x,3/4-y,3/4+z
1/2+x,y,1/2+z
1/2-x,-y,1/2+z
3/4-x,1/4+y,3/4+z
3/4+x,1/4-y,3/4+z
1/2+x,1/2+y,z
1/2-x,1/2-y,z
3/4-x,3/4+y,1/4+z
3/4+x,3/4-y,1/4+z
loop_
_atom_site_type_symbol
_atom_site_label
_atom_site_fract_x
_atom_site_fract_y
_atom_site_fract_z
Si Si1 0.593151 0.101154 0.559680
Si Si2 0.401098 0.799029 0.007863
Si Si3 0.102164 0.934250 0.146198
Si Si4 0.310459 0.851775 0.266753
Si Si5 0.412289 0.700519 0.064928
Si Si6 0.350734 0.175494 0.671124
Si Si7 0.131003 0.710313 0.735368
Si Si8 0.847169 0.968389 0.569841
O O1 0.550638 0.072890 0.610999
O O2 0.540061 0.157446 0.564100
O O3 0.481138 0.076893 0.518315
O O4 0.771617 0.096174 0.542225
O O5 0.528562 0.841608 0.007757
O O6 0.455351 0.749858 0.035495
O O7 0.246365 0.816304 0.037342
O O8 0.344450 0.794170 0.950984
O O9 0.162004 0.879234 0.152093
O O10 0.231891 0.963162 0.115539
O O11 0.250000 0.750000 0.328971
O O12 0.279351 0.821802 0.215176
O O13 0.171886 0.832440 0.302438
O O14 0.361193 0.708199 0.122240
O O15 0.519642 0.182856 0.697252
O O16 0.250000 0.750000 0.713752
O O17 0.010356 0.735781 0.773907
#
# Coordination Sequence:
#
# PCOD9370676 Si02
#       8
#    16  16  16  16  16  16  16  16
#     4  10  20  38  64  93 125 157 204 260 311 369
#     4  10  21  42  61  84 120 172 209 249 306 374
#     4   9  19  40  63  86 122 167 204 250 312 378
#     4  10  20  38  64  93 125 157 204 260 311 369
#     4  10  21  42  61  84 120 172 209 249 306 374
#     4   9  19  40  63  86 122 167 204 250 312 378
#     4  10  20  38  62  90 125 156 202 256 311 367
#     4  10  20  38  62  90 125 156 202 256 311 367
#
# _framework density 20.239929
#
# number of rings (size 3 to 8) (size 9 to 14) (size 15 to 20)
#    0.000    2.250    0.000    4.500    0.000    0.500 
#   36.000    6.250    0.000    0.000    0.000    0.000 
#    0.000    0.000    0.000    0.000    0.000    0.000 
#
# Total GULP energy -178420.461532 kJ/mol
# GULP energy per Si atom -5575.639423 kJ/mol
# Density = 2.019386 g / cm^3
# Si number density = 20.239929 Si / 1000 Ang^3
#
#
#
# Elastic Constant Matrix: (Units=GPa)
#
#
# Indices 1 2 3 4 5 6 
#
# 1 105.0538 22.3378 35.6967 0.0000 0.0000 0.0000
# 2 22.3378 96.8041 20.9459 0.0000 0.0000 0.0000
# 3 35.6967 20.9459 123.3315 0.0000 0.0000 0.0000
# 4 0.0000 0.0000 0.0000 37.3091 0.0000 0.0000
# 5 0.0000 0.0000 0.0000 0.0000 -30.3829 0.0000
# 6 0.0000 0.0000 0.0000 0.0000 0.0000 39.4597
#
#
#
# Elastic Compliance Matrix: (Units=1/GPa)
#
#
# Indices 1 2 3 4 5 6 
#
# 1 0.010884 -0.001900 -0.002827 0.000000 0.000000 0.000000
# 2 -0.001900 0.011056 -0.001328 0.000000 0.000000 0.000000
# 3 -0.002827 -0.001328 0.009152 0.000000 0.000000 0.000000
# 4 0.000000 0.000000 0.000000 0.026803 0.000000 0.000000
# 5 0.000000 0.000000 0.000000 0.000000 -0.032913 0.000000
# 6 0.000000 0.000000 0.000000 0.000000 0.000000 0.025342
#
#
# Mechanical properties :
#
#
# Convention : Reuss Voigt Hill
#
# Bulk Modulus (GPa) = 52.68255 53.68337 53.18296
# Shear Modulus (GPa) = 72.71585 25.69112 49.20348
#
# Velocity S-wave (km/s) = 6.00041 3.56663 4.93588
# Velocity P-wave (km/s) = 8.60768 6.59865 7.66923
#
# Compressibility (1/GPa) = 0.01898162
#
# Stress axis : x y z
#
# Youngs Moduli (GPa) = 91.88119 90.45029 109.26428
#
# Poissons Ratio (x) = 0.17182 0.30894
# Poissons Ratio (y) = 0.17454 0.14508
# Poissons Ratio (z) = 0.25979 0.12010
#
# Static dielectric constant tensor:
#      x y z
#    x 1.689040 0.000000 0.000000 
#    y 0.000000 1.789770 0.000000 
#    z 0.000000 0.000000 1.737080 
# 
# From -- ./inp_files/25345.got.cif
#   From: 2010.05.17/outbox.cif.g08.bks.cpg/sg43_13_cif.got.tgz:25345.got - 2010.06.03 19:21:55.
