data_PCOD9370053
_publ_section_title
;
Structure prediction by ZEFSAII (Michael W. Deem and Ramdas Pophale) SiO2 
 PCOD9370053
Probable space group: F D D 2
;
_chemical_formula_sum "Si O2"
_cell_formula_units_Z 88
_cell_length_a 27.464824
_cell_length_b 8.759494
_cell_length_c 16.616302
_cell_angle_alpha 90.000000
_cell_angle_beta 90.000000
_cell_angle_gamma 90.000000
_cell_volume 3997.516055
_symmetry_space_group_name_H-M "F D D 2"
_symmetry_group_IT_number 43
_symmetry_cell_setting 'orthorhombic'
loop_
_space_group_symop_operation_xyz
x,y,z
-x,-y,z
1/4-x,1/4+y,1/4+z
1/4+x,1/4-y,1/4+z
x,1/2+y,1/2+z
-x,1/2-y,1/2+z
1/4-x,3/4+y,3/4+z
1/4+x,3/4-y,3/4+z
1/2+x,y,1/2+z
1/2-x,-y,1/2+z
3/4-x,1/4+y,3/4+z
3/4+x,1/4-y,3/4+z
1/2+x,1/2+y,z
1/2-x,1/2-y,z
3/4-x,3/4+y,1/4+z
3/4+x,3/4-y,1/4+z
loop_
_atom_site_type_symbol
_atom_site_label
_atom_site_fract_x
_atom_site_fract_y
_atom_site_fract_z
Si Si1 0.167981 0.039348 0.139000
Si Si2 0.815957 0.688304 0.345736
Si Si3 0.582019 0.710650 0.572874
Si Si4 0.184043 0.188303 0.616137
Si Si5 0.750000 0.750000 0.199939
Si Si6 0.250000 0.250000 0.761934
Si Si7 0.750000 0.750000 0.480937
O O1 0.215909 0.140930 0.147803
O O2 0.121442 0.116914 0.097492
O O3 0.152586 0.999999 0.230937
O O4 0.179275 0.872825 0.104480
O O5 0.786822 0.666733 0.262896
O O6 0.783422 0.646585 0.422215
O O7 0.820725 0.872827 0.357393
O O8 0.628558 0.633084 0.614381
O O9 0.534091 0.609068 0.564070
O O10 0.213178 0.166732 0.698978
O O11 0.216579 0.146584 0.539658
#
# Coordination Sequence:
#
# PCOD9370053 Si02
#       7
#    16  16  16  16   8   8   8
#     4   9  16  30  49  74 104 136 175 212 259 312
#     4   9  17  28  49  77 100 133 173 217 256 302
#     4   9  16  30  49  74 104 136 175 212 259 312
#     4   9  17  28  49  77 100 133 173 217 256 302
#     4   9  18  29  50  79 106 137 174 214 262 307
#     4   9  18  29  50  79 106 137 174 214 262 307
#     4  10  16  28  48  78  96 122 176 222 244 306
#
# _framework density 22.013670000000001
#
# number of rings (size 3 to 8) (size 9 to 14) (size 15 to 20)
#    0.000    2.909    1.818    0.000    0.000    0.000 
#    0.000    0.000    0.000   36.000    0.000    0.000 
#    0.000    0.000    0.000    0.000    0.000    0.000 
#
# Total GULP energy -122640.486247 kJ/mol
# GULP energy per Si atom -5574.567557 kJ/mol
# Density = 2.196357 g / cm^3
# Si number density = 22.013670 Si / 1000 Ang^3
#
#
#
# Elastic Constant Matrix: (Units=GPa)
#
#
# Indices 1 2 3 4 5 6 
#
# 1 195.2431 47.8639 30.0306 0.0000 0.0000 0.0000
# 2 47.8639 38.1471 22.1379 0.0000 0.0000 0.0000
# 3 30.0306 22.1379 36.5762 0.0000 0.0000 0.0000
# 4 0.0000 0.0000 0.0000 12.9951 0.0000 0.0000
# 5 0.0000 0.0000 0.0000 0.0000 11.6211 0.0000
# 6 0.0000 0.0000 0.0000 0.0000 0.0000 38.6683
#
#
#
# Elastic Compliance Matrix: (Units=1/GPa)
#
#
# Indices 1 2 3 4 5 6 
#
# 1 0.007409 -0.008888 -0.000704 0.000000 0.000000 0.000000
# 2 -0.008888 0.051069 -0.023613 0.000000 0.000000 0.000000
# 3 -0.000704 -0.023613 0.042210 0.000000 0.000000 0.000000
# 4 0.000000 0.000000 0.000000 0.076952 0.000000 0.000000
# 5 0.000000 0.000000 0.000000 0.000000 0.086051 0.000000
# 6 0.000000 0.000000 0.000000 0.000000 0.000000 0.025861
#
#
# Mechanical properties :
#
#
# Convention : Reuss Voigt Hill
#
# Bulk Modulus (GPa) = 29.17193 52.22570 40.69881
# Shear Modulus (GPa) = 13.60970 23.98583 18.79776
#
# Velocity S-wave (km/s) = 2.48914 3.30447 2.92535
# Velocity P-wave (km/s) = 4.64129 6.19153 5.47159
#
# Compressibility (1/GPa) = 0.03427953
#
# Stress axis : x y z
#
# Youngs Moduli (GPa) = 134.97325 19.58137 23.69133
#
# Poissons Ratio (x) = 0.17403 0.01667
# Poissons Ratio (y) = 1.19960 0.55941
# Poissons Ratio (z) = 0.09498 0.46237
#
# Static dielectric constant tensor:
#      x y z
#    x 1.916870 0.000000 0.000000 
#    y 0.000000 1.842730 0.000000 
#    z 0.000000 0.000000 1.803160 
# 
# From -- ./inp_files/11651.got.cif
#   From: 2010.05.17/outbox.cif.g08.bks.cpg/sg43_6_cif.got.tgz:11651.got - 2010.06.03 19:21:55.
