data_PCOD9370047
_publ_section_title
;
Structure prediction by ZEFSAII (Michael W. Deem and Ramdas Pophale) SiO2 
 PCOD9370047
Probable space group: F D D 2
;
_chemical_formula_sum "Si O2"
_cell_formula_units_Z 120
_cell_length_a 21.609652
_cell_length_b 24.667830
_cell_length_c 8.704781
_cell_angle_alpha 90.000000
_cell_angle_beta 90.000000
_cell_angle_gamma 90.000000
_cell_volume 4640.198606
_symmetry_space_group_name_H-M "F D D 2"
_symmetry_group_IT_number 43
_symmetry_cell_setting 'orthorhombic'
loop_
_space_group_symop_operation_xyz
x,y,z
-x,-y,z
1/4-x,1/4+y,1/4+z
1/4+x,1/4-y,1/4+z
x,1/2+y,1/2+z
-x,1/2-y,1/2+z
1/4-x,3/4+y,3/4+z
1/4+x,3/4-y,3/4+z
1/2+x,y,1/2+z
1/2-x,-y,1/2+z
3/4-x,1/4+y,3/4+z
3/4+x,1/4-y,3/4+z
1/2+x,1/2+y,z
1/2-x,1/2-y,z
3/4-x,3/4+y,1/4+z
3/4+x,3/4-y,1/4+z
loop_
_atom_site_type_symbol
_atom_site_label
_atom_site_fract_x
_atom_site_fract_y
_atom_site_fract_z
Si Si1 0.750000 0.250000 0.593251
Si Si2 0.419803 0.400434 0.231626
Si Si3 0.711927 0.414805 0.287434
Si Si4 0.905288 0.558331 0.122405
Si Si5 0.666807 0.721927 0.536477
Si Si6 0.459878 0.131536 0.599619
Si Si7 0.575589 0.095752 0.307576
Si Si8 0.175403 0.038748 0.620209
O O1 0.798209 0.286961 0.498970
O O2 0.706125 0.297914 0.655742
O O3 0.444329 0.374952 0.394352
O O4 0.427291 0.465644 0.246516
O O5 0.464731 0.370761 0.105354
O O6 0.345478 0.388220 0.224674
O O7 0.655647 0.457189 0.288171
O O8 0.716980 0.384841 0.451884
O O9 0.773058 0.446538 0.242835
O O10 0.881084 0.619174 0.127554
O O11 0.841890 0.523547 0.120984
O O12 0.937118 0.545025 0.958222
O O13 0.695261 0.677709 0.421994
O O14 0.444421 0.181063 0.714993
O O15 0.610688 0.064551 0.170010
#
# Coordination Sequence:
#
# PCOD9370047 Si02
#       8
#     8  16  16  16  16  16  16  16
#     4  10  20  26  44  68  96 122 150 196 234 296
#     4  10  17  28  40  64  95 128 160 193 246 299
#     4   9  18  27  39  64  95 119 152 191 242 305
#     4  10  18  26  43  64  91 124 151 183 247 293
#     4  10  17  26  40  64  89 128 155 189 244 303
#     4  10  18  25  41  64  98 128 158 195 241 317
#     4  10  17  28  40  66  92 120 154 183 240 296
#     4  10  16  27  39  61  93 121 151 188 242 296
#
# _framework density 25.860959999999999
#
# number of rings (size 3 to 8) (size 9 to 14) (size 15 to 20)
#    0.000    2.133    5.333    2.000    3.733    0.000 
#    0.000    0.000    0.000    0.000    6.933    0.000 
#    0.000    0.000    0.000    0.000    0.000    0.000 
#
# Total GULP energy -167468.587864 kJ/mol
# GULP energy per Si atom -5582.286262 kJ/mol
# Density = 2.580210 g / cm^3
# Si number density = 25.860960 Si / 1000 Ang^3
#
#
#
# Elastic Constant Matrix: (Units=GPa)
#
#
# Indices 1 2 3 4 5 6 
#
# 1 121.5404 30.4581 13.6625 -0.0002 0.0002 0.0002
# 2 30.4581 147.2934 13.6143 -0.0005 0.0007 0.0003
# 3 13.6625 13.6143 41.3044 -0.0028 0.0034 0.0014
# 4 -0.0002 -0.0005 -0.0028 26.4296 0.0013 0.0006
# 5 0.0002 0.0007 0.0034 0.0013 25.8796 -0.0006
# 6 0.0002 0.0003 0.0014 0.0006 -0.0006 56.9709
#
#
#
# Elastic Compliance Matrix: (Units=1/GPa)
#
#
# Indices 1 2 3 4 5 6 
#
# 1 0.008904 -0.001618 -0.002412 0.000000 0.000000 0.000000
# 2 -0.001618 0.007297 -0.001870 0.000000 0.000000 0.000000
# 3 -0.002412 -0.001870 0.025625 0.000003 -0.000003 -0.000001
# 4 0.000000 0.000000 0.000003 0.037836 -0.000002 0.000000
# 5 0.000000 0.000000 -0.000003 -0.000002 0.038640 0.000000
# 6 0.000000 0.000000 -0.000001 0.000000 0.000000 0.017553
#
#
# Mechanical properties :
#
#
# Convention : Reuss Voigt Hill
#
# Bulk Modulus (GPa) = 33.30493 47.28978 40.29735
# Shear Modulus (GPa) = 31.71305 38.68291 35.19798
#
# Velocity S-wave (km/s) = 3.50564 3.87176 3.69324
# Velocity P-wave (km/s) = 5.41225 6.18977 5.81402
#
# Compressibility (1/GPa) = 0.03002559
#
# Stress axis : x y z
#
# Youngs Moduli (GPa) = 112.30390 137.04928 39.02504
#
# Poissons Ratio (x) = 0.22180 0.09413
# Poissons Ratio (y) = 0.18175 0.07297
# Poissons Ratio (z) = 0.27087 0.25624
#
# Static dielectric constant tensor:
#      x y z
#    x 2.069350 0.000000 0.000000 
#    y 0.000000 2.018430 0.000000 
#    z 0.000000 0.000000 2.121930 
# 
# From -- ./inp_files/7202.got.cif
#   From: 2010.05.17/outbox.cif.g08.bks.cpg/sg43_4_cif.got.tgz:7202.got - 2010.06.03 19:21:55.
