data_PCOD9370884
_publ_section_title
;
Structure prediction by ZEFSAII (Michael W. Deem and Ramdas Pophale) SiO2 
 PCOD9370884
Probable space group: F D D 2
;
_chemical_formula_sum "Si O2"
_cell_formula_units_Z 80
_cell_length_a 9.028279
_cell_length_b 12.338475
_cell_length_c 28.482542
_cell_angle_alpha 90.000000
_cell_angle_beta 90.000000
_cell_angle_gamma 90.000000
_cell_volume 3172.818313
_symmetry_space_group_name_H-M "F D D 2"
_symmetry_group_IT_number 43
_symmetry_cell_setting 'orthorhombic'
loop_
_space_group_symop_operation_xyz
x,y,z
-x,-y,z
1/4-x,1/4+y,1/4+z
1/4+x,1/4-y,1/4+z
x,1/2+y,1/2+z
-x,1/2-y,1/2+z
1/4-x,3/4+y,3/4+z
1/4+x,3/4-y,3/4+z
1/2+x,y,1/2+z
1/2-x,-y,1/2+z
3/4-x,1/4+y,3/4+z
3/4+x,1/4-y,3/4+z
1/2+x,1/2+y,z
1/2-x,1/2-y,z
3/4-x,3/4+y,1/4+z
3/4+x,3/4-y,1/4+z
loop_
_atom_site_type_symbol
_atom_site_label
_atom_site_fract_x
_atom_site_fract_y
_atom_site_fract_z
Si Si1 0.250000 0.250000 0.263700
Si Si2 0.036021 0.123484 0.576358
Si Si3 0.000000 0.000000 0.256933
Si Si4 0.730971 0.094367 0.693880
Si Si5 0.183713 0.906017 0.852161
Si Si6 0.491335 0.383176 0.411663
O O1 0.166771 0.321130 0.220673
O O2 0.201253 0.337519 0.304608
O O3 0.141740 0.181667 0.539255
O O4 0.918580 0.218349 0.587325
O O5 0.129465 0.118216 0.624115
O O6 0.000000 0.000000 0.563516
O O7 0.915390 0.907841 0.227184
O O8 0.686304 0.118659 0.640644
O O9 0.763986 0.967389 0.695561
O O10 0.338529 0.884892 0.881326
O O11 0.500000 0.500000 0.435181
#
# Coordination Sequence:
#
# PCOD9370884 Si02
#       6
#     8  16   8  16  16  16
#     4  12  23  40  66  96 142 182 236 285 362 442
#     4  11  24  42  68  96 136 178 234 297 362 425
#     4  12  21  42  68  96 124 188 232 271 360 440
#     4  12  24  39  68 101 130 182 236 279 360 439
#     4  11  21  45  66  94 136 184 226 297 355 433
#     4  10  20  41  69  92 130 181 232 293 359 425
#
# _framework density 25.214176999999999
#
# number of rings (size 3 to 8) (size 9 to 14) (size 15 to 20)
#    0.000    0.800    9.000    0.000    2.800    0.800 
#    0.000    0.000    0.000    2.400    0.000    0.000 
#    0.000    0.000    0.000    0.000    0.000    0.000 
#
# Total GULP energy -111347.795366 kJ/mol
# GULP energy per Si atom -5567.389768 kJ/mol
# Density = 2.515679 g / cm^3
# Si number density = 25.214177 Si / 1000 Ang^3
#
#
#
# Elastic Constant Matrix: (Units=GPa)
#
#
# Indices 1 2 3 4 5 6 
#
# 1 25.8807 36.1653 10.8809 0.0000 0.0000 0.0000
# 2 36.1653 253.6376 93.5007 0.0000 0.0000 0.0000
# 3 10.8809 93.5007 107.4017 0.0000 0.0000 0.0000
# 4 0.0000 0.0000 0.0000 99.9880 0.0000 0.0000
# 5 0.0000 0.0000 0.0000 0.0000 -21.3888 0.0000
# 6 0.0000 0.0000 0.0000 0.0000 0.0000 16.3840
#
#
#
# Elastic Compliance Matrix: (Units=1/GPa)
#
#
# Indices 1 2 3 4 5 6 
#
# 1 0.048446 -0.007508 0.001628 0.000000 0.000000 0.000000
# 2 -0.007508 0.006969 -0.005307 0.000000 0.000000 0.000000
# 3 0.001628 -0.005307 0.013766 0.000000 0.000000 0.000000
# 4 0.000000 0.000000 0.000000 0.010001 0.000000 0.000000
# 5 0.000000 0.000000 0.000000 0.000000 -0.046753 0.000000
# 6 0.000000 0.000000 0.000000 0.000000 0.000000 0.061035
#
#
# Mechanical properties :
#
#
# Convention : Reuss Voigt Hill
#
# Bulk Modulus (GPa) = 21.36395 74.22375 47.79385
# Shear Modulus (GPa) = 38.04034 35.42152 36.73093
#
# Velocity S-wave (km/s) = 3.88840 3.75217 3.82089
# Velocity P-wave (km/s) = 5.35265 6.94787 6.20177
#
# Compressibility (1/GPa) = 0.04680783
#
# Stress axis : x y z
#
# Youngs Moduli (GPa) = 20.64168 143.48365 72.64379
#
# Poissons Ratio (x) = 1.07726 -0.11827
# Poissons Ratio (y) = 0.15498 0.38550
# Poissons Ratio (z) = -0.03361 0.76143
#
# Static dielectric constant tensor:
#      x y z
#    x 2.281940 0.000000 0.000000 
#    y 0.000000 1.907160 0.000000 
#    z 0.000000 0.000000 2.008950 
# 
# From -- ./inp_files/25538.got.cif
#   From: 2010.05.17/outbox.cif.g08.bks.cpg/sg43_13_cif.got.tgz:25538.got - 2010.06.03 19:21:55.
