data_PCOD9370868
_publ_section_title
;
Structure prediction by ZEFSAII (Michael W. Deem and Ramdas Pophale) SiO2 
 PCOD9370868
Probable space group: F D D 2
;
_chemical_formula_sum "Si O2"
_cell_formula_units_Z 96
_cell_length_a 7.615354
_cell_length_b 32.508672
_cell_length_c 18.402040
_cell_angle_alpha 90.000000
_cell_angle_beta 90.000000
_cell_angle_gamma 90.000000
_cell_volume 4555.701867
_symmetry_space_group_name_H-M "F D D 2"
_symmetry_group_IT_number 43
_symmetry_cell_setting 'orthorhombic'
loop_
_space_group_symop_operation_xyz
x,y,z
-x,-y,z
1/4-x,1/4+y,1/4+z
1/4+x,1/4-y,1/4+z
x,1/2+y,1/2+z
-x,1/2-y,1/2+z
1/4-x,3/4+y,3/4+z
1/4+x,3/4-y,3/4+z
1/2+x,y,1/2+z
1/2-x,-y,1/2+z
3/4-x,1/4+y,3/4+z
3/4+x,1/4-y,3/4+z
1/2+x,1/2+y,z
1/2-x,1/2-y,z
3/4-x,3/4+y,1/4+z
3/4+x,3/4-y,1/4+z
loop_
_atom_site_type_symbol
_atom_site_label
_atom_site_fract_x
_atom_site_fract_y
_atom_site_fract_z
Si Si1 0.149362 0.792953 0.422060
Si Si2 0.712651 0.590794 0.809726
Si Si3 0.692127 0.677341 0.340281
Si Si4 0.435115 0.825848 0.327448
Si Si5 0.736371 0.609172 0.462721
Si Si6 0.706347 0.203176 0.175616
O O1 0.250000 0.750000 0.418968
O O2 0.091212 0.806114 0.502155
O O3 0.300064 0.823559 0.393904
O O4 0.978245 0.798708 0.370492
O O5 0.556448 0.624477 0.816319
O O6 0.862644 0.619279 0.773262
O O7 0.804052 0.568843 0.878254
O O8 0.742790 0.643671 0.401367
O O9 0.645003 0.658127 0.261392
O O10 0.881665 0.698047 0.335410
O O11 0.347286 0.802991 0.259278
O O12 0.636404 0.572353 0.422218
O O13 0.750000 0.250000 0.156301
#
# Coordination Sequence:
#
# PCOD9370868 Si02
#       6
#    16  16  16  16  16  16
#     4  11  24  46  65  97 143 174 221 290 347 403
#     4  10  21  44  66  94 132 178 222 276 340 401
#     4  11  23  39  71  98 130 176 234 274 340 406
#     4  11  23  41  74  98 129 181 236 276 332 419
#     4  10  20  41  65  96 128 175 223 278 329 408
#     4  11  22  43  68  96 144 177 217 290 352 395
#
# _framework density 21.072495
#
# number of rings (size 3 to 8) (size 9 to 14) (size 15 to 20)
#    0.000    1.333    5.000    2.500    4.667    0.667 
#    9.000    0.000    0.000    0.000    0.000    0.000 
#    0.000    0.000    0.000    0.000    0.000    0.000 
#
# Total GULP energy -133717.566149 kJ/mol
# GULP energy per Si atom -5571.565256 kJ/mol
# Density = 2.102453 g / cm^3
# Si number density = 21.072495 Si / 1000 Ang^3
#
#
#
# Elastic Constant Matrix: (Units=GPa)
#
#
# Indices 1 2 3 4 5 6 
#
# 1 97.1546 5.5476 16.3596 0.0000 0.0000 0.0000
# 2 5.5476 78.0150 9.8073 0.0000 0.0000 0.0000
# 3 16.3596 9.8073 65.6668 0.0000 0.0000 0.0000
# 4 0.0000 0.0000 0.0000 16.3577 0.0000 0.0000
# 5 0.0000 0.0000 0.0000 0.0000 15.7201 0.0000
# 6 0.0000 0.0000 0.0000 0.0000 0.0000 20.0037
#
#
#
# Elastic Compliance Matrix: (Units=1/GPa)
#
#
# Indices 1 2 3 4 5 6 
#
# 1 0.010758 -0.000436 -0.002615 0.000000 0.000000 0.000000
# 2 -0.000436 0.013081 -0.001845 0.000000 0.000000 0.000000
# 3 -0.002615 -0.001845 0.016155 0.000000 0.000000 0.000000
# 4 0.000000 0.000000 0.000000 0.061133 0.000000 0.000000
# 5 0.000000 0.000000 0.000000 0.000000 0.063613 0.000000
# 6 0.000000 0.000000 0.000000 0.000000 0.000000 0.049991
#
#
# Mechanical properties :
#
#
# Convention : Reuss Voigt Hill
#
# Bulk Modulus (GPa) = 33.11035 33.80729 33.45882
# Shear Modulus (GPa) = 21.31364 24.35774 22.83569
#
# Velocity S-wave (km/s) = 3.18377 3.40354 3.29549
# Velocity P-wave (km/s) = 5.40943 5.61459 5.51296
#
# Compressibility (1/GPa) = 0.03020204
#
# Stress axis : x y z
#
# Youngs Moduli (GPa) = 92.95307 76.44674 61.89878
#
# Poissons Ratio (x) = 0.03335 0.16187
# Poissons Ratio (y) = 0.04055 0.11420
# Poissons Ratio (z) = 0.24307 0.14104
#
# Static dielectric constant tensor:
#      x y z
#    x 1.872580 0.000000 0.000000 
#    y 0.000000 1.862890 0.000000 
#    z 0.000000 0.000000 1.761510 
# 
# From -- ./inp_files/16490.got.cif
#   From: 2010.05.17/outbox.cif.g08.bks.cpg/sg43_9_cif.got.tgz:16490.got - 2010.06.03 19:21:55.
