data_PCOD9370901
_publ_section_title
;
Structure prediction by ZEFSAII (Michael W. Deem and Ramdas Pophale) SiO2 
 PCOD9370901
Probable space group: F D D 2
;
_chemical_formula_sum "Si O2"
_cell_formula_units_Z 96
_cell_length_a 9.954105
_cell_length_b 16.251535
_cell_length_c 26.796205
_cell_angle_alpha 90.000000
_cell_angle_beta 90.000000
_cell_angle_gamma 90.000000
_cell_volume 4334.808304
_symmetry_space_group_name_H-M "F D D 2"
_symmetry_group_IT_number 43
_symmetry_cell_setting 'orthorhombic'
loop_
_space_group_symop_operation_xyz
x,y,z
-x,-y,z
1/4-x,1/4+y,1/4+z
1/4+x,1/4-y,1/4+z
x,1/2+y,1/2+z
-x,1/2-y,1/2+z
1/4-x,3/4+y,3/4+z
1/4+x,3/4-y,3/4+z
1/2+x,y,1/2+z
1/2-x,-y,1/2+z
3/4-x,1/4+y,3/4+z
3/4+x,1/4-y,3/4+z
1/2+x,1/2+y,z
1/2-x,1/2-y,z
3/4-x,3/4+y,1/4+z
3/4+x,3/4-y,1/4+z
loop_
_atom_site_type_symbol
_atom_site_label
_atom_site_fract_x
_atom_site_fract_y
_atom_site_fract_z
Si Si1 0.521157 0.177930 0.904900
Si Si2 0.266810 0.890409 0.970110
Si Si3 0.912407 0.078472 0.325167
Si Si4 0.532051 0.667401 0.967904
Si Si5 0.189720 0.418075 0.974112
Si Si6 0.130945 0.541349 0.307547
O O1 0.670153 0.149918 0.920453
O O2 0.481455 0.158104 0.848768
O O3 0.490915 0.269382 0.922625
O O4 0.420658 0.119241 0.936701
O O5 0.107229 0.880309 0.974638
O O6 0.312641 0.984184 0.974873
O O7 0.331760 0.839354 0.015693
O O8 0.759146 0.063006 0.340544
O O9 0.000000 0.000000 0.339851
O O10 0.838665 0.888486 0.959322
O O11 0.568618 0.724261 0.016135
O O12 0.159299 0.373115 0.026858
O O13 0.000000 0.500000 0.331924
#
# Coordination Sequence:
#
# PCOD9370901 Si02
#       6
#    16  16  16  16  16  16
#     4  11  23  40  64  92 124 170 223 263 314 397
#     4  12  21  40  67  94 126 173 211 268 336 385
#     4  12  22  39  66  97 130 170 219 273 330 394
#     4  10  20  42  64  88 126 172 206 262 336 378
#     4  10  21  39  62  94 125 165 217 261 321 387
#     4   9  19  38  64  88 124 169 213 260 322 388
#
# _framework density 22.146308999999999
#
# number of rings (size 3 to 8) (size 9 to 14) (size 15 to 20)
#    0.000    1.333    5.000    4.000    0.000    0.000 
#    6.000    6.667    0.000    0.000    0.000    0.000 
#    0.000    0.000    0.000    0.000    0.000    0.000 
#
# Total GULP energy -134231.753050 kJ/mol
# GULP energy per Si atom -5592.989710 kJ/mol
# Density = 2.209590 g / cm^3
# Si number density = 22.146309 Si / 1000 Ang^3
#
#
#
# Elastic Constant Matrix: (Units=GPa)
#
#
# Indices 1 2 3 4 5 6 
#
# 1 146.9442 21.4009 1.3841 0.0000 0.0000 0.0000
# 2 21.4009 51.0126 -3.2662 0.0000 0.0000 0.0000
# 3 1.3841 -3.2662 24.8622 0.0000 0.0000 0.0000
# 4 0.0000 0.0000 0.0000 3.4980 0.0000 0.0000
# 5 0.0000 0.0000 0.0000 0.0000 4.8890 0.0000
# 6 0.0000 0.0000 0.0000 0.0000 0.0000 31.6162
#
#
#
# Elastic Compliance Matrix: (Units=1/GPa)
#
#
# Indices 1 2 3 4 5 6 
#
# 1 0.007264 -0.003100 -0.000812 0.000000 0.000000 0.000000
# 2 -0.003100 0.021092 0.002943 0.000000 0.000000 0.000000
# 3 -0.000812 0.002943 0.040654 0.000000 0.000000 0.000000
# 4 0.000000 0.000000 0.000000 0.285878 0.000000 0.000000
# 5 0.000000 0.000000 0.000000 0.000000 0.204543 0.000000
# 6 0.000000 0.000000 0.000000 0.000000 0.000000 0.031629
#
#
# Mechanical properties :
#
#
# Convention : Reuss Voigt Hill
#
# Bulk Modulus (GPa) = 14.90885 29.09517 22.00201
# Shear Modulus (GPa) = 8.12542 21.55399 14.83970
#
# Velocity S-wave (km/s) = 1.91753 3.12309 2.59139
# Velocity P-wave (km/s) = 3.41309 5.11577 4.34858
#
# Compressibility (1/GPa) = 0.06707428
#
# Stress axis : x y z
#
# Youngs Moduli (GPa) = 137.65838 47.41183 24.59811
#
# Poissons Ratio (x) = 0.14695 0.01996
# Poissons Ratio (y) = 0.42667 -0.07240
# Poissons Ratio (z) = 0.11172 -0.13955
#
# Static dielectric constant tensor:
#      x y z
#    x 1.833810 0.000000 0.000000 
#    y 0.000000 1.764230 0.000000 
#    z 0.000000 0.000000 1.843130 
# 
# From -- ./inp_files/25068.got.cif
#   From: 2010.05.17/outbox.cif.g08.bks.cpg/sg43_13_cif.got.tgz:25068.got - 2010.06.03 19:21:55.
