data_PCOD9370471
_publ_section_title
;
Structure prediction by ZEFSAII (Michael W. Deem and Ramdas Pophale) SiO2 
 PCOD9370471
Probable space group: F D D 2
;
_chemical_formula_sum "Si O2"
_cell_formula_units_Z 120
_cell_length_a 24.408917
_cell_length_b 11.256037
_cell_length_c 21.643040
_cell_angle_alpha 90.000000
_cell_angle_beta 90.000000
_cell_angle_gamma 90.000000
_cell_volume 5946.374874
_symmetry_space_group_name_H-M "F D D 2"
_symmetry_group_IT_number 43
_symmetry_cell_setting 'orthorhombic'
loop_
_space_group_symop_operation_xyz
x,y,z
-x,-y,z
1/4-x,1/4+y,1/4+z
1/4+x,1/4-y,1/4+z
x,1/2+y,1/2+z
-x,1/2-y,1/2+z
1/4-x,3/4+y,3/4+z
1/4+x,3/4-y,3/4+z
1/2+x,y,1/2+z
1/2-x,-y,1/2+z
3/4-x,1/4+y,3/4+z
3/4+x,1/4-y,3/4+z
1/2+x,1/2+y,z
1/2-x,1/2-y,z
3/4-x,3/4+y,1/4+z
3/4+x,3/4-y,1/4+z
loop_
_atom_site_type_symbol
_atom_site_label
_atom_site_fract_x
_atom_site_fract_y
_atom_site_fract_z
Si Si1 0.596093 0.409062 0.329330
Si Si2 0.823276 0.139052 0.894421
Si Si3 0.152750 0.430789 0.585642
Si Si4 0.750000 0.750000 0.494318
Si Si5 0.047593 0.727087 0.524127
Si Si6 0.608998 0.826486 0.210882
Si Si7 0.063361 0.962154 0.595793
Si Si8 0.504827 0.364858 0.424122
O O1 0.617138 0.545164 0.325993
O O2 0.544406 0.423176 0.282412
O O3 0.645525 0.316369 0.324068
O O4 0.564411 0.367999 0.391679
O O5 0.857758 0.253003 0.876299
O O6 0.783858 0.163788 0.950754
O O7 0.787438 0.096842 0.836048
O O8 0.865414 0.036320 0.915406
O O9 0.161283 0.514595 0.525264
O O10 0.208763 0.412903 0.623556
O O11 0.088271 0.648308 0.483158
O O12 0.072800 0.849965 0.550343
O O13 0.000265 0.770991 0.479014
O O14 0.574750 0.915778 0.166381
O O15 0.000000 0.000000 0.592680
O O16 0.500000 0.500000 0.446996
#
# Coordination Sequence:
#
# PCOD9370471 Si02
#       8
#    16  16  16   8  16  16  16  16
#     4  11  21  41  71 100 133 178 233 291 348 422
#     4  10  23  40  65  93 135 177 223 284 342 414
#     4  10  21  41  68  97 131 176 229 285 346 416
#     4  12  22  44  68 104 132 182 242 292 340 428
#     4  10  22  42  64  90 140 172 218 283 353 412
#     4  10  20  46  62  91 136 175 215 283 339 422
#     4  11  25  43  67 103 135 183 230 291 362 424
#     4  10  19  39  66  98 129 172 227 284 340 413
#
# _framework density 20.180363
#
# number of rings (size 3 to 8) (size 9 to 14) (size 15 to 20)
#    0.000    1.600    4.667    0.400    0.000    5.333 
#   12.000    0.000    0.000    0.000    0.000    0.000 
#    0.000    0.000    0.000    0.000    0.000    0.000 
#
# Total GULP energy -167054.836251 kJ/mol
# GULP energy per Si atom -5568.494542 kJ/mol
# Density = 2.013443 g / cm^3
# Si number density = 20.180363 Si / 1000 Ang^3
#
#
#
# Elastic Constant Matrix: (Units=GPa)
#
#
# Indices 1 2 3 4 5 6 
#
# 1 57.6261 44.7015 5.7927 0.0000 0.0000 0.0000
# 2 44.7015 112.0908 24.8649 0.0000 0.0000 0.0000
# 3 5.7927 24.8649 57.0100 0.0000 0.0000 0.0000
# 4 0.0000 0.0000 0.0000 16.2742 0.0000 0.0000
# 5 0.0000 0.0000 0.0000 0.0000 21.0878 0.0000
# 6 0.0000 0.0000 0.0000 0.0000 0.0000 28.5012
#
#
#
# Elastic Compliance Matrix: (Units=1/GPa)
#
#
# Indices 1 2 3 4 5 6 
#
# 1 0.025336 -0.010554 0.002029 0.000000 0.000000 0.000000
# 2 -0.010554 0.014273 -0.005153 0.000000 0.000000 0.000000
# 3 0.002029 -0.005153 0.019582 0.000000 0.000000 0.000000
# 4 0.000000 0.000000 0.000000 0.061447 0.000000 0.000000
# 5 0.000000 0.000000 0.000000 0.000000 0.047421 0.000000
# 6 0.000000 0.000000 0.000000 0.000000 0.000000 0.035086
#
#
# Mechanical properties :
#
#
# Convention : Reuss Voigt Hill
#
# Bulk Modulus (GPa) = 31.41176 41.93835 36.67506
# Shear Modulus (GPa) = 20.73709 23.26382 22.00046
#
# Velocity S-wave (km/s) = 3.20908 3.39897 3.30539
# Velocity P-wave (km/s) = 5.41574 6.01921 5.72543
#
# Compressibility (1/GPa) = 0.03183521
#
# Stress axis : x y z
#
# Youngs Moduli (GPa) = 39.46915 70.06076 51.06711
#
# Poissons Ratio (x) = 0.73942 -0.10360
# Poissons Ratio (y) = 0.41656 0.26314
# Poissons Ratio (z) = -0.08007 0.36102
#
# Static dielectric constant tensor:
#      x y z
#    x 1.709950 0.000000 0.000000 
#    y 0.000000 1.742920 0.000000 
#    z 0.000000 0.000000 1.783210 
# 
# From -- ./inp_files/18663.got.cif
#   From: 2010.05.17/outbox.cif.g08.bks.cpg/sg43_10_cif.got.tgz:18663.got - 2010.06.03 19:21:55.
