data_PCOD9370780
_publ_section_title
;
Structure prediction by ZEFSAII (Michael W. Deem and Ramdas Pophale) SiO2 
 PCOD9370780
Probable space group: F D D 2
;
_chemical_formula_sum "Si O2"
_cell_formula_units_Z 88
_cell_length_a 20.642405
_cell_length_b 24.390889
_cell_length_c 8.299771
_cell_angle_alpha 90.000000
_cell_angle_beta 90.000000
_cell_angle_gamma 90.000000
_cell_volume 4178.823557
_symmetry_space_group_name_H-M "F D D 2"
_symmetry_group_IT_number 43
_symmetry_cell_setting 'orthorhombic'
loop_
_space_group_symop_operation_xyz
x,y,z
-x,-y,z
1/4-x,1/4+y,1/4+z
1/4+x,1/4-y,1/4+z
x,1/2+y,1/2+z
-x,1/2-y,1/2+z
1/4-x,3/4+y,3/4+z
1/4+x,3/4-y,3/4+z
1/2+x,y,1/2+z
1/2-x,-y,1/2+z
3/4-x,1/4+y,3/4+z
3/4+x,1/4-y,3/4+z
1/2+x,1/2+y,z
1/2-x,1/2-y,z
3/4-x,3/4+y,1/4+z
3/4+x,3/4-y,1/4+z
loop_
_atom_site_type_symbol
_atom_site_label
_atom_site_fract_x
_atom_site_fract_y
_atom_site_fract_z
Si Si1 0.593650 0.500487 0.098810
Si Si2 0.047569 0.103785 0.902182
Si Si3 0.897618 0.441283 0.081365
Si Si4 0.197386 0.069574 0.298514
Si Si5 0.250000 0.250000 0.609851
Si Si6 0.339541 0.039936 0.297357
O O1 0.649671 0.533933 0.189896
O O2 0.550727 0.472545 0.236510
O O3 0.555042 0.547001 0.997510
O O4 0.624401 0.462308 0.965934
O O5 0.068722 0.095255 0.718589
O O6 0.095846 0.150230 0.970231
O O7 0.978360 0.130410 0.946567
O O8 0.866089 0.492961 0.178082
O O9 0.842387 0.417582 0.961962
O O10 0.956506 0.461287 0.968943
O O11 0.262594 0.034199 0.332409
#
# Coordination Sequence:
#
# PCOD9370780 Si02
#       6
#    16  16  16  16   8  16
#     4  10  20  40  60  90 132 165 215 264 326 399
#     4   9  22  35  61  96 122 170 210 269 324 393
#     4  10  20  41  62  93 134 169 222 273 329 402
#     4   9  20  38  61  92 124 165 219 262 332 382
#     4  10  24  36  60  92 124 176 208 268 328 384
#     4   9  20  38  64  90 122 175 211 265 332 386
#
# _framework density 21.058558999999999
#
# number of rings (size 3 to 8) (size 9 to 14) (size 15 to 20)
#    1.091    1.455    0.000    1.091    0.000    7.273 
#    0.000   10.909    0.000    0.000    9.455    0.000 
#    0.000    0.000    0.000    0.000    0.000    0.000 
#
# Total GULP energy -122622.206543 kJ/mol
# GULP energy per Si atom -5573.736661 kJ/mol
# Density = 2.101063 g / cm^3
# Si number density = 21.058559 Si / 1000 Ang^3
#
#
#
# Elastic Constant Matrix: (Units=GPa)
#
#
# Indices 1 2 3 4 5 6 
#
# 1 145.1941 43.0775 90.1647 -0.0001 0.0001 0.0000
# 2 43.0775 42.0953 52.0050 -0.0001 0.0001 0.0000
# 3 90.1647 52.0050 190.0991 -0.0002 0.0006 -0.0001
# 4 -0.0001 -0.0001 -0.0002 29.9612 0.0003 0.0000
# 5 0.0001 0.0001 0.0006 0.0003 36.6685 0.0001
# 6 0.0000 0.0000 -0.0001 0.0000 0.0001 30.6780
#
#
#
# Elastic Compliance Matrix: (Units=1/GPa)
#
#
# Indices 1 2 3 4 5 6 
#
# 1 0.011078 -0.007319 -0.003252 0.000000 0.000000 0.000000
# 2 -0.007319 0.040718 -0.007668 0.000000 0.000000 0.000000
# 3 -0.003252 -0.007668 0.008901 0.000000 0.000000 0.000000
# 4 0.000000 0.000000 0.000000 0.033376 0.000000 0.000000
# 5 0.000000 0.000000 0.000000 0.000000 0.027271 0.000000
# 6 0.000000 0.000000 0.000000 0.000000 0.000000 0.032597
#
#
# Mechanical properties :
#
#
# Convention : Reuss Voigt Hill
#
# Bulk Modulus (GPa) = 41.28960 83.09808 62.19384
# Shear Modulus (GPa) = 25.18982 32.27100 28.73041
#
# Velocity S-wave (km/s) = 3.46234 3.91889 3.69766
# Velocity P-wave (km/s) = 5.96936 7.74745 6.91579
#
# Compressibility (1/GPa) = 0.02421917
#
# Stress axis : x y z
#
# Youngs Moduli (GPa) = 90.26522 24.55904 112.35146
#
# Poissons Ratio (x) = 0.17975 0.36540
# Poissons Ratio (y) = 0.66065 0.86148
# Poissons Ratio (z) = 0.29357 0.18831
#
# Static dielectric constant tensor:
#      x y z
#    x 1.807390 0.000000 0.000000 
#    y 0.000000 1.758170 0.000000 
#    z 0.000000 0.000000 1.738950 
# 
# From -- ./inp_files/2923.got.cif
#   From: 2010.05.17/outbox.cif.g08.bks.cpg/sg43_2_cif.got.tgz:2923.got - 2010.06.03 19:21:55.
