data_PCOD9370515
_publ_section_title
;
Structure prediction by ZEFSAII (Michael W. Deem and Ramdas Pophale) SiO2 
 PCOD9370515
Probable space group: F D D 2
;
_chemical_formula_sum "Si O2"
_cell_formula_units_Z 112
_cell_length_a 24.315042
_cell_length_b 14.583029
_cell_length_c 14.746440
_cell_angle_alpha 90.000000
_cell_angle_beta 90.000000
_cell_angle_gamma 90.000000
_cell_volume 5228.895369
_symmetry_space_group_name_H-M "F D D 2"
_symmetry_group_IT_number 43
_symmetry_cell_setting 'orthorhombic'
loop_
_space_group_symop_operation_xyz
x,y,z
-x,-y,z
1/4-x,1/4+y,1/4+z
1/4+x,1/4-y,1/4+z
x,1/2+y,1/2+z
-x,1/2-y,1/2+z
1/4-x,3/4+y,3/4+z
1/4+x,3/4-y,3/4+z
1/2+x,y,1/2+z
1/2-x,-y,1/2+z
3/4-x,1/4+y,3/4+z
3/4+x,1/4-y,3/4+z
1/2+x,1/2+y,z
1/2-x,1/2-y,z
3/4-x,3/4+y,1/4+z
3/4+x,3/4-y,1/4+z
loop_
_atom_site_type_symbol
_atom_site_label
_atom_site_fract_x
_atom_site_fract_y
_atom_site_fract_z
Si Si1 0.536683 0.712617 0.535600
Si Si2 0.874833 0.888645 0.258754
Si Si3 0.074281 0.726063 0.439063
Si Si4 0.059658 0.045016 0.413209
Si Si5 0.776114 0.349873 0.426326
Si Si6 0.378424 0.096516 0.021974
Si Si7 0.618520 0.324225 0.797829
O O1 0.573378 0.802455 0.544801
O O2 0.484065 0.735943 0.471960
O O3 0.566555 0.631425 0.480092
O O4 0.517443 0.669070 0.630772
O O5 0.928436 0.924825 0.311363
O O6 0.875500 0.905096 0.152504
O O7 0.871967 0.781594 0.278185
O O8 0.118701 0.801933 0.477449
O O9 0.079934 0.696487 0.333677
O O10 0.087581 0.633967 0.493091
O O11 0.104028 0.970155 0.442155
O O12 0.000000 0.000000 0.425807
O O13 0.750000 0.250000 0.443386
O O14 0.822003 0.342146 0.346420
O O15 0.808958 0.392939 0.510407
#
# Coordination Sequence:
#
# PCOD9370515 Si02
#       7
#    16  16  16  16  16  16  16
#     4  11  22  45  68 106 136 176 244 291 355 432
#     4  12  27  47  64  99 150 193 230 284 359 448
#     4  10  22  42  70  99 137 181 228 303 347 425
#     4  12  23  45  73  98 139 173 237 310 352 420
#     4  10  19  42  77  99 132 170 237 320 348 394
#     4  10  20  38  71 107 131 163 236 300 373 393
#     4  11  25  48  64  98 149 192 230 291 358 435
#
# _framework density 21.419438
#
# number of rings (size 3 to 8) (size 9 to 14) (size 15 to 20)
#    0.000    1.143    5.714    2.571    2.000    0.571 
#   15.429    0.000    0.000    0.000    0.000    0.000 
#    0.000    0.000    0.000    0.000    0.000    0.000 
#
# Total GULP energy -156479.697096 kJ/mol
# GULP energy per Si atom -5588.560611 kJ/mol
# Density = 2.137069 g / cm^3
# Si number density = 21.419438 Si / 1000 Ang^3
#
#
#
# Elastic Constant Matrix: (Units=GPa)
#
#
# Indices 1 2 3 4 5 6 
#
# 1 25.2071 18.2790 -6.5343 0.0000 0.0000 0.0000
# 2 18.2790 170.2112 44.0388 0.0000 0.0000 0.0000
# 3 -6.5343 44.0388 123.1788 0.0000 0.0000 0.0000
# 4 0.0000 0.0000 0.0000 22.6151 0.0000 0.0000
# 5 0.0000 0.0000 0.0000 0.0000 29.6094 0.0000
# 6 0.0000 0.0000 0.0000 0.0000 0.0000 38.8367
#
#
#
# Elastic Compliance Matrix: (Units=1/GPa)
#
#
# Indices 1 2 3 4 5 6 
#
# 1 0.045230 -0.006036 0.004557 0.000000 0.000000 0.000000
# 2 -0.006036 0.007280 -0.002923 0.000000 0.000000 0.000000
# 3 0.004557 -0.002923 0.009405 0.000000 0.000000 0.000000
# 4 0.000000 0.000000 0.000000 0.044218 0.000000 0.000000
# 5 0.000000 0.000000 0.000000 0.000000 0.033773 0.000000
# 6 0.000000 0.000000 0.000000 0.000000 0.000000 0.025749
#
#
# Mechanical properties :
#
#
# Convention : Reuss Voigt Hill
#
# Bulk Modulus (GPa) = 18.82846 47.79601 33.31224
# Shear Modulus (GPa) = 26.01971 35.73313 30.87642
#
# Velocity S-wave (km/s) = 3.48914 4.08886 3.80085
# Velocity P-wave (km/s) = 5.00415 6.68240 5.90322
#
# Compressibility (1/GPa) = 0.05311108
#
# Stress axis : x y z
#
# Youngs Moduli (GPa) = 22.10920 137.37166 106.32651
#
# Poissons Ratio (x) = 0.82923 -0.48458
# Poissons Ratio (y) = 0.13346 0.31077
# Poissons Ratio (z) = -0.10076 0.40151
#
# Static dielectric constant tensor:
#      x y z
#    x 1.850940 0.000000 0.000000 
#    y 0.000000 1.757410 0.000000 
#    z 0.000000 0.000000 1.774010 
# 
# From -- ./inp_files/11519.got.cif
#   From: 2010.05.17/outbox.cif.g08.bks.cpg/sg43_6_cif.got.tgz:11519.got - 2010.06.03 19:21:55.
