data_PCOD9370861
_publ_section_title
;
Structure prediction by ZEFSAII (Michael W. Deem and Ramdas Pophale) SiO2 
 PCOD9370861
Probable space group: F D D 2
;
_chemical_formula_sum "Si O2"
_cell_formula_units_Z 96
_cell_length_a 19.628583
_cell_length_b 9.059495
_cell_length_c 25.322546
_cell_angle_alpha 90.000000
_cell_angle_beta 90.000000
_cell_angle_gamma 90.000000
_cell_volume 4502.982997
_symmetry_space_group_name_H-M "F D D 2"
_symmetry_group_IT_number 43
_symmetry_cell_setting 'orthorhombic'
loop_
_space_group_symop_operation_xyz
x,y,z
-x,-y,z
1/4-x,1/4+y,1/4+z
1/4+x,1/4-y,1/4+z
x,1/2+y,1/2+z
-x,1/2-y,1/2+z
1/4-x,3/4+y,3/4+z
1/4+x,3/4-y,3/4+z
1/2+x,y,1/2+z
1/2-x,-y,1/2+z
3/4-x,1/4+y,3/4+z
3/4+x,1/4-y,3/4+z
1/2+x,1/2+y,z
1/2-x,1/2-y,z
3/4-x,3/4+y,1/4+z
3/4+x,3/4-y,1/4+z
loop_
_atom_site_type_symbol
_atom_site_label
_atom_site_fract_x
_atom_site_fract_y
_atom_site_fract_z
Si Si1 0.895781 0.613706 0.363070
Si Si2 0.889072 0.264462 0.272417
Si Si3 0.750000 0.750000 0.196765
Si Si4 0.716948 0.003650 0.279708
Si Si5 0.500000 0.500000 0.786586
Si Si6 0.931153 0.598874 0.677064
Si Si7 0.438178 0.887556 0.109018
O O1 0.932924 0.523082 0.410161
O O2 0.832078 0.552651 0.328224
O O3 0.871924 0.761906 0.390736
O O4 0.955868 0.615637 0.320663
O O5 0.819754 0.350408 0.257695
O O6 0.907703 0.125319 0.236902
O O7 0.877181 0.223336 0.334683
O O8 0.945204 0.391701 0.261399
O O9 0.731655 0.885172 0.235174
O O10 0.786181 0.048673 0.307689
O O11 0.933839 0.763712 0.653217
O O12 0.000000 0.500000 0.675129
O O13 0.500000 0.000000 0.122240
#
# Coordination Sequence:
#
# PCOD9370861 Si02
#       7
#    16  16   8  16   8  16  16
#     4  10  22  40  62  96 129 171 233 265 333 422
#     4  10  24  39  62  95 129 170 224 271 342 399
#     4  11  22  38  72  94 134 190 214 278 359 398
#     4  10  20  41  64  92 133 176 222 277 334 410
#     4   9  22  44  62  90 138 178 210 284 341 406
#     4  12  24  39  65  99 127 164 225 277 330 402
#     4  10  22  42  64  90 131 173 216 272 332 398
#
# _framework density 21.319202000000001
#
# number of rings (size 3 to 8) (size 9 to 14) (size 15 to 20)
#    0.000    1.667    1.667    2.000    1.167    9.333 
#    0.000    1.667    0.000    0.000    0.000    0.000 
#    0.000    0.000    0.000    0.000    0.000    0.000 
#
# Total GULP energy -133668.000997 kJ/mol
# GULP energy per Si atom -5569.500042 kJ/mol
# Density = 2.127068 g / cm^3
# Si number density = 21.319202 Si / 1000 Ang^3
#
#
#
# Elastic Constant Matrix: (Units=GPa)
#
#
# Indices 1 2 3 4 5 6 
#
# 1 70.3288 26.5102 38.2263 0.0000 0.0000 0.0000
# 2 26.5102 82.8236 48.1969 0.0000 0.0000 0.0000
# 3 38.2263 48.1969 74.3785 0.0000 0.0000 0.0000
# 4 0.0000 0.0000 0.0000 38.3645 0.0000 0.0000
# 5 0.0000 0.0000 0.0000 0.0000 15.9644 0.0000
# 6 0.0000 0.0000 0.0000 0.0000 0.0000 26.7327
#
#
#
# Elastic Compliance Matrix: (Units=1/GPa)
#
#
# Indices 1 2 3 4 5 6 
#
# 1 0.019753 -0.000666 -0.009721 0.000000 0.000000 0.000000
# 2 -0.000666 0.019405 -0.012232 0.000000 0.000000 0.000000
# 3 -0.009721 -0.012232 0.026367 0.000000 0.000000 0.000000
# 4 0.000000 0.000000 0.000000 0.026066 0.000000 0.000000
# 5 0.000000 0.000000 0.000000 0.000000 0.062639 0.000000
# 6 0.000000 0.000000 0.000000 0.000000 0.000000 0.037407
#
#
# Mechanical properties :
#
#
# Convention : Reuss Voigt Hill
#
# Bulk Modulus (GPa) = 49.29011 50.37754 49.83383
# Shear Modulus (GPa) = 20.52221 23.85215 22.18718
#
# Velocity S-wave (km/s) = 3.10597 3.34849 3.22951
# Velocity P-wave (km/s) = 6.00275 6.21541 6.11000
#
# Compressibility (1/GPa) = 0.02028804
#
# Stress axis : x y z
#
# Youngs Moduli (GPa) = 50.62396 51.53249 37.92624
#
# Poissons Ratio (x) = 0.03433 0.36866
# Poissons Ratio (y) = 0.03372 0.46392
# Poissons Ratio (z) = 0.49209 0.63035
#
# Static dielectric constant tensor:
#      x y z
#    x 1.857840 0.000000 0.000000 
#    y 0.000000 1.813430 0.000000 
#    z 0.000000 0.000000 1.811770 
# 
# From -- ./inp_files/22606.got.cif
#   From: 2010.05.17/outbox.cif.g08.bks.cpg/sg43_12_cif.got.tgz:22606.got - 2010.06.03 19:21:55.
