data_PCOD9370786
_publ_section_title
;
Structure prediction by ZEFSAII (Michael W. Deem and Ramdas Pophale) SiO2 
 PCOD9370786
Probable space group: F D D 2
;
_chemical_formula_sum "Si O2"
_cell_formula_units_Z 56
_cell_length_a 12.955235
_cell_length_b 7.238740
_cell_length_c 26.602613
_cell_angle_alpha 90.000000
_cell_angle_beta 90.000000
_cell_angle_gamma 90.000000
_cell_volume 2494.781816
_symmetry_space_group_name_H-M "F D D 2"
_symmetry_group_IT_number 43
_symmetry_cell_setting 'orthorhombic'
loop_
_space_group_symop_operation_xyz
x,y,z
-x,-y,z
1/4-x,1/4+y,1/4+z
1/4+x,1/4-y,1/4+z
x,1/2+y,1/2+z
-x,1/2-y,1/2+z
1/4-x,3/4+y,3/4+z
1/4+x,3/4-y,3/4+z
1/2+x,y,1/2+z
1/2-x,-y,1/2+z
3/4-x,1/4+y,3/4+z
3/4+x,1/4-y,3/4+z
1/2+x,1/2+y,z
1/2-x,1/2-y,z
3/4-x,3/4+y,1/4+z
3/4+x,3/4-y,1/4+z
loop_
_atom_site_type_symbol
_atom_site_label
_atom_site_fract_x
_atom_site_fract_y
_atom_site_fract_z
Si Si1 0.250000 0.750000 0.703440
Si Si2 0.629361 0.796859 0.013967
Si Si3 0.635473 0.201482 0.164640
Si Si4 0.166124 0.529110 0.381318
O O1 0.306313 0.608322 0.740099
O O2 0.165170 0.663520 0.664986
O O3 0.750000 0.750000 0.009966
O O4 0.603618 0.802803 0.072468
O O5 0.615692 0.968455 0.975530
O O6 0.750000 0.250000 0.145914
O O7 0.532399 0.287847 0.141204
O O8 0.609951 0.985543 0.152257
#
# Coordination Sequence:
#
# PCOD9370786 Si02
#       4
#     8  16  16  16
#     4  10  20  40  62  92 124 168 214 256 318 382
#     4  11  21  39  67  87 130 172 208 263 328 377
#     4  10  22  41  62  90 129 168 215 266 317 384
#     4  10  21  41  62  92 129 165 212 269 322 376
#
# _framework density 22.446850999999999
#
# number of rings (size 3 to 8) (size 9 to 14) (size 15 to 20)
#    0.000    1.714    7.143    0.000    4.000    2.286 
#    0.000    0.000    0.000    0.000    0.000    0.000 
#    0.000    0.000    0.000    0.000    0.000    0.000 
#
# Total GULP energy -78012.526812 kJ/mol
# GULP energy per Si atom -5572.323344 kJ/mol
# Density = 2.239576 g / cm^3
# Si number density = 22.446851 Si / 1000 Ang^3
#
#
#
# Elastic Constant Matrix: (Units=GPa)
#
#
# Indices 1 2 3 4 5 6 
#
# 1 227.0141 24.8844 47.4815 0.0000 0.0000 0.0000
# 2 24.8844 31.6132 6.3719 0.0000 0.0000 0.0000
# 3 47.4815 6.3719 181.3727 0.0000 0.0000 0.0000
# 4 0.0000 0.0000 0.0000 11.6723 0.0000 0.0000
# 5 0.0000 0.0000 0.0000 0.0000 19.4997 0.0000
# 6 0.0000 0.0000 0.0000 0.0000 0.0000 40.0574
#
#
#
# Elastic Compliance Matrix: (Units=1/GPa)
#
#
# Indices 1 2 3 4 5 6 
#
# 1 0.005066 -0.003747 -0.001194 0.000000 0.000000 0.000000
# 2 -0.003747 0.034629 -0.000236 0.000000 0.000000 0.000000
# 3 -0.001194 -0.000236 0.005834 0.000000 0.000000 0.000000
# 4 0.000000 0.000000 0.000000 0.085673 0.000000 0.000000
# 5 0.000000 0.000000 0.000000 0.000000 0.051283 0.000000
# 6 0.000000 0.000000 0.000000 0.000000 0.000000 0.024964
#
#
# Mechanical properties :
#
#
# Convention : Reuss Voigt Hill
#
# Bulk Modulus (GPa) = 28.42892 66.38616 47.40754
# Shear Modulus (GPa) = 21.78382 38.33001 30.05691
#
# Velocity S-wave (km/s) = 3.11860 4.13678 3.66324
# Velocity P-wave (km/s) = 5.06558 7.24267 6.24966
#
# Compressibility (1/GPa) = 0.03517545
#
# Stress axis : x y z
#
# Youngs Moduli (GPa) = 197.41255 28.87748 171.39448
#
# Poissons Ratio (x) = 0.10819 0.20473
# Poissons Ratio (y) = 0.73962 0.04041
# Poissons Ratio (z) = 0.23581 0.00681
#
# Static dielectric constant tensor:
#      x y z
#    x 1.980940 0.000000 0.000000 
#    y 0.000000 2.051430 0.000000 
#    z 0.000000 0.000000 1.838890 
# 
# From -- ./inp_files/20767.got.cif
#   From: 2010.05.17/outbox.cif.g08.bks.cpg/sg43_11_cif.got.tgz:20767.got - 2010.06.03 19:21:55.
