data_PCOD9370495
_publ_section_title
;
Structure prediction by ZEFSAII (Michael W. Deem and Ramdas Pophale) SiO2 
 PCOD9370495
Probable space group: F D D 2
;
_chemical_formula_sum "Si O2"
_cell_formula_units_Z 120
_cell_length_a 9.084841
_cell_length_b 28.681679
_cell_length_c 22.250688
_cell_angle_alpha 90.000000
_cell_angle_beta 90.000000
_cell_angle_gamma 90.000000
_cell_volume 5797.828248
_symmetry_space_group_name_H-M "F D D 2"
_symmetry_group_IT_number 43
_symmetry_cell_setting 'orthorhombic'
loop_
_space_group_symop_operation_xyz
x,y,z
-x,-y,z
1/4-x,1/4+y,1/4+z
1/4+x,1/4-y,1/4+z
x,1/2+y,1/2+z
-x,1/2-y,1/2+z
1/4-x,3/4+y,3/4+z
1/4+x,3/4-y,3/4+z
1/2+x,y,1/2+z
1/2-x,-y,1/2+z
3/4-x,1/4+y,3/4+z
3/4+x,1/4-y,3/4+z
1/2+x,1/2+y,z
1/2-x,1/2-y,z
3/4-x,3/4+y,1/4+z
3/4+x,3/4-y,1/4+z
loop_
_atom_site_type_symbol
_atom_site_label
_atom_site_fract_x
_atom_site_fract_y
_atom_site_fract_z
Si Si1 0.093511 0.915668 0.011410
Si Si2 0.398174 0.877868 0.960647
Si Si3 0.336519 0.072416 0.288449
Si Si4 0.303331 0.701224 0.103700
Si Si5 0.033686 0.552835 0.391261
Si Si6 0.500000 0.000000 0.198929
Si Si7 0.541428 0.642532 0.582541
Si Si8 0.484170 0.192918 0.877744
O O1 0.160529 0.944158 0.068543
O O2 0.983988 0.872150 0.021807
O O3 0.240004 0.892744 0.984178
O O4 0.013701 0.945029 0.960066
O O5 0.427316 0.916057 0.909095
O O6 0.410846 0.828407 0.928517
O O7 0.511030 0.875819 0.017266
O O8 0.196828 0.042988 0.312814
O O9 0.428695 0.082647 0.348381
O O10 0.434942 0.042440 0.241087
O O11 0.250000 0.750000 0.128135
O O12 0.174214 0.677414 0.065884
O O13 0.000000 0.500000 0.370926
O O14 0.188783 0.576366 0.375114
O O15 0.636233 0.016039 0.156227
O O16 0.611699 0.597476 0.614316
#
# Coordination Sequence:
#
# PCOD9370495 Si02
#       8
#    16  16  16  16  16   8  16  16
#     4  11  22  44  68  88 136 183 219 280 355 427
#     4  10  19  41  64  87 132 174 223 275 336 417
#     4  12  23  42  66 101 134 179 228 290 347 409
#     4  11  22  38  65 102 125 177 234 276 340 410
#     4  12  24  41  65 102 133 168 229 288 337 408
#     4  12  26  40  70 104 144 176 244 300 340 414
#     4  10  22  41  65  91 133 176 218 276 352 407
#     4  10  22  44  61  99 132 180 228 279 346 413
#
# _framework density 20.697405
#
# number of rings (size 3 to 8) (size 9 to 14) (size 15 to 20)
#    0.000    1.067    6.000    2.400    1.867    1.067 
#    4.800    4.000    0.000    0.000    0.000    0.000 
#    0.000    0.000    0.000    0.000    0.000    0.000 
#
# Total GULP energy -167013.558851 kJ/mol
# GULP energy per Si atom -5567.118628 kJ/mol
# Density = 2.065030 g / cm^3
# Si number density = 20.697405 Si / 1000 Ang^3
#
#
#
# Elastic Constant Matrix: (Units=GPa)
#
#
# Indices 1 2 3 4 5 6 
#
# 1 55.6780 8.4636 29.5894 0.0000 0.0000 0.0000
# 2 8.4636 49.2402 21.4765 0.0000 0.0000 0.0000
# 3 29.5894 21.4765 119.1167 0.0000 0.0000 0.0000
# 4 0.0000 0.0000 0.0000 14.0689 0.0000 0.0000
# 5 0.0000 0.0000 0.0000 0.0000 34.7039 0.0000
# 6 0.0000 0.0000 0.0000 0.0000 0.0000 19.9998
#
#
#
# Elastic Compliance Matrix: (Units=1/GPa)
#
#
# Indices 1 2 3 4 5 6 
#
# 1 0.020785 -0.001433 -0.004905 0.000000 0.000000 0.000000
# 2 -0.001433 0.022141 -0.003636 0.000000 0.000000 0.000000
# 3 -0.004905 -0.003636 0.010269 0.000000 0.000000 0.000000
# 4 0.000000 0.000000 0.000000 0.071079 0.000000 0.000000
# 5 0.000000 0.000000 0.000000 0.000000 0.028815 0.000000
# 6 0.000000 0.000000 0.000000 0.000000 0.000000 0.050001
#
#
# Mechanical properties :
#
#
# Convention : Reuss Voigt Hill
#
# Bulk Modulus (GPa) = 30.07808 38.12155 34.09982
# Shear Modulus (GPa) = 21.35664 24.72155 23.03909
#
# Velocity S-wave (km/s) = 3.21573 3.45980 3.33999
# Velocity P-wave (km/s) = 5.32463 5.86675 5.60225
#
# Compressibility (1/GPa) = 0.03324680
#
# Stress axis : x y z
#
# Youngs Moduli (GPa) = 48.11204 45.16551 97.38027
#
# Poissons Ratio (x) = 0.06474 0.47762
# Poissons Ratio (y) = 0.06896 0.35406
# Poissons Ratio (z) = 0.23597 0.16422
#
# Static dielectric constant tensor:
#      x y z
#    x 1.874960 0.000000 0.000000 
#    y 0.000000 1.771270 0.000000 
#    z 0.000000 0.000000 1.827400 
# 
# From -- ./inp_files/20547.got.cif
#   From: 2010.05.17/outbox.cif.g08.bks.cpg/sg43_11_cif.got.tgz:20547.got - 2010.06.03 19:21:55.
