data_PCOD9370105
_publ_section_title
;
Structure prediction by ZEFSAII (Michael W. Deem and Ramdas Pophale) SiO2 
 PCOD9370105
Probable space group: F D D 2
;
_chemical_formula_sum "Si O2"
_cell_formula_units_Z 96
_cell_length_a 31.257187
_cell_length_b 13.262015
_cell_length_c 13.910504
_cell_angle_alpha 90.000000
_cell_angle_beta 90.000000
_cell_angle_gamma 90.000000
_cell_volume 5766.366889
_symmetry_space_group_name_H-M "F D D 2"
_symmetry_group_IT_number 43
_symmetry_cell_setting 'orthorhombic'
loop_
_space_group_symop_operation_xyz
x,y,z
-x,-y,z
1/4-x,1/4+y,1/4+z
1/4+x,1/4-y,1/4+z
x,1/2+y,1/2+z
-x,1/2-y,1/2+z
1/4-x,3/4+y,3/4+z
1/4+x,3/4-y,3/4+z
1/2+x,y,1/2+z
1/2-x,-y,1/2+z
3/4-x,1/4+y,3/4+z
3/4+x,1/4-y,3/4+z
1/2+x,1/2+y,z
1/2-x,1/2-y,z
3/4-x,3/4+y,1/4+z
3/4+x,3/4-y,1/4+z
loop_
_atom_site_type_symbol
_atom_site_label
_atom_site_fract_x
_atom_site_fract_y
_atom_site_fract_z
Si Si1 0.049799 0.521541 0.530210
Si Si2 0.718552 0.655021 0.610979
Si Si3 0.537808 0.718876 0.244230
Si Si4 0.561521 0.824954 0.433379
Si Si5 0.027216 0.244848 0.023224
Si Si6 0.094235 0.520759 0.728486
O O1 0.062276 0.444937 0.447068
O O2 0.052760 0.639583 0.505644
O O3 0.076948 0.491521 0.623130
O O4 0.000000 0.500000 0.555097
O O5 0.750000 0.750000 0.633452
O O6 0.745166 0.585836 0.535345
O O7 0.709521 0.586894 0.704512
O O8 0.676825 0.699354 0.558506
O O9 0.552889 0.798118 0.323173
O O10 0.531009 0.760937 0.137430
O O11 0.573615 0.631387 0.242583
O O12 0.521536 0.780850 0.493185
O O13 0.605068 0.777380 0.472841
#
# Coordination Sequence:
#
# PCOD9370105 Si02
#       6
#    16  16  16  16  16  16
#     4   9  17  31  51  72  97 130 168 206 243 289
#     4   9  17  31  51  74 100 134 170 202 246 296
#     4   9  18  31  50  72  99 135 167 200 246 296
#     4  10  18  29  52  78  94 120 170 214 242 284
#     4   9  18  33  50  70 100 134 162 198 251 303
#     4  10  17  29  52  76  95 123 168 214 241 280
#
# _framework density 16.648264000000001
#
# number of rings (size 3 to 8) (size 9 to 14) (size 15 to 20)
#    0.000    2.667    0.000    4.500    0.000    0.000 
#    0.000    4.167    0.000   58.000    0.000    0.000 
#    0.000    0.000    0.000    0.000    0.000    0.000 
#
# Total GULP energy -133710.164709 kJ/mol
# GULP energy per Si atom -5571.256863 kJ/mol
# Density = 1.661037 g / cm^3
# Si number density = 16.648264 Si / 1000 Ang^3
#
#
#
# Elastic Constant Matrix: (Units=GPa)
#
#
# Indices 1 2 3 4 5 6 
#
# 1 68.6561 29.0442 44.9597 0.0000 0.0000 0.0000
# 2 29.0442 83.9655 84.8368 0.0000 0.0000 0.0000
# 3 44.9597 84.8368 154.0142 0.0000 0.0000 0.0000
# 4 0.0000 0.0000 0.0000 39.2464 0.0000 0.0000
# 5 0.0000 0.0000 0.0000 0.0000 14.9712 0.0000
# 6 0.0000 0.0000 0.0000 0.0000 0.0000 3.8492
#
#
#
# Elastic Compliance Matrix: (Units=1/GPa)
#
#
# Indices 1 2 3 4 5 6 
#
# 1 0.018169 -0.002088 -0.004154 0.000000 0.000000 0.000000
# 2 -0.002088 0.027097 -0.014316 0.000000 0.000000 0.000000
# 3 -0.004154 -0.014316 0.015592 0.000000 0.000000 0.000000
# 4 0.000000 0.000000 0.000000 0.025480 0.000000 0.000000
# 5 0.000000 0.000000 0.000000 0.000000 0.066795 0.000000
# 6 0.000000 0.000000 0.000000 0.000000 0.000000 0.259797
#
#
# Mechanical properties :
#
#
# Convention : Reuss Voigt Hill
#
# Bulk Modulus (GPa) = 50.65613 69.36859 60.01236
# Shear Modulus (GPa) = 10.85480 21.46635 16.16057
#
# Velocity S-wave (km/s) = 2.55621 3.59472 3.11900
# Velocity P-wave (km/s) = 6.26144 7.68030 7.00688
#
# Compressibility (1/GPa) = 0.01974095
#
# Stress axis : x y z
#
# Youngs Moduli (GPa) = 55.03987 36.90461 64.13749
#
# Poissons Ratio (x) = 0.07705 0.26641
# Poissons Ratio (y) = 0.11492 0.91822
# Poissons Ratio (z) = 0.22862 0.52834
#
# Static dielectric constant tensor:
#      x y z
#    x 1.564900 0.000000 0.000000 
#    y 0.000000 1.585100 0.000000 
#    z 0.000000 0.000000 1.558090 
# 
# From -- ./inp_files/10314.got.cif
#   From: 2010.05.17/outbox.cif.g08.bks.cpg/sg43_6_cif.got.tgz:10314.got - 2010.06.03 19:21:55.
