data_PCOD9370849
_publ_section_title
;
Structure prediction by ZEFSAII (Michael W. Deem and Ramdas Pophale) SiO2 
 PCOD9370849
Probable space group: F D D 2
;
_chemical_formula_sum "Si O2"
_cell_formula_units_Z 112
_cell_length_a 11.799170
_cell_length_b 15.296871
_cell_length_c 28.106579
_cell_angle_alpha 90.000000
_cell_angle_beta 90.000000
_cell_angle_gamma 90.000000
_cell_volume 5072.967163
_symmetry_space_group_name_H-M "F D D 2"
_symmetry_group_IT_number 43
_symmetry_cell_setting 'orthorhombic'
loop_
_space_group_symop_operation_xyz
x,y,z
-x,-y,z
1/4-x,1/4+y,1/4+z
1/4+x,1/4-y,1/4+z
x,1/2+y,1/2+z
-x,1/2-y,1/2+z
1/4-x,3/4+y,3/4+z
1/4+x,3/4-y,3/4+z
1/2+x,y,1/2+z
1/2-x,-y,1/2+z
3/4-x,1/4+y,3/4+z
3/4+x,1/4-y,3/4+z
1/2+x,1/2+y,z
1/2-x,1/2-y,z
3/4-x,3/4+y,1/4+z
3/4+x,3/4-y,1/4+z
loop_
_atom_site_type_symbol
_atom_site_label
_atom_site_fract_x
_atom_site_fract_y
_atom_site_fract_z
Si Si1 0.311942 0.992429 0.287570
Si Si2 0.017252 0.316014 0.439262
Si Si3 0.141528 0.689005 0.868614
Si Si4 0.378785 0.550458 0.009999
Si Si5 0.114560 0.751190 0.119002
Si Si6 0.000356 0.127481 0.772894
Si Si7 0.978388 0.095274 0.665643
O O1 0.274569 0.006970 0.233420
O O2 0.201820 0.994841 0.319410
O O3 0.395419 0.075896 0.297750
O O4 0.384560 0.904776 0.297299
O O5 0.057293 0.250430 0.398147
O O6 0.106441 0.381194 0.466279
O O7 0.906590 0.365875 0.418314
O O8 0.250000 0.750000 0.865868
O O9 0.112353 0.664466 0.813903
O O10 0.163358 0.595375 0.892329
O O11 0.500000 0.500000 0.008703
O O12 0.282167 0.476346 0.011107
O O13 0.250000 0.750000 0.115686
O O14 0.059315 0.670074 0.146206
O O15 0.010849 0.087613 0.720734
O O16 0.000000 0.000000 0.642875
#
# Coordination Sequence:
#
# PCOD9370849 Si02
#       7
#    16  16  16  16  16  16  16
#     4  10  20  43  70  99 135 198 238 302 369 441
#     4  11  22  42  72 101 143 192 252 295 374 450
#     4  11  26  44  68 103 147 193 240 310 369 445
#     4  11  20  40  67 105 147 178 238 318 367 421
#     4  12  27  46  70 105 154 191 237 314 384 441
#     4  10  20  40  72 102 138 178 243 303 357 439
#     4  11  22  43  74 101 137 193 248 304 361 451
#
# _framework density 22.077809999999999
#
# number of rings (size 3 to 8) (size 9 to 14) (size 15 to 20)
#    0.000    1.143    7.143    1.714    4.000    0.571 
#    0.000    0.000    0.000    0.000    0.000    0.000 
#    0.000    0.000    0.000    0.000    0.000    0.000 
#
# Total GULP energy -156028.460766 kJ/mol
# GULP energy per Si atom -5572.445027 kJ/mol
# Density = 2.202756 g / cm^3
# Si number density = 22.077810 Si / 1000 Ang^3
#
#
#
# Elastic Constant Matrix: (Units=GPa)
#
#
# Indices 1 2 3 4 5 6 
#
# 1 123.2918 75.6693 53.1910 0.0000 0.0000 0.0000
# 2 75.6693 166.2326 34.6247 0.0000 0.0000 0.0000
# 3 53.1910 34.6247 63.2182 0.0000 0.0000 0.0000
# 4 0.0000 0.0000 0.0000 15.4923 0.0000 0.0000
# 5 0.0000 0.0000 0.0000 0.0000 -0.0163 0.0000
# 6 0.0000 0.0000 0.0000 0.0000 0.0000 43.8618
#
#
#
# Elastic Compliance Matrix: (Units=1/GPa)
#
#
# Indices 1 2 3 4 5 6 
#
# 1 0.015666 -0.004950 -0.010470 0.000000 0.000000 0.000000
# 2 -0.004950 0.008355 -0.000411 0.000000 0.000000 0.000000
# 3 -0.010470 -0.000411 0.024852 0.000000 0.000000 0.000000
# 4 0.000000 0.000000 0.000000 0.064548 0.000000 0.000000
# 5 0.000000 0.000000 0.000000 0.000000-61.422670 0.000000
# 6 0.000000 0.000000 0.000000 0.000000 0.000000 0.022799
#
#
# Mechanical properties :
#
#
# Convention : Reuss Voigt Hill
#
# Bulk Modulus (GPa) = 58.10168 75.52364 66.81266
# Shear Modulus (GPa) = -0.08163 24.48473 12.20155
#
# Velocity S-wave (km/s) = -0.19250 3.33381 2.35342
# Velocity P-wave (km/s) = 5.13074 7.00723 6.14108
#
# Compressibility (1/GPa) = 0.01721120
#
# Stress axis : x y z
#
# Youngs Moduli (GPa) = 63.83207 119.69394 40.23760
#
# Poissons Ratio (x) = 0.59254 0.42128
# Poissons Ratio (y) = 0.31600 0.01652
# Poissons Ratio (z) = 0.66832 0.04915
#
# Static dielectric constant tensor:
#      x y z
#    x 1.868240 0.000000 0.000000 
#    y 0.000000 1.936320 0.000000 
#    z 0.000000 0.000000 1.849650 
# 
# From -- ./inp_files/28638.got.cif
#   From: 2010.05.17/outbox.cif.g08.bks.cpg/sg43_15_cif.got.tgz:28638.got - 2010.06.03 19:21:55.
