data_PCOD9370063
_publ_section_title
;
Structure prediction by ZEFSAII (Michael W. Deem and Ramdas Pophale) SiO2 
 PCOD9370063
Probable space group: F D D 2
;
_chemical_formula_sum "Si O2"
_cell_formula_units_Z 104
_cell_length_a 19.237150
_cell_length_b 27.921507
_cell_length_c 7.195699
_cell_angle_alpha 90.000000
_cell_angle_beta 90.000000
_cell_angle_gamma 90.000000
_cell_volume 3865.027375
_symmetry_space_group_name_H-M "F D D 2"
_symmetry_group_IT_number 43
_symmetry_cell_setting 'orthorhombic'
loop_
_space_group_symop_operation_xyz
x,y,z
-x,-y,z
1/4-x,1/4+y,1/4+z
1/4+x,1/4-y,1/4+z
x,1/2+y,1/2+z
-x,1/2-y,1/2+z
1/4-x,3/4+y,3/4+z
1/4+x,3/4-y,3/4+z
1/2+x,y,1/2+z
1/2-x,-y,1/2+z
3/4-x,1/4+y,3/4+z
3/4+x,1/4-y,3/4+z
1/2+x,1/2+y,z
1/2-x,1/2-y,z
3/4-x,3/4+y,1/4+z
3/4+x,3/4-y,1/4+z
loop_
_atom_site_type_symbol
_atom_site_label
_atom_site_fract_x
_atom_site_fract_y
_atom_site_fract_z
Si Si1 0.342328 0.211509 0.409550
Si Si2 0.264550 0.967457 0.822824
Si Si3 0.250000 0.750000 0.244356
Si Si4 0.063131 0.905728 0.533837
Si Si5 0.546915 0.175371 0.112769
Si Si6 0.624634 0.948227 0.471021
Si Si7 0.519499 0.889035 0.624268
O O1 0.425637 0.212087 0.418578
O O2 0.311488 0.228491 0.610307
O O3 0.329228 0.255739 0.273567
O O4 0.306237 0.162311 0.349283
O O5 0.279590 0.916403 0.917479
O O6 0.279987 0.019206 0.910498
O O7 0.181031 0.962712 0.817630
O O8 0.216103 0.706405 0.359983
O O9 0.146278 0.903424 0.505044
O O10 0.042513 0.912907 0.316083
O O11 0.018863 0.860011 0.599496
O O12 0.580694 0.181743 0.905698
O O13 0.569995 0.905103 0.457703
#
# Coordination Sequence:
#
# PCOD9370063 Si02
#       7
#    16  16   8  16  16  16  16
#     4  10  18  33  51  84 113 141 185 234 285 335
#     4  11  20  30  52  84 113 147 183 234 283 332
#     4  10  16  30  54  76 108 134 182 234 288 314
#     4  10  19  31  53  83 113 140 186 237 288 326
#     4  10  21  33  51  83 110 149 184 235 281 338
#     4  10  18  31  51  81 116 143 178 236 287 331
#     4  10  18  30  55  81 110 144 183 238 287 323
#
# _framework density 26.907959999999999
#
# number of rings (size 3 to 8) (size 9 to 14) (size 15 to 20)
#    0.000    1.846    7.692    0.923    6.462    0.000 
#    0.000    0.000    6.769    0.000    0.000    0.000 
#    0.000    0.000    0.000    0.000    0.000    0.000 
#
# Total GULP energy -144933.618493 kJ/mol
# GULP energy per Si atom -5574.369942 kJ/mol
# Density = 2.684672 g / cm^3
# Si number density = 26.907960 Si / 1000 Ang^3
#
#
#
# Elastic Constant Matrix: (Units=GPa)
#
#
# Indices 1 2 3 4 5 6 
#
# 1 191.3798 80.0053 57.4455 0.0007 -0.0033 -0.0001
# 2 80.0053 175.9302 45.6483 0.0001 -0.0005 0.0000
# 3 57.4455 45.6483 57.9266 0.0009 -0.0062 0.0000
# 4 0.0007 0.0001 0.0009 25.6227 -0.0007 0.0003
# 5 -0.0033 -0.0005 -0.0062 -0.0007 15.3577 0.0001
# 6 -0.0001 0.0000 0.0000 0.0003 0.0001 56.6236
#
#
#
# Elastic Compliance Matrix: (Units=1/GPa)
#
#
# Indices 1 2 3 4 5 6 
#
# 1 0.007950 -0.001973 -0.006329 0.000000 -0.000001 0.000000
# 2 -0.001973 0.007635 -0.004060 0.000000 -0.000002 0.000000
# 3 -0.006329 -0.004060 0.026739 -0.000001 0.000009 0.000000
# 4 0.000000 0.000000 -0.000001 0.039028 0.000002 0.000000
# 5 -0.000001 -0.000002 0.000009 0.000002 0.065114 0.000000
# 6 0.000000 0.000000 0.000000 0.000000 0.000000 0.017660
#
#
# Mechanical properties :
#
#
# Convention : Reuss Voigt Hill
#
# Bulk Modulus (GPa) = 56.81872 87.93722 72.37797
# Shear Modulus (GPa) = 25.67852 35.66333 30.67092
#
# Velocity S-wave (km/s) = 3.09254 3.64453 3.37982
# Velocity P-wave (km/s) = 5.82353 7.10365 6.49520
#
# Compressibility (1/GPa) = 0.01759983
#
# Stress axis : x y z
#
# Youngs Moduli (GPa) = 125.79031 130.98073 37.39887
#
# Poissons Ratio (x) = 0.25843 0.23669
# Poissons Ratio (y) = 0.24819 0.15183
# Poissons Ratio (z) = 0.79611 0.53175
#
# Static dielectric constant tensor:
#      x y z
#    x 2.211430 0.000000 0.000000 
#    y 0.000000 2.149070 0.000000 
#    z 0.000000 0.000000 2.179180 
# 
# From -- ./inp_files/6800.got.cif
#   From: 2010.05.17/outbox.cif.g08.bks.cpg/sg43_4_cif.got.tgz:6800.got - 2010.06.03 19:21:55.
