data_PCOD9370335
_publ_section_title
;
Structure prediction by ZEFSAII (Michael W. Deem and Ramdas Pophale) SiO2 
 PCOD9370335
Probable space group: F D D 2
;
_chemical_formula_sum "Si O2"
_cell_formula_units_Z 96
_cell_length_a 24.046219
_cell_length_b 11.090847
_cell_length_c 15.209223
_cell_angle_alpha 90.000000
_cell_angle_beta 90.000000
_cell_angle_gamma 90.000000
_cell_volume 4056.192334
_symmetry_space_group_name_H-M "F D D 2"
_symmetry_group_IT_number 43
_symmetry_cell_setting 'orthorhombic'
loop_
_space_group_symop_operation_xyz
x,y,z
-x,-y,z
1/4-x,1/4+y,1/4+z
1/4+x,1/4-y,1/4+z
x,1/2+y,1/2+z
-x,1/2-y,1/2+z
1/4-x,3/4+y,3/4+z
1/4+x,3/4-y,3/4+z
1/2+x,y,1/2+z
1/2-x,-y,1/2+z
3/4-x,1/4+y,3/4+z
3/4+x,1/4-y,3/4+z
1/2+x,1/2+y,z
1/2-x,1/2-y,z
3/4-x,3/4+y,1/4+z
3/4+x,3/4-y,1/4+z
loop_
_atom_site_type_symbol
_atom_site_label
_atom_site_fract_x
_atom_site_fract_y
_atom_site_fract_z
Si Si1 0.500000 0.500000 0.146361
Si Si2 0.559582 0.903173 0.799274
Si Si3 0.500000 0.000000 0.112443
Si Si4 0.768156 0.941504 0.106503
Si Si5 0.628115 0.725667 0.702022
Si Si6 0.075557 0.014032 0.778094
Si Si7 0.972358 0.242324 0.058725
O O1 0.550396 0.485469 0.214948
O O2 0.504831 0.622656 0.091692
O O3 0.508043 0.810262 0.811012
O O4 0.614309 0.824598 0.775308
O O5 0.569307 0.974810 0.888870
O O6 0.550343 0.999016 0.181171
O O7 0.499402 0.874107 0.063290
O O8 0.715956 0.848654 0.087429
O O9 0.820899 0.870093 0.065784
O O10 0.785337 0.966823 0.205947
O O11 0.626996 0.599101 0.755051
O O12 0.577796 0.748322 0.630892
#
# Coordination Sequence:
#
# PCOD9370335 Si02
#       7
#     8  16   8  16  16  16  16
#     4  10  20  36  58  82 114 148 188 242 296 346
#     4  10  21  36  54  81 114 151 194 243 292 349
#     4   8  16  30  50  78 108 142 184 226 282 352
#     4   9  17  31  56  83 106 146 199 236 281 354
#     4   9  20  36  54  80 117 149 182 240 303 345
#     4   8  15  33  53  73 110 150 181 227 288 352
#     4  10  19  34  57  83 110 148 192 242 293 350
#
# _framework density 23.667517
#
# number of rings (size 3 to 8) (size 9 to 14) (size 15 to 20)
#    0.000    3.000    0.000    4.000    0.000    4.667 
#    0.000    1.667    0.000   14.000    0.000    0.000 
#    0.000    0.000    0.000    0.000    0.000    0.000 
#
# Total GULP energy -133610.508110 kJ/mol
# GULP energy per Si atom -5567.104505 kJ/mol
# Density = 2.361365 g / cm^3
# Si number density = 23.667517 Si / 1000 Ang^3
#
#
#
# Elastic Constant Matrix: (Units=GPa)
#
#
# Indices 1 2 3 4 5 6 
#
# 1 30.1973 33.7039 25.3729 0.0000 0.0000 0.0000
# 2 33.7039 157.9716 64.5630 0.0000 0.0000 0.0000
# 3 25.3729 64.5630 132.2859 0.0000 0.0000 0.0000
# 4 0.0000 0.0000 0.0000 46.7529 0.0000 0.0000
# 5 0.0000 0.0000 0.0000 0.0000 25.7154 0.0000
# 6 0.0000 0.0000 0.0000 0.0000 0.0000 6.8903
#
#
#
# Elastic Compliance Matrix: (Units=1/GPa)
#
#
# Indices 1 2 3 4 5 6 
#
# 1 0.046006 -0.007756 -0.005039 0.000000 0.000000 0.000000
# 2 -0.007756 0.009215 -0.003010 0.000000 0.000000 0.000000
# 3 -0.005039 -0.003010 0.009995 0.000000 0.000000 0.000000
# 4 0.000000 0.000000 0.000000 0.021389 0.000000 0.000000
# 5 0.000000 0.000000 0.000000 0.000000 0.038887 0.000000
# 6 0.000000 0.000000 0.000000 0.000000 0.000000 0.145131
#
#
# Mechanical properties :
#
#
# Convention : Reuss Voigt Hill
#
# Bulk Modulus (GPa) = 29.75610 63.08162 46.41886
# Shear Modulus (GPa) = 15.95228 28.99274 22.47251
#
# Velocity S-wave (km/s) = 2.59900 3.50380 3.08475
# Velocity P-wave (km/s) = 4.64825 6.56353 5.68710
#
# Compressibility (1/GPa) = 0.03360655
#
# Stress axis : x y z
#
# Youngs Moduli (GPa) = 21.73623 108.51602 100.05217
#
# Poissons Ratio (x) = 0.84169 0.50412
# Poissons Ratio (y) = 0.16859 0.30114
# Poissons Ratio (z) = 0.10952 0.32662
#
# Static dielectric constant tensor:
#      x y z
#    x 2.030900 0.000000 0.000000 
#    y 0.000000 2.000250 0.000000 
#    z 0.000000 0.000000 1.834800 
# 
# From -- ./inp_files/11653.got.cif
#   From: 2010.05.17/outbox.cif.g08.bks.cpg/sg43_6_cif.got.tgz:11653.got - 2010.06.03 19:21:55.
