data_PCOD9370808
_publ_section_title
;
Structure prediction by ZEFSAII (Michael W. Deem and Ramdas Pophale) SiO2 
 PCOD9370808
Probable space group: F D D 2
;
_chemical_formula_sum "Si O2"
_cell_formula_units_Z 120
_cell_length_a 31.979566
_cell_length_b 11.451110
_cell_length_c 15.116984
_cell_angle_alpha 90.000000
_cell_angle_beta 90.000000
_cell_angle_gamma 90.000000
_cell_volume 5535.862640
_symmetry_space_group_name_H-M "F D D 2"
_symmetry_group_IT_number 43
_symmetry_cell_setting 'orthorhombic'
loop_
_space_group_symop_operation_xyz
x,y,z
-x,-y,z
1/4-x,1/4+y,1/4+z
1/4+x,1/4-y,1/4+z
x,1/2+y,1/2+z
-x,1/2-y,1/2+z
1/4-x,3/4+y,3/4+z
1/4+x,3/4-y,3/4+z
1/2+x,y,1/2+z
1/2-x,-y,1/2+z
3/4-x,1/4+y,3/4+z
3/4+x,1/4-y,3/4+z
1/2+x,1/2+y,z
1/2-x,1/2-y,z
3/4-x,3/4+y,1/4+z
3/4+x,3/4-y,1/4+z
loop_
_atom_site_type_symbol
_atom_site_label
_atom_site_fract_x
_atom_site_fract_y
_atom_site_fract_z
Si Si1 0.590026 0.769355 0.118600
Si Si2 0.500000 0.000000 0.925943
Si Si3 0.814682 0.762570 0.135301
Si Si4 0.700926 0.758982 0.937431
Si Si5 0.712031 0.491657 0.188742
Si Si6 0.773168 0.138399 0.804534
Si Si7 0.910421 0.581357 0.959603
Si Si8 0.142191 0.385035 0.803837
O O1 0.635723 0.736375 0.151027
O O2 0.571876 0.885257 0.165351
O O3 0.556605 0.666728 0.120257
O O4 0.594785 0.799715 0.013084
O O5 0.458070 0.041849 0.974755
O O6 0.517645 0.127220 0.891910
O O7 0.794481 0.692806 0.216386
O O8 0.795853 0.893286 0.131458
O O9 0.804488 0.709311 0.040173
O O10 0.750000 0.750000 0.916615
O O11 0.676404 0.853351 0.878874
O O12 0.742289 0.537580 0.267840
O O13 0.667111 0.460303 0.232308
O O14 0.750000 0.250000 0.845565
O O15 0.898425 0.576313 0.857372
O O16 0.881683 0.486525 0.007037
#
# Coordination Sequence:
#
# PCOD9370808 Si02
#       8
#    16   8  16  16  16  16  16  16
#     4  11  21  37  62  92 124 162 205 265 315 372
#     4  10  20  40  66  86 120 174 212 248 310 394
#     4  11  23  40  62  96 124 165 205 269 320 374
#     4  11  22  37  64  96 123 158 219 270 307 360
#     4  10  21  40  65  87 124 168 210 249 315 385
#     4  10  21  39  63  88 124 165 207 247 315 386
#     4  10  21  37  66  91 120 158 218 258 310 366
#     4  10  22  39  61  93 121 165 207 263 310 374
#
# _framework density 21.676839000000001
#
# number of rings (size 3 to 8) (size 9 to 14) (size 15 to 20)
#    0.000    1.600    2.667    2.800    8.400    0.000 
#   16.800    0.000    1.467    0.000    0.000    0.000 
#    0.000    0.000    0.000    0.000    0.000    0.000 
#
# Total GULP energy -167294.446196 kJ/mol
# GULP energy per Si atom -5576.481540 kJ/mol
# Density = 2.162750 g / cm^3
# Si number density = 21.676839 Si / 1000 Ang^3
#
#
#
# Elastic Constant Matrix: (Units=GPa)
#
#
# Indices 1 2 3 4 5 6 
#
# 1 101.4225 21.3066 -4.2582 0.0000 0.0000 0.0000
# 2 21.3066 74.2828 -6.7190 0.0000 0.0000 0.0000
# 3 -4.2582 -6.7190 27.0201 0.0000 0.0000 0.0000
# 4 0.0000 0.0000 0.0000 16.3503 0.0000 0.0000
# 5 0.0000 0.0000 0.0000 0.0000 21.7927 0.0000
# 6 0.0000 0.0000 0.0000 0.0000 0.0000 28.2052
#
#
#
# Elastic Compliance Matrix: (Units=1/GPa)
#
#
# Indices 1 2 3 4 5 6 
#
# 1 0.010515 -0.002932 0.000928 0.000000 0.000000 0.000000
# 2 -0.002932 0.014589 0.003166 0.000000 0.000000 0.000000
# 3 0.000928 0.003166 0.037943 0.000000 0.000000 0.000000
# 4 0.000000 0.000000 0.000000 0.061161 0.000000 0.000000
# 5 0.000000 0.000000 0.000000 0.000000 0.045887 0.000000
# 6 0.000000 0.000000 0.000000 0.000000 0.000000 0.035454
#
#
# Mechanical properties :
#
#
# Convention : Reuss Voigt Hill
#
# Bulk Modulus (GPa) = 15.29741 24.82048 20.05894
# Shear Modulus (GPa) = 22.22067 26.09605 24.15836
#
# Velocity S-wave (km/s) = 3.20517 3.47344 3.34200
# Velocity P-wave (km/s) = 4.55740 5.24991 4.91586
#
# Compressibility (1/GPa) = 0.06537056
#
# Stress axis : x y z
#
# Youngs Moduli (GPa) = 95.10544 68.54287 26.35539
#
# Poissons Ratio (x) = 0.20097 -0.02446
# Poissons Ratio (y) = 0.27885 -0.08344
# Poissons Ratio (z) = -0.08825 -0.21700
#
# Static dielectric constant tensor:
#      x y z
#    x 1.818890 0.000000 0.000000 
#    y 0.000000 1.816940 0.000000 
#    z 0.000000 0.000000 1.789280 
# 
# From -- ./inp_files/15102.got.cif
#   From: 2010.05.17/outbox.cif.g08.bks.cpg/sg43_8_cif.got.tgz:15102.got - 2010.06.03 19:21:55.
