data_PCOD9370999
_publ_section_title
;
Structure prediction by ZEFSAII (Michael W. Deem and Ramdas Pophale) SiO2 
 PCOD9370999
Probable space group: F D D 2
;
_chemical_formula_sum "Si O2"
_cell_formula_units_Z 96
_cell_length_a 23.595264
_cell_length_b 25.286196
_cell_length_c 6.749851
_cell_angle_alpha 90.000000
_cell_angle_beta 90.000000
_cell_angle_gamma 90.000000
_cell_volume 4027.193775
_symmetry_space_group_name_H-M "F D D 2"
_symmetry_group_IT_number 43
_symmetry_cell_setting 'orthorhombic'
loop_
_space_group_symop_operation_xyz
x,y,z
-x,-y,z
1/4-x,1/4+y,1/4+z
1/4+x,1/4-y,1/4+z
x,1/2+y,1/2+z
-x,1/2-y,1/2+z
1/4-x,3/4+y,3/4+z
1/4+x,3/4-y,3/4+z
1/2+x,y,1/2+z
1/2-x,-y,1/2+z
3/4-x,1/4+y,3/4+z
3/4+x,1/4-y,3/4+z
1/2+x,1/2+y,z
1/2-x,1/2-y,z
3/4-x,3/4+y,1/4+z
3/4+x,3/4-y,1/4+z
loop_
_atom_site_type_symbol
_atom_site_label
_atom_site_fract_x
_atom_site_fract_y
_atom_site_fract_z
Si Si1 0.768008 0.966285 0.297040
Si Si2 0.095895 0.660415 0.522085
Si Si3 0.388054 0.941283 0.796739
Si Si4 0.959383 0.903861 0.667795
Si Si5 0.291839 0.431301 0.854846
Si Si6 0.091429 0.512428 0.393097
O O1 0.711817 0.935762 0.361858
O O2 0.828173 0.957305 0.398134
O O3 0.750861 0.026522 0.260101
O O4 0.782961 0.943112 0.085151
O O5 0.113511 0.611692 0.660831
O O6 0.076342 0.640066 0.301396
O O7 0.143140 0.706150 0.546608
O O8 0.405732 0.985849 0.633673
O O9 0.429785 0.927176 0.973535
O O10 0.017350 0.877163 0.588409
O O11 0.962003 0.953291 0.819172
O O12 0.355345 0.450553 0.821203
#
# Coordination Sequence:
#
# PCOD9370999 Si02
#       6
#    16  16  16  16  16  16
#     4   9  19  33  55  81 109 142 185 232 280 325
#     4   9  20  38  54  79 115 147 184 236 285 334
#     4  10  21  31  54  87 109 143 188 236 282 333
#     4  10  21  31  54  87 109 143 188 236 282 333
#     4   9  19  33  55  81 109 142 185 232 280 325
#     4   9  20  38  54  79 115 147 184 236 285 334
#
# _framework density 23.837937
#
# number of rings (size 3 to 8) (size 9 to 14) (size 15 to 20)
#    0.000    2.667    0.000    0.000   14.000    0.000 
#    0.000    0.000    0.000   25.000    8.667    0.000 
#    0.000    0.000    0.000    0.000    0.000    0.000 
#
# Total GULP energy -133694.773659 kJ/mol
# GULP energy per Si atom -5570.615569 kJ/mol
# Density = 2.378368 g / cm^3
# Si number density = 23.837937 Si / 1000 Ang^3
#
#
#
# Elastic Constant Matrix: (Units=GPa)
#
#
# Indices 1 2 3 4 5 6 
#
# 1 39.1784 23.6783 10.8220 0.0096 -0.0596 -0.0492
# 2 23.6783 80.3568 11.6027 0.0284 -0.0382 -0.0727
# 3 10.8220 11.6027 87.4428 0.1518 -0.1177 -0.0053
# 4 0.0096 0.0284 0.1518 101.7043 -0.1244 -0.0480
# 5 -0.0596 -0.0382 -0.1177 -0.1244 23.8509 0.0360
# 6 -0.0492 -0.0727 -0.0053 -0.0480 0.0360 17.7730
#
#
#
# Elastic Compliance Matrix: (Units=1/GPa)
#
#
# Indices 1 2 3 4 5 6 
#
# 1 0.031684 -0.008941 -0.002735 0.000004 0.000051 0.000050
# 2 -0.008941 0.015211 -0.000912 -0.000002 -0.000003 0.000037
# 3 -0.002735 -0.000912 0.011896 -0.000017 0.000050 -0.000008
# 4 0.000004 -0.000002 -0.000017 0.009833 0.000051 0.000026
# 5 0.000051 -0.000003 0.000050 0.000051 0.041928 -0.000085
# 6 0.000050 0.000037 -0.000008 0.000026 -0.000085 0.056266
#
#
# Mechanical properties :
#
#
# Convention : Reuss Voigt Hill
#
# Bulk Modulus (GPa) = 29.74883 33.24269 31.49576
# Shear Modulus (GPa) = 24.60679 39.39065 31.99872
#
# Velocity S-wave (km/s) = 3.21636 4.06943 3.66778
# Velocity P-wave (km/s) = 5.12835 6.00465 5.58372
#
# Compressibility (1/GPa) = 0.03361476
#
# Stress axis : x y z
#
# Youngs Moduli (GPa) = 31.56211 65.74271 84.06487
#
# Poissons Ratio (x) = 0.58781 0.22990
# Poissons Ratio (y) = 0.28220 0.07665
# Poissons Ratio (z) = 0.08631 0.05994
#
# Static dielectric constant tensor:
#      x y z
#    x 2.007820 0.000110 0.000030 
#    y 0.000110 1.791970 0.000060 
#    z 0.000030 0.000060 1.985380 
# 
# From -- ./inp_files/4369.got.cif
#   From: 2010.05.17/outbox.cif.g08.bks.cpg/sg43_3_cif.got.tgz:4369.got - 2010.06.03 19:21:55.
