data_PCOD9370191
_publ_section_title
;
Structure prediction by ZEFSAII (Michael W. Deem and Ramdas Pophale) SiO2 
 PCOD9370191
Probable space group: F D D 2
;
_chemical_formula_sum "Si O2"
_cell_formula_units_Z 112
_cell_length_a 35.828836
_cell_length_b 12.984654
_cell_length_c 9.521324
_cell_angle_alpha 90.000000
_cell_angle_beta 90.000000
_cell_angle_gamma 90.000000
_cell_volume 4429.558326
_symmetry_space_group_name_H-M "F D D 2"
_symmetry_group_IT_number 43
_symmetry_cell_setting 'orthorhombic'
loop_
_space_group_symop_operation_xyz
x,y,z
-x,-y,z
1/4-x,1/4+y,1/4+z
1/4+x,1/4-y,1/4+z
x,1/2+y,1/2+z
-x,1/2-y,1/2+z
1/4-x,3/4+y,3/4+z
1/4+x,3/4-y,3/4+z
1/2+x,y,1/2+z
1/2-x,-y,1/2+z
3/4-x,1/4+y,3/4+z
3/4+x,1/4-y,3/4+z
1/2+x,1/2+y,z
1/2-x,1/2-y,z
3/4-x,3/4+y,1/4+z
3/4+x,3/4-y,1/4+z
loop_
_atom_site_type_symbol
_atom_site_label
_atom_site_fract_x
_atom_site_fract_y
_atom_site_fract_z
Si Si1 0.130887 0.319275 0.354150
Si Si2 0.710386 0.281100 0.402087
Si Si3 0.604954 0.417364 0.586470
Si Si4 0.058642 0.205261 0.118513
Si Si5 0.764886 0.362617 0.954492
Si Si6 0.934906 0.086499 0.939142
Si Si7 0.062354 0.216649 0.800140
O O1 0.120617 0.412318 0.245273
O O2 0.163573 0.373126 0.441451
O O3 0.153078 0.233378 0.267200
O O4 0.089549 0.308118 0.416842
O O5 0.750000 0.250000 0.343595
O O6 0.674804 0.254917 0.308084
O O7 0.701604 0.216106 0.547597
O O8 0.710665 0.399440 0.441182
O O9 0.579760 0.313762 0.593826
O O10 0.644325 0.440121 0.512383
O O11 0.019946 0.191551 0.198226
O O12 0.052315 0.174367 0.955104
O O13 0.750000 0.250000 0.998173
O O14 0.782043 0.350209 0.798739
O O15 0.798725 0.415943 0.040115
#
# Coordination Sequence:
#
# PCOD9370191 Si02
#       7
#    16  16  16  16  16  16  16
#     4  10  18  34  63  90 117 160 212 258 310 363
#     4  11  20  36  65  95 120 156 221 269 303 365
#     4  10  20  38  65  89 122 165 214 255 311 379
#     4  11  20  40  65  87 128 168 208 266 318 376
#     4  12  25  41  63  96 132 165 210 271 335 381
#     4  11  20  38  60  94 125 161 213 267 310 382
#     4  11  22  40  61  92 124 169 202 259 332 381
#
# _framework density 25.284687000000002
#
# number of rings (size 3 to 8) (size 9 to 14) (size 15 to 20)
#    0.000    1.143    5.714    3.857    0.000    1.143 
#    5.143    2.143    0.000    0.000    0.000    0.000 
#    0.000    0.000    0.000    0.000    0.000    0.000 
#
# Total GULP energy -155943.216526 kJ/mol
# GULP energy per Si atom -5569.400590 kJ/mol
# Density = 2.522714 g / cm^3
# Si number density = 25.284687 Si / 1000 Ang^3
#
#
#
# Elastic Constant Matrix: (Units=GPa)
#
#
# Indices 1 2 3 4 5 6 
#
# 1 162.1225 52.5923 7.4974 0.0000 0.0000 0.0000
# 2 52.5923 84.5494 9.7349 0.0000 0.0000 0.0000
# 3 7.4974 9.7349 24.0427 0.0000 0.0000 0.0000
# 4 0.0000 0.0000 0.0000 25.1481 0.0000 0.0000
# 5 0.0000 0.0000 0.0000 0.0000 11.4529 0.0000
# 6 0.0000 0.0000 0.0000 0.0000 0.0000 54.1348
#
#
#
# Elastic Compliance Matrix: (Units=1/GPa)
#
#
# Indices 1 2 3 4 5 6 
#
# 1 0.007733 -0.004754 -0.000486 0.000000 0.000000 0.000000
# 2 -0.004754 0.015329 -0.004724 0.000000 0.000000 0.000000
# 3 -0.000486 -0.004724 0.043657 0.000000 0.000000 0.000000
# 4 0.000000 0.000000 0.000000 0.039764 0.000000 0.000000
# 5 0.000000 0.000000 0.000000 0.000000 0.087314 0.000000
# 6 0.000000 0.000000 0.000000 0.000000 0.000000 0.018472
#
#
# Mechanical properties :
#
#
# Convention : Reuss Voigt Hill
#
# Bulk Modulus (GPa) = 21.37236 45.59599 33.48417
# Shear Modulus (GPa) = 20.17796 31.53983 25.85889
#
# Velocity S-wave (km/s) = 2.82801 3.53567 3.20145
# Velocity P-wave (km/s) = 4.37431 5.89408 5.19012
#
# Compressibility (1/GPa) = 0.04678941
#
# Stress axis : x y z
#
# Youngs Moduli (GPa) = 129.31775 65.23791 22.90572
#
# Poissons Ratio (x) = 0.31015 0.01114
# Poissons Ratio (y) = 0.61479 0.10821
# Poissons Ratio (z) = 0.06291 0.30819
#
# Static dielectric constant tensor:
#      x y z
#    x 2.159040 0.000000 0.000000 
#    y 0.000000 2.095540 0.000000 
#    z 0.000000 0.000000 2.099450 
# 
# From -- ./inp_files/8293.got.cif
#   From: 2010.05.17/outbox.cif.g08.bks.cpg/sg43_5_cif.got.tgz:8293.got - 2010.06.03 19:21:55.
