data_PCOD9370821
_publ_section_title
;
Structure prediction by ZEFSAII (Michael W. Deem and Ramdas Pophale) SiO2 
 PCOD9370821
Probable space group: F D D 2
;
_chemical_formula_sum "Si O2"
_cell_formula_units_Z 96
_cell_length_a 18.417986
_cell_length_b 18.896988
_cell_length_c 13.236281
_cell_angle_alpha 90.000000
_cell_angle_beta 90.000000
_cell_angle_gamma 90.000000
_cell_volume 4606.814279
_symmetry_space_group_name_H-M "F D D 2"
_symmetry_group_IT_number 43
_symmetry_cell_setting 'orthorhombic'
loop_
_space_group_symop_operation_xyz
x,y,z
-x,-y,z
1/4-x,1/4+y,1/4+z
1/4+x,1/4-y,1/4+z
x,1/2+y,1/2+z
-x,1/2-y,1/2+z
1/4-x,3/4+y,3/4+z
1/4+x,3/4-y,3/4+z
1/2+x,y,1/2+z
1/2-x,-y,1/2+z
3/4-x,1/4+y,3/4+z
3/4+x,1/4-y,3/4+z
1/2+x,1/2+y,z
1/2-x,1/2-y,z
3/4-x,3/4+y,1/4+z
3/4+x,3/4-y,1/4+z
loop_
_atom_site_type_symbol
_atom_site_label
_atom_site_fract_x
_atom_site_fract_y
_atom_site_fract_z
Si Si1 0.500000 0.500000 0.910571
Si Si2 0.000000 0.000000 0.457015
Si Si3 0.745494 0.629154 0.328620
Si Si4 0.096758 0.243945 0.809708
Si Si5 0.103210 0.730966 0.542985
Si Si6 0.691152 0.652412 0.539968
Si Si7 0.294264 0.028721 0.848757
O O1 0.429041 0.496557 0.839715
O O2 0.506831 0.431346 0.983798
O O3 0.928739 0.993709 0.523379
O O4 0.013627 0.936265 0.380134
O O5 0.574364 0.657550 0.091068
O O6 0.723234 0.668033 0.430510
O O7 0.696702 0.556356 0.325820
O O8 0.057813 0.319285 0.808936
O O9 0.057155 0.203788 0.717436
O O10 0.099735 0.216987 0.923286
O O11 0.039541 0.788317 0.568037
O O12 0.608337 0.680228 0.543811
#
# Coordination Sequence:
#
# PCOD9370821 Si02
#       7
#     8   8  16  16  16  16  16
#     4  12  24  42  66  94 132 174 216 264 348 392
#     4  10  22  34  60  96 116 156 218 248 308 384
#     4   9  23  42  63  96 127 173 214 270 324 395
#     4  10  21  40  61  88 127 165 207 263 318 382
#     4  10  24  44  59  98 131 168 218 270 329 391
#     4  10  20  40  67  91 122 167 213 262 317 382
#     4   8  21  43  63  95 125 164 218 265 324 375
#
# _framework density 20.838695000000001
#
# number of rings (size 3 to 8) (size 9 to 14) (size 15 to 20)
#    1.000    1.333    0.000    1.000    2.333    9.333 
#    6.000    0.000    0.000    0.000    0.000    0.000 
#    0.000    0.000    0.000    0.000    0.000    0.000 
#
# Total GULP energy -133741.947636 kJ/mol
# GULP energy per Si atom -5572.581152 kJ/mol
# Density = 2.079127 g / cm^3
# Si number density = 20.838695 Si / 1000 Ang^3
#
#
#
# Elastic Constant Matrix: (Units=GPa)
#
#
# Indices 1 2 3 4 5 6 
#
# 1 115.6151 -9.2832 75.6981 0.0000 0.0000 0.0000
# 2 -9.2832 23.0585 13.4391 0.0000 0.0000 0.0000
# 3 75.6981 13.4391 138.0576 0.0000 0.0000 0.0000
# 4 0.0000 0.0000 0.0000 29.3162 0.0000 0.0000
# 5 0.0000 0.0000 0.0000 0.0000 1.8304 0.0000
# 6 0.0000 0.0000 0.0000 0.0000 0.0000 14.5420
#
#
#
# Elastic Compliance Matrix: (Units=1/GPa)
#
#
# Indices 1 2 3 4 5 6 
#
# 1 0.016297 0.012477 -0.010150 0.000000 0.000000 0.000000
# 2 0.012477 0.055529 -0.012247 0.000000 0.000000 0.000000
# 3 -0.010150 -0.012247 0.014001 0.000000 0.000000 0.000000
# 4 0.000000 0.000000 0.000000 0.034111 0.000000 0.000000
# 5 0.000000 0.000000 0.000000 0.000000 0.546329 0.000000
# 6 0.000000 0.000000 0.000000 0.000000 0.000000 0.068766
#
#
# Mechanical properties :
#
#
# Convention : Reuss Voigt Hill
#
# Bulk Modulus (GPa) = 15.15451 48.49323 31.82387
# Shear Modulus (GPa) = 6.43610 22.26287 14.34948
#
# Velocity S-wave (km/s) = 1.75933 3.27210 2.62696
# Velocity P-wave (km/s) = 3.37862 6.13162 4.95035
#
# Compressibility (1/GPa) = 0.06598697
#
# Stress axis : x y z
#
# Youngs Moduli (GPa) = 61.36049 18.00866 71.42322
#
# Poissons Ratio (x) = -0.22470 0.72498
# Poissons Ratio (y) = -0.76560 0.87470
# Poissons Ratio (z) = 0.62283 0.22055
#
# Static dielectric constant tensor:
#      x y z
#    x 1.763570 0.000000 0.000000 
#    y 0.000000 1.544450 0.000000 
#    z 0.000000 0.000000 1.754420 
# 
# From -- ./inp_files/7108.got.cif
#   From: 2010.05.17/outbox.cif.g08.bks.cpg/sg43_4_cif.got.tgz:7108.got - 2010.06.03 19:21:55.
