data_PCOD9370070
_publ_section_title
;
Structure prediction by ZEFSAII (Michael W. Deem and Ramdas Pophale) SiO2 
 PCOD9370070
Probable space group: F D D 2
;
_chemical_formula_sum "Si O2"
_cell_formula_units_Z 96
_cell_length_a 34.082478
_cell_length_b 7.617698
_cell_length_c 15.510174
_cell_angle_alpha 90.000000
_cell_angle_beta 90.000000
_cell_angle_gamma 90.000000
_cell_volume 4026.906856
_symmetry_space_group_name_H-M "F D D 2"
_symmetry_group_IT_number 43
_symmetry_cell_setting 'orthorhombic'
loop_
_space_group_symop_operation_xyz
x,y,z
-x,-y,z
1/4-x,1/4+y,1/4+z
1/4+x,1/4-y,1/4+z
x,1/2+y,1/2+z
-x,1/2-y,1/2+z
1/4-x,3/4+y,3/4+z
1/4+x,3/4-y,3/4+z
1/2+x,y,1/2+z
1/2-x,-y,1/2+z
3/4-x,1/4+y,3/4+z
3/4+x,1/4-y,3/4+z
1/2+x,1/2+y,z
1/2-x,1/2-y,z
3/4-x,3/4+y,1/4+z
3/4+x,3/4-y,1/4+z
loop_
_atom_site_type_symbol
_atom_site_label
_atom_site_fract_x
_atom_site_fract_y
_atom_site_fract_z
Si Si1 0.389901 0.176966 0.851740
Si Si2 0.305208 1.000000 0.248879
Si Si3 0.860099 0.073034 0.896018
Si Si4 0.250000 0.750000 0.359751
Si Si5 0.750000 0.250000 0.638008
Si Si6 0.320032 0.071850 0.943848
Si Si7 0.179967 0.571851 0.553910
O O1 0.375000 0.375000 0.873879
O O2 0.350298 0.065845 0.863929
O O3 0.414891 0.182844 0.764285
O O4 0.418457 0.139762 0.932021
O O5 0.279754 0.136203 0.194408
O O6 0.331543 0.110238 0.315737
O O7 0.279754 0.863796 0.303351
O O8 0.899702 0.184154 0.883829
O O9 0.835109 0.067155 0.983473
O O10 0.275828 0.605061 0.411742
O O11 0.775828 0.394938 0.586016
O O12 0.326009 0.250000 0.998879
#
# Coordination Sequence:
#
# PCOD9370070 Si02
#       7
#    16  16  16   8   8  16  16
#     4  10  16  31  56  87 108 144 196 246 271 332
#     4  12  22  34  54  85 122 152 192 237 294 338
#     4  10  16  31  56  87 108 144 196 246 271 332
#     4  12  23  34  54  87 124 148 190 241 294 338
#     4  12  23  34  54  87 124 148 190 241 294 338
#     4  10  17  30  54  86 108 144 188 248 275 329
#     4  10  17  30  54  86 108 144 188 248 275 329
#
# _framework density 23.839639999999999
#
# number of rings (size 3 to 8) (size 9 to 14) (size 15 to 20)
#    0.000    1.333   11.667    0.500    0.000    0.000 
#    0.000    0.000    0.000   12.000    0.000    0.000 
#    0.000    0.000    0.000    0.000    0.000    0.000 
#
# Total GULP energy -133833.855379 kJ/mol
# GULP energy per Si atom -5576.410641 kJ/mol
# Density = 2.378538 g / cm^3
# Si number density = 23.839640 Si / 1000 Ang^3
#
#
#
# Elastic Constant Matrix: (Units=GPa)
#
#
# Indices 1 2 3 4 5 6 
#
# 1 173.2425 13.9178 87.8074 0.0000 0.0000 0.0000
# 2 13.9178 57.0521 17.4330 0.0000 0.0000 0.0000
# 3 87.8074 17.4330 120.7627 0.0000 0.0000 0.0000
# 4 0.0000 0.0000 0.0000 -4.1343 0.0000 0.0000
# 5 0.0000 0.0000 0.0000 0.0000 -25.9364 0.0000
# 6 0.0000 0.0000 0.0000 0.0000 0.0000 10.4774
#
#
#
# Elastic Compliance Matrix: (Units=1/GPa)
#
#
# Indices 1 2 3 4 5 6 
#
# 1 0.009143 -0.000208 -0.006618 0.000000 0.000000 0.000000
# 2 -0.000208 0.018341 -0.002496 0.000000 0.000000 0.000000
# 3 -0.006618 -0.002496 0.013453 0.000000 0.000000 0.000000
# 4 0.000000 0.000000 0.000000 -0.241877 0.000000 0.000000
# 5 0.000000 0.000000 0.000000 0.000000 -0.038556 0.000000
# 6 0.000000 0.000000 0.000000 0.000000 0.000000 0.095443
#
#
# Mechanical properties :
#
#
# Convention : Reuss Voigt Hill
#
# Bulk Modulus (GPa) = 44.85800 65.48596 55.17198
# Shear Modulus (GPa) = -42.38167 11.54128 -15.42019
#
# Velocity S-wave (km/s) = -4.22095 2.20266 -2.54604
# Velocity P-wave (km/s) = 2.21310 5.83078 3.81446
#
# Compressibility (1/GPa) = 0.02229257
#
# Stress axis : x y z
#
# Youngs Moduli (GPa) = 109.36879 54.52137 74.33192
#
# Poissons Ratio (x) = 0.01135 0.49194
# Poissons Ratio (y) = 0.02278 0.18555
# Poissons Ratio (z) = 0.72382 0.13610
#
# Static dielectric constant tensor:
#      x y z
#    x 2.002230 0.000000 0.000000 
#    y 0.000000 1.993890 0.000000 
#    z 0.000000 0.000000 1.984630 
# 
# From -- ./inp_files/11663.got.cif
#   From: 2010.05.17/outbox.cif.g08.bks.cpg/sg43_6_cif.got.tgz:11663.got - 2010.06.03 19:21:55.
