data_PCOD9370281
_publ_section_title
;
Structure prediction by ZEFSAII (Michael W. Deem and Ramdas Pophale) SiO2 
 PCOD9370281
Probable space group: F D D 2
;
_chemical_formula_sum "Si O2"
_cell_formula_units_Z 96
_cell_length_a 26.987496
_cell_length_b 7.451721
_cell_length_c 23.626582
_cell_angle_alpha 90.000000
_cell_angle_beta 90.000000
_cell_angle_gamma 90.000000
_cell_volume 4751.383388
_symmetry_space_group_name_H-M "F D D 2"
_symmetry_group_IT_number 43
_symmetry_cell_setting 'orthorhombic'
loop_
_space_group_symop_operation_xyz
x,y,z
-x,-y,z
1/4-x,1/4+y,1/4+z
1/4+x,1/4-y,1/4+z
x,1/2+y,1/2+z
-x,1/2-y,1/2+z
1/4-x,3/4+y,3/4+z
1/4+x,3/4-y,3/4+z
1/2+x,y,1/2+z
1/2-x,-y,1/2+z
3/4-x,1/4+y,3/4+z
3/4+x,1/4-y,3/4+z
1/2+x,1/2+y,z
1/2-x,1/2-y,z
3/4-x,3/4+y,1/4+z
3/4+x,3/4-y,1/4+z
loop_
_atom_site_type_symbol
_atom_site_label
_atom_site_fract_x
_atom_site_fract_y
_atom_site_fract_z
Si Si1 0.984713 0.289551 0.622620
Si Si2 0.847324 0.324573 0.715836
Si Si3 0.708710 0.401596 0.993955
Si Si4 0.205738 0.374056 0.777614
Si Si5 0.645986 0.038908 0.284244
Si Si6 0.053183 0.920591 0.843681
O O1 0.974491 0.236966 0.687550
O O2 0.935566 0.263040 0.583924
O O3 0.000000 0.500000 0.622078
O O4 0.027279 0.175017 0.591208
O O5 0.901947 0.400254 0.729853
O O6 0.805956 0.437626 0.749140
O O7 0.847654 0.116893 0.736885
O O8 0.833769 0.353816 0.650900
O O9 0.750000 0.250000 0.998224
O O10 0.706232 0.500995 0.053708
O O11 0.250000 0.250000 0.753342
O O12 0.160030 0.241367 0.769785
O O13 0.589787 0.038539 0.305237
O O14 0.000000 0.000000 0.857964
#
# Coordination Sequence:
#
# PCOD9370281 Si02
#       6
#    16  16  16  16  16  16
#     4  10  18  40  69  96 125 168 226 284 322 389
#     4  11  23  45  67  92 138 177 219 279 336 398
#     4  10  24  43  68  97 134 180 223 274 345 407
#     4  10  23  36  71  99 124 166 233 275 325 391
#     4  10  22  43  62 100 121 173 225 272 331 401
#     4  11  26  42  64  93 141 177 214 281 350 397
#
# _framework density 20.204640999999999
#
# number of rings (size 3 to 8) (size 9 to 14) (size 15 to 20)
#    0.000    1.667    3.333    0.000    7.000    2.667 
#    0.000    0.000    0.000    0.000    0.000    0.000 
#    0.000    0.000    0.000    0.000    0.000    0.000 
#
# Total GULP energy -133761.394532 kJ/mol
# GULP energy per Si atom -5573.391439 kJ/mol
# Density = 2.015865 g / cm^3
# Si number density = 20.204641 Si / 1000 Ang^3
#
#
#
# Elastic Constant Matrix: (Units=GPa)
#
#
# Indices 1 2 3 4 5 6 
#
# 1 82.4467 24.4079 21.5424 0.0000 0.0000 0.0001
# 2 24.4079 69.6204 24.9087 -0.0001 -0.0001 0.0001
# 3 21.5424 24.9087 108.2864 0.0000 0.0000 0.0001
# 4 0.0000 -0.0001 0.0000 6.6236 0.0000 0.0001
# 5 0.0000 -0.0001 0.0000 0.0000 -4.4492 -0.0002
# 6 0.0001 0.0001 0.0001 0.0001 -0.0002 11.7199
#
#
#
# Elastic Compliance Matrix: (Units=1/GPa)
#
#
# Indices 1 2 3 4 5 6 
#
# 1 0.013843 -0.004215 -0.001784 0.000000 0.000000 0.000000
# 2 -0.004215 0.016935 -0.003057 0.000000 0.000000 0.000000
# 3 -0.001784 -0.003057 0.010293 0.000000 0.000000 0.000000
# 4 0.000000 0.000000 0.000000 0.150974 0.000000 -0.000001
# 5 0.000000 0.000000 0.000000 0.000000 -0.224758 -0.000004
# 6 0.000000 0.000000 0.000000 -0.000001 -0.000004 0.085325
#
#
# Mechanical properties :
#
#
# Convention : Reuss Voigt Hill
#
# Bulk Modulus (GPa) = 43.55662 44.67461 44.11561
# Shear Modulus (GPa) = 63.79362 15.41182 39.60272
#
# Velocity S-wave (km/s) = 5.62515 2.76485 4.43208
# Velocity P-wave (km/s) = 7.98713 5.68785 6.93346
#
# Compressibility (1/GPa) = 0.02295862
#
# Stress axis : x y z
#
# Youngs Moduli (GPa) = 72.23840 59.04946 97.15382
#
# Poissons Ratio (x) = 0.24888 0.17336
# Poissons Ratio (y) = 0.30447 0.29700
# Poissons Ratio (z) = 0.12890 0.18051
#
# Static dielectric constant tensor:
#      x y z
#    x 1.755770 0.000000 0.000000 
#    y 0.000000 1.747810 0.000000 
#    z 0.000000 0.000000 1.729200 
# 
# From -- ./inp_files/18827.got.cif
#   From: 2010.05.17/outbox.cif.g08.bks.cpg/sg43_10_cif.got.tgz:18827.got - 2010.06.03 19:21:55.
