data_PCOD9370692
_publ_section_title
;
Structure prediction by ZEFSAII (Michael W. Deem and Ramdas Pophale) SiO2 
 PCOD9370692
Probable space group: F D D 2
;
_chemical_formula_sum "Si O2"
_cell_formula_units_Z 120
_cell_length_a 25.347507
_cell_length_b 8.640594
_cell_length_c 26.710024
_cell_angle_alpha 90.000000
_cell_angle_beta 90.000000
_cell_angle_gamma 90.000000
_cell_volume 5849.963133
_symmetry_space_group_name_H-M "F D D 2"
_symmetry_group_IT_number 43
_symmetry_cell_setting 'orthorhombic'
loop_
_space_group_symop_operation_xyz
x,y,z
-x,-y,z
1/4-x,1/4+y,1/4+z
1/4+x,1/4-y,1/4+z
x,1/2+y,1/2+z
-x,1/2-y,1/2+z
1/4-x,3/4+y,3/4+z
1/4+x,3/4-y,3/4+z
1/2+x,y,1/2+z
1/2-x,-y,1/2+z
3/4-x,1/4+y,3/4+z
3/4+x,1/4-y,3/4+z
1/2+x,1/2+y,z
1/2-x,1/2-y,z
3/4-x,3/4+y,1/4+z
3/4+x,3/4-y,1/4+z
loop_
_atom_site_type_symbol
_atom_site_label
_atom_site_fract_x
_atom_site_fract_y
_atom_site_fract_z
Si Si1 0.557996 0.468833 0.844160
Si Si2 0.077100 0.750305 0.410629
Si Si3 0.750000 0.750000 0.930121
Si Si4 0.894612 0.517506 0.246203
Si Si5 0.214859 0.595011 0.902128
Si Si6 0.382505 0.491054 0.346005
Si Si7 0.131154 0.593999 0.990119
Si Si8 0.707203 0.438251 0.161199
O O1 0.500000 0.500000 0.821856
O O2 0.574936 0.632600 0.865226
O O3 0.595396 0.409358 0.800236
O O4 0.552266 0.362823 0.892718
O O5 0.098878 0.670659 0.460395
O O6 0.117434 0.877590 0.389758
O O7 0.019606 0.824275 0.419743
O O8 0.801611 0.774311 0.964415
O O9 0.758687 0.579775 0.902813
O O10 0.879482 0.337289 0.253847
O O11 0.250000 0.750000 0.897822
O O12 0.171017 0.599130 0.858067
O O13 0.181790 0.613029 0.954004
O O14 0.384887 0.558282 0.290815
O O15 0.435371 0.401171 0.362147
O O16 0.079813 0.642404 0.957502
#
# Coordination Sequence:
#
# PCOD9370692 Si02
#       8
#    16  16   8  16  16  16  16  16
#     4  10  22  38  61  91 124 161 211 265 314 381
#     4  11  21  39  64  90 124 167 206 255 325 383
#     4  10  20  38  64  92 128 170 208 270 330 370
#     4  11  20  37  65  91 124 162 214 264 308 391
#     4  10  23  42  64  94 130 166 214 272 315 385
#     4  11  21  40  64  90 123 169 209 258 322 384
#     4  10  22  41  61  94 127 160 214 263 317 380
#     4  10  23  40  61  93 128 160 207 268 317 383
#
# _framework density 20.51295
#
# number of rings (size 3 to 8) (size 9 to 14) (size 15 to 20)
#    0.000    1.600    6.000    0.400    0.000    5.333 
#    0.000    7.333    0.000    0.000    0.000    0.000 
#    0.000    0.000    0.000    0.000    0.000    0.000 
#
# Total GULP energy -167167.621562 kJ/mol
# GULP energy per Si atom -5572.254052 kJ/mol
# Density = 2.046626 g / cm^3
# Si number density = 20.512950 Si / 1000 Ang^3
#
#
#
# Elastic Constant Matrix: (Units=GPa)
#
#
# Indices 1 2 3 4 5 6 
#
# 1 107.8330 33.0095 50.7464 0.0000 0.0000 -0.0001
# 2 33.0095 52.1544 15.9476 0.0000 0.0000 -0.0001
# 3 50.7464 15.9476 97.5996 0.0000 0.0000 0.0000
# 4 0.0000 0.0000 0.0000 1.5575 0.0000 0.0000
# 5 0.0000 0.0000 0.0000 0.0000 -35.6759 0.0000
# 6 -0.0001 -0.0001 0.0000 0.0000 0.0000 35.9409
#
#
#
# Elastic Compliance Matrix: (Units=1/GPa)
#
#
# Indices 1 2 3 4 5 6 
#
# 1 0.014468 -0.007218 -0.006343 0.000000 0.000000 0.000000
# 2 -0.007218 0.023783 -0.000133 0.000000 0.000000 0.000000
# 3 -0.006343 -0.000133 0.013566 0.000000 0.000000 0.000000
# 4 0.000000 0.000000 0.000000 0.642046 0.000000 0.000000
# 5 0.000000 0.000000 0.000000 0.000000 -0.028030 0.000000
# 6 0.000000 0.000000 0.000000 0.000000 0.000000 0.027823
#
#
# Mechanical properties :
#
#
# Convention : Reuss Voigt Hill
#
# Bulk Modulus (GPa) = 40.93594 50.77712 45.85653
# Shear Modulus (GPa) = 6.85695 10.89008 8.87351
#
# Velocity S-wave (km/s) = 1.83030 2.30660 2.08211
# Velocity P-wave (km/s) = 4.94633 5.64812 5.30883
#
# Compressibility (1/GPa) = 0.02442841
#
# Stress axis : x y z
#
# Youngs Moduli (GPa) = 69.11719 42.04731 73.71426
#
# Poissons Ratio (x) = 0.30348 0.46759
# Poissons Ratio (y) = 0.49886 0.00983
# Poissons Ratio (z) = 0.43843 0.00561
#
# Static dielectric constant tensor:
#      x y z
#    x 1.747660 0.000000 0.000000 
#    y 0.000000 1.838850 0.000000 
#    z 0.000000 0.000000 1.708110 
# 
# From -- ./inp_files/26607.got.cif
#   From: 2010.05.17/outbox.cif.g08.bks.cpg/sg43_14_cif.got.tgz:26607.got - 2010.06.03 19:21:55.
