data_PCOD9370983
_publ_section_title
;
Structure prediction by ZEFSAII (Michael W. Deem and Ramdas Pophale) SiO2 
 PCOD9370983
Probable space group: F D D 2
;
_chemical_formula_sum "Si O2"
_cell_formula_units_Z 96
_cell_length_a 7.026512
_cell_length_b 26.840727
_cell_length_c 20.055793
_cell_angle_alpha 90.000000
_cell_angle_beta 90.000000
_cell_angle_gamma 90.000000
_cell_volume 3782.456182
_symmetry_space_group_name_H-M "F D D 2"
_symmetry_group_IT_number 43
_symmetry_cell_setting 'orthorhombic'
loop_
_space_group_symop_operation_xyz
x,y,z
-x,-y,z
1/4-x,1/4+y,1/4+z
1/4+x,1/4-y,1/4+z
x,1/2+y,1/2+z
-x,1/2-y,1/2+z
1/4-x,3/4+y,3/4+z
1/4+x,3/4-y,3/4+z
1/2+x,y,1/2+z
1/2-x,-y,1/2+z
3/4-x,1/4+y,3/4+z
3/4+x,1/4-y,3/4+z
1/2+x,1/2+y,z
1/2-x,1/2-y,z
3/4-x,3/4+y,1/4+z
3/4+x,3/4-y,1/4+z
loop_
_atom_site_type_symbol
_atom_site_label
_atom_site_fract_x
_atom_site_fract_y
_atom_site_fract_z
Si Si1 0.080227 0.784485 0.569850
Si Si2 0.781153 0.175745 0.138295
Si Si3 0.885848 0.644228 0.491564
Si Si4 0.250000 0.250000 0.850124
Si Si5 0.250000 0.250000 0.475046
Si Si6 0.456487 0.406387 0.699293
Si Si7 0.798023 0.528231 0.491475
O O1 0.250000 0.750000 0.593467
O O2 0.173752 0.827173 0.525338
O O3 0.931325 0.806492 0.620692
O O4 0.943941 0.757439 0.516220
O O5 0.880590 0.163201 0.068333
O O6 0.722675 0.127549 0.180565
O O7 0.815477 0.087653 0.003974
O O8 0.789466 0.692176 0.451225
O O9 0.660583 0.535009 0.427131
O O10 0.082437 0.634281 0.452963
O O11 0.276441 0.202607 0.898334
O O12 0.431034 0.249126 0.800466
O O13 0.000000 0.500000 0.485399
#
# Coordination Sequence:
#
# PCOD9370983 Si02
#       7
#    16  16  16   8   8  16  16
#     4  11  23  48  78 116 156 207 275 332 409 485
#     4  11  27  52  83 120 170 212 287 353 417 518
#     4  11  25  51  83 122 160 230 284 344 424 504
#     4  12  28  59  80 122 172 227 276 356 434 526
#     4  10  20  45  76 114 154 193 278 334 392 484
#     4  12  25  52  85 118 164 219 285 349 417 510
#     4  12  31  57  80 121 176 226 275 353 449 512
#
# _framework density 25.380334999999999
#
# number of rings (size 3 to 8) (size 9 to 14) (size 15 to 20)
#    0.000    0.667    4.167    2.000    2.333    5.333 
#   19.500    0.000    0.000    0.000    0.000    0.000 
#    0.000    0.000    0.000    0.000    0.000    0.000 
#
# Total GULP energy -133903.434322 kJ/mol
# GULP energy per Si atom -5579.309763 kJ/mol
# Density = 2.532257 g / cm^3
# Si number density = 25.380335 Si / 1000 Ang^3
#
#
#
# Elastic Constant Matrix: (Units=GPa)
#
#
# Indices 1 2 3 4 5 6 
#
# 1 159.8654 43.3761 41.6092 0.0000 0.0000 0.0000
# 2 43.3761 120.9453 29.0510 0.0000 0.0000 0.0000
# 3 41.6092 29.0510 83.4273 0.0000 0.0000 0.0000
# 4 0.0000 0.0000 0.0000 -102.2778 0.0000 0.0000
# 5 0.0000 0.0000 0.0000 0.0000 39.7766 0.0000
# 6 0.0000 0.0000 0.0000 0.0000 0.0000 50.9523
#
#
#
# Elastic Compliance Matrix: (Units=1/GPa)
#
#
# Indices 1 2 3 4 5 6 
#
# 1 0.007600 -0.001981 -0.003101 0.000000 0.000000 0.000000
# 2 -0.001981 0.009539 -0.002334 0.000000 0.000000 0.000000
# 3 -0.003101 -0.002334 0.014346 0.000000 0.000000 0.000000
# 4 0.000000 0.000000 0.000000 -0.009777 0.000000 0.000000
# 5 0.000000 0.000000 0.000000 0.000000 0.025140 0.000000
# 6 0.000000 0.000000 0.000000 0.000000 0.000000 0.019626
#
#
# Mechanical properties :
#
#
# Convention : Reuss Voigt Hill
#
# Bulk Modulus (GPa) = 60.04542 65.81231 62.92887
# Shear Modulus (GPa) = 57.56683 14.37033 35.96858
#
# Velocity S-wave (km/s) = 4.76769 2.38208 3.76863
# Velocity P-wave (km/s) = 7.34966 5.79245 6.61702
#
# Compressibility (1/GPa) = 0.01665406
#
# Stress axis : x y z
#
# Youngs Moduli (GPa) = 131.58366 104.83076 69.70798
#
# Poissons Ratio (x) = 0.20765 0.21614
# Poissons Ratio (y) = 0.26064 0.16268
# Poissons Ratio (z) = 0.40799 0.24465
#
# Static dielectric constant tensor:
#      x y z
#    x 1.964350 0.000000 0.000000 
#    y 0.000000 2.915070 0.000000 
#    z 0.000000 0.000000 2.060820 
# 
# From -- ./inp_files/24497.got.cif
#   From: 2010.05.17/outbox.cif.g08.bks.cpg/sg43_13_cif.got.tgz:24497.got - 2010.06.03 19:21:55.
