data_PCOD9370615
_publ_section_title
;
Structure prediction by ZEFSAII (Michael W. Deem and Ramdas Pophale) SiO2 
 PCOD9370615
Probable space group: F D D 2
;
_chemical_formula_sum "Si O2"
_cell_formula_units_Z 104
_cell_length_a 20.672285
_cell_length_b 13.946693
_cell_length_c 17.954214
_cell_angle_alpha 90.000000
_cell_angle_beta 90.000000
_cell_angle_gamma 90.000000
_cell_volume 5176.379663
_symmetry_space_group_name_H-M "F D D 2"
_symmetry_group_IT_number 43
_symmetry_cell_setting 'orthorhombic'
loop_
_space_group_symop_operation_xyz
x,y,z
-x,-y,z
1/4-x,1/4+y,1/4+z
1/4+x,1/4-y,1/4+z
x,1/2+y,1/2+z
-x,1/2-y,1/2+z
1/4-x,3/4+y,3/4+z
1/4+x,3/4-y,3/4+z
1/2+x,y,1/2+z
1/2-x,-y,1/2+z
3/4-x,1/4+y,3/4+z
3/4+x,1/4-y,3/4+z
1/2+x,1/2+y,z
1/2-x,1/2-y,z
3/4-x,3/4+y,1/4+z
3/4+x,3/4-y,1/4+z
loop_
_atom_site_type_symbol
_atom_site_label
_atom_site_fract_x
_atom_site_fract_y
_atom_site_fract_z
Si Si1 0.393980 0.976830 0.998640
Si Si2 0.114367 0.237050 0.437641
Si Si3 0.500000 0.000000 0.615049
Si Si4 0.932463 0.845973 0.283529
Si Si5 0.265713 0.546141 0.441940
Si Si6 0.955137 0.687910 0.540925
Si Si7 0.500000 0.000000 0.126528
Si Si8 0.250000 0.750000 0.124339
O O1 0.377046 0.865997 0.980660
O O2 0.327290 0.035532 0.996225
O O3 0.438468 0.009650 0.928645
O O4 0.437714 0.989070 0.071935
O O5 0.189525 0.268800 0.418110
O O6 0.097981 0.215895 0.349833
O O7 0.036332 0.258971 0.464084
O O8 0.488801 0.090869 0.561948
O O9 0.870689 0.917651 0.264290
O O10 0.959713 0.774440 0.221797
O O11 0.987163 0.910198 0.321282
O O12 0.289330 0.503449 0.362463
O O13 0.244911 0.654448 0.426201
#
# Coordination Sequence:
#
# PCOD9370615 Si02
#       8
#    16  16   8  16  16  16   8   8
#     4  10  21  40  65  91 121 162 216 266 312 366
#     4  10  20  40  61  97 125 167 213 265 319 376
#     4  10  20  37  60 102 129 154 216 276 314 371
#     4  10  23  35  63  97 127 158 216 265 321 371
#     4  12  23  41  65  94 130 171 208 270 318 380
#     4  11  21  37  63  96 128 165 209 270 318 377
#     4  11  26  44  60  96 137 164 216 262 323 396
#     4   9  18  35  62  98 120 148 206 280 307 357
#
# _framework density 20.091262
#
# number of rings (size 3 to 8) (size 9 to 14) (size 15 to 20)
#    0.000    1.538    6.154    0.923    4.308    0.615 
#    0.000    8.462    0.000    0.000    0.000    0.000 
#    0.000    0.000    0.000    0.000    0.000    0.000 
#
# Total GULP energy -144755.069435 kJ/mol
# GULP energy per Si atom -5567.502671 kJ/mol
# Density = 2.004553 g / cm^3
# Si number density = 20.091262 Si / 1000 Ang^3
#
#
#
# Elastic Constant Matrix: (Units=GPa)
#
#
# Indices 1 2 3 4 5 6 
#
# 1 80.5392 50.9469 32.8438 0.0000 0.0000 0.0000
# 2 50.9469 132.0324 32.0029 0.0000 0.0000 0.0000
# 3 32.8438 32.0029 66.8706 0.0000 0.0000 0.0000
# 4 0.0000 0.0000 0.0000 32.1633 0.0000 0.0000
# 5 0.0000 0.0000 0.0000 0.0000 26.8853 0.0000
# 6 0.0000 0.0000 0.0000 0.0000 0.0000 24.2885
#
#
#
# Elastic Compliance Matrix: (Units=1/GPa)
#
#
# Indices 1 2 3 4 5 6 
#
# 1 0.018596 -0.005613 -0.006447 0.000000 0.000000 0.000000
# 2 -0.005613 0.010262 -0.002154 0.000000 0.000000 0.000000
# 3 -0.006447 -0.002154 0.019152 0.000000 0.000000 0.000000
# 4 0.000000 0.000000 0.000000 0.031091 0.000000 0.000000
# 5 0.000000 0.000000 0.000000 0.000000 0.037195 0.000000
# 6 0.000000 0.000000 0.000000 0.000000 0.000000 0.041172
#
#
# Mechanical properties :
#
#
# Convention : Reuss Voigt Hill
#
# Bulk Modulus (GPa) = 51.07050 56.78107 53.92578
# Shear Modulus (GPa) = 25.98429 27.57734 26.78082
#
# Velocity S-wave (km/s) = 3.60017 3.70889 3.65493
# Velocity P-wave (km/s) = 6.53881 6.83111 6.68656
#
# Compressibility (1/GPa) = 0.01958078
#
# Stress axis : x y z
#
# Youngs Moduli (GPa) = 53.77481 97.44785 52.21408
#
# Poissons Ratio (x) = 0.54696 0.33664
# Poissons Ratio (y) = 0.30183 0.11249
# Poissons Ratio (z) = 0.34670 0.20994
#
# Static dielectric constant tensor:
#      x y z
#    x 1.805690 0.000000 0.000000 
#    y 0.000000 1.878000 0.000000 
#    z 0.000000 0.000000 1.737370 
# 
# From -- ./inp_files/18376.got.cif
#   From: 2010.05.17/outbox.cif.g08.bks.cpg/sg43_10_cif.got.tgz:18376.got - 2010.06.03 19:21:55.
