data_PCOD9370346
_publ_section_title
;
Structure prediction by ZEFSAII (Michael W. Deem and Ramdas Pophale) SiO2 
 PCOD9370346
Probable space group: F D D 2
;
_chemical_formula_sum "Si O2"
_cell_formula_units_Z 120
_cell_length_a 21.959350
_cell_length_b 18.616460
_cell_length_c 13.385338
_cell_angle_alpha 90.000000
_cell_angle_beta 90.000000
_cell_angle_gamma 90.000000
_cell_volume 5471.997932
_symmetry_space_group_name_H-M "F D D 2"
_symmetry_group_IT_number 43
_symmetry_cell_setting 'orthorhombic'
loop_
_space_group_symop_operation_xyz
x,y,z
-x,-y,z
1/4-x,1/4+y,1/4+z
1/4+x,1/4-y,1/4+z
x,1/2+y,1/2+z
-x,1/2-y,1/2+z
1/4-x,3/4+y,3/4+z
1/4+x,3/4-y,3/4+z
1/2+x,y,1/2+z
1/2-x,-y,1/2+z
3/4-x,1/4+y,3/4+z
3/4+x,1/4-y,3/4+z
1/2+x,1/2+y,z
1/2-x,1/2-y,z
3/4-x,3/4+y,1/4+z
3/4+x,3/4-y,1/4+z
loop_
_atom_site_type_symbol
_atom_site_label
_atom_site_fract_x
_atom_site_fract_y
_atom_site_fract_z
Si Si1 0.967782 0.849650 0.405990
Si Si2 0.326968 0.915473 0.306438
Si Si3 0.617116 0.356855 0.871255
Si Si4 0.715272 0.467283 0.953374
Si Si5 0.369656 0.052194 0.197808
Si Si6 0.750000 0.250000 0.063360
Si Si7 0.485195 0.155294 0.521721
Si Si8 0.584567 0.959634 0.634902
O O1 0.987897 0.795612 0.315055
O O2 0.895712 0.834599 0.409661
O O3 0.011683 0.840363 0.501078
O O4 0.978953 0.931405 0.374282
O O5 0.356365 0.839974 0.345644
O O6 0.315975 0.962269 0.407488
O O7 0.365094 0.967478 0.228622
O O8 0.666307 0.402771 0.934452
O O9 0.592500 0.410881 0.788095
O O10 0.648079 0.284546 0.833076
O O11 0.564939 0.326817 0.941475
O O12 0.767524 0.451957 0.872502
O O13 0.301482 0.082809 0.223505
O O14 0.696461 0.226036 0.989660
O O15 0.463693 0.079015 0.563607
#
# Coordination Sequence:
#
# PCOD9370346 Si02
#       8
#    16  16  16  16  16   8  16  16
#     4  12  24  43  70  99 143 181 229 288 353 430
#     4  10  24  45  68  96 143 186 237 289 356 434
#     4  10  19  35  61  97 132 161 222 293 349 404
#     4  10  20  38  62  98 127 167 223 287 346 405
#     4  10  23  42  63  99 134 179 233 287 349 426
#     4  12  24  44  64 106 138 176 240 282 348 432
#     4  10  19  34  62  98 128 170 222 289 350 401
#     4  12  19  36  66 102 131 176 225 299 357 393
#
# _framework density 21.929832999999999
#
# number of rings (size 3 to 8) (size 9 to 14) (size 15 to 20)
#    0.000    1.600    4.000    3.200    1.867    0.000 
#    2.400    1.333    0.000    0.000    0.000    0.000 
#    0.000    0.000    0.000    0.000    0.000    0.000 
#
# Total GULP energy -167171.957044 kJ/mol
# GULP energy per Si atom -5572.398568 kJ/mol
# Density = 2.187992 g / cm^3
# Si number density = 21.929833 Si / 1000 Ang^3
#
#
#
# Elastic Constant Matrix: (Units=GPa)
#
#
# Indices 1 2 3 4 5 6 
#
# 1 71.3137 14.6215 48.3385 0.0000 0.0000 0.0000
# 2 14.6215 80.9791 32.3786 0.0000 0.0000 0.0000
# 3 48.3385 32.3786 85.3387 0.0000 0.0000 0.0000
# 4 0.0000 0.0000 0.0000 38.4289 0.0000 0.0000
# 5 0.0000 0.0000 0.0000 0.0000 23.4444 0.0000
# 6 0.0000 0.0000 0.0000 0.0000 0.0000 3.1189
#
#
#
# Elastic Compliance Matrix: (Units=1/GPa)
#
#
# Indices 1 2 3 4 5 6 
#
# 1 0.022867 0.001238 -0.013422 0.000000 0.000000 0.000000
# 2 0.001238 0.014624 -0.006250 0.000000 0.000000 0.000000
# 3 -0.013422 -0.006250 0.021692 0.000000 0.000000 0.000000
# 4 0.000000 0.000000 0.000000 0.026022 0.000000 0.000000
# 5 0.000000 0.000000 0.000000 0.000000 0.042654 0.000000
# 6 0.000000 0.000000 0.000000 0.000000 0.000000 0.320626
#
#
# Mechanical properties :
#
#
# Convention : Reuss Voigt Hill
#
# Bulk Modulus (GPa) = 44.81314 47.58985 46.20150
# Shear Modulus (GPa) = 10.14628 22.48463 16.31546
#
# Velocity S-wave (km/s) = 2.15331 3.20550 2.73057
# Velocity P-wave (km/s) = 5.16348 5.95386 5.57270
#
# Compressibility (1/GPa) = 0.02231488
#
# Stress axis : x y z
#
# Youngs Moduli (GPa) = 43.73194 68.37944 46.10010
#
# Poissons Ratio (x) = -0.08464 0.61876
# Poissons Ratio (y) = -0.05413 0.28812
# Poissons Ratio (z) = 0.58697 0.42736
#
# Static dielectric constant tensor:
#      x y z
#    x 1.863850 0.000000 0.000000 
#    y 0.000000 1.881890 0.000000 
#    z 0.000000 0.000000 1.866670 
# 
# From -- ./inp_files/11023.got.cif
#   From: 2010.05.17/outbox.cif.g08.bks.cpg/sg43_6_cif.got.tgz:11023.got - 2010.06.03 19:21:55.
