data_PCOD9370290
_publ_section_title
;
Structure prediction by ZEFSAII (Michael W. Deem and Ramdas Pophale) SiO2 
 PCOD9370290
Probable space group: F D D 2
;
_chemical_formula_sum "Si O2"
_cell_formula_units_Z 88
_cell_length_a 24.730661
_cell_length_b 15.479754
_cell_length_c 10.311847
_cell_angle_alpha 90.000000
_cell_angle_beta 90.000000
_cell_angle_gamma 90.000000
_cell_volume 3947.628172
_symmetry_space_group_name_H-M "F D D 2"
_symmetry_group_IT_number 43
_symmetry_cell_setting 'orthorhombic'
loop_
_space_group_symop_operation_xyz
x,y,z
-x,-y,z
1/4-x,1/4+y,1/4+z
1/4+x,1/4-y,1/4+z
x,1/2+y,1/2+z
-x,1/2-y,1/2+z
1/4-x,3/4+y,3/4+z
1/4+x,3/4-y,3/4+z
1/2+x,y,1/2+z
1/2-x,-y,1/2+z
3/4-x,1/4+y,3/4+z
3/4+x,1/4-y,3/4+z
1/2+x,1/2+y,z
1/2-x,1/2-y,z
3/4-x,3/4+y,1/4+z
3/4+x,3/4-y,1/4+z
loop_
_atom_site_type_symbol
_atom_site_label
_atom_site_fract_x
_atom_site_fract_y
_atom_site_fract_z
Si Si1 0.406556 0.879496 0.092290
Si Si2 0.250000 0.250000 0.949730
Si Si3 0.424295 0.895503 0.554468
Si Si4 0.381789 0.330141 0.302652
Si Si5 0.027805 0.865317 0.916454
Si Si6 0.180247 0.983812 0.587678
O O1 0.417112 0.802619 0.194655
O O2 0.454422 0.948432 0.120457
O O3 0.348336 0.925772 0.114402
O O4 0.403873 0.853349 0.942684
O O5 0.220533 0.179811 0.043630
O O6 0.424071 0.844390 0.688318
O O7 0.485678 0.908922 0.514419
O O8 0.403458 0.834234 0.438542
O O9 0.391994 0.984060 0.553966
O O10 0.332710 0.389390 0.245952
O O11 0.994139 0.780496 0.869591
#
# Coordination Sequence:
#
# PCOD9370290 Si02
#       6
#    16   8  16  16  16  16
#     4  11  22  38  63  93 127 150 212 264 309 351
#     4  10  18  42  64  84 116 188 198 228 312 418
#     4  10  21  38  68  84 119 167 209 233 308 377
#     4  12  21  40  59  96 124 152 203 273 301 355
#     4   9  19  38  68  79 119 170 215 217 311 396
#     4   9  20  40  61  88 114 171 205 242 301 384
#
# _framework density 22.291865999999999
#
# number of rings (size 3 to 8) (size 9 to 14) (size 15 to 20)
#    1.091    0.727    1.818    3.273    0.000    0.000 
#    9.818    3.636    0.000    0.000    0.000    0.000 
#    0.000    0.000    0.000    0.000    0.000    0.000 
#
# Total GULP energy -122710.134799 kJ/mol
# GULP energy per Si atom -5577.733400 kJ/mol
# Density = 2.224113 g / cm^3
# Si number density = 22.291866 Si / 1000 Ang^3
#
#
#
# Elastic Constant Matrix: (Units=GPa)
#
#
# Indices 1 2 3 4 5 6 
#
# 1 17.1531 28.0741 57.9584 0.0000 0.0000 0.0000
# 2 28.0741 37.6103 21.1944 0.0000 0.0000 0.0000
# 3 57.9584 21.1944 165.1310 0.0000 0.0000 0.0000
# 4 0.0000 0.0000 0.0000 32.6500 0.0000 0.0000
# 5 0.0000 0.0000 0.0000 0.0000 -557.7023 0.0000
# 6 0.0000 0.0000 0.0000 0.0000 0.0000 8.9178
#
#
#
# Elastic Compliance Matrix: (Units=1/GPa)
#
#
# Indices 1 2 3 4 5 6 
#
# 1 -0.064962 0.038420 0.017869 0.000000 0.000000 0.000000
# 2 0.038420 0.005938 -0.014247 0.000000 0.000000 0.000000
# 3 0.017869 -0.014247 0.001613 0.000000 0.000000 0.000000
# 4 0.000000 0.000000 0.000000 0.030628 0.000000 0.000000
# 5 0.000000 0.000000 0.000000 0.000000 -0.001793 0.000000
# 6 0.000000 0.000000 0.000000 0.000000 0.000000 0.112135
#
#
# Mechanical properties :
#
#
# Convention : Reuss Voigt Hill
#
# Bulk Modulus (GPa) = 37.48906 48.26090 42.87498
# Shear Modulus (GPa) = 597.67188 -95.71573 250.97807
#
# Velocity S-wave (km/s) = 16.39189 -6.55978 10.62223
# Velocity P-wave (km/s) = 19.36783 5.97309 13.02757
#
# Compressibility (1/GPa) = 0.02667445
#
# Stress axis : x y z
#
# Youngs Moduli (GPa) = -15.39371 168.39807 620.12643
#
# Poissons Ratio (x) = -6.46993 -11.08121
# Poissons Ratio (y) = 0.59143 8.83504
# Poissons Ratio (z) = 0.27507 2.39919
#
# Static dielectric constant tensor:
#      x y z
#    x 2.321780 0.000000 0.000000 
#    y 0.000000 1.865880 0.000000 
#    z 0.000000 0.000000 1.788770 
# 
# From -- ./inp_files/4688.got.cif
#   From: 2010.05.17/outbox.cif.g08.bks.cpg/sg43_3_cif.got.tgz:4688.got - 2010.06.03 19:21:55.
