data_PCOD9370155
_publ_section_title
;
Structure prediction by ZEFSAII (Michael W. Deem and Ramdas Pophale) SiO2 
 PCOD9370155
Probable space group: F D D 2
;
_chemical_formula_sum "Si O2"
_cell_formula_units_Z 120
_cell_length_a 30.952083
_cell_length_b 13.908417
_cell_length_c 12.055429
_cell_angle_alpha 90.000000
_cell_angle_beta 90.000000
_cell_angle_gamma 90.000000
_cell_volume 5189.795607
_symmetry_space_group_name_H-M "F D D 2"
_symmetry_group_IT_number 43
_symmetry_cell_setting 'orthorhombic'
loop_
_space_group_symop_operation_xyz
x,y,z
-x,-y,z
1/4-x,1/4+y,1/4+z
1/4+x,1/4-y,1/4+z
x,1/2+y,1/2+z
-x,1/2-y,1/2+z
1/4-x,3/4+y,3/4+z
1/4+x,3/4-y,3/4+z
1/2+x,y,1/2+z
1/2-x,-y,1/2+z
3/4-x,1/4+y,3/4+z
3/4+x,1/4-y,3/4+z
1/2+x,1/2+y,z
1/2-x,1/2-y,z
3/4-x,3/4+y,1/4+z
3/4+x,3/4-y,1/4+z
loop_
_atom_site_type_symbol
_atom_site_label
_atom_site_fract_x
_atom_site_fract_y
_atom_site_fract_z
Si Si1 0.273996 0.106649 0.793050
Si Si2 0.719686 0.039625 0.596688
Si Si3 0.500000 0.500000 0.880750
Si Si4 0.193271 0.197410 0.723175
Si Si5 0.185247 0.241900 0.314124
Si Si6 0.850163 0.039994 0.424221
Si Si7 0.283274 0.895448 0.995619
Si Si8 0.617334 0.324674 0.953401
O O1 0.226037 0.148565 0.810702
O O2 0.300046 0.188390 0.725142
O O3 0.306646 0.098262 0.896251
O O4 0.269780 0.009525 0.719078
O O5 0.735413 0.149054 0.578429
O O6 0.668309 0.047242 0.610582
O O7 0.743105 0.967992 0.510845
O O8 0.461078 0.467736 0.961342
O O9 0.142955 0.171056 0.732592
O O10 0.212935 0.164369 0.606933
O O11 0.215508 0.171623 0.388157
O O12 0.163240 0.318217 0.394875
O O13 0.149134 0.171524 0.260798
O O14 0.828862 0.952631 0.490849
O O15 0.865978 0.002265 0.303756
#
# Coordination Sequence:
#
# PCOD9370155 Si02
#       8
#    16  16   8  16  16  16  16  16
#     4   9  20  33  52  87 122 146 193 254 294 348
#     4   9  20  38  56  76 118 158 187 234 286 353
#     4  10  22  40  60  76 116 162 194 228 294 348
#     4  10  18  32  55  84 118 155 189 241 310 350
#     4  10  20  34  57  87 108 147 191 240 290 344
#     4  10  18  32  54  83 121 156 186 242 299 356
#     4  10  20  33  58  89 111 153 193 234 299 353
#     4   9  19  32  54  84 114 140 186 243 295 326
#
# _framework density 23.122298000000001
#
# number of rings (size 3 to 8) (size 9 to 14) (size 15 to 20)
#    0.000    2.400    1.333    1.600    5.600    3.200 
#    0.000    1.333   14.667    0.000    0.000    0.000 
#    0.000    0.000    0.000    0.000    0.000    0.000 
#
# Total GULP energy -167270.999501 kJ/mol
# GULP energy per Si atom -5575.699983 kJ/mol
# Density = 2.306967 g / cm^3
# Si number density = 23.122298 Si / 1000 Ang^3
#
#
#
# Elastic Constant Matrix: (Units=GPa)
#
#
# Indices 1 2 3 4 5 6 
#
# 1 120.8649 37.9676 34.0882 0.0000 0.0000 0.0000
# 2 37.9676 70.3178 18.4992 0.0000 0.0000 0.0000
# 3 34.0882 18.4992 48.9523 0.0000 0.0000 0.0000
# 4 0.0000 0.0000 0.0000 11.6714 0.0000 0.0000
# 5 0.0000 0.0000 0.0000 0.0000 32.7537 0.0000
# 6 0.0000 0.0000 0.0000 0.0000 0.0000 31.9486
#
#
#
# Elastic Compliance Matrix: (Units=1/GPa)
#
#
# Indices 1 2 3 4 5 6 
#
# 1 0.011469 -0.004543 -0.006270 0.000000 0.000000 0.000000
# 2 -0.004543 0.017591 -0.003484 0.000000 0.000000 0.000000
# 3 -0.006270 -0.003484 0.026111 0.000000 0.000000 0.000000
# 4 0.000000 0.000000 0.000000 0.085679 0.000000 0.000000
# 5 0.000000 0.000000 0.000000 0.000000 0.030531 0.000000
# 6 0.000000 0.000000 0.000000 0.000000 0.000000 0.031300
#
#
# Mechanical properties :
#
#
# Convention : Reuss Voigt Hill
#
# Bulk Modulus (GPa) = 37.62675 46.80500 42.21588
# Shear Modulus (GPa) = 20.82174 25.24674 23.03424
#
# Velocity S-wave (km/s) = 3.00410 3.30794 3.15967
# Velocity P-wave (km/s) = 5.32363 5.90562 5.62216
#
# Compressibility (1/GPa) = 0.02657683
#
# Stress axis : x y z
#
# Youngs Moduli (GPa) = 87.19028 56.84799 38.29867
#
# Poissons Ratio (x) = 0.25828 0.24012
# Poissons Ratio (y) = 0.39613 0.13343
# Poissons Ratio (z) = 0.54666 0.19805
#
# Static dielectric constant tensor:
#      x y z
#    x 1.898030 0.000000 0.000000 
#    y 0.000000 1.919180 0.000000 
#    z 0.000000 0.000000 1.884420 
# 
# From -- ./inp_files/11729.got.cif
#   From: 2010.05.17/outbox.cif.g08.bks.cpg/sg43_6_cif.got.tgz:11729.got - 2010.06.03 19:21:55.
