data_PCOD9370922
_publ_section_title
;
Structure prediction by ZEFSAII (Michael W. Deem and Ramdas Pophale) SiO2 
 PCOD9370922
Probable space group: F D D 2
;
_chemical_formula_sum "Si O2"
_cell_formula_units_Z 56
_cell_length_a 7.183035
_cell_length_b 12.599648
_cell_length_c 24.673888
_cell_angle_alpha 90.000000
_cell_angle_beta 90.000000
_cell_angle_gamma 90.000000
_cell_volume 2233.078468
_symmetry_space_group_name_H-M "F D D 2"
_symmetry_group_IT_number 43
_symmetry_cell_setting 'orthorhombic'
loop_
_space_group_symop_operation_xyz
x,y,z
-x,-y,z
1/4-x,1/4+y,1/4+z
1/4+x,1/4-y,1/4+z
x,1/2+y,1/2+z
-x,1/2-y,1/2+z
1/4-x,3/4+y,3/4+z
1/4+x,3/4-y,3/4+z
1/2+x,y,1/2+z
1/2-x,-y,1/2+z
3/4-x,1/4+y,3/4+z
3/4+x,1/4-y,3/4+z
1/2+x,1/2+y,z
1/2-x,1/2-y,z
3/4-x,3/4+y,1/4+z
3/4+x,3/4-y,1/4+z
loop_
_atom_site_type_symbol
_atom_site_label
_atom_site_fract_x
_atom_site_fract_y
_atom_site_fract_z
Si Si1 0.030436 0.270079 0.179170
Si Si2 0.793896 0.977392 0.309925
Si Si3 0.750000 0.750000 0.886273
Si Si4 0.478694 0.320536 0.791960
O O1 0.250000 0.250000 0.176078
O O2 0.948681 0.216673 0.125534
O O3 0.995672 0.395395 0.171554
O O4 0.957063 0.248293 0.239017
O O5 0.750000 0.750000 0.538983
O O6 0.681718 0.874545 0.290075
O O7 0.664123 0.079618 0.296824
O O8 0.572000 0.743461 0.846181
#
# Coordination Sequence:
#
# PCOD9370922 Si02
#       4
#    16  16   8  16
#     4  11  22  42  71  98 142 187 237 297 359 432
#     4  10  21  44  64  97 145 182 241 299 350 438
#     4  10  20  42  68  96 138 186 230 294 364 414
#     4  10  22  41  66  99 138 189 232 297 364 424
#
# _framework density 25.077487999999999
#
# number of rings (size 3 to 8) (size 9 to 14) (size 15 to 20)
#    0.000    1.714    5.714    1.714    2.000    4.571 
#    0.000    0.000    0.000    1.714    0.000    0.000 
#    0.000    0.000    0.000    0.000    0.000    0.000 
#
# Total GULP energy -78389.988821 kJ/mol
# GULP energy per Si atom -5599.284916 kJ/mol
# Density = 2.502041 g / cm^3
# Si number density = 25.077488 Si / 1000 Ang^3
#
#
#
# Elastic Constant Matrix: (Units=GPa)
#
#
# Indices 1 2 3 4 5 6 
#
# 1 181.2633 27.0815 9.5668 0.0000 0.0000 0.0000
# 2 27.0815 90.5309 6.2856 0.0000 0.0000 0.0000
# 3 9.5668 6.2856 104.7419 0.0000 0.0000 0.0000
# 4 0.0000 0.0000 0.0000 20.2877 0.0000 0.0000
# 5 0.0000 0.0000 0.0000 0.0000 7.6977 0.0000
# 6 0.0000 0.0000 0.0000 0.0000 0.0000 41.7639
#
#
#
# Elastic Compliance Matrix: (Units=1/GPa)
#
#
# Indices 1 2 3 4 5 6 
#
# 1 0.005794 -0.001704 -0.000427 0.000000 0.000000 0.000000
# 2 -0.001704 0.011593 -0.000540 0.000000 0.000000 0.000000
# 3 -0.000427 -0.000540 0.009619 0.000000 0.000000 0.000000
# 4 0.000000 0.000000 0.000000 0.049291 0.000000 0.000000
# 5 0.000000 0.000000 0.000000 0.000000 0.129909 0.000000
# 6 0.000000 0.000000 0.000000 0.000000 0.000000 0.023944
#
#
# Mechanical properties :
#
#
# Convention : Reuss Voigt Hill
#
# Bulk Modulus (GPa) = 46.15866 51.37819 48.76842
# Shear Modulus (GPa) = 20.60049 36.19000 28.39524
#
# Velocity S-wave (km/s) = 2.86925 3.80297 3.36862
# Velocity P-wave (km/s) = 5.42431 6.30997 5.88383
#
# Compressibility (1/GPa) = 0.02166441
#
# Stress axis : x y z
#
# Youngs Moduli (GPa) = 172.59573 86.25853 103.96425
#
# Poissons Ratio (x) = 0.14695 0.04439
# Poissons Ratio (y) = 0.29402 0.05615
# Poissons Ratio (z) = 0.07369 0.04659
#
# Static dielectric constant tensor:
#      x y z
#    x 2.014130 0.000000 0.000000 
#    y 0.000000 1.979070 0.000000 
#    z 0.000000 0.000000 1.952230 
# 
# From -- ./inp_files/23854.got.cif
#   From: 2010.05.17/outbox.cif.g08.bks.cpg/sg43_12_cif.got.tgz:23854.got - 2010.06.03 19:21:55.
