data_PCOD9370082
_publ_section_title
;
Structure prediction by ZEFSAII (Michael W. Deem and Ramdas Pophale) SiO2 
 PCOD9370082
Probable space group: F D D 2
;
_chemical_formula_sum "Si O2"
_cell_formula_units_Z 104
_cell_length_a 23.019709
_cell_length_b 14.647270
_cell_length_c 15.608714
_cell_angle_alpha 90.000000
_cell_angle_beta 90.000000
_cell_angle_gamma 90.000000
_cell_volume 5262.882082
_symmetry_space_group_name_H-M "F D D 2"
_symmetry_group_IT_number 43
_symmetry_cell_setting 'orthorhombic'
loop_
_space_group_symop_operation_xyz
x,y,z
-x,-y,z
1/4-x,1/4+y,1/4+z
1/4+x,1/4-y,1/4+z
x,1/2+y,1/2+z
-x,1/2-y,1/2+z
1/4-x,3/4+y,3/4+z
1/4+x,3/4-y,3/4+z
1/2+x,y,1/2+z
1/2-x,-y,1/2+z
3/4-x,1/4+y,3/4+z
3/4+x,1/4-y,3/4+z
1/2+x,1/2+y,z
1/2-x,1/2-y,z
3/4-x,3/4+y,1/4+z
3/4+x,3/4-y,1/4+z
loop_
_atom_site_type_symbol
_atom_site_label
_atom_site_fract_x
_atom_site_fract_y
_atom_site_fract_z
Si Si1 0.723628 0.959038 0.417080
Si Si2 0.846413 0.223128 0.254702
Si Si3 0.608502 0.054291 0.679432
Si Si4 0.842092 0.884341 0.348110
Si Si5 0.280553 0.446489 0.595062
Si Si6 0.516891 0.851491 0.023504
Si Si7 0.500000 0.500000 0.296442
O O1 0.666005 0.900854 0.396777
O O2 0.777524 0.896729 0.384686
O O3 0.738463 0.978573 0.517373
O O4 0.724727 0.049704 0.362242
O O5 0.868989 0.199275 0.159223
O O6 0.903650 0.212450 0.313726
O O7 0.796174 0.149733 0.274911
O O8 0.816758 0.321449 0.264311
O O9 0.655902 0.080271 0.750932
O O10 0.554951 0.021028 0.738279
O O11 0.615487 0.969265 0.614666
O O12 0.271188 0.470118 0.694110
O O13 0.265412 0.338841 0.599185
#
# Coordination Sequence:
#
# PCOD9370082 Si02
#       7
#    16  16  16  16  16  16   8
#     4  10  22  36  56  86 122 153 195 251 304 366
#     4  10  21  34  60  89 117 154 201 259 310 364
#     4  11  19  36  55  88 116 148 193 253 303 368
#     4  11  20  33  63  85 114 148 199 258 320 343
#     4  10  20  35  62  87 121 152 197 263 308 353
#     4  11  22  37  56  91 122 160 204 246 313 377
#     4  10  16  34  56  86 116 130 188 264 308 336
#
# _framework density 19.761036000000001
#
# number of rings (size 3 to 8) (size 9 to 14) (size 15 to 20)
#    0.000    1.538    4.615    4.615    4.308    0.000 
#    2.769    0.000    0.000    0.000    4.000    0.000 
#    0.000    0.000    0.000    0.000    0.000    0.000 
#
# Total GULP energy -144995.910409 kJ/mol
# GULP energy per Si atom -5576.765785 kJ/mol
# Density = 1.971606 g / cm^3
# Si number density = 19.761036 Si / 1000 Ang^3
#
#
#
# Elastic Constant Matrix: (Units=GPa)
#
#
# Indices 1 2 3 4 5 6 
#
# 1 75.0977 22.6242 32.1811 0.0000 0.0000 0.0000
# 2 22.6242 70.3751 46.4474 0.0000 0.0000 0.0000
# 3 32.1811 46.4474 79.4920 0.0000 0.0000 0.0000
# 4 0.0000 0.0000 0.0000 25.2168 0.0000 0.0000
# 5 0.0000 0.0000 0.0000 0.0000 21.6068 0.0000
# 6 0.0000 0.0000 0.0000 0.0000 0.0000 27.4855
#
#
#
# Elastic Compliance Matrix: (Units=1/GPa)
#
#
# Indices 1 2 3 4 5 6 
#
# 1 0.016199 -0.001431 -0.005722 0.000000 0.000000 0.000000
# 2 -0.001431 0.023256 -0.013009 0.000000 0.000000 0.000000
# 3 -0.005722 -0.013009 0.022497 0.000000 0.000000 0.000000
# 4 0.000000 0.000000 0.000000 0.039656 0.000000 0.000000
# 5 0.000000 0.000000 0.000000 0.000000 0.046282 0.000000
# 6 0.000000 0.000000 0.000000 0.000000 0.000000 0.036383
#
#
# Mechanical properties :
#
#
# Convention : Reuss Voigt Hill
#
# Bulk Modulus (GPa) = 46.23579 47.49668 46.86623
# Shear Modulus (GPa) = 21.56981 23.10927 22.33954
#
# Velocity S-wave (km/s) = 3.30742 3.42341 3.36591
# Velocity P-wave (km/s) = 6.16714 6.30191 6.23489
#
# Compressibility (1/GPa) = 0.02162827
#
# Stress axis : x y z
#
# Youngs Moduli (GPa) = 61.73201 43.00055 44.44998
#
# Poissons Ratio (x) = 0.06155 0.25432
# Poissons Ratio (y) = 0.08837 0.57824
# Poissons Ratio (z) = 0.35320 0.55938
#
# Static dielectric constant tensor:
#      x y z
#    x 1.739360 0.000000 0.000000 
#    y 0.000000 1.757440 0.000000 
#    z 0.000000 0.000000 1.736070 
# 
# From -- ./inp_files/14605.got.cif
#   From: 2010.05.17/outbox.cif.g08.bks.cpg/sg43_8_cif.got.tgz:14605.got - 2010.06.03 19:21:55.
