data_PCOD9370805
_publ_section_title
;
Structure prediction by ZEFSAII (Michael W. Deem and Ramdas Pophale) SiO2 
 PCOD9370805
Probable space group: F D D 2
;
_chemical_formula_sum "Si O2"
_cell_formula_units_Z 120
_cell_length_a 20.732911
_cell_length_b 30.593234
_cell_length_c 8.638164
_cell_angle_alpha 90.000000
_cell_angle_beta 90.000000
_cell_angle_gamma 90.000000
_cell_volume 5479.073382
_symmetry_space_group_name_H-M "F D D 2"
_symmetry_group_IT_number 43
_symmetry_cell_setting 'orthorhombic'
loop_
_space_group_symop_operation_xyz
x,y,z
-x,-y,z
1/4-x,1/4+y,1/4+z
1/4+x,1/4-y,1/4+z
x,1/2+y,1/2+z
-x,1/2-y,1/2+z
1/4-x,3/4+y,3/4+z
1/4+x,3/4-y,3/4+z
1/2+x,y,1/2+z
1/2-x,-y,1/2+z
3/4-x,1/4+y,3/4+z
3/4+x,1/4-y,3/4+z
1/2+x,1/2+y,z
1/2-x,1/2-y,z
3/4-x,3/4+y,1/4+z
3/4+x,3/4-y,1/4+z
loop_
_atom_site_type_symbol
_atom_site_label
_atom_site_fract_x
_atom_site_fract_y
_atom_site_fract_z
Si Si1 0.667832 0.115811 0.878150
Si Si2 0.391065 0.962627 0.442835
Si Si3 0.462423 0.720226 0.221348
Si Si4 0.325070 0.120796 0.326979
Si Si5 0.056865 0.241346 0.424141
Si Si6 0.378548 0.781251 0.421059
Si Si7 0.670745 0.692679 0.604209
Si Si8 0.750000 0.250000 0.912893
O O1 0.618359 0.123194 0.735180
O O2 0.745697 0.120737 0.838042
O O3 0.660706 0.066191 0.933747
O O4 0.656563 0.145913 0.028539
O O5 0.405257 0.910922 0.460072
O O6 0.444550 0.985883 0.547474
O O7 0.327184 0.974269 0.542442
O O8 0.391195 0.990782 0.283997
O O9 0.519397 0.703730 0.331845
O O10 0.433198 0.760331 0.313400
O O11 0.485532 0.736928 0.056865
O O12 0.348722 0.074003 0.262806
O O13 0.117223 0.222976 0.518623
O O14 0.329622 0.799134 0.287216
O O15 0.735927 0.709697 0.525515
#
# Coordination Sequence:
#
# PCOD9370805 Si02
#       8
#    16  16  16  16  16  16  16   8
#     4  12  24  46  73 103 143 191 251 302 378 455
#     4  11  22  42  70  95 138 191 234 299 377 442
#     4  11  22  41  69 100 137 192 236 305 371 447
#     4  12  26  47  73 108 141 196 251 308 375 466
#     4  10  20  40  65  96 134 181 238 289 364 436
#     4  11  27  43  66 105 148 183 246 308 378 455
#     4  10  23  42  65  98 140 179 233 307 362 439
#     4  10  20  44  68  92 126 186 232 290 368 440
#
# _framework density 21.901513000000001
#
# number of rings (size 3 to 8) (size 9 to 14) (size 15 to 20)
#    0.000    1.067    2.667    4.800    1.867    0.533 
#    0.000    1.333    0.000    0.000    0.000    0.000 
#    0.000    0.000    0.000    0.000    0.000    0.000 
#
# Total GULP energy -167059.913575 kJ/mol
# GULP energy per Si atom -5568.663786 kJ/mol
# Density = 2.185166 g / cm^3
# Si number density = 21.901513 Si / 1000 Ang^3
#
#
#
# Elastic Constant Matrix: (Units=GPa)
#
#
# Indices 1 2 3 4 5 6 
#
# 1 48.8785 -0.0311 25.6255 0.0002 -0.0006 -0.0001
# 2 -0.0311 105.1831 40.6920 0.0000 0.0000 0.0000
# 3 25.6255 40.6920 139.0959 0.0003 -0.0010 -0.0002
# 4 0.0002 0.0000 0.0003 44.3166 -0.0001 0.0000
# 5 -0.0006 0.0000 -0.0010 -0.0001 32.5164 0.0001
# 6 -0.0001 0.0000 -0.0002 0.0000 0.0001 28.1506
#
#
#
# Elastic Compliance Matrix: (Units=1/GPa)
#
#
# Indices 1 2 3 4 5 6 
#
# 1 0.022962 0.001853 -0.004772 0.000000 0.000000 0.000000
# 2 0.001853 0.010870 -0.003521 0.000000 0.000000 0.000000
# 3 -0.004772 -0.003521 0.009099 0.000000 0.000000 0.000000
# 4 0.000000 0.000000 0.000000 0.022565 0.000000 0.000000
# 5 0.000000 0.000000 0.000000 0.000000 0.030754 0.000000
# 6 0.000000 0.000000 0.000000 0.000000 0.000000 0.035523
#
#
# Mechanical properties :
#
#
# Convention : Reuss Voigt Hill
#
# Bulk Modulus (GPa) = 33.27851 47.30338 40.29095
# Shear Modulus (GPa) = 32.32676 36.12146 34.22411
#
# Velocity S-wave (km/s) = 3.84605 4.06552 3.95731
# Velocity P-wave (km/s) = 5.91189 6.60932 6.27031
#
# Compressibility (1/GPa) = 0.03004942
#
# Stress axis : x y z
#
# Youngs Moduli (GPa) = 43.55005 91.99547 109.90612
#
# Poissons Ratio (x) = -0.17048 0.52452
# Poissons Ratio (y) = -0.08070 0.38702
# Poissons Ratio (z) = 0.20784 0.32395
#
# Static dielectric constant tensor:
#      x y z
#    x 1.953370 0.000000 0.000000 
#    y 0.000000 1.872350 0.000000 
#    z 0.000000 0.000000 1.853470 
# 
# From -- ./inp_files/3993.got.cif
#   From: 2010.05.17/outbox.cif.g08.bks.cpg/sg43_2_cif.got.tgz:3993.got - 2010.06.03 19:21:55.
