data_PCOD9370051
_publ_section_title
;
Structure prediction by ZEFSAII (Michael W. Deem and Ramdas Pophale) SiO2 
 PCOD9370051
Probable space group: F D D 2
;
_chemical_formula_sum "Si O2"
_cell_formula_units_Z 72
_cell_length_a 8.905149
_cell_length_b 24.180124
_cell_length_c 15.213789
_cell_angle_alpha 90.000000
_cell_angle_beta 90.000000
_cell_angle_gamma 90.000000
_cell_volume 3275.948780
_symmetry_space_group_name_H-M "F D D 2"
_symmetry_group_IT_number 43
_symmetry_cell_setting 'orthorhombic'
loop_
_space_group_symop_operation_xyz
x,y,z
-x,-y,z
1/4-x,1/4+y,1/4+z
1/4+x,1/4-y,1/4+z
x,1/2+y,1/2+z
-x,1/2-y,1/2+z
1/4-x,3/4+y,3/4+z
1/4+x,3/4-y,3/4+z
1/2+x,y,1/2+z
1/2-x,-y,1/2+z
3/4-x,1/4+y,3/4+z
3/4+x,1/4-y,3/4+z
1/2+x,1/2+y,z
1/2-x,1/2-y,z
3/4-x,3/4+y,1/4+z
3/4+x,3/4-y,1/4+z
loop_
_atom_site_type_symbol
_atom_site_label
_atom_site_fract_x
_atom_site_fract_y
_atom_site_fract_z
Si Si1 0.750000 0.250000 0.717731
Si Si2 0.089778 0.300955 0.511398
Si Si3 0.525078 0.305801 0.581295
Si Si4 0.776921 0.349466 0.465154
Si Si5 0.492016 0.404821 0.094003
O O1 0.624935 0.273830 0.653644
O O2 0.689856 0.201341 0.780296
O O3 0.093386 0.239726 0.550199
O O4 0.924611 0.310074 0.463487
O O5 0.083717 0.347929 0.587437
O O6 0.206567 0.320721 0.438142
O O7 0.630658 0.319011 0.498826
O O8 0.490521 0.363336 0.630494
O O9 0.833944 0.388962 0.545914
#
# Coordination Sequence:
#
# PCOD9370051 Si02
#       5
#     8  16  16  16  16
#     4  10  16  28  48  76  98 124 156 212 236 300
#     4  10  16  28  47  74 100 127 158 208 244 290
#     4  11  17  28  50  72 102 123 166 206 242 284
#     4   9  16  27  43  73  97 121 162 200 236 288
#     4   9  17  27  46  74 101 120 164 200 253 283
#
# _framework density 21.978365
#
# number of rings (size 3 to 8) (size 9 to 14) (size 15 to 20)
#    1.333    0.889    4.444    1.333    0.000    0.000 
#    0.000    0.000    0.000   13.333    0.000    0.000 
#    0.000    0.000    0.000    0.000    0.000    0.000 
#
# Total GULP energy -100282.331749 kJ/mol
# GULP energy per Si atom -5571.240653 kJ/mol
# Density = 2.192834 g / cm^3
# Si number density = 21.978365 Si / 1000 Ang^3
#
#
#
# Elastic Constant Matrix: (Units=GPa)
#
#
# Indices 1 2 3 4 5 6 
#
# 1 41.7629 21.4118 27.6422 0.0000 0.0000 0.0000
# 2 21.4118 98.4019 38.2439 0.0000 0.0000 0.0000
# 3 27.6422 38.2439 84.0868 0.0000 0.0000 0.0000
# 4 0.0000 0.0000 0.0000 44.5115 0.0000 0.0000
# 5 0.0000 0.0000 0.0000 0.0000 -4.2652 0.0000
# 6 0.0000 0.0000 0.0000 0.0000 0.0000 18.3609
#
#
#
# Elastic Compliance Matrix: (Units=1/GPa)
#
#
# Indices 1 2 3 4 5 6 
#
# 1 0.031534 -0.003441 -0.008801 0.000000 0.000000 0.000000
# 2 -0.003441 0.012720 -0.004654 0.000000 0.000000 0.000000
# 3 -0.008801 -0.004654 0.016902 0.000000 0.000000 0.000000
# 4 0.000000 0.000000 0.000000 0.022466 0.000000 0.000000
# 5 0.000000 0.000000 0.000000 0.000000 -0.234458 0.000000
# 6 0.000000 0.000000 0.000000 0.000000 0.000000 0.054464
#
#
# Mechanical properties :
#
#
# Convention : Reuss Voigt Hill
#
# Bulk Modulus (GPa) = 36.54447 44.31635 40.43041
# Shear Modulus (GPa) = -93.53253 20.85170 -36.34042
#
# Velocity S-wave (km/s) = -6.53062 3.08350 -4.07069
# Velocity P-wave (km/s) = 6.34049 5.73452 1.91273
#
# Compressibility (1/GPa) = 0.02736393
#
# Stress axis : x y z
#
# Youngs Moduli (GPa) = 31.71137 78.61665 59.16288
#
# Poissons Ratio (x) = 0.27053 0.52072
# Poissons Ratio (y) = 0.10912 0.27534
# Poissons Ratio (z) = 0.27910 0.36588
#
# Static dielectric constant tensor:
#      x y z
#    x 1.817200 0.000000 0.000000 
#    y 0.000000 1.864890 0.000000 
#    z 0.000000 0.000000 1.780830 
# 
# From -- ./inp_files/5608.got.cif
#   From: 2010.05.17/outbox.cif.g08.bks.cpg/sg43_3_cif.got.tgz:5608.got - 2010.06.03 19:21:55.
