data_PCOD9370571
_publ_section_title
;
Structure prediction by ZEFSAII (Michael W. Deem and Ramdas Pophale) SiO2 
 PCOD9370571
Probable space group: F D D 2
;
_chemical_formula_sum "Si O2"
_cell_formula_units_Z 120
_cell_length_a 28.643464
_cell_length_b 10.695577
_cell_length_c 16.967010
_cell_angle_alpha 90.000000
_cell_angle_beta 90.000000
_cell_angle_gamma 90.000000
_cell_volume 5197.985608
_symmetry_space_group_name_H-M "F D D 2"
_symmetry_group_IT_number 43
_symmetry_cell_setting 'orthorhombic'
loop_
_space_group_symop_operation_xyz
x,y,z
-x,-y,z
1/4-x,1/4+y,1/4+z
1/4+x,1/4-y,1/4+z
x,1/2+y,1/2+z
-x,1/2-y,1/2+z
1/4-x,3/4+y,3/4+z
1/4+x,3/4-y,3/4+z
1/2+x,y,1/2+z
1/2-x,-y,1/2+z
3/4-x,1/4+y,3/4+z
3/4+x,1/4-y,3/4+z
1/2+x,1/2+y,z
1/2-x,1/2-y,z
3/4-x,3/4+y,1/4+z
3/4+x,3/4-y,1/4+z
loop_
_atom_site_type_symbol
_atom_site_label
_atom_site_fract_x
_atom_site_fract_y
_atom_site_fract_z
Si Si1 0.500000 0.500000 0.559880
Si Si2 0.757618 0.512505 0.028664
Si Si3 0.415983 0.555880 0.243790
Si Si4 0.394895 0.005646 0.914873
Si Si5 0.396595 0.850267 0.535702
Si Si6 0.930587 0.452521 0.188872
Si Si7 0.092232 0.709439 0.704894
Si Si8 0.974169 0.206757 0.458354
O O1 0.457433 0.521168 0.619392
O O2 0.509578 0.625539 0.510248
O O3 0.756863 0.497952 0.123427
O O4 0.789349 0.395644 0.999397
O O5 0.784530 0.637398 0.001147
O O6 0.707277 0.507437 0.988262
O O7 0.412475 0.482573 0.326965
O O8 0.372189 0.642253 0.218997
O O9 0.417511 0.438557 0.187242
O O10 0.348476 0.087718 0.903676
O O11 0.434086 0.099202 0.948279
O O12 0.357722 0.789183 0.478189
O O13 0.390908 0.767583 0.615306
O O14 0.448123 0.818652 0.502977
O O15 0.381496 0.994255 0.517554
#
# Coordination Sequence:
#
# PCOD9370571 Si02
#       8
#     8  16  16  16  16  16  16  16
#     4  12  22  36  68 102 126 160 224 272 330 378
#     4  10  22  39  64  90 129 165 210 267 328 366
#     4  10  20  36  58  88 124 163 212 253 308 375
#     4   9  19  36  58  84 119 158 202 260 311 365
#     4  11  23  42  65  92 130 168 218 256 326 383
#     4  10  20  38  61  91 119 162 208 267 314 380
#     4  12  24  39  64  89 126 177 207 259 316 397
#     4  10  22  38  64  95 124 158 207 276 319 373
#
# _framework density 23.085867
#
# number of rings (size 3 to 8) (size 9 to 14) (size 15 to 20)
#    0.000    1.600    0.000    5.200    3.733    4.267 
#    2.400    0.000    5.867    0.000    0.000    0.000 
#    0.000    0.000    0.000    0.000    0.000    0.000 
#
# Total GULP energy -167265.355584 kJ/mol
# GULP energy per Si atom -5575.511853 kJ/mol
# Density = 2.303332 g / cm^3
# Si number density = 23.085867 Si / 1000 Ang^3
#
#
#
# Elastic Constant Matrix: (Units=GPa)
#
#
# Indices 1 2 3 4 5 6 
#
# 1 55.9759 -5.4387 15.3712 0.0000 0.0000 0.0000
# 2 -5.4387 53.1183 -15.0812 0.0000 0.0000 0.0000
# 3 15.3712 -15.0812 70.8847 0.0000 0.0000 0.0000
# 4 0.0000 0.0000 0.0000 20.5292 0.0000 0.0000
# 5 0.0000 0.0000 0.0000 0.0000 25.3176 0.0000
# 6 0.0000 0.0000 0.0000 0.0000 0.0000 26.5658
#
#
#
# Elastic Compliance Matrix: (Units=1/GPa)
#
#
# Indices 1 2 3 4 5 6 
#
# 1 0.019030 0.000827 -0.003951 0.000000 0.000000 0.000000
# 2 0.000827 0.020072 0.004091 0.000000 0.000000 0.000000
# 3 -0.003951 0.004091 0.015835 0.000000 0.000000 0.000000
# 4 0.000000 0.000000 0.000000 0.048711 0.000000 0.000000
# 5 0.000000 0.000000 0.000000 0.000000 0.039498 0.000000
# 6 0.000000 0.000000 0.000000 0.000000 0.000000 0.037642
#
#
# Mechanical properties :
#
#
# Convention : Reuss Voigt Hill
#
# Bulk Modulus (GPa) = 17.58360 18.85351 18.21856
# Shear Modulus (GPa) = 25.27664 26.82435 26.05049
#
# Velocity S-wave (km/s) = 3.31251 3.41242 3.36284
# Velocity P-wave (km/s) = 4.71842 4.86935 4.79448
#
# Compressibility (1/GPa) = 0.05687118
#
# Stress axis : x y z
#
# Youngs Moduli (GPa) = 52.54848 49.82034 63.15303
#
# Poissons Ratio (x) = -0.04119 0.24950
# Poissons Ratio (y) = -0.04344 -0.25837
# Poissons Ratio (z) = 0.20761 -0.20383
#
# Static dielectric constant tensor:
#      x y z
#    x 1.867980 0.000000 0.000000 
#    y 0.000000 2.069250 0.000000 
#    z 0.000000 0.000000 1.924590 
# 
# From -- ./inp_files/15274.got.cif
#   From: 2010.05.17/outbox.cif.g08.bks.cpg/sg43_8_cif.got.tgz:15274.got - 2010.06.03 19:21:55.
