data_PCOD9370057
_publ_section_title
;
Structure prediction by ZEFSAII (Michael W. Deem and Ramdas Pophale) SiO2 
 PCOD9370057
Probable space group: F D D 2
;
_chemical_formula_sum "Si O2"
_cell_formula_units_Z 112
_cell_length_a 28.410546
_cell_length_b 7.206903
_cell_length_c 22.601459
_cell_angle_alpha 90.000000
_cell_angle_beta 90.000000
_cell_angle_gamma 90.000000
_cell_volume 4627.695045
_symmetry_space_group_name_H-M "F D D 2"
_symmetry_group_IT_number 43
_symmetry_cell_setting 'orthorhombic'
loop_
_space_group_symop_operation_xyz
x,y,z
-x,-y,z
1/4-x,1/4+y,1/4+z
1/4+x,1/4-y,1/4+z
x,1/2+y,1/2+z
-x,1/2-y,1/2+z
1/4-x,3/4+y,3/4+z
1/4+x,3/4-y,3/4+z
1/2+x,y,1/2+z
1/2-x,-y,1/2+z
3/4-x,1/4+y,3/4+z
3/4+x,1/4-y,3/4+z
1/2+x,1/2+y,z
1/2-x,1/2-y,z
3/4-x,3/4+y,1/4+z
3/4+x,3/4-y,1/4+z
loop_
_atom_site_type_symbol
_atom_site_label
_atom_site_fract_x
_atom_site_fract_y
_atom_site_fract_z
Si Si1 0.300757 0.188936 0.118900
Si Si2 0.902385 0.737722 0.712198
Si Si3 0.698921 0.308881 0.756786
Si Si4 0.651780 0.602275 0.022322
Si Si5 0.634311 0.634317 0.592563
Si Si6 0.545637 0.878110 0.084300
Si Si7 0.010657 0.776766 0.701482
O O1 0.250000 0.250000 0.094385
O O2 0.300483 0.224898 0.187751
O O3 0.337688 0.319465 0.086743
O O4 0.317600 0.979396 0.107088
O O5 0.885542 0.620181 0.769761
O O6 0.958497 0.693995 0.706168
O O7 0.898708 0.957669 0.732582
O O8 0.875361 0.723908 0.648394
O O9 0.750000 0.250000 0.780834
O O10 0.647375 0.243472 0.776696
O O11 0.695874 0.523341 0.773874
O O12 0.697841 0.494811 0.998780
O O13 0.589177 0.501921 0.602438
O O14 0.533954 0.739063 0.137803
O O15 0.500000 0.000000 0.075991
O O16 0.000000 0.000000 0.702872
#
# Coordination Sequence:
#
# PCOD9370057 Si02
#       7
#    16  16  16  16  16  16  16
#     4  10  18  29  49  78 111 138 182 240 296 333
#     4  10  17  26  47  79 114 138 187 244 306 333
#     4  11  22  33  49  83 117 150 183 236 300 357
#     4  10  16  29  49  76 108 137 181 246 291 324
#     4  11  16  29  46  81 112 141 186 251 303 341
#     4  11  18  32  54  75 111 148 191 234 291 342
#     4   9  16  28  49  82 103 133 189 245 285 331
#
# _framework density 24.202114000000002
#
# number of rings (size 3 to 8) (size 9 to 14) (size 15 to 20)
#    0.000    1.714    8.571    2.143    0.000    0.000 
#    0.000    0.000    0.000    3.429    0.000    0.000 
#    0.000    1.714    0.000    0.000    0.000    0.000 
#
# Total GULP energy -155992.643123 kJ/mol
# GULP energy per Si atom -5571.165826 kJ/mol
# Density = 2.414703 g / cm^3
# Si number density = 24.202114 Si / 1000 Ang^3
#
#
#
# Elastic Constant Matrix: (Units=GPa)
#
#
# Indices 1 2 3 4 5 6 
#
# 1 137.1960 16.7230 43.4448 0.0000 -0.0001 0.0000
# 2 16.7230 39.4597 15.9550 0.0005 -0.0002 -0.0005
# 3 43.4448 15.9550 156.2714 0.0000 0.0000 -0.0001
# 4 0.0000 0.0005 0.0000 15.6653 -0.0001 -0.0002
# 5 -0.0001 -0.0002 0.0000 -0.0001 33.8301 0.0001
# 6 0.0000 -0.0005 -0.0001 -0.0002 0.0001 16.8610
#
#
#
# Elastic Compliance Matrix: (Units=1/GPa)
#
#
# Indices 1 2 3 4 5 6 
#
# 1 0.008256 -0.002681 -0.002021 0.000000 0.000000 0.000000
# 2 -0.002681 0.027305 -0.002042 -0.000001 0.000000 0.000001
# 3 -0.002021 -0.002042 0.007170 0.000000 0.000000 0.000000
# 4 0.000000 -0.000001 0.000000 0.063835 0.000000 0.000001
# 5 0.000000 0.000000 0.000000 0.000000 0.029560 0.000000
# 6 0.000000 0.000001 0.000000 0.000001 0.000000 0.059308
#
#
# Mechanical properties :
#
#
# Convention : Reuss Voigt Hill
#
# Bulk Modulus (GPa) = 34.20018 53.90807 44.05413
# Shear Modulus (GPa) = 22.86551 30.39157 26.62854
#
# Velocity S-wave (km/s) = 3.07705 3.54749 3.32061
# Velocity P-wave (km/s) = 5.17553 6.25316 5.73969
#
# Compressibility (1/GPa) = 0.02923961
#
# Stress axis : x y z
#
# Youngs Moduli (GPa) = 121.12707 36.62398 139.47774
#
# Poissons Ratio (x) = 0.09821 0.28194
# Poissons Ratio (y) = 0.32480 0.28485
# Poissons Ratio (z) = 0.24485 0.07480
#
# Static dielectric constant tensor:
#      x y z
#    x 2.024520 0.000000 0.000000 
#    y 0.000000 1.978720 0.000000 
#    z 0.000000 0.000000 1.969380 
# 
# From -- ./inp_files/22864.got.cif
#   From: 2010.05.17/outbox.cif.g08.bks.cpg/sg43_12_cif.got.tgz:22864.got - 2010.06.03 19:21:55.
