data_PCOD9370648
_publ_section_title
;
Structure prediction by ZEFSAII (Michael W. Deem and Ramdas Pophale) SiO2 
 PCOD9370648
Probable space group: F D D 2
;
_chemical_formula_sum "Si O2"
_cell_formula_units_Z 120
_cell_length_a 11.380280
_cell_length_b 19.758949
_cell_length_c 23.046230
_cell_angle_alpha 90.000000
_cell_angle_beta 90.000000
_cell_angle_gamma 90.000000
_cell_volume 5182.229946
_symmetry_space_group_name_H-M "F D D 2"
_symmetry_group_IT_number 43
_symmetry_cell_setting 'orthorhombic'
loop_
_space_group_symop_operation_xyz
x,y,z
-x,-y,z
1/4-x,1/4+y,1/4+z
1/4+x,1/4-y,1/4+z
x,1/2+y,1/2+z
-x,1/2-y,1/2+z
1/4-x,3/4+y,3/4+z
1/4+x,3/4-y,3/4+z
1/2+x,y,1/2+z
1/2-x,-y,1/2+z
3/4-x,1/4+y,3/4+z
3/4+x,1/4-y,3/4+z
1/2+x,1/2+y,z
1/2-x,1/2-y,z
3/4-x,3/4+y,1/4+z
3/4+x,3/4-y,1/4+z
loop_
_atom_site_type_symbol
_atom_site_label
_atom_site_fract_x
_atom_site_fract_y
_atom_site_fract_z
Si Si1 0.703652 0.921105 0.452580
Si Si2 0.528280 0.109734 0.939167
Si Si3 0.810718 0.350559 0.499190
Si Si4 0.772287 0.942095 0.581810
Si Si5 0.250000 0.250000 0.772281
Si Si6 0.808374 0.470289 0.266344
Si Si7 0.343444 0.440912 0.894311
Si Si8 0.941922 0.662855 0.369822
O O1 0.841479 0.921181 0.435415
O O2 0.702957 0.924559 0.522486
O O3 0.648214 0.856694 0.420305
O O4 0.639249 0.987169 0.426241
O O5 0.480026 0.130667 0.876882
O O6 0.530433 0.177590 0.977979
O O7 0.454497 0.057671 0.978731
O O8 0.915421 0.295717 0.494102
O O9 0.688097 0.312946 0.510533
O O10 0.785709 0.394063 0.442583
O O11 0.848388 0.394945 0.554324
O O12 0.724845 0.008789 0.614631
O O13 0.901878 0.964875 0.561278
O O14 0.780977 0.461608 0.334308
O O15 0.452312 0.391504 0.878430
#
# Coordination Sequence:
#
# PCOD9370648 Si02
#       8
#    16  16  16  16   8  16  16  16
#     4  11  25  45  66 101 150 190 233 291 379 439
#     4  11  26  45  67 105 146 189 239 300 374 448
#     4  10  20  37  68 103 133 172 231 302 350 404
#     4  11  25  50  73 106 146 192 246 302 371 443
#     4  10  24  52  76 104 144 194 248 310 368 440
#     4  10  22  39  65 104 137 172 239 293 348 429
#     4  11  21  40  71 101 136 182 234 298 353 418
#     4  11  22  42  71 105 137 186 244 295 357 433
#
# _framework density 23.156056
#
# number of rings (size 3 to 8) (size 9 to 14) (size 15 to 20)
#    0.000    1.333    2.667    2.800    1.867    5.867 
#    4.800    0.000    0.000    0.000    0.000    0.000 
#    0.000    0.000    0.000    0.000    0.000    0.000 
#
# Total GULP energy -167549.459707 kJ/mol
# GULP energy per Si atom -5584.981990 kJ/mol
# Density = 2.310335 g / cm^3
# Si number density = 23.156056 Si / 1000 Ang^3
#
#
#
# Elastic Constant Matrix: (Units=GPa)
#
#
# Indices 1 2 3 4 5 6 
#
# 1 50.5000 15.5619 24.2511 0.0000 0.0000 0.0000
# 2 15.5619 91.6745 46.4827 0.0000 0.0000 0.0000
# 3 24.2511 46.4827 163.2032 0.0000 0.0000 0.0000
# 4 0.0000 0.0000 0.0000 51.6524 0.0000 0.0000
# 5 0.0000 0.0000 0.0000 0.0000 27.0999 0.0000
# 6 0.0000 0.0000 0.0000 0.0000 0.0000 30.7040
#
#
#
# Elastic Compliance Matrix: (Units=1/GPa)
#
#
# Indices 1 2 3 4 5 6 
#
# 1 0.021767 -0.002402 -0.002550 0.000000 0.000000 0.000000
# 2 -0.002402 0.013014 -0.003350 0.000000 0.000000 0.000000
# 3 -0.002550 -0.003350 0.007460 0.000000 0.000000 0.000000
# 4 0.000000 0.000000 0.000000 0.019360 0.000000 0.000000
# 5 0.000000 0.000000 0.000000 0.000000 0.036901 0.000000
# 6 0.000000 0.000000 0.000000 0.000000 0.000000 0.032569
#
#
# Mechanical properties :
#
#
# Convention : Reuss Voigt Hill
#
# Bulk Modulus (GPa) = 39.00514 53.10768 46.05641
# Shear Modulus (GPa) = 32.00592 36.49674 34.25133
#
# Velocity S-wave (km/s) = 3.72181 3.97435 3.85015
# Velocity P-wave (km/s) = 5.94560 6.63664 6.30060
#
# Compressibility (1/GPa) = 0.02563765
#
# Stress axis : x y z
#
# Youngs Moduli (GPa) = 45.94141 76.83835 134.04169
#
# Poissons Ratio (x) = 0.18455 0.34186
# Poissons Ratio (y) = 0.11034 0.44901
# Poissons Ratio (z) = 0.11717 0.25739
#
# Static dielectric constant tensor:
#      x y z
#    x 1.904540 0.000000 0.000000 
#    y 0.000000 1.936560 0.000000 
#    z 0.000000 0.000000 1.889820 
# 
# From -- ./inp_files/21249.got.cif
#   From: 2010.05.17/outbox.cif.g08.bks.cpg/sg43_11_cif.got.tgz:21249.got - 2010.06.03 19:21:55.
