data_PCOD9370670
_publ_section_title
;
Structure prediction by ZEFSAII (Michael W. Deem and Ramdas Pophale) SiO2 
 PCOD9370670
Probable space group: F D D 2
;
_chemical_formula_sum "Si O2"
_cell_formula_units_Z 88
_cell_length_a 13.037942
_cell_length_b 23.368494
_cell_length_c 13.456720
_cell_angle_alpha 90.000000
_cell_angle_beta 90.000000
_cell_angle_gamma 90.000000
_cell_volume 4099.954013
_symmetry_space_group_name_H-M "F D D 2"
_symmetry_group_IT_number 43
_symmetry_cell_setting 'orthorhombic'
loop_
_space_group_symop_operation_xyz
x,y,z
-x,-y,z
1/4-x,1/4+y,1/4+z
1/4+x,1/4-y,1/4+z
x,1/2+y,1/2+z
-x,1/2-y,1/2+z
1/4-x,3/4+y,3/4+z
1/4+x,3/4-y,3/4+z
1/2+x,y,1/2+z
1/2-x,-y,1/2+z
3/4-x,1/4+y,3/4+z
3/4+x,1/4-y,3/4+z
1/2+x,1/2+y,z
1/2-x,1/2-y,z
3/4-x,3/4+y,1/4+z
3/4+x,3/4-y,1/4+z
loop_
_atom_site_type_symbol
_atom_site_label
_atom_site_fract_x
_atom_site_fract_y
_atom_site_fract_z
Si Si1 0.733460 0.890074 0.312120
Si Si2 0.750000 0.250000 0.410476
Si Si3 0.573972 0.810441 0.117447
Si Si4 0.250451 0.130919 0.026045
Si Si5 0.152529 0.950898 0.990649
Si Si6 0.224606 0.000201 0.670511
O O1 0.614476 0.869817 0.313355
O O2 0.737349 0.915671 0.425106
O O3 0.811477 0.840549 0.278516
O O4 0.745561 0.942710 0.234046
O O5 0.751951 0.306624 0.477147
O O6 0.636551 0.249102 0.365102
O O7 0.486618 0.833708 0.191000
O O8 0.623635 0.753193 0.164851
O O9 0.658230 0.860526 0.103481
O O10 0.532362 0.796620 0.008704
O O11 0.195487 0.981597 0.088248
#
# Coordination Sequence:
#
# PCOD9370670 Si02
#       6
#    16   8  16  16  16  16
#     4  10  23  41  64  95 132 172 220 274 332 395
#     4   8  18  36  64  88 122 160 216 276 318 382
#     4  10  23  39  68  97 127 171 223 275 338 399
#     4  10  20  38  61  95 126 162 219 279 321 393
#     4  11  24  42  67  96 138 177 218 276 340 403
#     4   9  21  43  63  98 130 169 226 273 337 405
#
# _framework density 21.463654999999999
#
# number of rings (size 3 to 8) (size 9 to 14) (size 15 to 20)
#    0.000    2.182    0.000    2.182    7.636    9.455 
#    0.000    0.000    8.000    0.000    0.000    0.000 
#    0.000    0.000    0.000    0.000    0.000    0.000 
#
# Total GULP energy -122618.749678 kJ/mol
# GULP energy per Si atom -5573.579531 kJ/mol
# Density = 2.141480 g / cm^3
# Si number density = 21.463655 Si / 1000 Ang^3
#
#
#
# Elastic Constant Matrix: (Units=GPa)
#
#
# Indices 1 2 3 4 5 6 
#
# 1 77.0475 33.5399 42.8252 0.0000 0.0000 0.0000
# 2 33.5399 95.9795 45.8676 0.0000 0.0000 0.0000
# 3 42.8252 45.8676 122.8141 0.0000 0.0000 0.0000
# 4 0.0000 0.0000 0.0000 39.5425 0.0000 0.0000
# 5 0.0000 0.0000 0.0000 0.0000 30.7104 0.0000
# 6 0.0000 0.0000 0.0000 0.0000 0.0000 37.4768
#
#
#
# Elastic Compliance Matrix: (Units=1/GPa)
#
#
# Indices 1 2 3 4 5 6 
#
# 1 0.017179 -0.003823 -0.004563 0.000000 0.000000 0.000000
# 2 -0.003823 0.013533 -0.003721 0.000000 0.000000 0.000000
# 3 -0.004563 -0.003721 0.011123 0.000000 0.000000 0.000000
# 4 0.000000 0.000000 0.000000 0.025289 0.000000 0.000000
# 5 0.000000 0.000000 0.000000 0.000000 0.032562 0.000000
# 6 0.000000 0.000000 0.000000 0.000000 0.000000 0.026683
#
#
# Mechanical properties :
#
#
# Convention : Reuss Voigt Hill
#
# Bulk Modulus (GPa) = 56.74701 60.03406 58.39054
# Shear Modulus (GPa) = 31.95756 33.11984 32.53870
#
# Velocity S-wave (km/s) = 3.86283 3.93245 3.89780
# Velocity P-wave (km/s) = 6.81112 6.97493 6.89351
#
# Compressibility (1/GPa) = 0.01762207
#
# Stress axis : x y z
#
# Youngs Moduli (GPa) = 58.21002 73.89292 89.90252
#
# Poissons Ratio (x) = 0.28248 0.41019
# Poissons Ratio (y) = 0.22252 0.33455
# Poissons Ratio (z) = 0.26559 0.27497
#
# Static dielectric constant tensor:
#      x y z
#    x 1.817590 0.000000 0.000000 
#    y 0.000000 1.837470 0.000000 
#    z 0.000000 0.000000 1.865330 
# 
# From -- ./inp_files/9681.got.cif
#   From: 2010.05.17/outbox.cif.g08.bks.cpg/sg43_5_cif.got.tgz:9681.got - 2010.06.03 19:21:55.
