data_PCOD9370285
_publ_section_title
;
Structure prediction by ZEFSAII (Michael W. Deem and Ramdas Pophale) SiO2 
 PCOD9370285
Probable space group: F D D 2
;
_chemical_formula_sum "Si O2"
_cell_formula_units_Z 88
_cell_length_a 10.314203
_cell_length_b 22.379575
_cell_length_c 15.944818
_cell_angle_alpha 90.000000
_cell_angle_beta 90.000000
_cell_angle_gamma 90.000000
_cell_volume 3680.502152
_symmetry_space_group_name_H-M "F D D 2"
_symmetry_group_IT_number 43
_symmetry_cell_setting 'orthorhombic'
loop_
_space_group_symop_operation_xyz
x,y,z
-x,-y,z
1/4-x,1/4+y,1/4+z
1/4+x,1/4-y,1/4+z
x,1/2+y,1/2+z
-x,1/2-y,1/2+z
1/4-x,3/4+y,3/4+z
1/4+x,3/4-y,3/4+z
1/2+x,y,1/2+z
1/2-x,-y,1/2+z
3/4-x,1/4+y,3/4+z
3/4+x,1/4-y,3/4+z
1/2+x,1/2+y,z
1/2-x,1/2-y,z
3/4-x,3/4+y,1/4+z
3/4+x,3/4-y,1/4+z
loop_
_atom_site_type_symbol
_atom_site_label
_atom_site_fract_x
_atom_site_fract_y
_atom_site_fract_z
Si Si1 0.250000 0.250000 0.185290
Si Si2 0.250590 0.963677 0.330190
Si Si3 0.946933 0.270806 0.399416
Si Si4 0.364837 0.123374 0.455527
Si Si5 0.946738 0.421655 0.068920
Si Si6 0.100698 0.573269 0.882772
O O1 0.368362 0.224941 0.130778
O O2 0.305699 0.311813 0.224999
O O3 0.199094 0.897534 0.338979
O O4 0.283521 0.985928 0.236504
O O5 0.140538 0.005725 0.366320
O O6 0.928245 0.214781 0.334469
O O7 0.812257 0.303965 0.378216
O O8 0.051875 0.325063 0.406321
O O9 0.239191 0.105864 0.402354
O O10 0.314784 0.150813 0.542544
O O11 0.976172 0.422535 0.969631
#
# Coordination Sequence:
#
# PCOD9370285 Si02
#       6
#     8  16  16  16  16  16
#     4  10  18  40  74  98 130 190 234 294 354 438
#     4  10  22  43  70 105 140 179 243 306 355 436
#     4  10  23  43  70 103 140 189 238 297 366 437
#     4  10  22  45  66 100 140 184 237 291 370 438
#     4  11  23  42  70 106 140 183 242 304 365 434
#     4  10  25  44  66 100 143 182 233 300 368 425
#
# _framework density 23.909780000000001
#
# number of rings (size 3 to 8) (size 9 to 14) (size 15 to 20)
#    0.000    1.818    1.818    1.091    2.545    5.818 
#    6.545    0.000    0.000    0.000    0.000    0.000 
#    0.000    0.000    0.000    0.000    0.000    0.000 
#
# Total GULP energy -122770.137788 kJ/mol
# GULP energy per Si atom -5580.460809 kJ/mol
# Density = 2.385536 g / cm^3
# Si number density = 23.909780 Si / 1000 Ang^3
#
#
#
# Elastic Constant Matrix: (Units=GPa)
#
#
# Indices 1 2 3 4 5 6 
#
# 1 103.5277 48.4851 28.8573 0.0000 0.0000 0.0000
# 2 48.4851 220.4720 41.1653 0.0000 0.0000 0.0000
# 3 28.8573 41.1653 69.2524 0.0000 0.0000 0.0000
# 4 0.0000 0.0000 0.0000 43.8987 0.0000 0.0000
# 5 0.0000 0.0000 0.0000 0.0000 41.0357 0.0000
# 6 0.0000 0.0000 0.0000 0.0000 0.0000 27.8995
#
#
#
# Elastic Compliance Matrix: (Units=1/GPa)
#
#
# Indices 1 2 3 4 5 6 
#
# 1 0.011561 -0.001848 -0.003719 0.000000 0.000000 0.000000
# 2 -0.001848 0.005397 -0.002438 0.000000 0.000000 0.000000
# 3 -0.003719 -0.002438 0.017439 0.000000 0.000000 0.000000
# 4 0.000000 0.000000 0.000000 0.022780 0.000000 0.000000
# 5 0.000000 0.000000 0.000000 0.000000 0.024369 0.000000
# 6 0.000000 0.000000 0.000000 0.000000 0.000000 0.035843
#
#
# Mechanical properties :
#
#
# Convention : Reuss Voigt Hill
#
# Bulk Modulus (GPa) = 54.38623 70.02971 62.20797
# Shear Modulus (GPa) = 35.83478 40.88310 38.35894
#
# Velocity S-wave (km/s) = 3.87557 4.13957 4.00974
# Velocity P-wave (km/s) = 6.54389 7.22501 6.89287
#
# Compressibility (1/GPa) = 0.01838701
#
# Stress axis : x y z
#
# Youngs Moduli (GPa) = 86.49451 185.27412 57.34279
#
# Poissons Ratio (x) = 0.34241 0.21326
# Poissons Ratio (y) = 0.15985 0.13982
# Poissons Ratio (z) = 0.32168 0.45174
#
# Static dielectric constant tensor:
#      x y z
#    x 1.691120 0.000000 0.000000 
#    y 0.000000 1.984510 0.000000 
#    z 0.000000 0.000000 1.866270 
# 
# From -- ./inp_files/9581.got.cif
#   From: 2010.05.17/outbox.cif.g08.bks.cpg/sg43_5_cif.got.tgz:9581.got - 2010.06.03 19:21:55.
