data_PCOD9370603
_publ_section_title
;
Structure prediction by ZEFSAII (Michael W. Deem and Ramdas Pophale) SiO2 
 PCOD9370603
Probable space group: F D D 2
;
_chemical_formula_sum "Si O2"
_cell_formula_units_Z 120
_cell_length_a 22.718810
_cell_length_b 27.610563
_cell_length_c 8.738790
_cell_angle_alpha 90.000000
_cell_angle_beta 90.000000
_cell_angle_gamma 90.000000
_cell_volume 5481.660630
_symmetry_space_group_name_H-M "F D D 2"
_symmetry_group_IT_number 43
_symmetry_cell_setting 'orthorhombic'
loop_
_space_group_symop_operation_xyz
x,y,z
-x,-y,z
1/4-x,1/4+y,1/4+z
1/4+x,1/4-y,1/4+z
x,1/2+y,1/2+z
-x,1/2-y,1/2+z
1/4-x,3/4+y,3/4+z
1/4+x,3/4-y,3/4+z
1/2+x,y,1/2+z
1/2-x,-y,1/2+z
3/4-x,1/4+y,3/4+z
3/4+x,1/4-y,3/4+z
1/2+x,1/2+y,z
1/2-x,1/2-y,z
3/4-x,3/4+y,1/4+z
3/4+x,3/4-y,1/4+z
loop_
_atom_site_type_symbol
_atom_site_label
_atom_site_fract_x
_atom_site_fract_y
_atom_site_fract_z
Si Si1 0.844309 0.740124 0.343110
Si Si2 0.402758 0.448941 0.432485
Si Si3 0.953228 0.266536 0.674554
Si Si4 0.649877 0.655554 0.445517
Si Si5 0.500000 0.500000 0.885342
Si Si6 0.275433 0.557820 0.249612
Si Si7 0.720731 0.155382 0.234838
Si Si8 0.109651 0.970354 0.675250
O O1 0.843105 0.726354 0.520445
O O2 0.906280 0.730621 0.259654
O O3 0.839175 0.799331 0.332225
O O4 0.789631 0.717851 0.251735
O O5 0.368009 0.398851 0.399355
O O6 0.468523 0.435424 0.492004
O O7 0.376981 0.483390 0.565762
O O8 0.975030 0.298892 0.815997
O O9 0.914408 0.289618 0.537340
O O10 0.006079 0.238802 0.592930
O O11 0.591170 0.674558 0.531920
O O12 0.704500 0.653100 0.557179
O O13 0.551659 0.480700 0.777524
O O14 0.232887 0.601556 0.291194
O O15 0.665196 0.178165 0.319163
#
# Coordination Sequence:
#
# PCOD9370603 Si02
#       8
#    16  16  16  16   8  16  16  16
#     4  10  21  40  63  93 128 171 212 275 326 394
#     4  11  21  39  68  96 128 175 217 269 345 383
#     4  10  24  42  65  89 131 179 216 268 333 398
#     4  10  22  37  64  95 126 166 222 269 319 408
#     4  10  20  36  64  94 130 158 218 266 338 390
#     4  10  24  44  63  95 131 173 226 271 328 405
#     4  11  21  38  67  98 125 167 222 273 328 399
#     4  11  21  39  68  96 128 174 215 274 337 387
#
# _framework density 21.891176000000002
#
# number of rings (size 3 to 8) (size 9 to 14) (size 15 to 20)
#    0.000    1.600    2.667    1.600    1.867    2.133 
#    9.600    0.000   11.733    0.000    0.000    0.000 
#    0.000    0.000    0.000    0.000    0.000    0.000 
#
# Total GULP energy -167267.950684 kJ/mol
# GULP energy per Si atom -5575.598356 kJ/mol
# Density = 2.184135 g / cm^3
# Si number density = 21.891176 Si / 1000 Ang^3
#
#
#
# Elastic Constant Matrix: (Units=GPa)
#
#
# Indices 1 2 3 4 5 6 
#
# 1 45.3969 26.0592 13.9052 -0.0018 0.0018 0.0008
# 2 26.0592 80.4395 30.9321 -0.0013 0.0010 0.0006
# 3 13.9052 30.9321 103.7444 -0.0058 0.0062 0.0024
# 4 -0.0018 -0.0013 -0.0058 7.8883 0.0024 0.0009
# 5 0.0018 0.0010 0.0062 0.0024 45.0502 -0.0012
# 6 0.0008 0.0006 0.0024 0.0009 -0.0012 15.5534
#
#
#
# Elastic Compliance Matrix: (Units=1/GPa)
#
#
# Indices 1 2 3 4 5 6 
#
# 1 0.027181 -0.008363 -0.001150 0.000004 -0.000001 -0.000001
# 2 -0.008363 0.016615 -0.003833 -0.000002 0.000001 0.000000
# 3 -0.001150 -0.003833 0.010936 0.000007 -0.000001 -0.000001
# 4 0.000004 -0.000002 0.000007 0.126771 -0.000007 -0.000007
# 5 -0.000001 0.000001 -0.000001 -0.000007 0.022197 0.000002
# 6 -0.000001 0.000000 -0.000001 -0.000007 0.000002 0.064294
#
#
# Mechanical properties :
#
#
# Convention : Reuss Voigt Hill
#
# Bulk Modulus (GPa) = 35.66323 41.26376 38.46349
# Shear Modulus (GPa) = 16.44558 24.27733 20.36146
#
# Velocity S-wave (km/s) = 2.74385 3.33378 3.05310
# Velocity P-wave (km/s) = 5.13467 5.80596 5.48060
#
# Compressibility (1/GPa) = 0.02804009
#
# Stress axis : x y z
#
# Youngs Moduli (GPa) = 36.79053 60.18648 91.44153
#
# Poissons Ratio (x) = 0.50337 0.10511
# Poissons Ratio (y) = 0.30770 0.35049
# Poissons Ratio (z) = 0.04229 0.23069
#
# Static dielectric constant tensor:
#      x y z
#    x 1.860260 0.000000 0.000000 
#    y 0.000000 1.843190 0.000000 
#    z 0.000000 0.000000 1.830560 
# 
# From -- ./inp_files/3880.got.cif
#   From: 2010.05.17/outbox.cif.g08.bks.cpg/sg43_2_cif.got.tgz:3880.got - 2010.06.03 19:21:55.
