data_PCOD9370478
_publ_section_title
;
Structure prediction by ZEFSAII (Michael W. Deem and Ramdas Pophale) SiO2 
 PCOD9370478
Probable space group: F D D 2
;
_chemical_formula_sum "Si O2"
_cell_formula_units_Z 104
_cell_length_a 26.711927
_cell_length_b 10.606385
_cell_length_c 15.689633
_cell_angle_alpha 90.000000
_cell_angle_beta 90.000000
_cell_angle_gamma 90.000000
_cell_volume 4445.139468
_symmetry_space_group_name_H-M "F D D 2"
_symmetry_group_IT_number 43
_symmetry_cell_setting 'orthorhombic'
loop_
_space_group_symop_operation_xyz
x,y,z
-x,-y,z
1/4-x,1/4+y,1/4+z
1/4+x,1/4-y,1/4+z
x,1/2+y,1/2+z
-x,1/2-y,1/2+z
1/4-x,3/4+y,3/4+z
1/4+x,3/4-y,3/4+z
1/2+x,y,1/2+z
1/2-x,-y,1/2+z
3/4-x,1/4+y,3/4+z
3/4+x,1/4-y,3/4+z
1/2+x,1/2+y,z
1/2-x,1/2-y,z
3/4-x,3/4+y,1/4+z
3/4+x,3/4-y,1/4+z
loop_
_atom_site_type_symbol
_atom_site_label
_atom_site_fract_x
_atom_site_fract_y
_atom_site_fract_z
Si Si1 0.198936 0.243946 0.951740
Si Si2 0.020942 0.640081 0.538001
Si Si3 0.384159 0.434315 0.963185
Si Si4 0.546506 0.870751 0.381753
Si Si5 0.250000 0.750000 0.046747
Si Si6 0.151226 0.882357 0.101280
Si Si7 0.452092 0.221700 0.679609
O O1 0.250000 0.250000 0.898367
O O2 0.151189 0.167275 0.919076
O O3 0.188019 0.391284 0.967515
O O4 0.213410 0.153216 0.033116
O O5 0.080932 0.636242 0.534262
O O6 0.000000 0.500000 0.561558
O O7 0.999738 0.658793 0.442705
O O8 0.993753 0.729800 0.604515
O O9 0.424370 0.503518 0.906381
O O10 0.356457 0.550672 0.009269
O O11 0.582867 0.755697 0.402963
O O12 0.272616 0.868862 0.992915
O O13 0.200666 0.796636 0.097177
O O14 0.099528 0.828211 0.136677
#
# Coordination Sequence:
#
# PCOD9370478 Si02
#       7
#    16  16  16  16   8  16  16
#     4  11  25  39  60  96 137 171 218 287 354 409
#     4  10  19  39  70  93 121 168 235 276 326 412
#     4  10  20  40  67  92 121 176 227 278 329 414
#     4  10  21  42  66  93 124 172 231 274 331 421
#     4  12  26  42  68  98 144 180 228 292 356 414
#     4  11  23  40  67  97 132 182 222 280 350 424
#     4  12  23  42  65 101 134 176 231 287 349 417
#
# _framework density 23.396343000000002
#
# number of rings (size 3 to 8) (size 9 to 14) (size 15 to 20)
#    0.000    1.231    3.846    4.154    0.000    6.154 
#    0.000    0.000    1.692    0.000    0.000    0.000 
#    0.000    0.000    0.000    0.000    0.000    0.000 
#
# Total GULP energy -144864.141788 kJ/mol
# GULP energy per Si atom -5571.697761 kJ/mol
# Density = 2.334309 g / cm^3
# Si number density = 23.396343 Si / 1000 Ang^3
#
#
#
# Elastic Constant Matrix: (Units=GPa)
#
#
# Indices 1 2 3 4 5 6 
#
# 1 131.5530 35.1949 -2.4849 0.0000 0.0000 0.0000
# 2 35.1949 109.5182 6.0143 0.0000 0.0000 0.0000
# 3 -2.4849 6.0143 17.4612 0.0000 0.0000 0.0000
# 4 0.0000 0.0000 0.0000 17.1809 0.0000 0.0000
# 5 0.0000 0.0000 0.0000 0.0000 24.1642 0.0000
# 6 0.0000 0.0000 0.0000 0.0000 0.0000 45.6314
#
#
#
# Elastic Compliance Matrix: (Units=1/GPa)
#
#
# Indices 1 2 3 4 5 6 
#
# 1 0.008396 -0.002817 0.002165 0.000000 0.000000 0.000000
# 2 -0.002817 0.010252 -0.003932 0.000000 0.000000 0.000000
# 3 0.002165 -0.003932 0.058932 0.000000 0.000000 0.000000
# 4 0.000000 0.000000 0.000000 0.058204 0.000000 0.000000
# 5 0.000000 0.000000 0.000000 0.000000 0.041384 0.000000
# 6 0.000000 0.000000 0.000000 0.000000 0.000000 0.021915
#
#
# Mechanical properties :
#
#
# Convention : Reuss Voigt Hill
#
# Bulk Modulus (GPa) = 14.61723 37.33122 25.97422
# Shear Modulus (GPa) = 21.63984 32.04917 26.84451
#
# Velocity S-wave (km/s) = 3.04456 3.70515 3.39098
# Velocity P-wave (km/s) = 4.31513 5.85617 5.14369
#
# Compressibility (1/GPa) = 0.06841243
#
# Stress axis : x y z
#
# Youngs Moduli (GPa) = 119.10353 97.54069 16.96862
#
# Poissons Ratio (x) = 0.27478 -0.03674
# Poissons Ratio (y) = 0.33552 0.06672
# Poissons Ratio (z) = -0.25788 0.38354
#
# Static dielectric constant tensor:
#      x y z
#    x 1.982970 0.000000 0.000000 
#    y 0.000000 1.943340 0.000000 
#    z 0.000000 0.000000 2.027750 
# 
# From -- ./inp_files/18866.got.cif
#   From: 2010.05.17/outbox.cif.g08.bks.cpg/sg43_10_cif.got.tgz:18866.got - 2010.06.03 19:21:55.
