data_PCOD9370839
_publ_section_title
;
Structure prediction by ZEFSAII (Michael W. Deem and Ramdas Pophale) SiO2 
 PCOD9370839
Probable space group: F D D 2
;
_chemical_formula_sum "Si O2"
_cell_formula_units_Z 104
_cell_length_a 18.790476
_cell_length_b 27.342860
_cell_length_c 8.409372
_cell_angle_alpha 90.000000
_cell_angle_beta 90.000000
_cell_angle_gamma 90.000000
_cell_volume 4320.612175
_symmetry_space_group_name_H-M "F D D 2"
_symmetry_group_IT_number 43
_symmetry_cell_setting 'orthorhombic'
loop_
_space_group_symop_operation_xyz
x,y,z
-x,-y,z
1/4-x,1/4+y,1/4+z
1/4+x,1/4-y,1/4+z
x,1/2+y,1/2+z
-x,1/2-y,1/2+z
1/4-x,3/4+y,3/4+z
1/4+x,3/4-y,3/4+z
1/2+x,y,1/2+z
1/2-x,-y,1/2+z
3/4-x,1/4+y,3/4+z
3/4+x,1/4-y,3/4+z
1/2+x,1/2+y,z
1/2-x,1/2-y,z
3/4-x,3/4+y,1/4+z
3/4+x,3/4-y,1/4+z
loop_
_atom_site_type_symbol
_atom_site_label
_atom_site_fract_x
_atom_site_fract_y
_atom_site_fract_z
Si Si1 0.640555 0.979487 0.390000
Si Si2 0.467397 0.675245 0.150671
Si Si3 0.358679 0.014474 0.012282
Si Si4 0.465896 0.683037 0.777043
Si Si5 0.546120 0.096505 0.154204
Si Si6 0.000000 0.000000 0.829539
Si Si7 0.306973 0.845874 0.125527
O O1 0.704268 0.945387 0.452010
O O2 0.639152 0.972587 0.198709
O O3 0.558957 0.972963 0.435003
O O4 0.655750 0.035471 0.442335
O O5 0.406781 0.707651 0.237092
O O6 0.457614 0.619732 0.204876
O O7 0.459178 0.686879 0.965772
O O8 0.285045 0.039253 0.957145
O O9 0.419247 0.040350 0.909517
O O10 0.483667 0.627282 0.743733
O O11 0.622584 0.122724 0.184850
O O12 0.535713 0.041419 0.217140
O O13 0.515383 0.102774 0.975923
#
# Coordination Sequence:
#
# PCOD9370839 Si02
#       7
#    16  16  16  16  16   8  16
#     4  10  20  40  69  94 134 183 235 284 355 430
#     4  10  21  41  68  95 137 181 230 287 356 429
#     4   9  18  38  65  96 123 174 232 286 335 415
#     4   9  20  38  63  95 128 175 225 279 349 425
#     4  11  23  41  68  98 131 178 240 289 354 431
#     4  12  22  38  68  96 134 180 232 302 352 422
#     4  11  23  41  68 101 135 183 240 294 352 436
#
# _framework density 24.070664000000001
#
# number of rings (size 3 to 8) (size 9 to 14) (size 15 to 20)
#    0.000    1.846    1.538    2.769    0.000    3.692 
#    5.538    0.000    0.000    0.923    0.000    0.000 
#    0.000    0.000    0.000    0.000    0.000    0.000 
#
# Total GULP energy -144943.012794 kJ/mol
# GULP energy per Si atom -5574.731261 kJ/mol
# Density = 2.401588 g / cm^3
# Si number density = 24.070664 Si / 1000 Ang^3
#
#
#
# Elastic Constant Matrix: (Units=GPa)
#
#
# Indices 1 2 3 4 5 6 
#
# 1 110.0079 15.9458 21.3103 0.0000 0.0000 0.0000
# 2 15.9458 85.8245 23.5549 0.0000 0.0000 0.0000
# 3 21.3103 23.5549 31.3396 0.0000 0.0000 0.0000
# 4 0.0000 0.0000 0.0000 30.1190 0.0000 0.0000
# 5 0.0000 0.0000 0.0000 0.0000 27.1579 0.0000
# 6 0.0000 0.0000 0.0000 0.0000 0.0000 21.3858
#
#
#
# Elastic Compliance Matrix: (Units=1/GPa)
#
#
# Indices 1 2 3 4 5 6 
#
# 1 0.010469 0.000011 -0.007127 0.000000 0.000000 0.000000
# 2 0.000011 0.014680 -0.011041 0.000000 0.000000 0.000000
# 3 -0.007127 -0.011041 0.045053 0.000000 0.000000 0.000000
# 4 0.000000 0.000000 0.000000 0.033202 0.000000 0.000000
# 5 0.000000 0.000000 0.000000 0.000000 0.036822 0.000000
# 6 0.000000 0.000000 0.000000 0.000000 0.000000 0.046760
#
#
# Mechanical properties :
#
#
# Convention : Reuss Voigt Hill
#
# Bulk Modulus (GPa) = 29.50876 38.75488 34.13182
# Shear Modulus (GPa) = 21.31326 26.82329 24.06828
#
# Velocity S-wave (km/s) = 2.97887 3.34182 3.16555
# Velocity P-wave (km/s) = 4.91095 5.57008 5.25086
#
# Compressibility (1/GPa) = 0.03388825
#
# Stress axis : x y z
#
# Youngs Moduli (GPa) = 95.51729 68.12059 22.19600
#
# Poissons Ratio (x) = -0.00074 0.15819
# Poissons Ratio (y) = -0.00104 0.24506
# Poissons Ratio (z) = 0.68076 0.75211
#
# Static dielectric constant tensor:
#      x y z
#    x 2.023260 0.000000 0.000000 
#    y 0.000000 2.002230 0.000000 
#    z 0.000000 0.000000 1.927070 
# 
# From -- ./inp_files/3348.got.cif
#   From: 2010.05.17/outbox.cif.g08.bks.cpg/sg43_2_cif.got.tgz:3348.got - 2010.06.03 19:21:55.
