data_PCOD9370910
_publ_section_title
;
Structure prediction by ZEFSAII (Michael W. Deem and Ramdas Pophale) SiO2 
 PCOD9370910
Probable space group: F D D 2
;
_chemical_formula_sum "Si O2"
_cell_formula_units_Z 88
_cell_length_a 9.042709
_cell_length_b 23.095472
_cell_length_c 16.884519
_cell_angle_alpha 90.000000
_cell_angle_beta 90.000000
_cell_angle_gamma 90.000000
_cell_volume 3526.258050
_symmetry_space_group_name_H-M "F D D 2"
_symmetry_group_IT_number 43
_symmetry_cell_setting 'orthorhombic'
loop_
_space_group_symop_operation_xyz
x,y,z
-x,-y,z
1/4-x,1/4+y,1/4+z
1/4+x,1/4-y,1/4+z
x,1/2+y,1/2+z
-x,1/2-y,1/2+z
1/4-x,3/4+y,3/4+z
1/4+x,3/4-y,3/4+z
1/2+x,y,1/2+z
1/2-x,-y,1/2+z
3/4-x,1/4+y,3/4+z
3/4+x,1/4-y,3/4+z
1/2+x,1/2+y,z
1/2-x,1/2-y,z
3/4-x,3/4+y,1/4+z
3/4+x,3/4-y,1/4+z
loop_
_atom_site_type_symbol
_atom_site_label
_atom_site_fract_x
_atom_site_fract_y
_atom_site_fract_z
Si Si1 0.253783 0.447361 0.300610
Si Si2 0.381803 0.329520 0.333643
Si Si3 0.849797 0.609488 0.918452
Si Si4 0.448448 0.908096 0.329887
Si Si5 0.250000 0.250000 0.665709
Si Si6 0.081237 0.288447 0.382587
O O1 0.299656 0.379402 0.282980
O O2 0.374042 0.473156 0.359376
O O3 0.265221 0.479788 0.217076
O O4 0.094803 0.446483 0.343024
O O5 0.531184 0.359908 0.361645
O O6 0.249226 0.312938 0.395452
O O7 0.421312 0.262532 0.316416
O O8 0.707700 0.583927 0.872857
O O9 0.934025 0.555323 0.959060
O O10 0.811481 0.655555 0.985131
O O11 0.491941 0.843163 0.353806
#
# Coordination Sequence:
#
# PCOD9370910 Si02
#       6
#    16  16  16  16   8  16
#     4  10  21  43  68  98 134 179 230 286 352 428
#     4   9  22  38  67  95 130 174 233 281 339 423
#     4  11  25  43  64  97 137 180 229 294 351 428
#     4  11  24  44  63  98 141 173 231 289 357 424
#     4  10  24  44  68  96 132 182 226 286 354 426
#     4  10  20  42  66  96 128 182 225 284 349 422
#
# _framework density 24.955632000000001
#
# number of rings (size 3 to 8) (size 9 to 14) (size 15 to 20)
#    0.000    1.818    1.818    1.091    7.636    2.909 
#    6.545    1.818    0.000    0.000    0.000    0.000 
#    0.000    0.000    0.000    0.000    0.000    0.000 
#
# Total GULP energy -122696.337166 kJ/mol
# GULP energy per Si atom -5577.106235 kJ/mol
# Density = 2.489883 g / cm^3
# Si number density = 24.955632 Si / 1000 Ang^3
#
#
#
# Elastic Constant Matrix: (Units=GPa)
#
#
# Indices 1 2 3 4 5 6 
#
# 1 167.3333 51.6055 26.1029 0.0000 0.0000 0.0000
# 2 51.6055 99.4231 -6.7213 0.0000 0.0000 0.0000
# 3 26.1029 -6.7213 39.8158 0.0000 0.0000 0.0000
# 4 0.0000 0.0000 0.0000 13.4135 0.0000 0.0000
# 5 0.0000 0.0000 0.0000 0.0000 19.7407 0.0000
# 6 0.0000 0.0000 0.0000 0.0000 0.0000 57.8383
#
#
#
# Elastic Compliance Matrix: (Units=1/GPa)
#
#
# Indices 1 2 3 4 5 6 
#
# 1 0.008453 -0.004817 -0.006355 0.000000 0.000000 0.000000
# 2 -0.004817 0.012919 0.005339 0.000000 0.000000 0.000000
# 3 -0.006355 0.005339 0.030183 0.000000 0.000000 0.000000
# 4 0.000000 0.000000 0.000000 0.074552 0.000000 0.000000
# 5 0.000000 0.000000 0.000000 0.000000 0.050657 0.000000
# 6 0.000000 0.000000 0.000000 0.000000 0.000000 0.017290
#
#
# Mechanical properties :
#
#
# Convention : Reuss Voigt Hill
#
# Bulk Modulus (GPa) = 25.06934 49.83849 37.45391
# Shear Modulus (GPa) = 22.82935 33.90416 28.36676
#
# Velocity S-wave (km/s) = 3.02784 3.68989 3.37514
# Velocity P-wave (km/s) = 4.72135 6.17802 5.49814
#
# Compressibility (1/GPa) = 0.03988937
#
# Stress axis : x y z
#
# Youngs Moduli (GPa) = 118.30065 77.40355 33.13102
#
# Poissons Ratio (x) = 0.37287 0.21055
# Poissons Ratio (y) = 0.56987 -0.17689
# Poissons Ratio (z) = 0.75179 -0.41326
#
# Static dielectric constant tensor:
#      x y z
#    x 2.025510 0.000000 0.000000 
#    y 0.000000 2.057300 0.000000 
#    z 0.000000 0.000000 1.961600 
# 
# From -- ./inp_files/12885.got.cif
#   From: 2010.05.17/outbox.cif.g08.bks.cpg/sg43_7_cif.got.tgz:12885.got - 2010.06.03 19:21:55.
