data_PCOD9370590
_publ_section_title
;
Structure prediction by ZEFSAII (Michael W. Deem and Ramdas Pophale) SiO2 
 PCOD9370590
Probable space group: F D D 2
;
_chemical_formula_sum "Si O2"
_cell_formula_units_Z 88
_cell_length_a 12.783554
_cell_length_b 19.540968
_cell_length_c 14.219905
_cell_angle_alpha 90.000000
_cell_angle_beta 90.000000
_cell_angle_gamma 90.000000
_cell_volume 3552.175208
_symmetry_space_group_name_H-M "F D D 2"
_symmetry_group_IT_number 43
_symmetry_cell_setting 'orthorhombic'
loop_
_space_group_symop_operation_xyz
x,y,z
-x,-y,z
1/4-x,1/4+y,1/4+z
1/4+x,1/4-y,1/4+z
x,1/2+y,1/2+z
-x,1/2-y,1/2+z
1/4-x,3/4+y,3/4+z
1/4+x,3/4-y,3/4+z
1/2+x,y,1/2+z
1/2-x,-y,1/2+z
3/4-x,1/4+y,3/4+z
3/4+x,1/4-y,3/4+z
1/2+x,1/2+y,z
1/2-x,1/2-y,z
3/4-x,3/4+y,1/4+z
3/4+x,3/4-y,1/4+z
loop_
_atom_site_type_symbol
_atom_site_label
_atom_site_fract_x
_atom_site_fract_y
_atom_site_fract_z
Si Si1 0.274440 0.656549 0.524850
Si Si2 0.500000 0.000000 0.422670
Si Si3 0.078159 0.576734 0.592219
Si Si4 0.664369 0.708040 0.842259
Si Si5 0.776243 0.547537 0.659409
Si Si6 0.043220 0.424623 0.783218
O O1 0.323780 0.715559 0.591450
O O2 0.166975 0.632791 0.575680
O O3 0.235630 0.673921 0.422039
O O4 0.352448 0.593686 0.527625
O O5 0.510978 0.062187 0.498457
O O6 0.140056 0.505621 0.612941
O O7 0.009212 0.594427 0.682005
O O8 0.750000 0.750000 0.784397
O O9 0.578451 0.752198 0.899648
O O10 0.746635 0.615927 0.602627
O O11 0.833383 0.567859 0.757111
O O12 0.000000 0.500000 0.807518
#
# Coordination Sequence:
#
# PCOD9370590 Si02
#       6
#    16   8  16  16  16  16
#     4  11  23  39  68  98 139 184 233 292 356 415
#     4  12  18  36  66 100 134 176 238 280 354 410
#     4  10  20  36  63 101 135 180 236 290 342 427
#     4  11  25  45  66 100 141 183 236 292 354 430
#     4  10  22  41  66  98 135 181 234 296 349 424
#     4  10  21  40  67  98 138 182 235 291 360 426
#
# _framework density 24.773553
#
# number of rings (size 3 to 8) (size 9 to 14) (size 15 to 20)
#    0.000    1.455    5.455    1.091    0.000    2.909 
#    0.000    4.545    0.000    0.000    0.000    0.000 
#    0.000    0.000    0.000    0.000    0.000    0.000 
#
# Total GULP energy -122657.138665 kJ/mol
# GULP energy per Si atom -5575.324485 kJ/mol
# Density = 2.471717 g / cm^3
# Si number density = 24.773553 Si / 1000 Ang^3
#
#
#
# Elastic Constant Matrix: (Units=GPa)
#
#
# Indices 1 2 3 4 5 6 
#
# 1 121.0782 35.9216 20.1310 0.0000 0.0000 0.0000
# 2 35.9216 122.1566 35.2319 0.0000 0.0000 0.0000
# 3 20.1310 35.2319 90.0106 0.0000 0.0000 0.0000
# 4 0.0000 0.0000 0.0000 24.3601 0.0000 0.0000
# 5 0.0000 0.0000 0.0000 0.0000 27.2476 0.0000
# 6 0.0000 0.0000 0.0000 0.0000 0.0000 35.7497
#
#
#
# Elastic Compliance Matrix: (Units=1/GPa)
#
#
# Indices 1 2 3 4 5 6 
#
# 1 0.009148 -0.002367 -0.001119 0.000000 0.000000 0.000000
# 2 -0.002367 0.009841 -0.003322 0.000000 0.000000 0.000000
# 3 -0.001119 -0.003322 0.012661 0.000000 0.000000 0.000000
# 4 0.000000 0.000000 0.000000 0.041051 0.000000 0.000000
# 5 0.000000 0.000000 0.000000 0.000000 0.036701 0.000000
# 6 0.000000 0.000000 0.000000 0.000000 0.000000 0.027972
#
#
# Mechanical properties :
#
#
# Convention : Reuss Voigt Hill
#
# Bulk Modulus (GPa) = 55.45996 57.31270 56.38633
# Shear Modulus (GPa) = 31.84714 33.60220 32.72467
#
# Velocity S-wave (km/s) = 3.58932 3.68689 3.63843
# Velocity P-wave (km/s) = 6.29388 6.42722 6.36090
#
# Compressibility (1/GPa) = 0.01803103
#
# Stress axis : x y z
#
# Youngs Moduli (GPa) = 109.31941 101.62078 78.98533
#
# Poissons Ratio (x) = 0.24055 0.08841
# Poissons Ratio (y) = 0.25877 0.26242
# Poissons Ratio (z) = 0.12236 0.33762
#
# Static dielectric constant tensor:
#      x y z
#    x 2.053410 0.000000 0.000000 
#    y 0.000000 2.095280 0.000000 
#    z 0.000000 0.000000 1.962560 
# 
# From -- ./inp_files/10044.got.cif
#   From: 2010.05.17/outbox.cif.g08.bks.cpg/sg43_6_cif.got.tgz:10044.got - 2010.06.03 19:21:55.
