data_PCOD9370397
_publ_section_title
;
Structure prediction by ZEFSAII (Michael W. Deem and Ramdas Pophale) SiO2 
 PCOD9370397
Probable space group: F D D 2
;
_chemical_formula_sum "Si O2"
_cell_formula_units_Z 128
_cell_length_a 23.889945
_cell_length_b 12.567303
_cell_length_c 22.319196
_cell_angle_alpha 90.000000
_cell_angle_beta 90.000000
_cell_angle_gamma 90.000000
_cell_volume 6700.940814
_symmetry_space_group_name_H-M "F D D 2"
_symmetry_group_IT_number 43
_symmetry_cell_setting 'orthorhombic'
loop_
_space_group_symop_operation_xyz
x,y,z
-x,-y,z
1/4-x,1/4+y,1/4+z
1/4+x,1/4-y,1/4+z
x,1/2+y,1/2+z
-x,1/2-y,1/2+z
1/4-x,3/4+y,3/4+z
1/4+x,3/4-y,3/4+z
1/2+x,y,1/2+z
1/2-x,-y,1/2+z
3/4-x,1/4+y,3/4+z
3/4+x,1/4-y,3/4+z
1/2+x,1/2+y,z
1/2-x,1/2-y,z
3/4-x,3/4+y,1/4+z
3/4+x,3/4-y,1/4+z
loop_
_atom_site_type_symbol
_atom_site_label
_atom_site_fract_x
_atom_site_fract_y
_atom_site_fract_z
Si Si1 0.572123 0.671857 0.766880
Si Si2 0.968904 0.393979 0.596720
Si Si3 0.949490 0.348950 0.405232
Si Si4 0.170648 0.749923 0.418590
Si Si5 0.293718 0.966570 0.744985
Si Si6 0.217461 0.025603 0.947322
Si Si7 0.938195 0.451075 0.035471
Si Si8 0.146922 0.245360 0.247000
O O1 0.549459 0.647661 0.833485
O O2 0.571538 0.563626 0.729301
O O3 0.527079 0.739979 0.728753
O O4 0.634301 0.724596 0.769113
O O5 0.953407 0.314820 0.649278
O O6 0.921803 0.444288 0.554278
O O7 0.000000 0.500000 0.619775
O O8 0.006598 0.322802 0.551720
O O9 0.894856 0.277950 0.417992
O O10 0.931815 0.457204 0.440052
O O11 0.004047 0.301365 0.437240
O O12 0.207379 0.642095 0.418085
O O13 0.182948 0.812491 0.357387
O O14 0.342817 0.880045 0.745404
O O15 0.313387 0.086696 0.753744
O O16 0.167796 0.021266 0.994766
O O17 0.000000 0.500000 0.022930
#
# Coordination Sequence:
#
# PCOD9370397 Si02
#       8
#    16  16  16  16  16  16  16  16
#     4  11  23  37  56  87 120 149 187 243 295 336
#     4   9  19  37  59  82 113 151 194 238 281 340
#     4   9  20  36  57  86 117 144 186 245 291 335
#     4  10  21  37  58  85 113 146 190 237 291 348
#     4  10  19  37  59  82 112 153 196 230 279 351
#     4  11  22  36  58  87 116 149 191 240 289 341
#     4  11  22  38  61  83 110 153 196 235 285 349
#     4   9  21  36  56  86 116 151 193 236 288 348
#
# _framework density 19.101794999999999
#
# number of rings (size 3 to 8) (size 9 to 14) (size 15 to 20)
#    0.000    2.000    0.000    4.500    0.000   12.000 
#    0.000    2.500    0.000    3.750    0.000    0.000 
#    0.000    0.000    0.000    0.000    0.000    0.000 
#
# Total GULP energy -178420.383610 kJ/mol
# GULP energy per Si atom -5575.636988 kJ/mol
# Density = 1.905832 g / cm^3
# Si number density = 19.101795 Si / 1000 Ang^3
#
#
#
# Elastic Constant Matrix: (Units=GPa)
#
#
# Indices 1 2 3 4 5 6 
#
# 1 75.9608 21.9427 21.7105 0.0000 0.0000 0.0000
# 2 21.9427 107.4510 53.3366 0.0000 0.0000 0.0000
# 3 21.7105 53.3366 79.8162 0.0000 0.0000 0.0000
# 4 0.0000 0.0000 0.0000 26.5773 0.0000 0.0000
# 5 0.0000 0.0000 0.0000 0.0000 20.8767 0.0000
# 6 0.0000 0.0000 0.0000 0.0000 0.0000 2233.1835
#
#
#
# Elastic Compliance Matrix: (Units=1/GPa)
#
#
# Indices 1 2 3 4 5 6 
#
# 1 0.014433 -0.001494 -0.002927 0.000000 0.000000 0.000000
# 2 -0.001494 0.014081 -0.009003 0.000000 0.000000 0.000000
# 3 -0.002927 -0.009003 0.019341 0.000000 0.000000 0.000000
# 4 0.000000 0.000000 0.000000 0.037626 0.000000 0.000000
# 5 0.000000 0.000000 0.000000 0.000000 0.047900 0.000000
# 6 0.000000 0.000000 0.000000 0.000000 0.000000 0.000448
#
#
# Mechanical properties :
#
#
# Convention : Reuss Voigt Hill
#
# Bulk Modulus (GPa) = 47.60579 50.80083 49.20331
# Shear Modulus (GPa) = 29.81882 467.21004 248.51443
#
# Velocity S-wave (km/s) = 3.95530 15.65633 11.41851
# Velocity P-wave (km/s) = 6.77019 18.80106 14.13003
#
# Compressibility (1/GPa) = 0.02100585
#
# Stress axis : x y z
#
# Youngs Moduli (GPa) = 69.28566 71.02020 51.70357
#
# Poissons Ratio (x) = 0.10613 0.15135
# Poissons Ratio (y) = 0.10354 0.46547
# Poissons Ratio (z) = 0.20282 0.63938
#
# Static dielectric constant tensor:
#      x y z
#    x 1.697710 0.000000 0.000000 
#    y 0.000000 1.676090 0.000000 
#    z 0.000000 0.000000 1.667040 
# 
# From -- ./inp_files/22666.got.cif
#   From: 2010.05.17/outbox.cif.g08.bks.cpg/sg43_12_cif.got.tgz:22666.got - 2010.06.03 19:21:55.
