data_PCOD9370796
_publ_section_title
;
Structure prediction by ZEFSAII (Michael W. Deem and Ramdas Pophale) SiO2 
 PCOD9370796
Probable space group: F D D 2
;
_chemical_formula_sum "Si O2"
_cell_formula_units_Z 104
_cell_length_a 28.963432
_cell_length_b 19.128659
_cell_length_c 7.478342
_cell_angle_alpha 90.000000
_cell_angle_beta 90.000000
_cell_angle_gamma 90.000000
_cell_volume 4143.237890
_symmetry_space_group_name_H-M "F D D 2"
_symmetry_group_IT_number 43
_symmetry_cell_setting 'orthorhombic'
loop_
_space_group_symop_operation_xyz
x,y,z
-x,-y,z
1/4-x,1/4+y,1/4+z
1/4+x,1/4-y,1/4+z
x,1/2+y,1/2+z
-x,1/2-y,1/2+z
1/4-x,3/4+y,3/4+z
1/4+x,3/4-y,3/4+z
1/2+x,y,1/2+z
1/2-x,-y,1/2+z
3/4-x,1/4+y,3/4+z
3/4+x,1/4-y,3/4+z
1/2+x,1/2+y,z
1/2-x,1/2-y,z
3/4-x,3/4+y,1/4+z
3/4+x,3/4-y,1/4+z
loop_
_atom_site_type_symbol
_atom_site_label
_atom_site_fract_x
_atom_site_fract_y
_atom_site_fract_z
Si Si1 0.500000 0.000000 0.556041
Si Si2 0.573788 0.257614 0.114415
Si Si3 0.328595 0.360262 0.887214
Si Si4 0.988456 0.852846 0.095857
Si Si5 0.349991 0.008869 0.275700
Si Si6 0.921304 0.505007 0.842364
Si Si7 0.273938 0.634006 0.263332
O O1 0.487385 0.924218 0.481116
O O2 0.455919 0.015440 0.681368
O O3 0.622858 0.274800 0.027023
O O4 0.555506 0.179479 0.078521
O O5 0.533092 0.307624 0.049757
O O6 0.585489 0.264011 0.324396
O O7 0.349181 0.437955 0.888972
O O8 0.353607 0.305799 0.020739
O O9 0.340400 0.326181 0.693720
O O10 0.272999 0.362488 0.877396
O O11 0.990735 0.868943 0.307854
O O12 0.942005 0.808996 0.078877
O O13 0.946795 0.455100 0.987871
#
# Coordination Sequence:
#
# PCOD9370796 Si02
#       7
#     8  16  16  16  16  16  16
#     4  10  20  40  64  86 132 168 220 274 326 406
#     4  11  22  37  71  94 129 170 228 277 337 404
#     4  11  21  43  65  96 134 179 220 285 330 412
#     4  11  21  45  60  96 133 175 212 284 336 406
#     4  11  25  41  67  96 136 177 225 277 345 402
#     4  10  21  36  64  99 120 166 224 279 316 401
#     4  11  22  41  68  95 132 175 229 274 339 399
#
# _framework density 25.101140000000001
#
# number of rings (size 3 to 8) (size 9 to 14) (size 15 to 20)
#    0.000    1.231    6.154    0.000   10.769    0.000 
#    5.538    1.538    0.000    0.000    0.000    0.000 
#    0.000    0.000    0.000    0.000    0.000    0.000 
#
# Total GULP energy -145468.188645 kJ/mol
# GULP energy per Si atom -5594.930333 kJ/mol
# Density = 2.504401 g / cm^3
# Si number density = 25.101140 Si / 1000 Ang^3
#
#
#
# Elastic Constant Matrix: (Units=GPa)
#
#
# Indices 1 2 3 4 5 6 
#
# 1 183.7053 58.6141 17.2721 0.0000 0.0000 0.0000
# 2 58.6141 179.9066 20.0793 -0.0005 0.0001 0.0001
# 3 17.2721 20.0793 68.0393 -0.0010 0.0001 0.0001
# 4 0.0000 -0.0005 -0.0010 18.8553 0.0001 0.0001
# 5 0.0000 0.0001 0.0001 0.0001 21.1129 0.0000
# 6 0.0000 0.0001 0.0001 0.0001 0.0000 23.9481
#
#
#
# Elastic Compliance Matrix: (Units=1/GPa)
#
#
# Indices 1 2 3 4 5 6 
#
# 1 0.006140 -0.001889 -0.001001 0.000000 0.000000 0.000000
# 2 -0.001889 0.006329 -0.001388 0.000000 0.000000 0.000000
# 3 -0.001001 -0.001388 0.015361 0.000001 0.000000 0.000000
# 4 0.000000 0.000000 0.000001 0.053036 0.000000 0.000000
# 5 0.000000 0.000000 0.000000 0.000000 0.047364 0.000000
# 6 0.000000 0.000000 0.000000 0.000000 0.000000 0.041757
#
#
# Mechanical properties :
#
#
# Convention : Reuss Voigt Hill
#
# Bulk Modulus (GPa) = 51.88434 69.28690 60.58562
# Shear Modulus (GPa) = 27.03165 35.16231 31.09698
#
# Velocity S-wave (km/s) = 3.28519 3.74682 3.52357
# Velocity P-wave (km/s) = 5.92494 6.81038 6.38303
#
# Compressibility (1/GPa) = 0.01927364
#
# Stress axis : x y z
#
# Youngs Moduli (GPa) = 162.85878 158.00923 65.09877
#
# Poissons Ratio (x) = 0.29844 0.06519
# Poissons Ratio (y) = 0.30760 0.09037
# Poissons Ratio (z) = 0.16308 0.21935
#
# Static dielectric constant tensor:
#      x y z
#    x 2.012250 0.000000 0.000000 
#    y 0.000000 2.035930 0.000000 
#    z 0.000000 0.000000 2.020810 
# 
# From -- ./inp_files/6852.got.cif
#   From: 2010.05.17/outbox.cif.g08.bks.cpg/sg43_4_cif.got.tgz:6852.got - 2010.06.03 19:21:55.
