data_PCOD9370022
_publ_section_title
;
Structure prediction by ZEFSAII (Michael W. Deem and Ramdas Pophale) SiO2 
 PCOD9370022
Probable space group: F M M 2
;
_chemical_formula_sum "Si O2"
_cell_formula_units_Z 22
_cell_length_a 15.000000
_cell_length_b 24.000000
_cell_length_c 12.000000
_cell_angle_alpha 90.000000
_cell_angle_beta 90.000000
_cell_angle_gamma 90.000000
_cell_volume 4320.000000
_symmetry_space_group_name_H-M "F M M 2"
_symmetry_group_IT_number 42
_symmetry_cell_setting 'orthorhombic'
loop_
_space_group_symop_operation_xyz
x,y,z
-x,-y,z
-x,y,z
x,-y,z
x,1/2+y,1/2+z
-x,1/2-y,1/2+z
-x,1/2+y,1/2+z
x,1/2-y,1/2+z
1/2+x,y,1/2+z
1/2-x,-y,1/2+z
1/2-x,y,1/2+z
1/2+x,-y,1/2+z
1/2+x,1/2+y,z
1/2-x,1/2-y,z
1/2-x,1/2+y,z
1/2+x,1/2-y,z
loop_
_atom_site_type_symbol
_atom_site_label
_atom_site_fract_x
_atom_site_fract_y
_atom_site_fract_z
Si Si1 0.338807 0.639011 0.950180
Si Si2 0.000000 0.343528 0.157550
Si Si3 0.349545 0.767305 0.257514
Si Si4 0.500000 0.432291 0.858457
Si Si5 0.184906 0.564045 0.858913
Si Si6 0.500000 0.939425 0.988692
Si Si7 0.103560 0.648439 0.697594
O O1 0.342100 0.692076 0.865743
O O2 0.414179 0.592961 0.920820
O O3 0.248923 0.603608 0.931983
O O4 0.359917 0.660058 0.073785
O O5 0.086277 0.304137 0.177539
O O6 0.000000 0.395305 0.245414
O O7 0.000000 0.379269 0.046592
O O8 0.250000 0.750000 0.219744
O O9 0.391970 0.705654 0.269275
O O10 0.500000 0.500000 0.848976
O O11 0.218159 0.500000 0.842086
O O12 0.165064 0.599586 0.747758
O O13 0.089370 0.559625 0.917049
O O14 0.500000 0.000000 0.052870
O O15 0.000000 0.631002 0.692028
#
# Coordination Sequence:
#
# PCOD9370022 Si02
#       7
#    16   8  16   8  16   8  16
#     4  11  25  44  68 101 135 178 230 279 343 406
#     4  10  23  40  66  96 133 174 226 274 338 406
#     4  11  24  44  65  98 134 174 224 282 335 398
#     4  10  21  40  64  96 135 172 222 286 333 395
#     4  11  25  45  68  99 139 178 228 284 340 409
#     4  10  23  42  66  98 135 182 228 280 341 403
#     4  12  25  46  71 100 134 184 231 281 340 404
#
# _framework density 5.0925929999999999
#
# number of rings (size 3 to 8) (size 9 to 14) (size 15 to 20)
#    0.000    1.091    4.545    0.818    2.545    3.636 
#    0.000    3.636    0.000    0.000    0.000    0.000 
#    0.000    0.000    0.000    0.000    0.000    0.000 
#
# Total GULP energy -122686.605695 kJ/mol
# GULP energy per Si atom -5576.663895 kJ/mol
# Density = 0.508100 g / cm^3
# Si number density = 5.092593 Si / 1000 Ang^3
#
#
#
# Elastic Constant Matrix: (Units=GPa)
#
#
# Indices 1 2 3 4 5 6 
#
# 1 110.7630 18.4064 17.9670 0.0000 0.0000 0.0000
# 2 18.4064 159.8973 40.3435 0.0000 0.0000 0.0000
# 3 17.9670 40.3435 42.4642 0.0000 0.0000 0.0000
# 4 0.0000 0.0000 0.0000 31.6837 0.0000 0.0000
# 5 0.0000 0.0000 0.0000 0.0000 16.1873 0.0000
# 6 0.0000 0.0000 0.0000 0.0000 0.0000 48.4837
#
#
#
# Elastic Compliance Matrix: (Units=1/GPa)
#
#
# Indices 1 2 3 4 5 6 
#
# 1 0.009695 -0.000107 -0.004001 0.000000 0.000000 0.000000
# 2 -0.000107 0.008227 -0.007771 0.000000 0.000000 0.000000
# 3 -0.004001 -0.007771 0.032625 0.000000 0.000000 0.000000
# 4 0.000000 0.000000 0.000000 0.031562 0.000000 0.000000
# 5 0.000000 0.000000 0.000000 0.000000 0.061777 0.000000
# 6 0.000000 0.000000 0.000000 0.000000 0.000000 0.020625
#
#
# Mechanical properties :
#
#
# Convention : Reuss Voigt Hill
#
# Bulk Modulus (GPa) = 37.32721 51.83981 44.58351
# Shear Modulus (GPa) = 25.35527 35.03147 30.19337
#
# Velocity S-wave (km/s) = 3.53188 4.15146 3.85414
# Velocity P-wave (km/s) = 5.91576 6.96300 6.46063
#
# Compressibility (1/GPa) = 0.02679011
#
# Stress axis : x y z
#
# Youngs Moduli (GPa) = 103.14628 121.55134 30.65146
#
# Poissons Ratio (x) = 0.01296 0.12263
# Poissons Ratio (y) = 0.01100 0.23819
# Poissons Ratio (z) = 0.41266 0.94458
#
# Static dielectric constant tensor:
#      x y z
#    x 1.754570 0.000000 0.000000 
#    y 0.000000 1.717250 0.000000 
#    z 0.000000 0.000000 1.752940 
# 
# From -- ./inp_files/7884.got.cif
#   From: 2010.05.17/outbox.ucp.g08.bks.cvg/sg42_4_cif.got.tgz:7884.got - 2010.06.11 16:29:10.
