data_PCOD9370979
_publ_section_title
;
Structure prediction by ZEFSAII (Michael W. Deem and Ramdas Pophale) SiO2 
 PCOD9370979
Probable space group: F D D 2
;
_chemical_formula_sum "Si O2"
_cell_formula_units_Z 72
_cell_length_a 22.658752
_cell_length_b 7.578174
_cell_length_c 17.049872
_cell_angle_alpha 90.000000
_cell_angle_beta 90.000000
_cell_angle_gamma 90.000000
_cell_volume 2927.667029
_symmetry_space_group_name_H-M "F D D 2"
_symmetry_group_IT_number 43
_symmetry_cell_setting 'orthorhombic'
loop_
_space_group_symop_operation_xyz
x,y,z
-x,-y,z
1/4-x,1/4+y,1/4+z
1/4+x,1/4-y,1/4+z
x,1/2+y,1/2+z
-x,1/2-y,1/2+z
1/4-x,3/4+y,3/4+z
1/4+x,3/4-y,3/4+z
1/2+x,y,1/2+z
1/2-x,-y,1/2+z
3/4-x,1/4+y,3/4+z
3/4+x,1/4-y,3/4+z
1/2+x,1/2+y,z
1/2-x,1/2-y,z
3/4-x,3/4+y,1/4+z
3/4+x,3/4-y,1/4+z
loop_
_atom_site_type_symbol
_atom_site_label
_atom_site_fract_x
_atom_site_fract_y
_atom_site_fract_z
Si Si1 0.500000 0.500000 0.938680
Si Si2 0.679412 0.251607 0.326604
Si Si3 0.648133 0.065769 0.935801
Si Si4 0.380215 0.784414 0.699837
Si Si5 0.244211 0.048738 0.037178
O O1 0.563337 0.497900 0.978872
O O2 0.502212 0.668613 0.879416
O O3 0.750000 0.250000 0.326471
O O4 0.653652 0.236289 0.239641
O O5 0.659656 0.439409 0.362734
O O6 0.649549 0.101712 0.381270
O O7 0.705870 0.058142 0.992400
O O8 0.865100 0.232567 0.918585
O O9 0.429793 0.764301 0.765469
O O10 0.250000 0.250000 0.005325
#
# Coordination Sequence:
#
# PCOD9370979 Si02
#       5
#     8  16  16  16  16
#     4  10  24  44  72 100 150 186 228 324 356 424
#     4  12  26  49  72 111 157 192 251 323 371 449
#     4  12  26  44  78 108 142 205 247 301 384 454
#     4  12  24  45  72 104 144 192 250 294 373 448
#     4  10  20  45  72  97 142 193 231 306 367 427
#
# _framework density 24.592960999999999
#
# number of rings (size 3 to 8) (size 9 to 14) (size 15 to 20)
#    0.667    0.000    6.667    0.667    3.111    1.778 
#    0.000    0.000    0.000    0.000    0.000    0.000 
#    0.000    0.000    0.000    0.000    0.000    0.000 
#
# Total GULP energy -100834.131134 kJ/mol
# GULP energy per Si atom -5601.896174 kJ/mol
# Density = 2.453699 g / cm^3
# Si number density = 24.592961 Si / 1000 Ang^3
#
#
#
# Elastic Constant Matrix: (Units=GPa)
#
#
# Indices 1 2 3 4 5 6 
#
# 1 202.6212 44.6989 28.4558 0.0000 0.0000 0.0000
# 2 44.6989 129.6544 10.0572 0.0000 0.0000 0.0000
# 3 28.4558 10.0572 52.3986 0.0000 0.0000 0.0000
# 4 0.0000 0.0000 0.0000 -2.4460 0.0000 0.0000
# 5 0.0000 0.0000 0.0000 0.0000 41.6313 0.0000
# 6 0.0000 0.0000 0.0000 0.0000 0.0000 24.7118
#
#
#
# Elastic Compliance Matrix: (Units=1/GPa)
#
#
# Indices 1 2 3 4 5 6 
#
# 1 0.005711 -0.001754 -0.002764 0.000000 0.000000 0.000000
# 2 -0.001754 0.008368 -0.000653 0.000000 0.000000 0.000000
# 3 -0.002764 -0.000653 0.020711 0.000000 0.000000 0.000000
# 4 0.000000 0.000000 0.000000 -0.408837 0.000000 0.000000
# 5 0.000000 0.000000 0.000000 0.000000 0.024020 0.000000
# 6 0.000000 0.000000 0.000000 0.000000 0.000000 0.040466
#
#
# Mechanical properties :
#
#
# Convention : Reuss Voigt Hill
#
# Bulk Modulus (GPa) = 40.90725 61.23311 51.07018
# Shear Modulus (GPa) = -17.17819 32.87693 7.84937
#
# Velocity S-wave (km/s) = -2.64578 3.66025 1.78847
# Velocity P-wave (km/s) = 2.70856 6.54339 5.00761
#
# Compressibility (1/GPa) = 0.02444554
#
# Stress axis : x y z
#
# Youngs Moduli (GPa) = 175.11408 119.49853 48.28301
#
# Poissons Ratio (x) = 0.20964 0.13348
# Poissons Ratio (y) = 0.30720 0.03155
# Poissons Ratio (z) = 0.48410 0.07809
#
# Static dielectric constant tensor:
#      x y z
#    x 1.931810 0.000000 0.000000 
#    y 0.000000 1.940170 0.000000 
#    z 0.000000 0.000000 1.969300 
# 
# From -- ./inp_files/21994.got.cif
#   From: 2010.05.17/outbox.cif.g08.bks.cpg/sg43_11_cif.got.tgz:21994.got - 2010.06.03 19:21:55.
