data_PCOD9370497
_publ_section_title
;
Structure prediction by ZEFSAII (Michael W. Deem and Ramdas Pophale) SiO2 
 PCOD9370497
Probable space group: F D D 2
;
_chemical_formula_sum "Si O2"
_cell_formula_units_Z 128
_cell_length_a 11.534867
_cell_length_b 25.226613
_cell_length_c 18.229714
_cell_angle_alpha 90.000000
_cell_angle_beta 90.000000
_cell_angle_gamma 90.000000
_cell_volume 5304.584737
_symmetry_space_group_name_H-M "F D D 2"
_symmetry_group_IT_number 43
_symmetry_cell_setting 'orthorhombic'
loop_
_space_group_symop_operation_xyz
x,y,z
-x,-y,z
1/4-x,1/4+y,1/4+z
1/4+x,1/4-y,1/4+z
x,1/2+y,1/2+z
-x,1/2-y,1/2+z
1/4-x,3/4+y,3/4+z
1/4+x,3/4-y,3/4+z
1/2+x,y,1/2+z
1/2-x,-y,1/2+z
3/4-x,1/4+y,3/4+z
3/4+x,1/4-y,3/4+z
1/2+x,1/2+y,z
1/2-x,1/2-y,z
3/4-x,3/4+y,1/4+z
3/4+x,3/4-y,1/4+z
loop_
_atom_site_type_symbol
_atom_site_label
_atom_site_fract_x
_atom_site_fract_y
_atom_site_fract_z
Si Si1 0.922186 0.550837 0.846200
Si Si2 0.688283 0.507443 0.847139
Si Si3 0.288298 0.139455 0.065554
Si Si4 0.577020 0.947648 0.673624
Si Si5 0.095983 0.644220 0.671284
Si Si6 0.523794 0.442813 0.552025
Si Si7 0.852129 0.791815 0.965536
Si Si8 0.509196 0.342255 0.329644
O O1 0.801390 0.534624 0.880114
O O2 0.900827 0.561890 0.759671
O O3 0.986528 0.602562 0.874256
O O4 0.000000 0.500000 0.849173
O O5 0.599880 0.556207 0.842231
O O6 0.705586 0.482253 0.764732
O O7 0.658299 0.454673 0.892185
O O8 0.215313 0.120808 0.137455
O O9 0.386730 0.102986 0.028422
O O10 0.192343 0.154339 0.004119
O O11 0.504316 0.896444 0.645624
O O12 0.695555 0.950831 0.628923
O O13 0.500000 0.000000 0.665514
O O14 0.069588 0.648983 0.757626
O O15 0.500000 0.500000 0.514486
O O16 0.590291 0.455347 0.628950
O O17 0.393608 0.421200 0.564376
O O18 0.750000 0.750000 0.982824
#
# Coordination Sequence:
#
# PCOD9370497 Si02
#       8
#    16  16  16  16  16  16  16  16
#     4  10  21  39  66  92 120 170 225 262 320 399
#     4  10  19  41  66  93 120 163 221 274 319 381
#     4  10  21  40  65  91 121 163 220 263 319 385
#     4  10  24  39  62  88 124 175 217 262 319 401
#     4  10  23  41  62  92 129 165 214 268 330 398
#     4  11  24  39  62  96 130 169 209 270 332 389
#     4   8  19  35  62  89 115 158 212 265 302 371
#     4  11  24  42  60  96 137 168 207 277 343 393
#
# _framework density 24.130068999999999
#
# number of rings (size 3 to 8) (size 9 to 14) (size 15 to 20)
#    0.000    2.000    1.250    1.875    7.000    5.000 
#    2.250    3.125    0.000    0.000    0.000    0.000 
#    0.000    0.000    0.000    0.000    0.000    0.000 
#
# Total GULP energy -178495.773210 kJ/mol
# GULP energy per Si atom -5577.992913 kJ/mol
# Density = 2.407515 g / cm^3
# Si number density = 24.130069 Si / 1000 Ang^3
#
#
#
# Elastic Constant Matrix: (Units=GPa)
#
#
# Indices 1 2 3 4 5 6 
#
# 1 98.4090 39.7236 21.3019 0.0000 0.0000 0.0000
# 2 39.7236 114.8820 6.9817 0.0000 0.0000 0.0000
# 3 21.3019 6.9817 83.8821 0.0000 0.0000 0.0000
# 4 0.0000 0.0000 0.0000 19.4849 0.0000 0.0000
# 5 0.0000 0.0000 0.0000 0.0000 21.9980 0.0000
# 6 0.0000 0.0000 0.0000 0.0000 0.0000 35.1926
#
#
#
# Elastic Compliance Matrix: (Units=1/GPa)
#
#
# Indices 1 2 3 4 5 6 
#
# 1 0.012438 -0.004130 -0.002815 0.000000 0.000000 0.000000
# 2 -0.004130 0.010120 0.000206 0.000000 0.000000 0.000000
# 3 -0.002815 0.000206 0.012619 0.000000 0.000000 0.000000
# 4 0.000000 0.000000 0.000000 0.051322 0.000000 0.000000
# 5 0.000000 0.000000 0.000000 0.000000 0.045459 0.000000
# 6 0.000000 0.000000 0.000000 0.000000 0.000000 0.028415
#
#
# Mechanical properties :
#
#
# Convention : Reuss Voigt Hill
#
# Bulk Modulus (GPa) = 46.08131 48.13196 47.10663
# Shear Modulus (GPa) = 27.61168 30.61281 29.11225
#
# Velocity S-wave (km/s) = 3.38640 3.56569 3.47720
# Velocity P-wave (km/s) = 5.86760 6.07802 5.97374
#
# Compressibility (1/GPa) = 0.02170077
#
# Stress axis : x y z
#
# Youngs Moduli (GPa) = 80.39884 98.81425 79.24458
#
# Poissons Ratio (x) = 0.40807 0.22307
# Poissons Ratio (y) = 0.33202 -0.01636
# Poissons Ratio (z) = 0.22632 -0.02040
#
# Static dielectric constant tensor:
#      x y z
#    x 1.750350 0.000000 0.000000 
#    y 0.000000 1.935450 0.000000 
#    z 0.000000 0.000000 1.969380 
# 
# From -- ./inp_files/21389.got.cif
#   From: 2010.05.17/outbox.cif.g08.bks.cpg/sg43_11_cif.got.tgz:21389.got - 2010.06.03 19:21:55.
