data_PCOD9370392
_publ_section_title
;
Structure prediction by ZEFSAII (Michael W. Deem and Ramdas Pophale) SiO2 
 PCOD9370392
Probable space group: F D D 2
;
_chemical_formula_sum "Si O2"
_cell_formula_units_Z 128
_cell_length_a 24.633689
_cell_length_b 24.918727
_cell_length_c 8.610271
_cell_angle_alpha 90.000000
_cell_angle_beta 90.000000
_cell_angle_gamma 90.000000
_cell_volume 5285.330225
_symmetry_space_group_name_H-M "F D D 2"
_symmetry_group_IT_number 43
_symmetry_cell_setting 'orthorhombic'
loop_
_space_group_symop_operation_xyz
x,y,z
-x,-y,z
1/4-x,1/4+y,1/4+z
1/4+x,1/4-y,1/4+z
x,1/2+y,1/2+z
-x,1/2-y,1/2+z
1/4-x,3/4+y,3/4+z
1/4+x,3/4-y,3/4+z
1/2+x,y,1/2+z
1/2-x,-y,1/2+z
3/4-x,1/4+y,3/4+z
3/4+x,1/4-y,3/4+z
1/2+x,1/2+y,z
1/2-x,1/2-y,z
3/4-x,3/4+y,1/4+z
3/4+x,3/4-y,1/4+z
loop_
_atom_site_type_symbol
_atom_site_label
_atom_site_fract_x
_atom_site_fract_y
_atom_site_fract_z
Si Si1 0.128471 0.432259 0.021020
Si Si2 0.057012 0.517248 0.165123
Si Si3 0.284543 0.698795 0.772628
Si Si4 0.531753 0.788468 0.966062
Si Si5 0.759220 0.586050 0.187128
Si Si6 0.835105 0.059977 0.201100
Si Si7 0.407147 0.204212 0.271448
Si Si8 0.606807 0.846097 0.789137
O O1 0.096087 0.465443 0.148254
O O2 0.184519 0.409316 0.089405
O O3 0.143133 0.464997 0.863680
O O4 0.095130 0.385522 0.936518
O O5 0.043500 0.536882 0.339018
O O6 0.088760 0.563172 0.074457
O O7 0.000000 0.500000 0.091747
O O8 0.250000 0.750000 0.835004
O O9 0.257874 0.639991 0.789982
O O10 0.346530 0.692691 0.827255
O O11 0.579629 0.795833 0.089935
O O12 0.514658 0.726302 0.988119
O O13 0.477621 0.823302 0.986939
O O14 0.557304 0.804666 0.799028
O O15 0.702979 0.584011 0.093204
O O16 0.874157 0.110105 0.163711
O O17 0.833730 0.015542 0.071586
#
# Coordination Sequence:
#
# PCOD9370392 Si02
#       8
#    16  16  16  16  16  16  16  16
#     4  10  19  37  56  90 127 159 205 265 328 373
#     4  11  22  35  61  94 123 163 215 270 324 372
#     4  11  24  41  60  94 129 165 215 274 323 383
#     4  11  20  36  66  94 120 170 220 266 322 384
#     4  11  21  39  65  92 125 165 220 278 309 384
#     4   9  23  37  60  92 131 162 207 266 324 384
#     4  11  21  41  65  94 129 170 212 260 338 385
#     4  10  20  36  58  93 123 163 209 272 313 376
#
# _framework density 24.217974999999999
#
# number of rings (size 3 to 8) (size 9 to 14) (size 15 to 20)
#    0.750    0.750    5.000    0.000    1.750    4.000 
#    0.000    6.875    0.000    0.000    0.000    0.000 
#    0.000    0.000    0.000    0.000    0.000    0.000 
#
# Total GULP energy -178245.227914 kJ/mol
# GULP energy per Si atom -5570.163372 kJ/mol
# Density = 2.416285 g / cm^3
# Si number density = 24.217975 Si / 1000 Ang^3
#
#
#
# Elastic Constant Matrix: (Units=GPa)
#
#
# Indices 1 2 3 4 5 6 
#
# 1 122.8812 42.1759 1.9909 0.0026 -0.0019 -0.0018
# 2 42.1759 103.9924 12.2866 0.0004 0.0008 -0.0001
# 3 1.9909 12.2866 12.7774 0.0035 -0.0009 -0.0020
# 4 0.0026 0.0004 0.0035 23.2812 -0.0022 -0.0027
# 5 -0.0019 0.0008 -0.0009 -0.0022 17.7539 0.0019
# 6 -0.0018 -0.0001 -0.0020 -0.0027 0.0019 32.7287
#
#
#
# Elastic Compliance Matrix: (Units=1/GPa)
#
#
# Indices 1 2 3 4 5 6 
#
# 1 0.009525 -0.004160 0.002516 -0.000001 0.000001 0.000001
# 2 -0.004160 0.012666 -0.011531 0.000002 -0.000002 -0.000001
# 3 0.002516 -0.011531 0.088959 -0.000014 0.000005 0.000006
# 4 -0.000001 0.000002 -0.000014 0.042953 0.000005 0.000003
# 5 0.000001 -0.000002 0.000005 0.000005 0.056326 -0.000003
# 6 0.000001 -0.000001 0.000006 0.000003 -0.000003 0.030554
#
#
# Mechanical properties :
#
#
# Convention : Reuss Voigt Hill
#
# Bulk Modulus (GPa) = 11.79242 39.17309 25.48275
# Shear Modulus (GPa) = 16.91476 26.96593 21.94034
#
# Velocity S-wave (km/s) = 2.64567 3.34049 3.01317
# Velocity P-wave (km/s) = 3.76996 5.57573 4.75927
#
# Compressibility (1/GPa) = 0.08480027
#
# Stress axis : x y z
#
# Youngs Moduli (GPa) = 104.98554 78.95291 11.24110
#
# Poissons Ratio (x) = 0.32848 -0.02829
# Poissons Ratio (y) = 0.43678 0.12962
# Poissons Ratio (z) = -0.26419 0.91041
#
# Static dielectric constant tensor:
#      x y z
#    x 2.010660 0.000000 0.000000 
#    y 0.000000 1.993420 0.000000 
#    z 0.000000 0.000000 1.994410 
# 
# From -- ./inp_files/7683.got.cif
#   From: 2010.05.17/outbox.cif.g08.bks.cpg/sg43_4_cif.got.tgz:7683.got - 2010.06.03 19:21:55.
