data_PCOD9370605
_publ_section_title
;
Structure prediction by ZEFSAII (Michael W. Deem and Ramdas Pophale) SiO2 
 PCOD9370605
Probable space group: F D D 2
;
_chemical_formula_sum "Si O2"
_cell_formula_units_Z 120
_cell_length_a 29.030815
_cell_length_b 7.566408
_cell_length_c 25.961626
_cell_angle_alpha 90.000000
_cell_angle_beta 90.000000
_cell_angle_gamma 90.000000
_cell_volume 5702.704568
_symmetry_space_group_name_H-M "F D D 2"
_symmetry_group_IT_number 43
_symmetry_cell_setting 'orthorhombic'
loop_
_space_group_symop_operation_xyz
x,y,z
-x,-y,z
1/4-x,1/4+y,1/4+z
1/4+x,1/4-y,1/4+z
x,1/2+y,1/2+z
-x,1/2-y,1/2+z
1/4-x,3/4+y,3/4+z
1/4+x,3/4-y,3/4+z
1/2+x,y,1/2+z
1/2-x,-y,1/2+z
3/4-x,1/4+y,3/4+z
3/4+x,1/4-y,3/4+z
1/2+x,1/2+y,z
1/2-x,1/2-y,z
3/4-x,3/4+y,1/4+z
3/4+x,3/4-y,1/4+z
loop_
_atom_site_type_symbol
_atom_site_label
_atom_site_fract_x
_atom_site_fract_y
_atom_site_fract_z
Si Si1 0.763815 0.550647 0.290580
Si Si2 0.289623 0.851578 0.187879
Si Si3 0.280149 0.422288 0.506145
Si Si4 0.865144 0.945897 0.802671
Si Si5 0.116623 0.251032 0.704041
Si Si6 0.000000 0.000000 0.685996
Si Si7 0.546676 0.607948 0.858553
Si Si8 0.432806 0.884477 0.107064
O O1 0.750000 0.750000 0.278677
O O2 0.767763 0.429960 0.239819
O O3 0.817513 0.552119 0.309066
O O4 0.724418 0.466951 0.327837
O O5 0.250000 0.750000 0.157572
O O6 0.329707 0.712409 0.199722
O O7 0.308945 0.017346 0.156416
O O8 0.250000 0.250000 0.506943
O O9 0.330260 0.376730 0.482789
O O10 0.259163 0.576907 0.469827
O O11 0.285708 0.511400 0.561295
O O12 0.881853 0.921772 0.743138
O O13 0.908515 0.998323 0.838038
O O14 0.848977 0.748008 0.819463
O O15 0.097647 0.229558 0.646235
O O16 0.042934 0.981749 0.647511
O O17 0.500000 0.500000 0.869433
#
# Coordination Sequence:
#
# PCOD9370605 Si02
#       8
#    16  16  16  16  16   8  16  16
#     4  11  23  40  66 100 134 169 226 291 339 412
#     4  11  22  42  67  92 130 179 224 276 345 407
#     4  10  21  40  65  97 134 172 221 279 333 408
#     4  10  20  41  64  90 129 180 214 274 342 405
#     4   9  21  37  65  90 126 171 219 267 337 399
#     4  10  20  36  64  96 130 168 216 274 338 388
#     4  11  22  41  64  93 133 180 226 272 342 408
#     4  11  19  39  66  90 126 174 214 268 343 400
#
# _framework density 21.042646000000001
#
# number of rings (size 3 to 8) (size 9 to 14) (size 15 to 20)
#    0.000    1.600    3.333    2.400    0.000    2.133 
#    2.400    1.333    0.000    0.000    0.000    0.000 
#    0.000    0.000    0.000    0.000    0.000    0.000 
#
# Total GULP energy -167177.235368 kJ/mol
# GULP energy per Si atom -5572.574512 kJ/mol
# Density = 2.099475 g / cm^3
# Si number density = 21.042646 Si / 1000 Ang^3
#
#
#
# Elastic Constant Matrix: (Units=GPa)
#
#
# Indices 1 2 3 4 5 6 
#
# 1 130.9931 27.0266 21.5766 -0.0001 0.0000 0.0001
# 2 27.0266 50.3254 12.9425 -0.0001 -0.0001 0.0002
# 3 21.5766 12.9425 93.4829 0.0000 0.0000 0.0000
# 4 -0.0001 -0.0001 0.0000 16.7024 0.0000 0.0001
# 5 0.0000 -0.0001 0.0000 0.0000 38.0357 -0.0001
# 6 0.0001 0.0002 0.0000 0.0001 -0.0001 28.8464
#
#
#
# Elastic Compliance Matrix: (Units=1/GPa)
#
#
# Indices 1 2 3 4 5 6 
#
# 1 0.008764 -0.004341 -0.001422 0.000000 0.000000 0.000000
# 2 -0.004341 0.022754 -0.002148 0.000000 0.000000 0.000000
# 3 -0.001422 -0.002148 0.011323 0.000000 0.000000 0.000000
# 4 0.000000 0.000000 0.000000 0.059872 0.000000 0.000000
# 5 0.000000 0.000000 0.000000 0.000000 0.026291 0.000000
# 6 0.000000 0.000000 0.000000 0.000000 0.000000 0.034666
#
#
# Mechanical properties :
#
#
# Convention : Reuss Voigt Hill
#
# Bulk Modulus (GPa) = 37.01114 44.21033 40.61073
# Shear Modulus (GPa) = 26.52543 30.93394 28.72969
#
# Velocity S-wave (km/s) = 3.55428 3.83830 3.69902
# Velocity P-wave (km/s) = 5.87118 6.37956 6.13064
#
# Compressibility (1/GPa) = 0.02701889
#
# Stress axis : x y z
#
# Youngs Moduli (GPa) = 114.10600 43.94761 88.31783
#
# Poissons Ratio (x) = 0.19077 0.12557
# Poissons Ratio (y) = 0.49531 0.18974
# Poissons Ratio (z) = 0.16223 0.09442
#
# Static dielectric constant tensor:
#      x y z
#    x 1.850860 0.000000 0.000000 
#    y 0.000000 1.720020 0.000000 
#    z 0.000000 0.000000 1.802470 
# 
# From -- ./inp_files/26754.got.cif
#   From: 2010.05.17/outbox.cif.g08.bks.cpg/sg43_14_cif.got.tgz:26754.got - 2010.06.03 19:21:55.
