data_PCOD9370618
_publ_section_title
;
Structure prediction by ZEFSAII (Michael W. Deem and Ramdas Pophale) SiO2 
 PCOD9370618
Probable space group: F D D 2
;
_chemical_formula_sum "Si O2"
_cell_formula_units_Z 112
_cell_length_a 26.943187
_cell_length_b 9.811793
_cell_length_c 16.796831
_cell_angle_alpha 90.000000
_cell_angle_beta 90.000000
_cell_angle_gamma 90.000000
_cell_volume 4440.426597
_symmetry_space_group_name_H-M "F D D 2"
_symmetry_group_IT_number 43
_symmetry_cell_setting 'orthorhombic'
loop_
_space_group_symop_operation_xyz
x,y,z
-x,-y,z
1/4-x,1/4+y,1/4+z
1/4+x,1/4-y,1/4+z
x,1/2+y,1/2+z
-x,1/2-y,1/2+z
1/4-x,3/4+y,3/4+z
1/4+x,3/4-y,3/4+z
1/2+x,y,1/2+z
1/2-x,-y,1/2+z
3/4-x,1/4+y,3/4+z
3/4+x,1/4-y,3/4+z
1/2+x,1/2+y,z
1/2-x,1/2-y,z
3/4-x,3/4+y,1/4+z
3/4+x,3/4-y,1/4+z
loop_
_atom_site_type_symbol
_atom_site_label
_atom_site_fract_x
_atom_site_fract_y
_atom_site_fract_z
Si Si1 0.511848 0.841140 0.742480
Si Si2 0.743093 0.964113 0.320906
Si Si3 0.370347 0.437874 0.670575
Si Si4 0.838603 0.352675 0.745343
Si Si5 0.625593 0.653447 0.072321
Si Si6 0.740594 0.590756 0.659227
Si Si7 0.878702 0.412825 0.002299
O O1 0.505773 0.755927 0.662340
O O2 0.487196 0.787270 0.824698
O O3 0.569849 0.845206 0.760203
O O4 0.500000 0.000000 0.723053
O O5 0.784634 0.855366 0.287605
O O6 0.684106 0.933510 0.327667
O O7 0.753695 0.073779 0.251901
O O8 0.393658 0.507357 0.747404
O O9 0.313134 0.482521 0.663139
O O10 0.362723 0.275776 0.685521
O O11 0.397762 0.464434 0.588111
O O12 0.873926 0.255488 0.797225
O O13 0.845693 0.309282 0.653093
O O14 0.854961 0.509386 0.740260
O O15 0.750000 0.750000 0.645038
#
# Coordination Sequence:
#
# PCOD9370618 Si02
#       7
#    16  16  16  16  16  16  16
#     4  10  20  37  60  87 125 165 213 279 333 380
#     4  11  22  39  63  92 129 168 215 273 331 392
#     4  10  21  38  56  81 122 158 198 262 327 385
#     4  12  23  39  65  93 123 166 219 270 321 389
#     4  11  25  41  61  92 129 167 210 266 332 395
#     4   9  20  36  58  86 117 161 212 265 326 391
#     4  11  21  36  61  89 115 161 219 263 318 394
#
# _framework density 25.222802999999999
#
# number of rings (size 3 to 8) (size 9 to 14) (size 15 to 20)
#    0.000    1.429    0.000    6.429    0.000    3.429 
#    0.000    0.000    0.000    7.714    0.000    0.000 
#    0.000    0.000    0.000    0.000    0.000    0.000 
#
# Total GULP energy -156045.389157 kJ/mol
# GULP energy per Si atom -5573.049613 kJ/mol
# Density = 2.516540 g / cm^3
# Si number density = 25.222803 Si / 1000 Ang^3
#
#
#
# Elastic Constant Matrix: (Units=GPa)
#
#
# Indices 1 2 3 4 5 6 
#
# 1 35.0269 -10.4257 4.3186 0.0000 0.0000 0.0000
# 2 -10.4257 48.3425 -1.1715 0.0000 0.0000 0.0000
# 3 4.3186 -1.1715 198.2257 0.0000 0.0000 0.0000
# 4 0.0000 0.0000 0.0000 30.0981 0.0000 0.0000
# 5 0.0000 0.0000 0.0000 0.0000 3.7678 0.0000
# 6 0.0000 0.0000 0.0000 0.0000 0.0000 12.3892
#
#
#
# Elastic Compliance Matrix: (Units=1/GPa)
#
#
# Indices 1 2 3 4 5 6 
#
# 1 0.030586 0.006581 -0.000627 0.000000 0.000000 0.000000
# 2 0.006581 0.022105 -0.000013 0.000000 0.000000 0.000000
# 3 -0.000627 -0.000013 0.005058 0.000000 0.000000 0.000000
# 4 0.000000 0.000000 0.000000 0.033225 0.000000 0.000000
# 5 0.000000 0.000000 0.000000 0.000000 0.265405 0.000000
# 6 0.000000 0.000000 0.000000 0.000000 0.000000 0.080715
#
#
# Mechanical properties :
#
#
# Convention : Reuss Voigt Hill
#
# Bulk Modulus (GPa) = 14.36157 29.67088 22.01622
# Shear Modulus (GPa) = 11.15021 28.50928 19.82974
#
# Velocity S-wave (km/s) = 2.10482 3.36564 2.80694
# Velocity P-wave (km/s) = 3.40783 5.18579 4.38781
#
# Compressibility (1/GPa) = 0.06963028
#
# Stress axis : x y z
#
# Youngs Moduli (GPa) = 32.69506 45.23924 197.69293
#
# Poissons Ratio (x) = -0.29772 0.12404
# Poissons Ratio (y) = -0.21517 0.00252
# Poissons Ratio (z) = 0.02051 0.00058
#
# Static dielectric constant tensor:
#      x y z
#    x 2.053610 0.000000 0.000000 
#    y 0.000000 1.957470 0.000000 
#    z 0.000000 0.000000 2.136200 
# 
# From -- ./inp_files/11664.got.cif
#   From: 2010.05.17/outbox.cif.g08.bks.cpg/sg43_6_cif.got.tgz:11664.got - 2010.06.03 19:21:55.
