data_PCOD9370908
_publ_section_title
;
Structure prediction by ZEFSAII (Michael W. Deem and Ramdas Pophale) SiO2 
 PCOD9370908
Probable space group: F D D 2
;
_chemical_formula_sum "Si O2"
_cell_formula_units_Z 72
_cell_length_a 5.328049
_cell_length_b 20.454176
_cell_length_c 25.980785
_cell_angle_alpha 90.000000
_cell_angle_beta 90.000000
_cell_angle_gamma 90.000000
_cell_volume 2831.408084
_symmetry_space_group_name_H-M "F D D 2"
_symmetry_group_IT_number 43
_symmetry_cell_setting 'orthorhombic'
loop_
_space_group_symop_operation_xyz
x,y,z
-x,-y,z
1/4-x,1/4+y,1/4+z
1/4+x,1/4-y,1/4+z
x,1/2+y,1/2+z
-x,1/2-y,1/2+z
1/4-x,3/4+y,3/4+z
1/4+x,3/4-y,3/4+z
1/2+x,y,1/2+z
1/2-x,-y,1/2+z
3/4-x,1/4+y,3/4+z
3/4+x,1/4-y,3/4+z
1/2+x,1/2+y,z
1/2-x,1/2-y,z
3/4-x,3/4+y,1/4+z
3/4+x,3/4-y,1/4+z
loop_
_atom_site_type_symbol
_atom_site_label
_atom_site_fract_x
_atom_site_fract_y
_atom_site_fract_z
Si Si1 0.500000 0.000000 0.959190
Si Si2 0.251745 0.540111 0.188367
Si Si3 0.874285 0.817401 0.556437
Si Si4 0.687351 0.093725 0.407481
Si Si5 0.114903 0.426746 0.507696
O O1 0.273000 0.021597 0.924441
O O2 0.595514 0.056433 0.995693
O O3 0.500000 0.500000 0.171308
O O4 0.274505 0.550888 0.249572
O O5 0.181501 0.609570 0.163603
O O6 0.000000 0.500000 0.176342
O O7 0.750000 0.750000 0.574727
O O8 0.089722 0.840885 0.596250
O O9 0.652019 0.871335 0.550038
O O10 0.500460 0.106805 0.455588
O O11 0.000000 0.500000 0.519546
#
# Coordination Sequence:
#
# PCOD9370908 Si02
#       5
#     8  16  16  16  16
#     4  10  20  42  66  92 138 182 234 302 360 444
#     4  11  25  46  69 104 148 186 236 312 378 444
#     4  11  23  44  73 104 138 188 250 308 369 447
#     4  11  22  43  70  99 138 188 242 301 367 451
#     4  10  23  44  70 101 145 194 239 308 376 453
#
# _framework density 25.429044999999999
#
# number of rings (size 3 to 8) (size 9 to 14) (size 15 to 20)
#    0.000    1.333    3.333    2.667    0.000    3.556 
#    6.000    0.000    0.000    0.000    0.000    0.000 
#    0.000    0.000    0.000    0.000    0.000    0.000 
#
# Total GULP energy -100249.399253 kJ/mol
# GULP energy per Si atom -5569.411070 kJ/mol
# Density = 2.537117 g / cm^3
# Si number density = 25.429045 Si / 1000 Ang^3
#
#
#
# Elastic Constant Matrix: (Units=GPa)
#
#
# Indices 1 2 3 4 5 6 
#
# 1 107.1023 34.5962 20.2077 0.0000 0.0000 0.0000
# 2 34.5962 126.5324 17.8725 0.0000 0.0000 0.0000
# 3 20.2077 17.8725 90.8768 0.0000 0.0000 0.0000
# 4 0.0000 0.0000 0.0000 5.6783 0.0000 0.0000
# 5 0.0000 0.0000 0.0000 0.0000 35.7552 0.0000
# 6 0.0000 0.0000 0.0000 0.0000 0.0000 39.9525
#
#
#
# Elastic Compliance Matrix: (Units=1/GPa)
#
#
# Indices 1 2 3 4 5 6 
#
# 1 0.010528 -0.002621 -0.001826 0.000000 0.000000 0.000000
# 2 -0.002621 0.008781 -0.001144 0.000000 0.000000 0.000000
# 3 -0.001826 -0.001144 0.011635 0.000000 0.000000 0.000000
# 4 0.000000 0.000000 0.000000 0.176109 0.000000 0.000000
# 5 0.000000 0.000000 0.000000 0.000000 0.027968 0.000000
# 6 0.000000 0.000000 0.000000 0.000000 0.000000 0.025030
#
#
# Mechanical properties :
#
#
# Convention : Reuss Voigt Hill
#
# Bulk Modulus (GPa) = 50.59962 52.20714 51.40338
# Shear Modulus (GPa) = 17.99729 33.06621 25.53175
#
# Velocity S-wave (km/s) = 2.66323 3.60992 3.17209
# Velocity P-wave (km/s) = 5.42205 6.16040 5.80298
#
# Compressibility (1/GPa) = 0.01976299
#
# Stress axis : x y z
#
# Youngs Moduli (GPa) = 94.98630 113.87883 85.94834
#
# Poissons Ratio (x) = 0.29843 0.15691
# Poissons Ratio (y) = 0.24892 0.09835
# Poissons Ratio (z) = 0.17341 0.13031
#
# Static dielectric constant tensor:
#      x y z
#    x 2.061090 0.000000 0.000000 
#    y 0.000000 2.185600 0.000000 
#    z 0.000000 0.000000 2.032370 
# 
# From -- ./inp_files/23415.got.cif
#   From: 2010.05.17/outbox.cif.g08.bks.cpg/sg43_12_cif.got.tgz:23415.got - 2010.06.03 19:21:55.
