data_PCOD9370357
_publ_section_title
;
Structure prediction by ZEFSAII (Michael W. Deem and Ramdas Pophale) SiO2 
 PCOD9370357
Probable space group: F D D 2
;
_chemical_formula_sum "Si O2"
_cell_formula_units_Z 104
_cell_length_a 19.585589
_cell_length_b 13.239133
_cell_length_c 15.989753
_cell_angle_alpha 90.000000
_cell_angle_beta 90.000000
_cell_angle_gamma 90.000000
_cell_volume 4146.082474
_symmetry_space_group_name_H-M "F D D 2"
_symmetry_group_IT_number 43
_symmetry_cell_setting 'orthorhombic'
loop_
_space_group_symop_operation_xyz
x,y,z
-x,-y,z
1/4-x,1/4+y,1/4+z
1/4+x,1/4-y,1/4+z
x,1/2+y,1/2+z
-x,1/2-y,1/2+z
1/4-x,3/4+y,3/4+z
1/4+x,3/4-y,3/4+z
1/2+x,y,1/2+z
1/2-x,-y,1/2+z
3/4-x,1/4+y,3/4+z
3/4+x,1/4-y,3/4+z
1/2+x,1/2+y,z
1/2-x,1/2-y,z
3/4-x,3/4+y,1/4+z
3/4+x,3/4-y,1/4+z
loop_
_atom_site_type_symbol
_atom_site_label
_atom_site_fract_x
_atom_site_fract_y
_atom_site_fract_z
Si Si1 0.272194 0.470467 0.218130
Si Si2 0.042340 0.595789 0.232123
Si Si3 0.250000 0.750000 0.776402
Si Si4 0.573766 0.016697 0.067784
Si Si5 0.168377 0.837626 0.928688
Si Si6 0.832218 0.450673 0.349609
Si Si7 0.727277 0.052935 0.041421
O O1 0.254319 0.350507 0.220031
O O2 0.354246 0.469610 0.218671
O O3 0.234067 0.511206 0.299505
O O4 0.244589 0.535507 0.139218
O O5 0.063658 0.601939 0.136325
O O6 0.112119 0.576872 0.279999
O O7 0.999609 0.304607 0.253723
O O8 0.000000 0.500000 0.257538
O O9 0.190336 0.777310 0.844521
O O10 0.577480 0.916350 0.128321
O O11 0.645241 0.045085 0.025430
O O12 0.500000 0.000000 0.021803
O O13 0.145943 0.952201 0.902752
O O14 0.231222 0.860954 0.992626
#
# Coordination Sequence:
#
# PCOD9370357 Si02
#       7
#    16  16   8  16  16  16  16
#     4  11  23  41  64  95 129 167 215 271 324 393
#     4  10  19  35  61  96 126 158 206 278 336 380
#     4  10  26  42  62  96 130 174 218 260 336 392
#     4  10  21  38  63  95 127 165 215 281 326 384
#     4  11  23  41  63  92 133 178 213 268 328 401
#     4  10  22  38  60  94 131 165 212 269 333 386
#     4  11  23  38  66  98 126 169 223 269 331 395
#
# _framework density 25.083919000000002
#
# number of rings (size 3 to 8) (size 9 to 14) (size 15 to 20)
#    0.000    1.538    1.538    3.692    5.385    2.462 
#    0.000    0.000    1.692    0.000    0.000    0.000 
#    0.000    0.000    0.000    0.000    0.000    0.000 
#
# Total GULP energy -144932.244214 kJ/mol
# GULP energy per Si atom -5574.317085 kJ/mol
# Density = 2.502683 g / cm^3
# Si number density = 25.083919 Si / 1000 Ang^3
#
#
#
# Elastic Constant Matrix: (Units=GPa)
#
#
# Indices 1 2 3 4 5 6 
#
# 1 146.5867 2.4028 15.4201 0.0000 0.0000 0.0000
# 2 2.4028 97.5906 16.6247 0.0000 0.0000 0.0000
# 3 15.4201 16.6247 47.6381 0.0000 0.0000 0.0000
# 4 0.0000 0.0000 0.0000 17.5434 0.0000 0.0000
# 5 0.0000 0.0000 0.0000 0.0000 -161.2237 0.0000
# 6 0.0000 0.0000 0.0000 0.0000 0.0000 15.1542
#
#
#
# Elastic Compliance Matrix: (Units=1/GPa)
#
#
# Indices 1 2 3 4 5 6 
#
# 1 0.007067 0.000229 -0.002368 0.000000 0.000000 0.000000
# 2 0.000229 0.010902 -0.003879 0.000000 0.000000 0.000000
# 3 -0.002368 -0.003879 0.023112 0.000000 0.000000 0.000000
# 4 0.000000 0.000000 0.000000 0.057001 0.000000 0.000000
# 5 0.000000 0.000000 0.000000 0.000000 -0.006203 0.000000
# 6 0.000000 0.000000 0.000000 0.000000 0.000000 0.065988
#
#
# Mechanical properties :
#
#
# Convention : Reuss Voigt Hill
#
# Bulk Modulus (GPa) = 34.42747 40.07898 37.25323
# Shear Modulus (GPa) = 27.84202 -8.54737 9.64733
#
# Velocity S-wave (km/s) = 3.33521 -1.84795 1.96325
# Velocity P-wave (km/s) = 5.34661 3.38518 4.47469
#
# Compressibility (1/GPa) = 0.02904657
#
# Stress axis : x y z
#
# Youngs Moduli (GPa) = 141.49867 91.72627 43.26832
#
# Poissons Ratio (x) = -0.02104 0.10244
# Poissons Ratio (y) = -0.03245 0.16783
# Poissons Ratio (z) = 0.33502 0.35579
#
# Static dielectric constant tensor:
#      x y z
#    x 2.959170 0.000000 0.000000 
#    y 0.000000 2.252650 0.000000 
#    z 0.000000 0.000000 2.008030 
# 
# From -- ./inp_files/14604.got.cif
#   From: 2010.05.17/outbox.cif.g08.bks.cpg/sg43_8_cif.got.tgz:14604.got - 2010.06.03 19:21:55.
