data_PCOD9370115
_publ_section_title
;
Structure prediction by ZEFSAII (Michael W. Deem and Ramdas Pophale) SiO2 
 PCOD9370115
Probable space group: F D D 2
;
_chemical_formula_sum "Si O2"
_cell_formula_units_Z 96
_cell_length_a 9.619217
_cell_length_b 24.650336
_cell_length_c 18.978950
_cell_angle_alpha 90.000000
_cell_angle_beta 90.000000
_cell_angle_gamma 90.000000
_cell_volume 4500.230380
_symmetry_space_group_name_H-M "F D D 2"
_symmetry_group_IT_number 43
_symmetry_cell_setting 'orthorhombic'
loop_
_space_group_symop_operation_xyz
x,y,z
-x,-y,z
1/4-x,1/4+y,1/4+z
1/4+x,1/4-y,1/4+z
x,1/2+y,1/2+z
-x,1/2-y,1/2+z
1/4-x,3/4+y,3/4+z
1/4+x,3/4-y,3/4+z
1/2+x,y,1/2+z
1/2-x,-y,1/2+z
3/4-x,1/4+y,3/4+z
3/4+x,1/4-y,3/4+z
1/2+x,1/2+y,z
1/2-x,1/2-y,z
3/4-x,3/4+y,1/4+z
3/4+x,3/4-y,1/4+z
loop_
_atom_site_type_symbol
_atom_site_label
_atom_site_fract_x
_atom_site_fract_y
_atom_site_fract_z
Si Si1 0.614859 0.457008 0.539840
Si Si2 0.093979 0.766898 0.705042
Si Si3 0.220642 0.132097 0.652766
Si Si4 0.148915 0.525457 0.234867
Si Si5 0.102826 0.283146 0.583297
Si Si6 0.669426 0.605720 0.860623
O O1 0.500000 0.500000 0.557312
O O2 0.754847 0.489028 0.524131
O O3 0.558701 0.422370 0.470844
O O4 0.643991 0.413617 0.599254
O O5 0.250000 0.750000 0.706261
O O6 0.100255 0.830707 0.686712
O O7 0.997668 0.739146 0.645503
O O8 0.214825 0.070402 0.681759
O O9 0.349275 0.156841 0.608746
O O10 0.085432 0.138102 0.602862
O O11 0.262255 0.481726 0.263777
O O12 0.114133 0.563299 0.303448
O O13 0.000000 0.500000 0.213852
O O14 0.250000 0.250000 0.581523
#
# Coordination Sequence:
#
# PCOD9370115 Si02
#       6
#    16  16  16  16  16  16
#     4  10  17  32  56  83 109 149 204 246 298 377
#     4  10  18  32  57  81 115 156 195 251 302 363
#     4  10  18  34  59  87 117 162 207 250 312 382
#     4  10  21  34  59  91 122 161 214 266 312 377
#     4  11  16  34  62  84 119 164 203 257 314 380
#     4   9  18  31  57  81 112 149 206 246 308 373
#
# _framework density 21.332239999999999
#
# number of rings (size 3 to 8) (size 9 to 14) (size 15 to 20)
#    0.000    2.000    6.667    2.000    0.000    0.667 
#    0.000    0.000   33.000    0.000    0.000    0.000 
#    0.000    0.000    0.000    0.000    0.000    0.000 
#
# Total GULP energy -133649.527591 kJ/mol
# GULP energy per Si atom -5568.730316 kJ/mol
# Density = 2.128369 g / cm^3
# Si number density = 21.332240 Si / 1000 Ang^3
#
#
#
# Elastic Constant Matrix: (Units=GPa)
#
#
# Indices 1 2 3 4 5 6 
#
# 1 158.6148 56.2703 38.4596 0.0000 0.0000 0.0000
# 2 56.2703 86.0738 35.5584 0.0000 0.0000 0.0000
# 3 38.4596 35.5584 44.5887 0.0000 0.0000 0.0000
# 4 0.0000 0.0000 0.0000 30.3079 0.0000 0.0000
# 5 0.0000 0.0000 0.0000 0.0000 8.4004 0.0000
# 6 0.0000 0.0000 0.0000 0.0000 0.0000 22.1191
#
#
#
# Elastic Compliance Matrix: (Units=1/GPa)
#
#
# Indices 1 2 3 4 5 6 
#
# 1 0.008765 -0.003888 -0.004460 0.000000 0.000000 0.000000
# 2 -0.003888 0.019050 -0.011839 0.000000 0.000000 0.000000
# 3 -0.004460 -0.011839 0.035715 0.000000 0.000000 0.000000
# 4 0.000000 0.000000 0.000000 0.032995 0.000000 0.000000
# 5 0.000000 0.000000 0.000000 0.000000 0.119042 0.000000
# 6 0.000000 0.000000 0.000000 0.000000 0.000000 0.045210
#
#
# Mechanical properties :
#
#
# Convention : Reuss Voigt Hill
#
# Bulk Modulus (GPa) = 43.18208 61.09486 52.13847
# Shear Modulus (GPa) = 16.18805 22.76474 19.47639
#
# Velocity S-wave (km/s) = 2.75772 3.27027 3.02487
# Velocity P-wave (km/s) = 5.51603 6.55450 6.05756
#
# Compressibility (1/GPa) = 0.02315775
#
# Stress axis : x y z
#
# Youngs Moduli (GPa) = 114.08734 52.49259 27.99919
#
# Poissons Ratio (x) = 0.20408 0.12488
# Poissons Ratio (y) = 0.44354 0.33148
# Poissons Ratio (z) = 0.50883 0.62145
#
# Static dielectric constant tensor:
#      x y z
#    x 1.781320 0.000000 0.000000 
#    y 0.000000 1.859210 0.000000 
#    z 0.000000 0.000000 1.821230 
# 
# From -- ./inp_files/20301.got.cif
#   From: 2010.05.17/outbox.cif.g08.bks.cpg/sg43_11_cif.got.tgz:20301.got - 2010.06.03 19:21:55.
