data_PCOD9370759
_publ_section_title
;
Structure prediction by ZEFSAII (Michael W. Deem and Ramdas Pophale) SiO2 
 PCOD9370759
Probable space group: F D D 2
;
_chemical_formula_sum "Si O2"
_cell_formula_units_Z 72
_cell_length_a 13.424982
_cell_length_b 8.352246
_cell_length_c 34.141567
_cell_angle_alpha 90.000000
_cell_angle_beta 90.000000
_cell_angle_gamma 90.000000
_cell_volume 3828.251306
_symmetry_space_group_name_H-M "F D D 2"
_symmetry_group_IT_number 43
_symmetry_cell_setting 'orthorhombic'
loop_
_space_group_symop_operation_xyz
x,y,z
-x,-y,z
1/4-x,1/4+y,1/4+z
1/4+x,1/4-y,1/4+z
x,1/2+y,1/2+z
-x,1/2-y,1/2+z
1/4-x,3/4+y,3/4+z
1/4+x,3/4-y,3/4+z
1/2+x,y,1/2+z
1/2-x,-y,1/2+z
3/4-x,1/4+y,3/4+z
3/4+x,1/4-y,3/4+z
1/2+x,1/2+y,z
1/2-x,1/2-y,z
3/4-x,3/4+y,1/4+z
3/4+x,3/4-y,1/4+z
loop_
_atom_site_type_symbol
_atom_site_label
_atom_site_fract_x
_atom_site_fract_y
_atom_site_fract_z
Si Si1 0.653465 0.832070 0.550960
Si Si2 0.250000 0.750000 0.857328
Si Si3 0.603015 0.909002 0.418232
Si Si4 0.967127 0.318262 0.984107
Si Si5 0.584046 0.866657 0.240868
O O1 0.750000 0.750000 0.569784
O O2 0.568363 0.884670 0.580891
O O3 0.612129 0.708582 0.518476
O O4 0.679725 0.990512 0.525788
O O5 0.324891 0.644352 0.883667
O O6 0.574007 0.751885 0.443446
O O7 0.500000 0.000000 0.406698
O O8 0.659157 0.021317 0.449867
O O9 0.000000 0.500000 0.980768
O O10 0.059733 0.203995 0.995166
O O11 0.500000 0.000000 0.240343
#
# Coordination Sequence:
#
# PCOD9370759 Si02
#       5
#    16   8  16  16  16
#     4  11  23  42  62  92 127 167 211 262 323 374
#     4  12  24  44  62  90 140 174 200 276 316 380
#     4   9  23  42  63  91 128 163 211 264 321 374
#     4  10  20  39  68  96 118 161 220 263 315 382
#     4  10  20  39  68  96 122 158 217 271 308 382
#
# _framework density 18.807542999999999
#
# number of rings (size 3 to 8) (size 9 to 14) (size 15 to 20)
#    0.000    1.778    2.222    2.667    9.333    1.778 
#    8.000    0.000    0.000    0.000    0.000    0.000 
#    0.000    0.000    0.000    0.000    0.000    0.000 
#
# Total GULP energy -100539.851127 kJ/mol
# GULP energy per Si atom -5585.547285 kJ/mol
# Density = 1.876474 g / cm^3
# Si number density = 18.807543 Si / 1000 Ang^3
#
#
#
# Elastic Constant Matrix: (Units=GPa)
#
#
# Indices 1 2 3 4 5 6 
#
# 1 111.8534 49.9493 64.6394 0.0000 0.0000 0.0000
# 2 49.9493 128.1144 53.1332 0.0000 0.0000 0.0000
# 3 64.6394 53.1332 87.6494 0.0000 0.0000 0.0000
# 4 0.0000 0.0000 0.0000 -1.7079 0.0000 0.0000
# 5 0.0000 0.0000 0.0000 0.0000 -2.9971 0.0000
# 6 0.0000 0.0000 0.0000 0.0000 0.0000 42.5456
#
#
#
# Elastic Compliance Matrix: (Units=1/GPa)
#
#
# Indices 1 2 3 4 5 6 
#
# 1 0.015879 -0.001782 -0.010630 0.000000 0.000000 0.000000
# 2 -0.001782 0.010627 -0.005128 0.000000 0.000000 0.000000
# 3 -0.010630 -0.005128 0.022357 0.000000 0.000000 0.000000
# 4 0.000000 0.000000 0.000000 -0.585507 0.000000 0.000000
# 5 0.000000 0.000000 0.000000 0.000000 -0.333657 0.000000
# 6 0.000000 0.000000 0.000000 0.000000 0.000000 0.023504
#
#
# Mechanical properties :
#
#
# Convention : Reuss Voigt Hill
#
# Bulk Modulus (GPa) = 72.55338 73.67344 73.11341
# Shear Modulus (GPa) = -6.19485 18.22780 6.01648
#
# Velocity S-wave (km/s) = -1.81686 3.11654 1.79051
# Velocity P-wave (km/s) = 5.85314 7.22549 6.57522
#
# Compressibility (1/GPa) = 0.01378296
#
# Stress axis : x y z
#
# Youngs Moduli (GPa) = 62.97513 94.09947 44.72879
#
# Poissons Ratio (x) = 0.16772 0.47547
# Poissons Ratio (y) = 0.11224 0.22936
# Poissons Ratio (z) = 0.66943 0.48251
#
# Static dielectric constant tensor:
#      x y z
#    x 1.741690 0.000000 0.000000 
#    y 0.000000 1.623860 0.000000 
#    z 0.000000 0.000000 1.628620 
# 
# From -- ./inp_files/23956.got.cif
#   From: 2010.05.17/outbox.cif.g08.bks.cpg/sg43_12_cif.got.tgz:23956.got - 2010.06.03 19:21:55.
