data_PCOD9370147
_publ_section_title
;
Structure prediction by ZEFSAII (Michael W. Deem and Ramdas Pophale) SiO2 
 PCOD9370147
Probable space group: F D D 2
;
_chemical_formula_sum "Si O2"
_cell_formula_units_Z 96
_cell_length_a 24.766382
_cell_length_b 8.803420
_cell_length_c 21.441645
_cell_angle_alpha 90.000000
_cell_angle_beta 90.000000
_cell_angle_gamma 90.000000
_cell_volume 4674.897472
_symmetry_space_group_name_H-M "F D D 2"
_symmetry_group_IT_number 43
_symmetry_cell_setting 'orthorhombic'
loop_
_space_group_symop_operation_xyz
x,y,z
-x,-y,z
1/4-x,1/4+y,1/4+z
1/4+x,1/4-y,1/4+z
x,1/2+y,1/2+z
-x,1/2-y,1/2+z
1/4-x,3/4+y,3/4+z
1/4+x,3/4-y,3/4+z
1/2+x,y,1/2+z
1/2-x,-y,1/2+z
3/4-x,1/4+y,3/4+z
3/4+x,1/4-y,3/4+z
1/2+x,1/2+y,z
1/2-x,1/2-y,z
3/4-x,3/4+y,1/4+z
3/4+x,3/4-y,1/4+z
loop_
_atom_site_type_symbol
_atom_site_label
_atom_site_fract_x
_atom_site_fract_y
_atom_site_fract_z
Si Si1 0.873668 0.446223 0.423410
Si Si2 0.301102 0.816728 0.517103
Si Si3 0.183923 0.519783 0.637124
Si Si4 0.863553 0.800776 0.793335
Si Si5 0.036784 0.290211 0.949651
Si Si6 0.810173 0.786614 0.570644
O O1 0.830343 0.443705 0.477585
O O2 0.886035 0.616254 0.402993
O O3 0.853319 0.340929 0.366073
O O4 0.928146 0.364444 0.448855
O O5 0.250000 0.750000 0.482849
O O6 0.284237 0.885413 0.583470
O O7 0.342281 0.678691 0.525482
O O8 0.222924 0.491207 0.696030
O O9 0.167092 0.366881 0.601893
O O10 0.812076 0.846026 0.750941
O O11 0.894489 0.638922 0.785949
O O12 0.045963 0.364595 0.881954
O O13 0.750000 0.750000 0.541880
#
# Coordination Sequence:
#
# PCOD9370147 Si02
#       6
#    16  16  16  16  16  16
#     4   9  18  31  50  77 106 141 184 229 279 332
#     4  10  18  31  52  75 105 144 187 231 275 334
#     4  10  18  31  52  80 108 140 185 234 282 330
#     4   9  18  33  51  75 107 142 185 230 278 338
#     4   9  17  31  52  75 104 143 184 228 277 338
#     4   9  17  29  47  74 105 140 183 228 278 332
#
# _framework density 20.535208999999998
#
# number of rings (size 3 to 8) (size 9 to 14) (size 15 to 20)
#    0.000    2.667    0.000    4.500    0.000    1.333 
#    0.000    2.500    0.000    2.000    0.000   23.333 
#    0.000    0.000    0.000    0.000    0.000    0.000 
#
# Total GULP energy -133651.252414 kJ/mol
# GULP energy per Si atom -5568.802184 kJ/mol
# Density = 2.048847 g / cm^3
# Si number density = 20.535209 Si / 1000 Ang^3
#
#
#
# Elastic Constant Matrix: (Units=GPa)
#
#
# Indices 1 2 3 4 5 6 
#
# 1 63.1964 36.5105 39.7841 0.0000 0.0000 0.0000
# 2 36.5105 123.8324 12.9915 0.0000 0.0000 0.0000
# 3 39.7841 12.9915 50.9248 0.0000 0.0000 0.0000
# 4 0.0000 0.0000 0.0000 20.8973 0.0000 0.0000
# 5 0.0000 0.0000 0.0000 0.0000 21.7200 0.0000
# 6 0.0000 0.0000 0.0000 0.0000 0.0000 25.5264
#
#
#
# Elastic Compliance Matrix: (Units=1/GPa)
#
#
# Indices 1 2 3 4 5 6 
#
# 1 0.037951 -0.008301 -0.027531 0.000000 0.000000 0.000000
# 2 -0.008301 0.010113 0.003905 0.000000 0.000000 0.000000
# 3 -0.027531 0.003905 0.040149 0.000000 0.000000 0.000000
# 4 0.000000 0.000000 0.000000 0.047853 0.000000 0.000000
# 5 0.000000 0.000000 0.000000 0.000000 0.046040 0.000000
# 6 0.000000 0.000000 0.000000 0.000000 0.000000 0.039175
#
#
# Mechanical properties :
#
#
# Convention : Reuss Voigt Hill
#
# Bulk Modulus (GPa) = 41.05251 46.28067 43.66659
# Shear Modulus (GPa) = 17.05001 23.53991 20.29496
#
# Velocity S-wave (km/s) = 2.88459 3.38941 3.14714
# Velocity P-wave (km/s) = 5.57935 6.15659 5.87506
#
# Compressibility (1/GPa) = 0.02435905
#
# Stress axis : x y z
#
# Youngs Moduli (GPa) = 26.34973 98.88046 24.90748
#
# Poissons Ratio (x) = 0.82082 0.68573
# Poissons Ratio (y) = 0.21873 -0.09727
# Poissons Ratio (z) = 0.72543 -0.38614
#
# Static dielectric constant tensor:
#      x y z
#    x 1.785240 0.000000 0.000000 
#    y 0.000000 1.807360 0.000000 
#    z 0.000000 0.000000 1.760640 
# 
# From -- ./inp_files/16487.got.cif
#   From: 2010.05.17/outbox.cif.g08.bks.cpg/sg43_9_cif.got.tgz:16487.got - 2010.06.03 19:21:55.
