data_PCOD9370085
_publ_section_title
;
Structure prediction by ZEFSAII (Michael W. Deem and Ramdas Pophale) SiO2 
 PCOD9370085
Probable space group: F D D 2
;
_chemical_formula_sum "Si O2"
_cell_formula_units_Z 88
_cell_length_a 16.983288
_cell_length_b 26.312219
_cell_length_c 7.601567
_cell_angle_alpha 90.000000
_cell_angle_beta 90.000000
_cell_angle_gamma 90.000000
_cell_volume 3396.896990
_symmetry_space_group_name_H-M "F D D 2"
_symmetry_group_IT_number 43
_symmetry_cell_setting 'orthorhombic'
loop_
_space_group_symop_operation_xyz
x,y,z
-x,-y,z
1/4-x,1/4+y,1/4+z
1/4+x,1/4-y,1/4+z
x,1/2+y,1/2+z
-x,1/2-y,1/2+z
1/4-x,3/4+y,3/4+z
1/4+x,3/4-y,3/4+z
1/2+x,y,1/2+z
1/2-x,-y,1/2+z
3/4-x,1/4+y,3/4+z
3/4+x,1/4-y,3/4+z
1/2+x,1/2+y,z
1/2-x,1/2-y,z
3/4-x,3/4+y,1/4+z
3/4+x,3/4-y,1/4+z
loop_
_atom_site_type_symbol
_atom_site_label
_atom_site_fract_x
_atom_site_fract_y
_atom_site_fract_z
Si Si1 0.704563 0.147264 0.505910
Si Si2 0.393274 0.942151 0.393865
Si Si3 0.750000 0.750000 0.422031
Si Si4 0.231933 0.562697 0.971495
Si Si5 0.169180 0.968529 0.654049
Si Si6 0.140378 0.661685 0.903014
O O1 0.679372 0.091340 0.454060
O O2 0.795194 0.160621 0.525244
O O3 0.655117 0.182399 0.371975
O O4 0.670076 0.159601 0.699387
O O5 0.440928 0.964620 0.558695
O O6 0.365019 0.989678 0.286471
O O7 0.810272 0.792734 0.495535
O O8 0.203521 0.505081 0.004921
O O9 0.298450 0.576289 0.118574
O O10 0.269463 0.562848 0.775263
O O11 0.165860 0.606631 0.976701
#
# Coordination Sequence:
#
# PCOD9370085 Si02
#       6
#    16  16   8  16  16  16
#     4  10  21  37  67  95 124 168 219 271 330 403
#     4  11  20  36  64  93 124 163 218 266 325 390
#     4  10  16  34  64  88 118 160 212 264 310 396
#     4  11  25  41  67  93 136 171 228 270 339 393
#     4  11  23  41  63  95 126 173 218 275 329 405
#     4  10  21  39  63  98 125 173 220 274 325 401
#
# _framework density 25.905995999999998
#
# number of rings (size 3 to 8) (size 9 to 14) (size 15 to 20)
#    0.000    1.455    5.455    4.364    5.091    2.909 
#    0.000    0.000    0.000    0.000    0.000    0.000 
#    0.000    0.000    0.000    0.000    0.000    0.000 
#
# Total GULP energy -123048.968918 kJ/mol
# GULP energy per Si atom -5593.134951 kJ/mol
# Density = 2.584703 g / cm^3
# Si number density = 25.905996 Si / 1000 Ang^3
#
#
#
# Elastic Constant Matrix: (Units=GPa)
#
#
# Indices 1 2 3 4 5 6 
#
# 1 89.3660 49.5499 49.4087 0.0000 0.0002 0.0000
# 2 49.5499 155.9097 28.4252 0.0000 0.0000 0.0000
# 3 49.4087 28.4252 66.3312 0.0000 0.0005 0.0001
# 4 0.0000 0.0000 0.0000 20.3777 0.0000 0.0000
# 5 0.0002 0.0000 0.0005 0.0000 9.7167 -0.0001
# 6 0.0000 0.0000 0.0001 0.0000 -0.0001 42.3157
#
#
#
# Elastic Compliance Matrix: (Units=1/GPa)
#
#
# Indices 1 2 3 4 5 6 
#
# 1 0.021295 -0.004204 -0.014060 0.000000 0.000000 0.000000
# 2 -0.004204 0.007788 -0.000206 0.000000 0.000000 0.000000
# 3 -0.014060 -0.000206 0.025637 0.000000 -0.000001 0.000000
# 4 0.000000 0.000000 0.000000 0.049073 0.000000 0.000000
# 5 0.000000 0.000000 -0.000001 0.000000 0.102916 0.000000
# 6 0.000000 0.000000 0.000000 0.000000 0.000000 0.023632
#
#
# Mechanical properties :
#
#
# Convention : Reuss Voigt Hill
#
# Bulk Modulus (GPa) = 56.24554 62.93051 59.58802
# Shear Modulus (GPa) = 18.30113 26.76355 22.53234
#
# Velocity S-wave (km/s) = 2.66078 3.21768 2.95239
# Velocity P-wave (km/s) = 5.58554 6.17650 5.88844
#
# Compressibility (1/GPa) = 0.01777919
#
# Stress axis : x y z
#
# Youngs Moduli (GPa) = 46.96003 128.40905 39.00581
#
# Poissons Ratio (x) = 0.53986 0.54843
# Poissons Ratio (y) = 0.19743 0.00802
# Poissons Ratio (z) = 0.66027 0.02640
#
# Static dielectric constant tensor:
#      x y z
#    x 2.082790 0.000000 0.000000 
#    y 0.000000 2.136140 0.000000 
#    z 0.000000 0.000000 2.083340 
# 
# From -- ./inp_files/2921.got.cif
#   From: 2010.05.17/outbox.cif.g08.bks.cpg/sg43_2_cif.got.tgz:2921.got - 2010.06.03 19:21:55.
