data_PCOD9370516
_publ_section_title
;
Structure prediction by ZEFSAII (Michael W. Deem and Ramdas Pophale) SiO2 
 PCOD9370516
Probable space group: F D D 2
;
_chemical_formula_sum "Si O2"
_cell_formula_units_Z 120
_cell_length_a 21.613641
_cell_length_b 24.809837
_cell_length_c 9.327579
_cell_angle_alpha 90.000000
_cell_angle_beta 90.000000
_cell_angle_gamma 90.000000
_cell_volume 5001.736177
_symmetry_space_group_name_H-M "F D D 2"
_symmetry_group_IT_number 43
_symmetry_cell_setting 'orthorhombic'
loop_
_space_group_symop_operation_xyz
x,y,z
-x,-y,z
1/4-x,1/4+y,1/4+z
1/4+x,1/4-y,1/4+z
x,1/2+y,1/2+z
-x,1/2-y,1/2+z
1/4-x,3/4+y,3/4+z
1/4+x,3/4-y,3/4+z
1/2+x,y,1/2+z
1/2-x,-y,1/2+z
3/4-x,1/4+y,3/4+z
3/4+x,1/4-y,3/4+z
1/2+x,1/2+y,z
1/2-x,1/2-y,z
3/4-x,3/4+y,1/4+z
3/4+x,3/4-y,1/4+z
loop_
_atom_site_type_symbol
_atom_site_label
_atom_site_fract_x
_atom_site_fract_y
_atom_site_fract_z
Si Si1 0.149246 0.177492 0.410130
Si Si2 0.750000 0.250000 0.805515
Si Si3 0.965459 0.182393 0.215388
Si Si4 0.838611 0.839745 0.845987
Si Si5 0.971556 0.364166 0.990597
Si Si6 0.081954 0.524725 0.004835
Si Si7 0.657350 0.460401 0.866652
Si Si8 0.579139 0.559228 0.828389
O O1 0.194028 0.229061 0.404193
O O2 0.192652 0.125899 0.416217
O O3 0.092314 0.167726 0.518921
O O4 0.115299 0.179351 0.257167
O O5 0.724151 0.296207 0.695401
O O6 0.905143 0.218734 0.230909
O O7 0.992285 0.170960 0.373170
O O8 0.019135 0.204500 0.113113
O O9 0.774024 0.872346 0.857987
O O10 0.820931 0.789198 0.742060
O O11 0.892409 0.881987 0.806717
O O12 0.867742 0.813656 0.987371
O O13 0.948235 0.422820 0.928683
O O14 0.063554 0.537963 0.170048
O O15 0.635805 0.521738 0.881548
#
# Coordination Sequence:
#
# PCOD9370516 Si02
#       8
#    16   8  16  16  16  16  16  16
#     4   9  20  38  63  89 123 172 204 264 327 386
#     4  10  20  38  66  92 124 166 226 266 326 400
#     4  10  19  43  60  87 131 166 208 271 327 399
#     4  11  21  40  64  93 126 168 220 270 330 392
#     4  10  21  38  64  88 128 167 210 267 331 385
#     4  10  22  38  60  93 124 169 213 265 330 385
#     4   9  21  38  63  89 125 165 215 274 327 381
#     4  10  21  38  60  94 121 167 212 272 325 379
#
# _framework density 23.991669000000002
#
# number of rings (size 3 to 8) (size 9 to 14) (size 15 to 20)
#    0.000    2.133    1.333    1.200    5.600    0.000 
#    4.800    1.333    8.800    0.000    0.000    0.000 
#    0.000    0.000    0.000    0.000    0.000    0.000 
#
# Total GULP energy -167361.752829 kJ/mol
# GULP energy per Si atom -5578.725094 kJ/mol
# Density = 2.393706 g / cm^3
# Si number density = 23.991669 Si / 1000 Ang^3
#
#
#
# Elastic Constant Matrix: (Units=GPa)
#
#
# Indices 1 2 3 4 5 6 
#
# 1 160.9421 23.9355 23.2239 0.0000 0.0001 0.0000
# 2 23.9355 67.1160 17.1417 0.0000 0.0000 0.0000
# 3 23.2239 17.1417 47.3798 -0.0002 0.0004 0.0002
# 4 0.0000 0.0000 -0.0002 30.4438 0.0001 0.0000
# 5 0.0001 0.0000 0.0004 0.0001 28.6937 -0.0001
# 6 0.0000 0.0000 0.0002 0.0000 -0.0001 46.4367
#
#
#
# Elastic Compliance Matrix: (Units=1/GPa)
#
#
# Indices 1 2 3 4 5 6 
#
# 1 0.006868 -0.001751 -0.002733 0.000000 0.000000 0.000000
# 2 -0.001751 0.016863 -0.005242 0.000000 0.000000 0.000000
# 3 -0.002733 -0.005242 0.024342 0.000000 0.000000 0.000000
# 4 0.000000 0.000000 0.000000 0.032847 0.000000 0.000000
# 5 0.000000 0.000000 0.000000 0.000000 0.034851 0.000000
# 6 0.000000 0.000000 0.000000 0.000000 0.000000 0.021535
#
#
# Mechanical properties :
#
#
# Convention : Reuss Voigt Hill
#
# Bulk Modulus (GPa) = 34.94051 44.89332 39.91692
# Shear Modulus (GPa) = 30.06608 35.19062 32.62835
#
# Velocity S-wave (km/s) = 3.54388 3.83402 3.69180
# Velocity P-wave (km/s) = 5.59827 6.19292 5.90309
#
# Compressibility (1/GPa) = 0.02862008
#
# Stress axis : x y z
#
# Youngs Moduli (GPa) = 145.59754 59.30093 41.08069
#
# Poissons Ratio (x) = 0.10386 0.11227
# Poissons Ratio (y) = 0.25500 0.21536
# Poissons Ratio (z) = 0.39791 0.31088
#
# Static dielectric constant tensor:
#      x y z
#    x 1.960700 0.000000 0.000000 
#    y 0.000000 1.993580 0.000000 
#    z 0.000000 0.000000 1.978880 
# 
# From -- ./inp_files/7216.got.cif
#   From: 2010.05.17/outbox.cif.g08.bks.cpg/sg43_4_cif.got.tgz:7216.got - 2010.06.03 19:21:55.
