data_PCOD9370002
_publ_section_title
;
Structure prediction by ZEFSAII (Michael W. Deem and Ramdas Pophale) SiO2 
 PCOD9370002
Probable space group: F M M 2
;
_chemical_formula_sum "Si O2"
_cell_formula_units_Z 22
_cell_length_a 30.000000
_cell_length_b 18.000000
_cell_length_c 9.000000
_cell_angle_alpha 90.000000
_cell_angle_beta 90.000000
_cell_angle_gamma 90.000000
_cell_volume 4860.000000
_symmetry_space_group_name_H-M "F M M 2"
_symmetry_group_IT_number 42
_symmetry_cell_setting 'orthorhombic'
loop_
_space_group_symop_operation_xyz
x,y,z
-x,-y,z
-x,y,z
x,-y,z
x,1/2+y,1/2+z
-x,1/2-y,1/2+z
-x,1/2+y,1/2+z
x,1/2-y,1/2+z
1/2+x,y,1/2+z
1/2-x,-y,1/2+z
1/2-x,y,1/2+z
1/2+x,-y,1/2+z
1/2+x,1/2+y,z
1/2-x,1/2-y,z
1/2-x,1/2+y,z
1/2+x,1/2-y,z
loop_
_atom_site_type_symbol
_atom_site_label
_atom_site_fract_x
_atom_site_fract_y
_atom_site_fract_z
Si Si1 0.097503 0.203044 0.718710
Si Si2 0.552126 0.676463 0.021345
Si Si3 0.816383 0.797825 0.196084
Si Si4 0.604672 0.914731 0.721653
Si Si5 0.750000 0.750000 0.446746
Si Si6 0.051788 0.088709 0.521304
O O1 0.064175 0.263285 0.646261
O O2 0.148610 0.228089 0.694468
O O3 0.082082 0.126448 0.645584
O O4 0.084544 0.199387 0.889053
O O5 0.500000 0.675248 0.984012
O O6 0.570625 0.599709 0.086706
O O7 0.851138 0.865560 0.202660
O O8 0.783667 0.794197 0.338076
O O9 0.783413 0.795363 0.054867
O O10 0.576374 0.892802 0.867313
O O11 0.616936 0.000000 0.734437
O O12 0.000000 0.114610 0.523454
O O13 0.050942 0.000000 0.536619
#
# Coordination Sequence:
#
# PCOD9370002 Si02
#       6
#    16  16  16  16   8  16
#     4  11  21  35  54  79 110 141 180 225 265 313
#     4  11  21  32  52  79 109 147 185 222 257 299
#     4  10  20  36  57  81 102 133 172 220 276 324
#     4  10  21  37  55  77 110 146 180 218 263 315
#     4  10  20  36  60  80 100 124 170 226 276 334
#     4  10  20  34  53  78 112 153 187 215 252 303
#
# _framework density 4.5267489999999997
#
# number of rings (size 3 to 8) (size 9 to 14) (size 15 to 20)
#    0.000    1.636    0.000    7.636    0.000    1.818 
#    0.000    0.909    0.000    4.364    0.000    0.000 
#    0.000    0.000    0.000    0.000    0.000    0.000 
#
# Total GULP energy -122654.801854 kJ/mol
# GULP energy per Si atom -5575.218266 kJ/mol
# Density = 0.451645 g / cm^3
# Si number density = 4.526749 Si / 1000 Ang^3
#
#
#
# Elastic Constant Matrix: (Units=GPa)
#
#
# Indices 1 2 3 4 5 6 
#
# 1 120.7111 13.3788 13.7565 0.0000 0.0000 0.0000
# 2 13.3788 24.6314 25.9721 0.0000 0.0000 0.0000
# 3 13.7565 25.9721 64.6666 0.0000 0.0000 0.0000
# 4 0.0000 0.0000 0.0000 15.7951 0.0000 0.0000
# 5 0.0000 0.0000 0.0000 0.0000 33.6077 0.0000
# 6 0.0000 0.0000 0.0000 0.0000 0.0000 25.1998
#
#
#
# Elastic Compliance Matrix: (Units=1/GPa)
#
#
# Indices 1 2 3 4 5 6 
#
# 1 0.008815 -0.004875 0.000083 0.000000 0.000000 0.000000
# 2 -0.004875 0.073118 -0.028329 0.000000 0.000000 0.000000
# 3 0.000083 -0.028329 0.026824 0.000000 0.000000 0.000000
# 4 0.000000 0.000000 0.000000 0.063311 0.000000 0.000000
# 5 0.000000 0.000000 0.000000 0.000000 0.029755 0.000000
# 6 0.000000 0.000000 0.000000 0.000000 0.000000 0.039683
#
#
# Mechanical properties :
#
#
# Convention : Reuss Voigt Hill
#
# Bulk Modulus (GPa) = 23.52186 35.13598 29.32892
# Shear Modulus (GPa) = 15.53176 25.38063 20.45620
#
# Velocity S-wave (km/s) = 2.93196 3.74799 3.36481
# Velocity P-wave (km/s) = 4.94778 6.17873 5.59720
#
# Compressibility (1/GPa) = 0.04251364
#
# Stress axis : x y z
#
# Youngs Moduli (GPa) = 113.44099 13.67654 37.27971
#
# Poissons Ratio (x) = 0.06668 -0.00309
# Poissons Ratio (y) = 0.55307 1.05611
# Poissons Ratio (z) = -0.00940 0.38745
#
# Static dielectric constant tensor:
#      x y z
#    x 1.570120 0.000000 0.000000 
#    y 0.000000 1.665580 0.000000 
#    z 0.000000 0.000000 1.672480 
# 
# From -- ./inp_files/3632.got.cif
#   From: 2010.05.17/outbox.ucp.g08.bks.cvg/sg42_2_cif.got.tgz:3632.got - 2010.06.11 16:29:10.
