data_PCOD9370404
_publ_section_title
;
Structure prediction by ZEFSAII (Michael W. Deem and Ramdas Pophale) SiO2 
 PCOD9370404
Probable space group: F D D 2
;
_chemical_formula_sum "Si O2"
_cell_formula_units_Z 80
_cell_length_a 25.007692
_cell_length_b 10.927870
_cell_length_c 11.625493
_cell_angle_alpha 90.000000
_cell_angle_beta 90.000000
_cell_angle_gamma 90.000000
_cell_volume 3177.024111
_symmetry_space_group_name_H-M "F D D 2"
_symmetry_group_IT_number 43
_symmetry_cell_setting 'orthorhombic'
loop_
_space_group_symop_operation_xyz
x,y,z
-x,-y,z
1/4-x,1/4+y,1/4+z
1/4+x,1/4-y,1/4+z
x,1/2+y,1/2+z
-x,1/2-y,1/2+z
1/4-x,3/4+y,3/4+z
1/4+x,3/4-y,3/4+z
1/2+x,y,1/2+z
1/2-x,-y,1/2+z
3/4-x,1/4+y,3/4+z
3/4+x,1/4-y,3/4+z
1/2+x,1/2+y,z
1/2-x,1/2-y,z
3/4-x,3/4+y,1/4+z
3/4+x,3/4-y,1/4+z
loop_
_atom_site_type_symbol
_atom_site_label
_atom_site_fract_x
_atom_site_fract_y
_atom_site_fract_z
Si Si1 0.200178 0.481136 0.583610
Si Si2 0.250000 0.250000 0.711027
Si Si3 0.645213 0.136650 0.213244
Si Si4 0.403513 0.145032 0.560361
Si Si5 0.698135 0.403083 0.604903
Si Si6 0.000000 0.000000 0.057438
O O1 0.227799 0.357900 0.630514
O O2 0.146188 0.439909 0.522351
O O3 0.178989 0.548769 0.697070
O O4 0.247838 0.564411 0.534305
O O5 0.302287 0.304268 0.774284
O O6 0.597553 0.081197 0.288651
O O7 0.668407 0.028991 0.135705
O O8 0.618709 0.245267 0.138300
O O9 0.452480 0.071918 0.621275
O O10 0.717441 0.339586 0.721811
#
# Coordination Sequence:
#
# PCOD9370404 Si02
#       6
#    16   8  16  16  16   8
#     4   9  19  35  56  84 115 147 188 240 289 345
#     4   8  16  32  54  80 112 142 184 236 284 338
#     4  10  19  37  62  86 113 154 196 239 291 354
#     4  10  20  37  61  85 116 154 195 239 293 351
#     4  10  22  39  58  85 119 152 192 242 296 351
#     4  10  24  42  56  86 126 154 190 248 302 350
#
# _framework density 25.180796999999998
#
# number of rings (size 3 to 8) (size 9 to 14) (size 15 to 20)
#    0.000    2.400    0.000    2.400    0.000    4.800 
#    0.000   16.000    0.000    0.000    0.000    0.000 
#    0.000    0.000    0.000    0.000    0.000    0.000 
#
# Total GULP energy -111749.840600 kJ/mol
# GULP energy per Si atom -5587.492030 kJ/mol
# Density = 2.512348 g / cm^3
# Si number density = 25.180797 Si / 1000 Ang^3
#
#
#
# Elastic Constant Matrix: (Units=GPa)
#
#
# Indices 1 2 3 4 5 6 
#
# 1 194.9128 45.3667 42.8830 0.0000 0.0000 0.0000
# 2 45.3667 63.4334 17.5654 0.0000 0.0000 0.0000
# 3 42.8830 17.5654 34.5676 0.0000 0.0000 0.0000
# 4 0.0000 0.0000 0.0000 30.2884 0.0000 0.0000
# 5 0.0000 0.0000 0.0000 0.0000 25.5078 0.0000
# 6 0.0000 0.0000 0.0000 0.0000 0.0000 56.9343
#
#
#
# Elastic Compliance Matrix: (Units=1/GPa)
#
#
# Indices 1 2 3 4 5 6 
#
# 1 0.007604 -0.003289 -0.007762 0.000000 0.000000 0.000000
# 2 -0.003289 0.019769 -0.005965 0.000000 0.000000 0.000000
# 3 -0.007762 -0.005965 0.041589 0.000000 0.000000 0.000000
# 4 0.000000 0.000000 0.000000 0.033016 0.000000 0.000000
# 5 0.000000 0.000000 0.000000 0.000000 0.039204 0.000000
# 6 0.000000 0.000000 0.000000 0.000000 0.000000 0.017564
#
#
# Mechanical properties :
#
#
# Convention : Reuss Voigt Hill
#
# Bulk Modulus (GPa) = 28.62912 56.06044 42.34478
# Shear Modulus (GPa) = 24.45955 35.01933 29.73944
#
# Velocity S-wave (km/s) = 3.12004 3.73328 3.44035
# Velocity P-wave (km/s) = 4.93697 6.39489 5.71263
#
# Compressibility (1/GPa) = 0.03492947
#
# Stress axis : x y z
#
# Youngs Moduli (GPa) = 131.51683 50.58544 24.04500
#
# Poissons Ratio (x) = 0.16636 0.18663
# Poissons Ratio (y) = 0.43253 0.14344
# Poissons Ratio (z) = 1.02077 0.30176
#
# Static dielectric constant tensor:
#      x y z
#    x 2.075820 0.000000 0.000000 
#    y 0.000000 1.986340 0.000000 
#    z 0.000000 0.000000 1.993580 
# 
# From -- ./inp_files/7458.got.cif
#   From: 2010.05.17/outbox.cif.g08.bks.cpg/sg43_4_cif.got.tgz:7458.got - 2010.06.03 19:21:55.
