data_PCOD9370956
_publ_section_title
;
Structure prediction by ZEFSAII (Michael W. Deem and Ramdas Pophale) SiO2 
 PCOD9370956
Probable space group: F D D 2
;
_chemical_formula_sum "Si O2"
_cell_formula_units_Z 56
_cell_length_a 11.380348
_cell_length_b 7.367113
_cell_length_c 28.341954
_cell_angle_alpha 90.000000
_cell_angle_beta 90.000000
_cell_angle_gamma 90.000000
_cell_volume 2376.198201
_symmetry_space_group_name_H-M "F D D 2"
_symmetry_group_IT_number 43
_symmetry_cell_setting 'orthorhombic'
loop_
_space_group_symop_operation_xyz
x,y,z
-x,-y,z
1/4-x,1/4+y,1/4+z
1/4+x,1/4-y,1/4+z
x,1/2+y,1/2+z
-x,1/2-y,1/2+z
1/4-x,3/4+y,3/4+z
1/4+x,3/4-y,3/4+z
1/2+x,y,1/2+z
1/2-x,-y,1/2+z
3/4-x,1/4+y,3/4+z
3/4+x,1/4-y,3/4+z
1/2+x,1/2+y,z
1/2-x,1/2-y,z
3/4-x,3/4+y,1/4+z
3/4+x,3/4-y,1/4+z
loop_
_atom_site_type_symbol
_atom_site_label
_atom_site_fract_x
_atom_site_fract_y
_atom_site_fract_z
Si Si1 0.947830 0.742216 0.793880
Si Si2 0.250000 0.250000 0.121602
Si Si3 0.404892 0.647741 0.701860
Si Si4 0.996735 0.206528 0.029990
O O1 0.874008 0.557542 0.792244
O O2 0.028960 0.759678 0.746916
O O3 0.849441 0.903823 0.793487
O O4 0.008100 0.813107 0.841408
O O5 0.364050 0.246635 0.155173
O O6 0.500000 0.500000 0.687011
O O7 0.284557 0.565020 0.724722
O O8 0.000000 0.000000 0.048335
#
# Coordination Sequence:
#
# PCOD9370956 Si02
#       4
#    16   8  16  16
#     4  10  23  43  71 104 148 194 247 318 369 440
#     4  12  22  42  74 110 148 208 250 300 392 440
#     4  10  22  41  69 104 146 199 250 312 366 450
#     4  10  20  43  72  99 140 195 243 312 374 431
#
# _framework density 23.567056999999998
#
# number of rings (size 3 to 8) (size 9 to 14) (size 15 to 20)
#    0.000    1.714    5.714    0.000    4.000    1.143 
#    0.000    2.857   18.857    0.000    0.000    0.000 
#    0.000    0.000    0.000    0.000    0.000    0.000 
#
# Total GULP energy -77979.692257 kJ/mol
# GULP energy per Si atom -5569.978018 kJ/mol
# Density = 2.351342 g / cm^3
# Si number density = 23.567057 Si / 1000 Ang^3
#
#
#
# Elastic Constant Matrix: (Units=GPa)
#
#
# Indices 1 2 3 4 5 6 
#
# 1 126.4222 69.9026 83.0388 0.0000 0.0000 0.0000
# 2 69.9026 183.0548 71.3071 0.0000 0.0000 0.0000
# 3 83.0388 71.3071 145.6113 0.0000 0.0000 0.0000
# 4 0.0000 0.0000 0.0000 10.2607 0.0000 0.0000
# 5 0.0000 0.0000 0.0000 0.0000 7.4768 0.0000
# 6 0.0000 0.0000 0.0000 0.0000 0.0000 45.9370
#
#
#
# Elastic Compliance Matrix: (Units=1/GPa)
#
#
# Indices 1 2 3 4 5 6 
#
# 1 0.013643 -0.002693 -0.006462 0.000000 0.000000 0.000000
# 2 -0.002693 0.007282 -0.002030 0.000000 0.000000 0.000000
# 3 -0.006462 -0.002030 0.011547 0.000000 0.000000 0.000000
# 4 0.000000 0.000000 0.000000 0.097459 0.000000 0.000000
# 5 0.000000 0.000000 0.000000 0.000000 0.133748 0.000000
# 6 0.000000 0.000000 0.000000 0.000000 0.000000 0.021769
#
#
# Mechanical properties :
#
#
# Convention : Reuss Voigt Hill
#
# Bulk Modulus (GPa) = 98.98793 100.39837 99.69315
# Shear Modulus (GPa) = 16.06757 28.12419 22.09588
#
# Velocity S-wave (km/s) = 2.61393 3.45826 3.06531
# Velocity P-wave (km/s) = 7.15570 7.65766 7.41093
#
# Compressibility (1/GPa) = 0.01010224
#
# Stress axis : x y z
#
# Youngs Moduli (GPa) = 73.29626 137.32342 86.60317
#
# Poissons Ratio (x) = 0.36979 0.55961
# Poissons Ratio (y) = 0.19737 0.17584
# Poissons Ratio (z) = 0.47362 0.27883
#
# Static dielectric constant tensor:
#      x y z
#    x 2.067180 0.000000 0.000000 
#    y 0.000000 1.985960 0.000000 
#    z 0.000000 0.000000 1.924320 
# 
# From -- ./inp_files/19893.got.cif
#   From: 2010.05.17/outbox.cif.g08.bks.cpg/sg43_10_cif.got.tgz:19893.got - 2010.06.03 19:21:55.
