data_PCOD9370252
_publ_section_title
;
Structure prediction by ZEFSAII (Michael W. Deem and Ramdas Pophale) SiO2 
 PCOD9370252
Probable space group: F D D 2
;
_chemical_formula_sum "Si O2"
_cell_formula_units_Z 88
_cell_length_a 9.930587
_cell_length_b 24.243330
_cell_length_c 16.679898
_cell_angle_alpha 90.000000
_cell_angle_beta 90.000000
_cell_angle_gamma 90.000000
_cell_volume 4015.693746
_symmetry_space_group_name_H-M "F D D 2"
_symmetry_group_IT_number 43
_symmetry_cell_setting 'orthorhombic'
loop_
_space_group_symop_operation_xyz
x,y,z
-x,-y,z
1/4-x,1/4+y,1/4+z
1/4+x,1/4-y,1/4+z
x,1/2+y,1/2+z
-x,1/2-y,1/2+z
1/4-x,3/4+y,3/4+z
1/4+x,3/4-y,3/4+z
1/2+x,y,1/2+z
1/2-x,-y,1/2+z
3/4-x,1/4+y,3/4+z
3/4+x,1/4-y,3/4+z
1/2+x,1/2+y,z
1/2-x,1/2-y,z
3/4-x,3/4+y,1/4+z
3/4+x,3/4-y,1/4+z
loop_
_atom_site_type_symbol
_atom_site_label
_atom_site_fract_x
_atom_site_fract_y
_atom_site_fract_z
Si Si1 0.380580 0.365737 0.942800
Si Si2 0.500000 0.000000 0.893085
Si Si3 0.298407 0.483629 0.913739
Si Si4 0.918442 0.852110 0.203190
Si Si5 0.882550 0.160132 0.524360
Si Si6 0.055085 0.622050 0.872766
O O1 0.348769 0.430499 0.962214
O O2 0.538516 0.358683 0.957097
O O3 0.359317 0.364977 0.846462
O O4 0.270568 0.332989 0.993367
O O5 0.642913 0.994199 0.937001
O O6 0.483315 0.941089 0.850336
O O7 0.372140 0.541570 0.922246
O O8 0.309895 0.463180 0.821296
O O9 0.970831 0.843903 0.293209
O O10 0.038992 0.873810 0.148491
O O11 0.967666 0.141280 0.448117
#
# Coordination Sequence:
#
# PCOD9370252 Si02
#       6
#    16   8  16  16  16  16
#     4  10  20  38  64  92 131 171 204 269 328 389
#     4  10  18  38  62 100 122 166 216 270 322 386
#     4   9  21  36  68  88 133 166 217 259 329 379
#     4  11  22  38  66  92 132 168 219 264 335 377
#     4  10  20  39  66  92 130 168 213 266 327 387
#     4  11  21  38  67  96 127 170 215 275 325 394
#
# _framework density 21.914021999999999
#
# number of rings (size 3 to 8) (size 9 to 14) (size 15 to 20)
#    1.091    0.727    1.818    3.818    0.000    0.000 
#    0.000    0.000   44.000    0.000    0.000    0.000 
#    0.000    0.000    0.000    0.000    0.000    0.000 
#
# Total GULP energy -122612.816507 kJ/mol
# GULP energy per Si atom -5573.309841 kJ/mol
# Density = 2.186414 g / cm^3
# Si number density = 21.914022 Si / 1000 Ang^3
#
#
#
# Elastic Constant Matrix: (Units=GPa)
#
#
# Indices 1 2 3 4 5 6 
#
# 1 118.5738 21.6488 10.8749 0.0000 0.0000 0.0000
# 2 21.6488 51.1712 29.9049 0.0000 0.0000 0.0000
# 3 10.8749 29.9049 118.9003 0.0000 0.0000 0.0000
# 4 0.0000 0.0000 0.0000 18.0699 0.0000 0.0000
# 5 0.0000 0.0000 0.0000 0.0000 28.7949 0.0000
# 6 0.0000 0.0000 0.0000 0.0000 0.0000 16.5118
#
#
#
# Elastic Compliance Matrix: (Units=1/GPa)
#
#
# Indices 1 2 3 4 5 6 
#
# 1 0.009142 -0.003961 0.000160 0.000000 0.000000 0.000000
# 2 -0.003961 0.024626 -0.005831 0.000000 0.000000 0.000000
# 3 0.000160 -0.005831 0.009862 0.000000 0.000000 0.000000
# 4 0.000000 0.000000 0.000000 0.055341 0.000000 0.000000
# 5 0.000000 0.000000 0.000000 0.000000 0.034728 0.000000
# 6 0.000000 0.000000 0.000000 0.000000 0.000000 0.060563
#
#
# Mechanical properties :
#
#
# Convention : Reuss Voigt Hill
#
# Bulk Modulus (GPa) = 41.04176 45.94471 43.49324
# Shear Modulus (GPa) = 22.55814 27.75643 25.15729
#
# Velocity S-wave (km/s) = 3.21190 3.56280 3.39189
# Velocity P-wave (km/s) = 5.70300 6.15923 5.93550
#
# Compressibility (1/GPa) = 0.02436543
#
# Stress axis : x y z
#
# Youngs Moduli (GPa) = 109.38382 40.60736 101.39478
#
# Poissons Ratio (x) = 0.16086 -0.01624
# Poissons Ratio (y) = 0.43330 0.59128
# Poissons Ratio (z) = -0.01752 0.23680
#
# Static dielectric constant tensor:
#      x y z
#    x 1.863460 0.000000 0.000000 
#    y 0.000000 1.828170 0.000000 
#    z 0.000000 0.000000 1.787040 
# 
# From -- ./inp_files/16376.got.cif
#   From: 2010.05.17/outbox.cif.g08.bks.cpg/sg43_9_cif.got.tgz:16376.got - 2010.06.03 19:21:55.
