data_PCOD9370903
_publ_section_title
;
Structure prediction by ZEFSAII (Michael W. Deem and Ramdas Pophale) SiO2 
 PCOD9370903
Probable space group: F D D 2
;
_chemical_formula_sum "Si O2"
_cell_formula_units_Z 104
_cell_length_a 18.314474
_cell_length_b 7.988503
_cell_length_c 30.100481
_cell_angle_alpha 90.000000
_cell_angle_beta 90.000000
_cell_angle_gamma 90.000000
_cell_volume 4403.857811
_symmetry_space_group_name_H-M "F D D 2"
_symmetry_group_IT_number 43
_symmetry_cell_setting 'orthorhombic'
loop_
_space_group_symop_operation_xyz
x,y,z
-x,-y,z
1/4-x,1/4+y,1/4+z
1/4+x,1/4-y,1/4+z
x,1/2+y,1/2+z
-x,1/2-y,1/2+z
1/4-x,3/4+y,3/4+z
1/4+x,3/4-y,3/4+z
1/2+x,y,1/2+z
1/2-x,-y,1/2+z
3/4-x,1/4+y,3/4+z
3/4+x,1/4-y,3/4+z
1/2+x,1/2+y,z
1/2-x,1/2-y,z
3/4-x,3/4+y,1/4+z
3/4+x,3/4-y,1/4+z
loop_
_atom_site_type_symbol
_atom_site_label
_atom_site_fract_x
_atom_site_fract_y
_atom_site_fract_z
Si Si1 0.785062 0.495143 0.763900
Si Si2 0.321043 0.057405 0.111673
Si Si3 0.291123 0.088089 0.864083
Si Si4 0.838123 0.093526 0.897826
Si Si5 0.294950 0.087236 0.668143
Si Si6 0.382838 0.433326 0.992629
Si Si7 0.000000 0.000000 0.786990
O O1 0.775915 0.575570 0.811535
O O2 0.808974 0.601462 0.720952
O O3 0.845089 0.348798 0.770460
O O4 0.707827 0.420480 0.747335
O O5 0.371457 0.222029 0.113029
O O6 0.275550 0.091364 0.067094
O O7 0.374645 0.897649 0.116167
O O8 0.263072 0.052977 0.151765
O O9 0.250000 0.250000 0.883985
O O10 0.246947 0.935949 0.887234
O O11 0.879806 0.271316 0.896934
O O12 0.860225 0.010305 0.945058
O O13 0.250000 0.250000 0.654062
O O14 0.317502 0.317692 0.008780
#
# Coordination Sequence:
#
# PCOD9370903 Si02
#       7
#    16  16  16  16  16  16   8
#     4  10  21  42  62  95 139 180 228 284 363 423
#     4  11  22  41  63  93 135 178 227 300 342 425
#     4  10  22  38  66  96 132 182 229 288 340 422
#     4  10  20  42  65  95 135 175 242 280 349 428
#     4  11  22  38  66  95 134 180 229 288 354 420
#     4  10  22  37  67  97 130 184 226 294 345 426
#     4  12  24  38  70 100 134 180 246 290 352 420
#
# _framework density 23.615658
#
# number of rings (size 3 to 8) (size 9 to 14) (size 15 to 20)
#    0.000    1.538    3.077    2.308    3.231    1.231 
#    2.769    0.000    0.000    3.692    0.000    0.000 
#    0.000    0.000    0.000    0.000    0.000    0.000 
#
# Total GULP energy -144926.967507 kJ/mol
# GULP energy per Si atom -5574.114135 kJ/mol
# Density = 2.356191 g / cm^3
# Si number density = 23.615658 Si / 1000 Ang^3
#
#
#
# Elastic Constant Matrix: (Units=GPa)
#
#
# Indices 1 2 3 4 5 6 
#
# 1 169.3607 64.2864 40.7031 0.0000 0.0000 0.0000
# 2 64.2864 103.3582 10.4887 0.0000 0.0000 0.0000
# 3 40.7031 10.4887 58.0177 0.0000 0.0000 0.0000
# 4 0.0000 0.0000 0.0000 14.9285 0.0000 0.0000
# 5 0.0000 0.0000 0.0000 0.0000 127.0184 0.0000
# 6 0.0000 0.0000 0.0000 0.0000 0.0000 54.8087
#
#
#
# Elastic Compliance Matrix: (Units=1/GPa)
#
#
# Indices 1 2 3 4 5 6 
#
# 1 0.009186 -0.005154 -0.005513 0.000000 0.000000 0.000000
# 2 -0.005154 0.012748 0.001311 0.000000 0.000000 0.000000
# 3 -0.005513 0.001311 0.020867 0.000000 0.000000 0.000000
# 4 0.000000 0.000000 0.000000 0.066986 0.000000 0.000000
# 5 0.000000 0.000000 0.000000 0.000000 0.007873 0.000000
# 6 0.000000 0.000000 0.000000 0.000000 0.000000 0.018245
#
#
# Mechanical properties :
#
#
# Convention : Reuss Voigt Hill
#
# Bulk Modulus (GPa) = 41.51226 62.41035 51.96130
# Shear Modulus (GPa) = 30.74184 53.70167 42.22175
#
# Velocity S-wave (km/s) = 3.61190 4.77381 4.23291
# Velocity P-wave (km/s) = 5.91700 7.54126 6.77796
#
# Compressibility (1/GPa) = 0.02408927
#
# Stress axis : x y z
#
# Youngs Moduli (GPa) = 108.86398 78.44583 47.92360
#
# Poissons Ratio (x) = 0.40430 0.26419
# Poissons Ratio (y) = 0.56108 -0.06284
# Poissons Ratio (z) = 0.60013 -0.10286
#
# Static dielectric constant tensor:
#      x y z
#    x 1.888780 0.000000 0.000000 
#    y 0.000000 2.006980 0.000000 
#    z 0.000000 0.000000 1.876770 
# 
# From -- ./inp_files/29687.got.cif
#   From: 2010.05.17/outbox.cif.g08.bks.cpg/sg43_15_cif.got.tgz:29687.got - 2010.06.03 19:21:55.
