data_PCOD9370194
_publ_section_title
;
Structure prediction by ZEFSAII (Michael W. Deem and Ramdas Pophale) SiO2 
 PCOD9370194
Probable space group: F D D 2
;
_chemical_formula_sum "Si O2"
_cell_formula_units_Z 120
_cell_length_a 21.995938
_cell_length_b 13.673964
_cell_length_c 20.046032
_cell_angle_alpha 90.000000
_cell_angle_beta 90.000000
_cell_angle_gamma 90.000000
_cell_volume 6029.278408
_symmetry_space_group_name_H-M "F D D 2"
_symmetry_group_IT_number 43
_symmetry_cell_setting 'orthorhombic'
loop_
_space_group_symop_operation_xyz
x,y,z
-x,-y,z
1/4-x,1/4+y,1/4+z
1/4+x,1/4-y,1/4+z
x,1/2+y,1/2+z
-x,1/2-y,1/2+z
1/4-x,3/4+y,3/4+z
1/4+x,3/4-y,3/4+z
1/2+x,y,1/2+z
1/2-x,-y,1/2+z
3/4-x,1/4+y,3/4+z
3/4+x,1/4-y,3/4+z
1/2+x,1/2+y,z
1/2-x,1/2-y,z
3/4-x,3/4+y,1/4+z
3/4+x,3/4-y,1/4+z
loop_
_atom_site_type_symbol
_atom_site_label
_atom_site_fract_x
_atom_site_fract_y
_atom_site_fract_z
Si Si1 0.931391 0.815606 0.813960
Si Si2 0.000000 0.000000 0.860079
Si Si3 0.301723 0.667635 0.899317
Si Si4 0.670366 0.621343 0.212894
Si Si5 0.991435 0.706203 0.192581
Si Si6 0.035756 0.240751 0.952472
Si Si7 0.116638 0.576991 0.512345
Si Si8 0.042064 0.408620 0.058902
O O1 0.965111 0.751068 0.871755
O O2 0.860068 0.807579 0.826297
O O3 0.955490 0.927017 0.821826
O O4 0.948986 0.792265 0.738032
O O5 0.044663 0.930240 0.903218
O O6 0.250000 0.750000 0.892256
O O7 0.358726 0.687336 0.948090
O O8 0.272245 0.567143 0.922746
O O9 0.339434 0.642370 0.832666
O O10 0.722263 0.546882 0.233493
O O11 0.653148 0.713387 0.258221
O O12 0.937055 0.670492 0.242565
O O13 0.986549 0.643194 0.124943
O O14 0.082015 0.149955 0.962620
O O15 0.050971 0.334144 0.996858
O O16 0.000000 0.500000 0.040566
#
# Coordination Sequence:
#
# PCOD9370194 Si02
#       8
#    16   8  16  16  16  16  16  16
#     4  11  24  41  68  98 140 177 229 298 354 410
#     4  10  18  34  64 102 122 166 220 290 348 386
#     4  11  23  38  63  97 136 171 221 284 346 422
#     4  10  19  35  60  96 126 166 215 271 349 403
#     4  11  25  41  68 104 135 179 236 291 357 419
#     4  11  21  40  65  92 134 179 219 281 352 411
#     4  11  18  36  64 100 128 162 221 287 350 398
#     4  12  28  44  65 102 141 187 235 285 350 430
#
# _framework density 19.902878999999999
#
# number of rings (size 3 to 8) (size 9 to 14) (size 15 to 20)
#    0.000    1.067    5.333    3.200    4.667    1.067 
#    0.000    0.667    0.000    0.000    0.000    0.000 
#    0.000    0.000    0.000    0.000    0.000    0.000 
#
# Total GULP energy -167220.335831 kJ/mol
# GULP energy per Si atom -5574.011194 kJ/mol
# Density = 1.985758 g / cm^3
# Si number density = 19.902879 Si / 1000 Ang^3
#
#
#
# Elastic Constant Matrix: (Units=GPa)
#
#
# Indices 1 2 3 4 5 6 
#
# 1 71.3507 25.3091 8.7628 0.0000 0.0000 0.0000
# 2 25.3091 42.9755 15.9997 0.0000 0.0000 0.0000
# 3 8.7628 15.9997 74.2456 0.0000 0.0000 0.0000
# 4 0.0000 0.0000 0.0000 23.5232 0.0000 0.0000
# 5 0.0000 0.0000 0.0000 0.0000 25.5632 0.0000
# 6 0.0000 0.0000 0.0000 0.0000 0.0000 14.2368
#
#
#
# Elastic Compliance Matrix: (Units=1/GPa)
#
#
# Indices 1 2 3 4 5 6 
#
# 1 0.017718 -0.010498 0.000171 0.000000 0.000000 0.000000
# 2 -0.010498 0.031519 -0.005553 0.000000 0.000000 0.000000
# 3 0.000171 -0.005553 0.014645 0.000000 0.000000 0.000000
# 4 0.000000 0.000000 0.000000 0.042511 0.000000 0.000000
# 5 0.000000 0.000000 0.000000 0.000000 0.039119 0.000000
# 6 0.000000 0.000000 0.000000 0.000000 0.000000 0.070240
#
#
# Mechanical properties :
#
#
# Convention : Reuss Voigt Hill
#
# Bulk Modulus (GPa) = 31.13137 32.07945 31.60541
# Shear Modulus (GPa) = 19.36326 21.89798 20.63062
#
# Velocity S-wave (km/s) = 3.12250 3.32059 3.22307
# Velocity P-wave (km/s) = 5.35496 5.55470 5.45575
#
# Compressibility (1/GPa) = 0.03212194
#
# Stress axis : x y z
#
# Youngs Moduli (GPa) = 56.43932 31.72670 68.28124
#
# Poissons Ratio (x) = 0.33308 -0.01169
# Poissons Ratio (y) = 0.59252 0.37918
# Poissons Ratio (z) = -0.00966 0.17619
#
# Static dielectric constant tensor:
#      x y z
#    x 1.729360 0.000000 0.000000 
#    y 0.000000 1.690860 0.000000 
#    z 0.000000 0.000000 1.803600 
# 
# From -- ./inp_files/18393.got.cif
#   From: 2010.05.17/outbox.cif.g08.bks.cpg/sg43_10_cif.got.tgz:18393.got - 2010.06.03 19:21:55.
