data_PCOD9370990
_publ_section_title
;
Structure prediction by ZEFSAII (Michael W. Deem and Ramdas Pophale) SiO2 
 PCOD9370990
Probable space group: F D D 2
;
_chemical_formula_sum "Si O2"
_cell_formula_units_Z 88
_cell_length_a 13.949903
_cell_length_b 11.651111
_cell_length_c 24.083462
_cell_angle_alpha 90.000000
_cell_angle_beta 90.000000
_cell_angle_gamma 90.000000
_cell_volume 3914.330074
_symmetry_space_group_name_H-M "F D D 2"
_symmetry_group_IT_number 43
_symmetry_cell_setting 'orthorhombic'
loop_
_space_group_symop_operation_xyz
x,y,z
-x,-y,z
1/4-x,1/4+y,1/4+z
1/4+x,1/4-y,1/4+z
x,1/2+y,1/2+z
-x,1/2-y,1/2+z
1/4-x,3/4+y,3/4+z
1/4+x,3/4-y,3/4+z
1/2+x,y,1/2+z
1/2-x,-y,1/2+z
3/4-x,1/4+y,3/4+z
3/4+x,1/4-y,3/4+z
1/2+x,1/2+y,z
1/2-x,1/2-y,z
3/4-x,3/4+y,1/4+z
3/4+x,3/4-y,1/4+z
loop_
_atom_site_type_symbol
_atom_site_label
_atom_site_fract_x
_atom_site_fract_y
_atom_site_fract_z
Si Si1 0.437699 0.384653 0.692540
Si Si2 0.250000 0.750000 0.042231
Si Si3 0.963652 0.882490 0.010903
Si Si4 0.759145 0.480756 0.536920
Si Si5 0.822920 0.942577 0.367616
Si Si6 0.982663 0.784751 0.413706
O O1 0.500000 0.500000 0.687825
O O2 0.426689 0.337037 0.754927
O O3 0.482645 0.283864 0.655036
O O4 0.330785 0.394915 0.669323
O O5 0.258463 0.617078 0.019436
O O6 0.346403 0.751309 0.078724
O O7 0.850960 0.907025 0.016277
O O8 0.004635 0.867364 0.072950
O O9 0.000000 0.000000 0.985735
O O10 0.007573 0.789022 0.969509
O O11 0.758138 0.474819 0.603405
O O12 0.884764 0.856739 0.406640
#
# Coordination Sequence:
#
# PCOD9370990 Si02
#       6
#    16   8  16  16  16  16
#     4  12  25  46  72 111 151 194 250 312 384 451
#     4  10  20  46  72 100 146 194 246 298 364 448
#     4  12  25  47  72 113 147 196 259 310 381 448
#     4  11  25  47  73 110 154 191 253 315 376 456
#     4  11  24  47  75 106 150 196 258 304 376 469
#     4  11  25  48  74 105 152 199 247 314 378 451
#
# _framework density 22.481497999999998
#
# number of rings (size 3 to 8) (size 9 to 14) (size 15 to 20)
#    0.000    0.727    9.091    0.000    2.545    3.636 
#    1.636    0.000    0.000    0.000    0.000    0.000 
#    0.000    0.000    0.000    0.000    0.000    0.000 
#
# Total GULP energy -122533.260553 kJ/mol
# GULP energy per Si atom -5569.693661 kJ/mol
# Density = 2.243033 g / cm^3
# Si number density = 22.481498 Si / 1000 Ang^3
#
#
#
# Elastic Constant Matrix: (Units=GPa)
#
#
# Indices 1 2 3 4 5 6 
#
# 1 52.7168 27.5838 36.3804 0.0000 0.0000 0.0000
# 2 27.5838 127.5969 70.7813 0.0000 0.0000 0.0000
# 3 36.3804 70.7813 114.8907 0.0000 0.0000 0.0000
# 4 0.0000 0.0000 0.0000 56.7739 0.0000 0.0000
# 5 0.0000 0.0000 0.0000 0.0000 132.6208 0.0000
# 6 0.0000 0.0000 0.0000 0.0000 0.0000 30.0634
#
#
#
# Elastic Compliance Matrix: (Units=1/GPa)
#
#
# Indices 1 2 3 4 5 6 
#
# 1 0.024463 -0.001506 -0.006818 0.000000 0.000000 0.000000
# 2 -0.001506 0.011999 -0.006915 0.000000 0.000000 0.000000
# 3 -0.006818 -0.006915 0.015123 0.000000 0.000000 0.000000
# 4 0.000000 0.000000 0.000000 0.017614 0.000000 0.000000
# 5 0.000000 0.000000 0.000000 0.000000 0.007540 0.000000
# 6 0.000000 0.000000 0.000000 0.000000 0.000000 0.033263
#
#
# Mechanical properties :
#
#
# Convention : Reuss Voigt Hill
#
# Bulk Modulus (GPa) = 47.38097 62.74393 55.06245
# Shear Modulus (GPa) = 33.89452 54.58889 44.24170
#
# Velocity S-wave (km/s) = 3.88708 4.93299 4.44093
# Velocity P-wave (km/s) = 6.42395 7.77275 7.13031
#
# Compressibility (1/GPa) = 0.02110552
#
# Stress axis : x y z
#
# Youngs Moduli (GPa) = 40.87855 83.34132 66.12298
#
# Poissons Ratio (x) = 0.12551 0.45085
# Poissons Ratio (y) = 0.06156 0.45726
# Poissons Ratio (z) = 0.27873 0.57633
#
# Static dielectric constant tensor:
#      x y z
#    x 1.625220 0.000000 0.000000 
#    y 0.000000 1.899010 0.000000 
#    z 0.000000 0.000000 1.878480 
# 
# From -- ./inp_files/21658.got.cif
#   From: 2010.05.17/outbox.cif.g08.bks.cpg/sg43_11_cif.got.tgz:21658.got - 2010.06.03 19:21:55.
