data_PCOD9370282
_publ_section_title
;
Structure prediction by ZEFSAII (Michael W. Deem and Ramdas Pophale) SiO2 
 PCOD9370282
Probable space group: F D D 2
;
_chemical_formula_sum "Si O2"
_cell_formula_units_Z 112
_cell_length_a 27.328782
_cell_length_b 14.023492
_cell_length_c 12.643938
_cell_angle_alpha 90.000000
_cell_angle_beta 90.000000
_cell_angle_gamma 90.000000
_cell_volume 4845.725459
_symmetry_space_group_name_H-M "F D D 2"
_symmetry_group_IT_number 43
_symmetry_cell_setting 'orthorhombic'
loop_
_space_group_symop_operation_xyz
x,y,z
-x,-y,z
1/4-x,1/4+y,1/4+z
1/4+x,1/4-y,1/4+z
x,1/2+y,1/2+z
-x,1/2-y,1/2+z
1/4-x,3/4+y,3/4+z
1/4+x,3/4-y,3/4+z
1/2+x,y,1/2+z
1/2-x,-y,1/2+z
3/4-x,1/4+y,3/4+z
3/4+x,1/4-y,3/4+z
1/2+x,1/2+y,z
1/2-x,1/2-y,z
3/4-x,3/4+y,1/4+z
3/4+x,3/4-y,1/4+z
loop_
_atom_site_type_symbol
_atom_site_label
_atom_site_fract_x
_atom_site_fract_y
_atom_site_fract_z
Si Si1 0.677322 0.333461 0.075500
Si Si2 0.563476 0.872380 0.529979
Si Si3 0.000000 0.000000 0.640630
Si Si4 0.800513 0.583495 0.794447
Si Si5 0.000000 0.000000 0.175262
Si Si6 0.824184 0.279306 0.576422
Si Si7 0.604677 0.673408 0.903102
Si Si8 0.849650 0.862641 0.675220
O O1 0.622275 0.355675 0.035463
O O2 0.685509 0.403820 0.172854
O O3 0.678174 0.225609 0.123212
O O4 0.721344 0.330145 0.992957
O O5 0.538196 0.775007 0.565048
O O6 0.551764 0.898732 0.409791
O O7 0.542753 0.953176 0.605666
O O8 0.043643 0.985760 0.721563
O O9 0.991545 0.907399 0.571145
O O10 0.847243 0.609158 0.867183
O O11 0.827721 0.177534 0.636381
O O12 0.872948 0.321820 0.521729
O O13 0.640340 0.663330 0.798645
O O14 0.580813 0.780116 0.899655
#
# Coordination Sequence:
#
# PCOD9370282 Si02
#       8
#    16  16   8  16   8  16  16  16
#     4  11  24  44  78 103 148 193 256 319 381 455
#     4  11  27  49  70 104 153 196 250 322 391 452
#     4  12  22  44  70 104 140 174 242 312 360 454
#     4  11  23  42  68 100 140 192 233 306 379 440
#     4  12  28  48  72 114 146 204 272 308 388 490
#     4  11  25  42  70 102 145 189 244 302 380 452
#     4  10  20  39  69 104 137 190 239 287 379 464
#     4  10  18  40  70 107 138 187 242 300 369 452
#
# _framework density 23.113156
#
# number of rings (size 3 to 8) (size 9 to 14) (size 15 to 20)
#    0.000    1.143    4.286    2.571    6.000    1.143 
#    0.000    5.714    0.000    0.000    0.000    0.000 
#    0.000    0.000    0.000    0.000    0.000    0.000 
#
# Total GULP energy -156327.277718 kJ/mol
# GULP energy per Si atom -5583.117061 kJ/mol
# Density = 2.306055 g / cm^3
# Si number density = 23.113156 Si / 1000 Ang^3
#
#
#
# Elastic Constant Matrix: (Units=GPa)
#
#
# Indices 1 2 3 4 5 6 
#
# 1 37.7086 20.1105 13.1928 0.0000 0.0000 0.0000
# 2 20.1105 91.6813 24.4764 0.0000 0.0000 0.0000
# 3 13.1928 24.4764 90.4554 0.0000 0.0000 0.0000
# 4 0.0000 0.0000 0.0000 28.3150 0.0000 0.0000
# 5 0.0000 0.0000 0.0000 0.0000 837.7473 0.0000
# 6 0.0000 0.0000 0.0000 0.0000 0.0000 21.0608
#
#
#
# Elastic Compliance Matrix: (Units=1/GPa)
#
#
# Indices 1 2 3 4 5 6 
#
# 1 0.030705 -0.005971 -0.002863 0.000000 0.000000 0.000000
# 2 -0.005971 0.012918 -0.002625 0.000000 0.000000 0.000000
# 3 -0.002863 -0.002625 0.012183 0.000000 0.000000 0.000000
# 4 0.000000 0.000000 0.000000 0.035317 0.000000 0.000000
# 5 0.000000 0.000000 0.000000 0.000000 0.001194 0.000000
# 6 0.000000 0.000000 0.000000 0.000000 0.000000 0.047482
#
#
# Mechanical properties :
#
#
# Convention : Reuss Voigt Hill
#
# Bulk Modulus (GPa) = 30.40495 37.26721 33.83608
# Shear Modulus (GPa) = 28.78899 188.22899 108.50899
#
# Velocity S-wave (km/s) = 3.53309 9.03409 6.85921
# Velocity P-wave (km/s) = 5.46141 11.17938 8.79789
#
# Compressibility (1/GPa) = 0.03288938
#
# Stress axis : x y z
#
# Youngs Moduli (GPa) = 32.56791 77.41258 82.08255
#
# Poissons Ratio (x) = 0.46223 0.23497
# Poissons Ratio (y) = 0.19446 0.21543
# Poissons Ratio (z) = 0.09323 0.20318
#
# Static dielectric constant tensor:
#      x y z
#    x 1.281020 0.000000 0.000000 
#    y 0.000000 1.881950 0.000000 
#    z 0.000000 0.000000 1.829550 
# 
# From -- ./inp_files/8302.got.cif
#   From: 2010.05.17/outbox.cif.g08.bks.cpg/sg43_5_cif.got.tgz:8302.got - 2010.06.03 19:21:55.
