data_PCOD9370075
_publ_section_title
;
Structure prediction by ZEFSAII (Michael W. Deem and Ramdas Pophale) SiO2 
 PCOD9370075
Probable space group: F D D 2
;
_chemical_formula_sum "Si O2"
_cell_formula_units_Z 104
_cell_length_a 8.426085
_cell_length_b 25.982315
_cell_length_c 17.282554
_cell_angle_alpha 90.000000
_cell_angle_beta 90.000000
_cell_angle_gamma 90.000000
_cell_volume 3783.655629
_symmetry_space_group_name_H-M "F D D 2"
_symmetry_group_IT_number 43
_symmetry_cell_setting 'orthorhombic'
loop_
_space_group_symop_operation_xyz
x,y,z
-x,-y,z
1/4-x,1/4+y,1/4+z
1/4+x,1/4-y,1/4+z
x,1/2+y,1/2+z
-x,1/2-y,1/2+z
1/4-x,3/4+y,3/4+z
1/4+x,3/4-y,3/4+z
1/2+x,y,1/2+z
1/2-x,-y,1/2+z
3/4-x,1/4+y,3/4+z
3/4+x,1/4-y,3/4+z
1/2+x,1/2+y,z
1/2-x,1/2-y,z
3/4-x,3/4+y,1/4+z
3/4+x,3/4-y,1/4+z
loop_
_atom_site_type_symbol
_atom_site_label
_atom_site_fract_x
_atom_site_fract_y
_atom_site_fract_z
Si Si1 0.153320 0.086461 0.163390
Si Si2 0.450272 0.159457 0.193808
Si Si3 0.270649 0.190872 0.735256
Si Si4 0.500000 0.000000 0.456177
Si Si5 0.185555 0.004361 0.698816
Si Si6 0.739910 0.935484 0.351588
Si Si7 0.613841 0.158187 0.029374
O O1 0.322347 0.114881 0.181533
O O2 0.063130 0.125484 0.105037
O O3 0.037230 0.082124 0.239279
O O4 0.202577 0.028492 0.142341
O O5 0.612918 0.155923 0.240785
O O6 0.367789 0.207293 0.235888
O O7 0.524725 0.174103 0.109181
O O8 0.250000 0.250000 0.755607
O O9 0.344415 0.189868 0.648353
O O10 0.380033 0.154238 0.786260
O O11 0.615449 0.962623 0.408793
O O12 0.255338 0.060282 0.716875
O O13 0.210409 0.970641 0.777212
O O14 0.000000 0.000000 0.679817
#
# Coordination Sequence:
#
# PCOD9370075 Si02
#       7
#    16  16  16   8  16  16  16
#     4  10  24  37  60 100 133 166 224 291 347 404
#     4  11  21  39  62  93 130 170 222 281 340 407
#     4  11  21  37  62  93 127 173 220 283 343 409
#     4  10  16  32  58  88 116 158 210 270 316 384
#     4  12  20  38  66  95 124 177 228 287 342 417
#     4  10  19  36  61  92 127 166 221 284 340 398
#     4  11  23  39  63  95 128 172 230 283 342 420
#
# _framework density 27.486643999999998
#
# number of rings (size 3 to 8) (size 9 to 14) (size 15 to 20)
#    0.000    1.231    3.846    3.231    0.000    0.000 
#    0.000    2.308    0.000    3.692   12.000    0.000 
#    0.000    0.000    0.000    0.000    0.000    0.000 
#
# Total GULP energy -144968.028907 kJ/mol
# GULP energy per Si atom -5575.693419 kJ/mol
# Density = 2.742408 g / cm^3
# Si number density = 27.486644 Si / 1000 Ang^3
#
#
#
# Elastic Constant Matrix: (Units=GPa)
#
#
# Indices 1 2 3 4 5 6 
#
# 1 162.0452 48.7354 25.7977 0.0000 0.0000 0.0000
# 2 48.7354 200.0194 11.4169 0.0000 0.0000 0.0000
# 3 25.7977 11.4169 115.2623 0.0000 0.0000 0.0000
# 4 0.0000 0.0000 0.0000 31.5331 0.0000 0.0000
# 5 0.0000 0.0000 0.0000 0.0000 8.5978 0.0000
# 6 0.0000 0.0000 0.0000 0.0000 0.0000 49.8799
#
#
#
# Elastic Compliance Matrix: (Units=1/GPa)
#
#
# Indices 1 2 3 4 5 6 
#
# 1 0.006871 -0.001595 -0.001380 0.000000 0.000000 0.000000
# 2 -0.001595 0.005398 -0.000178 0.000000 0.000000 0.000000
# 3 -0.001380 -0.000178 0.009002 0.000000 0.000000 0.000000
# 4 0.000000 0.000000 0.000000 0.031713 0.000000 0.000000
# 5 0.000000 0.000000 0.000000 0.000000 0.116309 0.000000
# 6 0.000000 0.000000 0.000000 0.000000 0.000000 0.020048
#
#
# Mechanical properties :
#
#
# Convention : Reuss Voigt Hill
#
# Bulk Modulus (GPa) = 66.81891 72.13631 69.47761
# Shear Modulus (GPa) = 24.92088 44.09395 34.50742
#
# Velocity S-wave (km/s) = 3.01434 4.00959 3.54704
# Velocity P-wave (km/s) = 6.03965 6.90918 6.48900
#
# Compressibility (1/GPa) = 0.01496582
#
# Stress axis : x y z
#
# Youngs Moduli (GPa) = 145.54866 185.24172 111.08310
#
# Poissons Ratio (x) = 0.29551 0.15327
# Poissons Ratio (y) = 0.23219 0.01974
# Poissons Ratio (z) = 0.20082 0.03291
#
# Static dielectric constant tensor:
#      x y z
#    x 2.156610 0.000000 0.000000 
#    y 0.000000 2.119630 0.000000 
#    z 0.000000 0.000000 2.305970 
# 
# From -- ./inp_files/24572.got.cif
#   From: 2010.05.17/outbox.cif.g08.bks.cpg/sg43_13_cif.got.tgz:24572.got - 2010.06.03 19:21:55.
