data_PCOD9370118
_publ_section_title
;
Structure prediction by ZEFSAII (Michael W. Deem and Ramdas Pophale) SiO2 
 PCOD9370118
Probable space group: F D D 2
;
_chemical_formula_sum "Si O2"
_cell_formula_units_Z 112
_cell_length_a 21.240519
_cell_length_b 28.400644
_cell_length_c 7.986136
_cell_angle_alpha 90.000000
_cell_angle_beta 90.000000
_cell_angle_gamma 90.000000
_cell_volume 4817.591967
_symmetry_space_group_name_H-M "F D D 2"
_symmetry_group_IT_number 43
_symmetry_cell_setting 'orthorhombic'
loop_
_space_group_symop_operation_xyz
x,y,z
-x,-y,z
1/4-x,1/4+y,1/4+z
1/4+x,1/4-y,1/4+z
x,1/2+y,1/2+z
-x,1/2-y,1/2+z
1/4-x,3/4+y,3/4+z
1/4+x,3/4-y,3/4+z
1/2+x,y,1/2+z
1/2-x,-y,1/2+z
3/4-x,1/4+y,3/4+z
3/4+x,1/4-y,3/4+z
1/2+x,1/2+y,z
1/2-x,1/2-y,z
3/4-x,3/4+y,1/4+z
3/4+x,3/4-y,1/4+z
loop_
_atom_site_type_symbol
_atom_site_label
_atom_site_fract_x
_atom_site_fract_y
_atom_site_fract_z
Si Si1 0.067894 0.299866 0.112220
Si Si2 0.743830 0.640697 0.800174
Si Si3 0.119693 0.290852 0.606929
Si Si4 0.490839 0.779409 0.776106
Si Si5 0.301434 0.291378 0.495920
Si Si6 0.444489 0.962958 0.216071
Si Si7 0.855195 0.605553 0.573290
O O1 0.062177 0.355681 0.095019
O O2 0.034526 0.273403 0.261791
O O3 0.139317 0.283096 0.097814
O O4 0.026059 0.284129 0.952897
O O5 0.721410 0.679561 0.661729
O O6 0.768433 0.664250 0.968501
O O7 0.805226 0.613865 0.726836
O O8 0.138084 0.241673 0.524582
O O9 0.158833 0.288011 0.784658
O O10 0.137005 0.340107 0.515162
O O11 0.047426 0.291709 0.652343
O O12 0.434643 0.815608 0.729266
O O13 0.250000 0.250000 0.453362
O O14 0.328116 0.332433 0.375285
O O15 0.500000 0.000000 0.224660
#
# Coordination Sequence:
#
# PCOD9370118 Si02
#       7
#    16  16  16  16  16  16  16
#     4  10  22  36  64  85 123 157 201 244 307 351
#     4  10  17  35  57  96 115 149 206 256 289 345
#     4  10  18  32  58  85 118 152 201 245 292 348
#     4  10  21  39  58  88 117 164 197 249 297 359
#     4  12  19  32  59  95 117 149 200 259 296 344
#     4  10  17  33  55  86 116 148 190 247 296 344
#     4  10  20  32  55  87 122 152 195 250 301 347
#
# _framework density 23.248128999999999
#
# number of rings (size 3 to 8) (size 9 to 14) (size 15 to 20)
#    0.000    1.714    4.286    5.143    0.000    0.000 
#    0.000    0.714    6.286    0.000    0.000    0.000 
#    0.000    0.000    0.000    0.000    0.000    0.000 
#
# Total GULP energy -155998.521298 kJ/mol
# GULP energy per Si atom -5571.375761 kJ/mol
# Density = 2.319522 g / cm^3
# Si number density = 23.248129 Si / 1000 Ang^3
#
#
#
# Elastic Constant Matrix: (Units=GPa)
#
#
# Indices 1 2 3 4 5 6 
#
# 1 118.3852 51.4365 17.1014 -0.0001 -0.0006 0.0001
# 2 51.4365 121.4252 8.6672 0.0002 0.0004 -0.0003
# 3 17.1014 8.6672 24.0777 -0.0008 -0.0011 0.0021
# 4 -0.0001 0.0002 -0.0008 5.1365 0.0004 0.0005
# 5 -0.0006 0.0004 -0.0011 0.0004 19.7087 -0.0011
# 6 0.0001 -0.0003 0.0021 0.0005 -0.0011 25.7452
#
#
#
# Elastic Compliance Matrix: (Units=1/GPa)
#
#
# Indices 1 2 3 4 5 6 
#
# 1 0.011248 -0.004305 -0.006439 -0.000001 0.000000 0.000000
# 2 -0.004305 0.010100 -0.000578 0.000000 0.000000 0.000000
# 3 -0.006439 -0.000578 0.046314 0.000007 0.000002 -0.000004
# 4 -0.000001 0.000000 0.000007 0.194685 -0.000004 -0.000004
# 5 0.000000 0.000000 0.000002 -0.000004 0.050739 0.000002
# 6 0.000000 0.000000 -0.000004 -0.000004 0.000002 0.038842
#
#
# Mechanical properties :
#
#
# Convention : Reuss Voigt Hill
#
# Bulk Modulus (GPa) = 22.21369 46.47759 34.34564
# Shear Modulus (GPa) = 12.83441 22.56360 17.69901
#
# Velocity S-wave (km/s) = 2.35215 3.11875 2.76218
# Velocity P-wave (km/s) = 4.11735 5.74493 4.99784
#
# Compressibility (1/GPa) = 0.04501728
#
# Stress axis : x y z
#
# Youngs Moduli (GPa) = 88.90789 99.00597 21.59190
#
# Poissons Ratio (x) = 0.42622 0.13903
# Poissons Ratio (y) = 0.38274 0.01248
# Poissons Ratio (z) = 0.57248 0.05724
#
# Static dielectric constant tensor:
#      x y z
#    x 1.886170 0.000000 0.000000 
#    y 0.000000 2.042880 0.000000 
#    z 0.000000 0.000000 1.945150 
# 
# From -- ./inp_files/7242.got.cif
#   From: 2010.05.17/outbox.cif.g08.bks.cpg/sg43_4_cif.got.tgz:7242.got - 2010.06.03 19:21:55.
