data_PCOD9370668
_publ_section_title
;
Structure prediction by ZEFSAII (Michael W. Deem and Ramdas Pophale) SiO2 
 PCOD9370668
Probable space group: F D D 2
;
_chemical_formula_sum "Si O2"
_cell_formula_units_Z 128
_cell_length_a 17.287675
_cell_length_b 22.830099
_cell_length_c 14.631733
_cell_angle_alpha 90.000000
_cell_angle_beta 90.000000
_cell_angle_gamma 90.000000
_cell_volume 5774.842602
_symmetry_space_group_name_H-M "F D D 2"
_symmetry_group_IT_number 43
_symmetry_cell_setting 'orthorhombic'
loop_
_space_group_symop_operation_xyz
x,y,z
-x,-y,z
1/4-x,1/4+y,1/4+z
1/4+x,1/4-y,1/4+z
x,1/2+y,1/2+z
-x,1/2-y,1/2+z
1/4-x,3/4+y,3/4+z
1/4+x,3/4-y,3/4+z
1/2+x,y,1/2+z
1/2-x,-y,1/2+z
3/4-x,1/4+y,3/4+z
3/4+x,1/4-y,3/4+z
1/2+x,1/2+y,z
1/2-x,1/2-y,z
3/4-x,3/4+y,1/4+z
3/4+x,3/4-y,1/4+z
loop_
_atom_site_type_symbol
_atom_site_label
_atom_site_fract_x
_atom_site_fract_y
_atom_site_fract_z
Si Si1 0.655186 0.874729 0.930100
Si Si2 0.484969 0.433390 0.169746
Si Si3 0.948712 0.685684 0.210745
Si Si4 0.564040 0.320406 0.919671
Si Si5 0.089997 0.251275 0.718116
Si Si6 0.145411 0.372341 0.711132
Si Si7 0.277567 0.185516 0.199201
Si Si8 0.777772 0.961894 0.667878
O O1 0.660359 0.875077 0.819915
O O2 0.599758 0.822766 0.962020
O O3 0.744416 0.879553 0.961199
O O4 0.620537 0.937574 0.962549
O O5 0.500000 0.500000 0.196903
O O6 0.399800 0.418976 0.206949
O O7 0.558025 0.395486 0.198522
O O8 0.480946 0.430848 0.059443
O O9 0.928699 0.702239 0.315293
O O10 0.865817 0.676643 0.168503
O O11 0.006159 0.736011 0.172639
O O12 0.510945 0.269471 0.962835
O O13 0.522557 0.382005 0.914892
O O14 0.140489 0.304466 0.681430
O O15 0.064956 0.268001 0.821206
O O16 0.208254 0.413963 0.662427
O O17 0.250000 0.250000 0.172061
#
# Coordination Sequence:
#
# PCOD9370668 Si02
#       8
#    16  16  16  16  16  16  16  16
#     4   9  21  40  61  87 126 167 208 261 319 383
#     4  10  21  38  56  88 130 155 192 262 326 373
#     4   8  19  42  58  82 126 163 203 263 313 371
#     4  10  20  38  62  87 121 167 209 258 316 377
#     4   8  20  40  58  83 130 160 195 263 320 371
#     4  11  21  35  62  98 119 166 213 256 328 391
#     4  10  22  36  64  90 116 166 210 254 321 378
#     4  10  20  38  61  88 121 166 211 253 324 378
#
# _framework density 22.165106000000002
#
# number of rings (size 3 to 8) (size 9 to 14) (size 15 to 20)
#    0.750    1.750    1.250    0.000    3.500    3.500 
#    4.500    3.125    0.000    0.000    0.000    0.000 
#    0.000    0.000    0.000    0.000    0.000    0.000 
#
# Total GULP energy -178231.562510 kJ/mol
# GULP energy per Si atom -5569.736328 kJ/mol
# Density = 2.211466 g / cm^3
# Si number density = 22.165106 Si / 1000 Ang^3
#
#
#
# Elastic Constant Matrix: (Units=GPa)
#
#
# Indices 1 2 3 4 5 6 
#
# 1 96.7995 12.5244 9.7703 0.0000 0.0000 0.0000
# 2 12.5244 42.5804 -5.9385 0.0000 0.0000 0.0000
# 3 9.7703 -5.9385 50.5964 0.0000 0.0000 0.0000
# 4 0.0000 0.0000 0.0000 6.3487 0.0000 0.0000
# 5 0.0000 0.0000 0.0000 0.0000 -9.0764 0.0000
# 6 0.0000 0.0000 0.0000 0.0000 0.0000 35.3194
#
#
#
# Elastic Compliance Matrix: (Units=1/GPa)
#
#
# Indices 1 2 3 4 5 6 
#
# 1 0.011056 -0.003609 -0.002558 0.000000 0.000000 0.000000
# 2 -0.003609 0.025054 0.003637 0.000000 0.000000 0.000000
# 3 -0.002558 0.003637 0.020685 0.000000 0.000000 0.000000
# 4 0.000000 0.000000 0.000000 0.157513 0.000000 0.000000
# 5 0.000000 0.000000 0.000000 0.000000 -0.110176 0.000000
# 6 0.000000 0.000000 0.000000 0.000000 0.000000 0.028313
#
#
# Mechanical properties :
#
#
# Convention : Reuss Voigt Hill
#
# Bulk Modulus (GPa) = 19.32920 24.74318 22.03619
# Shear Modulus (GPa) = 32.31024 18.09301 25.20162
#
# Velocity S-wave (km/s) = 3.82214 2.86017 3.37559
# Velocity P-wave (km/s) = 5.31204 4.70051 5.01560
#
# Compressibility (1/GPa) = 0.05173519
#
# Stress axis : x y z
#
# Youngs Moduli (GPa) = 90.45045 39.91423 48.34373
#
# Poissons Ratio (x) = 0.14404 0.12368
# Poissons Ratio (y) = 0.32641 -0.17584
# Poissons Ratio (z) = 0.23141 -0.14518
#
# Static dielectric constant tensor:
#      x y z
#    x 1.916870 0.000000 0.000000 
#    y 0.000000 1.867720 0.000000 
#    z 0.000000 0.000000 1.866790 
# 
# From -- ./inp_files/14371.got.cif
#   From: 2010.05.17/outbox.cif.g08.bks.cpg/sg43_8_cif.got.tgz:14371.got - 2010.06.03 19:21:55.
