data_PCOD9370114
_publ_section_title
;
Structure prediction by ZEFSAII (Michael W. Deem and Ramdas Pophale) SiO2 
 PCOD9370114
Probable space group: F D D 2
;
_chemical_formula_sum "Si O2"
_cell_formula_units_Z 120
_cell_length_a 22.528303
_cell_length_b 6.820293
_cell_length_c 30.547760
_cell_angle_alpha 90.000000
_cell_angle_beta 90.000000
_cell_angle_gamma 90.000000
_cell_volume 4693.651937
_symmetry_space_group_name_H-M "F D D 2"
_symmetry_group_IT_number 43
_symmetry_cell_setting 'orthorhombic'
loop_
_space_group_symop_operation_xyz
x,y,z
-x,-y,z
1/4-x,1/4+y,1/4+z
1/4+x,1/4-y,1/4+z
x,1/2+y,1/2+z
-x,1/2-y,1/2+z
1/4-x,3/4+y,3/4+z
1/4+x,3/4-y,3/4+z
1/2+x,y,1/2+z
1/2-x,-y,1/2+z
3/4-x,1/4+y,3/4+z
3/4+x,1/4-y,3/4+z
1/2+x,1/2+y,z
1/2-x,1/2-y,z
3/4-x,3/4+y,1/4+z
3/4+x,3/4-y,1/4+z
loop_
_atom_site_type_symbol
_atom_site_label
_atom_site_fract_x
_atom_site_fract_y
_atom_site_fract_z
Si Si1 0.070293 0.965967 0.047440
Si Si2 0.507346 0.712987 0.784270
Si Si3 0.848309 0.632136 0.480419
Si Si4 0.000000 0.500000 0.373500
Si Si5 0.566501 0.966185 0.116448
Si Si6 0.145482 0.153944 0.773506
Si Si7 0.819997 0.736928 0.390818
Si Si8 0.594638 0.234756 0.433743
O O1 0.103731 0.172038 0.038427
O O2 0.084152 0.899893 0.096393
O O3 0.000000 0.000000 0.043488
O O4 0.095367 0.824236 0.010554
O O5 0.500000 0.500000 0.762494
O O6 0.459875 0.850315 0.760134
O O7 0.489589 0.672225 0.835848
O O8 0.578257 0.740335 0.778048
O O9 0.844769 0.772700 0.438762
O O10 0.863439 0.424412 0.457713
O O11 0.044804 0.609257 0.407313
O O12 0.568773 0.993928 0.064364
O O13 0.581282 0.737238 0.125616
O O14 0.614706 0.076266 0.145944
O O15 0.500000 0.000000 0.132335
O O16 0.171097 0.130408 0.724054
O O17 0.750000 0.750000 0.397179
#
# Coordination Sequence:
#
# PCOD9370114 Si02
#       8
#    16  16  16   8  16  16  16  16
#     4   9  17  32  50  77 113 140 184 240 287 329
#     4  10  17  32  49  77 115 139 181 243 293 333
#     4  10  20  28  54  79 107 146 184 236 300 338
#     4  10  18  30  50  82 118 140 188 250 292 330
#     4  10  20  35  59  86 115 153 195 243 299 349
#     4  10  19  32  49  82 114 145 185 243 291 347
#     4   9  20  36  56  79 114 149 193 237 281 352
#     4  10  19  28  52  85 110 145 195 246 294 336
#
# _framework density 25.566445000000002
#
# number of rings (size 3 to 8) (size 9 to 14) (size 15 to 20)
#    0.400    1.867    4.000    0.000   11.200    0.000 
#    0.000    0.000    8.800    0.000    0.000    0.000 
#    0.000    0.000    0.000    0.000    0.000    0.000 
#
# Total GULP energy -167163.777283 kJ/mol
# GULP energy per Si atom -5572.125909 kJ/mol
# Density = 2.550825 g / cm^3
# Si number density = 25.566445 Si / 1000 Ang^3
#
#
#
# Elastic Constant Matrix: (Units=GPa)
#
#
# Indices 1 2 3 4 5 6 
#
# 1 126.4185 28.4744 104.1997 -0.0004 -0.0001 0.0023
# 2 28.4744 67.8105 44.4010 -0.0011 -0.0001 0.0030
# 3 104.1997 44.4010 285.4130 0.0001 0.0000 -0.0001
# 4 -0.0004 -0.0011 0.0001 50.2247 0.0000 0.0006
# 5 -0.0001 -0.0001 0.0000 0.0000 48.2260 0.0000
# 6 0.0023 0.0030 -0.0001 0.0006 0.0000 31.9933
#
#
#
# Elastic Compliance Matrix: (Units=1/GPa)
#
#
# Indices 1 2 3 4 5 6 
#
# 1 0.011640 -0.002344 -0.003885 0.000000 0.000000 -0.000001
# 2 -0.002344 0.016892 -0.001772 0.000000 0.000000 -0.000001
# 3 -0.003885 -0.001772 0.005198 0.000000 0.000000 0.000000
# 4 0.000000 0.000000 0.000000 0.019911 0.000000 0.000000
# 5 0.000000 0.000000 0.000000 0.000000 0.020736 0.000000
# 6 -0.000001 -0.000001 0.000000 0.000000 0.000000 0.031257
#
#
# Mechanical properties :
#
#
# Convention : Reuss Voigt Hill
#
# Bulk Modulus (GPa) = 56.40970 92.64359 74.52664
# Shear Modulus (GPa) = 39.20216 46.25994 42.73105
#
# Velocity S-wave (km/s) = 3.92004 4.25832 4.09268
# Velocity P-wave (km/s) = 6.52693 7.77771 7.17961
#
# Compressibility (1/GPa) = 0.01772745
#
# Stress axis : x y z
#
# Youngs Moduli (GPa) = 85.90717 59.20115 192.39122
#
# Poissons Ratio (x) = 0.13877 0.74746
# Poissons Ratio (y) = 0.20137 0.34092
# Poissons Ratio (z) = 0.33376 0.10490
#
# Static dielectric constant tensor:
#      x y z
#    x 1.987360 0.000000 0.000000 
#    y 0.000000 2.144580 0.000000 
#    z 0.000000 0.000000 2.081680 
# 
# From -- ./inp_files/29732.got.cif
#   From: 2010.05.17/outbox.cif.g08.bks.cpg/sg43_15_cif.got.tgz:29732.got - 2010.06.03 19:21:55.
