data_PCOD9370933
_publ_section_title
;
Structure prediction by ZEFSAII (Michael W. Deem and Ramdas Pophale) SiO2 
 PCOD9370933
Probable space group: F D D 2
;
_chemical_formula_sum "Si O2"
_cell_formula_units_Z 88
_cell_length_a 11.801914
_cell_length_b 29.268633
_cell_length_c 10.252344
_cell_angle_alpha 90.000000
_cell_angle_beta 90.000000
_cell_angle_gamma 90.000000
_cell_volume 3541.425046
_symmetry_space_group_name_H-M "F D D 2"
_symmetry_group_IT_number 43
_symmetry_cell_setting 'orthorhombic'
loop_
_space_group_symop_operation_xyz
x,y,z
-x,-y,z
1/4-x,1/4+y,1/4+z
1/4+x,1/4-y,1/4+z
x,1/2+y,1/2+z
-x,1/2-y,1/2+z
1/4-x,3/4+y,3/4+z
1/4+x,3/4-y,3/4+z
1/2+x,y,1/2+z
1/2-x,-y,1/2+z
3/4-x,1/4+y,3/4+z
3/4+x,1/4-y,3/4+z
1/2+x,1/2+y,z
1/2-x,1/2-y,z
3/4-x,3/4+y,1/4+z
3/4+x,3/4-y,1/4+z
loop_
_atom_site_type_symbol
_atom_site_label
_atom_site_fract_x
_atom_site_fract_y
_atom_site_fract_z
Si Si1 0.563476 0.400829 0.678070
Si Si2 0.090907 0.652362 0.963188
Si Si3 0.795110 0.437038 0.566172
Si Si4 0.198241 0.523555 0.053118
Si Si5 0.000000 0.000000 0.737955
Si Si6 0.325945 0.184136 0.569419
O O1 0.476910 0.377130 0.573321
O O2 0.669855 0.418232 0.595331
O O3 0.605382 0.357083 0.759150
O O4 0.515240 0.443346 0.765994
O O5 0.129972 0.614560 0.859029
O O6 0.017242 0.686518 0.874505
O O7 0.195089 0.676912 0.034425
O O8 0.778892 0.484595 0.490305
O O9 0.859815 0.452586 0.694829
O O10 0.119574 0.504282 0.166501
O O11 0.107438 0.536446 0.943755
#
# Coordination Sequence:
#
# PCOD9370933 Si02
#       6
#    16  16  16  16   8  16
#     4  11  23  45  69 102 144 193 248 309 382 458
#     4  12  24  46  80 110 150 200 264 319 382 474
#     4  11  27  45  69 105 154 196 243 319 393 454
#     4  11  26  43  73 114 145 202 258 315 388 468
#     4  10  20  42  72 104 136 192 250 306 372 458
#     4  12  24  46  76 110 153 196 259 321 387 465
#
# _framework density 24.848752999999999
#
# number of rings (size 3 to 8) (size 9 to 14) (size 15 to 20)
#    0.000    0.727    3.636    3.273    5.091    0.727 
#    0.000    0.000    0.000    0.000    0.000    0.000 
#    0.000    0.000    0.000    0.000    0.000    0.000 
#
# Total GULP energy -122649.768820 kJ/mol
# GULP energy per Si atom -5574.989492 kJ/mol
# Density = 2.479220 g / cm^3
# Si number density = 24.848753 Si / 1000 Ang^3
#
#
#
# Elastic Constant Matrix: (Units=GPa)
#
#
# Indices 1 2 3 4 5 6 
#
# 1 88.5576 2.0690 18.3686 0.0000 0.0000 0.0000
# 2 2.0690 106.4930 -2.7270 0.0000 0.0000 0.0000
# 3 18.3686 -2.7270 34.5755 0.0000 0.0000 0.0000
# 4 0.0000 0.0000 0.0000 8.3307 0.0000 0.0000
# 5 0.0000 0.0000 0.0000 0.0000 136.0020 0.0000
# 6 0.0000 0.0000 0.0000 0.0000 0.0000 35.9518
#
#
#
# Elastic Compliance Matrix: (Units=1/GPa)
#
#
# Indices 1 2 3 4 5 6 
#
# 1 0.012709 -0.000421 -0.006785 0.000000 0.000000 0.000000
# 2 -0.000421 0.009423 0.000967 0.000000 0.000000 0.000000
# 3 -0.006785 0.000967 0.032603 0.000000 0.000000 0.000000
# 4 0.000000 0.000000 0.000000 0.120038 0.000000 0.000000
# 5 0.000000 0.000000 0.000000 0.000000 0.007353 0.000000
# 6 0.000000 0.000000 0.000000 0.000000 0.000000 0.027815
#
#
# Mechanical properties :
#
#
# Convention : Reuss Voigt Hill
#
# Bulk Modulus (GPa) = 23.66448 29.44971 26.55710
# Shear Modulus (GPa) = 21.14113 50.18460 35.66287
#
# Velocity S-wave (km/s) = 2.92000 4.49887 3.79251
# Velocity P-wave (km/s) = 4.57303 6.23408 5.46701
#
# Compressibility (1/GPa) = 0.04225742
#
# Stress axis : x y z
#
# Youngs Moduli (GPa) = 78.68264 106.12090 30.67194
#
# Poissons Ratio (x) = 0.04464 0.20811
# Poissons Ratio (y) = 0.03310 -0.02965
# Poissons Ratio (z) = 0.53387 -0.10259
#
# Static dielectric constant tensor:
#      x y z
#    x 1.927270 0.000000 0.000000 
#    y 0.000000 2.188200 0.000000 
#    z 0.000000 0.000000 2.006830 
# 
# From -- ./inp_files/5770.got.cif
#   From: 2010.05.17/outbox.cif.g08.bks.cpg/sg43_3_cif.got.tgz:5770.got - 2010.06.03 19:21:55.
