data_PCOD9370014
_publ_section_title
;
Structure prediction by ZEFSAII (Michael W. Deem and Ramdas Pophale) SiO2 
 PCOD9370014
Probable space group: F M M 2
;
_chemical_formula_sum "Si O2"
_cell_formula_units_Z 24
_cell_length_a 9.000000
_cell_length_b 27.000000
_cell_length_c 21.000000
_cell_angle_alpha 90.000000
_cell_angle_beta 90.000000
_cell_angle_gamma 90.000000
_cell_volume 5103.000000
_symmetry_space_group_name_H-M "F M M 2"
_symmetry_group_IT_number 42
_symmetry_cell_setting 'orthorhombic'
loop_
_space_group_symop_operation_xyz
x,y,z
-x,-y,z
-x,y,z
x,-y,z
x,1/2+y,1/2+z
-x,1/2-y,1/2+z
-x,1/2+y,1/2+z
x,1/2-y,1/2+z
1/2+x,y,1/2+z
1/2-x,-y,1/2+z
1/2-x,y,1/2+z
1/2+x,-y,1/2+z
1/2+x,1/2+y,z
1/2-x,1/2-y,z
1/2-x,1/2+y,z
1/2+x,1/2-y,z
loop_
_atom_site_type_symbol
_atom_site_label
_atom_site_fract_x
_atom_site_fract_y
_atom_site_fract_z
Si Si1 0.177843 0.803111 0.725990
Si Si2 0.178510 0.696507 0.370184
Si Si3 0.179062 0.881924 0.618502
Si Si4 0.178304 0.617155 0.477514
Si Si5 0.832984 0.059093 0.370226
Si Si6 0.668596 0.558953 0.739910
O O1 0.250000 0.750000 0.718671
O O2 0.219776 0.820631 0.797942
O O3 0.219469 0.835909 0.664774
O O4 0.000000 0.799313 0.725317
O O5 0.250000 0.750000 0.377823
O O6 0.221214 0.663012 0.430736
O O7 0.000000 0.699559 0.370985
O O8 0.253572 0.882222 0.548790
O O9 0.219212 0.925484 0.669034
O O10 0.000000 0.882848 0.608880
O O11 0.237800 0.573279 0.432211
O O12 0.000000 0.615588 0.482766
O O13 0.761673 0.073689 0.302199
O O14 0.000000 0.079635 0.376160
O O15 0.841629 0.000000 0.368322
O O16 0.500000 0.579424 0.747500
O O17 0.661406 0.500000 0.741342
#
# Coordination Sequence:
#
# PCOD9370014 Si02
#       6
#    16  16  16  16  16  16
#     4   9  18  34  55  76 101 135 176 222 268 316
#     4   9  19  36  57  80 105 137 179 224 269 318
#     4  10  21  36  53  77 111 146 178 217 268 322
#     4  11  23  37  54  79 112 147 183 223 268 320
#     4  10  21  37  58  83 109 139 179 225 270 320
#     4   9  18  35  59  82 105 137 176 219 269 323
#
# _framework density 4.7031159999999996
#
# number of rings (size 3 to 8) (size 9 to 14) (size 15 to 20)
#    0.000    2.333    0.000    2.000    0.000    7.667 
#    0.000    8.333    0.000    0.000    0.000    0.000 
#    0.000    0.000    0.000    0.000    0.000    0.000 
#
# Total GULP energy -133636.696439 kJ/mol
# GULP energy per Si atom -5568.195685 kJ/mol
# Density = 0.469241 g / cm^3
# Si number density = 4.703116 Si / 1000 Ang^3
#
#
#
# Elastic Constant Matrix: (Units=GPa)
#
#
# Indices 1 2 3 4 5 6 
#
# 1 52.6598 35.9631 70.7840 0.0000 0.0000 0.0000
# 2 35.9631 88.3119 41.2623 0.0000 0.0000 0.0000
# 3 70.7840 41.2623 215.7064 0.0000 0.0000 0.0000
# 4 0.0000 0.0000 0.0000 30.7953 0.0000 0.0000
# 5 0.0000 0.0000 0.0000 0.0000 39.4299 0.0000
# 6 0.0000 0.0000 0.0000 0.0000 0.0000 18.1114
#
#
#
# Elastic Compliance Matrix: (Units=1/GPa)
#
#
# Indices 1 2 3 4 5 6 
#
# 1 0.043141 -0.012029 -0.011856 0.000000 0.000000 0.000000
# 2 -0.012029 0.015789 0.000927 0.000000 0.000000 0.000000
# 3 -0.011856 0.000927 0.008349 0.000000 0.000000 0.000000
# 4 0.000000 0.000000 0.000000 0.032472 0.000000 0.000000
# 5 0.000000 0.000000 0.000000 0.000000 0.025361 0.000000
# 6 0.000000 0.000000 0.000000 0.000000 0.000000 0.055214
#
#
# Mechanical properties :
#
#
# Convention : Reuss Voigt Hill
#
# Bulk Modulus (GPa) = 46.80822 72.52186 59.66504
# Shear Modulus (GPa) = 21.42590 31.57857 26.50223
#
# Velocity S-wave (km/s) = 3.37845 4.10151 3.75742
# Velocity P-wave (km/s) = 6.33672 7.81431 7.11399
#
# Compressibility (1/GPa) = 0.02136377
#
# Stress axis : x y z
#
# Youngs Moduli (GPa) = 23.17996 63.33586 119.77444
#
# Poissons Ratio (x) = 0.76185 1.42000
# Poissons Ratio (y) = 0.27883 -0.11103
# Poissons Ratio (z) = 0.27481 -0.05871
#
# Static dielectric constant tensor:
#      x y z
#    x 1.666200 0.000000 0.000000 
#    y 0.000000 1.727710 0.000000 
#    z 0.000000 0.000000 1.609210 
# 
# From -- ./inp_files/23712.got.cif
#   From: 2010.05.17/outbox.ucp.g08.bks.cvg/sg42_12_cif.got.tgz:23712.got - 2010.06.11 16:29:10.
