data_PCOD9370709
_publ_section_title
;
Structure prediction by ZEFSAII (Michael W. Deem and Ramdas Pophale) SiO2 
 PCOD9370709
Probable space group: F D D 2
;
_chemical_formula_sum "Si O2"
_cell_formula_units_Z 88
_cell_length_a 23.833854
_cell_length_b 6.656191
_cell_length_c 22.974398
_cell_angle_alpha 90.000000
_cell_angle_beta 90.000000
_cell_angle_gamma 90.000000
_cell_volume 3644.720173
_symmetry_space_group_name_H-M "F D D 2"
_symmetry_group_IT_number 43
_symmetry_cell_setting 'orthorhombic'
loop_
_space_group_symop_operation_xyz
x,y,z
-x,-y,z
1/4-x,1/4+y,1/4+z
1/4+x,1/4-y,1/4+z
x,1/2+y,1/2+z
-x,1/2-y,1/2+z
1/4-x,3/4+y,3/4+z
1/4+x,3/4-y,3/4+z
1/2+x,y,1/2+z
1/2-x,-y,1/2+z
3/4-x,1/4+y,3/4+z
3/4+x,1/4-y,3/4+z
1/2+x,1/2+y,z
1/2-x,1/2-y,z
3/4-x,3/4+y,1/4+z
3/4+x,3/4-y,1/4+z
loop_
_atom_site_type_symbol
_atom_site_label
_atom_site_fract_x
_atom_site_fract_y
_atom_site_fract_z
Si Si1 0.750000 0.750000 0.637100
Si Si2 0.417265 0.908199 0.557077
Si Si3 0.423393 0.778162 0.435484
Si Si4 0.048314 0.827816 0.669721
Si Si5 0.825503 0.185163 0.034000
Si Si6 0.305377 0.641423 0.557396
O O1 0.800329 0.809120 0.680245
O O2 0.818479 0.924798 0.529493
O O3 0.444664 0.876265 0.494433
O O4 0.449407 0.817378 0.612365
O O5 0.388494 0.127500 0.554573
O O6 0.360952 0.772709 0.550621
O O7 0.357343 0.801424 0.424863
O O8 0.449763 0.866365 0.376707
O O9 0.054938 0.673931 0.724997
O O10 0.000000 0.000000 0.665215
O O11 0.785878 0.124431 0.088613
O O12 0.250000 0.750000 0.534185
#
# Coordination Sequence:
#
# PCOD9370709 Si02
#       6
#     8  16  16  16  16  16
#     4  10  20  38  68 100 130 180 246 294 354 420
#     4  10  21  40  67  98 145 185 228 292 369 434
#     4   9  21  38  65 100 134 183 233 296 352 428
#     4  10  23  41  66 102 150 192 242 296 367 433
#     4  10  22  40  67 101 134 182 246 302 345 431
#     4  10  21  41  70 102 133 181 244 297 356 424
#
# _framework density 24.144517
#
# number of rings (size 3 to 8) (size 9 to 14) (size 15 to 20)
#    0.000    2.182    0.000    2.182    1.273   14.545 
#    0.000    5.455   14.000    0.000    0.000    0.000 
#    0.000    0.000    0.000    0.000    0.000    0.000 
#
# Total GULP energy -122540.318467 kJ/mol
# GULP energy per Si atom -5570.014476 kJ/mol
# Density = 2.408956 g / cm^3
# Si number density = 24.144517 Si / 1000 Ang^3
#
#
#
# Elastic Constant Matrix: (Units=GPa)
#
#
# Indices 1 2 3 4 5 6 
#
# 1 91.4521 38.1326 31.7741 -0.0001 0.0000 0.0001
# 2 38.1326 105.0256 25.0036 -0.0001 0.0001 -0.0001
# 3 31.7741 25.0036 154.4640 0.0001 0.0001 0.0000
# 4 -0.0001 -0.0001 0.0001 -22.1738 0.0001 0.0001
# 5 0.0000 0.0001 0.0001 0.0001 6.6217 -0.0001
# 6 0.0001 -0.0001 0.0000 0.0001 -0.0001 30.6378
#
#
#
# Elastic Compliance Matrix: (Units=1/GPa)
#
#
# Indices 1 2 3 4 5 6 
#
# 1 0.013488 -0.004407 -0.002061 0.000000 0.000000 0.000000
# 2 -0.004407 0.011343 -0.000930 0.000000 0.000000 0.000000
# 3 -0.002061 -0.000930 0.007049 0.000000 0.000000 0.000000
# 4 0.000000 0.000000 0.000000 -0.045098 0.000001 0.000000
# 5 0.000000 0.000000 0.000000 0.000001 0.151020 0.000001
# 6 0.000000 0.000000 0.000000 0.000000 0.000001 0.032639
#
#
# Mechanical properties :
#
#
# Convention : Reuss Voigt Hill
#
# Bulk Modulus (GPa) = 58.53262 60.08472 59.30867
# Shear Modulus (GPa) = 26.18758 20.08589 23.13674
#
# Velocity S-wave (km/s) = 3.29693 2.88740 3.09894
# Velocity P-wave (km/s) = 6.22802 6.00463 6.11734
#
# Compressibility (1/GPa) = 0.01708449
#
# Stress axis : x y z
#
# Youngs Moduli (GPa) = 74.13853 88.16215 141.87408
#
# Poissons Ratio (x) = 0.38849 0.29245
# Poissons Ratio (y) = 0.32670 0.13189
# Poissons Ratio (z) = 0.15282 0.08196
#
# Static dielectric constant tensor:
#      x y z
#    x 2.124870 0.000000 0.000000 
#    y 0.000000 2.458630 0.000000 
#    z 0.000000 0.000000 1.967430 
# 
# From -- ./inp_files/17113.got.cif
#   From: 2010.05.17/outbox.cif.g08.bks.cpg/sg43_9_cif.got.tgz:17113.got - 2010.06.03 19:21:55.
