data_PCOD9370894
_publ_section_title
;
Structure prediction by ZEFSAII (Michael W. Deem and Ramdas Pophale) SiO2 
 PCOD9370894
Probable space group: F D D 2
;
_chemical_formula_sum "Si O2"
_cell_formula_units_Z 112
_cell_length_a 14.381054
_cell_length_b 28.357901
_cell_length_c 14.348587
_cell_angle_alpha 90.000000
_cell_angle_beta 90.000000
_cell_angle_gamma 90.000000
_cell_volume 5851.590611
_symmetry_space_group_name_H-M "F D D 2"
_symmetry_group_IT_number 43
_symmetry_cell_setting 'orthorhombic'
loop_
_space_group_symop_operation_xyz
x,y,z
-x,-y,z
1/4-x,1/4+y,1/4+z
1/4+x,1/4-y,1/4+z
x,1/2+y,1/2+z
-x,1/2-y,1/2+z
1/4-x,3/4+y,3/4+z
1/4+x,3/4-y,3/4+z
1/2+x,y,1/2+z
1/2-x,-y,1/2+z
3/4-x,1/4+y,3/4+z
3/4+x,1/4-y,3/4+z
1/2+x,1/2+y,z
1/2-x,1/2-y,z
3/4-x,3/4+y,1/4+z
3/4+x,3/4-y,1/4+z
loop_
_atom_site_type_symbol
_atom_site_label
_atom_site_fract_x
_atom_site_fract_y
_atom_site_fract_z
Si Si1 0.582311 0.246964 0.182220
Si Si2 0.788005 0.424965 0.533356
Si Si3 0.441018 0.919733 0.030948
Si Si4 0.982599 0.824017 0.068471
Si Si5 0.613887 0.904382 0.152112
Si Si6 0.901273 0.398734 0.703497
Si Si7 0.801059 0.840583 0.602074
O O1 0.503219 0.223147 0.245130
O O2 0.643130 0.282669 0.244350
O O3 0.534001 0.277624 0.102370
O O4 0.642814 0.205178 0.136964
O O5 0.830321 0.394062 0.449914
O O6 0.698055 0.398622 0.578625
O O7 0.862603 0.428855 0.616317
O O8 0.526601 0.927482 0.100976
O O9 0.368668 0.883441 0.076106
O O10 0.485174 0.896017 0.938680
O O11 0.936793 0.850739 0.155564
O O12 0.906868 0.816264 0.987957
O O13 0.062662 0.856581 0.021672
O O14 0.984725 0.419672 0.764194
#
# Coordination Sequence:
#
# PCOD9370894 Si02
#       7
#    16  16  16  16  16  16  16
#     4  12  23  40  60  97 124 168 216 273 320 392
#     4  10  22  39  67  87 128 167 216 261 320 397
#     4  12  23  41  64  95 129 169 214 273 329 390
#     4  10  22  39  67  87 128 167 216 261 320 397
#     4  10  20  42  61  92 121 176 203 261 328 377
#     4  10  20  42  61  92 121 176 203 261 328 377
#     4  12  23  41  64  95 129 169 214 273 329 390
#
# _framework density 19.140096
#
# number of rings (size 3 to 8) (size 9 to 14) (size 15 to 20)
#    0.000    1.143    5.714    0.429    0.000    0.000 
#    5.143    2.857    0.000   12.000    0.000    0.000 
#    0.000    0.000    0.000    0.000    0.000    0.000 
#
# Total GULP energy -156307.510470 kJ/mol
# GULP energy per Si atom -5582.411088 kJ/mol
# Density = 1.909653 g / cm^3
# Si number density = 19.140096 Si / 1000 Ang^3
#
#
#
# Elastic Constant Matrix: (Units=GPa)
#
#
# Indices 1 2 3 4 5 6 
#
# 1 44.4395 16.9795 18.2201 0.0000 0.0000 0.0000
# 2 16.9795 56.6398 27.1231 0.0000 0.0000 0.0000
# 3 18.2201 27.1231 74.2797 0.0000 0.0000 0.0000
# 4 0.0000 0.0000 0.0000 21.6103 0.0000 0.0000
# 5 0.0000 0.0000 0.0000 0.0000 61.1994 0.0000
# 6 0.0000 0.0000 0.0000 0.0000 0.0000 36.8750
#
#
#
# Elastic Compliance Matrix: (Units=1/GPa)
#
#
# Indices 1 2 3 4 5 6 
#
# 1 0.026533 -0.005863 -0.004368 0.000000 0.000000 0.000000
# 2 -0.005863 0.022692 -0.006848 0.000000 0.000000 0.000000
# 3 -0.004368 -0.006848 0.017034 0.000000 0.000000 0.000000
# 4 0.000000 0.000000 0.000000 0.046274 0.000000 0.000000
# 5 0.000000 0.000000 0.000000 0.000000 0.016340 0.000000
# 6 0.000000 0.000000 0.000000 0.000000 0.000000 0.027119
#
#
# Mechanical properties :
#
#
# Convention : Reuss Voigt Hill
#
# Bulk Modulus (GPa) = 31.14925 33.33382 32.24154
# Shear Modulus (GPa) = 24.89416 31.47271 28.18343
#
# Velocity S-wave (km/s) = 3.61034 4.05944 3.84146
# Velocity P-wave (km/s) = 5.80423 6.27898 6.04626
#
# Compressibility (1/GPa) = 0.03210350
#
# Stress axis : x y z
#
# Youngs Moduli (GPa) = 37.68860 44.06800 58.70453
#
# Poissons Ratio (x) = 0.25835 0.25640
# Poissons Ratio (y) = 0.22095 0.40201
# Poissons Ratio (z) = 0.16461 0.30178
#
# Static dielectric constant tensor:
#      x y z
#    x 1.696230 0.000000 0.000000 
#    y 0.000000 1.631000 0.000000 
#    z 0.000000 0.000000 1.691690 
# 
# From -- ./inp_files/10183.got.cif
#   From: 2010.05.17/outbox.cif.g08.bks.cpg/sg43_6_cif.got.tgz:10183.got - 2010.06.03 19:21:55.
