data_PCOD9370143
_publ_section_title
;
Structure prediction by ZEFSAII (Michael W. Deem and Ramdas Pophale) SiO2 
 PCOD9370143
Probable space group: F D D 2
;
_chemical_formula_sum "Si O2"
_cell_formula_units_Z 120
_cell_length_a 24.508909
_cell_length_b 7.915973
_cell_length_c 34.407632
_cell_angle_alpha 90.000000
_cell_angle_beta 90.000000
_cell_angle_gamma 90.000000
_cell_volume 6675.488748
_symmetry_space_group_name_H-M "F D D 2"
_symmetry_group_IT_number 43
_symmetry_cell_setting 'orthorhombic'
loop_
_space_group_symop_operation_xyz
x,y,z
-x,-y,z
1/4-x,1/4+y,1/4+z
1/4+x,1/4-y,1/4+z
x,1/2+y,1/2+z
-x,1/2-y,1/2+z
1/4-x,3/4+y,3/4+z
1/4+x,3/4-y,3/4+z
1/2+x,y,1/2+z
1/2-x,-y,1/2+z
3/4-x,1/4+y,3/4+z
3/4+x,1/4-y,3/4+z
1/2+x,1/2+y,z
1/2-x,1/2-y,z
3/4-x,3/4+y,1/4+z
3/4+x,3/4-y,1/4+z
loop_
_atom_site_type_symbol
_atom_site_label
_atom_site_fract_x
_atom_site_fract_y
_atom_site_fract_z
Si Si1 0.688356 0.959240 0.921700
Si Si2 0.726351 0.938385 0.480423
Si Si3 0.500000 0.000000 0.105717
Si Si4 0.920879 0.658980 0.894345
Si Si5 0.552323 0.385212 0.804534
Si Si6 0.107013 0.337076 0.089781
Si Si7 0.790355 0.523847 0.640012
Si Si8 0.149912 0.342651 0.412788
O O1 0.724228 0.955128 0.960767
O O2 0.676412 0.155732 0.911704
O O3 0.721485 0.881005 0.885613
O O4 0.630276 0.862907 0.923458
O O5 0.750000 0.750000 0.485663
O O6 0.679793 0.935530 0.447631
O O7 0.700799 0.001372 0.520234
O O8 0.451131 0.079782 0.080791
O O9 0.896067 0.769769 0.859182
O O10 0.939141 0.467196 0.884718
O O11 0.978875 0.739141 0.905743
O O12 0.500000 0.500000 0.797535
O O13 0.607806 0.493423 0.807163
O O14 0.543854 0.306468 0.847292
O O15 0.093871 0.200267 0.123600
O O16 0.835204 0.434555 0.666893
#
# Coordination Sequence:
#
# PCOD9370143 Si02
#       8
#    16  16   8  16  16  16  16  16
#     4   9  18  32  50  82 108 139 181 230 283 322
#     4  10  21  34  51  77 117 147 183 231 297 347
#     4  10  18  30  56  76 112 136 190 234 274 322
#     4   9  17  30  54  78 109 137 182 228 276 327
#     4  11  22  32  50  79 117 143 182 229 291 345
#     4  10  19  32  51  82 108 140 187 232 276 331
#     4   9  18  33  52  77 111 142 183 228 278 331
#     4   9  18  33  51  76 112 141 182 232 276 329
#
# _framework density 17.976213000000001
#
# number of rings (size 3 to 8) (size 9 to 14) (size 15 to 20)
#    0.000    2.400    2.667    0.000    2.800    0.000 
#    0.000    0.000    0.000    0.000    0.000   48.533 
#    0.000    0.000    0.000    0.000    0.000    0.000 
#
# Total GULP energy -167109.202033 kJ/mol
# GULP energy per Si atom -5570.306734 kJ/mol
# Density = 1.793530 g / cm^3
# Si number density = 17.976213 Si / 1000 Ang^3
#
#
#
# Elastic Constant Matrix: (Units=GPa)
#
#
# Indices 1 2 3 4 5 6 
#
# 1 161.7916 38.7059 39.6839 -0.0006 0.0004 -0.0005
# 2 38.7059 33.7367 16.0569 -0.0007 0.0003 -0.0002
# 3 39.6839 16.0569 53.7312 0.0003 -0.0002 -0.0001
# 4 -0.0006 -0.0007 0.0003 5.6368 -0.0004 0.0005
# 5 0.0004 0.0003 -0.0002 -0.0004 9.4292 -0.0003
# 6 -0.0005 -0.0002 -0.0001 0.0005 -0.0003 26.7201
#
#
#
# Elastic Compliance Matrix: (Units=1/GPa)
#
#
# Indices 1 2 3 4 5 6 
#
# 1 0.009296 -0.008624 -0.004288 0.000000 0.000000 0.000000
# 2 -0.008624 0.042557 -0.006348 0.000004 -0.000001 0.000000
# 3 -0.004288 -0.006348 0.023675 -0.000002 0.000001 0.000000
# 4 0.000000 0.000004 -0.000002 0.177405 0.000008 -0.000003
# 5 0.000000 -0.000001 0.000001 0.000008 0.106053 0.000001
# 6 0.000000 0.000000 0.000000 -0.000003 0.000001 0.037425
#
#
# Mechanical properties :
#
#
# Convention : Reuss Voigt Hill
#
# Bulk Modulus (GPa) = 27.02194 48.68366 37.85280
# Shear Modulus (GPa) = 11.17899 18.67810 14.92855
#
# Velocity S-wave (km/s) = 2.49645 3.22692 2.88490
# Velocity P-wave (km/s) = 4.83471 6.40508 5.67448
#
# Compressibility (1/GPa) = 0.03700697
#
# Stress axis : x y z
#
# Youngs Moduli (GPa) = 107.57612 23.49796 42.23778
#
# Poissons Ratio (x) = 0.20264 0.18113
# Poissons Ratio (y) = 0.92773 0.26814
# Poissons Ratio (z) = 0.46132 0.14917
#
# Static dielectric constant tensor:
#      x y z
#    x 1.653930 0.000000 0.000000 
#    y 0.000000 1.668220 0.000000 
#    z 0.000000 0.000000 1.558910 
# 
# From -- ./inp_files/29988.got.cif
#   From: 2010.05.17/outbox.cif.g08.bks.cpg/sg43_15_cif.got.tgz:29988.got - 2010.06.03 19:21:55.
