data_PCOD9370485
_publ_section_title
;
Structure prediction by ZEFSAII (Michael W. Deem and Ramdas Pophale) SiO2 
 PCOD9370485
Probable space group: F D D 2
;
_chemical_formula_sum "Si O2"
_cell_formula_units_Z 88
_cell_length_a 11.639232
_cell_length_b 26.578744
_cell_length_c 10.538110
_cell_angle_alpha 90.000000
_cell_angle_beta 90.000000
_cell_angle_gamma 90.000000
_cell_volume 3260.029324
_symmetry_space_group_name_H-M "F D D 2"
_symmetry_group_IT_number 43
_symmetry_cell_setting 'orthorhombic'
loop_
_space_group_symop_operation_xyz
x,y,z
-x,-y,z
1/4-x,1/4+y,1/4+z
1/4+x,1/4-y,1/4+z
x,1/2+y,1/2+z
-x,1/2-y,1/2+z
1/4-x,3/4+y,3/4+z
1/4+x,3/4-y,3/4+z
1/2+x,y,1/2+z
1/2-x,-y,1/2+z
3/4-x,1/4+y,3/4+z
3/4+x,1/4-y,3/4+z
1/2+x,1/2+y,z
1/2-x,1/2-y,z
3/4-x,3/4+y,1/4+z
3/4+x,3/4-y,1/4+z
loop_
_atom_site_type_symbol
_atom_site_label
_atom_site_fract_x
_atom_site_fract_y
_atom_site_fract_z
Si Si1 0.507882 0.770517 0.443570
Si Si2 0.641256 0.655028 0.560590
Si Si3 0.633071 0.563494 0.839244
Si Si4 0.184324 0.618964 0.576662
Si Si5 0.063095 0.679512 0.795751
Si Si6 0.500000 0.000000 0.835926
O O1 0.412676 0.741453 0.530293
O O2 0.490357 0.828079 0.407995
O O3 0.524067 0.736842 0.315607
O O4 0.631904 0.767100 0.514633
O O5 0.507418 0.660766 0.578991
O O6 0.651783 0.670124 0.411311
O O7 0.699520 0.602292 0.574772
O O8 0.706510 0.697387 0.644417
O O9 0.527549 0.591410 0.772703
O O10 0.614125 0.579756 0.987004
O O11 0.109696 0.654108 0.669526
#
# Coordination Sequence:
#
# PCOD9370485 Si02
#       6
#    16  16  16  16  16   8
#     4  10  23  42  66  97 136 183 233 274 349 425
#     4  10  19  40  62  91 127 171 221 277 330 419
#     4  10  24  40  65  97 142 173 223 289 360 414
#     4  12  23  43  68 102 141 176 228 300 351 407
#     4  10  21  37  66  90 127 171 236 266 331 415
#     4   8  16  36  64  86 114 166 234 268 306 396
#
# _framework density 26.993621999999998
#
# number of rings (size 3 to 8) (size 9 to 14) (size 15 to 20)
#    0.000    2.182    1.818    3.273    2.545    2.909 
#    0.000    5.455    4.000    0.000    0.000    0.000 
#    0.000    0.000    0.000    0.000    0.000    0.000 
#
# Total GULP energy -122679.974499 kJ/mol
# GULP energy per Si atom -5576.362477 kJ/mol
# Density = 2.693218 g / cm^3
# Si number density = 26.993622 Si / 1000 Ang^3
#
#
#
# Elastic Constant Matrix: (Units=GPa)
#
#
# Indices 1 2 3 4 5 6 
#
# 1 63.6172 12.2351 -21.1660 0.0000 0.0000 0.0000
# 2 12.2351 152.4176 7.4356 0.0000 0.0000 0.0000
# 3 -21.1660 7.4356 85.3999 0.0000 0.0000 0.0000
# 4 0.0000 0.0000 0.0000 28.2169 0.0000 0.0000
# 5 0.0000 0.0000 0.0000 0.0000 38.4926 0.0000
# 6 0.0000 0.0000 0.0000 0.0000 0.0000 38.0271
#
#
#
# Elastic Compliance Matrix: (Units=1/GPa)
#
#
# Indices 1 2 3 4 5 6 
#
# 1 0.017524 -0.001625 0.004485 0.000000 0.000000 0.000000
# 2 -0.001625 0.006740 -0.000990 0.000000 0.000000 0.000000
# 3 0.004485 -0.000990 0.012907 0.000000 0.000000 0.000000
# 4 0.000000 0.000000 0.000000 0.035440 0.000000 0.000000
# 5 0.000000 0.000000 0.000000 0.000000 0.025979 0.000000
# 6 0.000000 0.000000 0.000000 0.000000 0.000000 0.026297
#
#
# Mechanical properties :
#
#
# Convention : Reuss Voigt Hill
#
# Bulk Modulus (GPa) = 24.44399 33.16045 28.80222
# Shear Modulus (GPa) = 37.09637 41.14265 39.11951
#
# Velocity S-wave (km/s) = 3.71113 3.90829 3.81098
# Velocity P-wave (km/s) = 5.23817 5.71642 5.48251
#
# Compressibility (1/GPa) = 0.04090986
#
# Stress axis : x y z
#
# Youngs Moduli (GPa) = 57.06541 148.37489 77.47556
#
# Poissons Ratio (x) = 0.24118 -0.34746
# Poissons Ratio (y) = 0.09276 0.07668
# Poissons Ratio (z) = -0.25592 0.14684
#
# Static dielectric constant tensor:
#      x y z
#    x 2.112550 0.000000 0.000000 
#    y 0.000000 2.118540 0.000000 
#    z 0.000000 0.000000 2.618770 
# 
# From -- ./inp_files/6207.got.cif
#   From: 2010.05.17/outbox.cif.g08.bks.cpg/sg43_4_cif.got.tgz:6207.got - 2010.06.03 19:21:55.
