data_PCOD9370487
_publ_section_title
;
Structure prediction by ZEFSAII (Michael W. Deem and Ramdas Pophale) SiO2 
 PCOD9370487
Probable space group: F D D 2
;
_chemical_formula_sum "Si O2"
_cell_formula_units_Z 120
_cell_length_a 9.186676
_cell_length_b 22.679493
_cell_length_c 26.904437
_cell_angle_alpha 90.000000
_cell_angle_beta 90.000000
_cell_angle_gamma 90.000000
_cell_volume 5605.516689
_symmetry_space_group_name_H-M "F D D 2"
_symmetry_group_IT_number 43
_symmetry_cell_setting 'orthorhombic'
loop_
_space_group_symop_operation_xyz
x,y,z
-x,-y,z
1/4-x,1/4+y,1/4+z
1/4+x,1/4-y,1/4+z
x,1/2+y,1/2+z
-x,1/2-y,1/2+z
1/4-x,3/4+y,3/4+z
1/4+x,3/4-y,3/4+z
1/2+x,y,1/2+z
1/2-x,-y,1/2+z
3/4-x,1/4+y,3/4+z
3/4+x,1/4-y,3/4+z
1/2+x,1/2+y,z
1/2-x,1/2-y,z
3/4-x,3/4+y,1/4+z
3/4+x,3/4-y,1/4+z
loop_
_atom_site_type_symbol
_atom_site_label
_atom_site_fract_x
_atom_site_fract_y
_atom_site_fract_z
Si Si1 0.569589 0.560229 0.637410
Si Si2 0.033322 0.570555 0.532619
Si Si3 0.500000 0.500000 0.321182
Si Si4 0.836411 0.614181 0.791864
Si Si5 0.080043 0.937808 0.141496
Si Si6 0.046002 0.122583 0.731022
Si Si7 0.214178 0.909054 0.967185
Si Si8 0.160159 0.487062 0.918236
O O1 0.500000 0.500000 0.617517
O O2 0.547119 0.611608 0.596230
O O3 0.745488 0.555814 0.642376
O O4 0.501718 0.571056 0.692531
O O5 0.193061 0.595617 0.521601
O O6 0.000000 0.500000 0.527592
O O7 0.973478 0.584492 0.587388
O O8 0.941513 0.602834 0.489835
O O9 0.448589 0.558376 0.292602
O O10 0.634342 0.503766 0.360522
O O11 0.692194 0.603521 0.759714
O O12 0.927902 0.664691 0.764028
O O13 0.029391 0.890584 0.181894
O O14 0.000000 0.000000 0.150193
O O15 0.067499 0.172419 0.688642
O O16 0.217648 0.970375 0.938619
O O17 0.000000 0.500000 0.940048
#
# Coordination Sequence:
#
# PCOD9370487 Si02
#       8
#    16  16   8  16  16  16  16  16
#     4  12  27  46  72 107 142 185 245 300 365 444
#     4  11  26  43  69 103 140 182 241 297 360 431
#     4  10  22  42  68 102 132 176 246 298 344 434
#     4  12  24  41  76 101 135 190 245 287 365 431
#     4  11  26  47  63 103 143 183 235 297 366 435
#     4  12  25  46  67 108 142 184 237 302 365 424
#     4  12  23  41  70  96 133 193 230 285 357 431
#     4  10  19  40  67  95 135 171 234 298 326 424
#
# _framework density 21.407482000000002
#
# number of rings (size 3 to 8) (size 9 to 14) (size 15 to 20)
#    0.400    0.267    6.667    0.800    8.400    0.000 
#    0.000    0.000    0.000    0.000    0.000    0.000 
#    0.000    0.000    0.000    0.000    0.000    0.000 
#
# Total GULP energy -167167.389523 kJ/mol
# GULP energy per Si atom -5572.246317 kJ/mol
# Density = 2.135876 g / cm^3
# Si number density = 21.407482 Si / 1000 Ang^3
#
#
#
# Elastic Constant Matrix: (Units=GPa)
#
#
# Indices 1 2 3 4 5 6 
#
# 1 55.6873 16.7639 29.7263 0.0000 0.0000 0.0000
# 2 16.7639 79.6639 32.5863 0.0000 0.0000 0.0000
# 3 29.7263 32.5863 101.2791 0.0000 0.0000 0.0000
# 4 0.0000 0.0000 0.0000 31.7826 0.0000 0.0000
# 5 0.0000 0.0000 0.0000 0.0000 45.0582 0.0000
# 6 0.0000 0.0000 0.0000 0.0000 0.0000 33.5186
#
#
#
# Elastic Compliance Matrix: (Units=1/GPa)
#
#
# Indices 1 2 3 4 5 6 
#
# 1 0.021639 -0.002252 -0.005627 0.000000 0.000000 0.000000
# 2 -0.002252 0.014690 -0.004065 0.000000 0.000000 0.000000
# 3 -0.005627 -0.004065 0.012833 0.000000 0.000000 0.000000
# 4 0.000000 0.000000 0.000000 0.031464 0.000000 0.000000
# 5 0.000000 0.000000 0.000000 0.000000 0.022194 0.000000
# 6 0.000000 0.000000 0.000000 0.000000 0.000000 0.029834
#
#
# Mechanical properties :
#
#
# Convention : Reuss Voigt Hill
#
# Bulk Modulus (GPa) = 39.56683 43.86483 41.71583
# Shear Modulus (GPa) = 30.30935 32.57547 31.44241
#
# Velocity S-wave (km/s) = 3.76683 3.90511 3.83660
# Velocity P-wave (km/s) = 6.11895 6.39282 6.25738
#
# Compressibility (1/GPa) = 0.02527370
#
# Stress axis : x y z
#
# Youngs Moduli (GPa) = 46.21307 68.07558 77.92296
#
# Poissons Ratio (x) = 0.15330 0.43844
# Poissons Ratio (y) = 0.10407 0.31678
# Poissons Ratio (z) = 0.26002 0.27675
#
# Static dielectric constant tensor:
#      x y z
#    x 1.723930 0.000000 0.000000 
#    y 0.000000 1.815100 0.000000 
#    z 0.000000 0.000000 1.808350 
# 
# From -- ./inp_files/24464.got.cif
#   From: 2010.05.17/outbox.cif.g08.bks.cpg/sg43_13_cif.got.tgz:24464.got - 2010.06.03 19:21:55.
