data_PCOD9370833
_publ_section_title
;
Structure prediction by ZEFSAII (Michael W. Deem and Ramdas Pophale) SiO2 
 PCOD9370833
Probable space group: F D D 2
;
_chemical_formula_sum "Si O2"
_cell_formula_units_Z 120
_cell_length_a 11.378021
_cell_length_b 27.557171
_cell_length_c 16.633150
_cell_angle_alpha 90.000000
_cell_angle_beta 90.000000
_cell_angle_gamma 90.000000
_cell_volume 5215.258820
_symmetry_space_group_name_H-M "F D D 2"
_symmetry_group_IT_number 43
_symmetry_cell_setting 'orthorhombic'
loop_
_space_group_symop_operation_xyz
x,y,z
-x,-y,z
1/4-x,1/4+y,1/4+z
1/4+x,1/4-y,1/4+z
x,1/2+y,1/2+z
-x,1/2-y,1/2+z
1/4-x,3/4+y,3/4+z
1/4+x,3/4-y,3/4+z
1/2+x,y,1/2+z
1/2-x,-y,1/2+z
3/4-x,1/4+y,3/4+z
3/4+x,1/4-y,3/4+z
1/2+x,1/2+y,z
1/2-x,1/2-y,z
3/4-x,3/4+y,1/4+z
3/4+x,3/4-y,1/4+z
loop_
_atom_site_type_symbol
_atom_site_label
_atom_site_fract_x
_atom_site_fract_y
_atom_site_fract_z
Si Si1 0.368325 0.094747 0.623700
Si Si2 0.750000 0.250000 0.875634
Si Si3 0.072297 0.306661 0.996015
Si Si4 0.037956 0.729659 0.149403
Si Si5 0.539401 0.620018 0.937678
Si Si6 0.214623 0.896570 0.506939
Si Si7 0.798910 0.967734 0.243065
Si Si8 0.457746 0.830879 0.707380
O O1 0.438460 0.047363 0.589523
O O2 0.290883 0.078865 0.700532
O O3 0.453646 0.136491 0.654926
O O4 0.285904 0.103900 0.547000
O O5 0.851508 0.225406 0.928306
O O6 0.052983 0.300993 0.092343
O O7 0.176190 0.343120 0.977489
O O8 0.065353 0.250601 0.970941
O O9 0.096928 0.689758 0.206531
O O10 0.989057 0.773911 0.202418
O O11 0.098094 0.759250 0.076016
O O12 0.564382 0.645159 0.851247
O O13 0.425072 0.586717 0.924152
O O14 0.648207 0.597525 0.986053
O O15 0.491560 0.663289 0.993589
#
# Coordination Sequence:
#
# PCOD9370833 Si02
#       8
#    16   8  16  16  16  16  16  16
#     4  11  25  41  76  99 148 182 241 292 365 427
#     4  10  20  40  68  96 132 178 222 286 352 418
#     4   9  24  47  67  96 137 189 231 292 351 424
#     4  10  24  44  67  99 141 183 237 293 356 425
#     4  12  24  41  73  96 143 174 236 289 361 422
#     4  12  25  46  67  99 134 192 232 295 346 431
#     4   9  20  42  67  98 132 179 221 289 351 419
#     4  12  26  43  67 113 137 186 235 298 362 431
#
# _framework density 23.009402999999999
#
# number of rings (size 3 to 8) (size 9 to 14) (size 15 to 20)
#    0.800    0.533    2.667    2.400    5.600    1.067 
#    2.400    0.000    2.933    0.000    0.000    0.000 
#    0.000    0.000    0.000    0.000    0.000    0.000 
#
# Total GULP energy -167079.237682 kJ/mol
# GULP energy per Si atom -5569.307923 kJ/mol
# Density = 2.295703 g / cm^3
# Si number density = 23.009403 Si / 1000 Ang^3
#
#
#
# Elastic Constant Matrix: (Units=GPa)
#
#
# Indices 1 2 3 4 5 6 
#
# 1 24.7146 3.1424 10.4547 0.0000 0.0000 0.0000
# 2 3.1424 78.4134 31.0830 0.0000 0.0000 0.0000
# 3 10.4547 31.0830 96.5569 0.0000 0.0000 0.0000
# 4 0.0000 0.0000 0.0000 41.2249 0.0000 0.0000
# 5 0.0000 0.0000 0.0000 0.0000 14.9968 0.0000
# 6 0.0000 0.0000 0.0000 0.0000 0.0000 22.9345
#
#
#
# Elastic Compliance Matrix: (Units=1/GPa)
#
#
# Indices 1 2 3 4 5 6 
#
# 1 0.042405 0.000138 -0.004636 0.000000 0.000000 0.000000
# 2 0.000138 0.014619 -0.004721 0.000000 0.000000 0.000000
# 3 -0.004636 -0.004721 0.012378 0.000000 0.000000 0.000000
# 4 0.000000 0.000000 0.000000 0.024257 0.000000 0.000000
# 5 0.000000 0.000000 0.000000 0.000000 0.066681 0.000000
# 6 0.000000 0.000000 0.000000 0.000000 0.000000 0.043602
#
#
# Mechanical properties :
#
#
# Convention : Reuss Voigt Hill
#
# Bulk Modulus (GPa) = 19.62124 32.11612 25.86868
# Shear Modulus (GPa) = 20.88829 26.16490 23.52659
#
# Velocity S-wave (km/s) = 3.01627 3.37581 3.20109
# Velocity P-wave (km/s) = 4.54714 5.40212 4.99296
#
# Compressibility (1/GPa) = 0.05096518
#
# Stress axis : x y z
#
# Youngs Moduli (GPa) = 23.58193 68.40525 80.78668
#
# Poissons Ratio (x) = -0.00946 0.37452
# Poissons Ratio (y) = -0.00326 0.38139
# Poissons Ratio (z) = 0.10932 0.32294
#
# Static dielectric constant tensor:
#      x y z
#    x 1.982090 0.000000 0.000000 
#    y 0.000000 1.871460 0.000000 
#    z 0.000000 0.000000 1.946260 
# 
# From -- ./inp_files/13464.got.cif
#   From: 2010.05.17/outbox.cif.g08.bks.cpg/sg43_7_cif.got.tgz:13464.got - 2010.06.03 19:21:55.
