data_PCOD9370268
_publ_section_title
;
Structure prediction by ZEFSAII (Michael W. Deem and Ramdas Pophale) SiO2 
 PCOD9370268
Probable space group: F D D 2
;
_chemical_formula_sum "Si O2"
_cell_formula_units_Z 64
_cell_length_a 11.984770
_cell_length_b 7.371120
_cell_length_c 31.927270
_cell_angle_alpha 90.000000
_cell_angle_beta 90.000000
_cell_angle_gamma 90.000000
_cell_volume 2820.492637
_symmetry_space_group_name_H-M "F D D 2"
_symmetry_group_IT_number 43
_symmetry_cell_setting 'orthorhombic'
loop_
_space_group_symop_operation_xyz
x,y,z
-x,-y,z
1/4-x,1/4+y,1/4+z
1/4+x,1/4-y,1/4+z
x,1/2+y,1/2+z
-x,1/2-y,1/2+z
1/4-x,3/4+y,3/4+z
1/4+x,3/4-y,3/4+z
1/2+x,y,1/2+z
1/2-x,-y,1/2+z
3/4-x,1/4+y,3/4+z
3/4+x,1/4-y,3/4+z
1/2+x,1/2+y,z
1/2-x,1/2-y,z
3/4-x,3/4+y,1/4+z
3/4+x,3/4-y,1/4+z
loop_
_atom_site_type_symbol
_atom_site_label
_atom_site_fract_x
_atom_site_fract_y
_atom_site_fract_z
Si Si1 0.500000 0.000000 0.123721
Si Si2 0.898061 0.637556 0.657456
Si Si3 0.910298 0.856205 0.313834
Si Si4 0.662715 0.024373 0.300395
Si Si5 0.750000 0.250000 0.228533
O O1 0.555828 0.157768 0.150984
O O2 0.412034 0.098459 0.091831
O O3 0.834855 0.595043 0.614235
O O4 0.819650 0.623516 0.697413
O O5 0.000000 0.500000 0.660318
O O6 0.788132 0.937522 0.303923
O O7 0.916694 0.649692 0.298612
O O8 0.000000 0.000000 0.298055
O O9 0.666740 0.143331 0.258964
#
# Coordination Sequence:
#
# PCOD9370268 Si02
#       5
#     8  16  16  16   8
#     4   9  18  40  66  88 128 178 222 274 332 414
#     4  11  21  41  67  97 134 173 228 287 339 417
#     4  10  18  39  71  94 127 184 233 274 342 422
#     4   9  20  41  61  94 140 172 225 293 334 416
#     4  11  24  42  62  98 142 174 224 294 364 386
#
# _framework density 22.691071000000001
#
# number of rings (size 3 to 8) (size 9 to 14) (size 15 to 20)
#    0.000    2.000    6.250    0.000    0.000    1.000 
#   13.500   15.000    0.000    0.000    0.000    0.000 
#    0.000    0.000    0.000    0.000    0.000    0.000 
#
# Total GULP energy -89496.500122 kJ/mol
# GULP energy per Si atom -5593.531258 kJ/mol
# Density = 2.263943 g / cm^3
# Si number density = 22.691071 Si / 1000 Ang^3
#
#
#
# Elastic Constant Matrix: (Units=GPa)
#
#
# Indices 1 2 3 4 5 6 
#
# 1 72.6495 40.7639 10.4553 0.0000 0.0000 0.0000
# 2 40.7639 145.2819 10.3268 0.0000 0.0000 0.0000
# 3 10.4553 10.3268 72.4487 0.0000 0.0000 0.0000
# 4 0.0000 0.0000 0.0000 1.8139 0.0000 0.0000
# 5 0.0000 0.0000 0.0000 0.0000 16.0870 0.0000
# 6 0.0000 0.0000 0.0000 0.0000 0.0000 55.6365
#
#
#
# Elastic Compliance Matrix: (Units=1/GPa)
#
#
# Indices 1 2 3 4 5 6 
#
# 1 0.016552 -0.004520 -0.001744 0.000000 0.000000 0.000000
# 2 -0.004520 0.008188 -0.000515 0.000000 0.000000 0.000000
# 3 -0.001744 -0.000515 0.014128 0.000000 0.000000 0.000000
# 4 0.000000 0.000000 0.000000 0.551295 0.000000 0.000000
# 5 0.000000 0.000000 0.000000 0.000000 0.062162 0.000000
# 6 0.000000 0.000000 0.000000 0.000000 0.000000 0.017974
#
#
# Mechanical properties :
#
#
# Convention : Reuss Voigt Hill
#
# Bulk Modulus (GPa) = 39.51120 45.94136 42.72628
# Shear Modulus (GPa) = 7.22237 29.96310 18.59273
#
# Velocity S-wave (km/s) = 1.78601 3.63778 2.86560
# Velocity P-wave (km/s) = 4.65871 6.15914 5.46070
#
# Compressibility (1/GPa) = 0.02530928
#
# Stress axis : x y z
#
# Youngs Moduli (GPa) = 60.41531 122.12875 70.78152
#
# Poissons Ratio (x) = 0.55206 0.12347
# Poissons Ratio (y) = 0.27309 0.03644
# Poissons Ratio (z) = 0.10539 0.06287
#
# Static dielectric constant tensor:
#      x y z
#    x 1.931350 0.000000 0.000000 
#    y 0.000000 1.866110 0.000000 
#    z 0.000000 0.000000 1.784030 
# 
# From -- ./inp_files/25463.got.cif
#   From: 2010.05.17/outbox.cif.g08.bks.cpg/sg43_13_cif.got.tgz:25463.got - 2010.06.03 19:21:55.
