data_PCOD9370169
_publ_section_title
;
Structure prediction by ZEFSAII (Michael W. Deem and Ramdas Pophale) SiO2 
 PCOD9370169
Probable space group: F D D 2
;
_chemical_formula_sum "Si O2"
_cell_formula_units_Z 120
_cell_length_a 10.956241
_cell_length_b 28.607722
_cell_length_c 21.276692
_cell_angle_alpha 90.000000
_cell_angle_beta 90.000000
_cell_angle_gamma 90.000000
_cell_volume 6668.819461
_symmetry_space_group_name_H-M "F D D 2"
_symmetry_group_IT_number 43
_symmetry_cell_setting 'orthorhombic'
loop_
_space_group_symop_operation_xyz
x,y,z
-x,-y,z
1/4-x,1/4+y,1/4+z
1/4+x,1/4-y,1/4+z
x,1/2+y,1/2+z
-x,1/2-y,1/2+z
1/4-x,3/4+y,3/4+z
1/4+x,3/4-y,3/4+z
1/2+x,y,1/2+z
1/2-x,-y,1/2+z
3/4-x,1/4+y,3/4+z
3/4+x,1/4-y,3/4+z
1/2+x,1/2+y,z
1/2-x,1/2-y,z
3/4-x,3/4+y,1/4+z
3/4+x,3/4-y,1/4+z
loop_
_atom_site_type_symbol
_atom_site_label
_atom_site_fract_x
_atom_site_fract_y
_atom_site_fract_z
Si Si1 0.407837 0.962449 0.968410
Si Si2 0.003185 0.078289 0.029225
Si Si3 0.500000 0.000000 0.422377
Si Si4 0.052381 0.409229 0.863297
Si Si5 0.994900 0.261291 0.107975
Si Si6 0.580892 0.320302 0.016833
Si Si7 0.505852 0.809651 0.839232
Si Si8 0.879258 0.723118 0.383831
O O1 0.487323 0.927029 0.926894
O O2 0.500000 0.000000 0.997079
O O3 0.324861 0.988063 0.916984
O O4 0.324395 0.943774 0.023139
O O5 0.004911 0.133751 0.018441
O O6 0.883604 0.072333 0.072532
O O7 0.113695 0.056741 0.069775
O O8 0.983387 0.044941 0.968734
O O9 0.384397 0.987901 0.379219
O O10 0.173297 0.439689 0.849329
O O11 0.067755 0.353947 0.871735
O O12 0.955784 0.418987 0.806239
O O13 0.974346 0.225581 0.050454
O O14 0.606053 0.308609 0.944678
O O15 0.488003 0.760769 0.875179
O O16 0.750000 0.750000 0.392243
#
# Coordination Sequence:
#
# PCOD9370169 Si02
#       8
#    16  16   8  16  16  16  16  16
#     4   9  17  33  54  77 107 143 187 234 282 344
#     4  10  20  33  55  90 110 153 200 246 300 353
#     4  12  20  38  62  80 122 156 200 240 296 380
#     4   9  20  33  55  88 110 143 201 243 300 353
#     4  10  20  36  57  84 115 154 190 243 295 357
#     4  10  21  33  59  86 119 150 195 256 308 342
#     4  10  18  33  56  83 112 147 194 244 296 346
#     4  10  19  34  54  85 122 147 196 257 296 349
#
# _framework density 17.99419
#
# number of rings (size 3 to 8) (size 9 to 14) (size 15 to 20)
#    0.000    2.133    3.333    2.000    1.867    6.400 
#    0.000    1.333   10.267    0.000    0.000    0.000 
#    0.000    0.000    0.000    0.000    0.000    0.000 
#
# Total GULP energy -167054.577743 kJ/mol
# GULP energy per Si atom -5568.485925 kJ/mol
# Density = 1.795323 g / cm^3
# Si number density = 17.994190 Si / 1000 Ang^3
#
#
#
# Elastic Constant Matrix: (Units=GPa)
#
#
# Indices 1 2 3 4 5 6 
#
# 1 51.4665 40.5746 17.2334 0.0000 0.0000 0.0000
# 2 40.5746 118.1741 35.0189 0.0000 0.0000 0.0000
# 3 17.2334 35.0189 52.3821 0.0000 0.0000 0.0000
# 4 0.0000 0.0000 0.0000 2.3086 0.0000 0.0000
# 5 0.0000 0.0000 0.0000 0.0000 18.8760 0.0000
# 6 0.0000 0.0000 0.0000 0.0000 0.0000 6.7500
#
#
#
# Elastic Compliance Matrix: (Units=1/GPa)
#
#
# Indices 1 2 3 4 5 6 
#
# 1 0.027108 -0.008311 -0.003362 0.000000 0.000000 0.000000
# 2 -0.008311 0.013101 -0.006024 0.000000 0.000000 0.000000
# 3 -0.003362 -0.006024 0.024224 0.000000 0.000000 0.000000
# 4 0.000000 0.000000 0.000000 0.433154 0.000000 0.000000
# 5 0.000000 0.000000 0.000000 0.000000 0.052977 0.000000
# 6 0.000000 0.000000 0.000000 0.000000 0.000000 0.148148
#
#
# Mechanical properties :
#
#
# Convention : Reuss Voigt Hill
#
# Bulk Modulus (GPa) = 34.43738 45.29739 39.86738
# Shear Modulus (GPa) = 6.72237 14.19999 10.46118
#
# Velocity S-wave (km/s) = 1.93493 2.81222 2.41377
# Velocity P-wave (km/s) = 4.91646 5.98103 5.47468
#
# Compressibility (1/GPa) = 0.02903822
#
# Stress axis : x y z
#
# Youngs Moduli (GPa) = 36.88918 76.33132 41.28180
#
# Poissons Ratio (x) = 0.63440 0.13880
# Poissons Ratio (y) = 0.30659 0.24868
# Poissons Ratio (z) = 0.12403 0.45981
#
# Static dielectric constant tensor:
#      x y z
#    x 1.626620 0.000000 0.000000 
#    y 0.000000 1.674510 0.000000 
#    z 0.000000 0.000000 1.614880 
# 
# From -- ./inp_files/17391.got.cif
#   From: 2010.05.17/outbox.cif.g08.bks.cpg/sg43_9_cif.got.tgz:17391.got - 2010.06.03 19:21:55.
