data_PCOD9370201
_publ_section_title
;
Structure prediction by ZEFSAII (Michael W. Deem and Ramdas Pophale) SiO2 
 PCOD9370201
Probable space group: F D D 2
;
_chemical_formula_sum "Si O2"
_cell_formula_units_Z 64
_cell_length_a 4.946986
_cell_length_b 29.201330
_cell_length_c 18.483636
_cell_angle_alpha 90.000000
_cell_angle_beta 90.000000
_cell_angle_gamma 90.000000
_cell_volume 2670.119638
_symmetry_space_group_name_H-M "F D D 2"
_symmetry_group_IT_number 43
_symmetry_cell_setting 'orthorhombic'
loop_
_space_group_symop_operation_xyz
x,y,z
-x,-y,z
1/4-x,1/4+y,1/4+z
1/4+x,1/4-y,1/4+z
x,1/2+y,1/2+z
-x,1/2-y,1/2+z
1/4-x,3/4+y,3/4+z
1/4+x,3/4-y,3/4+z
1/2+x,y,1/2+z
1/2-x,-y,1/2+z
3/4-x,1/4+y,3/4+z
3/4+x,1/4-y,3/4+z
1/2+x,1/2+y,z
1/2-x,1/2-y,z
3/4-x,3/4+y,1/4+z
3/4+x,3/4-y,1/4+z
loop_
_atom_site_type_symbol
_atom_site_label
_atom_site_fract_x
_atom_site_fract_y
_atom_site_fract_z
Si Si1 0.046998 0.451969 0.706600
Si Si2 0.250322 0.640331 0.234080
Si Si3 0.485946 0.051078 0.461379
Si Si4 0.476151 0.563186 0.800005
O O1 0.174373 0.403169 0.681754
O O2 0.269804 0.465264 0.768256
O O3 0.000000 0.500000 0.665029
O O4 0.766982 0.437215 0.743228
O O5 0.521960 0.667195 0.252005
O O6 0.028961 0.675900 0.207004
O O7 0.107088 0.614052 0.300484
O O8 0.381893 0.049224 0.378665
O O9 0.500000 0.000000 0.490539
#
# Coordination Sequence:
#
# PCOD9370201 Si02
#       4
#    16  16  16  16
#     4  10  18  35  59  83 115 148 185 241 298 338
#     4  10  22  37  54  92 121 151 187 252 298 347
#     4  12  22  37  62  90 117 155 203 246 290 353
#     4  10  21  36  58  88 119 144 194 246 295 339
#
# _framework density 23.968964
#
# number of rings (size 3 to 8) (size 9 to 14) (size 15 to 20)
#    1.500    0.000    2.500    4.500    0.000    0.000 
#    0.000    0.000    0.000    9.000    0.000    0.000 
#    0.000    0.000    0.000    0.000    0.000    0.000 
#
# Total GULP energy -89149.101606 kJ/mol
# GULP energy per Si atom -5571.818850 kJ/mol
# Density = 2.391441 g / cm^3
# Si number density = 23.968964 Si / 1000 Ang^3
#
#
#
# Elastic Constant Matrix: (Units=GPa)
#
#
# Indices 1 2 3 4 5 6 
#
# 1 159.9709 59.3980 6.5781 0.0000 0.0000 0.0000
# 2 59.3980 209.1575 2.6656 0.0000 0.0000 0.0000
# 3 6.5781 2.6656 44.1020 0.0000 0.0000 0.0000
# 4 0.0000 0.0000 0.0000 8.8720 0.0000 0.0000
# 5 0.0000 0.0000 0.0000 0.0000 13.2564 0.0000
# 6 0.0000 0.0000 0.0000 0.0000 0.0000 38.3337
#
#
#
# Elastic Compliance Matrix: (Units=1/GPa)
#
#
# Indices 1 2 3 4 5 6 
#
# 1 0.007026 -0.001983 -0.000928 0.000000 0.000000 0.000000
# 2 -0.001983 0.005345 -0.000027 0.000000 0.000000 0.000000
# 3 -0.000928 -0.000027 0.022815 0.000000 0.000000 0.000000
# 4 0.000000 0.000000 0.000000 0.112714 0.000000 0.000000
# 5 0.000000 0.000000 0.000000 0.000000 0.075435 0.000000
# 6 0.000000 0.000000 0.000000 0.000000 0.000000 0.026087
#
#
# Mechanical properties :
#
#
# Convention : Reuss Voigt Hill
#
# Bulk Modulus (GPa) = 34.12046 61.16818 47.64432
# Shear Modulus (GPa) = 18.86313 35.06501 26.96407
#
# Velocity S-wave (km/s) = 2.80836 3.82898 3.35768
# Velocity P-wave (km/s) = 4.97816 6.71739 5.91208
#
# Compressibility (1/GPa) = 0.02930793
#
# Stress axis : x y z
#
# Youngs Moduli (GPa) = 142.33372 187.10158 43.83120
#
# Poissons Ratio (x) = 0.37110 0.04068
# Poissons Ratio (y) = 0.28230 0.00119
# Poissons Ratio (z) = 0.13209 0.00509
#
# Static dielectric constant tensor:
#      x y z
#    x 1.897920 0.000000 0.000000 
#    y 0.000000 2.066660 0.000000 
#    z 0.000000 0.000000 1.875550 
# 
# From -- ./inp_files/19404.got.cif
#   From: 2010.05.17/outbox.cif.g08.bks.cpg/sg43_10_cif.got.tgz:19404.got - 2010.06.03 19:21:55.
