data_PCOD9370526
_publ_section_title
;
Structure prediction by ZEFSAII (Michael W. Deem and Ramdas Pophale) SiO2 
 PCOD9370526
Probable space group: F D D 2
;
_chemical_formula_sum "Si O2"
_cell_formula_units_Z 72
_cell_length_a 23.175298
_cell_length_b 5.362655
_cell_length_c 23.809300
_cell_angle_alpha 90.000000
_cell_angle_beta 90.000000
_cell_angle_gamma 90.000000
_cell_volume 2959.046654
_symmetry_space_group_name_H-M "F D D 2"
_symmetry_group_IT_number 43
_symmetry_cell_setting 'orthorhombic'
loop_
_space_group_symop_operation_xyz
x,y,z
-x,-y,z
1/4-x,1/4+y,1/4+z
1/4+x,1/4-y,1/4+z
x,1/2+y,1/2+z
-x,1/2-y,1/2+z
1/4-x,3/4+y,3/4+z
1/4+x,3/4-y,3/4+z
1/2+x,y,1/2+z
1/2-x,-y,1/2+z
3/4-x,1/4+y,3/4+z
3/4+x,1/4-y,3/4+z
1/2+x,1/2+y,z
1/2-x,1/2-y,z
3/4-x,3/4+y,1/4+z
3/4+x,3/4-y,1/4+z
loop_
_atom_site_type_symbol
_atom_site_label
_atom_site_fract_x
_atom_site_fract_y
_atom_site_fract_z
Si Si1 0.667914 0.633402 0.912990
Si Si2 0.500000 0.000000 0.259391
Si Si3 0.750000 0.250000 0.860065
Si Si4 0.500000 0.000000 0.835487
Si Si5 0.062124 0.134262 0.550183
Si Si6 0.194063 0.060004 0.180918
O O1 0.723000 0.458623 0.898653
O O2 0.656172 0.777385 0.854410
O O3 0.610431 0.483297 0.922533
O O4 0.692320 0.751637 0.970224
O O5 0.507274 0.253935 0.296243
O O6 0.800986 0.332400 0.819076
O O7 0.545516 0.117948 0.880081
O O8 0.074307 0.144634 0.485000
O O9 0.000000 0.000000 0.551977
O O10 0.250000 0.250000 0.187594
#
# Coordination Sequence:
#
# PCOD9370526 Si02
#       6
#    16   8   8   8  16  16
#     4  11  26  47  81 117 153 215 272 338 399 490
#     4  12  26  54  80 117 171 216 280 332 412 492
#     4  10  19  45  72 112 145 199 270 330 390 468
#     4  12  29  55  74 125 176 217 262 340 432 494
#     4  10  21  46  80 111 150 206 282 330 399 475
#     4  12  27  51  77 118 169 212 272 340 420 494
#
# _framework density 24.332163000000001
#
# number of rings (size 3 to 8) (size 9 to 14) (size 15 to 20)
#    0.000    0.889    6.667    0.667    0.000    5.333 
#    4.000    2.222    0.000    0.000    0.000    0.000 
#    0.000    0.000    0.000    0.000    0.000    0.000 
#
# Total GULP energy -100326.118161 kJ/mol
# GULP energy per Si atom -5573.673231 kJ/mol
# Density = 2.427678 g / cm^3
# Si number density = 24.332163 Si / 1000 Ang^3
#
#
#
# Elastic Constant Matrix: (Units=GPa)
#
#
# Indices 1 2 3 4 5 6 
#
# 1 103.0886 47.8687 81.6612 -0.0038 -0.0033 -0.0017
# 2 47.8687 126.9320 100.3693 -0.0065 -0.0036 -0.0031
# 3 81.6612 100.3693 244.5343 0.0069 -0.0007 -0.0020
# 4 -0.0038 -0.0065 0.0069 113.3233 -0.0089 0.0013
# 5 -0.0033 -0.0036 -0.0007 -0.0089 -17.9578 0.0025
# 6 -0.0017 -0.0031 -0.0020 0.0013 0.0025 43.6813
#
#
#
# Elastic Compliance Matrix: (Units=1/GPa)
#
#
# Indices 1 2 3 4 5 6 
#
# 1 0.013621 -0.002280 -0.003613 0.000001 -0.000002 0.000000
# 2 -0.002280 0.012045 -0.004183 0.000001 -0.000002 0.000001
# 3 -0.003613 -0.004183 0.007013 -0.000001 0.000001 0.000000
# 4 0.000001 0.000001 -0.000001 0.008824 -0.000004 0.000000
# 5 -0.000002 -0.000002 0.000001 -0.000004 -0.055686 0.000003
# 6 0.000000 0.000001 0.000000 0.000000 0.000003 0.022893
#
#
# Mechanical properties :
#
#
# Convention : Reuss Voigt Hill
#
# Bulk Modulus (GPa) = 79.82040 103.81705 91.81872
# Shear Modulus (GPa) = 151.34336 44.11975 97.73156
#
# Velocity S-wave (km/s) = 7.89518 4.26282 6.34451
# Velocity P-wave (km/s) = 10.76975 8.18462 9.56493
#
# Compressibility (1/GPa) = 0.01252813
#
# Stress axis : x y z
#
# Youngs Moduli (GPa) = 73.41608 83.01902 142.59868
#
# Poissons Ratio (x) = 0.18928 0.51519
# Poissons Ratio (y) = 0.16739 0.59644
# Poissons Ratio (z) = 0.26524 0.34724
#
# Static dielectric constant tensor:
#      x y z
#    x 1.988690 0.000010 0.000000 
#    y 0.000010 1.882390 0.000010 
#    z 0.000000 0.000010 2.088130 
# 
# From -- ./inp_files/15678.got.cif
#   From: 2010.05.17/outbox.cif.g08.bks.cpg/sg43_8_cif.got.tgz:15678.got - 2010.06.03 19:21:55.
