data_PCOD9370067
_publ_section_title
;
Structure prediction by ZEFSAII (Michael W. Deem and Ramdas Pophale) SiO2 
 PCOD9370067
Probable space group: F D D 2
;
_chemical_formula_sum "Si O2"
_cell_formula_units_Z 72
_cell_length_a 6.818553
_cell_length_b 19.188371
_cell_length_c 32.044481
_cell_angle_alpha 90.000000
_cell_angle_beta 90.000000
_cell_angle_gamma 90.000000
_cell_volume 4192.601346
_symmetry_space_group_name_H-M "F D D 2"
_symmetry_group_IT_number 43
_symmetry_cell_setting 'orthorhombic'
loop_
_space_group_symop_operation_xyz
x,y,z
-x,-y,z
1/4-x,1/4+y,1/4+z
1/4+x,1/4-y,1/4+z
x,1/2+y,1/2+z
-x,1/2-y,1/2+z
1/4-x,3/4+y,3/4+z
1/4+x,3/4-y,3/4+z
1/2+x,y,1/2+z
1/2-x,-y,1/2+z
3/4-x,1/4+y,3/4+z
3/4+x,1/4-y,3/4+z
1/2+x,1/2+y,z
1/2-x,1/2-y,z
3/4-x,3/4+y,1/4+z
3/4+x,3/4-y,1/4+z
loop_
_atom_site_type_symbol
_atom_site_label
_atom_site_fract_x
_atom_site_fract_y
_atom_site_fract_z
Si Si1 0.044131 0.213920 0.608280
Si Si2 0.575130 0.152460 0.466243
Si Si3 0.750000 0.250000 0.682205
Si Si4 0.250000 0.250000 0.426617
Si Si5 0.000000 0.000000 0.785986
Si Si6 0.132895 0.814298 0.390168
O O1 0.250000 0.250000 0.604075
O O2 0.088625 0.133039 0.614166
O O3 0.931557 0.244991 0.649208
O O4 0.917167 0.224036 0.567150
O O5 0.383372 0.197192 0.453327
O O6 0.661717 0.186756 0.508228
O O7 0.747374 0.169452 0.432836
O O8 0.518911 0.070766 0.459848
O O9 0.410109 0.292820 0.399807
O O10 0.250000 0.750000 0.370435
#
# Coordination Sequence:
#
# PCOD9370067 Si02
#       6
#    16  16   8   8   8  16
#     4  10  21  36  55  83 116 152 183 233 290 340
#     4  10  19  35  57  85 109 145 187 238 275 334
#     4   9  20  38  60  85 112 140 202 240 268 331
#     4  10  16  30  62  83 104 145 196 227 272 333
#     4  11  22  36  54  80 120 149 186 235 292 340
#     4   9  18  34  57  83 108 140 192 234 271 332
#
# _framework density 17.173109
#
# number of rings (size 3 to 8) (size 9 to 14) (size 15 to 20)
#    0.000    2.222    3.333    1.333    1.556    1.778 
#    0.000    2.222    0.000    2.667    0.000    0.000 
#    0.000    0.000    0.000    0.000    0.000    0.000 
#
# Total GULP energy -100230.298007 kJ/mol
# GULP energy per Si atom -5568.349889 kJ/mol
# Density = 1.713402 g / cm^3
# Si number density = 17.173109 Si / 1000 Ang^3
#
#
#
# Elastic Constant Matrix: (Units=GPa)
#
#
# Indices 1 2 3 4 5 6 
#
# 1 156.2884 79.0751 58.4428 0.0000 0.0000 0.0000
# 2 79.0751 181.6664 84.0904 0.0000 0.0000 0.0000
# 3 58.4428 84.0904 89.4856 0.0000 0.0000 0.0000
# 4 0.0000 0.0000 0.0000 39.8068 0.0000 0.0000
# 5 0.0000 0.0000 0.0000 0.0000 1.9088 0.0000
# 6 0.0000 0.0000 0.0000 0.0000 0.0000 23.0155
#
#
#
# Elastic Compliance Matrix: (Units=1/GPa)
#
#
# Indices 1 2 3 4 5 6 
#
# 1 0.008894 -0.002093 -0.003842 0.000000 0.000000 0.000000
# 2 -0.002093 0.010235 -0.008251 0.000000 0.000000 0.000000
# 3 -0.003842 -0.008251 0.021437 0.000000 0.000000 0.000000
# 4 0.000000 0.000000 0.000000 0.025121 0.000000 0.000000
# 5 0.000000 0.000000 0.000000 0.000000 0.523895 0.000000
# 6 0.000000 0.000000 0.000000 0.000000 0.000000 0.043449
#
#
# Mechanical properties :
#
#
# Convention : Reuss Voigt Hill
#
# Bulk Modulus (GPa) = 82.00111 96.73968 89.37039
# Shear Modulus (GPa) = 7.51351 26.66836 17.09093
#
# Velocity S-wave (km/s) = 2.09396 3.94498 3.15812
# Velocity P-wave (km/s) = 7.32800 8.78663 8.09025
#
# Compressibility (1/GPa) = 0.01219496
#
# Stress axis : x y z
#
# Youngs Moduli (GPa) = 112.43491 97.70594 46.64746
#
# Poissons Ratio (x) = 0.20450 0.17921
# Poissons Ratio (y) = 0.23533 0.38488
# Poissons Ratio (z) = 0.43195 0.80615
#
# Static dielectric constant tensor:
#      x y z
#    x 1.565770 0.000000 0.000000 
#    y 0.000000 1.588820 0.000000 
#    z 0.000000 0.000000 1.570710 
# 
# From -- ./inp_files/23440.got.cif
#   From: 2010.05.17/outbox.cif.g08.bks.cpg/sg43_12_cif.got.tgz:23440.got - 2010.06.03 19:21:55.
