data_PCOD9370443
_publ_section_title
;
Structure prediction by ZEFSAII (Michael W. Deem and Ramdas Pophale) SiO2 
 PCOD9370443
Probable space group: F D D 2
;
_chemical_formula_sum "Si O2"
_cell_formula_units_Z 96
_cell_length_a 28.030660
_cell_length_b 16.811850
_cell_length_c 9.789033
_cell_angle_alpha 90.000000
_cell_angle_beta 90.000000
_cell_angle_gamma 90.000000
_cell_volume 4613.054894
_symmetry_space_group_name_H-M "F D D 2"
_symmetry_group_IT_number 43
_symmetry_cell_setting 'orthorhombic'
loop_
_space_group_symop_operation_xyz
x,y,z
-x,-y,z
1/4-x,1/4+y,1/4+z
1/4+x,1/4-y,1/4+z
x,1/2+y,1/2+z
-x,1/2-y,1/2+z
1/4-x,3/4+y,3/4+z
1/4+x,3/4-y,3/4+z
1/2+x,y,1/2+z
1/2-x,-y,1/2+z
3/4-x,1/4+y,3/4+z
3/4+x,1/4-y,3/4+z
1/2+x,1/2+y,z
1/2-x,1/2-y,z
3/4-x,3/4+y,1/4+z
3/4+x,3/4-y,1/4+z
loop_
_atom_site_type_symbol
_atom_site_label
_atom_site_fract_x
_atom_site_fract_y
_atom_site_fract_z
Si Si1 0.774039 0.835793 0.987880
Si Si2 0.916253 0.883147 0.359106
Si Si3 0.059441 0.696688 0.131829
Si Si4 0.907462 0.059686 0.490963
Si Si5 0.688319 0.120257 0.780013
Si Si6 0.232411 0.666190 0.034062
O O1 0.750000 0.750000 0.010741
O O2 0.736518 0.893706 0.912114
O O3 0.818442 0.820504 0.886987
O O4 0.789028 0.873483 0.131956
O O5 0.917655 0.823265 0.485193
O O6 0.868718 0.871989 0.271658
O O7 0.966953 0.871556 0.283998
O O8 0.910514 0.969708 0.431204
O O9 0.101244 0.673736 0.237336
O O10 0.049092 0.790012 0.115745
O O11 0.939941 0.111153 0.384790
O O12 0.709742 0.183505 0.886846
O O13 0.250000 0.750000 0.096639
#
# Coordination Sequence:
#
# PCOD9370443 Si02
#       6
#    16  16  16  16  16  16
#     4  12  24  45  68 100 131 172 223 277 326 389
#     4  10  20  41  64  87 124 173 213 254 322 401
#     4  11  23  41  66  94 131 172 216 264 335 395
#     4  10  20  40  69  89 121 177 219 252 319 408
#     4  11  26  39  62  99 132 156 217 281 322 373
#     4  10  19  38  65  87 120 174 208 248 321 398
#
# _framework density 20.810504999999999
#
# number of rings (size 3 to 8) (size 9 to 14) (size 15 to 20)
#    0.000    1.333    5.000    1.000    2.333    1.333 
#    3.000    0.000    0.000    0.000    0.000    0.000 
#    0.000    0.000    0.000    0.000    0.000    0.000 
#
# Total GULP energy -133813.377558 kJ/mol
# GULP energy per Si atom -5575.557398 kJ/mol
# Density = 2.076314 g / cm^3
# Si number density = 20.810505 Si / 1000 Ang^3
#
#
#
# Elastic Constant Matrix: (Units=GPa)
#
#
# Indices 1 2 3 4 5 6 
#
# 1 91.5741 14.8404 30.6860 0.0000 0.0000 0.0000
# 2 14.8404 13.0559 5.6764 0.0000 0.0000 0.0000
# 3 30.6860 5.6764 80.4679 0.0000 0.0000 0.0000
# 4 0.0000 0.0000 0.0000 20.1777 0.0000 0.0000
# 5 0.0000 0.0000 0.0000 0.0000 40.3865 0.0000
# 6 0.0000 0.0000 0.0000 0.0000 0.0000 19.1966
#
#
#
# Elastic Compliance Matrix: (Units=1/GPa)
#
#
# Indices 1 2 3 4 5 6 
#
# 1 0.014886 -0.014910 -0.004625 0.000000 0.000000 0.000000
# 2 -0.014910 0.093951 -0.000942 0.000000 0.000000 0.000000
# 3 -0.004625 -0.000942 0.014257 0.000000 0.000000 0.000000
# 4 0.000000 0.000000 0.000000 0.049560 0.000000 0.000000
# 5 0.000000 0.000000 0.000000 0.000000 0.024761 0.000000
# 6 0.000000 0.000000 0.000000 0.000000 0.000000 0.052093
#
#
# Mechanical properties :
#
#
# Convention : Reuss Voigt Hill
#
# Bulk Modulus (GPa) = 12.17412 31.94485 22.05948
# Shear Modulus (GPa) = 15.73108 24.87849 20.30478
#
# Velocity S-wave (km/s) = 2.75238 3.46132 3.12701
# Velocity P-wave (km/s) = 3.99543 5.59982 4.86423
#
# Compressibility (1/GPa) = 0.08214146
#
# Stress axis : x y z
#
# Youngs Moduli (GPa) = 67.17607 10.64380 70.13876
#
# Poissons Ratio (x) = 0.15870 0.32439
# Poissons Ratio (y) = 1.00161 0.06605
# Poissons Ratio (z) = 0.31069 0.01002
#
# Static dielectric constant tensor:
#      x y z
#    x 1.865800 0.000000 0.000000 
#    y 0.000000 1.879980 0.000000 
#    z 0.000000 0.000000 1.740200 
# 
# From -- ./inp_files/3285.got.cif
#   From: 2010.05.17/outbox.cif.g08.bks.cpg/sg43_2_cif.got.tgz:3285.got - 2010.06.03 19:21:55.
