data_PCOD9370234
_publ_section_title
;
Structure prediction by ZEFSAII (Michael W. Deem and Ramdas Pophale) SiO2 
 PCOD9370234
Probable space group: F D D 2
;
_chemical_formula_sum "Si O2"
_cell_formula_units_Z 88
_cell_length_a 10.908392
_cell_length_b 15.557610
_cell_length_c 23.660147
_cell_angle_alpha 90.000000
_cell_angle_beta 90.000000
_cell_angle_gamma 90.000000
_cell_volume 4015.328257
_symmetry_space_group_name_H-M "F D D 2"
_symmetry_group_IT_number 43
_symmetry_cell_setting 'orthorhombic'
loop_
_space_group_symop_operation_xyz
x,y,z
-x,-y,z
1/4-x,1/4+y,1/4+z
1/4+x,1/4-y,1/4+z
x,1/2+y,1/2+z
-x,1/2-y,1/2+z
1/4-x,3/4+y,3/4+z
1/4+x,3/4-y,3/4+z
1/2+x,y,1/2+z
1/2-x,-y,1/2+z
3/4-x,1/4+y,3/4+z
3/4+x,1/4-y,3/4+z
1/2+x,1/2+y,z
1/2-x,1/2-y,z
3/4-x,3/4+y,1/4+z
3/4+x,3/4-y,1/4+z
loop_
_atom_site_type_symbol
_atom_site_label
_atom_site_fract_x
_atom_site_fract_y
_atom_site_fract_z
Si Si1 0.641711 0.007926 0.000000
Si Si2 0.606085 0.663698 0.096889
Si Si3 0.839480 0.860469 0.977125
Si Si4 0.080319 0.415081 0.670629
Si Si5 0.750000 0.750000 0.186511
Si Si6 0.198602 0.986755 0.627518
O O1 0.648956 0.018768 0.067766
O O2 0.500000 0.000000 0.983451
O O3 0.687867 0.093250 0.968269
O O4 0.722973 0.923675 0.983799
O O5 0.474643 0.624955 0.112525
O O6 0.638233 0.734403 0.143586
O O7 0.703483 0.587863 0.110463
O O8 0.634956 0.693358 0.033877
O O9 0.852291 0.806199 0.920223
O O10 0.959282 0.922177 0.974970
O O11 0.219769 0.443500 0.660606
O O12 0.000000 0.500000 0.683578
#
# Coordination Sequence:
#
# PCOD9370234 Si02
#       6
#    16  16  16  16   8  16
#     4  11  24  44  65  92 134 174 213 268 327 391
#     4   9  19  35  65  95 124 161 215 262 322 383
#     4  10  21  40  66  93 129 171 212 272 323 388
#     4  10  21  41  66 100 128 166 217 270 321 391
#     4  10  18  36  64  96 120 160 220 264 316 384
#     4   9  22  40  62  95 126 169 213 271 325 381
#
# _framework density 21.916017
#
# number of rings (size 3 to 8) (size 9 to 14) (size 15 to 20)
#    0.000    2.182    1.818    0.000    6.364    1.455 
#   11.455    4.545    0.000    0.000    0.000    0.000 
#    0.000    0.000    0.000    0.000    0.000    0.000 
#
# Total GULP energy -122765.701278 kJ/mol
# GULP energy per Si atom -5580.259149 kJ/mol
# Density = 2.186614 g / cm^3
# Si number density = 21.916017 Si / 1000 Ang^3
#
#
#
# Elastic Constant Matrix: (Units=GPa)
#
#
# Indices 1 2 3 4 5 6 
#
# 1 81.0561 40.6295 42.5980 0.0000 0.0000 0.0000
# 2 40.6295 62.0810 44.5179 0.0000 0.0000 0.0000
# 3 42.5980 44.5179 138.0466 0.0000 0.0000 0.0000
# 4 0.0000 0.0000 0.0000 27.7837 0.0000 0.0000
# 5 0.0000 0.0000 0.0000 0.0000 16.5050 0.0000
# 6 0.0000 0.0000 0.0000 0.0000 0.0000 34.9235
#
#
#
# Elastic Compliance Matrix: (Units=1/GPa)
#
#
# Indices 1 2 3 4 5 6 
#
# 1 0.018955 -0.010681 -0.002405 0.000000 0.000000 0.000000
# 2 -0.010681 0.026972 -0.005402 0.000000 0.000000 0.000000
# 3 -0.002405 -0.005402 0.009728 0.000000 0.000000 0.000000
# 4 0.000000 0.000000 0.000000 0.035992 0.000000 0.000000
# 5 0.000000 0.000000 0.000000 0.000000 0.060588 0.000000
# 6 0.000000 0.000000 0.000000 0.000000 0.000000 0.028634
#
#
# Mechanical properties :
#
#
# Convention : Reuss Voigt Hill
#
# Bulk Modulus (GPa) = 53.53435 59.63051 56.58243
# Shear Modulus (GPa) = 22.31442 26.07165 24.19304
#
# Velocity S-wave (km/s) = 3.19435 3.45282 3.32610
# Velocity P-wave (km/s) = 6.17133 6.56991 6.37373
#
# Compressibility (1/GPa) = 0.01867959
#
# Stress axis : x y z
#
# Youngs Moduli (GPa) = 52.75779 37.07548 102.79535
#
# Poissons Ratio (x) = 0.39599 0.24718
# Poissons Ratio (y) = 0.56349 0.55533
# Poissons Ratio (z) = 0.12686 0.20029
#
# Static dielectric constant tensor:
#      x y z
#    x 1.907000 0.000000 0.000000 
#    y 0.000000 1.823270 0.000000 
#    z 0.000000 0.000000 1.773940 
# 
# From -- ./inp_files/17051.got.cif
#   From: 2010.05.17/outbox.cif.g08.bks.cpg/sg43_9_cif.got.tgz:17051.got - 2010.06.03 19:21:55.
