data_PCOD9370955
_publ_section_title
;
Structure prediction by ZEFSAII (Michael W. Deem and Ramdas Pophale) SiO2 
 PCOD9370955
Probable space group: F D D 2
;
_chemical_formula_sum "Si O2"
_cell_formula_units_Z 88
_cell_length_a 10.482526
_cell_length_b 22.785054
_cell_length_c 13.530511
_cell_angle_alpha 90.000000
_cell_angle_beta 90.000000
_cell_angle_gamma 90.000000
_cell_volume 3231.693830
_symmetry_space_group_name_H-M "F D D 2"
_symmetry_group_IT_number 43
_symmetry_cell_setting 'orthorhombic'
loop_
_space_group_symop_operation_xyz
x,y,z
-x,-y,z
1/4-x,1/4+y,1/4+z
1/4+x,1/4-y,1/4+z
x,1/2+y,1/2+z
-x,1/2-y,1/2+z
1/4-x,3/4+y,3/4+z
1/4+x,3/4-y,3/4+z
1/2+x,y,1/2+z
1/2-x,-y,1/2+z
3/4-x,1/4+y,3/4+z
3/4+x,1/4-y,3/4+z
1/2+x,1/2+y,z
1/2-x,1/2-y,z
3/4-x,3/4+y,1/4+z
3/4+x,3/4-y,1/4+z
loop_
_atom_site_type_symbol
_atom_site_label
_atom_site_fract_x
_atom_site_fract_y
_atom_site_fract_z
Si Si1 0.269733 0.363646 0.632370
Si Si2 0.916038 0.416675 0.311991
Si Si3 0.438644 0.780488 0.587536
Si Si4 0.485183 0.094140 0.658767
Si Si5 0.000000 0.500000 0.018284
Si Si6 0.246523 0.043412 0.125875
O O1 0.368222 0.398139 0.703010
O O2 0.293791 0.336431 0.524967
O O3 0.237728 0.308088 0.701885
O O4 0.153949 0.408998 0.611532
O O5 0.826571 0.463121 0.371307
O O6 0.941423 0.358465 0.373173
O O7 0.050576 0.448038 0.301685
O O8 0.482228 0.836405 0.648150
O O9 0.519620 0.774911 0.488917
O O10 0.595650 0.057060 0.603735
O O11 0.862263 0.507537 0.073933
#
# Coordination Sequence:
#
# PCOD9370955 Si02
#       6
#    16  16  16  16   8  16
#     4  11  25  45  70 107 147 186 232 311 361 429
#     4   9  22  39  72  97 130 183 243 282 346 415
#     4  10  20  43  68  98 134 185 237 287 340 447
#     4  11  24  45  65  99 154 177 229 302 372 418
#     4  10  24  46  78 102 138 196 258 284 352 450
#     4  10  21  44  70 101 132 186 243 290 339 438
#
# _framework density 27.230302999999999
#
# number of rings (size 3 to 8) (size 9 to 14) (size 15 to 20)
#    0.000    1.818    1.818    1.091    7.636    1.455 
#    6.545    1.818    0.000    0.000    0.000    0.000 
#    0.000    0.000    0.000    0.000    0.000    0.000 
#
# Total GULP energy -122807.366604 kJ/mol
# GULP energy per Si atom -5582.153027 kJ/mol
# Density = 2.716833 g / cm^3
# Si number density = 27.230303 Si / 1000 Ang^3
#
#
#
# Elastic Constant Matrix: (Units=GPa)
#
#
# Indices 1 2 3 4 5 6 
#
# 1 141.7568 38.0712 35.0000 0.0000 0.0000 0.0000
# 2 38.0712 113.1168 18.2847 0.0000 0.0000 0.0000
# 3 35.0000 18.2847 96.8805 0.0000 0.0000 0.0000
# 4 0.0000 0.0000 0.0000 37.9824 0.0000 0.0000
# 5 0.0000 0.0000 0.0000 0.0000 18.2277 0.0000
# 6 0.0000 0.0000 0.0000 0.0000 0.0000 50.1882
#
#
#
# Elastic Compliance Matrix: (Units=1/GPa)
#
#
# Indices 1 2 3 4 5 6 
#
# 1 0.008327 -0.002389 -0.002558 0.000000 0.000000 0.000000
# 2 -0.002389 0.009804 -0.000987 0.000000 0.000000 0.000000
# 3 -0.002558 -0.000987 0.011432 0.000000 0.000000 0.000000
# 4 0.000000 0.000000 0.000000 0.026328 0.000000 0.000000
# 5 0.000000 0.000000 0.000000 0.000000 0.054861 0.000000
# 6 0.000000 0.000000 0.000000 0.000000 0.000000 0.019925
#
#
# Mechanical properties :
#
#
# Convention : Reuss Voigt Hill
#
# Bulk Modulus (GPa) = 56.51048 59.38508 57.94778
# Shear Modulus (GPa) = 33.68250 38.63955 36.16103
#
# Velocity S-wave (km/s) = 3.52084 3.77104 3.64809
# Velocity P-wave (km/s) = 6.10953 6.38880 6.25072
#
# Compressibility (1/GPa) = 0.01769583
#
# Stress axis : x y z
#
# Youngs Moduli (GPa) = 120.08422 101.99747 87.47170
#
# Poissons Ratio (x) = 0.24371 0.22371
# Poissons Ratio (y) = 0.28692 0.08635
# Poissons Ratio (z) = 0.30712 0.10069
#
# Static dielectric constant tensor:
#      x y z
#    x 2.247320 0.000000 0.000000 
#    y 0.000000 2.220840 0.000000 
#    z 0.000000 0.000000 2.121700 
# 
# From -- ./inp_files/9594.got.cif
#   From: 2010.05.17/outbox.cif.g08.bks.cpg/sg43_5_cif.got.tgz:9594.got - 2010.06.03 19:21:55.
