data_PCOD9370382
_publ_section_title
;
Structure prediction by ZEFSAII (Michael W. Deem and Ramdas Pophale) SiO2 
 PCOD9370382
Probable space group: F D D 2
;
_chemical_formula_sum "Si O2"
_cell_formula_units_Z 112
_cell_length_a 10.287165
_cell_length_b 17.302775
_cell_length_c 26.473798
_cell_angle_alpha 90.000000
_cell_angle_beta 90.000000
_cell_angle_gamma 90.000000
_cell_volume 4712.243422
_symmetry_space_group_name_H-M "F D D 2"
_symmetry_group_IT_number 43
_symmetry_cell_setting 'orthorhombic'
loop_
_space_group_symop_operation_xyz
x,y,z
-x,-y,z
1/4-x,1/4+y,1/4+z
1/4+x,1/4-y,1/4+z
x,1/2+y,1/2+z
-x,1/2-y,1/2+z
1/4-x,3/4+y,3/4+z
1/4+x,3/4-y,3/4+z
1/2+x,y,1/2+z
1/2-x,-y,1/2+z
3/4-x,1/4+y,3/4+z
3/4+x,1/4-y,3/4+z
1/2+x,1/2+y,z
1/2-x,1/2-y,z
3/4-x,3/4+y,1/4+z
3/4+x,3/4-y,1/4+z
loop_
_atom_site_type_symbol
_atom_site_label
_atom_site_fract_x
_atom_site_fract_y
_atom_site_fract_z
Si Si1 0.444779 0.082958 0.097030
Si Si2 0.954027 0.124316 0.076495
Si Si3 0.996301 0.834157 0.698093
Si Si4 0.036248 0.195905 0.982210
Si Si5 0.516247 0.130980 0.985574
Si Si6 0.309179 0.986074 0.546975
Si Si7 0.276425 0.658268 0.931981
O O1 0.463341 0.147662 0.140369
O O2 0.301207 0.059755 0.077751
O O3 0.500000 0.000000 0.115427
O O4 0.508173 0.108815 0.044205
O O5 0.971483 0.193124 0.037835
O O6 0.065036 0.065498 0.057641
O O7 0.988891 0.141657 0.133407
O O8 0.826618 0.071925 0.069313
O O9 0.075225 0.905166 0.725706
O O10 0.042626 0.765731 0.736061
O O11 0.840470 0.830212 0.705492
O O12 0.039837 0.285171 0.970389
O O13 0.926039 0.153710 0.948360
O O14 0.666290 0.136016 0.971543
O O15 0.250000 0.750000 0.919665
#
# Coordination Sequence:
#
# PCOD9370382 Si02
#       7
#    16  16  16  16  16  16  16
#     4  11  23  37  62  84 118 164 201 238 303 362
#     4  10  19  36  63  85 117 153 192 249 300 347
#     4  10  21  38  62  84 115 156 196 243 298 351
#     4  10  21  37  59  86 116 153 196 244 299 354
#     4  10  23  39  53  89 120 148 200 247 282 360
#     4   9  20  37  58  91 115 143 205 251 281 359
#     4  10  20  35  59  82 114 154 198 237 290 354
#
# _framework density 23.767873999999999
#
# number of rings (size 3 to 8) (size 9 to 14) (size 15 to 20)
#    0.000    2.000    1.429    2.143    6.000    0.000 
#    2.571    0.000   12.571    0.857    0.000    0.000 
#    0.000    0.000    0.000    0.000    0.000    0.000 
#
# Total GULP energy -156148.888897 kJ/mol
# GULP energy per Si atom -5576.746032 kJ/mol
# Density = 2.371378 g / cm^3
# Si number density = 23.767874 Si / 1000 Ang^3
#
#
#
# Elastic Constant Matrix: (Units=GPa)
#
#
# Indices 1 2 3 4 5 6 
#
# 1 81.4887 19.7499 27.4859 0.0000 0.0000 0.0000
# 2 19.7499 26.2908 -7.6392 0.0000 0.0000 0.0000
# 3 27.4859 -7.6392 143.8112 0.0000 0.0000 0.0000
# 4 0.0000 0.0000 0.0000 24.3623 0.0000 0.0000
# 5 0.0000 0.0000 0.0000 0.0000 62.7679 0.0000
# 6 0.0000 0.0000 0.0000 0.0000 0.0000 22.7399
#
#
#
# Elastic Compliance Matrix: (Units=1/GPa)
#
#
# Indices 1 2 3 4 5 6 
#
# 1 0.016991 -0.013922 -0.003987 0.000000 0.000000 0.000000
# 2 -0.013922 0.050040 0.005319 0.000000 0.000000 0.000000
# 3 -0.003987 0.005319 0.007998 0.000000 0.000000 0.000000
# 4 0.000000 0.000000 0.000000 0.041047 0.000000 0.000000
# 5 0.000000 0.000000 0.000000 0.000000 0.015932 0.000000
# 6 0.000000 0.000000 0.000000 0.000000 0.000000 0.043976
#
#
# Mechanical properties :
#
#
# Convention : Reuss Voigt Hill
#
# Bulk Modulus (GPa) = 20.06060 36.75375 28.40717
# Shear Modulus (GPa) = 22.95907 36.10697 29.53302
#
# Velocity S-wave (km/s) = 3.11138 3.90186 3.52882
# Velocity P-wave (km/s) = 4.62235 5.98302 5.34615
#
# Compressibility (1/GPa) = 0.04984897
#
# Stress axis : x y z
#
# Youngs Moduli (GPa) = 58.85620 19.98403 125.02985
#
# Poissons Ratio (x) = 0.27822 0.49848
# Poissons Ratio (y) = 0.81939 -0.66503
# Poissons Ratio (z) = 0.23465 -0.10629
#
# Static dielectric constant tensor:
#      x y z
#    x 1.922970 0.000000 0.000000 
#    y 0.000000 1.878620 0.000000 
#    z 0.000000 0.000000 1.975130 
# 
# From -- ./inp_files/21182.got.cif
#   From: 2010.05.17/outbox.cif.g08.bks.cpg/sg43_11_cif.got.tgz:21182.got - 2010.06.03 19:21:55.
