data_PCOD9370238
_publ_section_title
;
Structure prediction by ZEFSAII (Michael W. Deem and Ramdas Pophale) SiO2 
 PCOD9370238
Probable space group: F D D 2
;
_chemical_formula_sum "Si O2"
_cell_formula_units_Z 104
_cell_length_a 15.839238
_cell_length_b 18.541328
_cell_length_c 13.172292
_cell_angle_alpha 90.000000
_cell_angle_beta 90.000000
_cell_angle_gamma 90.000000
_cell_volume 3868.445393
_symmetry_space_group_name_H-M "F D D 2"
_symmetry_group_IT_number 43
_symmetry_cell_setting 'orthorhombic'
loop_
_space_group_symop_operation_xyz
x,y,z
-x,-y,z
1/4-x,1/4+y,1/4+z
1/4+x,1/4-y,1/4+z
x,1/2+y,1/2+z
-x,1/2-y,1/2+z
1/4-x,3/4+y,3/4+z
1/4+x,3/4-y,3/4+z
1/2+x,y,1/2+z
1/2-x,-y,1/2+z
3/4-x,1/4+y,3/4+z
3/4+x,1/4-y,3/4+z
1/2+x,1/2+y,z
1/2-x,1/2-y,z
3/4-x,3/4+y,1/4+z
3/4+x,3/4-y,1/4+z
loop_
_atom_site_type_symbol
_atom_site_label
_atom_site_fract_x
_atom_site_fract_y
_atom_site_fract_z
Si Si1 0.806379 0.540685 0.273100
Si Si2 0.328208 0.696085 0.850721
Si Si3 0.717512 0.397330 0.268248
Si Si4 0.703010 0.825977 0.572315
Si Si5 0.012575 0.724539 0.760262
Si Si6 0.500000 0.500000 0.771219
Si Si7 0.660245 0.391215 0.501616
O O1 0.804897 0.627892 0.279505
O O2 0.740562 0.479488 0.233380
O O3 0.786239 0.526203 0.391914
O O4 0.902466 0.521217 0.238542
O O5 0.250000 0.750000 0.859739
O O6 0.402117 0.742173 0.804129
O O7 0.350103 0.675067 0.968078
O O8 0.668406 0.352492 0.180719
O O9 0.678735 0.390088 0.380171
O O10 0.812218 0.365795 0.274436
O O11 0.750000 0.750000 0.584691
O O12 0.759957 0.894857 0.546094
O O13 0.940638 0.780988 0.785328
O O14 0.530607 0.580603 0.804574
#
# Coordination Sequence:
#
# PCOD9370238 Si02
#       7
#    16  16  16  16  16   8  16
#     4   9  20  39  62  99 134 176 232 281 356 413
#     4  10  21  42  68 100 142 177 231 287 354 432
#     4  10  23  43  65 100 139 187 228 295 348 432
#     4  10  24  46  64  96 136 181 235 279 352 426
#     4  10  21  43  66  99 136 179 230 291 356 412
#     4  10  18  36  66  98 136 168 234 286 348 422
#     4  10  22  40  70  99 136 183 235 292 353 423
#
# _framework density 26.884186
#
# number of rings (size 3 to 8) (size 9 to 14) (size 15 to 20)
#    0.000    2.154    1.538    0.000    2.154    4.923 
#   19.385    0.000    0.000    0.000    0.000    0.000 
#    0.000    0.000    0.000    0.000    0.000    0.000 
#
# Total GULP energy -145045.536831 kJ/mol
# GULP energy per Si atom -5578.674494 kJ/mol
# Density = 2.682300 g / cm^3
# Si number density = 26.884186 Si / 1000 Ang^3
#
#
#
# Elastic Constant Matrix: (Units=GPa)
#
#
# Indices 1 2 3 4 5 6 
#
# 1 82.3852 38.7707 1.9294 0.0000 0.0000 0.0000
# 2 38.7707 204.3435 48.5916 0.0000 0.0000 0.0000
# 3 1.9294 48.5916 85.2966 0.0000 0.0000 0.0000
# 4 0.0000 0.0000 0.0000 26.9539 0.0000 0.0000
# 5 0.0000 0.0000 0.0000 0.0000 28.9554 0.0000
# 6 0.0000 0.0000 0.0000 0.0000 0.0000 15.2094
#
#
#
# Elastic Compliance Matrix: (Units=1/GPa)
#
#
# Indices 1 2 3 4 5 6 
#
# 1 0.013457 -0.002870 0.001330 0.000000 0.000000 0.000000
# 2 -0.002870 0.006272 -0.003508 0.000000 0.000000 0.000000
# 3 0.001330 -0.003508 0.013692 0.000000 0.000000 0.000000
# 4 0.000000 0.000000 0.000000 0.037100 0.000000 0.000000
# 5 0.000000 0.000000 0.000000 0.000000 0.034536 0.000000
# 6 0.000000 0.000000 0.000000 0.000000 0.000000 0.065749
#
#
# Mechanical properties :
#
#
# Convention : Reuss Voigt Hill
#
# Bulk Modulus (GPa) = 42.86893 61.17875 52.02384
# Shear Modulus (GPa) = 26.50016 33.07265 29.78641
#
# Velocity S-wave (km/s) = 3.14302 3.51121 3.33220
# Velocity P-wave (km/s) = 5.39924 6.26450 5.84789
#
# Compressibility (1/GPa) = 0.02332692
#
# Stress axis : x y z
#
# Youngs Moduli (GPa) = 74.30841 159.42692 73.03347
#
# Poissons Ratio (x) = 0.45750 -0.09716
# Poissons Ratio (y) = 0.21324 0.25623
# Poissons Ratio (z) = -0.09886 0.55933
#
# Static dielectric constant tensor:
#      x y z
#    x 1.980320 0.000000 0.000000 
#    y 0.000000 2.147620 0.000000 
#    z 0.000000 0.000000 2.241350 
# 
# From -- ./inp_files/10972.got.cif
#   From: 2010.05.17/outbox.cif.g08.bks.cpg/sg43_6_cif.got.tgz:10972.got - 2010.06.03 19:21:55.
