data_PCOD9370896
_publ_section_title
;
Structure prediction by ZEFSAII (Michael W. Deem and Ramdas Pophale) SiO2 
 PCOD9370896
Probable space group: F D D 2
;
_chemical_formula_sum "Si O2"
_cell_formula_units_Z 56
_cell_length_a 12.501138
_cell_length_b 7.204229
_cell_length_c 26.853798
_cell_angle_alpha 90.000000
_cell_angle_beta 90.000000
_cell_angle_gamma 90.000000
_cell_volume 2418.481537
_symmetry_space_group_name_H-M "F D D 2"
_symmetry_group_IT_number 43
_symmetry_cell_setting 'orthorhombic'
loop_
_space_group_symop_operation_xyz
x,y,z
-x,-y,z
1/4-x,1/4+y,1/4+z
1/4+x,1/4-y,1/4+z
x,1/2+y,1/2+z
-x,1/2-y,1/2+z
1/4-x,3/4+y,3/4+z
1/4+x,3/4-y,3/4+z
1/2+x,y,1/2+z
1/2-x,-y,1/2+z
3/4-x,1/4+y,3/4+z
3/4+x,1/4-y,3/4+z
1/2+x,1/2+y,z
1/2-x,1/2-y,z
3/4-x,3/4+y,1/4+z
3/4+x,3/4-y,1/4+z
loop_
_atom_site_type_symbol
_atom_site_label
_atom_site_fract_x
_atom_site_fract_y
_atom_site_fract_z
Si Si1 0.500000 0.500000 0.865530
Si Si2 0.876381 0.563032 0.823430
Si Si3 0.912905 0.157728 0.427963
Si Si4 0.092022 0.263280 0.036590
O O1 0.462468 0.334036 0.900266
O O2 0.411719 0.587596 0.828272
O O3 0.845948 0.565299 0.882600
O O4 0.782799 0.463056 0.792530
O O5 0.863459 0.773729 0.804051
O O6 0.000000 0.500000 0.818348
O O7 0.870494 0.237101 0.479813
O O8 0.000000 0.000000 0.441688
#
# Coordination Sequence:
#
# PCOD9370896 Si02
#       4
#     8  16  16  16
#     4  10  24  40  62 100 128 164 226 262 324 408
#     4   9  19  38  65  91 124 168 216 262 326 389
#     4  10  20  43  64  91 127 170 216 263 334 388
#     4  10  20  42  62  90 138 165 204 290 320 373
#
# _framework density 23.155024000000001
#
# number of rings (size 3 to 8) (size 9 to 14) (size 15 to 20)
#    0.000    2.286    2.857    0.000    0.000    4.571 
#   20.571    0.000    0.000    0.000    0.000    0.000 
#    0.000    0.000    0.000    0.000    0.000    0.000 
#
# Total GULP energy -78035.338131 kJ/mol
# GULP energy per Si atom -5573.952724 kJ/mol
# Density = 2.310232 g / cm^3
# Si number density = 23.155024 Si / 1000 Ang^3
#
#
#
# Elastic Constant Matrix: (Units=GPa)
#
#
# Indices 1 2 3 4 5 6 
#
# 1 140.5743 19.2254 51.6729 0.0000 0.0000 0.0000
# 2 19.2254 56.5799 13.3862 0.0000 0.0000 0.0000
# 3 51.6729 13.3862 201.5461 0.0000 0.0000 0.0000
# 4 0.0000 0.0000 0.0000 30.9443 0.0000 0.0000
# 5 0.0000 0.0000 0.0000 0.0000 56.9216 0.0000
# 6 0.0000 0.0000 0.0000 0.0000 0.0000 33.4279
#
#
#
# Elastic Compliance Matrix: (Units=1/GPa)
#
#
# Indices 1 2 3 4 5 6 
#
# 1 0.008140 -0.002308 -0.001934 0.000000 0.000000 0.000000
# 2 -0.002308 0.018611 -0.000644 0.000000 0.000000 0.000000
# 3 -0.001934 -0.000644 0.005500 0.000000 0.000000 0.000000
# 4 0.000000 0.000000 0.000000 0.032316 0.000000 0.000000
# 5 0.000000 0.000000 0.000000 0.000000 0.017568 0.000000
# 6 0.000000 0.000000 0.000000 0.000000 0.000000 0.029915
#
#
# Mechanical properties :
#
#
# Convention : Reuss Voigt Hill
#
# Bulk Modulus (GPa) = 44.48691 63.02992 53.75842
# Shear Modulus (GPa) = 38.66491 45.21982 41.94237
#
# Velocity S-wave (km/s) = 4.09079 4.42398 4.26064
# Velocity P-wave (km/s) = 6.44725 7.30584 6.88993
#
# Compressibility (1/GPa) = 0.02247852
#
# Stress axis : x y z
#
# Youngs Moduli (GPa) = 122.84736 53.73181 181.81184
#
# Poissons Ratio (x) = 0.12404 0.35156
# Poissons Ratio (y) = 0.28359 0.11713
# Poissons Ratio (z) = 0.23755 0.03462
#
# Static dielectric constant tensor:
#      x y z
#    x 1.985120 0.000000 0.000000 
#    y 0.000000 1.960330 0.000000 
#    z 0.000000 0.000000 1.869590 
# 
# From -- ./inp_files/15957.got.cif
#   From: 2010.05.17/outbox.cif.g08.bks.cpg/sg43_8_cif.got.tgz:15957.got - 2010.06.03 19:21:55.
