data_PCOD9370314
_publ_section_title
;
Structure prediction by ZEFSAII (Michael W. Deem and Ramdas Pophale) SiO2 
 PCOD9370314
Probable space group: F D D 2
;
_chemical_formula_sum "Si O2"
_cell_formula_units_Z 104
_cell_length_a 28.495090
_cell_length_b 20.247949
_cell_length_c 7.676802
_cell_angle_alpha 90.000000
_cell_angle_beta 90.000000
_cell_angle_gamma 90.000000
_cell_volume 4429.262410
_symmetry_space_group_name_H-M "F D D 2"
_symmetry_group_IT_number 43
_symmetry_cell_setting 'orthorhombic'
loop_
_space_group_symop_operation_xyz
x,y,z
-x,-y,z
1/4-x,1/4+y,1/4+z
1/4+x,1/4-y,1/4+z
x,1/2+y,1/2+z
-x,1/2-y,1/2+z
1/4-x,3/4+y,3/4+z
1/4+x,3/4-y,3/4+z
1/2+x,y,1/2+z
1/2-x,-y,1/2+z
3/4-x,1/4+y,3/4+z
3/4+x,1/4-y,3/4+z
1/2+x,1/2+y,z
1/2-x,1/2-y,z
3/4-x,3/4+y,1/4+z
3/4+x,3/4-y,1/4+z
loop_
_atom_site_type_symbol
_atom_site_label
_atom_site_fract_x
_atom_site_fract_y
_atom_site_fract_z
Si Si1 0.653955 0.306040 0.031000
Si Si2 0.250000 0.750000 0.994256
Si Si3 0.725634 0.142196 0.281514
Si Si4 0.884701 0.052669 0.581700
Si Si5 0.428034 0.357163 0.579382
Si Si6 0.197747 0.529162 0.684658
Si Si7 0.455620 0.258597 0.036627
O O1 0.699246 0.278133 0.923912
O O2 0.646971 0.256671 0.197828
O O3 0.665918 0.372837 0.132962
O O4 0.603251 0.313525 0.942029
O O5 0.266956 0.811100 0.115051
O O6 0.684016 0.170491 0.398987
O O7 0.775091 0.144626 0.380093
O O8 0.715496 0.067040 0.222574
O O9 0.864644 0.111915 0.460043
O O10 0.843438 0.034121 0.711571
O O11 0.441270 0.280187 0.573545
O O12 0.249805 0.554522 0.734280
O O13 0.203165 0.501078 0.492069
#
# Coordination Sequence:
#
# PCOD9370314 Si02
#       7
#    16   8  16  16  16  16  16
#     4   9  17  33  55  78 103 138 180 225 275 328
#     4   8  16  32  56  80 100 132 182 220 266 330
#     4   9  18  32  54  77 104 137 174 224 268 318
#     4  10  19  32  54  80 106 141 181 223 273 334
#     4   9  18  34  54  78 105 139 182 225 273 333
#     4  10  21  34  53  77 107 142 182 229 276 334
#     4  11  21  35  52  79 111 143 184 228 278 331
#
# _framework density 23.480207
#
# number of rings (size 3 to 8) (size 9 to 14) (size 15 to 20)
#    0.000    2.462    0.000    3.692    0.000    2.462 
#    0.000    0.000    0.000    7.385    0.000    0.000 
#    0.000    0.000    0.000    0.000    0.000    0.000 
#
# Total GULP energy -144796.856207 kJ/mol
# GULP energy per Si atom -5569.109854 kJ/mol
# Density = 2.342677 g / cm^3
# Si number density = 23.480207 Si / 1000 Ang^3
#
#
#
# Elastic Constant Matrix: (Units=GPa)
#
#
# Indices 1 2 3 4 5 6 
#
# 1 158.6369 24.4995 17.8983 -0.0002 0.0002 0.0002
# 2 24.4995 42.8279 -7.9277 0.0029 -0.0006 -0.0002
# 3 17.8983 -7.9277 41.8081 0.0053 -0.0012 -0.0004
# 4 -0.0002 0.0029 0.0053 9.9786 -0.0010 -0.0003
# 5 0.0002 -0.0006 -0.0012 -0.0010 23.2003 -0.0001
# 6 0.0002 -0.0002 -0.0004 -0.0003 -0.0001 31.7782
#
#
#
# Elastic Compliance Matrix: (Units=1/GPa)
#
#
# Indices 1 2 3 4 5 6 
#
# 1 0.007567 -0.005108 -0.004208 0.000004 0.000000 0.000000
# 2 -0.005108 0.027646 0.007429 -0.000012 0.000001 0.000000
# 3 -0.004208 0.007429 0.027129 -0.000017 0.000002 0.000000
# 4 0.000004 -0.000012 -0.000017 0.100215 0.000004 0.000001
# 5 0.000000 0.000001 0.000002 0.000004 0.043103 0.000000
# 6 0.000000 0.000000 0.000000 0.000001 0.000000 0.031468
#
#
# Mechanical properties :
#
#
# Convention : Reuss Voigt Hill
#
# Bulk Modulus (GPa) = 17.07393 34.69035 25.88214
# Shear Modulus (GPa) = 19.19938 26.91161 23.05549
#
# Velocity S-wave (km/s) = 2.86262 3.38914 3.13695
# Velocity P-wave (km/s) = 4.26773 5.48830 4.91604
#
# Compressibility (1/GPa) = 0.05856882
#
# Stress axis : x y z
#
# Youngs Moduli (GPa) = 132.14694 36.17113 36.86082
#
# Poissons Ratio (x) = 0.18476 0.15512
# Poissons Ratio (y) = 0.67498 -0.27384
# Poissons Ratio (z) = 0.55610 -0.26872
#
# Static dielectric constant tensor:
#      x y z
#    x 1.996530 0.000000 0.000000 
#    y 0.000000 2.005130 0.000000 
#    z 0.000000 0.000000 1.844890 
# 
# From -- ./inp_files/3827.got.cif
#   From: 2010.05.17/outbox.cif.g08.bks.cpg/sg43_2_cif.got.tgz:3827.got - 2010.06.03 19:21:55.
