data_PCOD9370596
_publ_section_title
;
Structure prediction by ZEFSAII (Michael W. Deem and Ramdas Pophale) SiO2 
 PCOD9370596
Probable space group: F D D 2
;
_chemical_formula_sum "Si O2"
_cell_formula_units_Z 80
_cell_length_a 26.256443
_cell_length_b 16.983946
_cell_length_c 7.689176
_cell_angle_alpha 90.000000
_cell_angle_beta 90.000000
_cell_angle_gamma 90.000000
_cell_volume 3428.895844
_symmetry_space_group_name_H-M "F D D 2"
_symmetry_group_IT_number 43
_symmetry_cell_setting 'orthorhombic'
loop_
_space_group_symop_operation_xyz
x,y,z
-x,-y,z
1/4-x,1/4+y,1/4+z
1/4+x,1/4-y,1/4+z
x,1/2+y,1/2+z
-x,1/2-y,1/2+z
1/4-x,3/4+y,3/4+z
1/4+x,3/4-y,3/4+z
1/2+x,y,1/2+z
1/2-x,-y,1/2+z
3/4-x,1/4+y,3/4+z
3/4+x,1/4-y,3/4+z
1/2+x,1/2+y,z
1/2-x,1/2-y,z
3/4-x,3/4+y,1/4+z
3/4+x,3/4-y,1/4+z
loop_
_atom_site_type_symbol
_atom_site_label
_atom_site_fract_x
_atom_site_fract_y
_atom_site_fract_z
Si Si1 0.439757 0.276009 0.826910
Si Si2 0.258518 0.619951 0.873824
Si Si3 0.831246 0.263179 0.802090
Si Si4 0.107896 0.074631 0.715216
Si Si5 0.938694 0.319613 0.953390
O O1 0.413699 0.201538 0.912102
O O2 0.393125 0.340924 0.810881
O O3 0.454071 0.270498 0.624893
O O4 0.477679 0.321819 0.951050
O O5 0.205389 0.663803 0.843924
O O6 0.302749 0.687969 0.884238
O O7 0.268871 0.575582 0.055592
O O8 0.835239 0.239109 0.598669
O O9 0.887538 0.281917 0.872543
O O10 0.075546 0.095872 0.542149
#
# Coordination Sequence:
#
# PCOD9370596 Si02
#       5
#    16  16  16  16  16
#     4   9  19  36  58  85 119 153 204 248 305 373
#     4  10  20  38  60  92 118 160 208 252 298 372
#     4  10  20  38  62  89 124 156 207 257 300 371
#     4   9  19  36  62  85 119 159 203 251 318 365
#     4  10  20  36  64  82 122 159 200 253 320 353
#
# _framework density 23.331123999999999
#
# number of rings (size 3 to 8) (size 9 to 14) (size 15 to 20)
#    1.200    1.200    2.000    1.200    0.000    0.000 
#   10.800    0.000   13.200    0.000    0.000    0.000 
#    0.000    0.000    0.000    0.000    0.000    0.000 
#
# Total GULP energy -111626.069293 kJ/mol
# GULP energy per Si atom -5581.303465 kJ/mol
# Density = 2.327802 g / cm^3
# Si number density = 23.331124 Si / 1000 Ang^3
#
#
#
# Elastic Constant Matrix: (Units=GPa)
#
#
# Indices 1 2 3 4 5 6 
#
# 1 105.6940 25.2780 52.1763 0.0000 0.0000 0.0000
# 2 25.2780 57.3106 38.2643 0.0000 0.0000 0.0000
# 3 52.1763 38.2643 135.6273 0.0000 0.0000 0.0000
# 4 0.0000 0.0000 0.0000 48.6073 0.0000 0.0000
# 5 0.0000 0.0000 0.0000 0.0000 39.0270 0.0000
# 6 0.0000 0.0000 0.0000 0.0000 0.0000 36.7271
#
#
#
# Elastic Compliance Matrix: (Units=1/GPa)
#
#
# Indices 1 2 3 4 5 6 
#
# 1 0.012016 -0.002727 -0.003853 0.000000 0.000000 0.000000
# 2 -0.002727 0.022117 -0.005191 0.000000 0.000000 0.000000
# 3 -0.003853 -0.005191 0.010320 0.000000 0.000000 0.000000
# 4 0.000000 0.000000 0.000000 0.020573 0.000000 0.000000
# 5 0.000000 0.000000 0.000000 0.000000 0.025623 0.000000
# 6 0.000000 0.000000 0.000000 0.000000 0.000000 0.027228
#
#
# Mechanical properties :
#
#
# Convention : Reuss Voigt Hill
#
# Bulk Modulus (GPa) = 47.82204 58.89658 53.35931
# Shear Modulus (GPa) = 33.69515 37.06649 35.38082
#
# Velocity S-wave (km/s) = 3.80441 3.99019 3.89841
# Velocity P-wave (km/s) = 6.31186 6.82110 6.57142
#
# Compressibility (1/GPa) = 0.02091086
#
# Stress axis : x y z
#
# Youngs Moduli (GPa) = 83.22529 45.21333 96.90034
#
# Poissons Ratio (x) = 0.12331 0.37336
# Poissons Ratio (y) = 0.22697 0.50299
# Poissons Ratio (z) = 0.32067 0.23469
#
# Static dielectric constant tensor:
#      x y z
#    x 1.878930 0.000000 0.000000 
#    y 0.000000 2.039950 0.000000 
#    z 0.000000 0.000000 1.877330 
# 
# From -- ./inp_files/3927.got.cif
#   From: 2010.05.17/outbox.cif.g08.bks.cpg/sg43_2_cif.got.tgz:3927.got - 2010.06.03 19:21:55.
