data_PCOD9370696
_publ_section_title
;
Structure prediction by ZEFSAII (Michael W. Deem and Ramdas Pophale) SiO2 
 PCOD9370696
Probable space group: F D D 2
;
_chemical_formula_sum "Si O2"
_cell_formula_units_Z 120
_cell_length_a 17.960975
_cell_length_b 20.508030
_cell_length_c 14.382111
_cell_angle_alpha 90.000000
_cell_angle_beta 90.000000
_cell_angle_gamma 90.000000
_cell_volume 5297.567374
_symmetry_space_group_name_H-M "F D D 2"
_symmetry_group_IT_number 43
_symmetry_cell_setting 'orthorhombic'
loop_
_space_group_symop_operation_xyz
x,y,z
-x,-y,z
1/4-x,1/4+y,1/4+z
1/4+x,1/4-y,1/4+z
x,1/2+y,1/2+z
-x,1/2-y,1/2+z
1/4-x,3/4+y,3/4+z
1/4+x,3/4-y,3/4+z
1/2+x,y,1/2+z
1/2-x,-y,1/2+z
3/4-x,1/4+y,3/4+z
3/4+x,1/4-y,3/4+z
1/2+x,1/2+y,z
1/2-x,1/2-y,z
3/4-x,3/4+y,1/4+z
3/4+x,3/4-y,1/4+z
loop_
_atom_site_type_symbol
_atom_site_label
_atom_site_fract_x
_atom_site_fract_y
_atom_site_fract_z
Si Si1 0.097896 0.717337 0.161750
Si Si2 0.000000 0.000000 0.427311
Si Si3 0.427177 0.453347 0.160081
Si Si4 0.828523 0.716107 0.192302
Si Si5 0.014022 0.235877 0.428181
Si Si6 0.141812 0.918337 0.620958
Si Si7 0.217548 0.442509 0.464059
Si Si8 0.741057 0.366635 0.314466
O O1 0.177370 0.734450 0.119852
O O2 0.108191 0.701915 0.270515
O O3 0.075195 0.647792 0.121091
O O4 0.037489 0.775336 0.158820
O O5 0.975433 0.941171 0.494034
O O6 0.500000 0.500000 0.167089
O O7 0.347338 0.483713 0.194129
O O8 0.449816 0.383428 0.201974
O O9 0.414613 0.441550 0.049069
O O10 0.750000 0.750000 0.183022
O O11 0.830472 0.655462 0.123403
O O12 0.896256 0.766036 0.180693
O O13 0.019117 0.207312 0.323331
O O14 0.990587 0.178484 0.498289
O O15 0.948881 0.289780 0.431379
O O16 0.053720 0.907765 0.636893
#
# Coordination Sequence:
#
# PCOD9370696 Si02
#       8
#    16   8  16  16  16  16  16  16
#     4  10  23  43  66  95 132 172 226 271 331 405
#     4  10  26  44  66  92 134 166 222 282 318 406
#     4  10  23  41  68 101 132 175 221 274 341 402
#     4  10  20  38  65 100 133 165 221 271 327 394
#     4  10  24  43  65  97 141 168 229 280 324 405
#     4  10  22  42  65  96 132 175 215 275 330 394
#     4  10  21  42  67  96 135 175 215 285 326 401
#     4  11  24  46  66  97 130 179 222 276 336 400
#
# _framework density 22.651907000000001
#
# number of rings (size 3 to 8) (size 9 to 14) (size 15 to 20)
#    0.000    1.867    1.333    0.800    3.733    7.467 
#    6.000    0.000    0.000    0.000    0.000    0.000 
#    0.000    0.000    0.000    0.000    0.000    0.000 
#
# Total GULP energy -167500.713898 kJ/mol
# GULP energy per Si atom -5583.357130 kJ/mol
# Density = 2.260035 g / cm^3
# Si number density = 22.651907 Si / 1000 Ang^3
#
#
#
# Elastic Constant Matrix: (Units=GPa)
#
#
# Indices 1 2 3 4 5 6 
#
# 1 162.7347 59.3656 36.9467 0.0000 0.0000 0.0000
# 2 59.3656 144.0697 17.9313 0.0000 0.0000 0.0000
# 3 36.9467 17.9313 27.6404 0.0000 0.0000 0.0000
# 4 0.0000 0.0000 0.0000 7.6843 0.0000 0.0000
# 5 0.0000 0.0000 0.0000 0.0000 17.1413 0.0000
# 6 0.0000 0.0000 0.0000 0.0000 0.0000 37.6160
#
#
#
# Elastic Compliance Matrix: (Units=1/GPa)
#
#
# Indices 1 2 3 4 5 6 
#
# 1 0.009626 -0.002573 -0.011198 0.000000 0.000000 0.000000
# 2 -0.002573 0.008238 -0.001906 0.000000 0.000000 0.000000
# 3 -0.011198 -0.001906 0.052383 0.000000 0.000000 0.000000
# 4 0.000000 0.000000 0.000000 0.130136 0.000000 0.000000
# 5 0.000000 0.000000 0.000000 0.000000 0.058339 0.000000
# 6 0.000000 0.000000 0.000000 0.000000 0.000000 0.026584
#
#
# Mechanical properties :
#
#
# Convention : Reuss Voigt Hill
#
# Bulk Modulus (GPa) = 25.71016 62.54799 44.12907
# Shear Modulus (GPa) = 15.16883 27.16839 21.16861
#
# Velocity S-wave (km/s) = 2.59057 3.46697 3.06030
# Velocity P-wave (km/s) = 4.50808 6.61053 5.65782
#
# Compressibility (1/GPa) = 0.03889513
#
# Stress axis : x y z
#
# Youngs Moduli (GPa) = 103.88773 121.38309 19.09018
#
# Poissons Ratio (x) = 0.31228 0.21377
# Poissons Ratio (y) = 0.26727 0.03638
# Poissons Ratio (z) = 1.16330 0.23131
#
# Static dielectric constant tensor:
#      x y z
#    x 1.933730 0.000000 0.000000 
#    y 0.000000 1.789810 0.000000 
#    z 0.000000 0.000000 1.902300 
# 
# From -- ./inp_files/14281.got.cif
#   From: 2010.05.17/outbox.cif.g08.bks.cpg/sg43_8_cif.got.tgz:14281.got - 2010.06.03 19:21:55.
