data_PCOD9370734
_publ_section_title
;
Structure prediction by ZEFSAII (Michael W. Deem and Ramdas Pophale) SiO2 
 PCOD9370734
Probable space group: F D D 2
;
_chemical_formula_sum "Si O2"
_cell_formula_units_Z 80
_cell_length_a 20.799878
_cell_length_b 18.013599
_cell_length_c 7.599116
_cell_angle_alpha 90.000000
_cell_angle_beta 90.000000
_cell_angle_gamma 90.000000
_cell_volume 2847.241810
_symmetry_space_group_name_H-M "F D D 2"
_symmetry_group_IT_number 43
_symmetry_cell_setting 'orthorhombic'
loop_
_space_group_symop_operation_xyz
x,y,z
-x,-y,z
1/4-x,1/4+y,1/4+z
1/4+x,1/4-y,1/4+z
x,1/2+y,1/2+z
-x,1/2-y,1/2+z
1/4-x,3/4+y,3/4+z
1/4+x,3/4-y,3/4+z
1/2+x,y,1/2+z
1/2-x,-y,1/2+z
3/4-x,1/4+y,3/4+z
3/4+x,1/4-y,3/4+z
1/2+x,1/2+y,z
1/2-x,1/2-y,z
3/4-x,3/4+y,1/4+z
3/4+x,3/4-y,1/4+z
loop_
_atom_site_type_symbol
_atom_site_label
_atom_site_fract_x
_atom_site_fract_y
_atom_site_fract_z
Si Si1 0.389408 0.848436 0.579430
Si Si2 0.088742 0.507235 0.022445
Si Si3 0.105644 0.480383 0.653813
Si Si4 0.226046 0.902533 0.347679
Si Si5 0.477651 0.702534 0.260603
O O1 0.364375 0.806398 0.404002
O O2 0.341644 0.817825 0.731555
O O3 0.387114 0.936893 0.576724
O O4 0.463153 0.828581 0.643637
O O5 0.063500 0.481923 0.830988
O O6 0.043438 0.567598 0.118229
O O7 0.152907 0.551763 0.957385
O O8 0.169490 0.442101 0.734224
O O9 0.239831 0.957737 0.507108
O O10 0.279360 0.916035 0.201991
#
# Coordination Sequence:
#
# PCOD9370734 Si02
#       5
#    16  16  16  16  16
#     4  11  23  39  67  93 129 181 219 274 346 408
#     4  11  22  39  67  97 131 172 228 285 329 407
#     4  10  22  39  60  95 132 167 225 274 337 406
#     4  10  21  40  66  96 127 178 224 275 339 411
#     4  10  20  39  63  91 130 176 223 262 344 420
#
# _framework density 28.097366000000001
#
# number of rings (size 3 to 8) (size 9 to 14) (size 15 to 20)
#    0.000    1.600    6.000    0.000    5.600    0.000 
#    0.000    1.000    0.000   21.600    0.000    0.000 
#    0.000    0.000    0.000    0.000    0.000    0.000 
#
# Total GULP energy -111604.487308 kJ/mol
# GULP energy per Si atom -5580.224365 kJ/mol
# Density = 2.803342 g / cm^3
# Si number density = 28.097366 Si / 1000 Ang^3
#
#
#
# Elastic Constant Matrix: (Units=GPa)
#
#
# Indices 1 2 3 4 5 6 
#
# 1 60.9126 5.1744 39.7728 -0.0001 -0.0001 0.0000
# 2 5.1744 222.0669 64.3899 -0.0001 0.0000 0.0000
# 3 39.7728 64.3899 143.4676 -0.0001 0.0003 0.0001
# 4 -0.0001 -0.0001 -0.0001 49.1812 0.0000 0.0000
# 5 -0.0001 0.0000 0.0003 0.0000 16.7159 -0.0001
# 6 0.0000 0.0000 0.0001 0.0000 -0.0001 36.9059
#
#
#
# Elastic Compliance Matrix: (Units=1/GPa)
#
#
# Indices 1 2 3 4 5 6 
#
# 1 0.020385 0.001338 -0.006252 0.000000 0.000000 0.000000
# 2 0.001338 0.005265 -0.002734 0.000000 0.000000 0.000000
# 3 -0.006252 -0.002734 0.009930 0.000000 0.000000 0.000000
# 4 0.000000 0.000000 0.000000 0.020333 0.000000 0.000000
# 5 0.000000 0.000000 0.000000 0.000000 0.059823 0.000000
# 6 0.000000 0.000000 0.000000 0.000000 0.000000 0.027096
#
#
# Mechanical properties :
#
#
# Convention : Reuss Voigt Hill
#
# Bulk Modulus (GPa) = 49.29768 71.68015 60.48892
# Shear Modulus (GPa) = 30.32337 41.70128 36.01232
#
# Velocity S-wave (km/s) = 3.28872 3.85667 3.58396
# Velocity P-wave (km/s) = 5.65723 6.73785 6.22105
#
# Compressibility (1/GPa) = 0.02028493
#
# Stress axis : x y z
#
# Youngs Moduli (GPa) = 49.05471 189.94693 100.70230
#
# Poissons Ratio (x) = -0.25410 0.62956
# Poissons Ratio (y) = -0.06562 0.27529
# Poissons Ratio (z) = 0.30668 0.51925
#
# Static dielectric constant tensor:
#      x y z
#    x 2.420550 0.000000 0.000000 
#    y 0.000000 2.232520 0.000000 
#    z 0.000000 0.000000 2.293720 
# 
# From -- ./inp_files/3420.got.cif
#   From: 2010.05.17/outbox.cif.g08.bks.cpg/sg43_2_cif.got.tgz:3420.got - 2010.06.03 19:21:55.
