data_PCOD9370769
_publ_section_title
;
Structure prediction by ZEFSAII (Michael W. Deem and Ramdas Pophale) SiO2 
 PCOD9370769
Probable space group: F D D 2
;
_chemical_formula_sum "Si O2"
_cell_formula_units_Z 104
_cell_length_a 21.156951
_cell_length_b 16.883865
_cell_length_c 11.468119
_cell_angle_alpha 90.000000
_cell_angle_beta 90.000000
_cell_angle_gamma 90.000000
_cell_volume 4096.539454
_symmetry_space_group_name_H-M "F D D 2"
_symmetry_group_IT_number 43
_symmetry_cell_setting 'orthorhombic'
loop_
_space_group_symop_operation_xyz
x,y,z
-x,-y,z
1/4-x,1/4+y,1/4+z
1/4+x,1/4-y,1/4+z
x,1/2+y,1/2+z
-x,1/2-y,1/2+z
1/4-x,3/4+y,3/4+z
1/4+x,3/4-y,3/4+z
1/2+x,y,1/2+z
1/2-x,-y,1/2+z
3/4-x,1/4+y,3/4+z
3/4+x,1/4-y,3/4+z
1/2+x,1/2+y,z
1/2-x,1/2-y,z
3/4-x,3/4+y,1/4+z
3/4+x,3/4-y,1/4+z
loop_
_atom_site_type_symbol
_atom_site_label
_atom_site_fract_x
_atom_site_fract_y
_atom_site_fract_z
Si Si1 0.928820 0.354528 0.461120
Si Si2 0.719363 0.833308 0.595464
Si Si3 0.717440 0.000876 0.827040
Si Si4 0.250000 0.750000 0.752030
Si Si5 0.168565 0.544908 0.067968
Si Si6 0.866000 0.206327 0.893911
Si Si7 0.288996 0.173196 0.867073
O O1 0.977122 0.425302 0.428200
O O2 0.914414 0.296526 0.357229
O O3 0.873202 0.395898 0.535863
O O4 0.971146 0.301424 0.547945
O O5 0.750000 0.750000 0.558867
O O6 0.770313 0.903051 0.599439
O O7 0.667357 0.844973 0.496034
O O8 0.699751 0.816272 0.727476
O O9 0.738040 0.914703 0.873355
O O10 0.672730 0.000322 0.710672
O O11 0.676549 0.041067 0.928622
O O12 0.188099 0.737492 0.834559
O O13 0.112696 0.580409 0.148757
O O14 0.250000 0.250000 0.907007
#
# Coordination Sequence:
#
# PCOD9370769 Si02
#       7
#    16  16  16   8  16  16  16
#     4  10  23  44  67 105 144 181 241 305 371 431
#     4  11  19  38  69  99 134 176 247 303 344 427
#     4  12  24  42  73 106 138 195 242 298 374 448
#     4   8  20  42  68  98 142 176 240 300 362 436
#     4  12  24  43  72 105 145 190 243 311 371 447
#     4  10  20  39  71 104 131 184 246 301 350 429
#     4  11  27  44  65 101 143 187 243 297 372 439
#
# _framework density 25.387281999999999
#
# number of rings (size 3 to 8) (size 9 to 14) (size 15 to 20)
#    0.923    0.308    5.385    0.923    4.308    0.000 
#    4.154    1.538    0.000    0.000    0.000    0.000 
#    0.000    0.000    0.000    0.000    0.000    0.000 
#
# Total GULP energy -144936.314998 kJ/mol
# GULP energy per Si atom -5574.473654 kJ/mol
# Density = 2.532950 g / cm^3
# Si number density = 25.387282 Si / 1000 Ang^3
#
#
#
# Elastic Constant Matrix: (Units=GPa)
#
#
# Indices 1 2 3 4 5 6 
#
# 1 66.2656 20.8653 -0.1717 0.0000 0.0000 0.0000
# 2 20.8653 101.1403 -10.6203 0.0000 0.0000 0.0000
# 3 -0.1717 -10.6203 42.1801 0.0000 0.0000 0.0000
# 4 0.0000 0.0000 0.0000 20.7477 0.0000 0.0000
# 5 0.0000 0.0000 0.0000 0.0000 -8.1353 0.0000
# 6 0.0000 0.0000 0.0000 0.0000 0.0000 31.2620
#
#
#
# Elastic Compliance Matrix: (Units=1/GPa)
#
#
# Indices 1 2 3 4 5 6 
#
# 1 0.016165 -0.003418 -0.000795 0.000000 0.000000 0.000000
# 2 -0.003418 0.010879 0.002725 0.000000 0.000000 0.000000
# 3 -0.000795 0.002725 0.024391 0.000000 0.000000 0.000000
# 4 0.000000 0.000000 0.000000 0.048198 0.000000 0.000000
# 5 0.000000 0.000000 0.000000 0.000000 -0.122921 0.000000
# 6 0.000000 0.000000 0.000000 0.000000 0.000000 0.031988
#
#
# Mechanical properties :
#
#
# Convention : Reuss Voigt Hill
#
# Bulk Modulus (GPa) = 20.63628 25.52584 23.08106
# Shear Modulus (GPa) = 179.67493 22.07572 100.87533
#
# Velocity S-wave (km/s) = 8.42183 2.95203 6.31038
# Velocity P-wave (km/s) = 10.13488 4.65786 7.88706
#
# Compressibility (1/GPa) = 0.04845835
#
# Stress axis : x y z
#
# Youngs Moduli (GPa) = 61.86174 91.92348 40.99914
#
# Poissons Ratio (x) = 0.31422 0.03259
# Poissons Ratio (y) = 0.21146 -0.11173
# Poissons Ratio (z) = 0.04917 -0.25051
#
# Static dielectric constant tensor:
#      x y z
#    x 2.318560 0.000000 0.000000 
#    y 0.000000 2.023490 0.000000 
#    z 0.000000 0.000000 2.028380 
# 
# From -- ./inp_files/10971.got.cif
#   From: 2010.05.17/outbox.cif.g08.bks.cpg/sg43_6_cif.got.tgz:10971.got - 2010.06.03 19:21:55.
