data_PCOD9370315
_publ_section_title
;
Structure prediction by ZEFSAII (Michael W. Deem and Ramdas Pophale) SiO2 
 PCOD9370315
Probable space group: F D D 2
;
_chemical_formula_sum "Si O2"
_cell_formula_units_Z 80
_cell_length_a 20.944163
_cell_length_b 17.355396
_cell_length_c 8.229239
_cell_angle_alpha 90.000000
_cell_angle_beta 90.000000
_cell_angle_gamma 90.000000
_cell_volume 2991.280999
_symmetry_space_group_name_H-M "F D D 2"
_symmetry_group_IT_number 43
_symmetry_cell_setting 'orthorhombic'
loop_
_space_group_symop_operation_xyz
x,y,z
-x,-y,z
1/4-x,1/4+y,1/4+z
1/4+x,1/4-y,1/4+z
x,1/2+y,1/2+z
-x,1/2-y,1/2+z
1/4-x,3/4+y,3/4+z
1/4+x,3/4-y,3/4+z
1/2+x,y,1/2+z
1/2-x,-y,1/2+z
3/4-x,1/4+y,3/4+z
3/4+x,1/4-y,3/4+z
1/2+x,1/2+y,z
1/2-x,1/2-y,z
3/4-x,3/4+y,1/4+z
3/4+x,3/4-y,1/4+z
loop_
_atom_site_type_symbol
_atom_site_label
_atom_site_fract_x
_atom_site_fract_y
_atom_site_fract_z
Si Si1 0.441691 0.444439 0.928260
Si Si2 0.612098 0.194390 0.531942
Si Si3 0.825650 0.480710 0.942020
Si Si4 0.008898 0.868023 0.641202
Si Si5 0.300965 0.814089 0.047660
O O1 0.500000 0.500000 0.940773
O O2 0.380550 0.499469 0.925665
O O3 0.451763 0.407324 0.747259
O O4 0.436912 0.374607 0.051341
O O5 0.590827 0.245223 0.378340
O O6 0.676902 0.147836 0.480537
O O7 0.634378 0.232845 0.091369
O O8 0.762173 0.528762 0.892538
O O9 0.819034 0.388421 0.938144
O O10 0.018768 0.899963 0.461130
O O11 0.250000 0.750000 0.996090
#
# Coordination Sequence:
#
# PCOD9370315 Si02
#       5
#    16  16  16  16  16
#     4   9  16  26  43  71  99 126 166 210 253 306
#     4   9  15  26  46  71  99 128 163 213 258 299
#     4  10  19  32  54  83 110 141 186 229 271 330
#     4   9  17  29  48  78 109 134 172 221 271 321
#     4  11  20  33  56  83 109 145 187 233 276 324
#
# _framework density 26.744392999999999
#
# number of rings (size 3 to 8) (size 9 to 14) (size 15 to 20)
#    0.000    2.400    0.000    7.800    0.000    0.000 
#    0.000    0.000    0.000   26.400    0.000    5.600 
#    0.000    0.000    0.000    0.000    0.000    0.000 
#
# Total GULP energy -111940.668223 kJ/mol
# GULP energy per Si atom -5597.033411 kJ/mol
# Density = 2.668352 g / cm^3
# Si number density = 26.744393 Si / 1000 Ang^3
#
#
#
# Elastic Constant Matrix: (Units=GPa)
#
#
# Indices 1 2 3 4 5 6 
#
# 1 118.2331 86.1585 10.1513 0.0000 0.0000 0.0000
# 2 86.1585 268.9688 51.8122 -0.0002 0.0000 0.0001
# 3 10.1513 51.8122 60.5093 -0.0005 0.0002 0.0003
# 4 0.0000 -0.0002 -0.0005 32.7778 0.0001 0.0002
# 5 0.0000 0.0000 0.0002 0.0001 7.3135 -0.0001
# 6 0.0000 0.0001 0.0003 0.0002 -0.0001 58.4355
#
#
#
# Elastic Compliance Matrix: (Units=1/GPa)
#
#
# Indices 1 2 3 4 5 6 
#
# 1 0.011134 -0.003840 0.001420 0.000000 0.000000 0.000000
# 2 -0.003840 0.005777 -0.004302 0.000000 0.000000 0.000000
# 3 0.001420 -0.004302 0.019972 0.000000 0.000000 0.000000
# 4 0.000000 0.000000 0.000000 0.030508 0.000000 0.000000
# 5 0.000000 0.000000 0.000000 0.000000 0.136734 0.000000
# 6 0.000000 0.000000 0.000000 0.000000 0.000000 0.017113
#
#
# Mechanical properties :
#
#
# Convention : Reuss Voigt Hill
#
# Bulk Modulus (GPa) = 42.66422 82.66170 62.66296
# Shear Modulus (GPa) = 20.61890 39.67796 30.14843
#
# Velocity S-wave (km/s) = 2.77963 3.85593 3.36114
# Velocity P-wave (km/s) = 5.12728 7.12737 6.20840
#
# Compressibility (1/GPa) = 0.02343884
#
# Stress axis : x y z
#
# Youngs Moduli (GPa) = 89.81177 173.10600 50.07022
#
# Poissons Ratio (x) = 0.66478 -0.07112
# Poissons Ratio (y) = 0.34490 0.21541
# Poissons Ratio (z) = -0.12756 0.74474
#
# Static dielectric constant tensor:
#      x y z
#    x 2.230640 0.000000 0.000000 
#    y 0.000000 2.114700 0.000000 
#    z 0.000000 0.000000 2.075140 
# 
# From -- ./inp_files/11299.got.cif
#   From: 2010.05.17/outbox.cif.g08.bks.cpg/sg43_6_cif.got.tgz:11299.got - 2010.06.03 19:21:55.
