data_PCOD9370763
_publ_section_title
;
Structure prediction by ZEFSAII (Michael W. Deem and Ramdas Pophale) SiO2 
 PCOD9370763
Probable space group: F D D 2
;
_chemical_formula_sum "Si O2"
_cell_formula_units_Z 96
_cell_length_a 8.820862
_cell_length_b 22.599930
_cell_length_c 22.992833
_cell_angle_alpha 90.000000
_cell_angle_beta 90.000000
_cell_angle_gamma 90.000000
_cell_volume 4583.641118
_symmetry_space_group_name_H-M "F D D 2"
_symmetry_group_IT_number 43
_symmetry_cell_setting 'orthorhombic'
loop_
_space_group_symop_operation_xyz
x,y,z
-x,-y,z
1/4-x,1/4+y,1/4+z
1/4+x,1/4-y,1/4+z
x,1/2+y,1/2+z
-x,1/2-y,1/2+z
1/4-x,3/4+y,3/4+z
1/4+x,3/4-y,3/4+z
1/2+x,y,1/2+z
1/2-x,-y,1/2+z
3/4-x,1/4+y,3/4+z
3/4+x,1/4-y,3/4+z
1/2+x,1/2+y,z
1/2-x,1/2-y,z
3/4-x,3/4+y,1/4+z
3/4+x,3/4-y,1/4+z
loop_
_atom_site_type_symbol
_atom_site_label
_atom_site_fract_x
_atom_site_fract_y
_atom_site_fract_z
Si Si1 0.330750 0.309303 0.764430
Si Si2 0.151564 0.015126 0.935395
Si Si3 0.105466 0.295967 0.592842
Si Si4 0.747761 0.607817 0.664303
Si Si5 0.608010 0.385494 0.633519
Si Si6 0.568679 0.735402 0.973502
O O1 0.250000 0.250000 0.786649
O O2 0.474213 0.288482 0.728824
O O3 0.232257 0.347361 0.719018
O O4 0.384168 0.348170 0.817520
O O5 0.096677 0.068899 0.895001
O O6 0.236326 0.970472 0.893110
O O7 0.000000 0.000000 0.969253
O O8 0.250000 0.250000 0.597393
O O9 0.161371 0.362206 0.610601
O O10 0.022246 0.283741 0.531465
O O11 0.572779 0.610762 0.644169
O O12 0.760117 0.542055 0.691542
O O13 0.681738 0.431247 0.678106
O O14 0.750000 0.750000 0.984600
#
# Coordination Sequence:
#
# PCOD9370763 Si02
#       6
#    16  16  16  16  16  16
#     4  11  19  39  69  95 124 165 228 276 324 409
#     4  11  23  42  65  96 128 176 223 274 336 410
#     4  12  21  43  67 100 136 178 231 280 348 414
#     4  10  20  39  69 100 125 179 225 273 342 412
#     4  10  22  43  66  93 131 175 224 279 343 411
#     4  10  23  43  67 100 137 181 230 282 345 413
#
# _framework density 20.944047000000001
#
# number of rings (size 3 to 8) (size 9 to 14) (size 15 to 20)
#    0.000    1.333    5.000    3.000    0.000    2.667 
#    9.000    0.833    0.000    0.000    0.000    0.000 
#    0.000    0.000    0.000    0.000    0.000    0.000 
#
# Total GULP energy -133881.015931 kJ/mol
# GULP energy per Si atom -5578.375664 kJ/mol
# Density = 2.089638 g / cm^3
# Si number density = 20.944047 Si / 1000 Ang^3
#
#
#
# Elastic Constant Matrix: (Units=GPa)
#
#
# Indices 1 2 3 4 5 6 
#
# 1 55.2832 30.5187 22.4456 0.0000 0.0000 0.0000
# 2 30.5187 69.2314 -2.0821 0.0000 0.0000 0.0000
# 3 22.4456 -2.0821 70.8677 0.0000 0.0000 0.0000
# 4 0.0000 0.0000 0.0000 26.3876 0.0000 0.0000
# 5 0.0000 0.0000 0.0000 0.0000 20.8732 0.0000
# 6 0.0000 0.0000 0.0000 0.0000 0.0000-1566.0825
#
#
#
# Elastic Compliance Matrix: (Units=1/GPa)
#
#
# Indices 1 2 3 4 5 6 
#
# 1 0.029308 -0.013210 -0.009671 0.000000 0.000000 0.000000
# 2 -0.013210 0.020412 0.004784 0.000000 0.000000 0.000000
# 3 -0.009671 0.004784 0.017314 0.000000 0.000000 0.000000
# 4 0.000000 0.000000 0.000000 0.037897 0.000000 0.000000
# 5 0.000000 0.000000 0.000000 0.000000 0.047908 0.000000
# 6 0.000000 0.000000 0.000000 0.000000 0.000000 -0.000639
#
#
# Mechanical properties :
#
#
# Convention : Reuss Voigt Hill
#
# Bulk Modulus (GPa) = 32.42630 33.01631 32.72131
# Shear Modulus (GPa) = 25.16685 -294.13100 -134.48207
#
# Velocity S-wave (km/s) = 3.47020 -11.86345 -8.02182
# Velocity P-wave (km/s) = 5.61893 13.10942 8.37510
#
# Compressibility (1/GPa) = 0.03083916
#
# Stress axis : x y z
#
# Youngs Moduli (GPa) = 34.12073 48.99186 57.75579
#
# Poissons Ratio (x) = 0.64720 0.55853
# Poissons Ratio (y) = 0.45074 -0.27629
# Poissons Ratio (z) = 0.32997 -0.23436
#
# Static dielectric constant tensor:
#      x y z
#    x 1.941510 0.000000 0.000000 
#    y 0.000000 1.740470 0.000000 
#    z 0.000000 0.000000 1.733200 
# 
# From -- ./inp_files/18813.got.cif
#   From: 2010.05.17/outbox.cif.g08.bks.cpg/sg43_10_cif.got.tgz:18813.got - 2010.06.03 19:21:55.
