data_PCOD9370693
_publ_section_title
;
Structure prediction by ZEFSAII (Michael W. Deem and Ramdas Pophale) SiO2 
 PCOD9370693
Probable space group: F D D 2
;
_chemical_formula_sum "Si O2"
_cell_formula_units_Z 120
_cell_length_a 28.464342
_cell_length_b 8.676348
_cell_length_c 25.249698
_cell_angle_alpha 90.000000
_cell_angle_beta 90.000000
_cell_angle_gamma 90.000000
_cell_volume 6235.830470
_symmetry_space_group_name_H-M "F D D 2"
_symmetry_group_IT_number 43
_symmetry_cell_setting 'orthorhombic'
loop_
_space_group_symop_operation_xyz
x,y,z
-x,-y,z
1/4-x,1/4+y,1/4+z
1/4+x,1/4-y,1/4+z
x,1/2+y,1/2+z
-x,1/2-y,1/2+z
1/4-x,3/4+y,3/4+z
1/4+x,3/4-y,3/4+z
1/2+x,y,1/2+z
1/2-x,-y,1/2+z
3/4-x,1/4+y,3/4+z
3/4+x,1/4-y,3/4+z
1/2+x,1/2+y,z
1/2-x,1/2-y,z
3/4-x,3/4+y,1/4+z
3/4+x,3/4-y,1/4+z
loop_
_atom_site_type_symbol
_atom_site_label
_atom_site_fract_x
_atom_site_fract_y
_atom_site_fract_z
Si Si1 0.334819 0.433400 0.065820
Si Si2 0.689863 0.577992 0.181795
Si Si3 0.652015 0.077839 0.288048
Si Si4 0.819931 0.526530 0.964164
Si Si5 0.381607 0.914474 0.114666
Si Si6 0.549521 0.698844 0.938755
Si Si7 0.000000 0.000000 0.767417
Si Si8 0.393556 0.985497 0.759352
O O1 0.331174 0.481884 0.126525
O O2 0.380625 0.328799 0.060602
O O3 0.289856 0.326639 0.053582
O O4 0.337475 0.565903 0.021888
O O5 0.690011 0.765008 0.186871
O O6 0.744240 0.529381 0.179926
O O7 0.656080 0.518389 0.228356
O O8 0.610930 0.155923 0.252574
O O9 0.659583 0.195284 0.336221
O O10 0.690506 0.027959 0.245519
O O11 0.835885 0.573522 0.905745
O O12 0.773697 0.617216 0.982062
O O13 0.821399 0.345393 0.976549
O O14 0.364442 0.807717 0.067099
O O15 0.335858 0.978573 0.146246
#
# Coordination Sequence:
#
# PCOD9370693 Si02
#       8
#    16  16  16  16  16  16   8  16
#     4  11  21  36  63  92 125 162 208 261 324 375
#     4  11  22  36  64  96 124 161 216 260 311 391
#     4   9  18  36  62  86 118 160 206 253 319 375
#     4   9  21  39  59  84 120 163 206 255 314 380
#     4  10  20  41  63  86 122 169 210 254 319 379
#     4  10  20  38  64  93 120 164 218 261 304 382
#     4  10  22  40  62  92 114 162 220 258 298 384
#     4  11  23  39  59  92 133 160 195 272 334 373
#
# _framework density 19.243628000000001
#
# number of rings (size 3 to 8) (size 9 to 14) (size 15 to 20)
#    0.000    1.867    2.667    1.600    3.733    0.533 
#    2.400    9.333    0.000    0.000    0.000    0.000 
#    0.000    0.000    0.000    0.000    0.000    0.000 
#
# Total GULP energy -167337.542672 kJ/mol
# GULP energy per Si atom -5577.918089 kJ/mol
# Density = 1.919983 g / cm^3
# Si number density = 19.243628 Si / 1000 Ang^3
#
#
#
# Elastic Constant Matrix: (Units=GPa)
#
#
# Indices 1 2 3 4 5 6 
#
# 1 23.1058 3.8811 27.8815 0.0000 0.0000 0.0001
# 2 3.8811 61.3244 23.7090 0.0000 0.0000 0.0001
# 3 27.8815 23.7090 116.7954 0.0000 0.0000 0.0000
# 4 0.0000 0.0000 0.0000 38.2815 0.0000 0.0000
# 5 0.0000 0.0000 0.0000 0.0000 24.7519 0.0000
# 6 0.0001 0.0001 0.0000 0.0000 0.0000 23.3399
#
#
#
# Elastic Compliance Matrix: (Units=1/GPa)
#
#
# Indices 1 2 3 4 5 6 
#
# 1 0.060998 0.001920 -0.014951 0.000000 0.000000 0.000000
# 2 0.001920 0.017756 -0.004063 0.000000 0.000000 0.000000
# 3 -0.014951 -0.004063 0.012956 0.000000 0.000000 0.000000
# 4 0.000000 0.000000 0.000000 0.026122 0.000000 0.000000
# 5 0.000000 0.000000 0.000000 0.000000 0.040401 0.000000
# 6 0.000000 0.000000 0.000000 0.000000 0.000000 0.042845
#
#
# Mechanical properties :
#
#
# Convention : Reuss Voigt Hill
#
# Bulk Modulus (GPa) = 17.38470 34.68543 26.03506
# Shear Modulus (GPa) = 19.65098 26.99160 23.32129
#
# Velocity S-wave (km/s) = 3.19904 3.74923 3.48501
# Velocity P-wave (km/s) = 4.76432 6.06678 5.45456
#
# Compressibility (1/GPa) = 0.05752184
#
# Stress axis : x y z
#
# Youngs Moduli (GPa) = 16.39395 56.31921 77.18499
#
# Poissons Ratio (x) = -0.10813 1.15401
# Poissons Ratio (y) = -0.03148 0.31358
# Poissons Ratio (z) = 0.24511 0.22881
#
# Static dielectric constant tensor:
#      x y z
#    x 1.638520 0.000000 0.000000 
#    y 0.000000 1.729370 0.000000 
#    z 0.000000 0.000000 1.675990 
# 
# From -- ./inp_files/20462.got.cif
#   From: 2010.05.17/outbox.cif.g08.bks.cpg/sg43_11_cif.got.tgz:20462.got - 2010.06.03 19:21:55.
