data_PCOD9370622
_publ_section_title
;
Structure prediction by ZEFSAII (Michael W. Deem and Ramdas Pophale) SiO2 
 PCOD9370622
Probable space group: F D D 2
;
_chemical_formula_sum "Si O2"
_cell_formula_units_Z 88
_cell_length_a 10.015476
_cell_length_b 17.853928
_cell_length_c 17.987364
_cell_angle_alpha 90.000000
_cell_angle_beta 90.000000
_cell_angle_gamma 90.000000
_cell_volume 3216.421059
_symmetry_space_group_name_H-M "F D D 2"
_symmetry_group_IT_number 43
_symmetry_cell_setting 'orthorhombic'
loop_
_space_group_symop_operation_xyz
x,y,z
-x,-y,z
1/4-x,1/4+y,1/4+z
1/4+x,1/4-y,1/4+z
x,1/2+y,1/2+z
-x,1/2-y,1/2+z
1/4-x,3/4+y,3/4+z
1/4+x,3/4-y,3/4+z
1/2+x,y,1/2+z
1/2-x,-y,1/2+z
3/4-x,1/4+y,3/4+z
3/4+x,1/4-y,3/4+z
1/2+x,1/2+y,z
1/2-x,1/2-y,z
3/4-x,3/4+y,1/4+z
3/4+x,3/4-y,1/4+z
loop_
_atom_site_type_symbol
_atom_site_label
_atom_site_fract_x
_atom_site_fract_y
_atom_site_fract_z
Si Si1 0.227443 0.461331 0.026210
Si Si2 0.280051 0.052719 0.404882
Si Si3 0.750000 0.250000 0.029883
Si Si4 0.961723 0.355421 0.873821
Si Si5 0.569695 0.623291 0.919885
Si Si6 0.040495 0.768357 0.498406
O O1 0.273349 0.527093 0.081832
O O2 0.172812 0.397631 0.082030
O O3 0.169833 0.515666 0.961090
O O4 0.656604 0.568899 0.972092
O O5 0.193505 0.123512 0.377819
O O6 0.420988 0.088030 0.429185
O O7 0.309620 0.996785 0.335723
O O8 0.729699 0.174463 0.077135
O O9 0.885516 0.244133 0.985651
O O10 0.042942 0.344243 0.950983
O O11 0.615761 0.701817 0.957516
#
# Coordination Sequence:
#
# PCOD9370622 Si02
#       6
#    16  16   8  16  16  16
#     4  11  24  40  67  98 136 172 229 286 353 411
#     4  11  21  36  61  93 125 174 224 282 339 409
#     4  10  20  38  60  92 124 162 232 284 338 400
#     4  10  22  39  65  93 127 174 226 294 342 406
#     4  11  22  39  64  98 134 173 220 287 342 417
#     4  10  20  37  60  94 125 165 223 277 347 400
#
# _framework density 27.359603
#
# number of rings (size 3 to 8) (size 9 to 14) (size 15 to 20)
#    0.000    1.455    1.818    4.909    2.545    1.455 
#    6.545    0.000    0.000    0.000    0.000    0.000 
#    0.000    0.000    0.000    0.000    0.000    0.000 
#
# Total GULP energy -122652.762771 kJ/mol
# GULP energy per Si atom -5575.125580 kJ/mol
# Density = 2.729733 g / cm^3
# Si number density = 27.359603 Si / 1000 Ang^3
#
#
#
# Elastic Constant Matrix: (Units=GPa)
#
#
# Indices 1 2 3 4 5 6 
#
# 1 38.5641 9.9111 2.7037 0.0000 0.0000 0.0000
# 2 9.9111 139.2158 45.9854 0.0000 0.0000 0.0000
# 3 2.7037 45.9854 198.5653 0.0000 0.0000 0.0000
# 4 0.0000 0.0000 0.0000 64.0207 0.0000 0.0000
# 5 0.0000 0.0000 0.0000 0.0000 24.0529 0.0000
# 6 0.0000 0.0000 0.0000 0.0000 0.0000 25.7207
#
#
#
# Elastic Compliance Matrix: (Units=1/GPa)
#
#
# Indices 1 2 3 4 5 6 
#
# 1 0.026415 -0.001908 0.000082 0.000000 0.000000 0.000000
# 2 -0.001908 0.007916 -0.001807 0.000000 0.000000 0.000000
# 3 0.000082 -0.001807 0.005454 0.000000 0.000000 0.000000
# 4 0.000000 0.000000 0.000000 0.015620 0.000000 0.000000
# 5 0.000000 0.000000 0.000000 0.000000 0.041575 0.000000
# 6 0.000000 0.000000 0.000000 0.000000 0.000000 0.038879
#
#
# Mechanical properties :
#
#
# Convention : Reuss Voigt Hill
#
# Bulk Modulus (GPa) = 30.75113 54.83840 42.79476
# Shear Modulus (GPa) = 32.47506 43.94186 38.20846
#
# Velocity S-wave (km/s) = 3.44898 4.01195 3.74107
# Velocity P-wave (km/s) = 5.20813 6.44578 5.85972
#
# Compressibility (1/GPa) = 0.03251913
#
# Stress axis : x y z
#
# Youngs Moduli (GPa) = 37.85677 126.32847 183.36700
#
# Poissons Ratio (x) = 0.24100 -0.01506
# Poissons Ratio (y) = 0.07222 0.33139
# Poissons Ratio (z) = -0.00311 0.22831
#
# Static dielectric constant tensor:
#      x y z
#    x 2.112100 0.000000 0.000000 
#    y 0.000000 2.359000 0.000000 
#    z 0.000000 0.000000 2.284500 
# 
# From -- ./inp_files/11306.got.cif
#   From: 2010.05.17/outbox.cif.g08.bks.cpg/sg43_6_cif.got.tgz:11306.got - 2010.06.03 19:21:55.
