data_PCOD9370225
_publ_section_title
;
Structure prediction by ZEFSAII (Michael W. Deem and Ramdas Pophale) SiO2 
 PCOD9370225
Probable space group: F D D 2
;
_chemical_formula_sum "Si O2"
_cell_formula_units_Z 88
_cell_length_a 17.077759
_cell_length_b 9.619276
_cell_length_c 24.418538
_cell_angle_alpha 90.000000
_cell_angle_beta 90.000000
_cell_angle_gamma 90.000000
_cell_volume 4011.371868
_symmetry_space_group_name_H-M "F D D 2"
_symmetry_group_IT_number 43
_symmetry_cell_setting 'orthorhombic'
loop_
_space_group_symop_operation_xyz
x,y,z
-x,-y,z
1/4-x,1/4+y,1/4+z
1/4+x,1/4-y,1/4+z
x,1/2+y,1/2+z
-x,1/2-y,1/2+z
1/4-x,3/4+y,3/4+z
1/4+x,3/4-y,3/4+z
1/2+x,y,1/2+z
1/2-x,-y,1/2+z
3/4-x,1/4+y,3/4+z
3/4+x,1/4-y,3/4+z
1/2+x,1/2+y,z
1/2-x,1/2-y,z
3/4-x,3/4+y,1/4+z
3/4+x,3/4-y,1/4+z
loop_
_atom_site_type_symbol
_atom_site_label
_atom_site_fract_x
_atom_site_fract_y
_atom_site_fract_z
Si Si1 0.250000 0.750000 0.680761
Si Si2 0.371505 0.055094 0.864037
Si Si3 0.250000 0.750000 0.423545
Si Si4 0.460800 0.816842 0.331836
Si Si5 0.146711 0.673752 0.522457
Si Si6 0.718476 0.044698 0.764672
Si Si7 0.250000 0.250000 0.705508
O O1 0.292924 0.640816 0.640895
O O2 0.193680 0.649675 0.716219
O O3 0.297692 0.140865 0.887494
O O4 0.427542 0.164922 0.833500
O O5 0.336818 0.956068 0.817275
O O6 0.424281 0.006694 0.915179
O O7 0.187289 0.673523 0.463071
O O8 0.549679 0.829742 0.311463
O O9 0.412032 0.917467 0.292327
O O10 0.055628 0.649297 0.527233
O O11 0.734710 0.888638 0.741467
#
# Coordination Sequence:
#
# PCOD9370225 Si02
#       7
#     8  16   8  16  16  16   8
#     4  10  21  42  62  90 132 184 219 276 344 408
#     4  12  24  39  72 106 141 183 232 291 354 413
#     4  10  18  36  62 104 132 178 226 278 338 420
#     4   9  19  39  65  97 132 183 227 277 343 424
#     4   9  19  35  66  98 129 175 239 280 328 416
#     4  12  24  42  69  97 137 184 236 287 350 418
#     4  12  25  44  68 104 144 178 231 304 346 412
#
# _framework density 21.937631
#
# number of rings (size 3 to 8) (size 9 to 14) (size 15 to 20)
#    0.000    1.818    3.636    2.727    2.545    2.909 
#    0.000    0.000    8.000    0.000    0.000    0.000 
#    0.000    0.000    0.000    0.000    0.000    0.000 
#
# Total GULP energy -122858.387342 kJ/mol
# GULP energy per Si atom -5584.472152 kJ/mol
# Density = 2.188770 g / cm^3
# Si number density = 21.937631 Si / 1000 Ang^3
#
#
#
# Elastic Constant Matrix: (Units=GPa)
#
#
# Indices 1 2 3 4 5 6 
#
# 1 91.5112 16.1314 24.3149 0.0000 0.0000 0.0000
# 2 16.1314 61.1395 17.4896 0.0000 0.0000 0.0000
# 3 24.3149 17.4896 84.8538 0.0000 0.0000 0.0000
# 4 0.0000 0.0000 0.0000 6.0515 0.0000 0.0000
# 5 0.0000 0.0000 0.0000 0.0000 -5.2553 0.0000
# 6 0.0000 0.0000 0.0000 0.0000 0.0000 23.6685
#
#
#
# Elastic Compliance Matrix: (Units=1/GPa)
#
#
# Indices 1 2 3 4 5 6 
#
# 1 0.012137 -0.002346 -0.002994 0.000000 0.000000 0.000000
# 2 -0.002346 0.017834 -0.003004 0.000000 0.000000 0.000000
# 3 -0.002994 -0.003004 0.013262 0.000000 0.000000 0.000000
# 4 0.000000 0.000000 0.000000 0.165249 0.000000 0.000000
# 5 0.000000 0.000000 0.000000 0.000000 -0.190283 0.000000
# 6 0.000000 0.000000 0.000000 0.000000 0.000000 0.042250
#
#
# Mechanical properties :
#
#
# Convention : Reuss Voigt Hill
#
# Bulk Modulus (GPa) = 37.67105 39.26404 38.46755
# Shear Modulus (GPa) = 58.14953 16.86417 37.50685
#
# Velocity S-wave (km/s) = 5.15406 2.77561 4.13934
# Velocity P-wave (km/s) = 7.25453 5.31121 6.35756
#
# Compressibility (1/GPa) = 0.02654558
#
# Stress axis : x y z
#
# Youngs Moduli (GPa) = 82.39466 56.07209 75.40278
#
# Poissons Ratio (x) = 0.13153 0.22578
# Poissons Ratio (y) = 0.19327 0.22649
# Poissons Ratio (z) = 0.24671 0.16843
#
# Static dielectric constant tensor:
#      x y z
#    x 1.843860 0.000000 0.000000 
#    y 0.000000 1.804560 0.000000 
#    z 0.000000 0.000000 1.864740 
# 
# From -- ./inp_files/17974.got.cif
#   From: 2010.05.17/outbox.cif.g08.bks.cpg/sg43_9_cif.got.tgz:17974.got - 2010.06.03 19:21:55.
