data_PCOD9370011
_publ_section_title
;
Structure prediction by ZEFSAII (Michael W. Deem and Ramdas Pophale) SiO2 
 PCOD9370011
Probable space group: F M M 2
;
_chemical_formula_sum "Si O2"
_cell_formula_units_Z 22
_cell_length_a 24.000000
_cell_length_b 15.000000
_cell_length_c 12.000000
_cell_angle_alpha 90.000000
_cell_angle_beta 90.000000
_cell_angle_gamma 90.000000
_cell_volume 4320.000000
_symmetry_space_group_name_H-M "F M M 2"
_symmetry_group_IT_number 42
_symmetry_cell_setting 'orthorhombic'
loop_
_space_group_symop_operation_xyz
x,y,z
-x,-y,z
-x,y,z
x,-y,z
x,1/2+y,1/2+z
-x,1/2-y,1/2+z
-x,1/2+y,1/2+z
x,1/2-y,1/2+z
1/2+x,y,1/2+z
1/2-x,-y,1/2+z
1/2-x,y,1/2+z
1/2+x,-y,1/2+z
1/2+x,1/2+y,z
1/2-x,1/2-y,z
1/2-x,1/2+y,z
1/2+x,1/2-y,z
loop_
_atom_site_type_symbol
_atom_site_label
_atom_site_fract_x
_atom_site_fract_y
_atom_site_fract_z
Si Si1 0.939352 0.894554 0.371980
Si Si2 0.937778 0.103682 0.842193
Si Si3 0.250000 0.750000 0.376351
Si Si4 0.323963 0.896823 0.757671
Si Si5 0.348587 0.335767 0.020473
Si Si6 0.063188 0.304382 0.105905
O O1 0.883809 0.864764 0.308312
O O2 0.934611 0.874176 0.503175
O O3 0.000000 0.856967 0.335080
O O4 0.941372 0.000000 0.353878
O O5 0.927925 0.154827 0.727271
O O6 0.000000 0.128939 0.884636
O O7 0.939220 0.000000 0.814430
O O8 0.890006 0.118968 0.932170
O O9 0.277832 0.671734 0.302597
O O10 0.297788 0.792154 0.453937
O O11 0.327323 0.893927 0.623895
O O12 0.314582 0.000000 0.793466
O O13 0.388003 0.262790 0.077959
O O14 0.000000 0.267004 0.103214
#
# Coordination Sequence:
#
# PCOD9370011 Si02
#       6
#    16  16   8  16  16  16
#     4   9  18  36  64  97 131 169 214 263 320 394
#     4  10  22  40  64  96 132 168 207 256 319 392
#     4  12  26  48  66  90 128 172 234 278 324 390
#     4  11  25  45  68  96 129 170 219 276 339 395
#     4  12  24  42  64  95 128 168 214 277 327 389
#     4  10  20  36  63  97 133 171 210 255 321 394
#
# _framework density 5.0925929999999999
#
# number of rings (size 3 to 8) (size 9 to 14) (size 15 to 20)
#    0.000    1.455    1.818    3.273    0.000    5.091 
#    0.000    1.818    0.000    0.000    0.000    0.000 
#    0.000    0.000    0.000    0.000    0.000    0.000 
#
# Total GULP energy -122875.104662 kJ/mol
# GULP energy per Si atom -5585.232030 kJ/mol
# Density = 0.508100 g / cm^3
# Si number density = 5.092593 Si / 1000 Ang^3
#
#
#
# Elastic Constant Matrix: (Units=GPa)
#
#
# Indices 1 2 3 4 5 6 
#
# 1 120.7535 67.9241 45.8079 0.0000 0.0000 0.0000
# 2 67.9241 90.0346 42.9828 0.0000 0.0000 0.0000
# 3 45.8079 42.9828 103.1255 0.0000 0.0000 0.0000
# 4 0.0000 0.0000 0.0000 31.2042 0.0000 0.0000
# 5 0.0000 0.0000 0.0000 0.0000 21.8757 0.0000
# 6 0.0000 0.0000 0.0000 0.0000 0.0000 -68.6235
#
#
#
# Elastic Compliance Matrix: (Units=1/GPa)
#
#
# Indices 1 2 3 4 5 6 
#
# 1 0.014849 -0.010054 -0.002405 0.000000 0.000000 0.000000
# 2 -0.010054 0.020674 -0.004151 0.000000 0.000000 0.000000
# 3 -0.002405 -0.004151 0.012495 0.000000 0.000000 0.000000
# 4 0.000000 0.000000 0.000000 0.032047 0.000000 0.000000
# 5 0.000000 0.000000 0.000000 0.000000 0.045713 0.000000
# 6 0.000000 0.000000 0.000000 0.000000 0.000000 -0.014572
#
#
# Mechanical properties :
#
#
# Convention : Reuss Voigt Hill
#
# Bulk Modulus (GPa) = 67.57865 69.70479 68.64172
# Shear Modulus (GPa) = 33.47632 7.37121 20.42377
#
# Velocity S-wave (km/s) = 4.05826 1.90432 3.16985
# Velocity P-wave (km/s) = 7.43010 6.25526 6.86785
#
# Compressibility (1/GPa) = 0.01479757
#
# Stress axis : x y z
#
# Youngs Moduli (GPa) = 67.34259 48.37075 80.02964
#
# Poissons Ratio (x) = 0.48634 0.19250
# Poissons Ratio (y) = 0.67709 0.33218
# Poissons Ratio (z) = 0.16198 0.20077
#
# Static dielectric constant tensor:
#      x y z
#    x 1.717110 0.000000 0.000000 
#    y 0.000000 1.743900 0.000000 
#    z 0.000000 0.000000 1.713900 
# 
# From -- ./inp_files/10055.got.cif
#   From: 2010.05.17/outbox.ucp.g08.bks.cvg/sg42_6_cif.got.tgz:10055.got - 2010.06.11 16:29:10.
