data_PCOD9370685
_publ_section_title
;
Structure prediction by ZEFSAII (Michael W. Deem and Ramdas Pophale) SiO2 
 PCOD9370685
Probable space group: F D D 2
;
_chemical_formula_sum "Si O2"
_cell_formula_units_Z 104
_cell_length_a 30.692297
_cell_length_b 7.467708
_cell_length_c 23.374039
_cell_angle_alpha 90.000000
_cell_angle_beta 90.000000
_cell_angle_gamma 90.000000
_cell_volume 5357.355727
_symmetry_space_group_name_H-M "F D D 2"
_symmetry_group_IT_number 43
_symmetry_cell_setting 'orthorhombic'
loop_
_space_group_symop_operation_xyz
x,y,z
-x,-y,z
1/4-x,1/4+y,1/4+z
1/4+x,1/4-y,1/4+z
x,1/2+y,1/2+z
-x,1/2-y,1/2+z
1/4-x,3/4+y,3/4+z
1/4+x,3/4-y,3/4+z
1/2+x,y,1/2+z
1/2-x,-y,1/2+z
3/4-x,1/4+y,3/4+z
3/4+x,1/4-y,3/4+z
1/2+x,1/2+y,z
1/2-x,1/2-y,z
3/4-x,3/4+y,1/4+z
3/4+x,3/4-y,1/4+z
loop_
_atom_site_type_symbol
_atom_site_label
_atom_site_fract_x
_atom_site_fract_y
_atom_site_fract_z
Si Si1 0.750000 0.250000 0.638011
Si Si2 0.500000 0.000000 0.193768
Si Si3 0.129669 0.330657 0.030400
Si Si4 0.686599 0.999397 0.183938
Si Si5 0.705112 0.045455 0.543228
Si Si6 0.906548 0.566473 0.817503
Si Si7 0.568041 0.577484 0.595497
Si Si8 0.750000 0.250000 0.253597
O O1 0.708153 0.307096 0.674048
O O2 0.736693 0.087165 0.596448
O O3 0.518512 0.846169 0.235895
O O4 0.459851 0.938819 0.153112
O O5 0.165929 0.190011 0.048514
O O6 0.151931 0.525113 0.020622
O O7 0.094023 0.391345 0.078760
O O8 0.105149 0.257186 0.974906
O O9 0.676168 0.089490 0.123522
O O10 0.722829 0.116501 0.215305
O O11 0.684190 0.850521 0.547000
O O12 0.856627 0.528110 0.837957
O O13 0.533309 0.602551 0.545022
#
# Coordination Sequence:
#
# PCOD9370685 Si02
#       8
#     8   8  16  16  16  16  16   8
#     4  11  22  37  58  92 124 159 198 263 306 368
#     4  10  20  38  64  90 124 170 190 268 316 360
#     4   9  21  41  60  89 119 161 204 253 295 379
#     4  11  20  38  62  86 123 156 200 251 313 351
#     4  11  22  37  63  89 122 157 211 246 313 364
#     4  10  21  40  62  86 121 163 201 253 296 378
#     4   8  18  39  61  82 127 159 198 245 313 353
#     4   9  18  33  60  90 112 159 196 245 298 366
#
# _framework density 19.412562000000001
#
# number of rings (size 3 to 8) (size 9 to 14) (size 15 to 20)
#    0.923    1.231    1.538    1.846    0.000    1.231 
#    5.538    0.000    3.385    0.000    0.000    0.000 
#    0.000    0.000    0.000    0.000    0.000    0.000 
#
# Total GULP energy -144834.834262 kJ/mol
# GULP energy per Si atom -5570.570549 kJ/mol
# Density = 1.936838 g / cm^3
# Si number density = 19.412562 Si / 1000 Ang^3
#
#
#
# Elastic Constant Matrix: (Units=GPa)
#
#
# Indices 1 2 3 4 5 6 
#
# 1 108.5784 28.9862 44.2309 0.0000 0.0000 -0.0001
# 2 28.9862 51.8861 22.7498 -0.0004 -0.0001 -0.0004
# 3 44.2309 22.7498 80.4307 0.0000 0.0000 0.0000
# 4 0.0000 -0.0004 0.0000 8.0833 -0.0001 -0.0001
# 5 0.0000 -0.0001 0.0000 -0.0001 24.0301 0.0000
# 6 -0.0001 -0.0004 0.0000 -0.0001 0.0000 39.5968
#
#
#
# Elastic Compliance Matrix: (Units=1/GPa)
#
#
# Indices 1 2 3 4 5 6 
#
# 1 0.012774 -0.004630 -0.005715 0.000000 0.000000 0.000000
# 2 -0.004630 0.023680 -0.004151 0.000001 0.000000 0.000000
# 3 -0.005715 -0.004151 0.016750 0.000000 0.000000 0.000000
# 4 0.000000 0.000001 0.000000 0.123711 0.000000 0.000000
# 5 0.000000 0.000000 0.000000 0.000000 0.041615 0.000000
# 6 0.000000 0.000000 0.000000 0.000000 0.000000 0.025255
#
#
# Mechanical properties :
#
#
# Convention : Reuss Voigt Hill
#
# Bulk Modulus (GPa) = 41.30478 48.09211 44.69845
# Shear Modulus (GPa) = 17.80315 24.00394 20.90354
#
# Velocity S-wave (km/s) = 3.03164 3.52023 3.28503
# Velocity P-wave (km/s) = 5.79465 6.43041 6.12079
#
# Compressibility (1/GPa) = 0.02421027
#
# Stress axis : x y z
#
# Youngs Moduli (GPa) = 78.28260 42.22969 59.70077
#
# Poissons Ratio (x) = 0.19554 0.34120
# Poissons Ratio (y) = 0.36249 0.24785
# Poissons Ratio (z) = 0.44740 0.17532
#
# Static dielectric constant tensor:
#      x y z
#    x 1.756840 0.000000 0.000000 
#    y 0.000000 1.671790 0.000000 
#    z 0.000000 0.000000 1.690730 
# 
# From -- ./inp_files/19000.got.cif
#   From: 2010.05.17/outbox.cif.g08.bks.cpg/sg43_10_cif.got.tgz:19000.got - 2010.06.03 19:21:55.
