data_PCOD9370993
_publ_section_title
;
Structure prediction by ZEFSAII (Michael W. Deem and Ramdas Pophale) SiO2 
 PCOD9370993
Probable space group: F D D 2
;
_chemical_formula_sum "Si O2"
_cell_formula_units_Z 80
_cell_length_a 27.243534
_cell_length_b 16.257412
_cell_length_c 7.237292
_cell_angle_alpha 90.000000
_cell_angle_beta 90.000000
_cell_angle_gamma 90.000000
_cell_volume 3205.464343
_symmetry_space_group_name_H-M "F D D 2"
_symmetry_group_IT_number 43
_symmetry_cell_setting 'orthorhombic'
loop_
_space_group_symop_operation_xyz
x,y,z
-x,-y,z
1/4-x,1/4+y,1/4+z
1/4+x,1/4-y,1/4+z
x,1/2+y,1/2+z
-x,1/2-y,1/2+z
1/4-x,3/4+y,3/4+z
1/4+x,3/4-y,3/4+z
1/2+x,y,1/2+z
1/2-x,-y,1/2+z
3/4-x,1/4+y,3/4+z
3/4+x,1/4-y,3/4+z
1/2+x,1/2+y,z
1/2-x,1/2-y,z
3/4-x,3/4+y,1/4+z
3/4+x,3/4-y,1/4+z
loop_
_atom_site_type_symbol
_atom_site_label
_atom_site_fract_x
_atom_site_fract_y
_atom_site_fract_z
Si Si1 0.452801 0.964249 0.438320
Si Si2 0.936589 0.676355 0.861674
Si Si3 0.882914 0.842510 0.861219
Si Si4 0.109615 0.877997 0.019578
Si Si5 0.221542 0.336856 0.589053
O O1 0.426003 0.903485 0.301125
O O2 0.473865 0.916412 0.614570
O O3 0.500000 0.000000 0.339325
O O4 0.415827 0.031973 0.522698
O O5 0.908765 0.758582 0.922947
O O6 0.926515 0.676159 0.642688
O O7 0.993004 0.660189 0.905726
O O8 0.907582 0.598811 0.953804
O O9 0.861893 0.883142 0.049071
O O10 0.163570 0.859545 0.107723
O O11 0.250000 0.250000 0.640175
#
# Coordination Sequence:
#
# PCOD9370993 Si02
#       5
#    16  16  16  16  16
#     4  10  20  47  71  96 144 194 235 298 370 431
#     4  12  24  47  70 103 146 183 242 302 367 429
#     4  11  26  44  70 112 137 185 254 293 359 454
#     4  11  23  47  74  95 149 194 229 307 364 425
#     4  10  21  43  71 102 138 188 245 290 363 440
#
# _framework density 24.957381999999999
#
# number of rings (size 3 to 8) (size 9 to 14) (size 15 to 20)
#    0.000    1.200    6.000    1.200    2.800    0.000 
#   18.000    0.000    0.000    0.000    0.000    0.000 
#    0.000    0.000    0.000    0.000    0.000    0.000 
#
# Total GULP energy -111421.375691 kJ/mol
# GULP energy per Si atom -5571.068785 kJ/mol
# Density = 2.490058 g / cm^3
# Si number density = 24.957382 Si / 1000 Ang^3
#
#
#
# Elastic Constant Matrix: (Units=GPa)
#
#
# Indices 1 2 3 4 5 6 
#
# 1 150.6253 49.0909 -0.4847 0.0000 0.0000 0.0000
# 2 49.0909 58.2245 0.1351 0.0000 0.0000 0.0000
# 3 -0.4847 0.1351 66.9748 0.0000 0.0000 0.0000
# 4 0.0000 0.0000 0.0000 8.4119 0.0000 0.0000
# 5 0.0000 0.0000 0.0000 0.0000 25.5232 0.0000
# 6 0.0000 0.0000 0.0000 0.0000 0.0000 42.6766
#
#
#
# Elastic Compliance Matrix: (Units=1/GPa)
#
#
# Indices 1 2 3 4 5 6 
#
# 1 0.009155 -0.007719 0.000082 0.000000 0.000000 0.000000
# 2 -0.007719 0.023683 -0.000104 0.000000 0.000000 0.000000
# 3 0.000082 -0.000104 0.014932 0.000000 0.000000 0.000000
# 4 0.000000 0.000000 0.000000 0.118880 0.000000 0.000000
# 5 0.000000 0.000000 0.000000 0.000000 0.039180 0.000000
# 6 0.000000 0.000000 0.000000 0.000000 0.000000 0.023432
#
#
# Mechanical properties :
#
#
# Convention : Reuss Voigt Hill
#
# Bulk Modulus (GPa) = 30.97093 41.47861 36.22477
# Shear Modulus (GPa) = 19.56896 30.46120 25.01508
#
# Velocity S-wave (km/s) = 2.80321 3.49740 3.16937
# Velocity P-wave (km/s) = 4.78683 5.74151 5.28577
#
# Compressibility (1/GPa) = 0.03228834
#
# Stress axis : x y z
#
# Youngs Moduli (GPa) = 109.22984 42.22380 66.97125
#
# Poissons Ratio (x) = 0.32593 -0.00548
# Poissons Ratio (y) = 0.84315 0.00694
# Poissons Ratio (z) = -0.00894 0.00438
#
# Static dielectric constant tensor:
#      x y z
#    x 2.077300 0.000000 0.000000 
#    y 0.000000 2.074560 0.000000 
#    z 0.000000 0.000000 1.949510 
# 
# From -- ./inp_files/2810.got.cif
#   From: 2010.05.17/outbox.cif.g08.bks.cpg/sg43_2_cif.got.tgz:2810.got - 2010.06.03 19:21:55.
