data_PCOD9370334
_publ_section_title
;
Structure prediction by ZEFSAII (Michael W. Deem and Ramdas Pophale) SiO2 
 PCOD9370334
Probable space group: F D D 2
;
_chemical_formula_sum "Si O2"
_cell_formula_units_Z 112
_cell_length_a 12.623359
_cell_length_b 14.719062
_cell_length_c 26.881646
_cell_angle_alpha 90.000000
_cell_angle_beta 90.000000
_cell_angle_gamma 90.000000
_cell_volume 4994.717455
_symmetry_space_group_name_H-M "F D D 2"
_symmetry_group_IT_number 43
_symmetry_cell_setting 'orthorhombic'
loop_
_space_group_symop_operation_xyz
x,y,z
-x,-y,z
1/4-x,1/4+y,1/4+z
1/4+x,1/4-y,1/4+z
x,1/2+y,1/2+z
-x,1/2-y,1/2+z
1/4-x,3/4+y,3/4+z
1/4+x,3/4-y,3/4+z
1/2+x,y,1/2+z
1/2-x,-y,1/2+z
3/4-x,1/4+y,3/4+z
3/4+x,1/4-y,3/4+z
1/2+x,1/2+y,z
1/2-x,1/2-y,z
3/4-x,3/4+y,1/4+z
3/4+x,3/4-y,1/4+z
loop_
_atom_site_type_symbol
_atom_site_label
_atom_site_fract_x
_atom_site_fract_y
_atom_site_fract_z
Si Si1 0.787071 0.421383 0.192460
Si Si2 0.835852 0.669832 0.776303
Si Si3 0.523871 0.687099 0.723298
Si Si4 0.518694 0.893018 0.537896
Si Si5 0.223681 0.402706 0.590197
Si Si6 0.943864 0.381164 0.430176
Si Si7 0.454322 0.129736 0.325721
O O1 0.727846 0.404378 0.244553
O O2 0.888505 0.358251 0.189928
O O3 0.711208 0.387886 0.148469
O O4 0.825622 0.522858 0.181308
O O5 0.750000 0.750000 0.789298
O O6 0.925815 0.718606 0.741907
O O7 0.907548 0.633263 0.821162
O O8 0.411340 0.685563 0.696091
O O9 0.514034 0.622657 0.772803
O O10 0.628903 0.858747 0.559524
O O11 0.519666 0.890131 0.478133
O O12 0.414985 0.847915 0.563131
O O13 0.500000 0.000000 0.549508
O O14 0.207787 0.511151 0.583092
O O15 0.992040 0.404406 0.376393
#
# Coordination Sequence:
#
# PCOD9370334 Si02
#       7
#    16  16  16  16  16  16  16
#     4  10  20  33  52  81 110 138 180 233 271 312
#     4   9  19  36  54  76 109 145 180 221 271 331
#     4   9  18  34  54  77 107 141 180 222 269 332
#     4   9  18  35  53  74 104 138 178 220 267 334
#     4   9  18  33  54  73 101 147 180 205 267 345
#     4  10  19  34  57  81 102 139 185 230 273 316
#     4   8  17  33  54  76 101 136 178 221 270 326
#
# _framework density 22.423691000000002
#
# number of rings (size 3 to 8) (size 9 to 14) (size 15 to 20)
#    0.000    2.857    0.000    1.286    0.000    5.714 
#    0.000   10.714    0.000    1.714    0.000    0.000 
#    0.000    0.000    0.000    0.000    0.000    0.000 
#
# Total GULP energy -156047.465006 kJ/mol
# GULP energy per Si atom -5573.123750 kJ/mol
# Density = 2.237265 g / cm^3
# Si number density = 22.423691 Si / 1000 Ang^3
#
#
#
# Elastic Constant Matrix: (Units=GPa)
#
#
# Indices 1 2 3 4 5 6 
#
# 1 80.0181 -11.4376 40.7530 0.0000 0.0000 0.0000
# 2 -11.4376 36.4465 -6.5262 0.0000 0.0000 0.0000
# 3 40.7530 -6.5262 83.1095 0.0000 0.0000 0.0000
# 4 0.0000 0.0000 0.0000 15.1750 0.0000 0.0000
# 5 0.0000 0.0000 0.0000 0.0000 24.6133 0.0000
# 6 0.0000 0.0000 0.0000 0.0000 0.0000 7.6720
#
#
#
# Elastic Compliance Matrix: (Units=1/GPa)
#
#
# Indices 1 2 3 4 5 6 
#
# 1 0.017198 0.003942 -0.008124 0.000000 0.000000 0.000000
# 2 0.003942 0.028733 0.000323 0.000000 0.000000 0.000000
# 3 -0.008124 0.000323 0.016041 0.000000 0.000000 0.000000
# 4 0.000000 0.000000 0.000000 0.065898 0.000000 0.000000
# 5 0.000000 0.000000 0.000000 0.000000 0.040628 0.000000
# 6 0.000000 0.000000 0.000000 0.000000 0.000000 0.130344
#
#
# Mechanical properties :
#
#
# Convention : Reuss Voigt Hill
#
# Bulk Modulus (GPa) = 18.43130 27.23917 22.83523
# Shear Modulus (GPa) = 15.40154 21.27772 18.33963
#
# Velocity S-wave (km/s) = 2.62361 3.08376 2.86294
# Velocity P-wave (km/s) = 4.17315 4.98530 4.59720
#
# Compressibility (1/GPa) = 0.05425554
#
# Stress axis : x y z
#
# Youngs Moduli (GPa) = 58.14637 34.80376 62.33997
#
# Poissons Ratio (x) = -0.13721 0.50642
# Poissons Ratio (y) = -0.22924 -0.02014
# Poissons Ratio (z) = 0.47235 -0.01124
#
# Static dielectric constant tensor:
#      x y z
#    x 1.828050 0.000000 0.000000 
#    y 0.000000 1.894300 0.000000 
#    z 0.000000 0.000000 1.868040 
# 
# From -- ./inp_files/25234.got.cif
#   From: 2010.05.17/outbox.cif.g08.bks.cpg/sg43_13_cif.got.tgz:25234.got - 2010.06.03 19:21:55.
