data_PCOD9370743
_publ_section_title
;
Structure prediction by ZEFSAII (Michael W. Deem and Ramdas Pophale) SiO2 
 PCOD9370743
Probable space group: F D D 2
;
_chemical_formula_sum "Si O2"
_cell_formula_units_Z 112
_cell_length_a 16.727573
_cell_length_b 9.600345
_cell_length_c 28.909500
_cell_angle_alpha 90.000000
_cell_angle_beta 90.000000
_cell_angle_gamma 90.000000
_cell_volume 4642.590245
_symmetry_space_group_name_H-M "F D D 2"
_symmetry_group_IT_number 43
_symmetry_cell_setting 'orthorhombic'
loop_
_space_group_symop_operation_xyz
x,y,z
-x,-y,z
1/4-x,1/4+y,1/4+z
1/4+x,1/4-y,1/4+z
x,1/2+y,1/2+z
-x,1/2-y,1/2+z
1/4-x,3/4+y,3/4+z
1/4+x,3/4-y,3/4+z
1/2+x,y,1/2+z
1/2-x,-y,1/2+z
3/4-x,1/4+y,3/4+z
3/4+x,1/4-y,3/4+z
1/2+x,1/2+y,z
1/2-x,1/2-y,z
3/4-x,3/4+y,1/4+z
3/4+x,3/4-y,1/4+z
loop_
_atom_site_type_symbol
_atom_site_label
_atom_site_fract_x
_atom_site_fract_y
_atom_site_fract_z
Si Si1 0.282738 0.604829 0.660390
Si Si2 0.098259 0.239426 0.353405
Si Si3 0.294241 0.899050 0.052234
Si Si4 0.855422 0.978682 0.830945
Si Si5 0.315310 0.041953 0.857612
Si Si6 0.415996 0.075379 0.230444
Si Si7 0.486616 0.167385 0.703840
O O1 0.250000 0.750000 0.681702
O O2 0.208795 0.501930 0.648506
O O3 0.328543 0.660914 0.614264
O O4 0.347967 0.538716 0.693465
O O5 0.155585 0.369869 0.354356
O O6 0.149619 0.106457 0.341299
O O7 0.028062 0.251535 0.315230
O O8 0.250000 0.750000 0.054041
O O9 0.365017 0.893233 0.089366
O O10 0.319274 0.923159 0.999661
O O11 0.768328 0.913523 0.835357
O O12 0.884678 0.015223 0.779575
O O13 0.300019 0.002964 0.911116
O O14 0.435819 0.240440 0.219622
O O15 0.500000 0.000000 0.221795
O O16 0.500000 0.000000 0.694744
#
# Coordination Sequence:
#
# PCOD9370743 Si02
#       7
#    16  16  16  16  16  16  16
#     4  10  24  41  66 100 139 181 234 298 358 433
#     4  10  20  39  64  93 133 178 227 293 357 417
#     4   9  21  40  64  96 136 185 225 290 361 425
#     4  11  22  42  65 100 134 183 240 297 354 427
#     4  11  23  39  71 103 134 187 238 295 359 429
#     4  12  26  45  72 104 143 194 244 304 372 438
#     4  11  23  44  68 101 146 184 239 294 367 430
#
# _framework density 24.124462999999999
#
# number of rings (size 3 to 8) (size 9 to 14) (size 15 to 20)
#    0.000    1.429    2.857    2.571    4.000    2.286 
#    0.000    0.000    0.000    0.000    0.000    0.000 
#    0.000    0.000    0.000    0.000    0.000    0.000 
#
# Total GULP energy -156139.330093 kJ/mol
# GULP energy per Si atom -5576.404646 kJ/mol
# Density = 2.406955 g / cm^3
# Si number density = 24.124463 Si / 1000 Ang^3
#
#
#
# Elastic Constant Matrix: (Units=GPa)
#
#
# Indices 1 2 3 4 5 6 
#
# 1 120.5358 23.7682 48.7478 0.0000 0.0000 0.0000
# 2 23.7682 82.2934 4.9196 0.0000 0.0000 0.0000
# 3 48.7478 4.9196 150.2674 0.0000 0.0000 0.0000
# 4 0.0000 0.0000 0.0000 7.5926 0.0000 0.0000
# 5 0.0000 0.0000 0.0000 0.0000 19.7537 0.0000
# 6 0.0000 0.0000 0.0000 0.0000 0.0000 37.9373
#
#
#
# Elastic Compliance Matrix: (Units=1/GPa)
#
#
# Indices 1 2 3 4 5 6 
#
# 1 0.010128 -0.002734 -0.003196 0.000000 0.000000 0.000000
# 2 -0.002734 0.012914 0.000464 0.000000 0.000000 0.000000
# 3 -0.003196 0.000464 0.007676 0.000000 0.000000 0.000000
# 4 0.000000 0.000000 0.000000 0.131707 0.000000 0.000000
# 5 0.000000 0.000000 0.000000 0.000000 0.050623 0.000000
# 6 0.000000 0.000000 0.000000 0.000000 0.000000 0.026359
#
#
# Mechanical properties :
#
#
# Convention : Reuss Voigt Hill
#
# Bulk Modulus (GPa) = 50.54085 56.44087 53.49086
# Shear Modulus (GPa) = 19.46018 31.43413 25.44715
#
# Velocity S-wave (km/s) = 2.84325 3.61362 3.25133
# Velocity P-wave (km/s) = 5.63687 6.39199 6.02627
#
# Compressibility (1/GPa) = 0.01978598
#
# Stress axis : x y z
#
# Youngs Moduli (GPa) = 98.73606 77.43786 130.26880
#
# Poissons Ratio (x) = 0.21173 0.41635
# Poissons Ratio (y) = 0.26996 -0.06047
# Poissons Ratio (z) = 0.31557 -0.03595
#
# Static dielectric constant tensor:
#      x y z
#    x 1.896350 0.000000 0.000000 
#    y 0.000000 2.006030 0.000000 
#    z 0.000000 0.000000 2.011460 
# 
# From -- ./inp_files/29096.got.cif
#   From: 2010.05.17/outbox.cif.g08.bks.cpg/sg43_15_cif.got.tgz:29096.got - 2010.06.03 19:21:55.
