data_PCOD9370366
_publ_section_title
;
Structure prediction by ZEFSAII (Michael W. Deem and Ramdas Pophale) SiO2 
 PCOD9370366
Probable space group: F D D 2
;
_chemical_formula_sum "Si O2"
_cell_formula_units_Z 112
_cell_length_a 34.441955
_cell_length_b 11.221579
_cell_length_c 11.046589
_cell_angle_alpha 90.000000
_cell_angle_beta 90.000000
_cell_angle_gamma 90.000000
_cell_volume 4269.430636
_symmetry_space_group_name_H-M "F D D 2"
_symmetry_group_IT_number 43
_symmetry_cell_setting 'orthorhombic'
loop_
_space_group_symop_operation_xyz
x,y,z
-x,-y,z
1/4-x,1/4+y,1/4+z
1/4+x,1/4-y,1/4+z
x,1/2+y,1/2+z
-x,1/2-y,1/2+z
1/4-x,3/4+y,3/4+z
1/4+x,3/4-y,3/4+z
1/2+x,y,1/2+z
1/2-x,-y,1/2+z
3/4-x,1/4+y,3/4+z
3/4+x,1/4-y,3/4+z
1/2+x,1/2+y,z
1/2-x,1/2-y,z
3/4-x,3/4+y,1/4+z
3/4+x,3/4-y,1/4+z
loop_
_atom_site_type_symbol
_atom_site_label
_atom_site_fract_x
_atom_site_fract_y
_atom_site_fract_z
Si Si1 0.101520 0.770864 0.794330
Si Si2 0.787818 0.804108 0.059686
Si Si3 0.677873 0.350378 0.367281
Si Si4 0.751421 0.963287 0.846565
Si Si5 0.355591 0.740995 0.150527
Si Si6 0.462951 0.063368 0.728274
Si Si7 0.681408 0.389742 0.810823
O O1 0.070298 0.856865 0.861574
O O2 0.108319 0.649842 0.869602
O O3 0.082458 0.718711 0.674187
O O4 0.140596 0.842483 0.759918
O O5 0.750000 0.750000 0.125818
O O6 0.810732 0.694937 0.999550
O O7 0.770564 0.874249 0.943480
O O8 0.715847 0.389885 0.291612
O O9 0.657728 0.248059 0.288737
O O10 0.647258 0.454259 0.381256
O O11 0.729123 0.063591 0.926151
O O12 0.783422 0.026969 0.761567
O O13 0.323877 0.806410 0.066462
O O14 0.500000 0.000000 0.789732
O O15 0.451270 0.978495 0.615644
#
# Coordination Sequence:
#
# PCOD9370366 Si02
#       7
#    16  16  16  16  16  16  16
#     4  10  19  36  57  81 113 149 192 236 287 348
#     4   9  21  39  57  78 113 156 189 232 297 353
#     4  11  22  37  57  84 117 150 190 239 291 347
#     4   9  18  36  56  77 110 151 186 226 283 345
#     4  11  22  36  59  89 115 149 194 244 288 346
#     4   9  18  34  57  83 112 147 188 231 285 343
#     4   9  18  32  56  82 108 146 186 232 284 338
#
# _framework density 26.233004999999999
#
# number of rings (size 3 to 8) (size 9 to 14) (size 15 to 20)
#    0.000    2.286    0.000    4.286    0.000    4.000 
#    0.000    1.429    0.000    0.000    0.000    0.000 
#    0.000    0.000    0.000    0.000    0.000    0.000 
#
# Total GULP energy -156557.010516 kJ/mol
# GULP energy per Si atom -5591.321804 kJ/mol
# Density = 2.617330 g / cm^3
# Si number density = 26.233005 Si / 1000 Ang^3
#
#
#
# Elastic Constant Matrix: (Units=GPa)
#
#
# Indices 1 2 3 4 5 6 
#
# 1 163.6984 64.0491 20.6707 0.0000 0.0000 0.0000
# 2 64.0491 118.7923 16.1520 0.0000 0.0000 0.0000
# 3 20.6707 16.1520 34.0418 0.0000 0.0000 0.0000
# 4 0.0000 0.0000 0.0000 18.9650 0.0000 0.0000
# 5 0.0000 0.0000 0.0000 0.0000 32.7915 0.0000
# 6 0.0000 0.0000 0.0000 0.0000 0.0000 63.4639
#
#
#
# Elastic Compliance Matrix: (Units=1/GPa)
#
#
# Indices 1 2 3 4 5 6 
#
# 1 0.008021 -0.003915 -0.003013 0.000000 0.000000 0.000000
# 2 -0.003915 0.010910 -0.002799 0.000000 0.000000 0.000000
# 3 -0.003013 -0.002799 0.032533 0.000000 0.000000 0.000000
# 4 0.000000 0.000000 0.000000 0.052729 0.000000 0.000000
# 5 0.000000 0.000000 0.000000 0.000000 0.030496 0.000000
# 6 0.000000 0.000000 0.000000 0.000000 0.000000 0.015757
#
#
# Mechanical properties :
#
#
# Convention : Reuss Voigt Hill
#
# Bulk Modulus (GPa) = 31.24043 57.58623 44.41333
# Shear Modulus (GPa) = 27.69023 37.42145 32.55584
#
# Velocity S-wave (km/s) = 3.25245 3.78100 3.52664
# Velocity P-wave (km/s) = 5.10286 6.40787 5.79224
#
# Compressibility (1/GPa) = 0.03200980
#
# Stress axis : x y z
#
# Youngs Moduli (GPa) = 124.67185 91.66317 30.73784
#
# Poissons Ratio (x) = 0.35887 0.09261
# Poissons Ratio (y) = 0.48810 0.08604
# Poissons Ratio (z) = 0.37562 0.25657
#
# Static dielectric constant tensor:
#      x y z
#    x 2.100540 0.000000 0.000000 
#    y 0.000000 2.086230 0.000000 
#    z 0.000000 0.000000 2.063470 
# 
# From -- ./inp_files/11668.got.cif
#   From: 2010.05.17/outbox.cif.g08.bks.cpg/sg43_6_cif.got.tgz:11668.got - 2010.06.03 19:21:55.
