data_PCOD9370415
_publ_section_title
;
Structure prediction by ZEFSAII (Michael W. Deem and Ramdas Pophale) SiO2 
 PCOD9370415
Probable space group: F D D 2
;
_chemical_formula_sum "Si O2"
_cell_formula_units_Z 112
_cell_length_a 14.353160
_cell_length_b 25.622508
_cell_length_c 12.315048
_cell_angle_alpha 90.000000
_cell_angle_beta 90.000000
_cell_angle_gamma 90.000000
_cell_volume 4529.030782
_symmetry_space_group_name_H-M "F D D 2"
_symmetry_group_IT_number 43
_symmetry_cell_setting 'orthorhombic'
loop_
_space_group_symop_operation_xyz
x,y,z
-x,-y,z
1/4-x,1/4+y,1/4+z
1/4+x,1/4-y,1/4+z
x,1/2+y,1/2+z
-x,1/2-y,1/2+z
1/4-x,3/4+y,3/4+z
1/4+x,3/4-y,3/4+z
1/2+x,y,1/2+z
1/2-x,-y,1/2+z
3/4-x,1/4+y,3/4+z
3/4+x,1/4-y,3/4+z
1/2+x,1/2+y,z
1/2-x,1/2-y,z
3/4-x,3/4+y,1/4+z
3/4+x,3/4-y,1/4+z
loop_
_atom_site_type_symbol
_atom_site_label
_atom_site_fract_x
_atom_site_fract_y
_atom_site_fract_z
Si Si1 0.474032 0.623860 0.673060
Si Si2 0.290132 0.133531 0.607846
Si Si3 0.302919 0.515690 0.480072
Si Si4 0.008383 0.340720 0.640688
Si Si5 0.250000 0.250000 0.641431
Si Si6 0.858955 0.453076 0.176133
Si Si7 0.233593 0.860815 0.660423
Si Si8 0.750000 0.250000 0.602463
O O1 0.518398 0.680978 0.678608
O O2 0.546926 0.579355 0.636791
O O3 0.372298 0.626155 0.620473
O O4 0.455565 0.617295 0.802641
O O5 0.305775 0.111322 0.487028
O O6 0.388134 0.137374 0.670087
O O7 0.263076 0.194025 0.585186
O O8 0.217490 0.095403 0.671238
O O9 0.258341 0.470692 0.407345
O O10 0.411868 0.510851 0.463956
O O11 0.300693 0.496083 0.605192
O O12 0.996189 0.356280 0.517341
O O13 0.911243 0.485845 0.273232
O O14 0.248570 0.799810 0.681013
#
# Coordination Sequence:
#
# PCOD9370415 Si02
#       8
#    16  16  16  16   8  16  16   8
#     4  11  25  43  70 106 138 185 237 301 367 434
#     4  10  21  40  69  97 134 180 235 302 347 432
#     4  10  22  39  69  97 139 173 236 291 362 432
#     4  10  23  44  67  96 140 189 236 287 356 427
#     4  10  19  37  64 100 128 174 220 299 355 414
#     4  10  22  42  67 106 137 181 233 300 367 426
#     4  11  26  45  69  97 148 189 236 292 360 446
#     4  10  25  41  68 102 140 186 224 293 363 440
#
# _framework density 24.729351999999999
#
# number of rings (size 3 to 8) (size 9 to 14) (size 15 to 20)
#    0.000    1.714    1.429    1.286    6.000    8.571 
#    2.571    4.286    0.000    0.000    0.000    0.000 
#    0.000    0.000    0.000    0.000    0.000    0.000 
#
# Total GULP energy -156040.045822 kJ/mol
# GULP energy per Si atom -5572.858779 kJ/mol
# Density = 2.467307 g / cm^3
# Si number density = 24.729352 Si / 1000 Ang^3
#
#
#
# Elastic Constant Matrix: (Units=GPa)
#
#
# Indices 1 2 3 4 5 6 
#
# 1 80.6737 10.8313 3.0173 0.0000 0.0000 0.0000
# 2 10.8313 80.0502 6.8347 0.0000 0.0000 0.0000
# 3 3.0173 6.8347 78.5837 0.0000 0.0000 0.0000
# 4 0.0000 0.0000 0.0000 7.4641 0.0000 0.0000
# 5 0.0000 0.0000 0.0000 0.0000 25.8669 0.0000
# 6 0.0000 0.0000 0.0000 0.0000 0.0000 21.4149
#
#
#
# Elastic Compliance Matrix: (Units=1/GPa)
#
#
# Indices 1 2 3 4 5 6 
#
# 1 0.012634 -0.001681 -0.000339 0.000000 0.000000 0.000000
# 2 -0.001681 0.012809 -0.001050 0.000000 0.000000 0.000000
# 3 -0.000339 -0.001050 0.012830 0.000000 0.000000 0.000000
# 4 0.000000 0.000000 0.000000 0.133974 0.000000 0.000000
# 5 0.000000 0.000000 0.000000 0.000000 0.038659 0.000000
# 6 0.000000 0.000000 0.000000 0.000000 0.000000 0.046696
#
#
# Mechanical properties :
#
#
# Convention : Reuss Voigt Hill
#
# Bulk Modulus (GPa) = 31.11901 31.18603 31.15252
# Shear Modulus (GPa) = 18.21809 25.52414 21.87112
#
# Velocity S-wave (km/s) = 2.71716 3.21618 2.97715
# Velocity P-wave (km/s) = 4.73869 5.14102 4.94395
#
# Compressibility (1/GPa) = 0.03213469
#
# Stress axis : x y z
#
# Youngs Moduli (GPa) = 79.15200 78.06919 77.94490
#
# Poissons Ratio (x) = 0.13120 0.02642
# Poissons Ratio (y) = 0.13302 0.08181
# Poissons Ratio (z) = 0.02683 0.08194
#
# Static dielectric constant tensor:
#      x y z
#    x 2.008930 0.000000 0.000000 
#    y 0.000000 2.978380 0.000000 
#    z 0.000000 0.000000 2.064330 
# 
# From -- ./inp_files/10297.got.cif
#   From: 2010.05.17/outbox.cif.g08.bks.cpg/sg43_6_cif.got.tgz:10297.got - 2010.06.03 19:21:55.
