data_PCOD9370470
_publ_section_title
;
Structure prediction by ZEFSAII (Michael W. Deem and Ramdas Pophale) SiO2 
 PCOD9370470
Probable space group: F D D 2
;
_chemical_formula_sum "Si O2"
_cell_formula_units_Z 112
_cell_length_a 20.462787
_cell_length_b 9.762458
_cell_length_c 23.720834
_cell_angle_alpha 90.000000
_cell_angle_beta 90.000000
_cell_angle_gamma 90.000000
_cell_volume 4738.642186
_symmetry_space_group_name_H-M "F D D 2"
_symmetry_group_IT_number 43
_symmetry_cell_setting 'orthorhombic'
loop_
_space_group_symop_operation_xyz
x,y,z
-x,-y,z
1/4-x,1/4+y,1/4+z
1/4+x,1/4-y,1/4+z
x,1/2+y,1/2+z
-x,1/2-y,1/2+z
1/4-x,3/4+y,3/4+z
1/4+x,3/4-y,3/4+z
1/2+x,y,1/2+z
1/2-x,-y,1/2+z
3/4-x,1/4+y,3/4+z
3/4+x,1/4-y,3/4+z
1/2+x,1/2+y,z
1/2-x,1/2-y,z
3/4-x,3/4+y,1/4+z
3/4+x,3/4-y,1/4+z
loop_
_atom_site_type_symbol
_atom_site_label
_atom_site_fract_x
_atom_site_fract_y
_atom_site_fract_z
Si Si1 0.500000 0.000000 0.515410
Si Si2 0.842203 0.370586 0.035666
Si Si3 0.000000 0.000000 0.637307
Si Si4 0.482889 0.801232 0.615251
Si Si5 0.866831 0.956775 0.652072
Si Si6 0.132387 0.846829 0.160277
Si Si7 0.194089 0.443664 0.556759
Si Si8 0.378804 0.990209 0.452590
O O1 0.527699 0.113700 0.558658
O O2 0.556744 0.937742 0.476655
O O3 0.874359 0.376037 0.975530
O O4 0.879683 0.449412 0.084933
O O5 0.834431 0.209279 0.046893
O O6 0.769941 0.434204 0.042095
O O7 0.016188 0.860974 0.605077
O O8 0.939788 0.956353 0.676963
O O9 0.556310 0.841808 0.637135
O O10 0.424557 0.814134 0.661901
O O11 0.836043 0.807654 0.660218
O O12 0.842651 0.102685 0.672896
O O13 0.174001 0.953111 0.122389
O O14 0.160974 0.539402 0.510483
#
# Coordination Sequence:
#
# PCOD9370470 Si02
#       8
#     8  16   8  16  16  16  16  16
#     4  12  26  42  66 103 139 180 232 290 362 410
#     4  10  21  39  64  94 127 165 220 277 338 395
#     4   8  18  40  64  85 123 174 216 268 328 416
#     4  10  21  40  68  93 129 177 227 280 344 423
#     4   9  21  39  61  91 126 168 225 266 329 416
#     4  10  19  39  66  91 124 171 219 274 335 411
#     4  10  21  38  64  97 122 168 219 274 334 406
#     4  11  23  42  62  94 137 171 219 285 340 416
#
# _framework density 23.635462
#
# number of rings (size 3 to 8) (size 9 to 14) (size 15 to 20)
#    0.000    2.000    2.857    0.000    2.000    2.286 
#    5.143    2.857    0.000    0.000    0.000    0.000 
#    0.000    0.000    0.000    0.000    0.000    0.000 
#
# Total GULP energy -155960.808440 kJ/mol
# GULP energy per Si atom -5570.028873 kJ/mol
# Density = 2.358167 g / cm^3
# Si number density = 23.635462 Si / 1000 Ang^3
#
#
#
# Elastic Constant Matrix: (Units=GPa)
#
#
# Indices 1 2 3 4 5 6 
#
# 1 61.9020 2.4915 28.3055 0.0000 0.0000 0.0000
# 2 2.4915 62.0275 26.1338 0.0000 0.0000 0.0000
# 3 28.3055 26.1338 139.7776 0.0000 0.0000 0.0000
# 4 0.0000 0.0000 0.0000 35.0116 0.0000 0.0000
# 5 0.0000 0.0000 0.0000 0.0000 42.4623 0.0000
# 6 0.0000 0.0000 0.0000 0.0000 0.0000 19.2831
#
#
#
# Elastic Compliance Matrix: (Units=1/GPa)
#
#
# Indices 1 2 3 4 5 6 
#
# 1 0.017847 0.000875 -0.003778 0.000000 0.000000 0.000000
# 2 0.000875 0.017543 -0.003457 0.000000 0.000000 0.000000
# 3 -0.003778 -0.003457 0.008566 0.000000 0.000000 0.000000
# 4 0.000000 0.000000 0.000000 0.028562 0.000000 0.000000
# 5 0.000000 0.000000 0.000000 0.000000 0.023550 0.000000
# 6 0.000000 0.000000 0.000000 0.000000 0.000000 0.051859
#
#
# Mechanical properties :
#
#
# Convention : Reuss Voigt Hill
#
# Bulk Modulus (GPa) = 32.01476 41.95208 36.98342
# Shear Modulus (GPa) = 29.22975 33.13650 31.18312
#
# Velocity S-wave (km/s) = 3.52048 3.74837 3.63621
# Velocity P-wave (km/s) = 5.48631 6.04333 5.77155
#
# Compressibility (1/GPa) = 0.03123560
#
# Stress axis : x y z
#
# Youngs Moduli (GPa) = 56.03272 57.00171 116.74654
#
# Poissons Ratio (x) = -0.04986 0.44102
# Poissons Ratio (y) = -0.04901 0.40361
# Poissons Ratio (z) = 0.21167 0.19706
#
# Static dielectric constant tensor:
#      x y z
#    x 2.117790 0.000000 0.000000 
#    y 0.000000 1.986610 0.000000 
#    z 0.000000 0.000000 1.947920 
# 
# From -- ./inp_files/18630.got.cif
#   From: 2010.05.17/outbox.cif.g08.bks.cpg/sg43_10_cif.got.tgz:18630.got - 2010.06.03 19:21:55.
