data_PCOD9370181
_publ_section_title
;
Structure prediction by ZEFSAII (Michael W. Deem and Ramdas Pophale) SiO2 
 PCOD9370181
Probable space group: F D D 2
;
_chemical_formula_sum "Si O2"
_cell_formula_units_Z 104
_cell_length_a 30.784098
_cell_length_b 11.956694
_cell_length_c 15.099178
_cell_angle_alpha 90.000000
_cell_angle_beta 90.000000
_cell_angle_gamma 90.000000
_cell_volume 5557.645643
_symmetry_space_group_name_H-M "F D D 2"
_symmetry_group_IT_number 43
_symmetry_cell_setting 'orthorhombic'
loop_
_space_group_symop_operation_xyz
x,y,z
-x,-y,z
1/4-x,1/4+y,1/4+z
1/4+x,1/4-y,1/4+z
x,1/2+y,1/2+z
-x,1/2-y,1/2+z
1/4-x,3/4+y,3/4+z
1/4+x,3/4-y,3/4+z
1/2+x,y,1/2+z
1/2-x,-y,1/2+z
3/4-x,1/4+y,3/4+z
3/4+x,1/4-y,3/4+z
1/2+x,1/2+y,z
1/2-x,1/2-y,z
3/4-x,3/4+y,1/4+z
3/4+x,3/4-y,1/4+z
loop_
_atom_site_type_symbol
_atom_site_label
_atom_site_fract_x
_atom_site_fract_y
_atom_site_fract_z
Si Si1 0.900873 0.453703 0.138110
Si Si2 0.915232 0.642514 0.565757
Si Si3 0.765610 0.067224 0.368693
Si Si4 0.250000 0.750000 0.220102
Si Si5 0.595389 0.988800 0.937475
Si Si6 0.375521 0.920684 0.623878
Si Si7 0.828067 0.952073 0.940724
O O1 0.946239 0.392627 0.162729
O O2 0.862181 0.388788 0.186228
O O3 0.904331 0.583331 0.157446
O O4 0.897292 0.450090 0.031423
O O5 0.959840 0.704992 0.589119
O O6 0.875994 0.703529 0.616837
O O7 0.903336 0.665628 0.463350
O O8 0.911635 0.517016 0.604747
O O9 0.750219 0.142112 0.284990
O O10 0.723674 0.045845 0.427972
O O11 0.205345 0.748016 0.167165
O O12 0.400462 0.802345 0.634197
O O13 0.343223 0.948854 0.542669
#
# Coordination Sequence:
#
# PCOD9370181 Si02
#       7
#    16  16  16   8  16  16  16
#     4  10  19  35  58  93 113 150 198 251 307 355
#     4  10  21  41  57  85 117 160 202 251 296 365
#     4  10  19  35  63  80 120 144 197 255 300 348
#     4  10  18  34  56  96 114 146 186 258 308 356
#     4  10  19  34  62  83 120 147 193 253 301 348
#     4  10  23  38  59  80 121 165 201 235 310 365
#     4  11  20  37  62  84 119 162 193 250 300 373
#
# _framework density 18.712959999999999
#
# number of rings (size 3 to 8) (size 9 to 14) (size 15 to 20)
#    0.000    1.846    3.077    3.692    0.000    0.615 
#    0.000   13.846   13.538    0.000    0.000    0.000 
#    0.000    0.000    0.000    0.000    0.000    0.000 
#
# Total GULP energy -144844.022158 kJ/mol
# GULP energy per Si atom -5570.923929 kJ/mol
# Density = 1.867037 g / cm^3
# Si number density = 18.712960 Si / 1000 Ang^3
#
#
#
# Elastic Constant Matrix: (Units=GPa)
#
#
# Indices 1 2 3 4 5 6 
#
# 1 124.1419 46.4006 41.6511 0.0000 0.0000 0.0000
# 2 46.4006 132.9045 31.1498 0.0000 0.0000 0.0000
# 3 41.6511 31.1498 62.1115 0.0000 0.0000 0.0000
# 4 0.0000 0.0000 0.0000 21.7398 0.0000 0.0000
# 5 0.0000 0.0000 0.0000 0.0000 18.6655 0.0000
# 6 0.0000 0.0000 0.0000 0.0000 0.0000 26.8681
#
#
#
# Elastic Compliance Matrix: (Units=1/GPa)
#
#
# Indices 1 2 3 4 5 6 
#
# 1 0.011030 -0.002399 -0.006193 0.000000 0.000000 0.000000
# 2 -0.002399 0.009048 -0.002929 0.000000 0.000000 0.000000
# 3 -0.006193 -0.002929 0.021722 0.000000 0.000000 0.000000
# 4 0.000000 0.000000 0.000000 0.045999 0.000000 0.000000
# 5 0.000000 0.000000 0.000000 0.000000 0.053575 0.000000
# 6 0.000000 0.000000 0.000000 0.000000 0.000000 0.037219
#
#
# Mechanical properties :
#
#
# Convention : Reuss Voigt Hill
#
# Bulk Modulus (GPa) = 53.31224 61.95121 57.63172
# Shear Modulus (GPa) = 24.05141 26.78512 25.41827
#
# Velocity S-wave (km/s) = 3.58897 3.78745 3.68954
# Velocity P-wave (km/s) = 6.76207 7.23217 7.00107
#
# Compressibility (1/GPa) = 0.01875742
#
# Stress axis : x y z
#
# Youngs Moduli (GPa) = 90.66177 110.51747 46.03610
#
# Poissons Ratio (x) = 0.26517 0.28511
# Poissons Ratio (y) = 0.21753 0.13484
# Poissons Ratio (z) = 0.56149 0.32370
#
# Static dielectric constant tensor:
#      x y z
#    x 1.635820 0.000000 0.000000 
#    y 0.000000 1.730520 0.000000 
#    z 0.000000 0.000000 1.688660 
# 
# From -- ./inp_files/13431.got.cif
#   From: 2010.05.17/outbox.cif.g08.bks.cpg/sg43_7_cif.got.tgz:13431.got - 2010.06.03 19:21:55.
