data_PCOD9370613
_publ_section_title
;
Structure prediction by ZEFSAII (Michael W. Deem and Ramdas Pophale) SiO2 
 PCOD9370613
Probable space group: F D D 2
;
_chemical_formula_sum "Si O2"
_cell_formula_units_Z 72
_cell_length_a 18.716336
_cell_length_b 11.396806
_cell_length_c 13.536987
_cell_angle_alpha 90.000000
_cell_angle_beta 90.000000
_cell_angle_gamma 90.000000
_cell_volume 2887.526646
_symmetry_space_group_name_H-M "F D D 2"
_symmetry_group_IT_number 43
_symmetry_cell_setting 'orthorhombic'
loop_
_space_group_symop_operation_xyz
x,y,z
-x,-y,z
1/4-x,1/4+y,1/4+z
1/4+x,1/4-y,1/4+z
x,1/2+y,1/2+z
-x,1/2-y,1/2+z
1/4-x,3/4+y,3/4+z
1/4+x,3/4-y,3/4+z
1/2+x,y,1/2+z
1/2-x,-y,1/2+z
3/4-x,1/4+y,3/4+z
3/4+x,1/4-y,3/4+z
1/2+x,1/2+y,z
1/2-x,1/2-y,z
3/4-x,3/4+y,1/4+z
3/4+x,3/4-y,1/4+z
loop_
_atom_site_type_symbol
_atom_site_label
_atom_site_fract_x
_atom_site_fract_y
_atom_site_fract_z
Si Si1 0.290072 0.568215 0.648960
Si Si2 0.750000 0.250000 0.297450
Si Si3 0.159991 0.966228 0.239827
Si Si4 0.340009 0.966228 0.355074
Si Si5 0.209928 0.068215 0.445940
O O1 0.206610 0.554051 0.673966
O O2 0.328825 0.507356 0.742762
O O3 0.329471 0.691528 0.635674
O O4 0.302505 0.500000 0.547450
O O5 0.799113 0.160752 0.234855
O O6 0.700887 0.160752 0.360046
O O7 0.079471 0.941528 0.209226
O O8 0.171175 0.007356 0.352139
O O9 0.293390 0.054051 0.420935
#
# Coordination Sequence:
#
# PCOD9370613 Si02
#       5
#    16   8  16  16  16
#     4  10  20  37  59  90 118 159 203 252 293 364
#     4   8  16  28  52  84 112 134 198 238 288 324
#     4  10  21  33  59  90 119 151 206 252 298 348
#     4  10  21  33  59  90 119 151 206 252 298 348
#     4  10  20  37  59  90 118 159 203 252 293 364
#
# _framework density 24.934833999999999
#
# number of rings (size 3 to 8) (size 9 to 14) (size 15 to 20)
#    0.000    2.667    2.222    1.333    6.222    0.000 
#    0.000    8.889    0.000    0.000    0.000    0.000 
#    0.000    0.000    0.000    0.000    0.000    0.000 
#
# Total GULP energy -100589.327870 kJ/mol
# GULP energy per Si atom -5588.295993 kJ/mol
# Density = 2.487808 g / cm^3
# Si number density = 24.934834 Si / 1000 Ang^3
#
#
#
# Elastic Constant Matrix: (Units=GPa)
#
#
# Indices 1 2 3 4 5 6 
#
# 1 169.8781 58.7581 60.4775 0.0000 0.0000 0.0000
# 2 58.7581 132.5292 48.9946 0.0000 0.0000 0.0000
# 3 60.4775 48.9946 130.2369 0.0000 0.0000 0.0000
# 4 0.0000 0.0000 0.0000 14.6094 0.0000 0.0000
# 5 0.0000 0.0000 0.0000 0.0000 -17.0888 0.0000
# 6 0.0000 0.0000 0.0000 0.0000 0.0000 -37.3562
#
#
#
# Elastic Compliance Matrix: (Units=1/GPa)
#
#
# Indices 1 2 3 4 5 6 
#
# 1 0.007667 -0.002419 -0.002650 0.000000 0.000000 0.000000
# 2 -0.002419 0.009528 -0.002461 0.000000 0.000000 0.000000
# 3 -0.002650 -0.002461 0.009835 0.000000 0.000000 0.000000
# 4 0.000000 0.000000 0.000000 0.068449 0.000000 0.000000
# 5 0.000000 0.000000 0.000000 0.000000 -0.058518 0.000000
# 6 0.000000 0.000000 0.000000 0.000000 0.000000 -0.026769
#
#
# Mechanical properties :
#
#
# Convention : Reuss Voigt Hill
#
# Bulk Modulus (GPa) = 83.55094 85.45607 84.50350
# Shear Modulus (GPa) = 170.98827 9.66048 90.32437
#
# Velocity S-wave (km/s) = 8.28993 1.97046 6.02518
# Velocity P-wave (km/s) = 11.18977 6.28674 9.07563
#
# Compressibility (1/GPa) = 0.01196875
#
# Stress axis : x y z
#
# Youngs Moduli (GPa) = 130.43150 104.95425 101.68127
#
# Poissons Ratio (x) = 0.25394 0.26946
# Poissons Ratio (y) = 0.31558 0.25022
# Poissons Ratio (z) = 0.34565 0.25828
#
# Static dielectric constant tensor:
#      x y z
#    x 2.062330 0.000000 0.000000 
#    y 0.000000 2.086950 0.000000 
#    z 0.000000 0.000000 1.885080 
# 
# From -- ./inp_files/7002.got.cif
#   From: 2010.05.17/outbox.cif.g08.bks.cpg/sg43_4_cif.got.tgz:7002.got - 2010.06.03 19:21:55.
