data_PCOD9370589
_publ_section_title
;
Structure prediction by ZEFSAII (Michael W. Deem and Ramdas Pophale) SiO2 
 PCOD9370589
Probable space group: F D D 2
;
_chemical_formula_sum "Si O2"
_cell_formula_units_Z 96
_cell_length_a 19.513395
_cell_length_b 13.984280
_cell_length_c 15.487556
_cell_angle_alpha 90.000000
_cell_angle_beta 90.000000
_cell_angle_gamma 90.000000
_cell_volume 4226.256353
_symmetry_space_group_name_H-M "F D D 2"
_symmetry_group_IT_number 43
_symmetry_cell_setting 'orthorhombic'
loop_
_space_group_symop_operation_xyz
x,y,z
-x,-y,z
1/4-x,1/4+y,1/4+z
1/4+x,1/4-y,1/4+z
x,1/2+y,1/2+z
-x,1/2-y,1/2+z
1/4-x,3/4+y,3/4+z
1/4+x,3/4-y,3/4+z
1/2+x,y,1/2+z
1/2-x,-y,1/2+z
3/4-x,1/4+y,3/4+z
3/4+x,1/4-y,3/4+z
1/2+x,1/2+y,z
1/2-x,1/2-y,z
3/4-x,3/4+y,1/4+z
3/4+x,3/4-y,1/4+z
loop_
_atom_site_type_symbol
_atom_site_label
_atom_site_fract_x
_atom_site_fract_y
_atom_site_fract_z
Si Si1 0.750000 0.250000 0.313500
Si Si2 0.649465 0.251301 0.736594
Si Si3 0.500000 0.000000 0.644269
Si Si4 0.247011 0.037085 0.431711
Si Si5 0.184090 0.351178 0.971957
Si Si6 0.215065 0.047793 0.748545
Si Si7 0.750488 0.385813 0.641372
O O1 0.802313 0.203173 0.382712
O O2 0.767526 0.340975 0.256473
O O3 0.683194 0.256391 0.831402
O O4 0.568647 0.244312 0.726367
O O5 0.682892 0.341807 0.688187
O O6 0.684678 0.161106 0.688091
O O7 0.509470 0.900313 0.693843
O O8 0.184615 0.966645 0.457602
O O9 0.256965 0.012444 0.329917
O O10 0.116509 0.302332 0.006989
O O11 0.243517 0.349642 0.044099
O O12 0.243153 0.997253 0.662607
#
# Coordination Sequence:
#
# PCOD9370589 Si02
#       7
#     8  16   8  16  16  16  16
#     4  10  24  39  63  92 124 168 204 256 330 365
#     4  10  20  36  63  87 116 157 202 259 305 364
#     4  10  22  43  57  94 124 156 214 258 312 387
#     4  11  23  39  63  92 124 167 205 262 323 369
#     4  11  23  36  61  96 122 156 209 263 312 370
#     4  11  21  41  62  90 129 163 206 265 311 387
#     4  10  20  36  62  92 117 156 207 261 310 364
#
# _framework density 22.715140000000002
#
# number of rings (size 3 to 8) (size 9 to 14) (size 15 to 20)
#    0.000    1.667    5.000    2.000    4.667    0.000 
#    3.000    2.500    0.000    0.000    0.000    0.000 
#    0.000    0.000    0.000    0.000    0.000    0.000 
#
# Total GULP energy -133876.434701 kJ/mol
# GULP energy per Si atom -5578.184779 kJ/mol
# Density = 2.266344 g / cm^3
# Si number density = 22.715140 Si / 1000 Ang^3
#
#
#
# Elastic Constant Matrix: (Units=GPa)
#
#
# Indices 1 2 3 4 5 6 
#
# 1 24.8546 9.5468 8.5220 0.0000 0.0000 0.0000
# 2 9.5468 171.4013 20.0905 0.0000 0.0000 0.0000
# 3 8.5220 20.0905 37.6030 0.0000 0.0000 0.0000
# 4 0.0000 0.0000 0.0000 23.3836 0.0000 0.0000
# 5 0.0000 0.0000 0.0000 0.0000 -0.4044 0.0000
# 6 0.0000 0.0000 0.0000 0.0000 0.0000 14.9517
#
#
#
# Elastic Compliance Matrix: (Units=1/GPa)
#
#
# Indices 1 2 3 4 5 6 
#
# 1 0.043921 -0.001365 -0.009224 0.000000 0.000000 0.000000
# 2 -0.001365 0.006266 -0.003039 0.000000 0.000000 0.000000
# 3 -0.009224 -0.003039 0.030308 0.000000 0.000000 0.000000
# 4 0.000000 0.000000 0.000000 0.042765 0.000000 0.000000
# 5 0.000000 0.000000 0.000000 0.000000 -2.473090 0.000000
# 6 0.000000 0.000000 0.000000 0.000000 0.000000 0.066882
#
#
# Mechanical properties :
#
#
# Convention : Reuss Voigt Hill
#
# Bulk Modulus (GPa) = 18.78331 34.46414 26.62373
# Shear Modulus (GPa) = -2.23419 20.63284 9.19932
#
# Velocity S-wave (km/s) = -0.99283 3.01712 2.01461
# Velocity P-wave (km/s) = 2.64060 5.22902 4.14218
#
# Compressibility (1/GPa) = 0.05323876
#
# Stress axis : x y z
#
# Youngs Moduli (GPa) = 22.76807 159.57950 32.99495
#
# Poissons Ratio (x) = 0.21784 0.30436
# Poissons Ratio (y) = 0.03108 0.10026
# Poissons Ratio (z) = 0.21002 0.48491
#
# Static dielectric constant tensor:
#      x y z
#    x 1.838990 0.000000 0.000000 
#    y 0.000000 1.898060 0.000000 
#    z 0.000000 0.000000 1.876140 
# 
# From -- ./inp_files/10935.got.cif
#   From: 2010.05.17/outbox.cif.g08.bks.cpg/sg43_6_cif.got.tgz:10935.got - 2010.06.03 19:21:55.
