data_PCOD9370381
_publ_section_title
;
Structure prediction by ZEFSAII (Michael W. Deem and Ramdas Pophale) SiO2 
 PCOD9370381
Probable space group: F D D 2
;
_chemical_formula_sum "Si O2"
_cell_formula_units_Z 120
_cell_length_a 10.634893
_cell_length_b 22.243230
_cell_length_c 25.933732
_cell_angle_alpha 90.000000
_cell_angle_beta 90.000000
_cell_angle_gamma 90.000000
_cell_volume 6134.737662
_symmetry_space_group_name_H-M "F D D 2"
_symmetry_group_IT_number 43
_symmetry_cell_setting 'orthorhombic'
loop_
_space_group_symop_operation_xyz
x,y,z
-x,-y,z
1/4-x,1/4+y,1/4+z
1/4+x,1/4-y,1/4+z
x,1/2+y,1/2+z
-x,1/2-y,1/2+z
1/4-x,3/4+y,3/4+z
1/4+x,3/4-y,3/4+z
1/2+x,y,1/2+z
1/2-x,-y,1/2+z
3/4-x,1/4+y,3/4+z
3/4+x,1/4-y,3/4+z
1/2+x,1/2+y,z
1/2-x,1/2-y,z
3/4-x,3/4+y,1/4+z
3/4+x,3/4-y,1/4+z
loop_
_atom_site_type_symbol
_atom_site_label
_atom_site_fract_x
_atom_site_fract_y
_atom_site_fract_z
Si Si1 0.500000 0.000000 0.940161
Si Si2 0.802687 0.106838 0.012847
Si Si3 0.695493 0.476511 0.525523
Si Si4 0.850799 0.299492 0.556941
Si Si5 0.095820 0.325726 0.606935
Si Si6 0.453611 0.351776 0.872709
Si Si7 0.966384 0.430966 0.664396
Si Si8 0.084764 0.602281 0.478259
O O1 0.404687 0.032406 0.979729
O O2 0.578083 0.044431 0.902733
O O3 0.819897 0.154451 0.058836
O O4 0.747494 0.145581 0.966098
O O5 0.939235 0.085396 0.989850
O O6 0.725395 0.047743 0.028969
O O7 0.654318 0.445086 0.579551
O O8 0.823247 0.444262 0.506341
O O9 0.750000 0.250000 0.542847
O O10 0.770285 0.345533 0.591005
O O11 0.897971 0.334537 0.507142
O O12 0.977310 0.284613 0.589071
O O13 0.033680 0.390059 0.621652
O O14 0.567665 0.320781 0.903744
O O15 0.379618 0.385425 0.918646
O O16 0.000000 0.500000 0.664261
#
# Coordination Sequence:
#
# PCOD9370381 Si02
#       8
#     8  16  16  16  16  16  16  16
#     4  12  26  42  54  88 130 168 208 244 308 388
#     4  10  20  38  66  91 115 161 208 260 315 360
#     4  11  22  42  59  88 128 163 213 253 306 383
#     4   9  19  36  62  92 116 148 204 257 308 359
#     4  10  22  40  58  89 125 161 205 253 311 377
#     4   9  20  36  61  89 115 157 199 252 314 361
#     4  10  19  36  62  92 116 146 204 266 309 362
#     4   9  20  38  63  96 119 152 209 261 309 361
#
# _framework density 19.560739000000002
#
# number of rings (size 3 to 8) (size 9 to 14) (size 15 to 20)
#    0.000    2.133    1.333    2.000    2.800    0.000 
#    3.600    9.333    0.000    0.000    0.000    0.000 
#    0.000    0.000    0.000    0.000    0.000    0.000 
#
# Total GULP energy -167118.587983 kJ/mol
# GULP energy per Si atom -5570.619599 kJ/mol
# Density = 1.951622 g / cm^3
# Si number density = 19.560739 Si / 1000 Ang^3
#
#
#
# Elastic Constant Matrix: (Units=GPa)
#
#
# Indices 1 2 3 4 5 6 
#
# 1 27.2330 -1.6386 -6.6232 0.0000 0.0000 0.0000
# 2 -1.6386 33.6146 -7.2723 0.0000 0.0000 0.0000
# 3 -6.6232 -7.2723 93.3168 0.0000 0.0000 0.0000
# 4 0.0000 0.0000 0.0000 24.1077 0.0000 0.0000
# 5 0.0000 0.0000 0.0000 0.0000 26.3939 0.0000
# 6 0.0000 0.0000 0.0000 0.0000 0.0000 16.9635
#
#
#
# Elastic Compliance Matrix: (Units=1/GPa)
#
#
# Indices 1 2 3 4 5 6 
#
# 1 0.037562 0.002449 0.002857 0.000000 0.000000 0.000000
# 2 0.002449 0.030419 0.002544 0.000000 0.000000 0.000000
# 3 0.002857 0.002544 0.011117 0.000000 0.000000 0.000000
# 4 0.000000 0.000000 0.000000 0.041481 0.000000 0.000000
# 5 0.000000 0.000000 0.000000 0.000000 0.037888 0.000000
# 6 0.000000 0.000000 0.000000 0.000000 0.000000 0.058950
#
#
# Mechanical properties :
#
#
# Convention : Reuss Voigt Hill
#
# Bulk Modulus (GPa) = 10.54862 13.67735 12.11298
# Shear Modulus (GPa) = 21.43020 24.80624 23.11822
#
# Velocity S-wave (km/s) = 3.31353 3.56499 3.44156
# Velocity P-wave (km/s) = 4.47703 4.89418 4.69024
#
# Compressibility (1/GPa) = 0.09479915
#
# Stress axis : x y z
#
# Youngs Moduli (GPa) = 26.62241 32.87441 89.95033
#
# Poissons Ratio (x) = -0.08051 -0.25698
# Poissons Ratio (y) = -0.06520 -0.22887
# Poissons Ratio (z) = -0.07606 -0.08365
#
# Static dielectric constant tensor:
#      x y z
#    x 1.721170 0.000000 0.000000 
#    y 0.000000 1.695750 0.000000 
#    z 0.000000 0.000000 1.738010 
# 
# From -- ./inp_files/21224.got.cif
#   From: 2010.05.17/outbox.cif.g08.bks.cpg/sg43_11_cif.got.tgz:21224.got - 2010.06.03 19:21:55.
