data_PCOD9370010
_publ_section_title
;
Structure prediction by ZEFSAII (Michael W. Deem and Ramdas Pophale) SiO2 
 PCOD9370010
Probable space group: F M M 2
;
_chemical_formula_sum "Si O2"
_cell_formula_units_Z 24
_cell_length_a 24.000000
_cell_length_b 9.000000
_cell_length_c 24.000000
_cell_angle_alpha 90.000000
_cell_angle_beta 90.000000
_cell_angle_gamma 90.000000
_cell_volume 5184.000000
_symmetry_space_group_name_H-M "F M M 2"
_symmetry_group_IT_number 42
_symmetry_cell_setting 'orthorhombic'
loop_
_space_group_symop_operation_xyz
x,y,z
-x,-y,z
-x,y,z
x,-y,z
x,1/2+y,1/2+z
-x,1/2-y,1/2+z
-x,1/2+y,1/2+z
x,1/2-y,1/2+z
1/2+x,y,1/2+z
1/2-x,-y,1/2+z
1/2-x,y,1/2+z
1/2+x,-y,1/2+z
1/2+x,1/2+y,z
1/2-x,1/2-y,z
1/2-x,1/2+y,z
1/2+x,1/2-y,z
loop_
_atom_site_type_symbol
_atom_site_label
_atom_site_fract_x
_atom_site_fract_y
_atom_site_fract_z
Si Si1 0.500000 0.171187 0.700770
Si Si2 0.120988 0.826413 0.245245
Si Si3 0.689508 0.676599 0.650662
Si Si4 0.306910 0.821314 0.970725
Si Si5 0.196019 0.174446 0.341725
Si Si6 0.500000 0.175609 0.085397
Si Si7 0.385036 0.177477 0.554323
O O1 0.444143 0.189366 0.735582
O O2 0.500000 0.287385 0.650944
O O3 0.500000 0.000000 0.678099
O O4 0.155449 0.718114 0.205868
O O5 0.140762 0.796201 0.307438
O O6 0.135318 0.000000 0.231649
O O7 0.693159 0.500000 0.642124
O O8 0.750000 0.750000 0.653145
O O9 0.654098 0.754216 0.602181
O O10 0.250000 0.750000 0.994297
O O11 0.308657 0.782512 0.905646
O O12 0.307231 0.000000 0.978247
O O13 0.358313 0.740954 0.998651
O O14 0.250000 0.250000 0.315321
O O15 0.206762 0.000000 0.340715
O O16 0.554345 0.254579 0.061829
O O17 0.500000 0.000000 0.075490
O O18 0.385417 0.000000 0.557317
#
# Coordination Sequence:
#
# PCOD9370010 Si02
#       7
#     8  16  16  16  16   8  16
#     4  10  20  36  59  82 115 157 196 234 284 341
#     4  10  20  36  57  84 116 153 195 237 287 345
#     4  12  24  37  55  83 116 150 188 238 293 348
#     4  10  20  37  59  86 118 154 196 242 292 346
#     4   9  19  35  57  84 116 153 194 238 289 346
#     4  12  24  40  61  86 115 151 196 238 286 343
#     4  12  24  40  60  84 115 152 193 237 290 347
#
# _framework density 4.6296299999999997
#
# number of rings (size 3 to 8) (size 9 to 14) (size 15 to 20)
#    0.000    1.333    1.667    5.250    0.000    2.667 
#    0.000    0.833    0.000    3.000    0.000    0.000 
#    0.000    0.000    0.000    0.000    0.000    0.000 
#
# Total GULP energy -133973.213417 kJ/mol
# GULP energy per Si atom -5582.217226 kJ/mol
# Density = 0.461909 g / cm^3
# Si number density = 4.629630 Si / 1000 Ang^3
#
#
#
# Elastic Constant Matrix: (Units=GPa)
#
#
# Indices 1 2 3 4 5 6 
#
# 1 144.3562 63.1646 53.6954 0.0000 0.0000 0.0000
# 2 63.1646 112.2222 44.7945 0.0000 0.0000 0.0000
# 3 53.6954 44.7945 65.3803 0.0000 0.0000 0.0000
# 4 0.0000 0.0000 0.0000 21.2264 0.0000 0.0000
# 5 0.0000 0.0000 0.0000 0.0000 17.9526 0.0000
# 6 0.0000 0.0000 0.0000 0.0000 0.0000 41.3600
#
#
#
# Elastic Compliance Matrix: (Units=1/GPa)
#
#
# Indices 1 2 3 4 5 6 
#
# 1 0.010902 -0.003527 -0.006537 0.000000 0.000000 0.000000
# 2 -0.003527 0.013406 -0.006288 0.000000 0.000000 0.000000
# 3 -0.006537 -0.006288 0.024973 0.000000 0.000000 0.000000
# 4 0.000000 0.000000 0.000000 0.047111 0.000000 0.000000
# 5 0.000000 0.000000 0.000000 0.000000 0.055702 0.000000
# 6 0.000000 0.000000 0.000000 0.000000 0.000000 0.024178
#
#
# Mechanical properties :
#
#
# Convention : Reuss Voigt Hill
#
# Bulk Modulus (GPa) = 60.33005 71.69641 66.01323
# Shear Modulus (GPa) = 23.30973 26.79474 25.05224
#
# Velocity S-wave (km/s) = 3.55170 3.80796 3.68206
# Velocity P-wave (km/s) = 7.03338 7.62458 7.33494
#
# Compressibility (1/GPa) = 0.01657549
#
# Stress axis : x y z
#
# Youngs Moduli (GPa) = 91.72468 74.59285 40.04397
#
# Poissons Ratio (x) = 0.26308 0.26178
# Poissons Ratio (y) = 0.32350 0.25182
# Poissons Ratio (z) = 0.59963 0.46907
#
# Static dielectric constant tensor:
#      x y z
#    x 1.725570 0.000000 0.000000 
#    y 0.000000 1.617730 0.000000 
#    z 0.000000 0.000000 1.720160 
# 
# From -- ./inp_files/28062.got.cif
#   From: 2010.05.17/outbox.ucp.g08.bks.cvg/sg42_15_cif.got.tgz:28062.got - 2010.06.11 16:29:10.
