data_PCOD9370823
_publ_section_title
;
Structure prediction by ZEFSAII (Michael W. Deem and Ramdas Pophale) SiO2 
 PCOD9370823
Probable space group: F D D 2
;
_chemical_formula_sum "Si O2"
_cell_formula_units_Z 88
_cell_length_a 6.257883
_cell_length_b 25.778596
_cell_length_c 26.698856
_cell_angle_alpha 90.000000
_cell_angle_beta 90.000000
_cell_angle_gamma 90.000000
_cell_volume 4307.044436
_symmetry_space_group_name_H-M "F D D 2"
_symmetry_group_IT_number 43
_symmetry_cell_setting 'orthorhombic'
loop_
_space_group_symop_operation_xyz
x,y,z
-x,-y,z
1/4-x,1/4+y,1/4+z
1/4+x,1/4-y,1/4+z
x,1/2+y,1/2+z
-x,1/2-y,1/2+z
1/4-x,3/4+y,3/4+z
1/4+x,3/4-y,3/4+z
1/2+x,y,1/2+z
1/2-x,-y,1/2+z
3/4-x,1/4+y,3/4+z
3/4+x,1/4-y,3/4+z
1/2+x,1/2+y,z
1/2-x,1/2-y,z
3/4-x,3/4+y,1/4+z
3/4+x,3/4-y,1/4+z
loop_
_atom_site_type_symbol
_atom_site_label
_atom_site_fract_x
_atom_site_fract_y
_atom_site_fract_z
Si Si1 0.859700 0.378876 0.683790
Si Si2 0.086598 0.712241 0.884221
Si Si3 0.992547 0.379402 0.101702
Si Si4 0.000000 0.000000 0.707700
Si Si5 0.991046 0.384932 0.249170
Si Si6 0.738426 0.810879 0.670400
O O1 0.663924 0.386830 0.645958
O O2 0.743630 0.375466 0.737728
O O3 0.033003 0.422865 0.670232
O O4 0.991210 0.327282 0.671869
O O5 0.250000 0.750000 0.855694
O O6 0.922423 0.677685 0.852376
O O7 0.951589 0.748836 0.920835
O O8 0.850404 0.329892 0.118702
O O9 0.133687 0.373927 0.052537
O O10 0.976179 0.946477 0.737399
O O11 0.858704 0.346026 0.212526
O O12 0.750000 0.750000 0.678507
#
# Coordination Sequence:
#
# PCOD9370823 Si02
#       6
#    16  16  16   8  16  16
#     4  10  20  40  67  91 131 181 219 284 347 401
#     4  11  19  39  68  93 132 183 219 279 360 400
#     4  10  23  41  65 101 135 171 234 284 340 422
#     4  12  20  40  70 100 130 172 218 302 340 404
#     4  11  23  40  66 103 135 168 237 284 342 420
#     4  10  23  45  66  90 142 190 224 278 351 418
#
# _framework density 20.431643000000001
#
# number of rings (size 3 to 8) (size 9 to 14) (size 15 to 20)
#    0.000    1.455    7.273    0.000    0.000    7.273 
#    4.909    0.909    0.000    0.000    0.000    0.000 
#    0.000    0.000    0.000    0.000    0.000    0.000 
#
# Total GULP energy -122575.994077 kJ/mol
# GULP energy per Si atom -5571.636094 kJ/mol
# Density = 2.038514 g / cm^3
# Si number density = 20.431643 Si / 1000 Ang^3
#
#
#
# Elastic Constant Matrix: (Units=GPa)
#
#
# Indices 1 2 3 4 5 6 
#
# 1 118.9631 61.2400 37.1687 0.0000 0.0000 0.0000
# 2 61.2400 161.9712 38.3859 0.0000 0.0000 0.0000
# 3 37.1687 38.3859 91.7004 0.0000 0.0000 0.0000
# 4 0.0000 0.0000 0.0000 11.7284 0.0000 0.0000
# 5 0.0000 0.0000 0.0000 0.0000 36.0022 0.0000
# 6 0.0000 0.0000 0.0000 0.0000 0.0000 33.7300
#
#
#
# Elastic Compliance Matrix: (Units=1/GPa)
#
#
# Indices 1 2 3 4 5 6 
#
# 1 0.011161 -0.003495 -0.003061 0.000000 0.000000 0.000000
# 2 -0.003495 0.007948 -0.001911 0.000000 0.000000 0.000000
# 3 -0.003061 -0.001911 0.012946 0.000000 0.000000 0.000000
# 4 0.000000 0.000000 0.000000 0.085263 0.000000 0.000000
# 5 0.000000 0.000000 0.000000 0.000000 0.027776 0.000000
# 6 0.000000 0.000000 0.000000 0.000000 0.000000 0.029647
#
#
# Mechanical properties :
#
#
# Convention : Reuss Voigt Hill
#
# Bulk Modulus (GPa) = 66.12741 71.80265 68.96503
# Shear Modulus (GPa) = 25.41748 32.01480 28.71614
#
# Velocity S-wave (km/s) = 3.53090 3.96273 3.75303
# Velocity P-wave (km/s) = 7.00418 7.49379 7.25311
#
# Compressibility (1/GPa) = 0.01512232
#
# Stress axis : x y z
#
# Youngs Moduli (GPa) = 89.59519 125.81802 77.24612
#
# Poissons Ratio (x) = 0.43967 0.23646
# Poissons Ratio (y) = 0.31309 0.14759
# Poissons Ratio (z) = 0.27427 0.24039
#
# Static dielectric constant tensor:
#      x y z
#    x 1.781340 0.000000 0.000000 
#    y 0.000000 1.773250 0.000000 
#    z 0.000000 0.000000 1.777160 
# 
# From -- ./inp_files/26793.got.cif
#   From: 2010.05.17/outbox.cif.g08.bks.cpg/sg43_14_cif.got.tgz:26793.got - 2010.06.03 19:21:55.
