data_PCOD9370087
_publ_section_title
;
Structure prediction by ZEFSAII (Michael W. Deem and Ramdas Pophale) SiO2 
 PCOD9370087
Probable space group: F D D 2
;
_chemical_formula_sum "Si O2"
_cell_formula_units_Z 104
_cell_length_a 21.819930
_cell_length_b 30.022387
_cell_length_c 7.089503
_cell_angle_alpha 90.000000
_cell_angle_beta 90.000000
_cell_angle_gamma 90.000000
_cell_volume 4644.236876
_symmetry_space_group_name_H-M "F D D 2"
_symmetry_group_IT_number 43
_symmetry_cell_setting 'orthorhombic'
loop_
_space_group_symop_operation_xyz
x,y,z
-x,-y,z
1/4-x,1/4+y,1/4+z
1/4+x,1/4-y,1/4+z
x,1/2+y,1/2+z
-x,1/2-y,1/2+z
1/4-x,3/4+y,3/4+z
1/4+x,3/4-y,3/4+z
1/2+x,y,1/2+z
1/2-x,-y,1/2+z
3/4-x,1/4+y,3/4+z
3/4+x,1/4-y,3/4+z
1/2+x,1/2+y,z
1/2-x,1/2-y,z
3/4-x,3/4+y,1/4+z
3/4+x,3/4-y,1/4+z
loop_
_atom_site_type_symbol
_atom_site_label
_atom_site_fract_x
_atom_site_fract_y
_atom_site_fract_z
Si Si1 0.850263 0.158044 0.742300
Si Si2 0.250000 0.250000 0.721706
Si Si3 0.326114 0.902828 0.865693
Si Si4 0.387882 0.241848 0.737126
Si Si5 0.944126 0.314407 0.482187
Si Si6 0.976525 0.060761 0.134603
Si Si7 0.133062 0.496404 0.534905
O O1 0.872221 0.149666 0.956737
O O2 0.846847 0.107323 0.667340
O O3 0.780151 0.173830 0.747899
O O4 0.886079 0.204039 0.694038
O O5 0.318188 0.251712 0.808743
O O6 0.246530 0.291590 0.577860
O O7 0.263107 0.919462 0.767267
O O8 0.313599 0.853590 0.938408
O O9 0.345928 0.940133 0.013636
O O10 0.434820 0.275520 0.831754
O O11 0.393241 0.249033 0.510236
O O12 0.922722 0.290100 0.675532
O O13 0.935269 0.023887 0.034408
#
# Coordination Sequence:
#
# PCOD9370087 Si02
#       7
#    16   8  16  16  16  16  16
#     4  10  19  38  61  92 119 163 206 253 304 371
#     4  10  18  40  66  82 124 164 210 256 302 366
#     4  10  21  36  66  89 129 161 205 256 316 374
#     4  10  23  42  62  92 126 157 210 257 302 373
#     4  11  24  40  63  93 125 163 206 256 317 368
#     4  10  16  35  66  86 113 168 209 248 304 368
#     4  10  20  40  67  84 120 166 203 254 309 356
#
# _framework density 22.393346999999999
#
# number of rings (size 3 to 8) (size 9 to 14) (size 15 to 20)
#    0.000    1.846    6.154    0.000    4.308    0.000 
#    8.308    0.000    6.769    0.000    0.000    0.000 
#    0.000    0.000    0.000    0.000    0.000    0.000 
#
# Total GULP energy -144905.035160 kJ/mol
# GULP energy per Si atom -5573.270583 kJ/mol
# Density = 2.234238 g / cm^3
# Si number density = 22.393347 Si / 1000 Ang^3
#
#
#
# Elastic Constant Matrix: (Units=GPa)
#
#
# Indices 1 2 3 4 5 6 
#
# 1 32.4400 3.9361 6.7617 -0.0300 -0.0071 0.0112
# 2 3.9361 140.9440 4.8287 -0.0001 0.0009 0.0070
# 3 6.7617 4.8287 46.5823 -0.0426 0.0144 0.0195
# 4 -0.0300 -0.0001 -0.0426 -5.5933 0.0337 0.0159
# 5 -0.0071 0.0009 0.0144 0.0337 8.3075 -0.0132
# 6 0.0112 0.0070 0.0195 0.0159 -0.0132 35.2519
#
#
#
# Elastic Compliance Matrix: (Units=1/GPa)
#
#
# Indices 1 2 3 4 5 6 
#
# 1 0.031863 -0.000734 -0.004549 -0.000136 0.000036 -0.000007
# 2 -0.000734 0.007137 -0.000633 0.000009 0.000000 -0.000001
# 3 -0.004549 -0.000633 0.022193 -0.000145 -0.000042 -0.000011
# 4 -0.000136 0.000009 -0.000145 -0.178777 0.000726 0.000081
# 5 0.000036 0.000000 -0.000042 0.000726 0.120371 0.000045
# 6 -0.000007 -0.000001 -0.000011 0.000081 0.000045 0.028367
#
#
# Mechanical properties :
#
#
# Convention : Reuss Voigt Hill
#
# Bulk Modulus (GPa) = 20.25897 27.89102 24.07500
# Shear Modulus (GPa) = 84.11682 21.22252 52.66967
#
# Velocity S-wave (km/s) = 6.13554 3.08184 4.85503
# Velocity P-wave (km/s) = 7.69803 5.01455 6.49636
#
# Compressibility (1/GPa) = 0.04936085
#
# Stress axis : x y z
#
# Youngs Moduli (GPa) = 31.38407 140.11079 45.05875
#
# Poissons Ratio (x) = 0.10284 0.20498
# Poissons Ratio (y) = 0.02304 0.02854
# Poissons Ratio (z) = 0.14277 0.08873
#
# Static dielectric constant tensor:
#      x y z
#    x 1.876700 0.000000 0.000010 
#    y 0.000000 1.882410 0.000000 
#    z 0.000010 0.000000 1.837270 
# 
# From -- ./inp_files/3836.got.cif
#   From: 2010.05.17/outbox.cif.g08.bks.cpg/sg43_2_cif.got.tgz:3836.got - 2010.06.03 19:21:55.
