data_PCOD9370834
_publ_section_title
;
Structure prediction by ZEFSAII (Michael W. Deem and Ramdas Pophale) SiO2 
 PCOD9370834
Probable space group: F D D 2
;
_chemical_formula_sum "Si O2"
_cell_formula_units_Z 120
_cell_length_a 8.783883
_cell_length_b 25.041886
_cell_length_c 27.465654
_cell_angle_alpha 90.000000
_cell_angle_beta 90.000000
_cell_angle_gamma 90.000000
_cell_volume 6041.482492
_symmetry_space_group_name_H-M "F D D 2"
_symmetry_group_IT_number 43
_symmetry_cell_setting 'orthorhombic'
loop_
_space_group_symop_operation_xyz
x,y,z
-x,-y,z
1/4-x,1/4+y,1/4+z
1/4+x,1/4-y,1/4+z
x,1/2+y,1/2+z
-x,1/2-y,1/2+z
1/4-x,3/4+y,3/4+z
1/4+x,3/4-y,3/4+z
1/2+x,y,1/2+z
1/2-x,-y,1/2+z
3/4-x,1/4+y,3/4+z
3/4+x,1/4-y,3/4+z
1/2+x,1/2+y,z
1/2-x,1/2-y,z
3/4-x,3/4+y,1/4+z
3/4+x,3/4-y,1/4+z
loop_
_atom_site_type_symbol
_atom_site_label
_atom_site_fract_x
_atom_site_fract_y
_atom_site_fract_z
Si Si1 0.056022 0.670477 0.952150
Si Si2 0.029478 0.162275 0.698238
Si Si3 0.318455 0.990963 0.778479
Si Si4 0.500000 0.500000 0.485296
Si Si5 0.315603 0.925685 0.343146
Si Si6 0.116826 0.390059 0.292057
Si Si7 0.696481 0.689966 0.347254
Si Si8 0.591042 0.847930 0.785758
O O1 0.137998 0.685520 0.902388
O O2 0.908757 0.633657 0.942178
O O3 0.011660 0.722980 0.983054
O O4 0.164611 0.635521 0.987837
O O5 0.122965 0.217378 0.705358
O O6 0.926604 0.167467 0.650543
O O7 0.935992 0.145274 0.746003
O O8 0.248279 0.932081 0.777411
O O9 0.500000 0.000000 0.777823
O O10 0.258350 0.018237 0.827915
O O11 0.577312 0.544414 0.518552
O O12 0.471243 0.920755 0.313442
O O13 0.199989 0.881016 0.321934
O O14 0.169482 0.350793 0.334867
O O15 0.750000 0.750000 0.336969
O O16 0.562341 0.669430 0.311892
#
# Coordination Sequence:
#
# PCOD9370834 Si02
#       8
#    16  16  16   8  16  16  16  16
#     4  10  22  43  68  97 129 178 225 277 335 419
#     4  11  23  41  68  99 138 179 231 281 343 399
#     4  11  24  43  71  97 139 176 223 279 345 404
#     4  10  20  40  68  96 136 182 226 278 336 410
#     4  11  23  41  67 101 132 180 227 276 340 403
#     4  12  25  46  67 103 142 172 226 291 335 404
#     4  12  26  41  67 100 134 176 227 280 345 403
#     4  10  21  43  66  92 137 176 227 272 342 404
#
# _framework density 19.862673999999998
#
# number of rings (size 3 to 8) (size 9 to 14) (size 15 to 20)
#    0.000    1.067    5.333    3.200    0.933    4.267 
#    0.000    2.667    0.000    0.000    0.000    0.000 
#    0.000    0.000    0.000    0.000    0.000    0.000 
#
# Total GULP energy -167563.531601 kJ/mol
# GULP energy per Si atom -5585.451053 kJ/mol
# Density = 1.981747 g / cm^3
# Si number density = 19.862674 Si / 1000 Ang^3
#
#
#
# Elastic Constant Matrix: (Units=GPa)
#
#
# Indices 1 2 3 4 5 6 
#
# 1 56.6981 16.1274 9.6134 0.0000 0.0000 0.0000
# 2 16.1274 111.9010 15.2577 0.0000 0.0000 0.0000
# 3 9.6134 15.2577 99.7269 0.0000 0.0000 0.0000
# 4 0.0000 0.0000 0.0000 10.1533 0.0000 0.0000
# 5 0.0000 0.0000 0.0000 0.0000 30.8466 0.0000
# 6 0.0000 0.0000 0.0000 0.0000 0.0000 32.3789
#
#
#
# Elastic Compliance Matrix: (Units=1/GPa)
#
#
# Indices 1 2 3 4 5 6 
#
# 1 0.018584 -0.002486 -0.001411 0.000000 0.000000 0.000000
# 2 -0.002486 0.009459 -0.001208 0.000000 0.000000 0.000000
# 3 -0.001411 -0.001208 0.010348 0.000000 0.000000 0.000000
# 4 0.000000 0.000000 0.000000 0.098490 0.000000 0.000000
# 5 0.000000 0.000000 0.000000 0.000000 0.032419 0.000000
# 6 0.000000 0.000000 0.000000 0.000000 0.000000 0.030884
#
#
# Mechanical properties :
#
#
# Convention : Reuss Voigt Hill
#
# Bulk Modulus (GPa) = 35.48363 38.92478 37.20421
# Shear Modulus (GPa) = 22.74930 29.83093 26.29011
#
# Velocity S-wave (km/s) = 3.38794 3.87959 3.64207
# Velocity P-wave (km/s) = 5.76259 6.30141 6.03801
#
# Compressibility (1/GPa) = 0.02818201
#
# Stress axis : x y z
#
# Youngs Moduli (GPa) = 53.81077 105.71492 96.63554
#
# Poissons Ratio (x) = 0.26280 0.13636
# Poissons Ratio (y) = 0.13377 0.11670
# Poissons Ratio (z) = 0.07593 0.12766
#
# Static dielectric constant tensor:
#      x y z
#    x 1.744860 0.000000 0.000000 
#    y 0.000000 1.701140 0.000000 
#    z 0.000000 0.000000 1.676880 
# 
# From -- ./inp_files/24459.got.cif
#   From: 2010.05.17/outbox.cif.g08.bks.cpg/sg43_13_cif.got.tgz:24459.got - 2010.06.03 19:21:55.
