data_PCOD9370954
_publ_section_title
;
Structure prediction by ZEFSAII (Michael W. Deem and Ramdas Pophale) SiO2 
 PCOD9370954
Probable space group: F D D 2
;
_chemical_formula_sum "Si O2"
_cell_formula_units_Z 88
_cell_length_a 7.363497
_cell_length_b 25.846541
_cell_length_c 18.424082
_cell_angle_alpha 90.000000
_cell_angle_beta 90.000000
_cell_angle_gamma 90.000000
_cell_volume 3506.488367
_symmetry_space_group_name_H-M "F D D 2"
_symmetry_group_IT_number 43
_symmetry_cell_setting 'orthorhombic'
loop_
_space_group_symop_operation_xyz
x,y,z
-x,-y,z
1/4-x,1/4+y,1/4+z
1/4+x,1/4-y,1/4+z
x,1/2+y,1/2+z
-x,1/2-y,1/2+z
1/4-x,3/4+y,3/4+z
1/4+x,3/4-y,3/4+z
1/2+x,y,1/2+z
1/2-x,-y,1/2+z
3/4-x,1/4+y,3/4+z
3/4+x,1/4-y,3/4+z
1/2+x,1/2+y,z
1/2-x,1/2-y,z
3/4-x,3/4+y,1/4+z
3/4+x,3/4-y,1/4+z
loop_
_atom_site_type_symbol
_atom_site_label
_atom_site_fract_x
_atom_site_fract_y
_atom_site_fract_z
Si Si1 0.396910 0.095065 0.703850
Si Si2 0.305971 0.308736 0.698637
Si Si3 0.750000 0.250000 0.850183
Si Si4 0.456621 0.337049 0.008232
Si Si5 0.033814 0.172740 0.837415
Si Si6 0.287801 0.021177 0.816587
O O1 0.323557 0.146807 0.666605
O O2 0.446988 0.049769 0.647570
O O3 0.582712 0.104772 0.748423
O O4 0.258539 0.064082 0.755524
O O5 0.250000 0.250000 0.702145
O O6 0.303462 0.327555 0.781312
O O7 0.475763 0.301391 0.643224
O O8 0.569831 0.273354 0.815239
O O9 0.410683 0.330645 0.921560
O O10 0.345393 0.377853 0.055400
O O11 0.435871 0.281546 0.047777
O O12 0.500000 0.000000 0.809637
#
# Coordination Sequence:
#
# PCOD9370954 Si02
#       6
#    16  16   8  16  16  16
#     4  10  20  43  68  96 130 179 230 272 335 419
#     4  11  27  39  68 104 135 173 233 290 347 410
#     4  10  22  42  72  94 128 192 226 272 338 430
#     4  10  23  44  71  94 140 180 230 280 352 423
#     4  11  25  43  65 107 135 179 232 290 353 402
#     4   9  19  41  65  93 126 179 223 259 344 412
#
# _framework density 25.096330999999999
#
# number of rings (size 3 to 8) (size 9 to 14) (size 15 to 20)
#    0.000    1.818    4.545    0.000   20.364    0.000 
#    0.000    0.909    0.000    0.000    0.000    0.000 
#    0.000    0.000    0.000    0.000    0.000    0.000 
#
# Total GULP energy -122594.601403 kJ/mol
# GULP energy per Si atom -5572.481882 kJ/mol
# Density = 2.503921 g / cm^3
# Si number density = 25.096331 Si / 1000 Ang^3
#
#
#
# Elastic Constant Matrix: (Units=GPa)
#
#
# Indices 1 2 3 4 5 6 
#
# 1 20.2934 29.3720 8.3401 0.0000 0.0000 0.0000
# 2 29.3720 185.0097 29.5426 0.0000 0.0000 0.0000
# 3 8.3401 29.5426 124.3672 0.0000 0.0000 0.0000
# 4 0.0000 0.0000 0.0000 28.5531 0.0000 0.0000
# 5 0.0000 0.0000 0.0000 0.0000 19.1330 0.0000
# 6 0.0000 0.0000 0.0000 0.0000 0.0000 28.3144
#
#
#
# Elastic Compliance Matrix: (Units=1/GPa)
#
#
# Indices 1 2 3 4 5 6 
#
# 1 0.064437 -0.009916 -0.001966 0.000000 0.000000 0.000000
# 2 -0.009916 0.007144 -0.001032 0.000000 0.000000 0.000000
# 3 -0.001966 -0.001032 0.008418 0.000000 0.000000 0.000000
# 4 0.000000 0.000000 0.000000 0.035022 0.000000 0.000000
# 5 0.000000 0.000000 0.000000 0.000000 0.052266 0.000000
# 6 0.000000 0.000000 0.000000 0.000000 0.000000 0.035318
#
#
# Mechanical properties :
#
#
# Convention : Reuss Voigt Hill
#
# Bulk Modulus (GPa) = 18.45997 51.57554 35.01776
# Shear Modulus (GPa) = 20.28481 32.69446 26.48964
#
# Velocity S-wave (km/s) = 2.84611 3.61329 3.25240
# Velocity P-wave (km/s) = 4.26287 6.16470 5.29979
#
# Compressibility (1/GPa) = 0.05417126
#
# Stress axis : x y z
#
# Youngs Moduli (GPa) = 15.51901 139.97370 118.79743
#
# Poissons Ratio (x) = 1.38799 0.23352
# Poissons Ratio (y) = 0.15389 0.12261
# Poissons Ratio (z) = 0.03051 0.14446
#
# Static dielectric constant tensor:
#      x y z
#    x 2.299910 0.000000 0.000000 
#    y 0.000000 2.038420 0.000000 
#    z 0.000000 0.000000 2.064700 
# 
# From -- ./inp_files/16387.got.cif
#   From: 2010.05.17/outbox.cif.g08.bks.cpg/sg43_9_cif.got.tgz:16387.got - 2010.06.03 19:21:55.
