data_PCOD9370974
_publ_section_title
;
Structure prediction by ZEFSAII (Michael W. Deem and Ramdas Pophale) SiO2 
 PCOD9370974
Probable space group: F D D 2
;
_chemical_formula_sum "Si O2"
_cell_formula_units_Z 88
_cell_length_a 22.872370
_cell_length_b 23.085356
_cell_length_c 6.858100
_cell_angle_alpha 90.000000
_cell_angle_beta 90.000000
_cell_angle_gamma 90.000000
_cell_volume 3621.192044
_symmetry_space_group_name_H-M "F D D 2"
_symmetry_group_IT_number 43
_symmetry_cell_setting 'orthorhombic'
loop_
_space_group_symop_operation_xyz
x,y,z
-x,-y,z
1/4-x,1/4+y,1/4+z
1/4+x,1/4-y,1/4+z
x,1/2+y,1/2+z
-x,1/2-y,1/2+z
1/4-x,3/4+y,3/4+z
1/4+x,3/4-y,3/4+z
1/2+x,y,1/2+z
1/2-x,-y,1/2+z
3/4-x,1/4+y,3/4+z
3/4+x,1/4-y,3/4+z
1/2+x,1/2+y,z
1/2-x,1/2-y,z
3/4-x,3/4+y,1/4+z
3/4+x,3/4-y,1/4+z
loop_
_atom_site_type_symbol
_atom_site_label
_atom_site_fract_x
_atom_site_fract_y
_atom_site_fract_z
Si Si1 0.319527 0.352619 0.535670
Si Si2 0.998473 0.396991 0.428596
Si Si3 0.000000 0.000000 0.490344
Si Si4 0.310278 0.469857 0.701306
Si Si5 0.828179 0.244405 0.597936
Si Si6 0.191694 0.943418 0.368929
O O1 0.280392 0.381070 0.364111
O O2 0.280538 0.299803 0.615381
O O3 0.326891 0.402626 0.693973
O O4 0.385741 0.331161 0.504668
O O5 0.049721 0.442542 0.368905
O O6 0.947625 0.443597 0.483608
O O7 0.973104 0.353216 0.267274
O O8 0.050642 0.023863 0.636531
O O9 0.352888 0.496832 0.861692
O O10 0.242034 0.469919 0.735905
O O11 0.328085 0.505309 0.511040
#
# Coordination Sequence:
#
# PCOD9370974 Si02
#       6
#    16  16   8  16  16  16
#     4  12  25  46  75 106 144 194 245 295 363 447
#     4  10  23  45  69 107 137 192 243 286 365 437
#     4  10  20  44  76  96 134 188 240 286 358 434
#     4  12  26  46  69 105 150 185 240 311 360 423
#     4  10  21  44  74  98 139 191 241 293 354 433
#     4  12  27  46  70 108 147 191 241 307 363 427
#
# _framework density 24.301389
#
# number of rings (size 3 to 8) (size 9 to 14) (size 15 to 20)
#    0.000    1.091    3.636    4.364    2.545    0.000 
#    3.273    0.000    0.000    0.000    0.000    0.000 
#    0.000    0.000    0.000    0.000    0.000    0.000 
#
# Total GULP energy -122758.044126 kJ/mol
# GULP energy per Si atom -5579.911097 kJ/mol
# Density = 2.424608 g / cm^3
# Si number density = 24.301389 Si / 1000 Ang^3
#
#
#
# Elastic Constant Matrix: (Units=GPa)
#
#
# Indices 1 2 3 4 5 6 
#
# 1 130.7570 2.5841 16.0210 0.0025 -0.0028 -0.0045
# 2 2.5841 82.6761 -6.9020 0.0150 -0.0122 -0.0067
# 3 16.0210 -6.9020 31.6679 0.0307 -0.0260 -0.0115
# 4 0.0025 0.0150 0.0307 21.7702 -0.0190 -0.0088
# 5 -0.0028 -0.0122 -0.0260 -0.0190 37.7784 0.0074
# 6 -0.0045 -0.0067 -0.0115 -0.0088 0.0074 22.4418
#
#
#
# Elastic Compliance Matrix: (Units=1/GPa)
#
#
# Indices 1 2 3 4 5 6 
#
# 1 0.008183 -0.000613 -0.004274 0.000006 -0.000003 -0.000001
# 2 -0.000613 0.012365 0.003005 -0.000013 0.000006 0.000005
# 3 -0.004274 0.003005 0.034395 -0.000050 0.000024 0.000018
# 4 0.000006 -0.000013 -0.000050 0.045934 0.000023 0.000018
# 5 -0.000003 0.000006 0.000024 0.000023 0.026470 -0.000009
# 6 -0.000001 0.000005 0.000018 0.000018 -0.000009 0.044560
#
#
# Mechanical properties :
#
#
# Convention : Reuss Voigt Hill
#
# Bulk Modulus (GPa) = 19.53840 29.83414 24.68627
# Shear Modulus (GPa) = 25.94293 31.95795 28.95044
#
# Velocity S-wave (km/s) = 3.27088 3.63032 3.45528
# Velocity P-wave (km/s) = 4.72466 5.46586 5.10872
#
# Compressibility (1/GPa) = 0.05118127
#
# Stress axis : x y z
#
# Youngs Moduli (GPa) = 122.19711 80.87082 29.07419
#
# Poissons Ratio (x) = 0.04954 0.12425
# Poissons Ratio (y) = 0.07485 -0.08737
# Poissons Ratio (z) = 0.52222 -0.24301
#
# Static dielectric constant tensor:
#      x y z
#    x 1.990000 0.000010 0.000010 
#    y 0.000010 1.933630 -0.000010 
#    z 0.000010 -0.000010 2.076570 
# 
# From -- ./inp_files/3683.got.cif
#   From: 2010.05.17/outbox.cif.g08.bks.cpg/sg43_2_cif.got.tgz:3683.got - 2010.06.03 19:21:55.
