data_PCOD9370665
_publ_section_title
;
Structure prediction by ZEFSAII (Michael W. Deem and Ramdas Pophale) SiO2 
 PCOD9370665
Probable space group: F D D 2
;
_chemical_formula_sum "Si O2"
_cell_formula_units_Z 48
_cell_length_a 24.286855
_cell_length_b 14.478785
_cell_length_c 4.926056
_cell_angle_alpha 90.000000
_cell_angle_beta 90.000000
_cell_angle_gamma 90.000000
_cell_volume 1732.218784
_symmetry_space_group_name_H-M "F D D 2"
_symmetry_group_IT_number 43
_symmetry_cell_setting 'orthorhombic'
loop_
_space_group_symop_operation_xyz
x,y,z
-x,-y,z
1/4-x,1/4+y,1/4+z
1/4+x,1/4-y,1/4+z
x,1/2+y,1/2+z
-x,1/2-y,1/2+z
1/4-x,3/4+y,3/4+z
1/4+x,3/4-y,3/4+z
1/2+x,y,1/2+z
1/2-x,-y,1/2+z
3/4-x,1/4+y,3/4+z
3/4+x,1/4-y,3/4+z
1/2+x,1/2+y,z
1/2-x,1/2-y,z
3/4-x,3/4+y,1/4+z
3/4+x,3/4-y,1/4+z
loop_
_atom_site_type_symbol
_atom_site_label
_atom_site_fract_x
_atom_site_fract_y
_atom_site_fract_z
Si Si1 0.630696 0.231993 0.058650
Si Si2 0.981073 0.192325 0.003471
Si Si3 0.435900 0.445485 0.778995
O O1 0.582196 0.310470 0.090477
O O2 0.597070 0.146467 0.182370
O O3 0.683147 0.246252 0.253462
O O4 0.650989 0.251875 0.756060
O O5 0.014801 0.234312 0.255988
O O6 0.008459 0.098067 0.900693
#
# Coordination Sequence:
#
# PCOD9370665 Si02
#       3
#    16  16  16
#     4  11  22  39  61  88 119 158 204 253 305 367
#     4  10  20  38  61  84 117 166 206 238 304 392
#     4  11  22  39  61  88 119 158 204 253 305 367
#
# _framework density 27.710124
#
# number of rings (size 3 to 8) (size 9 to 14) (size 15 to 20)
#    0.000    1.333    0.000   10.000    0.000    0.000 
#    0.000   10.000    0.000    0.000    0.000    0.000 
#    0.000    0.000    0.000    0.000    0.000    0.000 
#
# Total GULP energy -67217.765522 kJ/mol
# GULP energy per Si atom -5601.480460 kJ/mol
# Density = 2.764705 g / cm^3
# Si number density = 27.710124 Si / 1000 Ang^3
#
#
#
# Elastic Constant Matrix: (Units=GPa)
#
#
# Indices 1 2 3 4 5 6 
#
# 1 139.5747 5.0134 22.6104 0.0004 -0.0004 -0.0001
# 2 5.0134 93.1025 17.7862 0.0009 -0.0004 0.0000
# 3 22.6104 17.7862 165.9216 0.0044 -0.0011 -0.0002
# 4 0.0004 0.0009 0.0044 45.3173 -0.0005 -0.0002
# 5 -0.0004 -0.0004 -0.0011 -0.0005 49.9865 0.0002
# 6 -0.0001 0.0000 -0.0002 -0.0002 0.0002 20.0014
#
#
#
# Elastic Compliance Matrix: (Units=1/GPa)
#
#
# Indices 1 2 3 4 5 6 
#
# 1 0.007330 -0.000208 -0.000977 0.000000 0.000000 0.000000
# 2 -0.000208 0.010971 -0.001148 0.000000 0.000000 0.000000
# 3 -0.000977 -0.001148 0.006283 -0.000001 0.000000 0.000000
# 4 0.000000 0.000000 -0.000001 0.022067 0.000000 0.000000
# 5 0.000000 0.000000 0.000000 0.000000 0.020005 0.000000
# 6 0.000000 0.000000 0.000000 0.000000 0.000000 0.049996
#
#
# Mechanical properties :
#
#
# Convention : Reuss Voigt Hill
#
# Bulk Modulus (GPa) = 50.20147 54.37986 52.29066
# Shear Modulus (GPa) = 39.07532 46.60697 42.84114
#
# Velocity S-wave (km/s) = 3.75927 4.10560 3.93625
# Velocity P-wave (km/s) = 6.08266 6.49167 6.29049
#
# Compressibility (1/GPa) = 0.01991974
#
# Stress axis : x y z
#
# Youngs Moduli (GPa) = 136.42001 91.14673 159.15824
#
# Poissons Ratio (x) = 0.01897 0.15543
# Poissons Ratio (y) = 0.02840 0.18267
# Poissons Ratio (z) = 0.13323 0.10461
#
# Static dielectric constant tensor:
#      x y z
#    x 2.083690 0.000000 0.000000 
#    y 0.000000 2.409180 0.000000 
#    z 0.000000 0.000000 1.994500 
# 
# From -- ./inp_files/413.got.cif
#   From: 2010.05.17/outbox.cif.g08.bks.cpg/sg43_1_cif.got.tgz:413.got - 2010.06.03 19:21:55.
