data_PCOD9370132
_publ_section_title
;
Structure prediction by ZEFSAII (Michael W. Deem and Ramdas Pophale) SiO2 
 PCOD9370132
Probable space group: F D D 2
;
_chemical_formula_sum "Si O2"
_cell_formula_units_Z 96
_cell_length_a 17.459898
_cell_length_b 8.612074
_cell_length_c 26.843474
_cell_angle_alpha 90.000000
_cell_angle_beta 90.000000
_cell_angle_gamma 90.000000
_cell_volume 4036.344029
_symmetry_space_group_name_H-M "F D D 2"
_symmetry_group_IT_number 43
_symmetry_cell_setting 'orthorhombic'
loop_
_space_group_symop_operation_xyz
x,y,z
-x,-y,z
1/4-x,1/4+y,1/4+z
1/4+x,1/4-y,1/4+z
x,1/2+y,1/2+z
-x,1/2-y,1/2+z
1/4-x,3/4+y,3/4+z
1/4+x,3/4-y,3/4+z
1/2+x,y,1/2+z
1/2-x,-y,1/2+z
3/4-x,1/4+y,3/4+z
3/4+x,1/4-y,3/4+z
1/2+x,1/2+y,z
1/2-x,1/2-y,z
3/4-x,3/4+y,1/4+z
3/4+x,3/4-y,1/4+z
loop_
_atom_site_type_symbol
_atom_site_label
_atom_site_fract_x
_atom_site_fract_y
_atom_site_fract_z
Si Si1 0.587414 0.983031 0.397810
Si Si2 0.361470 0.928766 0.134429
Si Si3 0.750000 0.250000 0.071949
Si Si4 0.345581 0.522833 0.790908
Si Si5 0.100975 0.162300 0.245477
Si Si6 0.000000 0.000000 0.559596
Si Si7 0.546107 0.147613 0.217023
O O1 0.603581 0.160512 0.414296
O O2 0.639368 0.954800 0.349669
O O3 0.605643 0.871961 0.444269
O O4 0.500000 0.000000 0.381834
O O5 0.282864 0.883843 0.107637
O O6 0.392277 0.807201 0.175274
O O7 0.426727 0.957331 0.093263
O O8 0.676530 0.295980 0.038349
O O9 0.351020 0.694649 0.768645
O O10 0.273127 0.410082 0.782040
O O11 0.413691 0.420008 0.766265
O O12 0.017233 0.226214 0.228669
O O13 0.500000 0.000000 0.195536
#
# Coordination Sequence:
#
# PCOD9370132 Si02
#       7
#    16  16   8  16  16   8  16
#     4  11  21  39  68  93 125 176 232 275 342 426
#     4  11  21  43  66  96 131 171 233 286 341 428
#     4  12  28  43  62 102 150 178 227 302 362 428
#     4  10  20  37  70  98 127 169 227 285 347 411
#     4  11  23  44  61  94 142 179 215 287 367 419
#     4  10  20  37  68  98 120 168 235 276 328 432
#     4  10  17  39  70  93 123 173 228 281 343 414
#
# _framework density 23.783899999999999
#
# number of rings (size 3 to 8) (size 9 to 14) (size 15 to 20)
#    0.000    1.333    4.167    5.500    0.000    2.000 
#    6.000    0.000    0.000    0.000    0.000    0.000 
#    0.000    0.000    0.000    0.000    0.000    0.000 
#
# Total GULP energy -133941.027758 kJ/mol
# GULP energy per Si atom -5580.876157 kJ/mol
# Density = 2.372977 g / cm^3
# Si number density = 23.783900 Si / 1000 Ang^3
#
#
#
# Elastic Constant Matrix: (Units=GPa)
#
#
# Indices 1 2 3 4 5 6 
#
# 1 46.5932 8.0114 1.1439 0.0000 0.0000 0.0000
# 2 8.0114 41.7177 21.9584 0.0000 0.0000 0.0000
# 3 1.1439 21.9584 101.8706 0.0000 0.0000 0.0000
# 4 0.0000 0.0000 0.0000 12.2994 0.0000 0.0000
# 5 0.0000 0.0000 0.0000 0.0000 43.6460 0.0000
# 6 0.0000 0.0000 0.0000 0.0000 0.0000 37.5784
#
#
#
# Elastic Compliance Matrix: (Units=1/GPa)
#
#
# Indices 1 2 3 4 5 6 
#
# 1 0.022247 -0.004671 0.000757 0.000000 0.000000 0.000000
# 2 -0.004671 0.028019 -0.005987 0.000000 0.000000 0.000000
# 3 0.000757 -0.005987 0.011098 0.000000 0.000000 0.000000
# 4 0.000000 0.000000 0.000000 0.081305 0.000000 0.000000
# 5 0.000000 0.000000 0.000000 0.000000 0.022912 0.000000
# 6 0.000000 0.000000 0.000000 0.000000 0.000000 0.026611
#
#
# Mechanical properties :
#
#
# Convention : Reuss Voigt Hill
#
# Bulk Modulus (GPa) = 24.06009 28.04541 26.05275
# Shear Modulus (GPa) = 22.13884 29.30928 25.72406
#
# Velocity S-wave (km/s) = 3.05427 3.51424 3.29230
# Velocity P-wave (km/s) = 4.75144 5.31826 5.04282
#
# Compressibility (1/GPa) = 0.04156261
#
# Stress axis : x y z
#
# Youngs Moduli (GPa) = 44.95013 35.69010 90.10304
#
# Poissons Ratio (x) = 0.16670 -0.06821
# Poissons Ratio (y) = 0.20995 0.53945
# Poissons Ratio (z) = -0.03403 0.21368
#
# Static dielectric constant tensor:
#      x y z
#    x 1.953850 0.000000 0.000000 
#    y 0.000000 1.957740 0.000000 
#    z 0.000000 0.000000 1.932510 
# 
# From -- ./inp_files/22082.got.cif
#   From: 2010.05.17/outbox.cif.g08.bks.cpg/sg43_12_cif.got.tgz:22082.got - 2010.06.03 19:21:55.
