data_PCOD9370472
_publ_section_title
;
Structure prediction by ZEFSAII (Michael W. Deem and Ramdas Pophale) SiO2 
 PCOD9370472
Probable space group: F D D 2
;
_chemical_formula_sum "Si O2"
_cell_formula_units_Z 112
_cell_length_a 11.603005
_cell_length_b 32.683044
_cell_length_c 13.416654
_cell_angle_alpha 90.000000
_cell_angle_beta 90.000000
_cell_angle_gamma 90.000000
_cell_volume 5087.883963
_symmetry_space_group_name_H-M "F D D 2"
_symmetry_group_IT_number 43
_symmetry_cell_setting 'orthorhombic'
loop_
_space_group_symop_operation_xyz
x,y,z
-x,-y,z
1/4-x,1/4+y,1/4+z
1/4+x,1/4-y,1/4+z
x,1/2+y,1/2+z
-x,1/2-y,1/2+z
1/4-x,3/4+y,3/4+z
1/4+x,3/4-y,3/4+z
1/2+x,y,1/2+z
1/2-x,-y,1/2+z
3/4-x,1/4+y,3/4+z
3/4+x,1/4-y,3/4+z
1/2+x,1/2+y,z
1/2-x,1/2-y,z
3/4-x,3/4+y,1/4+z
3/4+x,3/4-y,1/4+z
loop_
_atom_site_type_symbol
_atom_site_label
_atom_site_fract_x
_atom_site_fract_y
_atom_site_fract_z
Si Si1 0.638661 0.277122 0.984330
Si Si2 0.865459 0.502453 0.508269
Si Si3 0.498394 0.321989 0.654596
Si Si4 0.750644 0.839381 0.609327
Si Si5 0.551708 0.668018 0.037580
Si Si6 0.963171 0.384335 0.335179
Si Si7 0.040846 0.333682 0.741814
O O1 0.750000 0.250000 0.020049
O O2 0.618639 0.263693 0.872022
O O3 0.686315 0.321886 0.012239
O O4 0.509109 0.287235 0.026835
O O5 0.798303 0.470225 0.441761
O O6 0.792847 0.544635 0.505614
O O7 0.000000 0.500000 0.477420
O O8 0.373708 0.317913 0.609110
O O9 0.479099 0.350603 0.750750
O O10 0.589555 0.344260 0.584014
O O11 0.774740 0.886781 0.585572
O O12 0.675268 0.827848 0.707840
O O13 0.687411 0.667483 0.062792
O O14 0.500287 0.646968 0.136595
O O15 0.530675 0.639495 0.941053
#
# Coordination Sequence:
#
# PCOD9370472 Si02
#       7
#    16  16  16  16  16  16  16
#     4  10  23  40  66  92 131 177 227 284 359 410
#     4  11  25  44  68 102 137 183 235 303 361 421
#     4  11  23  43  66 102 144 184 231 294 366 419
#     4  11  26  43  71 101 141 188 235 293 354 437
#     4  10  19  39  67 101 130 180 233 287 338 422
#     4  10  21  38  70  99 138 181 235 289 352 424
#     4  11  25  42  70 104 138 181 246 287 352 426
#
# _framework density 22.013081
#
# number of rings (size 3 to 8) (size 9 to 14) (size 15 to 20)
#    0.000    1.429    1.429    3.429   10.000    1.143 
#    0.000    0.000    0.000    0.000    0.000    0.000 
#    0.000    0.000    0.000    0.000    0.000    0.000 
#
# Total GULP energy -155937.837647 kJ/mol
# GULP energy per Si atom -5569.208487 kJ/mol
# Density = 2.196298 g / cm^3
# Si number density = 22.013081 Si / 1000 Ang^3
#
#
#
# Elastic Constant Matrix: (Units=GPa)
#
#
# Indices 1 2 3 4 5 6 
#
# 1 186.9608 66.7607 42.2428 0.0000 0.0000 0.0000
# 2 66.7607 108.2229 36.8218 0.0000 0.0000 0.0000
# 3 42.2428 36.8218 73.3677 0.0000 0.0000 0.0000
# 4 0.0000 0.0000 0.0000 27.1865 0.0000 0.0000
# 5 0.0000 0.0000 0.0000 0.0000 35.9059 0.0000
# 6 0.0000 0.0000 0.0000 0.0000 0.0000 44.5025
#
#
#
# Elastic Compliance Matrix: (Units=1/GPa)
#
#
# Indices 1 2 3 4 5 6 
#
# 1 0.007168 -0.003639 -0.002301 0.000000 0.000000 0.000000
# 2 -0.003639 0.012990 -0.004424 0.000000 0.000000 0.000000
# 3 -0.002301 -0.004424 0.017175 0.000000 0.000000 0.000000
# 4 0.000000 0.000000 0.000000 0.036783 0.000000 0.000000
# 5 0.000000 0.000000 0.000000 0.000000 0.027851 0.000000
# 6 0.000000 0.000000 0.000000 0.000000 0.000000 0.022471
#
#
# Mechanical properties :
#
#
# Convention : Reuss Voigt Hill
#
# Bulk Modulus (GPa) = 60.22190 73.35579 66.78884
# Shear Modulus (GPa) = 33.17827 36.36739 34.77283
#
# Velocity S-wave (km/s) = 3.88649 4.06899 3.97879
# Velocity P-wave (km/s) = 6.89612 7.44793 7.17733
#
# Compressibility (1/GPa) = 0.01660526
#
# Stress axis : x y z
#
# Youngs Moduli (GPa) = 139.50921 76.98013 58.22349
#
# Poissons Ratio (x) = 0.28013 0.13396
# Poissons Ratio (y) = 0.50767 0.25760
# Poissons Ratio (z) = 0.32098 0.34059
#
# Static dielectric constant tensor:
#      x y z
#    x 1.968070 0.000000 0.000000 
#    y 0.000000 1.813560 0.000000 
#    z 0.000000 0.000000 1.794290 
# 
# From -- ./inp_files/9760.got.cif
#   From: 2010.05.17/outbox.cif.g08.bks.cpg/sg43_5_cif.got.tgz:9760.got - 2010.06.03 19:21:55.
