data_PCOD9370838
_publ_section_title
;
Structure prediction by ZEFSAII (Michael W. Deem and Ramdas Pophale) SiO2 
 PCOD9370838
Probable space group: F D D 2
;
_chemical_formula_sum "Si O2"
_cell_formula_units_Z 80
_cell_length_a 15.288457
_cell_length_b 23.614398
_cell_length_c 9.860645
_cell_angle_alpha 90.000000
_cell_angle_beta 90.000000
_cell_angle_gamma 90.000000
_cell_volume 3559.966068
_symmetry_space_group_name_H-M "F D D 2"
_symmetry_group_IT_number 43
_symmetry_cell_setting 'orthorhombic'
loop_
_space_group_symop_operation_xyz
x,y,z
-x,-y,z
1/4-x,1/4+y,1/4+z
1/4+x,1/4-y,1/4+z
x,1/2+y,1/2+z
-x,1/2-y,1/2+z
1/4-x,3/4+y,3/4+z
1/4+x,3/4-y,3/4+z
1/2+x,y,1/2+z
1/2-x,-y,1/2+z
3/4-x,1/4+y,3/4+z
3/4+x,1/4-y,3/4+z
1/2+x,1/2+y,z
1/2-x,1/2-y,z
3/4-x,3/4+y,1/4+z
3/4+x,3/4-y,1/4+z
loop_
_atom_site_type_symbol
_atom_site_label
_atom_site_fract_x
_atom_site_fract_y
_atom_site_fract_z
Si Si1 0.549376 0.313452 0.044110
Si Si2 0.219109 0.345993 0.120085
Si Si3 0.790550 0.354593 0.340283
Si Si4 0.261985 0.670793 0.918920
Si Si5 0.608101 0.694540 0.594371
O O1 0.650154 0.324971 0.004555
O O2 0.515089 0.354295 0.162609
O O3 0.497187 0.338890 0.913291
O O4 0.545863 0.248878 0.089136
O O5 0.116944 0.348551 0.091444
O O6 0.229735 0.314133 0.260961
O O7 0.276782 0.329023 0.991229
O O8 0.829423 0.312706 0.226905
O O9 0.699999 0.388396 0.318672
O O10 0.179091 0.702403 0.977405
#
# Coordination Sequence:
#
# PCOD9370838 Si02
#       5
#    16  16  16  16  16
#     4  10  21  41  70  95 126 179 227 270 335 398
#     4   9  18  41  66  87 128 176 216 280 315 390
#     4  10  21  40  63  96 136 165 222 285 331 391
#     4  10  20  40  69  92 134 171 233 273 316 412
#     4  11  23  40  67  97 138 177 214 280 355 396
#
# _framework density 22.472124000000001
#
# number of rings (size 3 to 8) (size 9 to 14) (size 15 to 20)
#    1.200    0.800    2.000    1.800    0.000    0.000 
#   14.400    0.000    4.400    0.000    0.000    0.000 
#    0.000    0.000    0.000    0.000    0.000    0.000 
#
# Total GULP energy -111372.158179 kJ/mol
# GULP energy per Si atom -5568.607909 kJ/mol
# Density = 2.242098 g / cm^3
# Si number density = 22.472124 Si / 1000 Ang^3
#
#
#
# Elastic Constant Matrix: (Units=GPa)
#
#
# Indices 1 2 3 4 5 6 
#
# 1 92.2361 1.1935 17.7047 0.0000 0.0000 0.0000
# 2 1.1935 55.8409 7.4166 0.0000 0.0000 0.0000
# 3 17.7047 7.4166 84.6566 0.0000 0.0000 0.0000
# 4 0.0000 0.0000 0.0000 12.3523 0.0000 0.0000
# 5 0.0000 0.0000 0.0000 0.0000 2.6438 0.0000
# 6 0.0000 0.0000 0.0000 0.0000 0.0000 17.6216
#
#
#
# Elastic Compliance Matrix: (Units=1/GPa)
#
#
# Indices 1 2 3 4 5 6 
#
# 1 0.011295 0.000073 -0.002369 0.000000 0.000000 0.000000
# 2 0.000073 0.018119 -0.001603 0.000000 0.000000 0.000000
# 3 -0.002369 -0.001603 0.012448 0.000000 0.000000 0.000000
# 4 0.000000 0.000000 0.000000 0.080957 0.000000 0.000000
# 5 0.000000 0.000000 0.000000 0.000000 0.378242 0.000000
# 6 0.000000 0.000000 0.000000 0.000000 0.000000 0.056749
#
#
# Mechanical properties :
#
#
# Convention : Reuss Voigt Hill
#
# Bulk Modulus (GPa) = 29.35428 31.70701 30.53064
# Shear Modulus (GPa) = 8.66609 20.28479 14.47544
#
# Velocity S-wave (km/s) = 1.96589 3.00770 2.54077
# Velocity P-wave (km/s) = 4.27129 5.11877 4.71411
#
# Compressibility (1/GPa) = 0.03406659
#
# Stress axis : x y z
#
# Youngs Moduli (GPa) = 88.53106 55.18971 80.33274
#
# Poissons Ratio (x) = -0.00404 0.19028
# Poissons Ratio (y) = -0.00648 0.12875
# Poissons Ratio (z) = 0.20970 0.08845
#
# Static dielectric constant tensor:
#      x y z
#    x 1.841370 0.000000 0.000000 
#    y 0.000000 1.868080 0.000000 
#    z 0.000000 0.000000 1.872460 
# 
# From -- ./inp_files/2774.got.cif
#   From: 2010.05.17/outbox.cif.g08.bks.cpg/sg43_2_cif.got.tgz:2774.got - 2010.06.03 19:21:55.
