data_PCOD9370961
_publ_section_title
;
Structure prediction by ZEFSAII (Michael W. Deem and Ramdas Pophale) SiO2 
 PCOD9370961
Probable space group: F D D 2
;
_chemical_formula_sum "Si O2"
_cell_formula_units_Z 88
_cell_length_a 17.613066
_cell_length_b 14.187693
_cell_length_c 16.198777
_cell_angle_alpha 90.000000
_cell_angle_beta 90.000000
_cell_angle_gamma 90.000000
_cell_volume 4047.892512
_symmetry_space_group_name_H-M "F D D 2"
_symmetry_group_IT_number 43
_symmetry_cell_setting 'orthorhombic'
loop_
_space_group_symop_operation_xyz
x,y,z
-x,-y,z
1/4-x,1/4+y,1/4+z
1/4+x,1/4-y,1/4+z
x,1/2+y,1/2+z
-x,1/2-y,1/2+z
1/4-x,3/4+y,3/4+z
1/4+x,3/4-y,3/4+z
1/2+x,y,1/2+z
1/2-x,-y,1/2+z
3/4-x,1/4+y,3/4+z
3/4+x,1/4-y,3/4+z
1/2+x,1/2+y,z
1/2-x,1/2-y,z
3/4-x,3/4+y,1/4+z
3/4+x,3/4-y,1/4+z
loop_
_atom_site_type_symbol
_atom_site_label
_atom_site_fract_x
_atom_site_fract_y
_atom_site_fract_z
Si Si1 0.750000 0.750000 0.824890
Si Si2 0.543763 0.916853 0.727562
Si Si3 0.782340 0.056823 0.234209
Si Si4 0.695517 0.411530 0.835966
Si Si5 0.670464 0.994767 0.093289
Si Si6 0.922110 0.445632 0.418858
O O1 0.756185 0.656626 0.770165
O O2 0.668422 0.752397 0.869155
O O3 0.629906 0.947732 0.710140
O O4 0.487259 0.904019 0.651318
O O5 0.559412 0.812561 0.766759
O O6 0.500000 0.000000 0.779357
O O7 0.762654 0.976953 0.300289
O O8 0.727139 0.034920 0.160107
O O9 0.638891 0.479616 0.886211
O O10 0.657801 0.358008 0.756940
O O11 0.682802 0.882656 0.096544
O O12 0.000000 0.500000 0.432515
#
# Coordination Sequence:
#
# PCOD9370961 Si02
#       6
#     8  16  16  16  16  16
#     4  10  20  44  64 102 138 180 248 304 364 452
#     4  11  27  42  74 105 145 196 240 314 366 459
#     4  10  24  44  67 103 143 191 245 301 379 447
#     4  11  26  49  74 108 149 197 253 311 386 452
#     4  10  24  44  70 104 142 193 243 306 384 439
#     4  11  26  49  76 110 151 198 252 322 380 466
#
# _framework density 21.739706999999999
#
# number of rings (size 3 to 8) (size 9 to 14) (size 15 to 20)
#    0.000    1.455    1.818    0.545   11.455    4.364 
#    6.545    0.000    0.000    0.000    0.000    0.000 
#    0.000    0.000    0.000    0.000    0.000    0.000 
#
# Total GULP energy -122666.756213 kJ/mol
# GULP energy per Si atom -5575.761646 kJ/mol
# Density = 2.169023 g / cm^3
# Si number density = 21.739707 Si / 1000 Ang^3
#
#
#
# Elastic Constant Matrix: (Units=GPa)
#
#
# Indices 1 2 3 4 5 6 
#
# 1 148.8220 68.4378 63.0554 0.0000 0.0000 0.0000
# 2 68.4378 128.6908 52.7325 0.0000 0.0000 0.0000
# 3 63.0554 52.7325 61.8797 0.0000 0.0000 0.0000
# 4 0.0000 0.0000 0.0000 23.6497 0.0000 0.0000
# 5 0.0000 0.0000 0.0000 0.0000 -95.7762 0.0000
# 6 0.0000 0.0000 0.0000 0.0000 0.0000 46.8480
#
#
#
# Elastic Compliance Matrix: (Units=1/GPa)
#
#
# Indices 1 2 3 4 5 6 
#
# 1 0.012197 -0.002141 -0.010604 0.000000 0.000000 0.000000
# 2 -0.002141 0.012316 -0.008313 0.000000 0.000000 0.000000
# 3 -0.010604 -0.008313 0.034050 0.000000 0.000000 0.000000
# 4 0.000000 0.000000 0.000000 0.042284 0.000000 0.000000
# 5 0.000000 0.000000 0.000000 0.000000 -0.010441 0.000000
# 6 0.000000 0.000000 0.000000 0.000000 0.000000 0.021346
#
#
# Mechanical properties :
#
#
# Convention : Reuss Voigt Hill
#
# Bulk Modulus (GPa) = 60.80532 78.64932 69.72732
# Shear Modulus (GPa) = 31.37741 5.28874 18.33308
#
# Velocity S-wave (km/s) = 3.80323 1.56142 2.90711
# Velocity P-wave (km/s) = 6.87870 6.28546 6.58876
#
# Compressibility (1/GPa) = 0.01644593
#
# Stress axis : x y z
#
# Youngs Moduli (GPa) = 81.98726 81.19698 29.36841
#
# Poissons Ratio (x) = 0.17386 0.31142
# Poissons Ratio (y) = 0.17556 0.24415
# Poissons Ratio (z) = 0.86939 0.67501
#
# Static dielectric constant tensor:
#      x y z
#    x 1.816540 0.000000 0.000000 
#    y 0.000000 1.921290 0.000000 
#    z 0.000000 0.000000 1.853390 
# 
# From -- ./inp_files/14211.got.cif
#   From: 2010.05.17/outbox.cif.g08.bks.cpg/sg43_8_cif.got.tgz:14211.got - 2010.06.03 19:21:55.
