data_PCOD9370391
_publ_section_title
;
Structure prediction by ZEFSAII (Michael W. Deem and Ramdas Pophale) SiO2 
 PCOD9370391
Probable space group: F D D 2
;
_chemical_formula_sum "Si O2"
_cell_formula_units_Z 104
_cell_length_a 19.989332
_cell_length_b 9.049878
_cell_length_c 26.697623
_cell_angle_alpha 90.000000
_cell_angle_beta 90.000000
_cell_angle_gamma 90.000000
_cell_volume 4829.627123
_symmetry_space_group_name_H-M "F D D 2"
_symmetry_group_IT_number 43
_symmetry_cell_setting 'orthorhombic'
loop_
_space_group_symop_operation_xyz
x,y,z
-x,-y,z
1/4-x,1/4+y,1/4+z
1/4+x,1/4-y,1/4+z
x,1/2+y,1/2+z
-x,1/2-y,1/2+z
1/4-x,3/4+y,3/4+z
1/4+x,3/4-y,3/4+z
1/2+x,y,1/2+z
1/2-x,-y,1/2+z
3/4-x,1/4+y,3/4+z
3/4+x,1/4-y,3/4+z
1/2+x,1/2+y,z
1/2-x,1/2-y,z
3/4-x,3/4+y,1/4+z
3/4+x,3/4-y,1/4+z
loop_
_atom_site_type_symbol
_atom_site_label
_atom_site_fract_x
_atom_site_fract_y
_atom_site_fract_z
Si Si1 0.349267 0.995914 0.049150
Si Si2 0.376510 0.489608 0.966461
Si Si3 0.076866 0.749765 0.094649
Si Si4 0.250000 0.250000 0.293320
Si Si5 0.428366 0.923400 0.199291
Si Si6 0.826071 0.274664 0.614531
Si Si7 0.698937 0.935238 0.556681
O O1 0.409741 0.882478 0.055174
O O2 0.278202 0.916825 0.062717
O O3 0.355556 0.129631 0.088585
O O4 0.341221 0.067405 0.994907
O O5 0.368195 0.318572 0.950378
O O6 0.385754 0.572803 0.914088
O O7 0.437304 0.491059 0.005838
O O8 0.318034 0.568080 0.997891
O O9 0.070170 0.670210 0.148110
O O10 0.145983 0.843121 0.089334
O O11 0.016843 0.857916 0.077999
O O12 0.500000 0.000000 0.208247
O O13 0.750000 0.250000 0.632413
O O14 0.818150 0.396848 0.572190
#
# Coordination Sequence:
#
# PCOD9370391 Si02
#       7
#    16  16  16   8  16  16  16
#     4  11  21  43  66 100 128 179 234 279 328 411
#     4  11  20  41  69  93 131 177 225 266 341 415
#     4  11  26  43  66  98 142 171 228 279 352 398
#     4  10  26  46  62 100 140 188 214 288 354 416
#     4  12  24  43  70 104 130 179 228 289 345 409
#     4  10  19  36  70  92 126 180 224 266 339 406
#     4  10  22  41  65  98 137 172 221 286 330 413
#
# _framework density 21.533753999999998
#
# number of rings (size 3 to 8) (size 9 to 14) (size 15 to 20)
#    0.000    1.231    5.385    0.923    0.000    6.154 
#    2.769    0.000    0.000    0.000    0.000    0.000 
#    0.000    0.000    0.000    0.000    0.000    0.000 
#
# Total GULP energy -145141.225220 kJ/mol
# GULP energy per Si atom -5582.354816 kJ/mol
# Density = 2.148474 g / cm^3
# Si number density = 21.533754 Si / 1000 Ang^3
#
#
#
# Elastic Constant Matrix: (Units=GPa)
#
#
# Indices 1 2 3 4 5 6 
#
# 1 19.7663 11.6768 11.5896 0.0000 0.0000 0.0000
# 2 11.6768 59.2364 16.9491 0.0000 0.0000 0.0000
# 3 11.5896 16.9491 129.2788 0.0000 0.0000 0.0000
# 4 0.0000 0.0000 0.0000 40.3983 0.0000 0.0000
# 5 0.0000 0.0000 0.0000 0.0000 20.0119 0.0000
# 6 0.0000 0.0000 0.0000 0.0000 0.0000 46.3721
#
#
#
# Elastic Compliance Matrix: (Units=1/GPa)
#
#
# Indices 1 2 3 4 5 6 
#
# 1 0.059110 -0.010531 -0.003918 0.000000 0.000000 0.000000
# 2 -0.010531 0.019416 -0.001601 0.000000 0.000000 0.000000
# 3 -0.003918 -0.001601 0.008296 0.000000 0.000000 0.000000
# 4 0.000000 0.000000 0.000000 0.024753 0.000000 0.000000
# 5 0.000000 0.000000 0.000000 0.000000 0.049970 0.000000
# 6 0.000000 0.000000 0.000000 0.000000 0.000000 0.021565
#
#
# Mechanical properties :
#
#
# Convention : Reuss Voigt Hill
#
# Bulk Modulus (GPa) = 18.27465 32.07917 25.17691
# Shear Modulus (GPa) = 21.41775 32.56087 26.98931
#
# Velocity S-wave (km/s) = 3.15717 3.89277 3.54411
# Velocity P-wave (km/s) = 4.66854 5.92743 5.33524
#
# Compressibility (1/GPa) = 0.05472062
#
# Stress axis : x y z
#
# Youngs Moduli (GPa) = 16.91771 51.50517 120.53334
#
# Poissons Ratio (x) = 0.54238 0.47231
# Poissons Ratio (y) = 0.17815 0.19302
# Poissons Ratio (z) = 0.06629 0.08248
#
# Static dielectric constant tensor:
#      x y z
#    x 1.851740 0.000000 0.000000 
#    y 0.000000 1.859640 0.000000 
#    z 0.000000 0.000000 1.755590 
# 
# From -- ./inp_files/24320.got.cif
#   From: 2010.05.17/outbox.cif.g08.bks.cpg/sg43_13_cif.got.tgz:24320.got - 2010.06.03 19:21:55.
