data_PCOD9370663
_publ_section_title
;
Structure prediction by ZEFSAII (Michael W. Deem and Ramdas Pophale) SiO2 
 PCOD9370663
Probable space group: F D D 2
;
_chemical_formula_sum "Si O2"
_cell_formula_units_Z 120
_cell_length_a 21.623179
_cell_length_b 16.494036
_cell_length_c 17.760630
_cell_angle_alpha 90.000000
_cell_angle_beta 90.000000
_cell_angle_gamma 90.000000
_cell_volume 6334.390725
_symmetry_space_group_name_H-M "F D D 2"
_symmetry_group_IT_number 43
_symmetry_cell_setting 'orthorhombic'
loop_
_space_group_symop_operation_xyz
x,y,z
-x,-y,z
1/4-x,1/4+y,1/4+z
1/4+x,1/4-y,1/4+z
x,1/2+y,1/2+z
-x,1/2-y,1/2+z
1/4-x,3/4+y,3/4+z
1/4+x,3/4-y,3/4+z
1/2+x,y,1/2+z
1/2-x,-y,1/2+z
3/4-x,1/4+y,3/4+z
3/4+x,1/4-y,3/4+z
1/2+x,1/2+y,z
1/2-x,1/2-y,z
3/4-x,3/4+y,1/4+z
3/4+x,3/4-y,1/4+z
loop_
_atom_site_type_symbol
_atom_site_label
_atom_site_fract_x
_atom_site_fract_y
_atom_site_fract_z
Si Si1 0.500000 0.000000 0.696090
Si Si2 0.302274 0.503809 0.634736
Si Si3 0.968640 0.376519 0.248497
Si Si4 0.090226 0.879339 0.271170
Si Si5 0.399021 0.539827 0.759300
Si Si6 0.409428 0.869064 0.658001
Si Si7 0.312328 0.980881 0.742525
Si Si8 0.972754 0.728371 0.657926
O O1 0.533652 0.938630 0.751974
O O2 0.452257 0.948908 0.645880
O O3 0.286289 0.562585 0.565875
O O4 0.329617 0.421791 0.597078
O O5 0.351984 0.545117 0.689937
O O6 0.239685 0.494499 0.682496
O O7 0.917525 0.444980 0.263154
O O8 0.963753 0.323108 0.173256
O O9 0.035973 0.416232 0.246520
O O10 0.082768 0.815627 0.202523
O O11 0.147753 0.939180 0.262565
O O12 0.370167 0.578204 0.834651
O O13 0.355891 0.907680 0.711203
O O14 0.460098 0.803209 0.687962
O O15 0.280640 0.955663 0.820747
#
# Coordination Sequence:
#
# PCOD9370663 Si02
#       8
#     8  16  16  16  16  16  16  16
#     4   8  18  38  58  86 128 156 208 252 324 352
#     4  11  22  39  62  90 122 163 207 255 311 376
#     4  10  24  41  59  88 126 162 205 256 315 368
#     4   9  21  37  59  88 123 159 204 261 306 371
#     4  11  22  40  60  86 126 161 205 254 310 374
#     4  10  20  38  60  92 123 162 204 263 307 379
#     4  11  21  38  64  91 123 162 211 252 320 374
#     4  10  21  40  60  88 124 163 205 260 313 366
#
# _framework density 18.944206000000001
#
# number of rings (size 3 to 8) (size 9 to 14) (size 15 to 20)
#    0.000    1.867    2.667    0.800    1.867    4.267 
#    2.400    1.333    0.000    3.200    0.000    0.000 
#    0.000    0.000    0.000    0.000    0.000    0.000 
#
# Total GULP energy -167087.753619 kJ/mol
# GULP energy per Si atom -5569.591787 kJ/mol
# Density = 1.890109 g / cm^3
# Si number density = 18.944206 Si / 1000 Ang^3
#
#
#
# Elastic Constant Matrix: (Units=GPa)
#
#
# Indices 1 2 3 4 5 6 
#
# 1 79.8466 24.5251 42.7628 0.0000 0.0000 0.0000
# 2 24.5251 86.8373 41.9737 0.0000 0.0000 0.0000
# 3 42.7628 41.9737 101.4278 0.0000 0.0000 0.0000
# 4 0.0000 0.0000 0.0000 32.0296 0.0000 0.0000
# 5 0.0000 0.0000 0.0000 0.0000 22.1145 0.0000
# 6 0.0000 0.0000 0.0000 0.0000 0.0000 19.8272
#
#
#
# Elastic Compliance Matrix: (Units=1/GPa)
#
#
# Indices 1 2 3 4 5 6 
#
# 1 0.016354 -0.001608 -0.006230 0.000000 0.000000 0.000000
# 2 -0.001608 0.014553 -0.005345 0.000000 0.000000 0.000000
# 3 -0.006230 -0.005345 0.014698 0.000000 0.000000 0.000000
# 4 0.000000 0.000000 0.000000 0.031221 0.000000 0.000000
# 5 0.000000 0.000000 0.000000 0.000000 0.045219 0.000000
# 6 0.000000 0.000000 0.000000 0.000000 0.000000 0.050436
#
#
# Mechanical properties :
#
#
# Convention : Reuss Voigt Hill
#
# Bulk Modulus (GPa) = 51.97315 54.07055 53.02185
# Shear Modulus (GPa) = 24.35944 25.38426 24.87185
#
# Velocity S-wave (km/s) = 3.58977 3.66450 3.62733
# Velocity P-wave (km/s) = 6.68403 6.81973 6.75222
#
# Compressibility (1/GPa) = 0.01924070
#
# Stress axis : x y z
#
# Youngs Moduli (GPa) = 61.14616 68.71312 68.03845
#
# Poissons Ratio (x) = 0.11047 0.42387
# Poissons Ratio (y) = 0.09830 0.36365
# Poissons Ratio (z) = 0.38093 0.36726
#
# Static dielectric constant tensor:
#      x y z
#    x 1.686530 0.000000 0.000000 
#    y 0.000000 1.687220 0.000000 
#    z 0.000000 0.000000 1.646340 
# 
# From -- ./inp_files/14658.got.cif
#   From: 2010.05.17/outbox.cif.g08.bks.cpg/sg43_8_cif.got.tgz:14658.got - 2010.06.03 19:21:55.
