data_PCOD9370591
_publ_section_title
;
Structure prediction by ZEFSAII (Michael W. Deem and Ramdas Pophale) SiO2 
 PCOD9370591
Probable space group: F D D 2
;
_chemical_formula_sum "Si O2"
_cell_formula_units_Z 96
_cell_length_a 9.606596
_cell_length_b 23.106239
_cell_length_c 23.176142
_cell_angle_alpha 90.000000
_cell_angle_beta 90.000000
_cell_angle_gamma 90.000000
_cell_volume 5144.461618
_symmetry_space_group_name_H-M "F D D 2"
_symmetry_group_IT_number 43
_symmetry_cell_setting 'orthorhombic'
loop_
_space_group_symop_operation_xyz
x,y,z
-x,-y,z
1/4-x,1/4+y,1/4+z
1/4+x,1/4-y,1/4+z
x,1/2+y,1/2+z
-x,1/2-y,1/2+z
1/4-x,3/4+y,3/4+z
1/4+x,3/4-y,3/4+z
1/2+x,y,1/2+z
1/2-x,-y,1/2+z
3/4-x,1/4+y,3/4+z
3/4+x,1/4-y,3/4+z
1/2+x,1/2+y,z
1/2-x,1/2-y,z
3/4-x,3/4+y,1/4+z
3/4+x,3/4-y,1/4+z
loop_
_atom_site_type_symbol
_atom_site_label
_atom_site_fract_x
_atom_site_fract_y
_atom_site_fract_z
Si Si1 0.785976 0.038207 0.359060
Si Si2 0.818301 0.446150 0.696609
Si Si3 0.537152 0.064117 0.574321
Si Si4 0.619469 0.793415 0.991771
Si Si5 0.086184 0.079562 0.322530
Si Si6 0.685263 0.608181 0.963381
O O1 0.689811 0.054806 0.305127
O O2 0.715006 0.057144 0.418447
O O3 0.933498 0.070409 0.348422
O O4 0.817800 0.969736 0.352664
O O5 0.901143 0.441826 0.637953
O O6 0.745243 0.508413 0.705505
O O7 0.909369 0.435441 0.754152
O O8 0.695975 0.398009 0.695369
O O9 0.407070 0.108032 0.577585
O O10 0.647174 0.089041 0.528153
O O11 0.500000 0.000000 0.553509
O O12 0.750000 0.750000 0.997738
O O13 0.679085 0.851178 0.964049
#
# Coordination Sequence:
#
# PCOD9370591 Si02
#       6
#    16  16  16  16  16  16
#     4  10  20  36  63  82 117 159 201 245 301 367
#     4   9  20  38  60  84 116 155 203 246 301 374
#     4  11  24  37  59  88 121 157 199 259 317 360
#     4   9  19  36  61  85 111 158 202 246 297 370
#     4   9  22  39  57  89 113 156 210 246 297 371
#     4  10  21  37  56  88 121 148 197 250 309 364
#
# _framework density 18.660844999999998
#
# number of rings (size 3 to 8) (size 9 to 14) (size 15 to 20)
#    0.000    2.333    0.000    2.000    7.000    3.333 
#    0.000    1.667   11.000    0.000    0.000    0.000 
#    0.000    0.000    0.000    0.000    0.000    0.000 
#
# Total GULP energy -133944.484355 kJ/mol
# GULP energy per Si atom -5581.020181 kJ/mol
# Density = 1.861837 g / cm^3
# Si number density = 18.660845 Si / 1000 Ang^3
#
#
#
# Elastic Constant Matrix: (Units=GPa)
#
#
# Indices 1 2 3 4 5 6 
#
# 1 34.1624 16.5909 9.2268 0.0000 0.0000 0.0000
# 2 16.5909 91.3452 22.5805 0.0000 0.0000 0.0000
# 3 9.2268 22.5805 72.4638 0.0000 0.0000 0.0000
# 4 0.0000 0.0000 0.0000 21.9458 0.0000 0.0000
# 5 0.0000 0.0000 0.0000 0.0000 20.8855 0.0000
# 6 0.0000 0.0000 0.0000 0.0000 0.0000 13.6214
#
#
#
# Elastic Compliance Matrix: (Units=1/GPa)
#
#
# Indices 1 2 3 4 5 6 
#
# 1 0.032514 -0.005289 -0.002492 0.000000 0.000000 0.000000
# 2 -0.005289 0.012722 -0.003291 0.000000 0.000000 0.000000
# 3 -0.002492 -0.003291 0.015143 0.000000 0.000000 0.000000
# 4 0.000000 0.000000 0.000000 0.045567 0.000000 0.000000
# 5 0.000000 0.000000 0.000000 0.000000 0.047880 0.000000
# 6 0.000000 0.000000 0.000000 0.000000 0.000000 0.073414
#
#
# Mechanical properties :
#
#
# Convention : Reuss Voigt Hill
#
# Bulk Modulus (GPa) = 26.15449 32.75197 29.45323
# Shear Modulus (GPa) = 19.07470 21.26209 20.16839
#
# Velocity S-wave (km/s) = 3.20062 3.37916 3.29110
# Velocity P-wave (km/s) = 5.26353 5.72837 5.50086
#
# Compressibility (1/GPa) = 0.03823435
#
# Stress axis : x y z
#
# Youngs Moduli (GPa) = 30.75617 78.60608 66.03848
#
# Poissons Ratio (x) = 0.41579 0.16455
# Poissons Ratio (y) = 0.16268 0.21731
# Poissons Ratio (z) = 0.07664 0.25867
#
# Static dielectric constant tensor:
#      x y z
#    x 1.639190 0.000000 0.000000 
#    y 0.000000 1.666490 0.000000 
#    z 0.000000 0.000000 1.604300 
# 
# From -- ./inp_files/13315.got.cif
#   From: 2010.05.17/outbox.cif.g08.bks.cpg/sg43_7_cif.got.tgz:13315.got - 2010.06.03 19:21:55.
