data_PCOD9370239
_publ_section_title
;
Structure prediction by ZEFSAII (Michael W. Deem and Ramdas Pophale) SiO2 
 PCOD9370239
Probable space group: F D D 2
;
_chemical_formula_sum "Si O2"
_cell_formula_units_Z 120
_cell_length_a 12.527081
_cell_length_b 18.623643
_cell_length_c 22.472325
_cell_angle_alpha 90.000000
_cell_angle_beta 90.000000
_cell_angle_gamma 90.000000
_cell_volume 5242.790824
_symmetry_space_group_name_H-M "F D D 2"
_symmetry_group_IT_number 43
_symmetry_cell_setting 'orthorhombic'
loop_
_space_group_symop_operation_xyz
x,y,z
-x,-y,z
1/4-x,1/4+y,1/4+z
1/4+x,1/4-y,1/4+z
x,1/2+y,1/2+z
-x,1/2-y,1/2+z
1/4-x,3/4+y,3/4+z
1/4+x,3/4-y,3/4+z
1/2+x,y,1/2+z
1/2-x,-y,1/2+z
3/4-x,1/4+y,3/4+z
3/4+x,1/4-y,3/4+z
1/2+x,1/2+y,z
1/2-x,1/2-y,z
3/4-x,3/4+y,1/4+z
3/4+x,3/4-y,1/4+z
loop_
_atom_site_type_symbol
_atom_site_label
_atom_site_fract_x
_atom_site_fract_y
_atom_site_fract_z
Si Si1 0.773551 0.935446 0.794180
Si Si2 0.795039 0.418160 0.424013
Si Si3 0.873013 0.091098 0.788870
Si Si4 0.897154 0.590448 0.536361
Si Si5 0.267833 0.466879 0.104249
Si Si6 0.861795 0.729701 0.472718
Si Si7 0.140369 0.209648 0.756322
Si Si8 0.750000 0.750000 0.183863
O O1 0.748199 0.902844 0.859314
O O2 0.831130 0.874302 0.756707
O O3 0.846812 0.007534 0.794526
O O4 0.663761 0.959442 0.763470
O O5 0.834958 0.359917 0.472381
O O6 0.708939 0.466819 0.460284
O O7 0.906618 0.455251 0.404947
O O8 0.761053 0.129108 0.807472
O O9 0.951819 0.137559 0.829769
O O10 0.840404 0.532108 0.577624
O O11 0.836981 0.661554 0.514859
O O12 0.930307 0.550008 0.476557
O O13 0.296815 0.464822 0.173547
O O14 0.154309 0.480172 0.072139
O O15 0.750000 0.750000 0.443147
O O16 0.250000 0.250000 0.741743
#
# Coordination Sequence:
#
# PCOD9370239 Si02
#       8
#    16  16  16  16  16  16  16   8
#     4  11  27  45  66 110 148 191 238 306 366 451
#     4  10  23  43  72 101 142 192 240 307 364 422
#     4   9  20  40  68 108 136 178 241 300 367 414
#     4  10  18  39  66  99 141 165 229 300 356 414
#     4  11  22  42  74 104 137 191 234 304 358 426
#     4  11  27  43  71 107 143 187 246 301 364 427
#     4  11  27  47  71 102 149 202 242 277 380 458
#     4  10  18  36  70 104 128 170 242 304 352 410
#
# _framework density 22.888573000000001
#
# number of rings (size 3 to 8) (size 9 to 14) (size 15 to 20)
#    0.000    1.600    4.000    0.800    9.333    4.800 
#    4.800    0.000    1.467    0.000    0.000    0.000 
#    0.000    0.000    0.000    0.000    0.000    0.000 
#
# Total GULP energy -167230.485713 kJ/mol
# GULP energy per Si atom -5574.349524 kJ/mol
# Density = 2.283648 g / cm^3
# Si number density = 22.888573 Si / 1000 Ang^3
#
#
#
# Elastic Constant Matrix: (Units=GPa)
#
#
# Indices 1 2 3 4 5 6 
#
# 1 109.5657 51.9139 37.6975 0.0000 0.0000 0.0000
# 2 51.9139 93.7696 15.7524 0.0000 0.0000 0.0000
# 3 37.6975 15.7524 88.4091 0.0000 0.0000 0.0000
# 4 0.0000 0.0000 0.0000 -5.6357 0.0000 0.0000
# 5 0.0000 0.0000 0.0000 0.0000 18.8176 0.0000
# 6 0.0000 0.0000 0.0000 0.0000 0.0000 7.8803
#
#
#
# Elastic Compliance Matrix: (Units=1/GPa)
#
#
# Indices 1 2 3 4 5 6 
#
# 1 0.014078 -0.006995 -0.004756 0.000000 0.000000 0.000000
# 2 -0.006995 0.014469 0.000405 0.000000 0.000000 0.000000
# 3 -0.004756 0.000405 0.013267 0.000000 0.000000 0.000000
# 4 0.000000 0.000000 0.000000 -0.177440 0.000000 0.000000
# 5 0.000000 0.000000 0.000000 0.000000 0.053142 0.000000
# 6 0.000000 0.000000 0.000000 0.000000 0.000000 0.126898
#
#
# Mechanical properties :
#
#
# Convention : Reuss Voigt Hill
#
# Bulk Modulus (GPa) = 52.29999 55.83023 54.06511
# Shear Modulus (GPa) = 68.04494 16.63783 42.34139
#
# Velocity S-wave (km/s) = 5.45833 2.69904 4.30570
# Velocity P-wave (km/s) = 7.91352 5.84451 6.95637
#
# Compressibility (1/GPa) = 0.01912046
#
# Stress axis : x y z
#
# Youngs Moduli (GPa) = 71.03432 69.11305 75.37451
#
# Poissons Ratio (x) = 0.48344 0.35851
# Poissons Ratio (y) = 0.49687 -0.03049
# Poissons Ratio (z) = 0.33787 -0.02796
#
# Static dielectric constant tensor:
#      x y z
#    x 1.916920 0.000000 0.000000 
#    y 0.000000 1.894880 0.000000 
#    z 0.000000 0.000000 1.898270 
# 
# From -- ./inp_files/21226.got.cif
#   From: 2010.05.17/outbox.cif.g08.bks.cpg/sg43_11_cif.got.tgz:21226.got - 2010.06.03 19:21:55.
