data_PCOD9370639
_publ_section_title
;
Structure prediction by ZEFSAII (Michael W. Deem and Ramdas Pophale) SiO2 
 PCOD9370639
Probable space group: F D D 2
;
_chemical_formula_sum "Si O2"
_cell_formula_units_Z 96
_cell_length_a 16.563895
_cell_length_b 11.137441
_cell_length_c 21.902743
_cell_angle_alpha 90.000000
_cell_angle_beta 90.000000
_cell_angle_gamma 90.000000
_cell_volume 4040.604959
_symmetry_space_group_name_H-M "F D D 2"
_symmetry_group_IT_number 43
_symmetry_cell_setting 'orthorhombic'
loop_
_space_group_symop_operation_xyz
x,y,z
-x,-y,z
1/4-x,1/4+y,1/4+z
1/4+x,1/4-y,1/4+z
x,1/2+y,1/2+z
-x,1/2-y,1/2+z
1/4-x,3/4+y,3/4+z
1/4+x,3/4-y,3/4+z
1/2+x,y,1/2+z
1/2-x,-y,1/2+z
3/4-x,1/4+y,3/4+z
3/4+x,1/4-y,3/4+z
1/2+x,1/2+y,z
1/2-x,1/2-y,z
3/4-x,3/4+y,1/4+z
3/4+x,3/4-y,1/4+z
loop_
_atom_site_type_symbol
_atom_site_label
_atom_site_fract_x
_atom_site_fract_y
_atom_site_fract_z
Si Si1 0.100345 0.918272 0.767140
Si Si2 0.600345 0.081728 0.152837
Si Si3 0.070269 0.573475 0.915979
Si Si4 0.982366 0.806338 0.542292
Si Si5 0.482366 0.193661 0.377685
Si Si6 0.929731 0.573475 0.503998
O O1 0.038390 0.889182 0.821016
O O2 0.116586 0.781712 0.742867
O O3 0.078991 0.000000 0.709989
O O4 0.180584 0.989799 0.792580
O O5 0.616586 0.218289 0.177110
O O6 0.538390 0.110818 0.098962
O O7 0.680584 0.010201 0.127397
O O8 0.083873 0.698142 0.881189
O O9 0.000000 0.500000 0.881593
O O10 0.031667 0.620643 0.979804
O O11 0.916126 0.698142 0.538788
O O12 0.468333 0.120644 0.440173
O O13 0.000000 0.500000 0.538384
#
# Coordination Sequence:
#
# PCOD9370639 Si02
#       6
#    16  16  16  16  16  16
#     4  11  21  38  65  98 135 178 226 283 354 409
#     4  11  21  38  65  98 135 178 226 283 354 409
#     4   9  17  38  61  92 129 178 221 272 351 406
#     4  10  20  37  65  93 134 180 223 285 340 421
#     4  10  20  37  65  93 134 180 223 285 340 421
#     4   9  17  38  61  92 129 178 221 272 351 406
#
# _framework density 23.758818999999999
#
# number of rings (size 3 to 8) (size 9 to 14) (size 15 to 20)
#    0.000    2.000    6.667    1.000    0.000    1.333 
#    0.000    1.667    0.000    4.000    0.000    0.000 
#    0.000    0.000    0.000    0.000    0.000    0.000 
#
# Total GULP energy -133696.417747 kJ/mol
# GULP energy per Si atom -5570.684073 kJ/mol
# Density = 2.370474 g / cm^3
# Si number density = 23.758819 Si / 1000 Ang^3
#
#
#
# Elastic Constant Matrix: (Units=GPa)
#
#
# Indices 1 2 3 4 5 6 
#
# 1 74.2470 55.3876 40.6656 0.0000 0.0000 0.0000
# 2 55.3876 233.2003 77.8873 0.0000 0.0000 0.0000
# 3 40.6656 77.8873 119.8688 0.0000 0.0000 0.0000
# 4 0.0000 0.0000 0.0000 45.3705 0.0000 0.0000
# 5 0.0000 0.0000 0.0000 0.0000 13.0108 0.0000
# 6 0.0000 0.0000 0.0000 0.0000 0.0000 -250.3966
#
#
#
# Elastic Compliance Matrix: (Units=1/GPa)
#
#
# Indices 1 2 3 4 5 6 
#
# 1 0.017903 -0.002840 -0.004228 0.000000 0.000000 0.000000
# 2 -0.002840 0.005927 -0.002888 0.000000 0.000000 0.000000
# 3 -0.004228 -0.002888 0.011653 0.000000 0.000000 0.000000
# 4 0.000000 0.000000 0.000000 0.022041 0.000000 0.000000
# 5 0.000000 0.000000 0.000000 0.000000 0.076859 0.000000
# 6 0.000000 0.000000 0.000000 0.000000 0.000000 -0.003994
#
#
# Mechanical properties :
#
#
# Convention : Reuss Voigt Hill
#
# Bulk Modulus (GPa) = 64.22051 86.13302 75.17677
# Shear Modulus (GPa) = 32.15589 -21.51136 5.32226
#
# Velocity S-wave (km/s) = 3.68289 -3.01226 1.49833
# Velocity P-wave (km/s) = 6.72114 4.92275 5.89098
#
# Compressibility (1/GPa) = 0.01557135
#
# Stress axis : x y z
#
# Youngs Moduli (GPa) = 55.85655 168.71352 85.81206
#
# Poissons Ratio (x) = 0.47914 0.36284
# Poissons Ratio (y) = 0.15863 0.24782
# Poissons Ratio (z) = 0.23618 0.48722
#
# Static dielectric constant tensor:
#      x y z
#    x 2.079300 0.000000 0.000000 
#    y 0.000000 1.965500 0.000000 
#    z 0.000000 0.000000 1.925450 
# 
# From -- ./inp_files/18326.got.cif
#   From: 2010.05.17/outbox.cif.g08.bks.cpg/sg43_10_cif.got.tgz:18326.got - 2010.06.03 19:21:55.
