data_PCOD9370588
_publ_section_title
;
Structure prediction by ZEFSAII (Michael W. Deem and Ramdas Pophale) SiO2 
 PCOD9370588
Probable space group: F D D 2
;
_chemical_formula_sum "Si O2"
_cell_formula_units_Z 128
_cell_length_a 10.961450
_cell_length_b 20.324838
_cell_length_c 23.821615
_cell_angle_alpha 90.000000
_cell_angle_beta 90.000000
_cell_angle_gamma 90.000000
_cell_volume 5307.210352
_symmetry_space_group_name_H-M "F D D 2"
_symmetry_group_IT_number 43
_symmetry_cell_setting 'orthorhombic'
loop_
_space_group_symop_operation_xyz
x,y,z
-x,-y,z
1/4-x,1/4+y,1/4+z
1/4+x,1/4-y,1/4+z
x,1/2+y,1/2+z
-x,1/2-y,1/2+z
1/4-x,3/4+y,3/4+z
1/4+x,3/4-y,3/4+z
1/2+x,y,1/2+z
1/2-x,-y,1/2+z
3/4-x,1/4+y,3/4+z
3/4+x,1/4-y,3/4+z
1/2+x,1/2+y,z
1/2-x,1/2-y,z
3/4-x,3/4+y,1/4+z
3/4+x,3/4-y,1/4+z
loop_
_atom_site_type_symbol
_atom_site_label
_atom_site_fract_x
_atom_site_fract_y
_atom_site_fract_z
Si Si1 0.982735 0.426628 0.723710
Si Si2 0.799910 0.054613 0.538650
Si Si3 0.677968 0.614460 0.321334
Si Si4 0.139983 0.497058 0.233013
Si Si5 0.575803 0.089540 0.474147
Si Si6 0.966410 0.860223 0.535595
Si Si7 0.804021 0.428605 0.116447
Si Si8 0.334323 0.351787 0.128597
O O1 0.906197 0.429479 0.781434
O O2 0.903031 0.392151 0.677212
O O3 0.000000 0.500000 0.703337
O O4 0.105664 0.389947 0.741158
O O5 0.704971 0.056917 0.487511
O O6 0.930734 0.085063 0.524409
O O7 0.737995 0.103544 0.584271
O O8 0.808849 0.984424 0.568133
O O9 0.736394 0.668680 0.278280
O O10 0.582572 0.648509 0.363802
O O11 0.794932 0.577084 0.346523
O O12 0.162162 0.419669 0.222252
O O13 0.218853 0.540340 0.275970
O O14 0.160624 0.536160 0.174258
O O15 0.000000 0.500000 0.251449
O O16 0.518012 0.066967 0.415865
O O17 0.903990 0.875432 0.595686
#
# Coordination Sequence:
#
# PCOD9370588 Si02
#       8
#    16  16  16  16  16  16  16  16
#     4  10  21  39  65  93 127 165 223 274 334 399
#     4  11  22  38  64  98 138 172 227 287 341 404
#     4   9  21  36  60  95 131 165 219 280 338 389
#     4  12  22  41  70  99 131 179 237 276 340 423
#     4  10  21  39  64  98 132 173 228 287 331 406
#     4  11  23  39  65 100 141 168 221 296 342 398
#     4  11  24  41  67 104 131 182 235 281 349 419
#     4  10  20  36  62  91 126 167 221 271 328 400
#
# _framework density 24.118133
#
# number of rings (size 3 to 8) (size 9 to 14) (size 15 to 20)
#    0.000    1.500    2.500    3.375    1.750    1.500 
#    0.000    0.000    0.000   69.000    0.000    0.000 
#    0.000    0.000    0.000    0.000    0.000    0.000 
#
# Total GULP energy -178868.742231 kJ/mol
# GULP energy per Si atom -5589.648195 kJ/mol
# Density = 2.406324 g / cm^3
# Si number density = 24.118133 Si / 1000 Ang^3
#
#
#
# Elastic Constant Matrix: (Units=GPa)
#
#
# Indices 1 2 3 4 5 6 
#
# 1 166.7739 22.0908 35.7552 0.0000 0.0000 0.0000
# 2 22.0908 90.3377 28.3588 0.0000 0.0000 0.0000
# 3 35.7552 28.3588 93.2986 0.0000 0.0000 0.0000
# 4 0.0000 0.0000 0.0000 16.5677 0.0000 0.0000
# 5 0.0000 0.0000 0.0000 0.0000 38.7344 0.0000
# 6 0.0000 0.0000 0.0000 0.0000 0.0000 22.6883
#
#
#
# Elastic Compliance Matrix: (Units=1/GPa)
#
#
# Indices 1 2 3 4 5 6 
#
# 1 0.006599 -0.000906 -0.002254 0.000000 0.000000 0.000000
# 2 -0.000906 0.012362 -0.003410 0.000000 0.000000 0.000000
# 3 -0.002254 -0.003410 0.012618 0.000000 0.000000 0.000000
# 4 0.000000 0.000000 0.000000 0.060358 0.000000 0.000000
# 5 0.000000 0.000000 0.000000 0.000000 0.025817 0.000000
# 6 0.000000 0.000000 0.000000 0.000000 0.000000 0.044076
#
#
# Mechanical properties :
#
#
# Convention : Reuss Voigt Hill
#
# Bulk Modulus (GPa) = 54.23155 58.09108 56.16131
# Shear Modulus (GPa) = 27.60648 33.21177 30.40912
#
# Velocity S-wave (km/s) = 3.38692 3.71488 3.55468
# Velocity P-wave (km/s) = 6.15057 6.52218 6.33910
#
# Compressibility (1/GPa) = 0.01843945
#
# Stress axis : x y z
#
# Youngs Moduli (GPa) = 151.53005 80.89504 79.24900
#
# Poissons Ratio (x) = 0.07332 0.17860
# Poissons Ratio (y) = 0.13734 0.27025
# Poissons Ratio (z) = 0.34149 0.27586
#
# Static dielectric constant tensor:
#      x y z
#    x 1.974940 0.000000 0.000000 
#    y 0.000000 1.926110 0.000000 
#    z 0.000000 0.000000 1.973240 
# 
# From -- ./inp_files/21340.got.cif
#   From: 2010.05.17/outbox.cif.g08.bks.cpg/sg43_11_cif.got.tgz:21340.got - 2010.06.03 19:21:55.
