data_PCOD9370733
_publ_section_title
;
Structure prediction by ZEFSAII (Michael W. Deem and Ramdas Pophale) SiO2 
 PCOD9370733
Probable space group: F D D 2
;
_chemical_formula_sum "Si O2"
_cell_formula_units_Z 88
_cell_length_a 19.120217
_cell_length_b 14.683877
_cell_length_c 12.284479
_cell_angle_alpha 90.000000
_cell_angle_beta 90.000000
_cell_angle_gamma 90.000000
_cell_volume 3448.976991
_symmetry_space_group_name_H-M "F D D 2"
_symmetry_group_IT_number 43
_symmetry_cell_setting 'orthorhombic'
loop_
_space_group_symop_operation_xyz
x,y,z
-x,-y,z
1/4-x,1/4+y,1/4+z
1/4+x,1/4-y,1/4+z
x,1/2+y,1/2+z
-x,1/2-y,1/2+z
1/4-x,3/4+y,3/4+z
1/4+x,3/4-y,3/4+z
1/2+x,y,1/2+z
1/2-x,-y,1/2+z
3/4-x,1/4+y,3/4+z
3/4+x,1/4-y,3/4+z
1/2+x,1/2+y,z
1/2-x,1/2-y,z
3/4-x,3/4+y,1/4+z
3/4+x,3/4-y,1/4+z
loop_
_atom_site_type_symbol
_atom_site_label
_atom_site_fract_x
_atom_site_fract_y
_atom_site_fract_z
Si Si1 0.807213 0.942009 0.288570
Si Si2 0.440174 0.355778 0.316580
Si Si3 0.161265 0.511280 0.229775
Si Si4 0.907407 0.161188 0.254749
Si Si5 0.750000 0.250000 0.762178
Si Si6 0.642094 0.075502 0.453119
O O1 0.885906 0.920811 0.248350
O O2 0.742627 0.979186 0.220623
O O3 0.818902 0.982789 0.409406
O O4 0.665548 0.081077 0.328769
O O5 0.405761 0.362041 0.438453
O O6 0.520282 0.384311 0.299941
O O7 0.430761 0.254450 0.267974
O O8 0.131772 0.545284 0.116200
O O9 0.280703 0.338583 0.321867
O O10 0.115664 0.422370 0.260244
O O11 0.686947 0.289381 0.694117
#
# Coordination Sequence:
#
# PCOD9370733 Si02
#       6
#    16  16  16  16   8  16
#     4   8  18  37  60  93 123 165 218 270 332 399
#     4   9  19  41  67  98 133 176 229 278 343 414
#     4  11  22  41  62  95 132 169 223 285 356 402
#     4  10  21  41  63 102 131 177 223 292 337 414
#     4   8  16  34  58  88 110 160 222 266 302 404
#     4  10  20  39  63  89 126 170 221 274 336 423
#
# _framework density 25.514813
#
# number of rings (size 3 to 8) (size 9 to 14) (size 15 to 20)
#    1.091    1.455    1.818    0.000    0.000    4.364 
#    6.545    1.818    0.000    0.000    0.000    0.000 
#    0.000    0.000    0.000    0.000    0.000    0.000 
#
# Total GULP energy -122477.626860 kJ/mol
# GULP energy per Si atom -5567.164857 kJ/mol
# Density = 2.545674 g / cm^3
# Si number density = 25.514813 Si / 1000 Ang^3
#
#
#
# Elastic Constant Matrix: (Units=GPa)
#
#
# Indices 1 2 3 4 5 6 
#
# 1 82.5502 27.5799 15.6559 0.0000 0.0000 0.0000
# 2 27.5799 57.1635 22.2303 0.0000 0.0000 0.0000
# 3 15.6559 22.2303 137.0478 0.0000 0.0000 0.0000
# 4 0.0000 0.0000 0.0000 28.8766 0.0000 0.0000
# 5 0.0000 0.0000 0.0000 0.0000 39.9174 0.0000
# 6 0.0000 0.0000 0.0000 0.0000 0.0000 23.3608
#
#
#
# Elastic Compliance Matrix: (Units=1/GPa)
#
#
# Indices 1 2 3 4 5 6 
#
# 1 0.014481 -0.006771 -0.000556 0.000000 0.000000 0.000000
# 2 -0.006771 0.021837 -0.002769 0.000000 0.000000 0.000000
# 3 -0.000556 -0.002769 0.007809 0.000000 0.000000 0.000000
# 4 0.000000 0.000000 0.000000 0.034630 0.000000 0.000000
# 5 0.000000 0.000000 0.000000 0.000000 0.025052 0.000000
# 6 0.000000 0.000000 0.000000 0.000000 0.000000 0.042807
#
#
# Mechanical properties :
#
#
# Convention : Reuss Voigt Hill
#
# Bulk Modulus (GPa) = 41.77635 45.29932 43.53784
# Shear Modulus (GPa) = 28.60640 32.51732 30.56186
#
# Velocity S-wave (km/s) = 3.35202 3.57382 3.46469
# Velocity P-wave (km/s) = 5.60270 5.90103 5.75380
#
# Compressibility (1/GPa) = 0.02393699
#
# Stress axis : x y z
#
# Youngs Moduli (GPa) = 69.05429 45.79373 128.05158
#
# Poissons Ratio (x) = 0.31005 0.07120
# Poissons Ratio (y) = 0.46754 0.35454
# Poissons Ratio (z) = 0.03840 0.12679
#
# Static dielectric constant tensor:
#      x y z
#    x 2.028810 0.000000 0.000000 
#    y 0.000000 2.191170 0.000000 
#    z 0.000000 0.000000 2.150750 
# 
# From -- ./inp_files/10883.got.cif
#   From: 2010.05.17/outbox.cif.g08.bks.cpg/sg43_6_cif.got.tgz:10883.got - 2010.06.03 19:21:55.
