data_PCOD9370473
_publ_section_title
;
Structure prediction by ZEFSAII (Michael W. Deem and Ramdas Pophale) SiO2 
 PCOD9370473
Probable space group: F D D 2
;
_chemical_formula_sum "Si O2"
_cell_formula_units_Z 88
_cell_length_a 17.734017
_cell_length_b 9.057887
_cell_length_c 26.974935
_cell_angle_alpha 90.000000
_cell_angle_beta 90.000000
_cell_angle_gamma 90.000000
_cell_volume 4333.057236
_symmetry_space_group_name_H-M "F D D 2"
_symmetry_group_IT_number 43
_symmetry_cell_setting 'orthorhombic'
loop_
_space_group_symop_operation_xyz
x,y,z
-x,-y,z
1/4-x,1/4+y,1/4+z
1/4+x,1/4-y,1/4+z
x,1/2+y,1/2+z
-x,1/2-y,1/2+z
1/4-x,3/4+y,3/4+z
1/4+x,3/4-y,3/4+z
1/2+x,y,1/2+z
1/2-x,-y,1/2+z
3/4-x,1/4+y,3/4+z
3/4+x,1/4-y,3/4+z
1/2+x,1/2+y,z
1/2-x,1/2-y,z
3/4-x,3/4+y,1/4+z
3/4+x,3/4-y,1/4+z
loop_
_atom_site_type_symbol
_atom_site_label
_atom_site_fract_x
_atom_site_fract_y
_atom_site_fract_z
Si Si1 0.704984 0.617284 0.985030
Si Si2 0.500000 0.000000 0.407950
Si Si3 0.646422 0.160353 0.377385
Si Si4 0.690203 0.131030 0.938783
Si Si5 0.552935 0.221563 0.095893
Si Si6 0.592609 0.861657 0.495493
O O1 0.750000 0.750000 0.011352
O O2 0.666260 0.687948 0.935655
O O3 0.767209 0.500395 0.966641
O O4 0.640966 0.510063 0.007270
O O5 0.435020 0.916179 0.377259
O O6 0.542546 0.893572 0.447028
O O7 0.657262 0.310718 0.346661
O O8 0.715631 0.056135 0.360717
O O9 0.750000 0.250000 0.918967
O O10 0.643077 0.224511 0.977662
O O11 0.655091 0.061774 0.889487
O O12 0.552825 0.307761 0.044784
#
# Coordination Sequence:
#
# PCOD9370473 Si02
#       6
#    16   8  16  16  16  16
#     4   9  15  36  67  89 120 168 205 256 325 394
#     4  10  22  42  62  96 136 168 214 278 322 390
#     4   9  18  39  68  89 127 171 215 257 333 398
#     4   9  18  35  64  88 123 165 204 261 333 377
#     4  10  19  39  67  92 124 175 219 262 330 400
#     4  10  22  36  62  97 128 161 226 269 312 392
#
# _framework density 20.308987999999999
#
# number of rings (size 3 to 8) (size 9 to 14) (size 15 to 20)
#    0.000    2.545    3.636    1.091    1.273    0.000 
#    6.545    5.455   12.000    0.000    0.000    0.000 
#    0.000    0.000    0.000    0.000    0.000    0.000 
#
# Total GULP energy -122534.232144 kJ/mol
# GULP energy per Si atom -5569.737825 kJ/mol
# Density = 2.026276 g / cm^3
# Si number density = 20.308988 Si / 1000 Ang^3
#
#
#
# Elastic Constant Matrix: (Units=GPa)
#
#
# Indices 1 2 3 4 5 6 
#
# 1 100.1745 47.7043 21.8956 0.0000 0.0000 0.0000
# 2 47.7043 117.1542 25.9967 0.0000 0.0000 0.0000
# 3 21.8956 25.9967 47.9844 0.0000 0.0000 0.0000
# 4 0.0000 0.0000 0.0000 12.9684 0.0000 0.0000
# 5 0.0000 0.0000 0.0000 0.0000 -155.7103 0.0000
# 6 0.0000 0.0000 0.0000 0.0000 0.0000 17.1104
#
#
#
# Elastic Compliance Matrix: (Units=1/GPa)
#
#
# Indices 1 2 3 4 5 6 
#
# 1 0.012867 -0.004474 -0.003447 0.000000 0.000000 0.000000
# 2 -0.004474 0.011258 -0.004058 0.000000 0.000000 0.000000
# 3 -0.003447 -0.004058 0.024611 0.000000 0.000000 0.000000
# 4 0.000000 0.000000 0.000000 0.077111 0.000000 0.000000
# 5 0.000000 0.000000 0.000000 0.000000 -0.006422 0.000000
# 6 0.000000 0.000000 0.000000 0.000000 0.000000 0.058444
#
#
# Mechanical properties :
#
#
# Convention : Reuss Voigt Hill
#
# Bulk Modulus (GPa) = 40.35837 50.72293 45.54065
# Shear Modulus (GPa) = 23.79974 -13.81187 4.99394
#
# Velocity S-wave (km/s) = 3.42699 -2.61068 1.56981
# Velocity P-wave (km/s) = 5.96442 3.99278 5.07527
#
# Compressibility (1/GPa) = 0.02477801
#
# Stress axis : x y z
#
# Youngs Moduli (GPa) = 77.71963 88.82511 40.63156
#
# Poissons Ratio (x) = 0.39743 0.14006
# Poissons Ratio (y) = 0.34774 0.16487
# Poissons Ratio (z) = 0.26791 0.36042
#
# Static dielectric constant tensor:
#      x y z
#    x 1.775280 0.000000 0.000000 
#    y 0.000000 1.775350 0.000000 
#    z 0.000000 0.000000 1.727700 
# 
# From -- ./inp_files/29408.got.cif
#   From: 2010.05.17/outbox.cif.g08.bks.cpg/sg43_15_cif.got.tgz:29408.got - 2010.06.03 19:21:55.
