data_PCOD9370714
_publ_section_title
;
Structure prediction by ZEFSAII (Michael W. Deem and Ramdas Pophale) SiO2 
 PCOD9370714
Probable space group: F D D 2
;
_chemical_formula_sum "Si O2"
_cell_formula_units_Z 88
_cell_length_a 14.708688
_cell_length_b 24.246495
_cell_length_c 10.349622
_cell_angle_alpha 90.000000
_cell_angle_beta 90.000000
_cell_angle_gamma 90.000000
_cell_volume 3691.028438
_symmetry_space_group_name_H-M "F D D 2"
_symmetry_group_IT_number 43
_symmetry_cell_setting 'orthorhombic'
loop_
_space_group_symop_operation_xyz
x,y,z
-x,-y,z
1/4-x,1/4+y,1/4+z
1/4+x,1/4-y,1/4+z
x,1/2+y,1/2+z
-x,1/2-y,1/2+z
1/4-x,3/4+y,3/4+z
1/4+x,3/4-y,3/4+z
1/2+x,y,1/2+z
1/2-x,-y,1/2+z
3/4-x,1/4+y,3/4+z
3/4+x,1/4-y,3/4+z
1/2+x,1/2+y,z
1/2-x,1/2-y,z
3/4-x,3/4+y,1/4+z
3/4+x,3/4-y,1/4+z
loop_
_atom_site_type_symbol
_atom_site_label
_atom_site_fract_x
_atom_site_fract_y
_atom_site_fract_z
Si Si1 0.991560 0.584539 0.883820
Si Si2 0.386258 0.878798 0.537782
Si Si3 0.935726 0.192954 0.029946
Si Si4 0.250000 0.750000 0.345080
Si Si5 0.438040 0.820261 0.036195
Si Si6 0.552456 0.588601 0.760653
O O1 0.094831 0.565578 0.863055
O O2 0.922139 0.573343 0.767609
O O3 0.003680 0.647339 0.929282
O O4 0.958117 0.546341 0.002083
O O5 0.352051 0.925058 0.638244
O O6 0.480864 0.847371 0.565324
O O7 0.395783 0.902822 0.393495
O O8 0.304776 0.834849 0.543206
O O9 0.963244 0.256635 0.042274
O O10 0.178509 0.783618 0.430821
O O11 0.443172 0.858593 0.164988
#
# Coordination Sequence:
#
# PCOD9370714 Si02
#       6
#    16  16  16   8  16  16
#     4  11  22  41  67 103 133 181 240 290 351 426
#     4  10  24  44  63 100 143 179 237 286 367 431
#     4  11  23  45  68 100 142 189 231 301 359 436
#     4  10  20  38  68  90 132 172 230 294 338 412
#     4  11  23  42  74  98 137 183 241 290 353 427
#     4  10  22  42  65  99 135 185 234 292 354 427
#
# _framework density 23.841594000000001
#
# number of rings (size 3 to 8) (size 9 to 14) (size 15 to 20)
#    0.000    1.455    1.818    3.273    0.000    4.364 
#   19.636    0.000    0.000    0.000    0.000    0.000 
#    0.000    0.000    0.000    0.000    0.000    0.000 
#
# Total GULP energy -122890.553626 kJ/mol
# GULP energy per Si atom -5585.934256 kJ/mol
# Density = 2.378733 g / cm^3
# Si number density = 23.841594 Si / 1000 Ang^3
#
#
#
# Elastic Constant Matrix: (Units=GPa)
#
#
# Indices 1 2 3 4 5 6 
#
# 1 106.7718 14.4622 4.2181 0.0000 0.0000 0.0000
# 2 14.4622 151.4065 33.7073 0.0000 0.0000 0.0000
# 3 4.2181 33.7073 60.3051 0.0000 0.0000 0.0000
# 4 0.0000 0.0000 0.0000 33.6183 0.0000 0.0000
# 5 0.0000 0.0000 0.0000 0.0000 35.7721 0.0000
# 6 0.0000 0.0000 0.0000 0.0000 0.0000 29.6741
#
#
#
# Elastic Compliance Matrix: (Units=1/GPa)
#
#
# Indices 1 2 3 4 5 6 
#
# 1 0.009490 -0.000867 -0.000179 0.000000 0.000000 0.000000
# 2 -0.000867 0.007623 -0.004200 0.000000 0.000000 0.000000
# 3 -0.000179 -0.004200 0.018942 0.000000 0.000000 0.000000
# 4 0.000000 0.000000 0.000000 0.029746 0.000000 0.000000
# 5 0.000000 0.000000 0.000000 0.000000 0.027955 0.000000
# 6 0.000000 0.000000 0.000000 0.000000 0.000000 0.033699
#
#
# Mechanical properties :
#
#
# Convention : Reuss Voigt Hill
#
# Bulk Modulus (GPa) = 39.11864 47.02875 43.07369
# Shear Modulus (GPa) = 34.13710 37.55261 35.84486
#
# Velocity S-wave (km/s) = 3.78806 3.97304 3.88165
# Velocity P-wave (km/s) = 5.96455 6.38867 6.18025
#
# Compressibility (1/GPa) = 0.02556326
#
# Stress axis : x y z
#
# Youngs Moduli (GPa) = 105.37156 131.18985 52.79147
#
# Poissons Ratio (x) = 0.11368 0.00947
# Poissons Ratio (y) = 0.09131 0.22172
# Poissons Ratio (z) = 0.01891 0.55099
#
# Static dielectric constant tensor:
#      x y z
#    x 2.062200 0.000000 0.000000 
#    y 0.000000 1.870260 0.000000 
#    z 0.000000 0.000000 1.963420 
# 
# From -- ./inp_files/6136.got.cif
#   From: 2010.05.17/outbox.cif.g08.bks.cpg/sg43_4_cif.got.tgz:6136.got - 2010.06.03 19:21:55.
