data_PCOD9370406
_publ_section_title
;
Structure prediction by ZEFSAII (Michael W. Deem and Ramdas Pophale) SiO2 
 PCOD9370406
Probable space group: F D D 2
;
_chemical_formula_sum "Si O2"
_cell_formula_units_Z 120
_cell_length_a 14.348499
_cell_length_b 11.001358
_cell_length_c 30.148272
_cell_angle_alpha 90.000000
_cell_angle_beta 90.000000
_cell_angle_gamma 90.000000
_cell_volume 4758.994404
_symmetry_space_group_name_H-M "F D D 2"
_symmetry_group_IT_number 43
_symmetry_cell_setting 'orthorhombic'
loop_
_space_group_symop_operation_xyz
x,y,z
-x,-y,z
1/4-x,1/4+y,1/4+z
1/4+x,1/4-y,1/4+z
x,1/2+y,1/2+z
-x,1/2-y,1/2+z
1/4-x,3/4+y,3/4+z
1/4+x,3/4-y,3/4+z
1/2+x,y,1/2+z
1/2-x,-y,1/2+z
3/4-x,1/4+y,3/4+z
3/4+x,1/4-y,3/4+z
1/2+x,1/2+y,z
1/2-x,1/2-y,z
3/4-x,3/4+y,1/4+z
3/4+x,3/4-y,1/4+z
loop_
_atom_site_type_symbol
_atom_site_label
_atom_site_fract_x
_atom_site_fract_y
_atom_site_fract_z
Si Si1 0.136094 0.005600 0.312690
Si Si2 0.859419 0.517335 0.305097
Si Si3 0.000000 0.500000 0.876713
Si Si4 0.111189 0.983793 0.601988
Si Si5 0.679253 0.485622 0.435562
Si Si6 0.677763 0.853362 0.383361
Si Si7 0.367948 0.002980 0.206780
Si Si8 0.650990 0.471597 0.218356
O O1 0.246722 0.024662 0.313503
O O2 0.067258 0.079516 0.344642
O O3 0.115491 0.865259 0.328617
O O4 0.113950 0.034829 0.262208
O O5 0.883616 0.378557 0.319004
O O6 0.891414 0.603052 0.345292
O O7 0.883058 0.563584 0.255824
O O8 0.083630 0.460110 0.908508
O O9 0.138577 0.955320 0.654340
O O10 0.000000 0.000000 0.605393
O O11 0.761251 0.536710 0.405028
O O12 0.693904 0.355505 0.455977
O O13 0.649477 0.592225 0.467769
O O14 0.750000 0.750000 0.367490
O O15 0.625782 0.792608 0.424497
O O16 0.261874 0.957343 0.218156
#
# Coordination Sequence:
#
# PCOD9370406 Si02
#       8
#    16  16   8  16  16  16  16  16
#     4  10  20  33  56  93 117 157 197 259 312 361
#     4  10  21  39  58  83 121 163 204 243 308 372
#     4  12  18  30  58  88 126 148 194 258 302 374
#     4  10  19  37  62  87 122 156 204 262 313 359
#     4  11  18  34  56  87 121 156 195 254 314 359
#     4  10  22  39  58  84 123 167 195 249 313 371
#     4  11  20  37  62  89 115 162 208 254 302 372
#     4  10  21  35  58  87 123 161 204 251 313 373
#
# _framework density 25.215411
#
# number of rings (size 3 to 8) (size 9 to 14) (size 15 to 20)
#    0.000    1.600    4.000    1.600    2.800    2.133 
#    0.000    4.667    0.000    0.000    0.000    0.000 
#    0.000    0.000    0.000    0.000    0.000    0.000 
#
# Total GULP energy -167031.851392 kJ/mol
# GULP energy per Si atom -5567.728380 kJ/mol
# Density = 2.515802 g / cm^3
# Si number density = 25.215411 Si / 1000 Ang^3
#
#
#
# Elastic Constant Matrix: (Units=GPa)
#
#
# Indices 1 2 3 4 5 6 
#
# 1 72.5629 17.6923 5.2215 0.0000 0.0000 0.0000
# 2 17.6923 57.5055 18.1597 0.0000 0.0000 0.0000
# 3 5.2215 18.1597 122.9770 0.0000 0.0000 0.0000
# 4 0.0000 0.0000 0.0000 16.3757 0.0000 0.0000
# 5 0.0000 0.0000 0.0000 0.0000 24.9790 0.0000
# 6 0.0000 0.0000 0.0000 0.0000 0.0000 14.3526
#
#
#
# Elastic Compliance Matrix: (Units=1/GPa)
#
#
# Indices 1 2 3 4 5 6 
#
# 1 0.014899 -0.004599 0.000046 0.000000 0.000000 0.000000
# 2 -0.004599 0.019660 -0.002708 0.000000 0.000000 0.000000
# 3 0.000046 -0.002708 0.008529 0.000000 0.000000 0.000000
# 4 0.000000 0.000000 0.000000 0.061066 0.000000 0.000000
# 5 0.000000 0.000000 0.000000 0.000000 0.040034 0.000000
# 6 0.000000 0.000000 0.000000 0.000000 0.000000 0.069674
#
#
# Mechanical properties :
#
#
# Convention : Reuss Voigt Hill
#
# Bulk Modulus (GPa) = 35.00389 37.24358 36.12373
# Shear Modulus (GPa) = 21.01687 25.27292 23.14490
#
# Velocity S-wave (km/s) = 2.89016 3.16932 3.03295
# Velocity P-wave (km/s) = 5.00494 5.30990 5.15967
#
# Compressibility (1/GPa) = 0.02856825
#
# Stress axis : x y z
#
# Youngs Moduli (GPa) = 67.11848 50.86588 117.24033
#
# Poissons Ratio (x) = 0.23391 -0.00545
# Poissons Ratio (y) = 0.30865 0.31747
# Poissons Ratio (z) = -0.00312 0.13774
#
# Static dielectric constant tensor:
#      x y z
#    x 2.105470 0.000000 0.000000 
#    y 0.000000 2.218970 0.000000 
#    z 0.000000 0.000000 2.081270 
# 
# From -- ./inp_files/29501.got.cif
#   From: 2010.05.17/outbox.cif.g08.bks.cpg/sg43_15_cif.got.tgz:29501.got - 2010.06.03 19:21:55.
