data_PCOD9370720
_publ_section_title
;
Structure prediction by ZEFSAII (Michael W. Deem and Ramdas Pophale) SiO2 
 PCOD9370720
Probable space group: F D D 2
;
_chemical_formula_sum "Si O2"
_cell_formula_units_Z 120
_cell_length_a 22.692724
_cell_length_b 27.769714
_cell_length_c 10.028006
_cell_angle_alpha 90.000000
_cell_angle_beta 90.000000
_cell_angle_gamma 90.000000
_cell_volume 6319.353107
_symmetry_space_group_name_H-M "F D D 2"
_symmetry_group_IT_number 43
_symmetry_cell_setting 'orthorhombic'
loop_
_space_group_symop_operation_xyz
x,y,z
-x,-y,z
1/4-x,1/4+y,1/4+z
1/4+x,1/4-y,1/4+z
x,1/2+y,1/2+z
-x,1/2-y,1/2+z
1/4-x,3/4+y,3/4+z
1/4+x,3/4-y,3/4+z
1/2+x,y,1/2+z
1/2-x,-y,1/2+z
3/4-x,1/4+y,3/4+z
3/4+x,1/4-y,3/4+z
1/2+x,1/2+y,z
1/2-x,1/2-y,z
3/4-x,3/4+y,1/4+z
3/4+x,3/4-y,1/4+z
loop_
_atom_site_type_symbol
_atom_site_label
_atom_site_fract_x
_atom_site_fract_y
_atom_site_fract_z
Si Si1 0.141409 0.302967 0.399740
Si Si2 0.174737 0.197918 0.461528
Si Si3 0.740604 0.065332 0.574179
Si Si4 0.743217 0.379981 0.850803
Si Si5 0.198482 0.410362 0.808477
Si Si6 0.648467 0.310639 0.217832
Si Si7 0.250000 0.750000 0.167730
Si Si8 0.271965 0.453342 0.577804
O O1 0.164075 0.247797 0.381806
O O2 0.080548 0.312735 0.323658
O O3 0.189803 0.342201 0.359623
O O4 0.131915 0.306739 0.560839
O O5 0.197879 0.152708 0.376176
O O6 0.114179 0.187347 0.539831
O O7 0.226260 0.208490 0.568680
O O8 0.755692 0.091674 0.712430
O O9 0.774436 0.091905 0.454913
O O10 0.761291 0.009950 0.563564
O O11 0.739970 0.420122 0.966953
O O12 0.184364 0.358599 0.747659
O O13 0.246149 0.437586 0.718626
O O14 0.693836 0.267696 0.246747
O O15 0.590438 0.307708 0.305734
#
# Coordination Sequence:
#
# PCOD9370720 Si02
#       8
#    16  16  16  16  16  16   8  16
#     4  11  21  42  66 101 124 170 225 279 326 392
#     4  11  19  40  73  95 127 166 231 278 319 396
#     4  12  26  40  61  97 140 168 212 277 339 397
#     4  12  23  42  69  99 125 172 228 275 330 387
#     4  12  24  40  66  98 133 177 215 274 340 398
#     4  11  22  41  72  94 129 172 231 274 323 401
#     4  10  20  38  70 102 118 164 232 284 316 376
#     4  12  23  43  67  96 131 175 223 269 329 398
#
# _framework density 18.989284999999999
#
# number of rings (size 3 to 8) (size 9 to 14) (size 15 to 20)
#    0.000    0.533    8.000    2.400    0.000    1.067 
#    2.400    0.000    2.933    0.000    0.000    0.000 
#    0.000    0.000    0.000    0.000    0.000    0.000 
#
# Total GULP energy -167544.209798 kJ/mol
# GULP energy per Si atom -5584.806993 kJ/mol
# Density = 1.894606 g / cm^3
# Si number density = 18.989285 Si / 1000 Ang^3
#
#
#
# Elastic Constant Matrix: (Units=GPa)
#
#
# Indices 1 2 3 4 5 6 
#
# 1 84.0612 0.1313 11.0141 0.0001 -0.0001 0.0000
# 2 0.1313 86.5839 15.7736 0.0000 0.0000 0.0000
# 3 11.0141 15.7736 69.7101 0.0000 -0.0001 0.0000
# 4 0.0001 0.0000 0.0000 1.3712 0.0000 0.0000
# 5 -0.0001 0.0000 -0.0001 0.0000 24.8495 0.0000
# 6 0.0000 0.0000 0.0000 0.0000 0.0000 35.5738
#
#
#
# Elastic Compliance Matrix: (Units=1/GPa)
#
#
# Indices 1 2 3 4 5 6 
#
# 1 0.012157 0.000346 -0.001999 0.000000 0.000000 0.000000
# 2 0.000346 0.012056 -0.002783 0.000000 0.000000 0.000000
# 3 -0.001999 -0.002783 0.015291 0.000000 0.000000 0.000000
# 4 0.000000 0.000000 0.000000 0.729266 0.000001 0.000000
# 5 0.000000 0.000000 0.000000 0.000001 0.040242 0.000000
# 6 0.000000 0.000000 0.000000 0.000000 0.000000 0.028111
#
#
# Mechanical properties :
#
#
# Convention : Reuss Voigt Hill
#
# Bulk Modulus (GPa) = 32.64544 32.68813 32.66679
# Shear Modulus (GPa) = 5.83972 26.58799 16.21386
#
# Velocity S-wave (km/s) = 1.75555 3.74593 2.92523
# Velocity P-wave (km/s) = 4.61932 5.99672 5.35251
#
# Compressibility (1/GPa) = 0.03063215
#
# Stress axis : x y z
#
# Youngs Moduli (GPa) = 82.25391 82.94705 65.39968
#
# Poissons Ratio (x) = -0.02868 0.13074
# Poissons Ratio (y) = -0.02844 0.18198
# Poissons Ratio (z) = 0.16443 0.23081
#
# Static dielectric constant tensor:
#      x y z
#    x 1.677650 0.000000 0.000000 
#    y 0.000000 1.716440 0.000000 
#    z 0.000000 0.000000 1.633380 
# 
# From -- ./inp_files/3878.got.cif
#   From: 2010.05.17/outbox.cif.g08.bks.cpg/sg43_2_cif.got.tgz:3878.got - 2010.06.03 19:21:55.
