data_PCOD9370136
_publ_section_title
;
Structure prediction by ZEFSAII (Michael W. Deem and Ramdas Pophale) SiO2 
 PCOD9370136
Probable space group: F D D 2
;
_chemical_formula_sum "Si O2"
_cell_formula_units_Z 96
_cell_length_a 8.547873
_cell_length_b 23.792395
_cell_length_c 17.303204
_cell_angle_alpha 90.000000
_cell_angle_beta 90.000000
_cell_angle_gamma 90.000000
_cell_volume 3519.028227
_symmetry_space_group_name_H-M "F D D 2"
_symmetry_group_IT_number 43
_symmetry_cell_setting 'orthorhombic'
loop_
_space_group_symop_operation_xyz
x,y,z
-x,-y,z
1/4-x,1/4+y,1/4+z
1/4+x,1/4-y,1/4+z
x,1/2+y,1/2+z
-x,1/2-y,1/2+z
1/4-x,3/4+y,3/4+z
1/4+x,3/4-y,3/4+z
1/2+x,y,1/2+z
1/2-x,-y,1/2+z
3/4-x,1/4+y,3/4+z
3/4+x,1/4-y,3/4+z
1/2+x,1/2+y,z
1/2-x,1/2-y,z
3/4-x,3/4+y,1/4+z
3/4+x,3/4-y,1/4+z
loop_
_atom_site_type_symbol
_atom_site_label
_atom_site_fract_x
_atom_site_fract_y
_atom_site_fract_z
Si Si1 0.500000 0.000000 0.036821
Si Si2 0.405451 0.358629 0.381277
Si Si3 0.332480 0.498567 0.022471
Si Si4 0.831969 0.975417 0.312198
Si Si5 0.750000 0.750000 0.055306
Si Si6 0.496447 0.407523 0.672672
Si Si7 0.580141 0.329979 0.914766
O O1 0.658734 0.000787 0.987970
O O2 0.501877 0.947540 0.096474
O O3 0.418070 0.302699 0.329826
O O4 0.345617 0.410334 0.331571
O O5 0.576590 0.371729 0.416940
O O6 0.253694 0.351267 0.436232
O O7 0.500000 0.500000 0.982297
O O8 0.335104 0.443476 0.077693
O O9 0.806960 0.974932 0.218960
O O10 0.670086 0.998874 0.344467
O O11 0.000000 0.000000 0.329281
O O12 0.758271 0.695311 0.999575
O O13 0.673543 0.382079 0.672797
#
# Coordination Sequence:
#
# PCOD9370136 Si02
#       7
#     8  16  16  16   8  16  16
#     4   7  10  18  36  62  86 110 140 180 240 290
#     4  10  18  28  48  78  99 133 169 212 267 318
#     4   8  13  24  43  66  91 118 151 205 257 291
#     4  11  21  32  50  79 107 138 180 222 265 326
#     4   9  18  34  54  78 110 134 170 230 278 306
#     4   8  14  27  48  71  97 128 160 206 266 308
#     4   9  17  32  52  74 101 130 170 228 271 301
#
# _framework density 27.280258
#
# number of rings (size 3 to 8) (size 9 to 14) (size 15 to 20)
#    0.000    3.000    0.000    5.500    0.000    1.333 
#    0.000    0.000    0.000    0.000   47.667    0.000 
#    0.000    0.000    0.000    0.000    0.000    0.000 
#
# Total GULP energy -134030.315191 kJ/mol
# GULP energy per Si atom -5584.596466 kJ/mol
# Density = 2.721817 g / cm^3
# Si number density = 27.280258 Si / 1000 Ang^3
#
#
#
# Elastic Constant Matrix: (Units=GPa)
#
#
# Indices 1 2 3 4 5 6 
#
# 1 405.2559 23.6108 64.9088 0.0000 0.0000 0.0000
# 2 23.6108 60.2259 11.6784 0.0000 0.0000 0.0000
# 3 64.9088 11.6784 63.3424 0.0000 0.0000 0.0000
# 4 0.0000 0.0000 0.0000 76.0521 0.0000 0.0000
# 5 0.0000 0.0000 0.0000 0.0000 59.0301 0.0000
# 6 0.0000 0.0000 0.0000 0.0000 0.0000 13.9611
#
#
#
# Elastic Compliance Matrix: (Units=1/GPa)
#
#
# Indices 1 2 3 4 5 6 
#
# 1 0.002973 -0.000596 -0.002936 0.000000 0.000000 0.000000
# 2 -0.000596 0.017339 -0.002586 0.000000 0.000000 0.000000
# 3 -0.002936 -0.002586 0.019273 0.000000 0.000000 0.000000
# 4 0.000000 0.000000 0.000000 0.013149 0.000000 0.000000
# 5 0.000000 0.000000 0.000000 0.000000 0.016941 0.000000
# 6 0.000000 0.000000 0.000000 0.000000 0.000000 0.071627
#
#
# Mechanical properties :
#
#
# Convention : Reuss Voigt Hill
#
# Bulk Modulus (GPa) = 36.56566 81.02447 58.79506
# Shear Modulus (GPa) = 30.74009 58.38376 44.56193
#
# Velocity S-wave (km/s) = 3.36046 4.63119 4.04603
# Velocity P-wave (km/s) = 5.33758 7.63953 6.58985
#
# Compressibility (1/GPa) = 0.02734806
#
# Stress axis : x y z
#
# Youngs Moduli (GPa) = 336.40744 57.67257 51.88655
#
# Poissons Ratio (x) = 0.03437 0.15235
# Poissons Ratio (y) = 0.20050 0.13418
# Poissons Ratio (z) = 0.98776 0.14915
#
# Static dielectric constant tensor:
#      x y z
#    x 2.196680 0.000000 0.000000 
#    y 0.000000 1.993100 0.000000 
#    z 0.000000 0.000000 2.142030 
# 
# From -- ./inp_files/24503.got.cif
#   From: 2010.05.17/outbox.cif.g08.bks.cpg/sg43_13_cif.got.tgz:24503.got - 2010.06.03 19:21:55.
