data_PCOD9370185
_publ_section_title
;
Structure prediction by ZEFSAII (Michael W. Deem and Ramdas Pophale) SiO2 
 PCOD9370185
Probable space group: F D D 2
;
_chemical_formula_sum "Si O2"
_cell_formula_units_Z 104
_cell_length_a 32.736792
_cell_length_b 17.227602
_cell_length_c 7.111458
_cell_angle_alpha 90.000000
_cell_angle_beta 90.000000
_cell_angle_gamma 90.000000
_cell_volume 4010.694648
_symmetry_space_group_name_H-M "F D D 2"
_symmetry_group_IT_number 43
_symmetry_cell_setting 'orthorhombic'
loop_
_space_group_symop_operation_xyz
x,y,z
-x,-y,z
1/4-x,1/4+y,1/4+z
1/4+x,1/4-y,1/4+z
x,1/2+y,1/2+z
-x,1/2-y,1/2+z
1/4-x,3/4+y,3/4+z
1/4+x,3/4-y,3/4+z
1/2+x,y,1/2+z
1/2-x,-y,1/2+z
3/4-x,1/4+y,3/4+z
3/4+x,1/4-y,3/4+z
1/2+x,1/2+y,z
1/2-x,1/2-y,z
3/4-x,3/4+y,1/4+z
3/4+x,3/4-y,1/4+z
loop_
_atom_site_type_symbol
_atom_site_label
_atom_site_fract_x
_atom_site_fract_y
_atom_site_fract_z
Si Si1 0.413130 0.963710 0.190770
Si Si2 0.250000 0.750000 0.541992
Si Si3 0.664596 0.656699 0.444540
Si Si4 0.413665 0.909681 0.782765
Si Si5 0.483340 0.660506 0.716198
Si Si6 0.500011 0.661933 0.276833
Si Si7 0.644271 0.123606 0.374548
O O1 0.397892 0.923156 0.379660
O O2 0.456038 0.007276 0.200188
O O3 0.383928 0.037146 0.160977
O O4 0.418796 0.911009 0.010459
O O5 0.247132 0.841885 0.593028
O O6 0.631662 0.630281 0.284919
O O7 0.663716 0.749660 0.473170
O O8 0.711011 0.626611 0.422100
O O9 0.653590 0.621039 0.649538
O O10 0.454857 0.867267 0.716915
O O11 0.494148 0.641919 0.498201
O O12 0.500885 0.745002 0.760962
O O13 0.433757 0.662709 0.723352
#
# Coordination Sequence:
#
# PCOD9370185 Si02
#       7
#    16   8  16  16  16  16  16
#     4   9  16  29  54  79 112 146 201 247 295 352
#     4  10  18  34  60  86 110 164 210 248 294 380
#     4   9  20  33  60  93 117 161 213 260 307 374
#     4  10  19  34  58  89 125 157 210 266 311 372
#     4  10  22  37  62  90 123 159 212 264 318 372
#     4  11  22  38  64  94 128 164 215 266 321 382
#     4   8  17  31  49  84 110 146 196 249 295 358
#
# _framework density 25.930669000000002
#
# number of rings (size 3 to 8) (size 9 to 14) (size 15 to 20)
#    0.000    2.462    1.538    1.385    2.154    3.692 
#    0.000    3.077    3.385    0.000    0.000    0.000 
#    0.000    0.000    0.000    0.000    0.000    0.000 
#
# Total GULP energy -144917.713332 kJ/mol
# GULP energy per Si atom -5573.758205 kJ/mol
# Density = 2.587165 g / cm^3
# Si number density = 25.930669 Si / 1000 Ang^3
#
#
#
# Elastic Constant Matrix: (Units=GPa)
#
#
# Indices 1 2 3 4 5 6 
#
# 1 153.0218 84.9937 37.5459 0.0000 0.0000 0.0000
# 2 84.9937 119.0728 33.5802 0.0000 0.0000 0.0000
# 3 37.5459 33.5802 40.2030 0.0000 0.0000 0.0000
# 4 0.0000 0.0000 0.0000 28.6258 0.0000 0.0000
# 5 0.0000 0.0000 0.0000 0.0000 36.8985 0.0000
# 6 0.0000 0.0000 0.0000 0.0000 0.0000 38.6628
#
#
#
# Elastic Compliance Matrix: (Units=1/GPa)
#
#
# Indices 1 2 3 4 5 6 
#
# 1 0.011580 -0.006823 -0.005116 0.000000 0.000000 0.000000
# 2 -0.006823 0.015006 -0.006162 0.000000 0.000000 0.000000
# 3 -0.005116 -0.006162 0.034798 0.000000 0.000000 0.000000
# 4 0.000000 0.000000 0.000000 0.034933 0.000000 0.000000
# 5 0.000000 0.000000 0.000000 0.000000 0.027101 0.000000
# 6 0.000000 0.000000 0.000000 0.000000 0.000000 0.025865
#
#
# Mechanical properties :
#
#
# Convention : Reuss Voigt Hill
#
# Bulk Modulus (GPa) = 39.70935 69.39303 54.55119
# Shear Modulus (GPa) = 25.78918 31.24928 28.51923
#
# Velocity S-wave (km/s) = 3.15706 3.47523 3.31996
# Velocity P-wave (km/s) = 5.35129 6.55149 5.98157
#
# Compressibility (1/GPa) = 0.02518299
#
# Stress axis : x y z
#
# Youngs Moduli (GPa) = 86.35612 66.63860 28.73714
#
# Poissons Ratio (x) = 0.45468 0.14701
# Poissons Ratio (y) = 0.58921 0.17708
# Poissons Ratio (z) = 0.44176 0.41064
#
# Static dielectric constant tensor:
#      x y z
#    x 2.219430 0.000000 0.000000 
#    y 0.000000 2.102490 0.000000 
#    z 0.000000 0.000000 2.122440 
# 
# From -- ./inp_files/8348.got.cif
#   From: 2010.05.17/outbox.cif.g08.bks.cpg/sg43_5_cif.got.tgz:8348.got - 2010.06.03 19:21:55.
