data_PCOD9370996
_publ_section_title
;
Structure prediction by ZEFSAII (Michael W. Deem and Ramdas Pophale) SiO2 
 PCOD9370996
Probable space group: F D D 2
;
_chemical_formula_sum "Si O2"
_cell_formula_units_Z 56
_cell_length_a 25.474282
_cell_length_b 6.394921
_cell_length_c 14.613513
_cell_angle_alpha 90.000000
_cell_angle_beta 90.000000
_cell_angle_gamma 90.000000
_cell_volume 2380.629255
_symmetry_space_group_name_H-M "F D D 2"
_symmetry_group_IT_number 43
_symmetry_cell_setting 'orthorhombic'
loop_
_space_group_symop_operation_xyz
x,y,z
-x,-y,z
1/4-x,1/4+y,1/4+z
1/4+x,1/4-y,1/4+z
x,1/2+y,1/2+z
-x,1/2-y,1/2+z
1/4-x,3/4+y,3/4+z
1/4+x,3/4-y,3/4+z
1/2+x,y,1/2+z
1/2-x,-y,1/2+z
3/4-x,1/4+y,3/4+z
3/4+x,1/4-y,3/4+z
1/2+x,1/2+y,z
1/2-x,1/2-y,z
3/4-x,3/4+y,1/4+z
3/4+x,3/4-y,1/4+z
loop_
_atom_site_type_symbol
_atom_site_label
_atom_site_fract_x
_atom_site_fract_y
_atom_site_fract_z
Si Si1 0.000000 0.000000 0.088750
Si Si2 0.689623 0.196695 0.591892
Si Si3 0.832791 0.399277 0.391292
Si Si4 0.950175 0.373711 0.971632
O O1 0.031720 0.830360 0.028901
O O2 0.955166 0.855937 0.138217
O O3 0.750000 0.250000 0.610924
O O4 0.683034 0.217785 0.483600
O O5 0.645482 0.325915 0.644389
O O6 0.674507 0.965092 0.629597
O O7 0.824401 0.272753 0.297612
O O8 0.000000 0.500000 0.936901
#
# Coordination Sequence:
#
# PCOD9370996 Si02
#       4
#     8  16  16  16
#     4  10  20  48  70 102 146 186 244 314 370 448
#     4  12  26  47  73 109 151 200 254 308 386 455
#     4  11  27  45  73 112 148 199 258 312 378 463
#     4  10  23  45  74 103 146 193 244 313 374 446
#
# _framework density 23.523191000000001
#
# number of rings (size 3 to 8) (size 9 to 14) (size 15 to 20)
#    0.000    1.143    1.429    4.286    6.000    6.857 
#    0.000    0.000    0.000    0.000    0.000    0.000 
#    0.000    0.000    0.000    0.000    0.000    0.000 
#
# Total GULP energy -78071.052633 kJ/mol
# GULP energy per Si atom -5576.503760 kJ/mol
# Density = 2.346965 g / cm^3
# Si number density = 23.523191 Si / 1000 Ang^3
#
#
#
# Elastic Constant Matrix: (Units=GPa)
#
#
# Indices 1 2 3 4 5 6 
#
# 1 151.6036 15.0622 25.7019 0.0000 0.0000 0.0000
# 2 15.0622 55.4773 -4.9141 0.0000 0.0000 0.0000
# 3 25.7019 -4.9141 71.2466 0.0000 0.0000 0.0000
# 4 0.0000 0.0000 0.0000 2.3473 0.0000 0.0000
# 5 0.0000 0.0000 0.0000 0.0000 22.5835 0.0000
# 6 0.0000 0.0000 0.0000 0.0000 0.0000 17.3678
#
#
#
# Elastic Compliance Matrix: (Units=1/GPa)
#
#
# Indices 1 2 3 4 5 6 
#
# 1 0.007289 -0.002226 -0.002783 0.000000 0.000000 0.000000
# 2 -0.002226 0.018816 0.002101 0.000000 0.000000 0.000000
# 3 -0.002783 0.002101 0.015185 0.000000 0.000000 0.000000
# 4 0.000000 0.000000 0.000000 0.426025 0.000000 0.000000
# 5 0.000000 0.000000 0.000000 0.000000 0.044280 0.000000
# 6 0.000000 0.000000 0.000000 0.000000 0.000000 0.057578
#
#
# Mechanical properties :
#
#
# Convention : Reuss Voigt Hill
#
# Bulk Modulus (GPa) = 28.18998 38.89193 33.54095
# Shear Modulus (GPa) = 8.52060 24.62488 16.57274
#
# Velocity S-wave (km/s) = 1.90528 3.23899 2.65717
# Velocity P-wave (km/s) = 4.10488 5.52788 4.86865
#
# Compressibility (1/GPa) = 0.03547360
#
# Stress axis : x y z
#
# Youngs Moduli (GPa) = 137.19172 53.14713 65.85618
#
# Poissons Ratio (x) = 0.11828 0.18328
# Poissons Ratio (y) = 0.30532 -0.13834
# Poissons Ratio (z) = 0.38180 -0.11164
#
# Static dielectric constant tensor:
#      x y z
#    x 1.971130 0.000000 0.000000 
#    y 0.000000 2.010390 0.000000 
#    z 0.000000 0.000000 1.860860 
# 
# From -- ./inp_files/15526.got.cif
#   From: 2010.05.17/outbox.cif.g08.bks.cpg/sg43_8_cif.got.tgz:15526.got - 2010.06.03 19:21:55.
