data_PCOD9370625
_publ_section_title
;
Structure prediction by ZEFSAII (Michael W. Deem and Ramdas Pophale) SiO2 
 PCOD9370625
Probable space group: F D D 2
;
_chemical_formula_sum "Si O2"
_cell_formula_units_Z 104
_cell_length_a 10.069332
_cell_length_b 17.195171
_cell_length_c 26.497869
_cell_angle_alpha 90.000000
_cell_angle_beta 90.000000
_cell_angle_gamma 90.000000
_cell_volume 4587.943999
_symmetry_space_group_name_H-M "F D D 2"
_symmetry_group_IT_number 43
_symmetry_cell_setting 'orthorhombic'
loop_
_space_group_symop_operation_xyz
x,y,z
-x,-y,z
1/4-x,1/4+y,1/4+z
1/4+x,1/4-y,1/4+z
x,1/2+y,1/2+z
-x,1/2-y,1/2+z
1/4-x,3/4+y,3/4+z
1/4+x,3/4-y,3/4+z
1/2+x,y,1/2+z
1/2-x,-y,1/2+z
3/4-x,1/4+y,3/4+z
3/4+x,1/4-y,3/4+z
1/2+x,1/2+y,z
1/2-x,1/2-y,z
3/4-x,3/4+y,1/4+z
3/4+x,3/4-y,1/4+z
loop_
_atom_site_type_symbol
_atom_site_label
_atom_site_fract_x
_atom_site_fract_y
_atom_site_fract_z
Si Si1 0.844438 0.981359 0.709980
Si Si2 0.855070 0.416300 0.574232
Si Si3 0.889635 0.705304 0.852773
Si Si4 0.750000 0.250000 0.735310
Si Si5 0.513460 0.697617 0.566161
Si Si6 0.864848 0.643603 0.439587
Si Si7 0.500000 0.500000 0.839463
Si Si8 0.000000 0.000000 0.268393
O O1 0.819062 0.932623 0.659457
O O2 0.805659 0.940839 0.761684
O O3 0.749036 0.055868 0.700517
O O4 0.000000 0.000000 0.712009
O O5 0.743843 0.483608 0.580244
O O6 0.934885 0.440918 0.525228
O O7 0.919374 0.409108 0.630635
O O8 0.804720 0.329071 0.565019
O O9 0.750000 0.750000 0.855879
O O10 0.853757 0.626911 0.824913
O O11 0.844784 0.304514 0.701140
O O12 0.395909 0.714130 0.606024
O O13 0.623696 0.762673 0.554610
O O14 0.756689 0.678070 0.478494
#
# Coordination Sequence:
#
# PCOD9370625 Si02
#       8
#    16  16  16   8  16  16   8   8
#     4   9  19  36  61  90 124 169 214 266 330 394
#     4  11  23  41  64  97 135 172 226 289 340 406
#     4  10  20  37  61  90 124 168 218 268 331 397
#     4  12  24  40  66 102 132 178 224 286 346 402
#     4  11  21  38  63  92 124 170 221 271 335 407
#     4  10  22  40  63  93 131 176 227 275 340 416
#     4  12  23  38  66  95 128 173 224 274 335 406
#     4  10  21  40  62  87 126 175 214 270 347 410
#
# _framework density 22.668105000000001
#
# number of rings (size 3 to 8) (size 9 to 14) (size 15 to 20)
#    0.000    1.538    2.308    3.692    0.000    0.000 
#    0.000    0.000    1.692    0.000    0.000    0.000 
#    0.000    0.000    0.000    0.000    0.000    0.000 
#
# Total GULP energy -144756.570464 kJ/mol
# GULP energy per Si atom -5567.560402 kJ/mol
# Density = 2.261651 g / cm^3
# Si number density = 22.668105 Si / 1000 Ang^3
#
#
#
# Elastic Constant Matrix: (Units=GPa)
#
#
# Indices 1 2 3 4 5 6 
#
# 1 64.7304 -3.8000 11.4504 0.0000 0.0000 0.0000
# 2 -3.8000 105.7285 31.1392 0.0000 0.0000 0.0000
# 3 11.4504 31.1392 103.7277 0.0000 0.0000 0.0000
# 4 0.0000 0.0000 0.0000 53.6425 0.0000 0.0000
# 5 0.0000 0.0000 0.0000 0.0000 43.9379 0.0000
# 6 0.0000 0.0000 0.0000 0.0000 0.0000 33.7128
#
#
#
# Elastic Compliance Matrix: (Units=1/GPa)
#
#
# Indices 1 2 3 4 5 6 
#
# 1 0.015892 0.001193 -0.002113 0.000000 0.000000 0.000000
# 2 0.001193 0.010465 -0.003273 0.000000 0.000000 0.000000
# 3 -0.002113 -0.003273 0.010857 0.000000 0.000000 0.000000
# 4 0.000000 0.000000 0.000000 0.018642 0.000000 0.000000
# 5 0.000000 0.000000 0.000000 0.000000 0.022759 0.000000
# 6 0.000000 0.000000 0.000000 0.000000 0.000000 0.029662
#
#
# Mechanical properties :
#
#
# Convention : Reuss Voigt Hill
#
# Bulk Modulus (GPa) = 34.68739 39.08508 36.88624
# Shear Modulus (GPa) = 39.59685 41.95176 40.77431
#
# Velocity S-wave (km/s) = 4.18402 4.30664 4.24577
# Velocity P-wave (km/s) = 6.21907 6.48146 6.35162
#
# Compressibility (1/GPa) = 0.02882892
#
# Stress axis : x y z
#
# Youngs Moduli (GPa) = 62.92292 95.55519 92.11059
#
# Poissons Ratio (x) = -0.11404 0.19459
# Poissons Ratio (y) = -0.07509 0.30151
# Poissons Ratio (z) = 0.13293 0.31279
#
# Static dielectric constant tensor:
#      x y z
#    x 1.926320 0.000000 0.000000 
#    y 0.000000 1.812610 0.000000 
#    z 0.000000 0.000000 1.941610 
# 
# From -- ./inp_files/28744.got.cif
#   From: 2010.05.17/outbox.cif.g08.bks.cpg/sg43_15_cif.got.tgz:28744.got - 2010.06.03 19:21:55.
