data_PCOD9370530
_publ_section_title
;
Structure prediction by ZEFSAII (Michael W. Deem and Ramdas Pophale) SiO2 
 PCOD9370530
Probable space group: F D D 2
;
_chemical_formula_sum "Si O2"
_cell_formula_units_Z 88
_cell_length_a 20.434988
_cell_length_b 5.620836
_cell_length_c 33.815879
_cell_angle_alpha 90.000000
_cell_angle_beta 90.000000
_cell_angle_gamma 90.000000
_cell_volume 3884.149897
_symmetry_space_group_name_H-M "F D D 2"
_symmetry_group_IT_number 43
_symmetry_cell_setting 'orthorhombic'
loop_
_space_group_symop_operation_xyz
x,y,z
-x,-y,z
1/4-x,1/4+y,1/4+z
1/4+x,1/4-y,1/4+z
x,1/2+y,1/2+z
-x,1/2-y,1/2+z
1/4-x,3/4+y,3/4+z
1/4+x,3/4-y,3/4+z
1/2+x,y,1/2+z
1/2-x,-y,1/2+z
3/4-x,1/4+y,3/4+z
3/4+x,1/4-y,3/4+z
1/2+x,1/2+y,z
1/2-x,1/2-y,z
3/4-x,3/4+y,1/4+z
3/4+x,3/4-y,1/4+z
loop_
_atom_site_type_symbol
_atom_site_label
_atom_site_fract_x
_atom_site_fract_y
_atom_site_fract_z
Si Si1 0.500000 0.000000 0.362530
Si Si2 0.149447 0.047987 0.361407
Si Si3 0.074604 0.563509 0.945799
Si Si4 0.629871 0.564038 0.971527
Si Si5 0.053649 0.658785 0.796973
Si Si6 0.903348 0.704011 0.135381
O O1 0.516165 0.786753 0.332809
O O2 0.428987 0.950046 0.383538
O O3 0.108200 0.072431 0.402639
O O4 0.110177 0.024743 0.320570
O O5 0.177572 0.315763 0.361545
O O6 0.179444 0.790501 0.367646
O O7 0.099810 0.326819 0.967578
O O8 0.000000 0.500000 0.938407
O O9 0.086710 0.817552 0.967839
O O10 0.665906 0.566938 0.013144
O O11 0.672412 0.535791 0.931407
O O12 0.000000 0.500000 0.775773
#
# Coordination Sequence:
#
# PCOD9370530 Si02
#       6
#     8  16  16  16  16  16
#     4  10  20  32  60  76 114 146 192 232 298 322
#     4   9  18  30  53  77 101 141 180 226 279 331
#     4  10  20  36  56  79 113 147 188 234 288 350
#     4  10  23  31  52  84 120 143 186 232 302 343
#     4  11  21  34  52  83 122 151 183 246 297 342
#     4   9  18  31  48  79 104 141 180 224 277 346
#
# _framework density 22.656178000000001
#
# number of rings (size 3 to 8) (size 9 to 14) (size 15 to 20)
#    0.000    2.182    1.818    1.091   15.273    0.000 
#    0.000    0.000    0.000    0.000    0.000   38.182 
#   24.545    0.000    0.000    0.000    0.000    0.000 
#
# Total GULP energy -122477.453107 kJ/mol
# GULP energy per Si atom -5567.156959 kJ/mol
# Density = 2.260461 g / cm^3
# Si number density = 22.656178 Si / 1000 Ang^3
#
#
#
# Elastic Constant Matrix: (Units=GPa)
#
#
# Indices 1 2 3 4 5 6 
#
# 1 29.3334 14.0542 32.4457 0.0000 0.0000 -0.0001
# 2 14.0542 182.1220 19.9443 -0.0001 0.0000 -0.0002
# 3 32.4457 19.9443 84.3214 0.0000 0.0000 0.0000
# 4 0.0000 -0.0001 0.0000 3.7982 0.0000 0.0000
# 5 0.0000 0.0000 0.0000 0.0000 -13.3536 0.0000
# 6 -0.0001 -0.0002 0.0000 0.0000 0.0000 1.1818
#
#
#
# Elastic Compliance Matrix: (Units=1/GPa)
#
#
# Indices 1 2 3 4 5 6 
#
# 1 0.060171 -0.002164 -0.022641 0.000000 0.000000 0.000004
# 2 -0.002164 0.005715 -0.000519 0.000000 0.000000 0.000001
# 3 -0.022641 -0.000519 0.020694 0.000000 0.000000 -0.000001
# 4 0.000000 0.000000 0.000000 0.263280 0.000000 -0.000007
# 5 0.000000 0.000000 0.000000 0.000000 -0.074886 -0.000001
# 6 0.000004 0.000001 -0.000001 -0.000007 -0.000001 0.846171
#
#
# Mechanical properties :
#
#
# Convention : Reuss Voigt Hill
#
# Bulk Modulus (GPa) = 27.83064 47.62948 37.73006
# Shear Modulus (GPa) = 4.22379 13.61412 8.91895
#
# Velocity S-wave (km/s) = 1.36687 2.45399 1.98625
# Velocity P-wave (km/s) = 3.84730 5.39424 4.68505
#
# Compressibility (1/GPa) = 0.03593162
#
# Stress axis : x y z
#
# Youngs Moduli (GPa) = 16.61929 174.98881 48.32279
#
# Poissons Ratio (x) = 0.37866 1.09409
# Poissons Ratio (y) = 0.03596 0.02508
# Poissons Ratio (z) = 0.37628 0.09082
#
# Static dielectric constant tensor:
#      x y z
#    x 1.952460 0.000000 0.000000 
#    y 0.000000 1.967810 0.000000 
#    z 0.000000 0.000000 1.787270 
# 
# From -- ./inp_files/27324.got.cif
#   From: 2010.05.17/outbox.cif.g08.bks.cpg/sg43_14_cif.got.tgz:27324.got - 2010.06.03 19:21:55.
