data_PCOD9370864
_publ_section_title
;
Structure prediction by ZEFSAII (Michael W. Deem and Ramdas Pophale) SiO2 
 PCOD9370864
Probable space group: F D D 2
;
_chemical_formula_sum "Si O2"
_cell_formula_units_Z 112
_cell_length_a 14.519474
_cell_length_b 14.911494
_cell_length_c 23.128780
_cell_angle_alpha 90.000000
_cell_angle_beta 90.000000
_cell_angle_gamma 90.000000
_cell_volume 5007.543915
_symmetry_space_group_name_H-M "F D D 2"
_symmetry_group_IT_number 43
_symmetry_cell_setting 'orthorhombic'
loop_
_space_group_symop_operation_xyz
x,y,z
-x,-y,z
1/4-x,1/4+y,1/4+z
1/4+x,1/4-y,1/4+z
x,1/2+y,1/2+z
-x,1/2-y,1/2+z
1/4-x,3/4+y,3/4+z
1/4+x,3/4-y,3/4+z
1/2+x,y,1/2+z
1/2-x,-y,1/2+z
3/4-x,1/4+y,3/4+z
3/4+x,1/4-y,3/4+z
1/2+x,1/2+y,z
1/2-x,1/2-y,z
3/4-x,3/4+y,1/4+z
3/4+x,3/4-y,1/4+z
loop_
_atom_site_type_symbol
_atom_site_label
_atom_site_fract_x
_atom_site_fract_y
_atom_site_fract_z
Si Si1 0.823157 0.674499 0.651560
Si Si2 0.849527 0.705531 0.828620
Si Si3 0.983615 0.240996 0.689831
Si Si4 0.699171 0.829823 0.155196
Si Si5 0.695273 0.529564 0.698095
Si Si6 0.193496 0.368335 0.030780
Si Si7 0.000590 0.901073 0.273453
O O1 0.750000 0.750000 0.670810
O O2 0.922173 0.719767 0.662505
O O3 0.788797 0.585805 0.685835
O O4 0.805619 0.655734 0.583795
O O5 0.750000 0.750000 0.826458
O O6 0.879438 0.691131 0.894417
O O7 0.905231 0.786314 0.800514
O O8 0.894048 0.623310 0.793314
O O9 0.994206 0.149950 0.727784
O O10 0.959650 0.324291 0.732243
O O11 0.904550 0.207910 0.646715
O O12 0.750000 0.750000 0.187823
O O13 0.739969 0.839327 0.090481
O O14 0.706860 0.923705 0.188132
O O15 0.638547 0.557399 0.755108
O O16 0.000000 0.000000 0.246794
#
# Coordination Sequence:
#
# PCOD9370864 Si02
#       7
#    16  16  16  16  16  16  16
#     4  10  20  41  65 105 140 163 223 293 342 414
#     4   9  20  35  60  99 131 162 222 277 332 415
#     4  11  24  44  68 101 139 180 228 286 343 413
#     4  11  28  48  63  98 142 184 240 278 336 436
#     4  10  22  39  67  96 132 178 213 282 352 394
#     4  10  23  39  69  97 131 171 222 288 347 399
#     4   9  21  38  61  94 138 177 215 282 347 402
#
# _framework density 22.366253
#
# number of rings (size 3 to 8) (size 9 to 14) (size 15 to 20)
#    0.000    2.000    1.429    0.857   10.000    1.143 
#    2.571    0.000    0.000    0.000    0.000    0.000 
#    0.000    0.000    0.000    0.000    0.000    0.000 
#
# Total GULP energy -156001.511269 kJ/mol
# GULP energy per Si atom -5571.482545 kJ/mol
# Density = 2.231535 g / cm^3
# Si number density = 22.366253 Si / 1000 Ang^3
#
#
#
# Elastic Constant Matrix: (Units=GPa)
#
#
# Indices 1 2 3 4 5 6 
#
# 1 38.2386 27.9466 -16.0500 0.0000 0.0000 0.0000
# 2 27.9466 159.5322 25.9069 0.0000 0.0000 0.0000
# 3 -16.0500 25.9069 65.9322 0.0000 0.0000 0.0000
# 4 0.0000 0.0000 0.0000 4.1835 0.0000 0.0000
# 5 0.0000 0.0000 0.0000 0.0000 19.1976 0.0000
# 6 0.0000 0.0000 0.0000 0.0000 0.0000 23.5612
#
#
#
# Elastic Compliance Matrix: (Units=1/GPa)
#
#
# Indices 1 2 3 4 5 6 
#
# 1 0.037770 -0.008662 0.012598 0.000000 0.000000 0.000000
# 2 -0.008662 0.008682 -0.005520 0.000000 0.000000 0.000000
# 3 0.012598 -0.005520 0.020403 0.000000 0.000000 0.000000
# 4 0.000000 0.000000 0.000000 0.239037 0.000000 0.000000
# 5 0.000000 0.000000 0.000000 0.000000 0.052090 0.000000
# 6 0.000000 0.000000 0.000000 0.000000 0.000000 0.042443
#
#
# Mechanical properties :
#
#
# Convention : Reuss Voigt Hill
#
# Bulk Modulus (GPa) = 15.70186 37.70113 26.70149
# Shear Modulus (GPa) = 11.76961 24.44840 18.10901
#
# Velocity S-wave (km/s) = 2.29644 3.30978 2.84854
# Velocity P-wave (km/s) = 3.75061 5.61240 4.77316
#
# Compressibility (1/GPa) = 0.06368674
#
# Stress axis : x y z
#
# Youngs Moduli (GPa) = 26.47579 115.17750 49.01241
#
# Poissons Ratio (x) = 0.99772 -0.61747
# Poissons Ratio (y) = 0.22934 0.27056
# Poissons Ratio (z) = -0.33355 0.63581
#
# Static dielectric constant tensor:
#      x y z
#    x 1.975440 0.000000 0.000000 
#    y 0.000000 1.951590 0.000000 
#    z 0.000000 0.000000 1.889570 
# 
# From -- ./inp_files/21737.got.cif
#   From: 2010.05.17/outbox.cif.g08.bks.cpg/sg43_11_cif.got.tgz:21737.got - 2010.06.03 19:21:55.
