data_PCOD9370071
_publ_section_title
;
Structure prediction by ZEFSAII (Michael W. Deem and Ramdas Pophale) SiO2 
 PCOD9370071
Probable space group: F D D 2
;
_chemical_formula_sum "Si O2"
_cell_formula_units_Z 104
_cell_length_a 26.657701
_cell_length_b 18.014262
_cell_length_c 7.788070
_cell_angle_alpha 90.000000
_cell_angle_beta 90.000000
_cell_angle_gamma 90.000000
_cell_volume 3739.977709
_symmetry_space_group_name_H-M "F D D 2"
_symmetry_group_IT_number 43
_symmetry_cell_setting 'orthorhombic'
loop_
_space_group_symop_operation_xyz
x,y,z
-x,-y,z
1/4-x,1/4+y,1/4+z
1/4+x,1/4-y,1/4+z
x,1/2+y,1/2+z
-x,1/2-y,1/2+z
1/4-x,3/4+y,3/4+z
1/4+x,3/4-y,3/4+z
1/2+x,y,1/2+z
1/2-x,-y,1/2+z
3/4-x,1/4+y,3/4+z
3/4+x,1/4-y,3/4+z
1/2+x,1/2+y,z
1/2-x,1/2-y,z
3/4-x,3/4+y,1/4+z
3/4+x,3/4-y,1/4+z
loop_
_atom_site_type_symbol
_atom_site_label
_atom_site_fract_x
_atom_site_fract_y
_atom_site_fract_z
Si Si1 0.933431 0.487185 0.280610
Si Si2 0.500000 0.000000 0.717734
Si Si3 0.988258 0.784046 0.519824
Si Si4 0.924192 0.911336 0.428399
Si Si5 0.877092 0.362325 0.420981
Si Si6 0.466970 0.145017 0.356537
Si Si7 0.928512 0.633369 0.807050
O O1 0.946378 0.458677 0.090452
O O2 0.925279 0.413683 0.393058
O O3 0.879285 0.530443 0.253352
O O4 0.032379 0.444907 0.348477
O O5 0.456740 0.066746 0.711520
O O6 0.543568 0.059101 0.773503
O O7 0.938267 0.825521 0.456603
O O8 0.982423 0.696183 0.513612
O O9 0.001587 0.820256 0.700384
O O10 0.031971 0.810988 0.392104
O O11 0.864834 0.918045 0.439376
O O12 0.840118 0.408162 0.544633
O O13 0.851993 0.355663 0.230405
#
# Coordination Sequence:
#
# PCOD9370071 Si02
#       7
#    16   8  16  16  16  16  16
#     4   9  16  34  58  84 116 152 216 247 323 371
#     4  10  16  32  50  78 128 154 206 284 300 362
#     4  10  20  38  59  88 134 156 216 270 326 386
#     4  10  18  32  56  88 115 162 215 268 307 389
#     4   8  16  32  57  82 114 151 203 262 308 377
#     4   9  20  37  56  87 118 173 192 267 319 383
#     4   9  18  31  53  84 115 165 205 259 318 381
#
# _framework density 27.807652999999998
#
# number of rings (size 3 to 8) (size 9 to 14) (size 15 to 20)
#    0.923    1.846    1.538    0.923    0.000    1.231 
#    8.308    4.615    0.000    0.000    0.000    0.000 
#    0.000    0.000    0.000    0.000    0.000    0.000 
#
# Total GULP energy -144942.572209 kJ/mol
# GULP energy per Si atom -5574.714316 kJ/mol
# Density = 2.774436 g / cm^3
# Si number density = 27.807653 Si / 1000 Ang^3
#
#
#
# Elastic Constant Matrix: (Units=GPa)
#
#
# Indices 1 2 3 4 5 6 
#
# 1 112.0178 56.6077 32.0446 0.0000 0.0000 0.0000
# 2 56.6077 184.7270 25.7911 0.0000 0.0000 0.0000
# 3 32.0446 25.7911 93.7979 -0.0001 0.0000 0.0000
# 4 0.0000 0.0000 -0.0001 9.0206 0.0000 0.0000
# 5 0.0000 0.0000 0.0000 0.0000 8.0271 0.0000
# 6 0.0000 0.0000 0.0000 0.0000 0.0000 52.2043
#
#
#
# Elastic Compliance Matrix: (Units=1/GPa)
#
#
# Indices 1 2 3 4 5 6 
#
# 1 0.011337 -0.003050 -0.003034 0.000000 0.000000 0.000000
# 2 -0.003050 0.006450 -0.000731 0.000000 0.000000 0.000000
# 3 -0.003034 -0.000731 0.011899 0.000000 0.000000 0.000000
# 4 0.000000 0.000000 0.000000 0.110858 0.000000 0.000000
# 5 0.000000 0.000000 0.000000 0.000000 0.124578 0.000000
# 6 0.000000 0.000000 0.000000 0.000000 0.000000 0.019156
#
#
# Mechanical properties :
#
#
# Convention : Reuss Voigt Hill
#
# Bulk Modulus (GPa) = 62.29106 68.82553 65.55830
# Shear Modulus (GPa) = 16.48749 32.25703 24.37226
#
# Velocity S-wave (km/s) = 2.43762 3.40958 2.96372
# Velocity P-wave (km/s) = 5.51108 6.34859 5.94460
#
# Compressibility (1/GPa) = 0.01605367
#
# Stress axis : x y z
#
# Youngs Moduli (GPa) = 88.20958 155.03219 84.04102
#
# Poissons Ratio (x) = 0.47290 0.25500
# Poissons Ratio (y) = 0.26907 0.06147
# Poissons Ratio (z) = 0.26765 0.11340
#
# Static dielectric constant tensor:
#      x y z
#    x 2.249860 0.000000 0.000000 
#    y 0.000000 2.109120 0.000000 
#    z 0.000000 0.000000 2.296570 
# 
# From -- ./inp_files/8353.got.cif
#   From: 2010.05.17/outbox.cif.g08.bks.cpg/sg43_5_cif.got.tgz:8353.got - 2010.06.03 19:21:55.
