data_PCOD9370705
_publ_section_title
;
Structure prediction by ZEFSAII (Michael W. Deem and Ramdas Pophale) SiO2 
 PCOD9370705
Probable space group: F D D 2
;
_chemical_formula_sum "Si O2"
_cell_formula_units_Z 120
_cell_length_a 23.862943
_cell_length_b 9.831995
_cell_length_c 23.128771
_cell_angle_alpha 90.000000
_cell_angle_beta 90.000000
_cell_angle_gamma 90.000000
_cell_volume 5426.480029
_symmetry_space_group_name_H-M "F D D 2"
_symmetry_group_IT_number 43
_symmetry_cell_setting 'orthorhombic'
loop_
_space_group_symop_operation_xyz
x,y,z
-x,-y,z
1/4-x,1/4+y,1/4+z
1/4+x,1/4-y,1/4+z
x,1/2+y,1/2+z
-x,1/2-y,1/2+z
1/4-x,3/4+y,3/4+z
1/4+x,3/4-y,3/4+z
1/2+x,y,1/2+z
1/2-x,-y,1/2+z
3/4-x,1/4+y,3/4+z
3/4+x,1/4-y,3/4+z
1/2+x,1/2+y,z
1/2-x,1/2-y,z
3/4-x,3/4+y,1/4+z
3/4+x,3/4-y,1/4+z
loop_
_atom_site_type_symbol
_atom_site_label
_atom_site_fract_x
_atom_site_fract_y
_atom_site_fract_z
Si Si1 0.327844 0.652876 0.193680
Si Si2 0.351718 0.521110 0.826079
Si Si3 0.179497 0.480951 0.573033
Si Si4 0.451365 0.798947 0.328274
Si Si5 0.750000 0.250000 0.284432
Si Si6 0.435142 0.030262 0.751319
Si Si7 0.581583 0.772568 0.950317
Si Si8 0.696141 0.175680 0.399168
O O1 0.308437 0.601055 0.131848
O O2 0.278882 0.639600 0.242058
O O3 0.387037 0.583412 0.208526
O O4 0.334692 0.815362 0.194027
O O5 0.379597 0.666196 0.833235
O O6 0.403507 0.412125 0.818229
O O7 0.318930 0.519035 0.765581
O O8 0.313768 0.481002 0.881757
O O9 0.235097 0.567039 0.556524
O O10 0.166278 0.364065 0.527223
O O11 0.436293 0.652090 0.299673
O O12 0.453707 0.788341 0.397872
O O13 0.700510 0.227199 0.331781
O O14 0.500000 0.000000 0.732846
O O15 0.643760 0.719742 0.935709
O O16 0.750000 0.250000 0.425248
#
# Coordination Sequence:
#
# PCOD9370705 Si02
#       8
#    16  16  16  16   8  16  16  16
#     4  12  21  39  68  92 120 176 216 257 320 388
#     4  11  22  40  59  93 130 161 206 272 321 376
#     4  11  25  36  62  95 128 163 208 274 320 377
#     4  10  20  40  63  89 122 163 221 257 311 390
#     4  10  20  38  66  98 110 162 232 266 286 376
#     4  10  22  41  62  91 129 165 212 268 317 392
#     4  11  19  36  66  87 117 166 213 258 315 383
#     4   9  21  37  60  92 120 157 214 264 302 377
#
# _framework density 22.113783000000002
#
# number of rings (size 3 to 8) (size 9 to 14) (size 15 to 20)
#    0.400    1.067    4.000    2.000    0.933    3.200 
#    2.400    0.000    0.000    0.000    0.000    0.000 
#    0.000    0.000    0.000    0.000    0.000    0.000 
#
# Total GULP energy -167090.549762 kJ/mol
# GULP energy per Si atom -5569.684992 kJ/mol
# Density = 2.206345 g / cm^3
# Si number density = 22.113783 Si / 1000 Ang^3
#
#
#
# Elastic Constant Matrix: (Units=GPa)
#
#
# Indices 1 2 3 4 5 6 
#
# 1 46.0188 8.8693 -15.2110 0.0000 0.0000 0.0000
# 2 8.8693 55.8825 -4.4223 0.0000 0.0000 0.0000
# 3 -15.2110 -4.4223 42.0514 0.0000 0.0000 0.0000
# 4 0.0000 0.0000 0.0000 10.2506 0.0000 0.0000
# 5 0.0000 0.0000 0.0000 0.0000 20.6381 0.0000
# 6 0.0000 0.0000 0.0000 0.0000 0.0000 27.0239
#
#
#
# Elastic Compliance Matrix: (Units=1/GPa)
#
#
# Indices 1 2 3 4 5 6 
#
# 1 0.025276 -0.003316 0.008794 0.000000 0.000000 0.000000
# 2 -0.003316 0.018480 0.000744 0.000000 0.000000 0.000000
# 3 0.008794 0.000744 0.027040 0.000000 0.000000 0.000000
# 4 0.000000 0.000000 0.000000 0.097555 0.000000 0.000000
# 5 0.000000 0.000000 0.000000 0.000000 0.048454 0.000000
# 6 0.000000 0.000000 0.000000 0.000000 0.000000 0.037004
#
#
# Mechanical properties :
#
#
# Convention : Reuss Voigt Hill
#
# Bulk Modulus (GPa) = 12.01333 13.60276 12.80805
# Shear Modulus (GPa) = 18.57969 21.89696 20.23833
#
# Velocity S-wave (km/s) = 2.90174 3.15015 3.02849
# Velocity P-wave (km/s) = 4.08303 4.40408 4.24659
#
# Compressibility (1/GPa) = 0.08324087
#
# Stress axis : x y z
#
# Youngs Moduli (GPa) = 39.56292 54.11307 36.98260
#
# Poissons Ratio (x) = 0.17943 -0.32524
# Poissons Ratio (y) = 0.13118 -0.02752
# Poissons Ratio (z) = -0.34793 -0.04026
#
# Static dielectric constant tensor:
#      x y z
#    x 1.922970 0.000000 0.000000 
#    y 0.000000 1.843500 0.000000 
#    z 0.000000 0.000000 1.831660 
# 
# From -- ./inp_files/26748.got.cif
#   From: 2010.05.17/outbox.cif.g08.bks.cpg/sg43_14_cif.got.tgz:26748.got - 2010.06.03 19:21:55.
