data_PCOD9370245
_publ_section_title
;
Structure prediction by ZEFSAII (Michael W. Deem and Ramdas Pophale) SiO2 
 PCOD9370245
Probable space group: F D D 2
;
_chemical_formula_sum "Si O2"
_cell_formula_units_Z 120
_cell_length_a 26.268091
_cell_length_b 27.237254
_cell_length_c 7.507709
_cell_angle_alpha 90.000000
_cell_angle_beta 90.000000
_cell_angle_gamma 90.000000
_cell_volume 5371.545563
_symmetry_space_group_name_H-M "F D D 2"
_symmetry_group_IT_number 43
_symmetry_cell_setting 'orthorhombic'
loop_
_space_group_symop_operation_xyz
x,y,z
-x,-y,z
1/4-x,1/4+y,1/4+z
1/4+x,1/4-y,1/4+z
x,1/2+y,1/2+z
-x,1/2-y,1/2+z
1/4-x,3/4+y,3/4+z
1/4+x,3/4-y,3/4+z
1/2+x,y,1/2+z
1/2-x,-y,1/2+z
3/4-x,1/4+y,3/4+z
3/4+x,1/4-y,3/4+z
1/2+x,1/2+y,z
1/2-x,1/2-y,z
3/4-x,3/4+y,1/4+z
3/4+x,3/4-y,1/4+z
loop_
_atom_site_type_symbol
_atom_site_label
_atom_site_fract_x
_atom_site_fract_y
_atom_site_fract_z
Si Si1 0.068083 0.916551 0.312250
Si Si2 0.804267 0.903961 0.015841
Si Si3 0.852631 0.221345 0.717169
Si Si4 0.481565 0.178120 0.895376
Si Si5 0.459152 0.788244 0.356253
Si Si6 0.083928 0.707138 0.957393
Si Si7 0.353482 0.811498 0.464106
Si Si8 0.000000 0.000000 0.129351
O O1 0.045921 0.862538 0.280613
O O2 0.124028 0.915766 0.227708
O O3 0.080305 0.932456 0.516874
O O4 0.031429 0.958899 0.237628
O O5 0.859009 0.925597 0.947854
O O6 0.770031 0.901100 0.836865
O O7 0.765633 0.938406 0.127738
O O8 0.821064 0.850294 0.081277
O O9 0.884009 0.249052 0.874025
O O10 0.850323 0.257629 0.548230
O O11 0.793724 0.219178 0.774505
O O12 0.458566 0.232128 0.923272
O O13 0.538194 0.190071 0.832968
O O14 0.414162 0.819710 0.444576
O O15 0.441586 0.782344 0.148765
#
# Coordination Sequence:
#
# PCOD9370245 Si02
#       8
#    16  16  16  16  16  16  16   8
#     4   9  21  42  58  85 122 162 211 252 311 375
#     4  10  21  37  62  95 124 156 215 265 306 376
#     4  11  21  40  57  88 127 158 203 262 316 375
#     4  10  18  37  65  89 117 163 212 258 302 373
#     4  10  19  38  64  88 119 165 206 258 317 369
#     4   9  20  37  55  88 121 148 200 256 305 369
#     4  10  22  39  63  89 123 165 209 260 313 374
#     4  10  24  42  56  82 132 164 200 264 318 386
#
# _framework density 22.339939999999999
#
# number of rings (size 3 to 8) (size 9 to 14) (size 15 to 20)
#    0.000    2.133    2.667    0.000    0.000    2.667 
#   12.000    2.667    0.000    0.000    0.000    0.000 
#    0.000    0.000    0.000    0.000    0.000    0.000 
#
# Total GULP energy -167004.179559 kJ/mol
# GULP energy per Si atom -5566.805985 kJ/mol
# Density = 2.228909 g / cm^3
# Si number density = 22.339940 Si / 1000 Ang^3
#
#
#
# Elastic Constant Matrix: (Units=GPa)
#
#
# Indices 1 2 3 4 5 6 
#
# 1 141.7095 39.0658 14.3076 0.0068 0.0000 -0.0041
# 2 39.0658 72.7748 -12.5055 0.0055 0.0027 -0.0032
# 3 14.3076 -12.5055 31.0759 0.0120 0.0055 -0.0022
# 4 0.0068 0.0055 0.0120 9.7959 0.0030 -0.0084
# 5 0.0000 0.0027 0.0055 0.0030 25.7825 -0.0035
# 6 -0.0041 -0.0032 -0.0022 -0.0084 -0.0035 30.3510
#
#
#
# Elastic Compliance Matrix: (Units=1/GPa)
#
#
# Indices 1 2 3 4 5 6 
#
# 1 0.009482 -0.006274 -0.006890 0.000005 0.000002 0.000000
# 2 -0.006274 0.018913 0.010500 -0.000019 -0.000004 0.000002
# 3 -0.006890 0.010500 0.039577 -0.000050 -0.000010 0.000003
# 4 0.000005 -0.000019 -0.000050 0.102084 -0.000012 0.000028
# 5 0.000002 -0.000004 -0.000010 -0.000012 0.038786 0.000005
# 6 0.000000 0.000002 0.000003 0.000028 0.000005 0.032948
#
#
# Mechanical properties :
#
#
# Convention : Reuss Voigt Hill
#
# Bulk Modulus (GPa) = 15.96359 36.36623 26.16491
# Shear Modulus (GPa) = 18.65670 26.83201 22.74436
#
# Velocity S-wave (km/s) = 2.89299 3.46942 3.19423
# Velocity P-wave (km/s) = 4.28024 5.68885 5.03406
#
# Compressibility (1/GPa) = 0.06264256
#
# Stress axis : x y z
#
# Youngs Moduli (GPa) = 105.46354 52.87329 25.26725
#
# Poissons Ratio (x) = 0.33173 0.17410
# Poissons Ratio (y) = 0.66168 -0.26530
# Poissons Ratio (z) = 0.72668 -0.55515
#
# Static dielectric constant tensor:
#      x y z
#    x 1.887480 -0.000010 0.000010 
#    y -0.000010 1.959090 0.000010 
#    z 0.000010 0.000010 1.935780 
# 
# From -- ./inp_files/4408.got.cif
#   From: 2010.05.17/outbox.cif.g08.bks.cpg/sg43_3_cif.got.tgz:4408.got - 2010.06.03 19:21:55.
