data_PCOD9370117
_publ_section_title
;
Structure prediction by ZEFSAII (Michael W. Deem and Ramdas Pophale) SiO2 
 PCOD9370117
Probable space group: F D D 2
;
_chemical_formula_sum "Si O2"
_cell_formula_units_Z 80
_cell_length_a 10.028333
_cell_length_b 16.916787
_cell_length_c 20.895075
_cell_angle_alpha 90.000000
_cell_angle_beta 90.000000
_cell_angle_gamma 90.000000
_cell_volume 3544.790410
_symmetry_space_group_name_H-M "F D D 2"
_symmetry_group_IT_number 43
_symmetry_cell_setting 'orthorhombic'
loop_
_space_group_symop_operation_xyz
x,y,z
-x,-y,z
1/4-x,1/4+y,1/4+z
1/4+x,1/4-y,1/4+z
x,1/2+y,1/2+z
-x,1/2-y,1/2+z
1/4-x,3/4+y,3/4+z
1/4+x,3/4-y,3/4+z
1/2+x,y,1/2+z
1/2-x,-y,1/2+z
3/4-x,1/4+y,3/4+z
3/4+x,1/4-y,3/4+z
1/2+x,1/2+y,z
1/2-x,1/2-y,z
3/4-x,3/4+y,1/4+z
3/4+x,3/4-y,1/4+z
loop_
_atom_site_type_symbol
_atom_site_label
_atom_site_fract_x
_atom_site_fract_y
_atom_site_fract_z
Si Si1 0.285153 0.014663 0.203400
Si Si2 0.676097 0.646415 0.741431
Si Si3 0.000000 0.000000 0.152592
Si Si4 0.069285 0.779987 0.309381
Si Si5 0.000000 0.000000 0.373861
Si Si6 0.806898 0.884677 0.309077
O O1 0.334881 0.005873 0.130635
O O2 0.274847 0.093118 0.245562
O O3 0.356241 0.944793 0.241851
O O4 0.130248 0.988097 0.194724
O O5 0.803194 0.669629 0.785622
O O6 0.561152 0.703915 0.764363
O O7 0.711720 0.676727 0.670101
O O8 0.979642 0.921030 0.109709
O O9 0.939109 0.832129 0.298404
O O10 0.128499 0.033750 0.336545
#
# Coordination Sequence:
#
# PCOD9370117 Si02
#       6
#    16  16   8  16   8  16
#     4  11  21  37  60  85 124 157 195 253 296 353
#     4  10  20  36  59  86 122 153 203 247 290 354
#     4  10  21  38  56  92 122 153 204 246 288 370
#     4   9  20  36  55  91 115 153 199 247 289 353
#     4  10  17  32  60  92 110 153 200 244 294 338
#     4  11  21  35  62  90 121 155 200 244 307 342
#
# _framework density 22.568331000000001
#
# number of rings (size 3 to 8) (size 9 to 14) (size 15 to 20)
#    0.000    2.000    4.000    3.000    2.800    0.000 
#    0.000   10.000    0.000    0.000    0.000    0.000 
#    0.000    0.000    0.000    0.000    0.000    0.000 
#
# Total GULP energy -111577.728117 kJ/mol
# GULP energy per Si atom -5578.886406 kJ/mol
# Density = 2.251696 g / cm^3
# Si number density = 22.568331 Si / 1000 Ang^3
#
#
#
# Elastic Constant Matrix: (Units=GPa)
#
#
# Indices 1 2 3 4 5 6 
#
# 1 35.4104 16.0023 5.9274 0.0000 0.0000 0.0000
# 2 16.0023 97.9862 43.1318 0.0000 0.0000 0.0000
# 3 5.9274 43.1318 109.9679 0.0000 0.0000 0.0000
# 4 0.0000 0.0000 0.0000 30.7413 0.0000 0.0000
# 5 0.0000 0.0000 0.0000 0.0000 24.4718 0.0000
# 6 0.0000 0.0000 0.0000 0.0000 0.0000 33.6384
#
#
#
# Elastic Compliance Matrix: (Units=1/GPa)
#
#
# Indices 1 2 3 4 5 6 
#
# 1 0.030503 -0.005146 0.000374 0.000000 0.000000 0.000000
# 2 -0.005146 0.013203 -0.004901 0.000000 0.000000 0.000000
# 3 0.000374 -0.004901 0.010996 0.000000 0.000000 0.000000
# 4 0.000000 0.000000 0.000000 0.032530 0.000000 0.000000
# 5 0.000000 0.000000 0.000000 0.000000 0.040863 0.000000
# 6 0.000000 0.000000 0.000000 0.000000 0.000000 0.029728
#
#
# Mechanical properties :
#
#
# Convention : Reuss Voigt Hill
#
# Bulk Modulus (GPa) = 28.28374 41.49859 34.89116
# Shear Modulus (GPa) = 26.46129 29.65716 28.05922
#
# Velocity S-wave (km/s) = 3.42789 3.62899 3.52987
# Velocity P-wave (km/s) = 5.31290 5.99894 5.66632
#
# Compressibility (1/GPa) = 0.03535601
#
# Stress axis : x y z
#
# Youngs Moduli (GPa) = 32.78329 75.73789 90.94411
#
# Poissons Ratio (x) = 0.38977 -0.03404
# Poissons Ratio (y) = 0.16871 0.44574
# Poissons Ratio (z) = -0.01227 0.37121
#
# Static dielectric constant tensor:
#      x y z
#    x 1.857250 0.000000 0.000000 
#    y 0.000000 1.856740 0.000000 
#    z 0.000000 0.000000 1.888940 
# 
# From -- ./inp_files/14535.got.cif
#   From: 2010.05.17/outbox.cif.g08.bks.cpg/sg43_8_cif.got.tgz:14535.got - 2010.06.03 19:21:55.
