data_PCOD9370278
_publ_section_title
;
Structure prediction by ZEFSAII (Michael W. Deem and Ramdas Pophale) SiO2 
 PCOD9370278
Probable space group: F D D 2
;
_chemical_formula_sum "Si O2"
_cell_formula_units_Z 88
_cell_length_a 10.712542
_cell_length_b 12.714209
_cell_length_c 27.594404
_cell_angle_alpha 90.000000
_cell_angle_beta 90.000000
_cell_angle_gamma 90.000000
_cell_volume 3758.399159
_symmetry_space_group_name_H-M "F D D 2"
_symmetry_group_IT_number 43
_symmetry_cell_setting 'orthorhombic'
loop_
_space_group_symop_operation_xyz
x,y,z
-x,-y,z
1/4-x,1/4+y,1/4+z
1/4+x,1/4-y,1/4+z
x,1/2+y,1/2+z
-x,1/2-y,1/2+z
1/4-x,3/4+y,3/4+z
1/4+x,3/4-y,3/4+z
1/2+x,y,1/2+z
1/2-x,-y,1/2+z
3/4-x,1/4+y,3/4+z
3/4+x,1/4-y,3/4+z
1/2+x,1/2+y,z
1/2-x,1/2-y,z
3/4-x,3/4+y,1/4+z
3/4+x,3/4-y,1/4+z
loop_
_atom_site_type_symbol
_atom_site_label
_atom_site_fract_x
_atom_site_fract_y
_atom_site_fract_z
Si Si1 0.321317 0.843954 0.604530
Si Si2 0.750000 0.750000 0.258748
Si Si3 0.828040 0.148094 0.263695
Si Si4 0.113713 0.713356 0.494699
Si Si5 0.551542 0.389062 0.172398
Si Si6 0.469308 0.318665 0.333720
O O1 0.250000 0.750000 0.628248
O O2 0.364379 0.805507 0.551924
O O3 0.439127 0.863862 0.637212
O O4 0.241382 0.948587 0.596047
O O5 0.691508 0.849278 0.229793
O O6 0.643977 0.700388 0.294994
O O7 0.750000 0.250000 0.277857
O O8 0.915437 0.180443 0.218297
O O9 0.919492 0.119227 0.307947
O O10 0.739471 0.055539 0.243435
O O11 0.250000 0.750000 0.474784
O O12 0.500000 0.500000 0.193657
O O13 0.666801 0.391526 0.134788
#
# Coordination Sequence:
#
# PCOD9370278 Si02
#       6
#    16   8  16  16  16  16
#     4   9  17  39  66  88 126 176 217 270 332 412
#     4  10  18  40  68  92 120 184 220 270 342 412
#     4  12  26  40  62 102 136 173 226 292 342 414
#     4  10  21  40  66  92 128 170 227 275 338 412
#     4  10  22  41  60  94 136 171 225 276 330 419
#     4  10  20  42  63  90 133 170 221 273 340 413
#
# _framework density 23.414223
#
# number of rings (size 3 to 8) (size 9 to 14) (size 15 to 20)
#    0.000    1.818    4.545    3.273    2.545    1.455 
#    1.636    6.364    0.000    0.000    0.000    0.000 
#    0.000    0.000    0.000    0.000    0.000    0.000 
#
# Total GULP energy -122799.241313 kJ/mol
# GULP energy per Si atom -5581.783696 kJ/mol
# Density = 2.336093 g / cm^3
# Si number density = 23.414223 Si / 1000 Ang^3
#
#
#
# Elastic Constant Matrix: (Units=GPa)
#
#
# Indices 1 2 3 4 5 6 
#
# 1 88.3928 42.5578 17.1146 0.0000 0.0000 0.0000
# 2 42.5578 71.3549 0.0022 0.0000 0.0000 0.0000
# 3 17.1146 0.0022 62.7295 0.0000 0.0000 0.0000
# 4 0.0000 0.0000 0.0000 0.5714 0.0000 0.0000
# 5 0.0000 0.0000 0.0000 0.0000 183.4396 0.0000
# 6 0.0000 0.0000 0.0000 0.0000 0.0000 21.3011
#
#
#
# Elastic Compliance Matrix: (Units=1/GPa)
#
#
# Indices 1 2 3 4 5 6 
#
# 1 0.017140 -0.010223 -0.004676 0.000000 0.000000 0.000000
# 2 -0.010223 0.020112 0.002788 0.000000 0.000000 0.000000
# 3 -0.004676 0.002788 0.017217 0.000000 0.000000 0.000000
# 4 0.000000 0.000000 0.000000 1.750124 0.000000 0.000000
# 5 0.000000 0.000000 0.000000 0.000000 0.005451 0.000000
# 6 0.000000 0.000000 0.000000 0.000000 0.000000 0.046946
#
#
# Mechanical properties :
#
#
# Convention : Reuss Voigt Hill
#
# Bulk Modulus (GPa) = 33.05994 37.98069 35.52032
# Shear Modulus (GPa) = 2.64369 51.91592 27.27980
#
# Velocity S-wave (km/s) = 1.06374 4.71391 3.41705
# Velocity P-wave (km/s) = 3.95714 6.77380 5.54722
#
# Compressibility (1/GPa) = 0.03024808
#
# Stress axis : x y z
#
# Youngs Moduli (GPa) = 58.34153 49.72268 58.08160
#
# Poissons Ratio (x) = 0.50831 0.27159
# Poissons Ratio (y) = 0.59642 -0.16196
# Poissons Ratio (z) = 0.27281 -0.13865
#
# Static dielectric constant tensor:
#      x y z
#    x 1.974180 0.000000 0.000000 
#    y 0.000000 2.021090 0.000000 
#    z 0.000000 0.000000 1.806900 
# 
# From -- ./inp_files/24995.got.cif
#   From: 2010.05.17/outbox.cif.g08.bks.cpg/sg43_13_cif.got.tgz:24995.got - 2010.06.03 19:21:55.
