data_PCOD9370432
_publ_section_title
;
Structure prediction by ZEFSAII (Michael W. Deem and Ramdas Pophale) SiO2 
 PCOD9370432
Probable space group: F D D 2
;
_chemical_formula_sum "Si O2"
_cell_formula_units_Z 120
_cell_length_a 8.170149
_cell_length_b 23.790838
_cell_length_c 30.507897
_cell_angle_alpha 90.000000
_cell_angle_beta 90.000000
_cell_angle_gamma 90.000000
_cell_volume 5929.963061
_symmetry_space_group_name_H-M "F D D 2"
_symmetry_group_IT_number 43
_symmetry_cell_setting 'orthorhombic'
loop_
_space_group_symop_operation_xyz
x,y,z
-x,-y,z
1/4-x,1/4+y,1/4+z
1/4+x,1/4-y,1/4+z
x,1/2+y,1/2+z
-x,1/2-y,1/2+z
1/4-x,3/4+y,3/4+z
1/4+x,3/4-y,3/4+z
1/2+x,y,1/2+z
1/2-x,-y,1/2+z
3/4-x,1/4+y,3/4+z
3/4+x,1/4-y,3/4+z
1/2+x,1/2+y,z
1/2-x,1/2-y,z
3/4-x,3/4+y,1/4+z
3/4+x,3/4-y,1/4+z
loop_
_atom_site_type_symbol
_atom_site_label
_atom_site_fract_x
_atom_site_fract_y
_atom_site_fract_z
Si Si1 0.705146 0.931132 0.445550
Si Si2 0.196312 0.806964 0.621134
Si Si3 0.118392 0.608628 0.562804
Si Si4 0.362780 0.599195 0.137298
Si Si5 0.794378 0.615701 0.924981
Si Si6 0.999252 0.332253 0.479428
Si Si7 0.250000 0.250000 0.446676
Si Si8 0.085256 0.718319 0.253349
O O1 0.555800 0.945739 0.414494
O O2 0.837908 0.907736 0.411256
O O3 0.640350 0.879745 0.474723
O O4 0.752289 0.983027 0.474882
O O5 0.250000 0.750000 0.596661
O O6 0.253649 0.862019 0.595405
O O7 0.017707 0.818227 0.640510
O O8 0.209479 0.556548 0.539224
O O9 0.952261 0.596622 0.590288
O O10 0.079173 0.655000 0.526037
O O11 0.444794 0.550232 0.165432
O O12 0.170693 0.597061 0.147122
O O13 0.641037 0.652791 0.943351
O O14 0.863615 0.583257 0.968478
O O15 0.093844 0.273718 0.473304
O O16 0.250000 0.750000 0.269955
#
# Coordination Sequence:
#
# PCOD9370432 Si02
#       8
#    16  16  16  16  16  16   8  16
#     4   9  18  36  67  85 114 164 220 249 313 402
#     4  10  19  38  60  89 125 171 205 268 330 383
#     4  10  24  41  55  95 141 154 211 285 338 375
#     4  10  21  41  62  90 124 167 217 264 321 399
#     4  10  20  37  67  94 119 164 232 265 298 406
#     4   9  21  41  60  90 126 167 216 272 319 390
#     4  10  22  44  66  80 122 186 218 248 334 410
#     4  11  20  38  67  99 121 165 219 279 326 383
#
# _framework density 20.236211999999998
#
# number of rings (size 3 to 8) (size 9 to 14) (size 15 to 20)
#    0.000    2.133    2.667    0.800    0.000    1.600 
#   12.000    0.000    0.000    0.000    0.000    0.000 
#    0.000    0.000    0.000    0.000    0.000    0.000 
#
# Total GULP energy -167018.836801 kJ/mol
# GULP energy per Si atom -5567.294560 kJ/mol
# Density = 2.019015 g / cm^3
# Si number density = 20.236212 Si / 1000 Ang^3
#
#
#
# Elastic Constant Matrix: (Units=GPa)
#
#
# Indices 1 2 3 4 5 6 
#
# 1 87.1101 21.4387 44.5186 0.0000 0.0000 0.0000
# 2 21.4387 70.9145 36.6382 0.0000 0.0000 0.0000
# 3 44.5186 36.6382 94.9352 0.0000 0.0000 0.0000
# 4 0.0000 0.0000 0.0000 18.9121 0.0000 0.0000
# 5 0.0000 0.0000 0.0000 0.0000 25.6493 0.0000
# 6 0.0000 0.0000 0.0000 0.0000 0.0000 35.8527
#
#
#
# Elastic Compliance Matrix: (Units=1/GPa)
#
#
# Indices 1 2 3 4 5 6 
#
# 1 0.015171 -0.001138 -0.006675 0.000000 0.000000 0.000000
# 2 -0.001138 0.017699 -0.006297 0.000000 0.000000 0.000000
# 3 -0.006675 -0.006297 0.016094 0.000000 0.000000 0.000000
# 4 0.000000 0.000000 0.000000 0.052876 0.000000 0.000000
# 5 0.000000 0.000000 0.000000 0.000000 0.038987 0.000000
# 6 0.000000 0.000000 0.000000 0.000000 0.000000 0.027892
#
#
# Mechanical properties :
#
#
# Convention : Reuss Voigt Hill
#
# Bulk Modulus (GPa) = 48.20654 50.90564 49.55609
# Shear Modulus (GPa) = 24.52735 26.10710 25.31723
#
# Velocity S-wave (km/s) = 3.48523 3.59572 3.54091
# Velocity P-wave (km/s) = 6.33004 6.51531 6.42334
#
# Compressibility (1/GPa) = 0.02074407
#
# Stress axis : x y z
#
# Youngs Moduli (GPa) = 65.91443 56.50104 62.13517
#
# Poissons Ratio (x) = 0.06428 0.41477
# Poissons Ratio (y) = 0.07499 0.39126
# Poissons Ratio (z) = 0.43999 0.35578
#
# Static dielectric constant tensor:
#      x y z
#    x 1.871030 0.000000 0.000000 
#    y 0.000000 1.804080 0.000000 
#    z 0.000000 0.000000 1.729040 
# 
# From -- ./inp_files/28124.got.cif
#   From: 2010.05.17/outbox.cif.g08.bks.cpg/sg43_15_cif.got.tgz:28124.got - 2010.06.03 19:21:55.
