data_PCOD9370494
_publ_section_title
;
Structure prediction by ZEFSAII (Michael W. Deem and Ramdas Pophale) SiO2 
 PCOD9370494
Probable space group: F D D 2
;
_chemical_formula_sum "Si O2"
_cell_formula_units_Z 80
_cell_length_a 16.677533
_cell_length_b 32.662383
_cell_length_c 7.250927
_cell_angle_alpha 90.000000
_cell_angle_beta 90.000000
_cell_angle_gamma 90.000000
_cell_volume 3949.782748
_symmetry_space_group_name_H-M "F D D 2"
_symmetry_group_IT_number 43
_symmetry_cell_setting 'orthorhombic'
loop_
_space_group_symop_operation_xyz
x,y,z
-x,-y,z
1/4-x,1/4+y,1/4+z
1/4+x,1/4-y,1/4+z
x,1/2+y,1/2+z
-x,1/2-y,1/2+z
1/4-x,3/4+y,3/4+z
1/4+x,3/4-y,3/4+z
1/2+x,y,1/2+z
1/2-x,-y,1/2+z
3/4-x,1/4+y,3/4+z
3/4+x,1/4-y,3/4+z
1/2+x,1/2+y,z
1/2-x,1/2-y,z
3/4-x,3/4+y,1/4+z
3/4+x,3/4-y,1/4+z
loop_
_atom_site_type_symbol
_atom_site_label
_atom_site_fract_x
_atom_site_fract_y
_atom_site_fract_z
Si Si1 0.814611 0.282295 0.420490
Si Si2 0.922461 0.316908 0.105058
Si Si3 0.033674 0.109809 0.811631
Si Si4 0.672350 0.069917 0.539397
Si Si5 0.092725 0.990220 0.084806
O O1 0.750000 0.250000 0.345106
O O2 0.882591 0.292381 0.274734
O O3 0.768867 0.324302 0.471214
O O4 0.845785 0.264239 0.613729
O O5 0.916270 0.364887 0.157386
O O6 0.017731 0.309087 0.118907
O O7 0.877072 0.300489 0.927785
O O8 0.092357 0.090358 0.959885
O O9 0.974814 0.145242 0.890380
O O10 0.647143 0.028861 0.642005
O O11 0.000000 0.000000 0.130146
#
# Coordination Sequence:
#
# PCOD9370494 Si02
#       5
#    16  16  16  16  16
#     4  11  21  39  68  86 130 175 205 265 334 370
#     4  10  23  39  62  92 127 160 221 258 322 381
#     4  10  19  41  63  89 128 172 204 265 323 382
#     4  10  21  39  66  89 129 169 214 266 322 387
#     4  11  23  40  65  98 128 164 224 264 318 394
#
# _framework density 20.254277999999999
#
# number of rings (size 3 to 8) (size 9 to 14) (size 15 to 20)
#    1.200    0.400    6.000    0.600    2.800    0.000 
#    0.000   10.000    0.000    0.000    0.000    0.000 
#    0.000    0.000    0.000    0.000    0.000    0.000 
#
# Total GULP energy -111421.748620 kJ/mol
# GULP energy per Si atom -5571.087431 kJ/mol
# Density = 2.020818 g / cm^3
# Si number density = 20.254278 Si / 1000 Ang^3
#
#
#
# Elastic Constant Matrix: (Units=GPa)
#
#
# Indices 1 2 3 4 5 6 
#
# 1 52.2447 11.1309 7.6480 0.0000 -0.0002 0.0000
# 2 11.1309 91.5560 -3.9206 0.0000 0.0000 0.0000
# 3 7.6480 -3.9206 28.0247 -0.0001 -0.0003 0.0001
# 4 0.0000 0.0000 -0.0001 22.3629 0.0000 0.0000
# 5 -0.0002 0.0000 -0.0003 0.0000 15.9484 0.0000
# 6 0.0000 0.0000 0.0001 0.0000 0.0000 55.5397
#
#
#
# Elastic Compliance Matrix: (Units=1/GPa)
#
#
# Indices 1 2 3 4 5 6 
#
# 1 0.020609 -0.002763 -0.006011 0.000000 0.000000 0.000000
# 2 -0.002763 0.011359 0.002343 0.000000 0.000000 0.000000
# 3 -0.006011 0.002343 0.037651 0.000000 0.000001 0.000000
# 4 0.000000 0.000000 0.000000 0.044717 0.000000 0.000000
# 5 0.000000 0.000000 0.000001 0.000000 0.062702 0.000000
# 6 0.000000 0.000000 0.000000 0.000000 0.000000 0.018005
#
#
# Mechanical properties :
#
#
# Convention : Reuss Voigt Hill
#
# Bulk Modulus (GPa) = 17.61889 22.39355 20.00622
# Shear Modulus (GPa) = 22.04359 29.23470 25.63914
#
# Velocity S-wave (km/s) = 3.30258 3.80331 3.56176
# Velocity P-wave (km/s) = 4.82291 5.51064 5.17820
#
# Compressibility (1/GPa) = 0.05675726
#
# Stress axis : x y z
#
# Youngs Moduli (GPa) = 48.52188 88.03965 26.55978
#
# Poissons Ratio (x) = 0.24325 0.15965
# Poissons Ratio (y) = 0.13406 -0.06223
# Poissons Ratio (z) = 0.29166 -0.20628
#
# Static dielectric constant tensor:
#      x y z
#    x 1.742890 0.000000 0.000000 
#    y 0.000000 1.734400 0.000000 
#    z 0.000000 0.000000 1.711230 
# 
# From -- ./inp_files/2871.got.cif
#   From: 2010.05.17/outbox.cif.g08.bks.cpg/sg43_2_cif.got.tgz:2871.got - 2010.06.03 19:21:55.
