data_PCOD9370311
_publ_section_title
;
Structure prediction by ZEFSAII (Michael W. Deem and Ramdas Pophale) SiO2 
 PCOD9370311
Probable space group: F D D 2
;
_chemical_formula_sum "Si O2"
_cell_formula_units_Z 64
_cell_length_a 23.890687
_cell_length_b 6.966357
_cell_length_c 11.942524
_cell_angle_alpha 90.000000
_cell_angle_beta 90.000000
_cell_angle_gamma 90.000000
_cell_volume 1987.606864
_symmetry_space_group_name_H-M "F D D 2"
_symmetry_group_IT_number 43
_symmetry_cell_setting 'orthorhombic'
loop_
_space_group_symop_operation_xyz
x,y,z
-x,-y,z
1/4-x,1/4+y,1/4+z
1/4+x,1/4-y,1/4+z
x,1/2+y,1/2+z
-x,1/2-y,1/2+z
1/4-x,3/4+y,3/4+z
1/4+x,3/4-y,3/4+z
1/2+x,y,1/2+z
1/2-x,-y,1/2+z
3/4-x,1/4+y,3/4+z
3/4+x,1/4-y,3/4+z
1/2+x,1/2+y,z
1/2-x,1/2-y,z
3/4-x,3/4+y,1/4+z
3/4+x,3/4-y,1/4+z
loop_
_atom_site_type_symbol
_atom_site_label
_atom_site_fract_x
_atom_site_fract_y
_atom_site_fract_z
Si Si1 0.186755 0.689332 0.965640
Si Si2 0.687477 0.444358 0.219596
Si Si3 0.436755 0.439331 0.682373
Si Si4 0.187477 0.055643 0.678417
O O1 0.250000 0.750000 0.938175
O O2 0.124888 0.772994 0.940116
O O3 0.183757 0.518155 0.857668
O O4 0.183757 0.481846 0.040346
O O5 0.688986 0.222542 0.290365
O O6 0.750000 0.524439 0.199007
O O7 0.688986 0.277459 0.107648
O O8 0.500000 0.500000 0.709839
O O9 0.374888 0.522993 0.707897
#
# Coordination Sequence:
#
# PCOD9370311 Si02
#       4
#    16  16  16  16
#     4  10  19  31  54  83 104 133 177 221 257 304
#     4   9  16  32  57  73  98 143 187 201 240 324
#     4  10  19  31  54  83 104 133 177 221 257 304
#     4   9  16  32  57  73  98 143 187 201 240 324
#
# _framework density 32.199528000000001
#
# number of rings (size 3 to 8) (size 9 to 14) (size 15 to 20)
#    0.000    2.500    5.000    0.000    0.000    0.000 
#    0.000    2.500    0.000    0.000    0.000    0.000 
#    0.000    0.000    0.000    0.000    0.000    0.000 
#
# Total GULP energy -89101.446706 kJ/mol
# GULP energy per Si atom -5568.840419 kJ/mol
# Density = 3.212624 g / cm^3
# Si number density = 32.199528 Si / 1000 Ang^3
#
#
#
# Elastic Constant Matrix: (Units=GPa)
#
#
# Indices 1 2 3 4 5 6 
#
# 1 511.5269 76.0008 59.6759 0.0000 0.0000 0.0000
# 2 76.0008 133.9775 76.8746 0.0000 0.0000 0.0000
# 3 59.6759 76.8746 286.7815 0.0000 0.0000 0.0000
# 4 0.0000 0.0000 0.0000 73.7629 0.0000 0.0000
# 5 0.0000 0.0000 0.0000 0.0000 -1.6584 0.0000
# 6 0.0000 0.0000 0.0000 0.0000 0.0000 7.9794
#
#
#
# Elastic Compliance Matrix: (Units=1/GPa)
#
#
# Indices 1 2 3 4 5 6 
#
# 1 0.002140 -0.001132 -0.000142 0.000000 0.000000 0.000000
# 2 -0.001132 0.009420 -0.002289 0.000000 0.000000 0.000000
# 3 -0.000142 -0.002289 0.004130 0.000000 0.000000 0.000000
# 4 0.000000 0.000000 0.000000 0.013557 0.000000 0.000000
# 5 0.000000 0.000000 0.000000 0.000000 -0.602986 0.000000
# 6 0.000000 0.000000 0.000000 0.000000 0.000000 0.125323
#
#
# Mechanical properties :
#
#
# Convention : Reuss Voigt Hill
#
# Bulk Modulus (GPa) = 116.78644 150.82094 133.80369
# Shear Modulus (GPa) = -11.40422 63.99908 26.29743
#
# Velocity S-wave (km/s) = -1.88399 4.46306 2.86090
# Velocity P-wave (km/s) = 5.62279 8.57320 7.24967
#
# Compressibility (1/GPa) = 0.00856264
#
# Stress axis : x y z
#
# Youngs Moduli (GPa) = 467.35044 106.15668 242.12067
#
# Poissons Ratio (x) = 0.12022 0.03430
# Poissons Ratio (y) = 0.52927 0.55433
# Poissons Ratio (z) = 0.06621 0.24304
#
# Static dielectric constant tensor:
#      x y z
#    x 1.878380 0.000000 0.000000 
#    y 0.000000 2.773520 0.000000 
#    z 0.000000 0.000000 3.092470 
# 
# From -- ./inp_files/16297.got.cif
#   From: 2010.05.17/outbox.cif.g08.bks.cpg/sg43_9_cif.got.tgz:16297.got - 2010.06.03 19:21:55.
