data_PCOD9370171
_publ_section_title
;
Structure prediction by ZEFSAII (Michael W. Deem and Ramdas Pophale) SiO2 
 PCOD9370171
Probable space group: F D D 2
;
_chemical_formula_sum "Si O2"
_cell_formula_units_Z 56
_cell_length_a 7.653285
_cell_length_b 15.344771
_cell_length_c 16.811787
_cell_angle_alpha 90.000000
_cell_angle_beta 90.000000
_cell_angle_gamma 90.000000
_cell_volume 1974.341057
_symmetry_space_group_name_H-M "F D D 2"
_symmetry_group_IT_number 43
_symmetry_cell_setting 'orthorhombic'
loop_
_space_group_symop_operation_xyz
x,y,z
-x,-y,z
1/4-x,1/4+y,1/4+z
1/4+x,1/4-y,1/4+z
x,1/2+y,1/2+z
-x,1/2-y,1/2+z
1/4-x,3/4+y,3/4+z
1/4+x,3/4-y,3/4+z
1/2+x,y,1/2+z
1/2-x,-y,1/2+z
3/4-x,1/4+y,3/4+z
3/4+x,1/4-y,3/4+z
1/2+x,1/2+y,z
1/2-x,1/2-y,z
3/4-x,3/4+y,1/4+z
3/4+x,3/4-y,1/4+z
loop_
_atom_site_type_symbol
_atom_site_label
_atom_site_fract_x
_atom_site_fract_y
_atom_site_fract_z
Si Si1 0.250000 0.750000 0.670630
Si Si2 0.500000 0.000000 0.179199
Si Si3 0.107066 0.319814 0.393263
Si Si4 0.750000 0.250000 0.049915
Si Si5 0.857066 0.069814 0.456567
O O1 0.146634 0.672314 0.625338
O O2 0.091671 0.791818 0.719591
O O3 0.396633 0.922313 0.224491
O O4 0.658329 0.958182 0.130239
O O5 0.250000 0.250000 0.364686
O O6 0.144730 0.311958 0.489075
O O7 0.855270 0.311958 0.110754
O O8 0.000000 0.000000 0.485143
#
# Coordination Sequence:
#
# PCOD9370171 Si02
#       5
#     8   8  16   8  16
#     4  10  18  33  60  75  98 146 190 191 282 317
#     4  10  18  33  60  75  98 146 190 191 282 317
#     4   9  19  35  52  79 105 138 173 231 251 324
#     4   8  20  34  48  70 118 130 164 236 276 276
#     4   9  19  35  52  79 105 138 173 231 251 324
#
# _framework density 28.363893000000001
#
# number of rings (size 3 to 8) (size 9 to 14) (size 15 to 20)
#    1.714    1.143    0.000    1.714    0.000    1.143 
#    0.000   11.429    0.000    0.000    0.000    0.000 
#    0.000    0.000    0.000    0.000    0.000    0.000 
#
# Total GULP energy -78153.503326 kJ/mol
# GULP energy per Si atom -5582.393095 kJ/mol
# Density = 2.829934 g / cm^3
# Si number density = 28.363893 Si / 1000 Ang^3
#
#
#
# Elastic Constant Matrix: (Units=GPa)
#
#
# Indices 1 2 3 4 5 6 
#
# 1 155.5120 73.0181 32.1475 0.0000 0.0000 0.0000
# 2 73.0181 272.5114 24.7182 0.0000 0.0000 0.0000
# 3 32.1475 24.7182 128.5577 0.0000 0.0000 0.0000
# 4 0.0000 0.0000 0.0000 -0.7322 0.0000 0.0000
# 5 0.0000 0.0000 0.0000 0.0000 68.3681 0.0000
# 6 0.0000 0.0000 0.0000 0.0000 0.0000 69.1973
#
#
#
# Elastic Compliance Matrix: (Units=1/GPa)
#
#
# Indices 1 2 3 4 5 6 
#
# 1 0.007646 -0.001909 -0.001545 0.000000 0.000000 0.000000
# 2 -0.001909 0.004211 -0.000332 0.000000 0.000000 0.000000
# 3 -0.001545 -0.000332 0.008229 0.000000 0.000000 0.000000
# 4 0.000000 0.000000 0.000000 -1.365836 0.000000 0.000000
# 5 0.000000 0.000000 0.000000 0.000000 0.014627 0.000000
# 6 0.000000 0.000000 0.000000 0.000000 0.000000 0.014451
#
#
# Mechanical properties :
#
#
# Convention : Reuss Voigt Hill
#
# Bulk Modulus (GPa) = 79.91084 90.70539 85.30812
# Shear Modulus (GPa) = -3.83163 55.81313 25.99075
#
# Velocity S-wave (km/s) = -1.16354 4.44075 3.03038
# Velocity P-wave (km/s) = 5.14096 7.63821 6.51044
#
# Compressibility (1/GPa) = 0.01251395
#
# Stress axis : x y z
#
# Youngs Moduli (GPa) = 130.78946 237.46723 121.52337
#
# Poissons Ratio (x) = 0.45321 0.18775
# Poissons Ratio (y) = 0.24962 0.04040
# Poissons Ratio (z) = 0.20207 0.07894
#
# Static dielectric constant tensor:
#      x y z
#    x 2.207270 0.000000 0.000000 
#    y 0.000000 2.164650 0.000000 
#    z 0.000000 0.000000 2.309670 
# 
# From -- ./inp_files/5454.got.cif
#   From: 2010.05.17/outbox.cif.g08.bks.cpg/sg43_3_cif.got.tgz:5454.got - 2010.06.03 19:21:55.
