data_PCOD9370738
_publ_section_title
;
Structure prediction by ZEFSAII (Michael W. Deem and Ramdas Pophale) SiO2 
 PCOD9370738
Probable space group: F D D 2
;
_chemical_formula_sum "Si O2"
_cell_formula_units_Z 120
_cell_length_a 17.278643
_cell_length_b 21.177485
_cell_length_c 16.549857
_cell_angle_alpha 90.000000
_cell_angle_beta 90.000000
_cell_angle_gamma 90.000000
_cell_volume 6055.893933
_symmetry_space_group_name_H-M "F D D 2"
_symmetry_group_IT_number 43
_symmetry_cell_setting 'orthorhombic'
loop_
_space_group_symop_operation_xyz
x,y,z
-x,-y,z
1/4-x,1/4+y,1/4+z
1/4+x,1/4-y,1/4+z
x,1/2+y,1/2+z
-x,1/2-y,1/2+z
1/4-x,3/4+y,3/4+z
1/4+x,3/4-y,3/4+z
1/2+x,y,1/2+z
1/2-x,-y,1/2+z
3/4-x,1/4+y,3/4+z
3/4+x,1/4-y,3/4+z
1/2+x,1/2+y,z
1/2-x,1/2-y,z
3/4-x,3/4+y,1/4+z
3/4+x,3/4-y,1/4+z
loop_
_atom_site_type_symbol
_atom_site_label
_atom_site_fract_x
_atom_site_fract_y
_atom_site_fract_z
Si Si1 0.299815 0.527325 0.038000
Si Si2 0.859253 0.416749 0.651088
Si Si3 0.896824 0.916648 0.328855
Si Si4 0.474282 0.309838 0.114246
Si Si5 0.136559 0.477803 0.064965
Si Si6 0.894258 0.518643 0.249311
Si Si7 0.250000 0.750000 0.189185
Si Si8 0.768197 0.651430 0.074028
O O1 0.336165 0.470818 0.088823
O O2 0.336854 0.592863 0.065735
O O3 0.207629 0.525760 0.052321
O O4 0.307681 0.521283 0.941386
O O5 0.883063 0.442697 0.738266
O O6 0.932469 0.377138 0.621111
O O7 0.784266 0.368527 0.652315
O O8 0.815177 0.931542 0.370356
O O9 0.965686 0.946626 0.380183
O O10 0.442196 0.279964 0.031769
O O11 0.104343 0.492853 0.154288
O O12 0.177268 0.408784 0.060896
O O13 0.070318 0.480615 0.997918
O O14 0.929605 0.463387 0.306597
O O15 0.946926 0.581076 0.263830
#
# Coordination Sequence:
#
# PCOD9370738 Si02
#       8
#    16  16  16  16  16  16   8  16
#     4  10  22  41  66  90 129 171 216 272 336 391
#     4   9  21  40  64  92 127 171 217 274 324 402
#     4  11  24  42  61  93 132 178 217 275 326 404
#     4  10  20  39  63  94 132 163 222 269 326 397
#     4  11  23  43  63  95 133 173 226 280 335 405
#     4  10  21  39  67  99 131 175 221 279 341 404
#     4  12  26  44  62  92 136 176 224 278 330 406
#     4   9  20  39  63  94 129 165 221 272 335 389
#
# _framework density 19.815407
#
# number of rings (size 3 to 8) (size 9 to 14) (size 15 to 20)
#    0.000    1.867    1.333    2.400    1.867    6.933 
#    0.000    2.667    0.000    0.000    0.000    0.000 
#    0.000    0.000    0.000    0.000    0.000    0.000 
#
# Total GULP energy -167063.326293 kJ/mol
# GULP energy per Si atom -5568.777543 kJ/mol
# Density = 1.977031 g / cm^3
# Si number density = 19.815407 Si / 1000 Ang^3
#
#
#
# Elastic Constant Matrix: (Units=GPa)
#
#
# Indices 1 2 3 4 5 6 
#
# 1 66.0031 15.9742 23.7346 0.0000 0.0000 0.0000
# 2 15.9742 51.5902 26.7917 0.0000 0.0000 0.0000
# 3 23.7346 26.7917 114.7444 0.0000 0.0000 0.0000
# 4 0.0000 0.0000 0.0000 22.9643 0.0000 0.0000
# 5 0.0000 0.0000 0.0000 0.0000 35.5240 0.0000
# 6 0.0000 0.0000 0.0000 0.0000 0.0000 33.3040
#
#
#
# Elastic Compliance Matrix: (Units=1/GPa)
#
#
# Indices 1 2 3 4 5 6 
#
# 1 0.017038 -0.003921 -0.002609 0.000000 0.000000 0.000000
# 2 -0.003921 0.022960 -0.004550 0.000000 0.000000 0.000000
# 3 -0.002609 -0.004550 0.010317 0.000000 0.000000 0.000000
# 4 0.000000 0.000000 0.000000 0.043546 0.000000 0.000000
# 5 0.000000 0.000000 0.000000 0.000000 0.028150 0.000000
# 6 0.000000 0.000000 0.000000 0.000000 0.000000 0.030026
#
#
# Mechanical properties :
#
#
# Convention : Reuss Voigt Hill
#
# Bulk Modulus (GPa) = 35.51619 40.59319 38.05469
# Shear Modulus (GPa) = 27.23578 29.41428 28.32503
#
# Velocity S-wave (km/s) = 3.71141 3.85699 3.78490
# Velocity P-wave (km/s) = 6.02732 6.35337 6.19249
#
# Compressibility (1/GPa) = 0.02815617
#
# Stress axis : x y z
#
# Youngs Moduli (GPa) = 58.69296 43.55311 96.92712
#
# Poissons Ratio (x) = 0.17076 0.25286
# Poissons Ratio (y) = 0.23012 0.44102
# Poissons Ratio (z) = 0.15312 0.19817
#
# Static dielectric constant tensor:
#      x y z
#    x 1.730580 0.000000 0.000000 
#    y 0.000000 1.701670 0.000000 
#    z 0.000000 0.000000 1.740170 
# 
# From -- ./inp_files/14348.got.cif
#   From: 2010.05.17/outbox.cif.g08.bks.cpg/sg43_8_cif.got.tgz:14348.got - 2010.06.03 19:21:55.
