data_PCOD9370718
_publ_section_title
;
Structure prediction by ZEFSAII (Michael W. Deem and Ramdas Pophale) SiO2 
 PCOD9370718
Probable space group: F D D 2
;
_chemical_formula_sum "Si O2"
_cell_formula_units_Z 80
_cell_length_a 25.616008
_cell_length_b 15.785957
_cell_length_c 8.339404
_cell_angle_alpha 90.000000
_cell_angle_beta 90.000000
_cell_angle_gamma 90.000000
_cell_volume 3372.231488
_symmetry_space_group_name_H-M "F D D 2"
_symmetry_group_IT_number 43
_symmetry_cell_setting 'orthorhombic'
loop_
_space_group_symop_operation_xyz
x,y,z
-x,-y,z
1/4-x,1/4+y,1/4+z
1/4+x,1/4-y,1/4+z
x,1/2+y,1/2+z
-x,1/2-y,1/2+z
1/4-x,3/4+y,3/4+z
1/4+x,3/4-y,3/4+z
1/2+x,y,1/2+z
1/2-x,-y,1/2+z
3/4-x,1/4+y,3/4+z
3/4+x,1/4-y,3/4+z
1/2+x,1/2+y,z
1/2-x,1/2-y,z
3/4-x,3/4+y,1/4+z
3/4+x,3/4-y,1/4+z
loop_
_atom_site_type_symbol
_atom_site_label
_atom_site_fract_x
_atom_site_fract_y
_atom_site_fract_z
Si Si1 0.250000 0.250000 0.055730
Si Si2 0.214053 0.582768 0.216615
Si Si3 0.861671 0.727575 0.034252
Si Si4 0.500000 0.000000 0.786604
Si Si5 0.784693 0.428305 0.604619
Si Si6 0.849851 0.157801 0.871819
O O1 0.195489 0.259208 0.960274
O O2 0.236094 0.164886 0.156357
O O3 0.154286 0.562150 0.170404
O O4 0.230376 0.670617 0.140328
O O5 0.216051 0.580612 0.410729
O O6 0.249285 0.505742 0.155593
O O7 0.848035 0.666617 0.180097
O O8 0.889558 0.806584 0.126902
O O9 0.448987 0.957430 0.696831
O O10 0.842979 0.442073 0.671918
#
# Coordination Sequence:
#
# PCOD9370718 Si02
#       6
#     8  16  16   8  16  16
#     4  10  20  38  68  92 129 176 223 272 335 394
#     4  11  24  42  66  99 138 176 226 279 337 402
#     4  10  21  41  65  97 133 177 222 276 336 401
#     4  12  24  42  68 102 137 182 229 280 333 400
#     4  10  23  44  66  97 135 178 225 281 338 403
#     4  10  22  40  65  96 134 173 224 276 336 397
#
# _framework density 23.723164000000001
#
# number of rings (size 3 to 8) (size 9 to 14) (size 15 to 20)
#    0.000    1.600    0.000    4.800    0.000    6.400 
#    0.000   10.000    0.000    0.000    0.000    0.000 
#    0.000    0.000    0.000    0.000    0.000    0.000 
#
# Total GULP energy -111538.496821 kJ/mol
# GULP energy per Si atom -5576.924841 kJ/mol
# Density = 2.366917 g / cm^3
# Si number density = 23.723164 Si / 1000 Ang^3
#
#
#
# Elastic Constant Matrix: (Units=GPa)
#
#
# Indices 1 2 3 4 5 6 
#
# 1 270.9652 106.3240 51.3649 0.0000 0.0000 0.0000
# 2 106.3240 153.7235 26.4301 0.0000 0.0000 0.0000
# 3 51.3649 26.4301 37.5037 0.0000 0.0000 0.0000
# 4 0.0000 0.0000 0.0000 27.7979 0.0000 0.0000
# 5 0.0000 0.0000 0.0000 0.0000 28.6794 0.0000
# 6 0.0000 0.0000 0.0000 0.0000 0.0000 41.5547
#
#
#
# Elastic Compliance Matrix: (Units=1/GPa)
#
#
# Indices 1 2 3 4 5 6 
#
# 1 0.006090 -0.003161 -0.006113 0.000000 0.000000 0.000000
# 2 -0.003161 0.009043 -0.002044 0.000000 0.000000 0.000000
# 3 -0.006113 -0.002044 0.036476 0.000000 0.000000 0.000000
# 4 0.000000 0.000000 0.000000 0.035974 0.000000 0.000000
# 5 0.000000 0.000000 0.000000 0.000000 0.034868 0.000000
# 6 0.000000 0.000000 0.000000 0.000000 0.000000 0.024065
#
#
# Mechanical properties :
#
#
# Convention : Reuss Voigt Hill
#
# Bulk Modulus (GPa) = 34.51353 92.27002 63.39178
# Shear Modulus (GPa) = 27.96303 38.14462 33.05383
#
# Velocity S-wave (km/s) = 3.43698 4.01422 3.73676
# Velocity P-wave (km/s) = 5.50731 7.77587 6.73775
#
# Compressibility (1/GPa) = 0.02897414
#
# Stress axis : x y z
#
# Youngs Moduli (GPa) = 164.21587 110.58501 27.41529
#
# Poissons Ratio (x) = 0.34955 0.16758
# Poissons Ratio (y) = 0.51907 0.05603
# Poissons Ratio (z) = 1.00379 0.22599
#
# Static dielectric constant tensor:
#      x y z
#    x 2.019220 0.000000 0.000000 
#    y 0.000000 1.971590 0.000000 
#    z 0.000000 0.000000 1.970540 
# 
# From -- ./inp_files/4170.got.cif
#   From: 2010.05.17/outbox.cif.g08.bks.cpg/sg43_3_cif.got.tgz:4170.got - 2010.06.03 19:21:55.
