data_PCOD9370566
_publ_section_title
;
Structure prediction by ZEFSAII (Michael W. Deem and Ramdas Pophale) SiO2 
 PCOD9370566
Probable space group: F D D 2
;
_chemical_formula_sum "Si O2"
_cell_formula_units_Z 48
_cell_length_a 5.062196
_cell_length_b 14.392542
_cell_length_c 28.027317
_cell_angle_alpha 90.000000
_cell_angle_beta 90.000000
_cell_angle_gamma 90.000000
_cell_volume 2042.010578
_symmetry_space_group_name_H-M "F D D 2"
_symmetry_group_IT_number 43
_symmetry_cell_setting 'orthorhombic'
loop_
_space_group_symop_operation_xyz
x,y,z
-x,-y,z
1/4-x,1/4+y,1/4+z
1/4+x,1/4-y,1/4+z
x,1/2+y,1/2+z
-x,1/2-y,1/2+z
1/4-x,3/4+y,3/4+z
1/4+x,3/4-y,3/4+z
1/2+x,y,1/2+z
1/2-x,-y,1/2+z
3/4-x,1/4+y,3/4+z
3/4+x,1/4-y,3/4+z
1/2+x,1/2+y,z
1/2-x,1/2-y,z
3/4-x,3/4+y,1/4+z
3/4+x,3/4-y,1/4+z
loop_
_atom_site_type_symbol
_atom_site_label
_atom_site_fract_x
_atom_site_fract_y
_atom_site_fract_z
Si Si1 0.014189 0.888343 0.166720
Si Si2 0.016203 0.886653 0.722124
Si Si3 0.995084 0.687011 0.564341
O O1 0.227273 0.856313 0.205986
O O2 0.724303 0.856699 0.182237
O O3 0.092741 0.857941 0.113859
O O4 0.000000 0.000000 0.167096
O O5 0.145150 0.867531 0.773632
O O6 0.000000 0.000000 0.722150
O O7 0.250000 0.750000 0.575322
O O8 0.750000 0.750000 0.545910
#
# Coordination Sequence:
#
# PCOD9370566 Si02
#       3
#    16  16  16
#     4  10  20  36  57  80 108 145 186 226 272 330
#     4   9  18  34  56  78 106 147 186 217 269 342
#     4  11  21  36  58  84 111 146 188 233 277 328
#
# _framework density 23.506243999999999
#
# number of rings (size 3 to 8) (size 9 to 14) (size 15 to 20)
#    0.000    2.000    0.000    7.000    0.000    0.000 
#    0.000    5.000    0.000    0.000    0.000    0.000 
#    0.000    0.000    0.000    0.000    0.000    0.000 
#
# Total GULP energy -67038.019114 kJ/mol
# GULP energy per Si atom -5586.501593 kJ/mol
# Density = 2.345274 g / cm^3
# Si number density = 23.506244 Si / 1000 Ang^3
#
#
#
# Elastic Constant Matrix: (Units=GPa)
#
#
# Indices 1 2 3 4 5 6 
#
# 1 137.7598 1.1651 23.6546 0.0000 0.0000 0.0000
# 2 1.1651 65.5849 5.1680 0.0000 0.0000 0.0000
# 3 23.6546 5.1680 148.1658 0.0000 0.0000 0.0000
# 4 0.0000 0.0000 0.0000 30.1408 0.0000 0.0000
# 5 0.0000 0.0000 0.0000 0.0000 44.9061 0.0000
# 6 0.0000 0.0000 0.0000 0.0000 0.0000 3.2049
#
#
#
# Elastic Compliance Matrix: (Units=1/GPa)
#
#
# Indices 1 2 3 4 5 6 
#
# 1 0.007464 -0.000039 -0.001190 0.000000 0.000000 0.000000
# 2 -0.000039 0.015290 -0.000527 0.000000 0.000000 0.000000
# 3 -0.001190 -0.000527 0.006958 0.000000 0.000000 0.000000
# 4 0.000000 0.000000 0.000000 0.033178 0.000000 0.000000
# 5 0.000000 0.000000 0.000000 0.000000 0.022269 0.000000
# 6 0.000000 0.000000 0.000000 0.000000 0.000000 0.312020
#
#
# Mechanical properties :
#
#
# Convention : Reuss Voigt Hill
#
# Bulk Modulus (GPa) = 38.16986 45.72066 41.94526
# Shear Modulus (GPa) = 12.21231 37.08521 24.64876
#
# Velocity S-wave (km/s) = 2.28180 3.97630 3.24173
# Velocity P-wave (km/s) = 4.81826 6.36977 5.64755
#
# Compressibility (1/GPa) = 0.02619868
#
# Stress axis : x y z
#
# Youngs Moduli (GPa) = 133.98161 65.40378 143.72769
#
# Poissons Ratio (x) = 0.00254 0.17107
# Poissons Ratio (y) = 0.00520 0.07576
# Poissons Ratio (z) = 0.15947 0.03447
#
# Static dielectric constant tensor:
#      x y z
#    x 1.830230 0.000000 0.000000 
#    y 0.000000 1.934670 0.000000 
#    z 0.000000 0.000000 1.918920 
# 
# From -- ./inp_files/12010.got.cif
#   From: 2010.05.17/outbox.cif.g08.bks.cpg/sg43_7_cif.got.tgz:12010.got - 2010.06.03 19:21:55.
