data_PCOD9370574
_publ_section_title
;
Structure prediction by ZEFSAII (Michael W. Deem and Ramdas Pophale) SiO2 
 PCOD9370574
Probable space group: F D D 2
;
_chemical_formula_sum "Si O2"
_cell_formula_units_Z 104
_cell_length_a 23.336780
_cell_length_b 23.493066
_cell_length_c 7.221324
_cell_angle_alpha 90.000000
_cell_angle_beta 90.000000
_cell_angle_gamma 90.000000
_cell_volume 3959.109029
_symmetry_space_group_name_H-M "F D D 2"
_symmetry_group_IT_number 43
_symmetry_cell_setting 'orthorhombic'
loop_
_space_group_symop_operation_xyz
x,y,z
-x,-y,z
1/4-x,1/4+y,1/4+z
1/4+x,1/4-y,1/4+z
x,1/2+y,1/2+z
-x,1/2-y,1/2+z
1/4-x,3/4+y,3/4+z
1/4+x,3/4-y,3/4+z
1/2+x,y,1/2+z
1/2-x,-y,1/2+z
3/4-x,1/4+y,3/4+z
3/4+x,1/4-y,3/4+z
1/2+x,1/2+y,z
1/2-x,1/2-y,z
3/4-x,3/4+y,1/4+z
3/4+x,3/4-y,1/4+z
loop_
_atom_site_type_symbol
_atom_site_label
_atom_site_fract_x
_atom_site_fract_y
_atom_site_fract_z
Si Si1 0.840292 0.939658 0.131230
Si Si2 0.366981 0.791540 0.040212
Si Si3 0.750000 0.750000 0.722234
Si Si4 0.461721 0.377838 0.122539
Si Si5 0.063978 0.838499 0.293468
Si Si6 0.400191 0.775174 0.448834
Si Si7 0.470270 0.581894 0.777952
O O1 0.815060 0.937522 0.337880
O O2 0.854007 0.007102 0.120965
O O3 0.901786 0.909439 0.140874
O O4 0.801493 0.897309 0.008451
O O5 0.306180 0.761506 0.098464
O O6 0.401179 0.790760 0.231689
O O7 0.354724 0.857511 0.016730
O O8 0.743208 0.803448 0.864197
O O9 0.445545 0.316591 0.039488
O O10 0.497914 0.415615 0.974569
O O11 0.500152 0.364874 0.302751
O O12 0.085095 0.791763 0.439730
O O13 0.337187 0.793080 0.521359
#
# Coordination Sequence:
#
# PCOD9370574 Si02
#       7
#    16  16   8  16  16  16  16
#     4   9  20  39  60  91 123 157 218 261 318 381
#     4  10  20  38  63  86 128 166 207 264 321 387
#     4  10  20  36  58  96 122 164 216 254 320 398
#     4  10  20  39  61  93 121 166 212 260 324 384
#     4  10  21  40  61  91 128 168 210 262 330 387
#     4   9  21  41  58  90 128 159 211 263 318 389
#     4   9  20  38  63  84 127 162 208 263 317 385
#
# _framework density 26.268535
#
# number of rings (size 3 to 8) (size 9 to 14) (size 15 to 20)
#    0.000    2.462    0.000    0.923    0.000    6.154 
#   13.846    7.692    0.000    0.000    0.000    0.000 
#    0.000    0.000    0.000    0.000    0.000    0.000 
#
# Total GULP energy -145218.209648 kJ/mol
# GULP energy per Si atom -5585.315756 kJ/mol
# Density = 2.620875 g / cm^3
# Si number density = 26.268535 Si / 1000 Ang^3
#
#
#
# Elastic Constant Matrix: (Units=GPa)
#
#
# Indices 1 2 3 4 5 6 
#
# 1 87.7289 41.3806 30.0831 -0.0046 0.0060 0.0071
# 2 41.3806 147.7084 47.4610 -0.0004 -0.0056 0.0015
# 3 30.0831 47.4610 56.5881 0.0069 -0.0107 -0.0020
# 4 -0.0046 -0.0004 0.0069 59.0567 -0.0038 0.0017
# 5 0.0060 -0.0056 -0.0107 -0.0038 34.3279 0.0011
# 6 0.0071 0.0015 -0.0020 0.0017 0.0011 23.2832
#
#
#
# Elastic Compliance Matrix: (Units=1/GPa)
#
#
# Indices 1 2 3 4 5 6 
#
# 1 0.014426 -0.002159 -0.005858 0.000002 -0.000005 -0.000005
# 2 -0.002159 0.009591 -0.006896 0.000001 0.000000 -0.000001
# 3 -0.005858 -0.006896 0.026570 -0.000004 0.000008 0.000004
# 4 0.000002 0.000001 -0.000004 0.016933 0.000002 -0.000001
# 5 -0.000005 0.000000 0.000008 0.000002 0.029131 -0.000001
# 6 -0.000005 -0.000001 0.000004 -0.000001 -0.000001 0.042949
#
#
# Mechanical properties :
#
#
# Convention : Reuss Voigt Hill
#
# Bulk Modulus (GPa) = 48.17034 58.87500 53.52267
# Shear Modulus (GPa) = 28.35328 34.87360 31.61344
#
# Velocity S-wave (km/s) = 3.28893 3.64755 3.47287
# Velocity P-wave (km/s) = 5.72715 6.34042 6.04157
#
# Compressibility (1/GPa) = 0.02075966
#
# Stress axis : x y z
#
# Youngs Moduli (GPa) = 69.31918 104.26668 37.63686
#
# Poissons Ratio (x) = 0.22512 0.22049
# Poissons Ratio (y) = 0.14967 0.25955
# Poissons Ratio (z) = 0.40609 0.71903
#
# Static dielectric constant tensor:
#      x y z
#    x 2.100740 0.000010 0.000010 
#    y 0.000010 2.180050 0.000000 
#    z 0.000010 0.000000 2.058230 
# 
# From -- ./inp_files/4230.got.cif
#   From: 2010.05.17/outbox.cif.g08.bks.cpg/sg43_3_cif.got.tgz:4230.got - 2010.06.03 19:21:55.
