data_PCOD9370180
_publ_section_title
;
Structure prediction by ZEFSAII (Michael W. Deem and Ramdas Pophale) SiO2 
 PCOD9370180
Probable space group: F D D 2
;
_chemical_formula_sum "Si O2"
_cell_formula_units_Z 120
_cell_length_a 21.042300
_cell_length_b 13.633251
_cell_length_c 18.339806
_cell_angle_alpha 90.000000
_cell_angle_beta 90.000000
_cell_angle_gamma 90.000000
_cell_volume 5261.231067
_symmetry_space_group_name_H-M "F D D 2"
_symmetry_group_IT_number 43
_symmetry_cell_setting 'orthorhombic'
loop_
_space_group_symop_operation_xyz
x,y,z
-x,-y,z
1/4-x,1/4+y,1/4+z
1/4+x,1/4-y,1/4+z
x,1/2+y,1/2+z
-x,1/2-y,1/2+z
1/4-x,3/4+y,3/4+z
1/4+x,3/4-y,3/4+z
1/2+x,y,1/2+z
1/2-x,-y,1/2+z
3/4-x,1/4+y,3/4+z
3/4+x,1/4-y,3/4+z
1/2+x,1/2+y,z
1/2-x,1/2-y,z
3/4-x,3/4+y,1/4+z
3/4+x,3/4-y,1/4+z
loop_
_atom_site_type_symbol
_atom_site_label
_atom_site_fract_x
_atom_site_fract_y
_atom_site_fract_z
Si Si1 0.621602 0.871521 0.881360
Si Si2 0.637238 0.905873 0.673906
Si Si3 0.245994 0.893436 0.278361
Si Si4 0.250000 0.750000 0.083052
Si Si5 0.625230 0.719328 0.770711
Si Si6 0.945570 0.902668 0.200843
Si Si7 0.100573 0.461504 0.513058
Si Si8 0.225707 0.888034 0.795070
O O1 0.685120 0.893021 0.833138
O O2 0.601385 0.764925 0.847834
O O3 0.564165 0.952828 0.870190
O O4 0.642701 0.880090 0.966013
O O5 0.710886 0.898475 0.699296
O O6 0.610513 0.811614 0.716615
O O7 0.626285 0.913521 0.588064
O O8 0.602920 0.005148 0.700762
O O9 0.300593 0.811208 0.284312
O O10 0.279278 0.997487 0.289183
O O11 0.266546 0.664837 0.024689
O O12 0.901897 0.807559 0.202070
O O13 0.987503 0.895425 0.128931
O O14 0.085029 0.574556 0.523747
O O15 0.035199 0.403294 0.499688
#
# Coordination Sequence:
#
# PCOD9370180 Si02
#       8
#    16  16  16   8  16  16  16  16
#     4  11  25  38  64 100 137 169 225 293 357 419
#     4  10  18  34  56  86 121 153 198 261 330 386
#     4  11  22  41  60  87 132 177 217 269 342 421
#     4  12  20  32  60  98 130 158 206 284 344 392
#     4  11  24  42  63  95 135 179 220 280 356 427
#     4  11  20  33  57  89 122 153 200 268 334 382
#     4  10  20  36  58  88 124 151 208 269 322 391
#     4  10  21  36  59  85 116 171 207 260 325 396
#
# _framework density 22.808349
#
# number of rings (size 3 to 8) (size 9 to 14) (size 15 to 20)
#    0.000    1.333    4.000    4.800    7.467    0.000 
#    2.400    0.000    0.000    0.000    0.000    0.000 
#    0.000    0.000    0.000    0.000    0.000    0.000 
#
# Total GULP energy -167022.343615 kJ/mol
# GULP energy per Si atom -5567.411454 kJ/mol
# Density = 2.275644 g / cm^3
# Si number density = 22.808349 Si / 1000 Ang^3
#
#
#
# Elastic Constant Matrix: (Units=GPa)
#
#
# Indices 1 2 3 4 5 6 
#
# 1 88.4287 34.2480 14.9352 0.0000 0.0000 0.0000
# 2 34.2480 73.9311 13.6654 0.0000 0.0000 0.0000
# 3 14.9352 13.6654 40.6772 0.0000 0.0000 0.0000
# 4 0.0000 0.0000 0.0000 23.5715 0.0000 0.0000
# 5 0.0000 0.0000 0.0000 0.0000 24.1114 0.0000
# 6 0.0000 0.0000 0.0000 0.0000 0.0000 47.2589
#
#
#
# Elastic Compliance Matrix: (Units=1/GPa)
#
#
# Indices 1 2 3 4 5 6 
#
# 1 0.014160 -0.005969 -0.003194 0.000000 0.000000 0.000000
# 2 -0.005969 0.016938 -0.003499 0.000000 0.000000 0.000000
# 3 -0.003194 -0.003499 0.026932 0.000000 0.000000 0.000000
# 4 0.000000 0.000000 0.000000 0.042424 0.000000 0.000000
# 5 0.000000 0.000000 0.000000 0.000000 0.041474 0.000000
# 6 0.000000 0.000000 0.000000 0.000000 0.000000 0.021160
#
#
# Mechanical properties :
#
#
# Convention : Reuss Voigt Hill
#
# Bulk Modulus (GPa) = 30.57473 36.52599 33.55036
# Shear Modulus (GPa) = 25.08621 28.33425 26.71023
#
# Velocity S-wave (km/s) = 3.32003 3.52842 3.42581
# Velocity P-wave (km/s) = 5.30386 5.71390 5.51270
#
# Compressibility (1/GPa) = 0.03270675
#
# Stress axis : x y z
#
# Youngs Moduli (GPa) = 70.62286 59.03915 37.13089
#
# Poissons Ratio (x) = 0.35241 0.11858
# Poissons Ratio (y) = 0.42155 0.12991
# Poissons Ratio (z) = 0.22554 0.20656
#
# Static dielectric constant tensor:
#      x y z
#    x 1.929230 0.000000 0.000000 
#    y 0.000000 1.879530 0.000000 
#    z 0.000000 0.000000 1.914040 
# 
# From -- ./inp_files/18390.got.cif
#   From: 2010.05.17/outbox.cif.g08.bks.cpg/sg43_10_cif.got.tgz:18390.got - 2010.06.03 19:21:55.
