data_PCOD9370262
_publ_section_title
;
Structure prediction by ZEFSAII (Michael W. Deem and Ramdas Pophale) SiO2 
 PCOD9370262
Probable space group: F D D 2
;
_chemical_formula_sum "Si O2"
_cell_formula_units_Z 112
_cell_length_a 12.204268
_cell_length_b 13.803846
_cell_length_c 32.076727
_cell_angle_alpha 90.000000
_cell_angle_beta 90.000000
_cell_angle_gamma 90.000000
_cell_volume 5403.832631
_symmetry_space_group_name_H-M "F D D 2"
_symmetry_group_IT_number 43
_symmetry_cell_setting 'orthorhombic'
loop_
_space_group_symop_operation_xyz
x,y,z
-x,-y,z
1/4-x,1/4+y,1/4+z
1/4+x,1/4-y,1/4+z
x,1/2+y,1/2+z
-x,1/2-y,1/2+z
1/4-x,3/4+y,3/4+z
1/4+x,3/4-y,3/4+z
1/2+x,y,1/2+z
1/2-x,-y,1/2+z
3/4-x,1/4+y,3/4+z
3/4+x,1/4-y,3/4+z
1/2+x,1/2+y,z
1/2-x,1/2-y,z
3/4-x,3/4+y,1/4+z
3/4+x,3/4-y,1/4+z
loop_
_atom_site_type_symbol
_atom_site_label
_atom_site_fract_x
_atom_site_fract_y
_atom_site_fract_z
Si Si1 0.673296 0.661109 0.370520
Si Si2 0.114811 0.554701 0.315406
Si Si3 0.372778 0.730204 0.284941
Si Si4 0.739122 0.033574 0.402360
Si Si5 0.256344 0.609673 0.777933
Si Si6 0.441684 0.106675 0.861998
Si Si7 0.660203 0.485692 0.988425
O O1 0.750000 0.750000 0.380559
O O2 0.709580 0.573360 0.399539
O O3 0.700458 0.631134 0.322665
O O4 0.543380 0.675609 0.373024
O O5 0.099555 0.666521 0.305520
O O6 0.166741 0.546395 0.361190
O O7 0.193802 0.497236 0.282804
O O8 0.000000 0.500000 0.314498
O O9 0.250000 0.750000 0.268980
O O10 0.384438 0.646884 0.320073
O O11 0.466630 0.711206 0.251530
O O12 0.846207 0.100904 0.396456
O O13 0.667814 0.036772 0.443740
O O14 0.166540 0.640953 0.743516
O O15 0.354647 0.685838 0.769523
O O16 0.500000 0.000000 0.856330
#
# Coordination Sequence:
#
# PCOD9370262 Si02
#       7
#    16  16  16  16  16  16  16
#     4  10  18  38  69  92 117 179 232 271 314 419
#     4  11  23  41  63  98 127 177 227 275 325 420
#     4  12  23  39  66  96 128 172 229 270 340 408
#     4  10  24  39  62  95 137 168 222 280 352 386
#     4  10  20  39  67  89 128 173 228 267 326 396
#     4  10  21  41  64  93 131 177 219 274 337 414
#     4  11  22  41  63  98 129 177 219 286 338 402
#
# _framework density 20.726030999999999
#
# number of rings (size 3 to 8) (size 9 to 14) (size 15 to 20)
#    0.000    1.429    5.714    0.000    4.000    1.714 
#    0.000    6.429    0.000    0.000    0.000    0.000 
#    0.000    0.000    0.000    0.000    0.000    0.000 
#
# Total GULP energy -156193.167913 kJ/mol
# GULP energy per Si atom -5578.327425 kJ/mol
# Density = 2.067886 g / cm^3
# Si number density = 20.726031 Si / 1000 Ang^3
#
#
#
# Elastic Constant Matrix: (Units=GPa)
#
#
# Indices 1 2 3 4 5 6 
#
# 1 147.4850 23.8112 27.7540 0.0000 0.0000 0.0000
# 2 23.8112 50.1387 14.2400 0.0000 0.0000 0.0000
# 3 27.7540 14.2400 59.8098 0.0000 0.0000 0.0000
# 4 0.0000 0.0000 0.0000 14.8331 0.0000 0.0000
# 5 0.0000 0.0000 0.0000 0.0000 21.0322 0.0000
# 6 0.0000 0.0000 0.0000 0.0000 0.0000 37.1077
#
#
#
# Elastic Compliance Matrix: (Units=1/GPa)
#
#
# Indices 1 2 3 4 5 6 
#
# 1 0.007796 -0.002869 -0.002934 0.000000 0.000000 0.000000
# 2 -0.002869 0.022447 -0.004013 0.000000 0.000000 0.000000
# 3 -0.002934 -0.004013 0.019037 0.000000 0.000000 0.000000
# 4 0.000000 0.000000 0.000000 0.067417 0.000000 0.000000
# 5 0.000000 0.000000 0.000000 0.000000 0.047546 0.000000
# 6 0.000000 0.000000 0.000000 0.000000 0.000000 0.026949
#
#
# Mechanical properties :
#
#
# Convention : Reuss Voigt Hill
#
# Bulk Modulus (GPa) = 33.73064 43.22711 38.47887
# Shear Modulus (GPa) = 22.65459 27.36984 25.01221
#
# Velocity S-wave (km/s) = 3.30972 3.63788 3.47767
# Velocity P-wave (km/s) = 5.56017 6.20865 5.89334
#
# Compressibility (1/GPa) = 0.02964663
#
# Stress axis : x y z
#
# Youngs Moduli (GPa) = 128.27544 44.54970 52.52974
#
# Poissons Ratio (x) = 0.12780 0.15415
# Poissons Ratio (y) = 0.36800 0.21081
# Poissons Ratio (z) = 0.37642 0.17878
#
# Static dielectric constant tensor:
#      x y z
#    x 1.800370 0.000000 0.000000 
#    y 0.000000 1.773660 0.000000 
#    z 0.000000 0.000000 1.722720 
# 
# From -- ./inp_files/28607.got.cif
#   From: 2010.05.17/outbox.cif.g08.bks.cpg/sg43_15_cif.got.tgz:28607.got - 2010.06.03 19:21:55.
