data_PCOD9370604
_publ_section_title
;
Structure prediction by ZEFSAII (Michael W. Deem and Ramdas Pophale) SiO2 
 PCOD9370604
Probable space group: F D D 2
;
_chemical_formula_sum "Si O2"
_cell_formula_units_Z 96
_cell_length_a 22.753293
_cell_length_b 14.796256
_cell_length_c 12.504497
_cell_angle_alpha 90.000000
_cell_angle_beta 90.000000
_cell_angle_gamma 90.000000
_cell_volume 4209.808327
_symmetry_space_group_name_H-M "F D D 2"
_symmetry_group_IT_number 43
_symmetry_cell_setting 'orthorhombic'
loop_
_space_group_symop_operation_xyz
x,y,z
-x,-y,z
1/4-x,1/4+y,1/4+z
1/4+x,1/4-y,1/4+z
x,1/2+y,1/2+z
-x,1/2-y,1/2+z
1/4-x,3/4+y,3/4+z
1/4+x,3/4-y,3/4+z
1/2+x,y,1/2+z
1/2-x,-y,1/2+z
3/4-x,1/4+y,3/4+z
3/4+x,1/4-y,3/4+z
1/2+x,1/2+y,z
1/2-x,1/2-y,z
3/4-x,3/4+y,1/4+z
3/4+x,3/4-y,1/4+z
loop_
_atom_site_type_symbol
_atom_site_label
_atom_site_fract_x
_atom_site_fract_y
_atom_site_fract_z
Si Si1 0.440942 0.446082 0.629840
Si Si2 0.366465 0.986604 0.584004
Si Si3 0.702100 0.171473 0.966437
Si Si4 0.909228 0.583143 0.940274
Si Si5 0.693556 0.937458 0.391229
Si Si6 0.487586 0.794109 0.984790
O O1 0.500000 0.500000 0.666446
O O2 0.389597 0.411167 0.708706
O O3 0.412583 0.506196 0.531770
O O4 0.462455 0.349942 0.584729
O O5 0.401991 0.897908 0.617646
O O6 0.411031 0.068992 0.611870
O O7 0.343116 0.992750 0.463346
O O8 0.310080 0.002079 0.658245
O O9 0.750000 0.250000 0.967971
O O10 0.657978 0.192711 0.064810
O O11 0.745245 0.086126 0.953751
O O12 0.973894 0.626972 0.932886
O O13 0.716644 0.972423 0.278824
#
# Coordination Sequence:
#
# PCOD9370604 Si02
#       6
#    16  16  16  16  16  16
#     4  10  24  39  65 100 131 167 225 280 338 399
#     4  11  23  41  67  96 137 175 231 286 344 422
#     4  10  20  36  64  95 128 169 231 282 337 399
#     4  11  22  39  65  95 131 170 224 284 336 400
#     4  11  25  40  64 101 135 182 223 287 355 412
#     4  11  23  41  65  95 133 173 234 281 343 416
#
# _framework density 22.803889000000002
#
# number of rings (size 3 to 8) (size 9 to 14) (size 15 to 20)
#    0.000    1.333    3.333    2.500    4.667    2.667 
#    0.000    0.000    0.000    3.000    0.000    0.000 
#    0.000    0.000    0.000    0.000    0.000    0.000 
#
# Total GULP energy -133722.200618 kJ/mol
# GULP energy per Si atom -5571.758359 kJ/mol
# Density = 2.275199 g / cm^3
# Si number density = 22.803889 Si / 1000 Ang^3
#
#
#
# Elastic Constant Matrix: (Units=GPa)
#
#
# Indices 1 2 3 4 5 6 
#
# 1 114.3162 32.4926 14.7944 0.0000 0.0000 0.0000
# 2 32.4926 69.9860 15.3920 0.0000 0.0000 0.0000
# 3 14.7944 15.3920 25.4742 0.0000 0.0000 0.0000
# 4 0.0000 0.0000 0.0000 18.4553 0.0000 0.0000
# 5 0.0000 0.0000 0.0000 0.0000 30.8108 0.0000
# 6 0.0000 0.0000 0.0000 0.0000 0.0000 38.4898
#
#
#
# Elastic Compliance Matrix: (Units=1/GPa)
#
#
# Indices 1 2 3 4 5 6 
#
# 1 0.010354 -0.004019 -0.003585 0.000000 0.000000 0.000000
# 2 -0.004019 0.018038 -0.008565 0.000000 0.000000 0.000000
# 3 -0.003585 -0.008565 0.046513 0.000000 0.000000 0.000000
# 4 0.000000 0.000000 0.000000 0.054185 0.000000 0.000000
# 5 0.000000 0.000000 0.000000 0.000000 0.032456 0.000000
# 6 0.000000 0.000000 0.000000 0.000000 0.000000 0.025981
#
#
# Mechanical properties :
#
#
# Convention : Reuss Voigt Hill
#
# Bulk Modulus (GPa) = 23.49233 37.23719 30.36476
# Shear Modulus (GPa) = 21.36271 27.35769 24.36020
#
# Velocity S-wave (km/s) = 3.06404 3.46742 3.27195
# Velocity P-wave (km/s) = 4.77934 5.69170 5.25535
#
# Compressibility (1/GPa) = 0.04256708
#
# Stress axis : x y z
#
# Youngs Moduli (GPa) = 96.58256 55.43851 21.49957
#
# Poissons Ratio (x) = 0.22278 0.07708
# Poissons Ratio (y) = 0.38812 0.18415
# Poissons Ratio (z) = 0.34625 0.47484
#
# Static dielectric constant tensor:
#      x y z
#    x 1.940180 0.000000 0.000000 
#    y 0.000000 1.894110 0.000000 
#    z 0.000000 0.000000 2.033050 
# 
# From -- ./inp_files/7518.got.cif
#   From: 2010.05.17/outbox.cif.g08.bks.cpg/sg43_4_cif.got.tgz:7518.got - 2010.06.03 19:21:55.
