data_PCOD9370036
_publ_section_title
;
Structure prediction by ZEFSAII (Michael W. Deem and Ramdas Pophale) SiO2 
 PCOD9370036
Probable space group: F D D 2
;
_chemical_formula_sum "Si O2"
_cell_formula_units_Z 96
_cell_length_a 7.148662
_cell_length_b 29.790464
_cell_length_c 16.334116
_cell_angle_alpha 90.000000
_cell_angle_beta 90.000000
_cell_angle_gamma 90.000000
_cell_volume 3478.545325
_symmetry_space_group_name_H-M "F D D 2"
_symmetry_group_IT_number 43
_symmetry_cell_setting 'orthorhombic'
loop_
_space_group_symop_operation_xyz
x,y,z
-x,-y,z
1/4-x,1/4+y,1/4+z
1/4+x,1/4-y,1/4+z
x,1/2+y,1/2+z
-x,1/2-y,1/2+z
1/4-x,3/4+y,3/4+z
1/4+x,3/4-y,3/4+z
1/2+x,y,1/2+z
1/2-x,-y,1/2+z
3/4-x,1/4+y,3/4+z
3/4+x,1/4-y,3/4+z
1/2+x,1/2+y,z
1/2-x,1/2-y,z
3/4-x,3/4+y,1/4+z
3/4+x,3/4-y,1/4+z
loop_
_atom_site_type_symbol
_atom_site_label
_atom_site_fract_x
_atom_site_fract_y
_atom_site_fract_z
Si Si1 0.796596 0.456015 0.479540
Si Si2 0.709926 0.455294 0.916130
Si Si3 0.942709 0.310887 0.952775
Si Si4 0.486308 0.717414 0.910611
Si Si5 0.146815 0.391934 0.260900
Si Si6 0.181173 0.609272 0.040180
O O1 0.729598 0.492206 0.410855
O O2 0.738807 0.477876 0.565764
O O3 0.772174 0.402290 0.495635
O O4 0.020863 0.457075 0.468948
O O5 0.641501 0.425593 0.838936
O O6 0.861276 0.426845 0.968187
O O7 0.728410 0.298472 0.926131
O O8 0.027777 0.261656 0.963018
O O9 0.034609 0.336237 0.876400
O O10 0.939175 0.345302 0.028775
O O11 0.609750 0.675337 0.934953
O O12 0.360731 0.376028 0.267249
#
# Coordination Sequence:
#
# PCOD9370036 Si02
#       6
#    16  16  16  16  16  16
#     4  10  16  26  44  65  96 122 150 196 242 286
#     4  10  16  25  41  68  97 121 153 191 244 284
#     4  10  16  25  40  65  91 122 147 189 235 282
#     4  10  17  27  41  64  99 121 153 193 238 278
#     4  10  18  26  40  67  98 126 151 192 245 284
#     4  10  15  24  40  62  97 121 146 184 243 284
#
# _framework density 27.597743999999999
#
# number of rings (size 3 to 8) (size 9 to 14) (size 15 to 20)
#    0.000    2.000    6.667    3.000    0.000    0.000 
#    0.000    0.000    0.000    0.000   13.000    0.000 
#    0.000    0.000    0.000    0.000    0.000    0.000 
#
# Total GULP energy -134011.656395 kJ/mol
# GULP energy per Si atom -5583.819016 kJ/mol
# Density = 2.753493 g / cm^3
# Si number density = 27.597744 Si / 1000 Ang^3
#
#
#
# Elastic Constant Matrix: (Units=GPa)
#
#
# Indices 1 2 3 4 5 6 
#
# 1 58.4913 66.6987 3.2526 0.0000 0.0000 0.0000
# 2 66.6987 264.5160 73.7514 0.0000 0.0000 0.0000
# 3 3.2526 73.7514 65.4054 0.0000 0.0000 0.0000
# 4 0.0000 0.0000 0.0000 52.0019 0.0000 0.0000
# 5 0.0000 0.0000 0.0000 0.0000 3.5030 0.0000
# 6 0.0000 0.0000 0.0000 0.0000 0.0000 28.0465
#
#
#
# Elastic Compliance Matrix: (Units=1/GPa)
#
#
# Indices 1 2 3 4 5 6 
#
# 1 0.027456 -0.009542 0.009395 0.000000 0.000000 0.000000
# 2 -0.009542 0.008831 -0.009483 0.000000 0.000000 0.000000
# 3 0.009395 -0.009483 0.025515 0.000000 0.000000 0.000000
# 4 0.000000 0.000000 0.000000 0.019230 0.000000 0.000000
# 5 0.000000 0.000000 0.000000 0.000000 0.285467 0.000000
# 6 0.000000 0.000000 0.000000 0.000000 0.000000 0.035655
#
#
# Mechanical properties :
#
#
# Convention : Reuss Voigt Hill
#
# Bulk Modulus (GPa) = 23.50730 75.09090 49.29910
# Shear Modulus (GPa) = 11.47856 33.02430 22.25143
#
# Velocity S-wave (km/s) = 2.04163 3.46299 2.84258
# Velocity P-wave (km/s) = 3.75420 6.57707 5.35499
#
# Compressibility (1/GPa) = 0.04253998
#
# Stress axis : x y z
#
# Youngs Moduli (GPa) = 36.42250 113.24205 39.19258
#
# Poissons Ratio (x) = 1.08060 -0.36820
# Poissons Ratio (y) = 0.34756 0.37166
# Poissons Ratio (z) = -0.34218 1.07387
#
# Static dielectric constant tensor:
#      x y z
#    x 2.152750 0.000000 0.000000 
#    y 0.000000 2.292520 0.000000 
#    z 0.000000 0.000000 2.274500 
# 
# From -- ./inp_files/10318.got.cif
#   From: 2010.05.17/outbox.cif.g08.bks.cpg/sg43_6_cif.got.tgz:10318.got - 2010.06.03 19:21:55.
