data_PCOD9370764
_publ_section_title
;
Structure prediction by ZEFSAII (Michael W. Deem and Ramdas Pophale) SiO2 
 PCOD9370764
Probable space group: F D D 2
;
_chemical_formula_sum "Si O2"
_cell_formula_units_Z 104
_cell_length_a 16.013011
_cell_length_b 12.624748
_cell_length_c 22.797939
_cell_angle_alpha 90.000000
_cell_angle_beta 90.000000
_cell_angle_gamma 90.000000
_cell_volume 4608.836560
_symmetry_space_group_name_H-M "F D D 2"
_symmetry_group_IT_number 43
_symmetry_cell_setting 'orthorhombic'
loop_
_space_group_symop_operation_xyz
x,y,z
-x,-y,z
1/4-x,1/4+y,1/4+z
1/4+x,1/4-y,1/4+z
x,1/2+y,1/2+z
-x,1/2-y,1/2+z
1/4-x,3/4+y,3/4+z
1/4+x,3/4-y,3/4+z
1/2+x,y,1/2+z
1/2-x,-y,1/2+z
3/4-x,1/4+y,3/4+z
3/4+x,1/4-y,3/4+z
1/2+x,1/2+y,z
1/2-x,1/2-y,z
3/4-x,3/4+y,1/4+z
3/4+x,3/4-y,1/4+z
loop_
_atom_site_type_symbol
_atom_site_label
_atom_site_fract_x
_atom_site_fract_y
_atom_site_fract_z
Si Si1 0.342740 0.701113 0.169490
Si Si2 0.393099 0.791528 0.457894
Si Si3 0.500000 0.000000 0.124672
Si Si4 0.673111 0.829211 0.542315
Si Si5 0.946539 0.675573 0.302383
Si Si6 0.575169 0.801288 0.425846
Si Si7 0.882286 0.599106 0.028704
O O1 0.250000 0.750000 0.165797
O O2 0.373730 0.712528 0.101664
O O3 0.340982 0.575266 0.178881
O O4 0.377614 0.760507 0.227014
O O5 0.325593 0.725820 0.419513
O O6 0.349862 0.884864 0.494261
O O7 0.476283 0.824364 0.425124
O O8 0.422892 0.703886 0.503151
O O9 0.445359 0.068210 0.079854
O O10 0.750000 0.750000 0.530303
O O11 0.616823 0.842317 0.484914
O O12 0.707266 0.947140 0.554829
O O13 0.896236 0.652930 0.362780
O O14 0.038928 0.626910 0.299968
#
# Coordination Sequence:
#
# PCOD9370764 Si02
#       7
#    16  16   8  16  16  16  16
#     4  10  20  39  69 100 126 163 228 290 336 397
#     4  12  25  44  66 102 138 180 229 285 351 415
#     4  12  24  40  70 100 136 184 232 280 358 414
#     4  10  24  45  70  99 134 180 227 286 345 415
#     4  11  25  44  65  97 140 178 228 279 339 426
#     4  11  23  46  68  95 137 178 225 282 347 412
#     4  12  22  41  69 101 132 175 229 293 345 399
#
# _framework density 22.565349000000001
#
# number of rings (size 3 to 8) (size 9 to 14) (size 15 to 20)
#    0.000    0.923    5.385    0.923    0.000    4.308 
#   11.077    0.000    0.000    0.000    0.000    0.000 
#    0.000    0.000    0.000    0.000    0.000    0.000 
#
# Total GULP energy -144934.968788 kJ/mol
# GULP energy per Si atom -5574.421876 kJ/mol
# Density = 2.251399 g / cm^3
# Si number density = 22.565349 Si / 1000 Ang^3
#
#
#
# Elastic Constant Matrix: (Units=GPa)
#
#
# Indices 1 2 3 4 5 6 
#
# 1 44.7888 -10.1180 21.0584 0.0000 0.0000 0.0000
# 2 -10.1180 28.7234 15.2213 0.0000 0.0000 0.0000
# 3 21.0584 15.2213 120.6751 0.0000 0.0000 0.0000
# 4 0.0000 0.0000 0.0000 -60.1283 0.0000 0.0000
# 5 0.0000 0.0000 0.0000 0.0000 35.4901 0.0000
# 6 0.0000 0.0000 0.0000 0.0000 0.0000 22.7263
#
#
#
# Elastic Compliance Matrix: (Units=1/GPa)
#
#
# Indices 1 2 3 4 5 6 
#
# 1 0.028550 0.013607 -0.006698 0.000000 0.000000 0.000000
# 2 0.013607 0.043793 -0.007898 0.000000 0.000000 0.000000
# 3 -0.006698 -0.007898 0.010452 0.000000 0.000000 0.000000
# 4 0.000000 0.000000 0.000000 -0.016631 0.000000 0.000000
# 5 0.000000 0.000000 0.000000 0.000000 0.028177 0.000000
# 6 0.000000 0.000000 0.000000 0.000000 0.000000 0.044002
#
#
# Mechanical properties :
#
#
# Convention : Reuss Voigt Hill
#
# Bulk Modulus (GPa) = 12.37385 27.39007 19.88196
# Shear Modulus (GPa) = 29.89324 10.81931 20.35627
#
# Velocity S-wave (km/s) = 3.64365 2.19205 3.00676
# Velocity P-wave (km/s) = 4.81633 4.30943 4.56991
#
# Compressibility (1/GPa) = 0.08081559
#
# Stress axis : x y z
#
# Youngs Moduli (GPa) = 35.02597 22.83444 95.67660
#
# Poissons Ratio (x) = -0.31070 0.64088
# Poissons Ratio (y) = -0.47659 0.75569
# Poissons Ratio (z) = 0.23462 0.18035
#
# Static dielectric constant tensor:
#      x y z
#    x 1.804540 0.000000 0.000000 
#    y 0.000000 1.831730 0.000000 
#    z 0.000000 0.000000 1.955270 
# 
# From -- ./inp_files/18011.got.cif
#   From: 2010.05.17/outbox.cif.g08.bks.cpg/sg43_10_cif.got.tgz:18011.got - 2010.06.03 19:21:55.
