data_PCOD9370197
_publ_section_title
;
Structure prediction by ZEFSAII (Michael W. Deem and Ramdas Pophale) SiO2 
 PCOD9370197
Probable space group: F D D 2
;
_chemical_formula_sum "Si O2"
_cell_formula_units_Z 120
_cell_length_a 22.193501
_cell_length_b 23.146337
_cell_length_c 12.936748
_cell_angle_alpha 90.000000
_cell_angle_beta 90.000000
_cell_angle_gamma 90.000000
_cell_volume 6645.584852
_symmetry_space_group_name_H-M "F D D 2"
_symmetry_group_IT_number 43
_symmetry_cell_setting 'orthorhombic'
loop_
_space_group_symop_operation_xyz
x,y,z
-x,-y,z
1/4-x,1/4+y,1/4+z
1/4+x,1/4-y,1/4+z
x,1/2+y,1/2+z
-x,1/2-y,1/2+z
1/4-x,3/4+y,3/4+z
1/4+x,3/4-y,3/4+z
1/2+x,y,1/2+z
1/2-x,-y,1/2+z
3/4-x,1/4+y,3/4+z
3/4+x,1/4-y,3/4+z
1/2+x,1/2+y,z
1/2-x,1/2-y,z
3/4-x,3/4+y,1/4+z
3/4+x,3/4-y,1/4+z
loop_
_atom_site_type_symbol
_atom_site_label
_atom_site_fract_x
_atom_site_fract_y
_atom_site_fract_z
Si Si1 0.158217 0.898269 0.475000
Si Si2 0.304396 0.154126 0.766622
Si Si3 0.219075 0.956706 0.817184
Si Si4 0.500000 0.000000 0.168659
Si Si5 0.416714 0.519968 0.865815
Si Si6 0.917840 0.217046 0.220588
Si Si7 0.044945 0.324601 0.944819
Si Si8 0.774460 0.651664 0.163514
O O1 0.170427 0.889333 0.353799
O O2 0.100840 0.857740 0.499093
O O3 0.210711 0.876365 0.551415
O O4 0.151000 0.966159 0.489277
O O5 0.270841 0.199909 0.841406
O O6 0.355984 0.183498 0.698458
O O7 0.258609 0.119747 0.696806
O O8 0.152949 0.963507 0.868582
O O9 0.276797 0.958407 0.892466
O O10 0.218301 0.898667 0.747544
O O11 0.222429 0.015153 0.749778
O O12 0.444361 0.013463 0.247918
O O13 0.432053 0.458297 0.919406
O O14 0.458372 0.569958 0.914058
O O15 0.937031 0.191516 0.330202
#
# Coordination Sequence:
#
# PCOD9370197 Si02
#       8
#    16  16  16   8  16  16  16  16
#     4  11  19  36  61  94 121 149 210 260 306 362
#     4  11  21  37  59  86 127 160 194 254 312 370
#     4  12  23  38  64  91 126 165 208 257 310 380
#     4  10  18  34  64  98 118 158 204 268 320 350
#     4  10  21  38  61  94 127 157 204 262 324 363
#     4  11  25  39  57  91 126 165 206 252 310 381
#     4  11  23  37  63  90 119 165 205 261 312 365
#     4  10  21  36  60  92 128 154 199 257 322 368
#
# _framework density 18.057100999999999
#
# number of rings (size 3 to 8) (size 9 to 14) (size 15 to 20)
#    0.000    1.333    6.667    1.600    1.867    2.133 
#    0.000    0.000    0.000    3.200    0.000    0.000 
#    0.000    0.000    0.000    0.000    0.000    0.000 
#
# Total GULP energy -167268.742918 kJ/mol
# GULP energy per Si atom -5575.624764 kJ/mol
# Density = 1.801600 g / cm^3
# Si number density = 18.057101 Si / 1000 Ang^3
#
#
#
# Elastic Constant Matrix: (Units=GPa)
#
#
# Indices 1 2 3 4 5 6 
#
# 1 86.1245 68.6131 30.7394 0.0000 0.0000 0.0000
# 2 68.6131 129.6694 40.9835 0.0000 0.0000 0.0000
# 3 30.7394 40.9835 40.0503 0.0000 0.0000 0.0000
# 4 0.0000 0.0000 0.0000 21.3973 0.0000 0.0000
# 5 0.0000 0.0000 0.0000 0.0000 26.6184 0.0000
# 6 0.0000 0.0000 0.0000 0.0000 0.0000 36.4620
#
#
#
# Elastic Compliance Matrix: (Units=1/GPa)
#
#
# Indices 1 2 3 4 5 6 
#
# 1 0.021370 -0.009051 -0.007140 0.000000 0.000000 0.000000
# 2 -0.009051 0.015232 -0.008640 0.000000 0.000000 0.000000
# 3 -0.007140 -0.008640 0.039290 0.000000 0.000000 0.000000
# 4 0.000000 0.000000 0.000000 0.046735 0.000000 0.000000
# 5 0.000000 0.000000 0.000000 0.000000 0.037568 0.000000
# 6 0.000000 0.000000 0.000000 0.000000 0.000000 0.027426
#
#
# Mechanical properties :
#
#
# Convention : Reuss Voigt Hill
#
# Bulk Modulus (GPa) = 38.12438 59.61290 48.86864
# Shear Modulus (GPa) = 20.32300 24.59611 22.45955
#
# Velocity S-wave (km/s) = 3.35846 3.69471 3.53059
# Velocity P-wave (km/s) = 6.01649 7.16145 6.61379
#
# Compressibility (1/GPa) = 0.02622994
#
# Stress axis : x y z
#
# Youngs Moduli (GPa) = 46.79377 65.65121 25.45177
#
# Poissons Ratio (x) = 0.59422 0.18173
# Poissons Ratio (y) = 0.42354 0.21990
# Poissons Ratio (z) = 0.33411 0.56722
#
# Static dielectric constant tensor:
#      x y z
#    x 1.666570 0.000000 0.000000 
#    y 0.000000 1.640560 0.000000 
#    z 0.000000 0.000000 1.600420 
# 
# From -- ./inp_files/7615.got.cif
#   From: 2010.05.17/outbox.cif.g08.bks.cpg/sg43_4_cif.got.tgz:7615.got - 2010.06.03 19:21:55.
