data_PCOD9370876
_publ_section_title
;
Structure prediction by ZEFSAII (Michael W. Deem and Ramdas Pophale) SiO2 
 PCOD9370876
Probable space group: F D D 2
;
_chemical_formula_sum "Si O2"
_cell_formula_units_Z 64
_cell_length_a 12.684649
_cell_length_b 15.748475
_cell_length_c 13.410132
_cell_angle_alpha 90.000000
_cell_angle_beta 90.000000
_cell_angle_gamma 90.000000
_cell_volume 2678.859968
_symmetry_space_group_name_H-M "F D D 2"
_symmetry_group_IT_number 43
_symmetry_cell_setting 'orthorhombic'
loop_
_space_group_symop_operation_xyz
x,y,z
-x,-y,z
1/4-x,1/4+y,1/4+z
1/4+x,1/4-y,1/4+z
x,1/2+y,1/2+z
-x,1/2-y,1/2+z
1/4-x,3/4+y,3/4+z
1/4+x,3/4-y,3/4+z
1/2+x,y,1/2+z
1/2-x,-y,1/2+z
3/4-x,1/4+y,3/4+z
3/4+x,1/4-y,3/4+z
1/2+x,1/2+y,z
1/2-x,1/2-y,z
3/4-x,3/4+y,1/4+z
3/4+x,3/4-y,1/4+z
loop_
_atom_site_type_symbol
_atom_site_label
_atom_site_fract_x
_atom_site_fract_y
_atom_site_fract_z
Si Si1 0.519887 0.638024 0.310720
Si Si2 0.608959 0.524843 0.772592
Si Si3 0.659201 0.986271 0.761596
Si Si4 0.615884 0.971691 0.042084
O O1 0.604246 0.578630 0.253948
O O2 0.421071 0.572605 0.323716
O O3 0.571122 0.683358 0.408300
O O4 0.458287 0.715421 0.259149
O O5 0.500000 0.500000 0.825532
O O6 0.725801 0.503948 0.809459
O O7 0.609219 0.482461 0.662743
O O8 0.607555 0.625999 0.768015
O O9 0.500000 0.000000 0.007363
#
# Coordination Sequence:
#
# PCOD9370876 Si02
#       4
#    16  16  16  16
#     4  10  22  43  72 108 145 184 257 305 367 440
#     4  10  22  43  65 100 140 188 238 294 365 435
#     4  10  22  43  73 110 142 197 247 309 369 453
#     4  10  20  41  67  96 133 191 239 284 357 445
#
# _framework density 23.89076
#
# number of rings (size 3 to 8) (size 9 to 14) (size 15 to 20)
#    0.000    2.000    2.500    0.000    0.000    8.000 
#   18.000    0.000    0.000    0.000    0.000    0.000 
#    0.000    0.000    0.000    0.000    0.000    0.000 
#
# Total GULP energy -89271.810276 kJ/mol
# GULP energy per Si atom -5579.488142 kJ/mol
# Density = 2.383638 g / cm^3
# Si number density = 23.890760 Si / 1000 Ang^3
#
#
#
# Elastic Constant Matrix: (Units=GPa)
#
#
# Indices 1 2 3 4 5 6 
#
# 1 218.9933 93.5271 31.5871 0.0000 0.0000 0.0000
# 2 93.5271 85.8116 14.2647 0.0000 0.0000 0.0000
# 3 31.5871 14.2647 90.6261 0.0000 0.0000 0.0000
# 4 0.0000 0.0000 0.0000 31.2051 0.0000 0.0000
# 5 0.0000 0.0000 0.0000 0.0000 15.8979 0.0000
# 6 0.0000 0.0000 0.0000 0.0000 0.0000 68.1369
#
#
#
# Elastic Compliance Matrix: (Units=1/GPa)
#
#
# Indices 1 2 3 4 5 6 
#
# 1 0.008761 -0.009284 -0.001592 0.000000 0.000000 0.000000
# 2 -0.009284 0.021805 -0.000196 0.000000 0.000000 0.000000
# 3 -0.001592 -0.000196 0.011620 0.000000 0.000000 0.000000
# 4 0.000000 0.000000 0.000000 0.032046 0.000000 0.000000
# 5 0.000000 0.000000 0.000000 0.000000 0.062901 0.000000
# 6 0.000000 0.000000 0.000000 0.000000 0.000000 0.014676
#
#
# Mechanical properties :
#
#
# Convention : Reuss Voigt Hill
#
# Bulk Modulus (GPa) = 49.89779 74.90988 62.40383
# Shear Modulus (GPa) = 27.68011 40.11814 33.89913
#
# Velocity S-wave (km/s) = 3.40753 4.10229 3.77094
# Velocity P-wave (km/s) = 6.03431 7.33905 6.71842
#
# Compressibility (1/GPa) = 0.02004097
#
# Stress axis : x y z
#
# Youngs Moduli (GPa) = 114.14193 45.86134 86.05702
#
# Poissons Ratio (x) = 0.42578 0.13703
# Poissons Ratio (y) = 1.05970 0.01689
# Poissons Ratio (z) = 0.18174 0.00900
#
# Static dielectric constant tensor:
#      x y z
#    x 1.967700 0.000000 0.000000 
#    y 0.000000 1.910080 0.000000 
#    z 0.000000 0.000000 1.998730 
# 
# From -- ./inp_files/13715.got.cif
#   From: 2010.05.17/outbox.cif.g08.bks.cpg/sg43_7_cif.got.tgz:13715.got - 2010.06.03 19:21:55.
