data_PCOD9370093
_publ_section_title
;
Structure prediction by ZEFSAII (Michael W. Deem and Ramdas Pophale) SiO2 
 PCOD9370093
Probable space group: F D D 2
;
_chemical_formula_sum "Si O2"
_cell_formula_units_Z 104
_cell_length_a 8.778200
_cell_length_b 22.079244
_cell_length_c 24.752052
_cell_angle_alpha 90.000000
_cell_angle_beta 90.000000
_cell_angle_gamma 90.000000
_cell_volume 4797.344198
_symmetry_space_group_name_H-M "F D D 2"
_symmetry_group_IT_number 43
_symmetry_cell_setting 'orthorhombic'
loop_
_space_group_symop_operation_xyz
x,y,z
-x,-y,z
1/4-x,1/4+y,1/4+z
1/4+x,1/4-y,1/4+z
x,1/2+y,1/2+z
-x,1/2-y,1/2+z
1/4-x,3/4+y,3/4+z
1/4+x,3/4-y,3/4+z
1/2+x,y,1/2+z
1/2-x,-y,1/2+z
3/4-x,1/4+y,3/4+z
3/4+x,1/4-y,3/4+z
1/2+x,1/2+y,z
1/2-x,1/2-y,z
3/4-x,3/4+y,1/4+z
3/4+x,3/4-y,1/4+z
loop_
_atom_site_type_symbol
_atom_site_label
_atom_site_fract_x
_atom_site_fract_y
_atom_site_fract_z
Si Si1 0.305404 0.150429 0.908730
Si Si2 0.811734 0.959967 0.053170
Si Si3 0.411032 0.224205 0.007931
Si Si4 0.537003 0.825392 0.424518
Si Si5 0.682781 0.184343 0.082005
Si Si6 0.602571 0.905271 0.514997
Si Si7 0.750000 0.750000 0.824749
O O1 0.359519 0.174614 0.965135
O O2 0.124250 0.145282 0.908469
O O3 0.390471 0.091754 0.889775
O O4 0.336983 0.203578 0.864587
O O5 0.845800 0.952505 0.117994
O O6 0.919650 0.909289 0.026077
O O7 0.851109 0.025941 0.028473
O O8 0.628591 0.960255 0.045664
O O9 0.250000 0.250000 0.030601
O O10 0.498453 0.275081 0.970869
O O11 0.526527 0.193478 0.048919
O O12 0.630258 0.877667 0.455324
O O13 0.750000 0.250000 0.085327
O O14 0.802388 0.139219 0.053584
#
# Coordination Sequence:
#
# PCOD9370093 Si02
#       7
#    16  16  16  16  16  16   8
#     4  10  20  40  64  98 129 175 231 285 355 430
#     4  10  22  41  70  95 141 179 234 296 361 412
#     4  10  20  40  69  91 127 179 238 279 341 427
#     4  10  20  41  68  97 127 183 240 286 350 437
#     4  12  24  40  64 101 142 172 229 297 360 422
#     4  11  23  40  65 105 138 178 237 300 356 441
#     4  10  16  38  70  92 122 182 234 288 344 424
#
# _framework density 21.678660000000001
#
# number of rings (size 3 to 8) (size 9 to 14) (size 15 to 20)
#    0.000    1.538    6.923    0.000    0.000    8.615 
#    0.000    6.154    1.692    0.000    0.000    0.000 
#    0.000    0.000    0.000    0.000    0.000    0.000 
#
# Total GULP energy -145004.301433 kJ/mol
# GULP energy per Si atom -5577.088517 kJ/mol
# Density = 2.162932 g / cm^3
# Si number density = 21.678660 Si / 1000 Ang^3
#
#
#
# Elastic Constant Matrix: (Units=GPa)
#
#
# Indices 1 2 3 4 5 6 
#
# 1 83.5624 37.6387 20.1662 0.0000 0.0000 0.0000
# 2 37.6387 99.9549 32.7955 0.0000 0.0000 0.0000
# 3 20.1662 32.7955 37.9383 0.0000 0.0000 0.0000
# 4 0.0000 0.0000 0.0000 31.3092 0.0000 0.0000
# 5 0.0000 0.0000 0.0000 0.0000 20.7182 0.0000
# 6 0.0000 0.0000 0.0000 0.0000 0.0000 24.5218
#
#
#
# Elastic Compliance Matrix: (Units=1/GPa)
#
#
# Indices 1 2 3 4 5 6 
#
# 1 0.014894 -0.004203 -0.004284 0.000000 0.000000 0.000000
# 2 -0.004203 0.015152 -0.010864 0.000000 0.000000 0.000000
# 3 -0.004284 -0.010864 0.038026 0.000000 0.000000 0.000000
# 4 0.000000 0.000000 0.000000 0.031939 0.000000 0.000000
# 5 0.000000 0.000000 0.000000 0.000000 0.048267 0.000000
# 6 0.000000 0.000000 0.000000 0.000000 0.000000 0.040780
#
#
# Mechanical properties :
#
#
# Convention : Reuss Voigt Hill
#
# Bulk Modulus (GPa) = 34.04650 44.73960 39.39305
# Shear Modulus (GPa) = 21.04827 24.03352 22.54089
#
# Velocity S-wave (km/s) = 3.11934 3.33322 3.22805
# Velocity P-wave (km/s) = 5.35844 5.95787 5.66609
#
# Compressibility (1/GPa) = 0.02937159
#
# Stress axis : x y z
#
# Youngs Moduli (GPa) = 67.14102 66.00001 26.29747
#
# Poissons Ratio (x) = 0.27739 0.11265
# Poissons Ratio (y) = 0.28219 0.28568
# Poissons Ratio (z) = 0.28762 0.71699
#
# Static dielectric constant tensor:
#      x y z
#    x 1.883380 0.000000 0.000000 
#    y 0.000000 1.826940 0.000000 
#    z 0.000000 0.000000 1.809430 
# 
# From -- ./inp_files/24332.got.cif
#   From: 2010.05.17/outbox.cif.g08.bks.cpg/sg43_13_cif.got.tgz:24332.got - 2010.06.03 19:21:55.
