data_PCOD9370889
_publ_section_title
;
Structure prediction by ZEFSAII (Michael W. Deem and Ramdas Pophale) SiO2 
 PCOD9370889
Probable space group: F D D 2
;
_chemical_formula_sum "Si O2"
_cell_formula_units_Z 56
_cell_length_a 12.831714
_cell_length_b 6.719161
_cell_length_c 26.598484
_cell_angle_alpha 90.000000
_cell_angle_beta 90.000000
_cell_angle_gamma 90.000000
_cell_volume 2293.277463
_symmetry_space_group_name_H-M "F D D 2"
_symmetry_group_IT_number 43
_symmetry_cell_setting 'orthorhombic'
loop_
_space_group_symop_operation_xyz
x,y,z
-x,-y,z
1/4-x,1/4+y,1/4+z
1/4+x,1/4-y,1/4+z
x,1/2+y,1/2+z
-x,1/2-y,1/2+z
1/4-x,3/4+y,3/4+z
1/4+x,3/4-y,3/4+z
1/2+x,y,1/2+z
1/2-x,-y,1/2+z
3/4-x,1/4+y,3/4+z
3/4+x,1/4-y,3/4+z
1/2+x,1/2+y,z
1/2-x,1/2-y,z
3/4-x,3/4+y,1/4+z
3/4+x,3/4-y,1/4+z
loop_
_atom_site_type_symbol
_atom_site_label
_atom_site_fract_x
_atom_site_fract_y
_atom_site_fract_z
Si Si1 0.500000 0.500000 0.025450
Si Si2 0.105871 0.598459 0.166077
Si Si3 0.661313 0.531305 0.189583
Si Si4 0.135871 0.790170 0.589465
O O1 0.549319 0.679042 0.057420
O O2 0.591545 0.401838 0.991247
O O3 0.216394 0.533297 0.188893
O O4 0.098697 0.831264 0.178368
O O5 0.117685 0.517571 0.108053
O O6 0.000000 0.500000 0.185017
O O7 0.640055 0.673308 0.142657
O O8 0.250000 0.750000 0.566542
#
# Coordination Sequence:
#
# PCOD9370889 Si02
#       4
#     8  16  16  16
#     4  12  22  44  78 106 156 208 248 318 392 440
#     4  10  20  41  73  96 145 196 237 314 380 430
#     4  10  22  44  65 106 152 184 252 322 361 460
#     4  10  22  44  70 103 146 187 252 311 367 462
#
# _framework density 24.419201000000001
#
# number of rings (size 3 to 8) (size 9 to 14) (size 15 to 20)
#    0.000    1.714    4.286    1.714    0.000    1.143 
#   15.429    0.000   25.143    0.000    0.000    0.000 
#    0.000    0.000    0.000    0.000    0.000    0.000 
#
# Total GULP energy -78174.747512 kJ/mol
# GULP energy per Si atom -5583.910537 kJ/mol
# Density = 2.436362 g / cm^3
# Si number density = 24.419201 Si / 1000 Ang^3
#
#
#
# Elastic Constant Matrix: (Units=GPa)
#
#
# Indices 1 2 3 4 5 6 
#
# 1 109.1140 29.3337 19.8600 0.0000 0.0000 0.0000
# 2 29.3337 166.7511 51.3704 0.0000 0.0000 0.0000
# 3 19.8600 51.3704 102.8844 0.0000 0.0000 0.0000
# 4 0.0000 0.0000 0.0000 32.1483 0.0000 0.0000
# 5 0.0000 0.0000 0.0000 0.0000 27.5065 0.0000
# 6 0.0000 0.0000 0.0000 0.0000 0.0000 52.5558
#
#
#
# Elastic Compliance Matrix: (Units=1/GPa)
#
#
# Indices 1 2 3 4 5 6 
#
# 1 0.009746 -0.001341 -0.001212 0.000000 0.000000 0.000000
# 2 -0.001341 0.007272 -0.003372 0.000000 0.000000 0.000000
# 3 -0.001212 -0.003372 0.011637 0.000000 0.000000 0.000000
# 4 0.000000 0.000000 0.000000 0.031106 0.000000 0.000000
# 5 0.000000 0.000000 0.000000 0.000000 0.036355 0.000000
# 6 0.000000 0.000000 0.000000 0.000000 0.000000 0.019027
#
#
# Mechanical properties :
#
#
# Convention : Reuss Voigt Hill
#
# Bulk Modulus (GPa) = 59.50507 64.43086 61.96796
# Shear Modulus (GPa) = 37.70914 40.98782 39.34848
#
# Velocity S-wave (km/s) = 3.93395 4.10140 4.01855
# Velocity P-wave (km/s) = 6.71235 6.99080 6.85299
#
# Compressibility (1/GPa) = 0.01680529
#
# Stress axis : x y z
#
# Youngs Moduli (GPa) = 102.60824 137.52038 85.93204
#
# Poissons Ratio (x) = 0.18444 0.10412
# Poissons Ratio (y) = 0.13761 0.28975
# Poissons Ratio (z) = 0.12432 0.46370
#
# Static dielectric constant tensor:
#      x y z
#    x 2.001960 0.000000 0.000000 
#    y 0.000000 2.085630 0.000000 
#    z 0.000000 0.000000 1.949260 
# 
# From -- ./inp_files/17453.got.cif
#   From: 2010.05.17/outbox.cif.g08.bks.cpg/sg43_9_cif.got.tgz:17453.got - 2010.06.03 19:21:55.
