data_PCOD9370296
_publ_section_title
;
Structure prediction by ZEFSAII (Michael W. Deem and Ramdas Pophale) SiO2 
 PCOD9370296
Probable space group: F D D 2
;
_chemical_formula_sum "Si O2"
_cell_formula_units_Z 104
_cell_length_a 7.722732
_cell_length_b 19.823856
_cell_length_c 26.677922
_cell_angle_alpha 90.000000
_cell_angle_beta 90.000000
_cell_angle_gamma 90.000000
_cell_volume 4084.238517
_symmetry_space_group_name_H-M "F D D 2"
_symmetry_group_IT_number 43
_symmetry_cell_setting 'orthorhombic'
loop_
_space_group_symop_operation_xyz
x,y,z
-x,-y,z
1/4-x,1/4+y,1/4+z
1/4+x,1/4-y,1/4+z
x,1/2+y,1/2+z
-x,1/2-y,1/2+z
1/4-x,3/4+y,3/4+z
1/4+x,3/4-y,3/4+z
1/2+x,y,1/2+z
1/2-x,-y,1/2+z
3/4-x,1/4+y,3/4+z
3/4+x,1/4-y,3/4+z
1/2+x,1/2+y,z
1/2-x,1/2-y,z
3/4-x,3/4+y,1/4+z
3/4+x,3/4-y,1/4+z
loop_
_atom_site_type_symbol
_atom_site_label
_atom_site_fract_x
_atom_site_fract_y
_atom_site_fract_z
Si Si1 0.048890 0.213433 0.413780
Si Si2 0.920779 0.363299 0.222592
Si Si3 0.250000 0.250000 0.856116
Si Si4 0.818336 0.905690 0.355708
Si Si5 0.116656 0.870694 0.291266
Si Si6 0.444903 0.280021 0.208877
Si Si7 0.571426 0.707326 0.001209
O O1 0.182928 0.174283 0.376388
O O2 0.928655 0.148314 0.426898
O O3 0.920727 0.266542 0.387654
O O4 0.071137 0.252777 0.467370
O O5 0.799889 0.390293 0.267847
O O6 0.931670 0.283371 0.222506
O O7 0.115696 0.389177 0.224172
O O8 0.175356 0.307992 0.823167
O O9 0.752984 0.945984 0.403858
O O10 0.709812 0.932719 0.307876
O O11 0.007901 0.915981 0.329498
O O12 0.992175 0.841348 0.247169
O O13 0.250000 0.250000 0.211112
O O14 0.750000 0.750000 0.997403
#
# Coordination Sequence:
#
# PCOD9370296 Si02
#       7
#    16  16   8  16  16  16  16
#     4  10  21  43  73 103 145 192 252 305 374 460
#     4  11  21  46  74  98 144 197 244 317 376 443
#     4  10  18  42  72 100 134 192 248 292 382 444
#     4  11  25  46  73 112 151 200 255 311 394 457
#     4  11  23  44  73 107 148 191 255 314 375 459
#     4  12  25  46  72 109 153 193 253 317 381 469
#     4  10  22  47  74 104 154 199 251 310 385 462
#
# _framework density 25.463742
#
# number of rings (size 3 to 8) (size 9 to 14) (size 15 to 20)
#    0.000    1.231    5.385    1.385    0.000    0.000 
#   22.154    0.000   16.923    0.000    0.000    0.000 
#    0.000    0.000    0.000    0.000    0.000    0.000 
#
# Total GULP energy -144759.913662 kJ/mol
# GULP energy per Si atom -5567.688987 kJ/mol
# Density = 2.540579 g / cm^3
# Si number density = 25.463742 Si / 1000 Ang^3
#
#
#
# Elastic Constant Matrix: (Units=GPa)
#
#
# Indices 1 2 3 4 5 6 
#
# 1 131.9074 36.7758 23.2750 0.0000 0.0000 0.0000
# 2 36.7758 76.1743 22.5194 0.0000 0.0000 0.0000
# 3 23.2750 22.5194 137.4476 0.0000 0.0000 0.0000
# 4 0.0000 0.0000 0.0000 595.1711 0.0000 0.0000
# 5 0.0000 0.0000 0.0000 0.0000 51.0527 0.0000
# 6 0.0000 0.0000 0.0000 0.0000 0.0000 -24.1561
#
#
#
# Elastic Compliance Matrix: (Units=1/GPa)
#
#
# Indices 1 2 3 4 5 6 
#
# 1 0.008851 -0.004025 -0.000839 0.000000 0.000000 0.000000
# 2 -0.004025 0.015626 -0.001879 0.000000 0.000000 0.000000
# 3 -0.000839 -0.001879 0.007725 0.000000 0.000000 0.000000
# 4 0.000000 0.000000 0.000000 0.001680 0.000000 0.000000
# 5 0.000000 0.000000 0.000000 0.000000 0.019588 0.000000
# 6 0.000000 0.000000 0.000000 0.000000 0.000000 -0.041397
#
#
# Mechanical properties :
#
#
# Convention : Reuss Voigt Hill
#
# Bulk Modulus (GPa) = 53.42759 56.74107 55.08433
# Shear Modulus (GPa) = 157.23711 141.94413 149.59062
#
# Velocity S-wave (km/s) = 7.86660 7.47427 7.67294
# Velocity P-wave (km/s) = 10.17540 9.83960 10.00890
#
# Compressibility (1/GPa) = 0.01871692
#
# Stress axis : x y z
#
# Youngs Moduli (GPa) = 112.97645 63.99404 129.44253
#
# Poissons Ratio (x) = 0.25759 0.10865
# Poissons Ratio (y) = 0.45475 0.24317
# Poissons Ratio (z) = 0.09483 0.12022
#
# Static dielectric constant tensor:
#      x y z
#    x 2.142830 0.000000 0.000000 
#    y 0.000000 1.770760 0.000000 
#    z 0.000000 0.000000 2.140590 
# 
# From -- ./inp_files/28015.got.cif
#   From: 2010.05.17/outbox.cif.g08.bks.cpg/sg43_15_cif.got.tgz:28015.got - 2010.06.03 19:21:55.
