data_PCOD9370802
_publ_section_title
;
Structure prediction by ZEFSAII (Michael W. Deem and Ramdas Pophale) SiO2 
 PCOD9370802
Probable space group: F D D 2
;
_chemical_formula_sum "Si O2"
_cell_formula_units_Z 96
_cell_length_a 26.172067
_cell_length_b 9.744998
_cell_length_c 16.357275
_cell_angle_alpha 90.000000
_cell_angle_beta 90.000000
_cell_angle_gamma 90.000000
_cell_volume 4171.869673
_symmetry_space_group_name_H-M "F D D 2"
_symmetry_group_IT_number 43
_symmetry_cell_setting 'orthorhombic'
loop_
_space_group_symop_operation_xyz
x,y,z
-x,-y,z
1/4-x,1/4+y,1/4+z
1/4+x,1/4-y,1/4+z
x,1/2+y,1/2+z
-x,1/2-y,1/2+z
1/4-x,3/4+y,3/4+z
1/4+x,3/4-y,3/4+z
1/2+x,y,1/2+z
1/2-x,-y,1/2+z
3/4-x,1/4+y,3/4+z
3/4+x,1/4-y,3/4+z
1/2+x,1/2+y,z
1/2-x,1/2-y,z
3/4-x,3/4+y,1/4+z
3/4+x,3/4-y,1/4+z
loop_
_atom_site_type_symbol
_atom_site_label
_atom_site_fract_x
_atom_site_fract_y
_atom_site_fract_z
Si Si1 0.029736 0.716686 0.466310
Si Si2 0.576646 0.915329 0.469917
Si Si3 0.687937 0.861258 0.481545
Si Si4 0.692886 0.244697 0.163520
Si Si5 0.162100 0.092800 0.409131
Si Si6 0.501531 0.837619 0.144698
O O1 0.058930 0.572097 0.464107
O O2 0.060377 0.829107 0.412996
O O3 0.022946 0.774041 0.559130
O O4 0.971009 0.678489 0.441326
O O5 0.632597 0.884982 0.435857
O O6 0.589304 0.882707 0.564256
O O7 0.693740 0.821970 0.576885
O O8 0.698097 0.709553 0.445954
O O9 0.717508 0.000750 0.462281
O O10 0.750000 0.250000 0.201028
O O11 0.642566 0.315195 0.201934
O O12 0.192946 0.953151 0.408643
O O13 0.500000 0.000000 0.147108
#
# Coordination Sequence:
#
# PCOD9370802 Si02
#       6
#    16  16  16  16  16  16
#     4  10  20  40  64  97 129 167 226 269 320 384
#     4   9  20  38  67  93 127 175 214 268 324 396
#     4  11  22  41  66  91 132 171 215 263 342 385
#     4  11  23  37  64  93 131 165 210 268 328 385
#     4  10  21  41  63  92 126 177 215 259 330 391
#     4  11  23  39  68  96 125 171 228 270 306 394
#
# _framework density 23.011267
#
# number of rings (size 3 to 8) (size 9 to 14) (size 15 to 20)
#    0.000    1.667    1.667    3.000    2.333    2.667 
#    0.000    0.000   22.000    0.000    0.000    0.000 
#    0.000    0.000    0.000    0.000    0.000    0.000 
#
# Total GULP energy -133633.542382 kJ/mol
# GULP energy per Si atom -5568.064266 kJ/mol
# Density = 2.295889 g / cm^3
# Si number density = 23.011267 Si / 1000 Ang^3
#
#
#
# Elastic Constant Matrix: (Units=GPa)
#
#
# Indices 1 2 3 4 5 6 
#
# 1 77.8263 55.8117 19.3675 0.0000 0.0000 0.0000
# 2 55.8117 190.4283 32.2527 0.0000 0.0000 0.0000
# 3 19.3675 32.2527 37.5812 0.0000 0.0000 0.0000
# 4 0.0000 0.0000 0.0000 27.7442 0.0000 0.0000
# 5 0.0000 0.0000 0.0000 0.0000 -9.9661 0.0000
# 6 0.0000 0.0000 0.0000 0.0000 0.0000 -17.3461
#
#
#
# Elastic Compliance Matrix: (Units=1/GPa)
#
#
# Indices 1 2 3 4 5 6 
#
# 1 0.017121 -0.004123 -0.005285 0.000000 0.000000 0.000000
# 2 -0.004123 0.007137 -0.004001 0.000000 0.000000 0.000000
# 3 -0.005285 -0.004001 0.032766 0.000000 0.000000 0.000000
# 4 0.000000 0.000000 0.000000 0.036044 0.000000 0.000000
# 5 0.000000 0.000000 0.000000 0.000000 -0.100340 0.000000
# 6 0.000000 0.000000 0.000000 0.000000 0.000000 -0.057650
#
#
# Mechanical properties :
#
#
# Convention : Reuss Voigt Hill
#
# Bulk Modulus (GPa) = 33.10450 57.85550 45.48000
# Shear Modulus (GPa) = -178.33826 13.31334 -82.51246
#
# Velocity S-wave (km/s) = -8.81298 2.40793 -5.99460
# Velocity P-wave (km/s) = 9.44144 5.73826 5.30156
#
# Compressibility (1/GPa) = 0.03020737
#
# Stress axis : x y z
#
# Youngs Moduli (GPa) = 58.40819 140.11070 30.51937
#
# Poissons Ratio (x) = 0.57764 0.16130
# Poissons Ratio (y) = 0.24080 0.12210
# Poissons Ratio (z) = 0.30869 0.56053
#
# Static dielectric constant tensor:
#      x y z
#    x 2.822820 0.000000 0.000000 
#    y 0.000000 1.928170 0.000000 
#    z 0.000000 0.000000 1.900210 
# 
# From -- ./inp_files/16481.got.cif
#   From: 2010.05.17/outbox.cif.g08.bks.cpg/sg43_9_cif.got.tgz:16481.got - 2010.06.03 19:21:55.
