data_PCOD9370712
_publ_section_title
;
Structure prediction by ZEFSAII (Michael W. Deem and Ramdas Pophale) SiO2 
 PCOD9370712
Probable space group: F D D 2
;
_chemical_formula_sum "Si O2"
_cell_formula_units_Z 96
_cell_length_a 25.905135
_cell_length_b 25.905083
_cell_length_c 7.818290
_cell_angle_alpha 90.000000
_cell_angle_beta 90.000000
_cell_angle_gamma 90.000000
_cell_volume 5246.656400
_symmetry_space_group_name_H-M "F D D 2"
_symmetry_group_IT_number 43
_symmetry_cell_setting 'orthorhombic'
loop_
_space_group_symop_operation_xyz
x,y,z
-x,-y,z
1/4-x,1/4+y,1/4+z
1/4+x,1/4-y,1/4+z
x,1/2+y,1/2+z
-x,1/2-y,1/2+z
1/4-x,3/4+y,3/4+z
1/4+x,3/4-y,3/4+z
1/2+x,y,1/2+z
1/2-x,-y,1/2+z
3/4-x,1/4+y,3/4+z
3/4+x,1/4-y,3/4+z
1/2+x,1/2+y,z
1/2-x,1/2-y,z
3/4-x,3/4+y,1/4+z
3/4+x,3/4-y,1/4+z
loop_
_atom_site_type_symbol
_atom_site_label
_atom_site_fract_x
_atom_site_fract_y
_atom_site_fract_z
Si Si1 0.731500 0.062630 0.025920
Si Si2 0.750000 0.250000 0.327074
Si Si3 0.841122 0.908881 0.202073
Si Si4 0.437367 0.731504 0.628231
Si Si5 0.832393 0.790552 0.086437
Si Si6 0.000000 0.500000 0.577073
Si Si7 0.709452 0.332394 0.067711
O O1 0.703255 0.046740 0.202072
O O2 0.768716 0.110149 0.077284
O O3 0.693899 0.078324 0.868579
O O4 0.766020 0.016020 0.952077
O O5 0.794806 0.281323 0.425931
O O6 0.718677 0.294807 0.228219
O O7 0.833220 0.849655 0.144990
O O8 0.900349 0.916775 0.259155
O O9 0.828330 0.943903 0.035568
O O10 0.389850 0.768723 0.576869
O O11 0.802049 0.755358 0.222125
O O12 0.005357 0.552048 0.682023
#
# Coordination Sequence:
#
# PCOD9370712 Si02
#       7
#    16   8  16  16  16   8  16
#     4  12  25  43  66 101 138 178 224 280 340 409
#     4  10  24  42  68  98 132 174 224 282 326 396
#     4  12  24  42  70 100 132 176 230 274 340 410
#     4  12  25  43  66 101 138 178 224 280 340 409
#     4  11  22  42  66  97 129 174 222 275 336 395
#     4  10  20  38  68  86 128 166 216 266 324 386
#     4  11  22  42  66  97 129 174 222 275 336 395
#
# _framework density 18.297367000000001
#
# number of rings (size 3 to 8) (size 9 to 14) (size 15 to 20)
#    0.000    0.667    6.667    2.000    0.000    0.000 
#    0.000    1.667    0.000    0.000    0.000    0.000 
#    0.000    0.000    0.000    0.000    0.000    0.000 
#
# Total GULP energy -133814.957782 kJ/mol
# GULP energy per Si atom -5575.623241 kJ/mol
# Density = 1.825572 g / cm^3
# Si number density = 18.297367 Si / 1000 Ang^3
#
#
#
# Elastic Constant Matrix: (Units=GPa)
#
#
# Indices 1 2 3 4 5 6 
#
# 1 124.9496 52.9518 73.3841 0.0032 0.0072 -0.0004
# 2 52.9518 124.9617 73.3946 0.0059 0.0033 -0.0029
# 3 73.3841 73.3946 135.9400 0.0086 0.0097 -0.0017
# 4 0.0032 0.0059 0.0086 51.3593 -0.0026 -0.0036
# 5 0.0072 0.0033 0.0097 -0.0026 51.3538 -0.0028
# 6 -0.0004 -0.0029 -0.0017 -0.0036 -0.0028 42.3731
#
#
#
# Elastic Compliance Matrix: (Units=1/GPa)
#
#
# Indices 1 2 3 4 5 6 
#
# 1 0.012012 -0.001877 -0.005471 0.000000 -0.000001 0.000000
# 2 -0.001877 0.012012 -0.005472 0.000000 0.000001 0.000001
# 3 -0.005471 -0.005472 0.013264 -0.000001 -0.000001 0.000000
# 4 0.000000 0.000000 -0.000001 0.019471 0.000001 0.000002
# 5 -0.000001 0.000001 -0.000001 0.000001 0.019473 0.000001
# 6 0.000000 0.000001 0.000000 0.000002 0.000001 0.023600
#
#
# Mechanical properties :
#
#
# Convention : Reuss Voigt Hill
#
# Bulk Modulus (GPa) = 85.85252 87.25691 86.55471
# Shear Modulus (GPa) = 38.65399 41.42528 40.03964
#
# Velocity S-wave (km/s) = 4.60123 4.76332 4.68297
# Velocity P-wave (km/s) = 8.67473 8.83425 8.75485
#
# Compressibility (1/GPa) = 0.01164788
#
# Stress axis : x y z
#
# Youngs Moduli (GPa) = 83.25223 83.25294 75.39177
#
# Poissons Ratio (x) = 0.15622 0.41248
# Poissons Ratio (y) = 0.15622 0.41255
# Poissons Ratio (z) = 0.45548 0.45557
#
# Static dielectric constant tensor:
#      x y z
#    x 1.545710 0.000000 0.000000 
#    y 0.000000 1.545680 0.000000 
#    z 0.000000 0.000000 1.671680 
# 
# From -- ./inp_files/3325.got.cif
#   From: 2010.05.17/outbox.cif.g08.bks.cpg/sg43_2_cif.got.tgz:3325.got - 2010.06.03 19:21:55.
