data_PCOD9370930
_publ_section_title
;
Structure prediction by ZEFSAII (Michael W. Deem and Ramdas Pophale) SiO2 
 PCOD9370930
Probable space group: F D D 2
;
_chemical_formula_sum "Si O2"
_cell_formula_units_Z 96
_cell_length_a 19.577250
_cell_length_b 8.399382
_cell_length_c 22.592770
_cell_angle_alpha 90.000000
_cell_angle_beta 90.000000
_cell_angle_gamma 90.000000
_cell_volume 3715.082830
_symmetry_space_group_name_H-M "F D D 2"
_symmetry_group_IT_number 43
_symmetry_cell_setting 'orthorhombic'
loop_
_space_group_symop_operation_xyz
x,y,z
-x,-y,z
1/4-x,1/4+y,1/4+z
1/4+x,1/4-y,1/4+z
x,1/2+y,1/2+z
-x,1/2-y,1/2+z
1/4-x,3/4+y,3/4+z
1/4+x,3/4-y,3/4+z
1/2+x,y,1/2+z
1/2-x,-y,1/2+z
3/4-x,1/4+y,3/4+z
3/4+x,1/4-y,3/4+z
1/2+x,1/2+y,z
1/2-x,1/2-y,z
3/4-x,3/4+y,1/4+z
3/4+x,3/4-y,1/4+z
loop_
_atom_site_type_symbol
_atom_site_label
_atom_site_fract_x
_atom_site_fract_y
_atom_site_fract_z
Si Si1 0.394477 0.910773 0.453190
Si Si2 0.315884 0.360024 0.837690
Si Si3 0.720267 0.089851 0.884114
Si Si4 0.165668 0.392494 0.557598
Si Si5 0.103962 0.812544 0.243938
Si Si6 0.532248 0.255247 0.925714
O O1 0.347097 0.839440 0.402541
O O2 0.459685 0.793061 0.455742
O O3 0.351992 0.969824 0.510033
O O4 0.426009 0.078514 0.428738
O O5 0.250000 0.250000 0.828705
O O6 0.280470 0.530111 0.842165
O O7 0.373237 0.318255 0.790796
O O8 0.750000 0.250000 0.910042
O O9 0.654157 0.115651 0.844616
O O10 0.696044 0.999168 0.942914
O O11 0.174811 0.221006 0.526294
O O12 0.219663 0.447700 0.607504
O O13 0.172748 0.877492 0.211523
#
# Coordination Sequence:
#
# PCOD9370930 Si02
#       6
#    16  16  16  16  16  16
#     4  10  23  42  68 102 139 191 236 297 360 429
#     4  12  25  47  67 106 146 179 242 302 360 423
#     4  11  24  45  75 106 141 198 247 291 374 451
#     4  10  20  42  71 100 143 193 237 300 362 441
#     4  10  23  44  71  99 144 189 241 303 366 434
#     4   9  21  44  69 104 135 186 251 283 364 441
#
# _framework density 25.840609000000001
#
# number of rings (size 3 to 8) (size 9 to 14) (size 15 to 20)
#    0.000    1.667    1.667    3.000    4.667    4.000 
#   12.000    0.000    0.000    0.000    0.000    0.000 
#    0.000    0.000    0.000    0.000    0.000    0.000 
#
# Total GULP energy -134372.551185 kJ/mol
# GULP energy per Si atom -5598.856299 kJ/mol
# Density = 2.578179 g / cm^3
# Si number density = 25.840609 Si / 1000 Ang^3
#
#
#
# Elastic Constant Matrix: (Units=GPa)
#
#
# Indices 1 2 3 4 5 6 
#
# 1 87.1883 20.0909 51.3792 0.0000 0.0000 0.0000
# 2 20.0909 66.8199 43.7175 0.0000 0.0000 0.0000
# 3 51.3792 43.7175 198.0056 0.0000 0.0000 0.0000
# 4 0.0000 0.0000 0.0000 33.6836 0.0000 0.0000
# 5 0.0000 0.0000 0.0000 0.0000 39.9677 0.0000
# 6 0.0000 0.0000 0.0000 0.0000 0.0000 9.6930
#
#
#
# Elastic Compliance Matrix: (Units=1/GPa)
#
#
# Indices 1 2 3 4 5 6 
#
# 1 0.013790 -0.002110 -0.003112 0.000000 0.000000 0.000000
# 2 -0.002110 0.017815 -0.003386 0.000000 0.000000 0.000000
# 3 -0.003112 -0.003386 0.006606 0.000000 0.000000 0.000000
# 4 0.000000 0.000000 0.000000 0.029688 0.000000 0.000000
# 5 0.000000 0.000000 0.000000 0.000000 0.025020 0.000000
# 6 0.000000 0.000000 0.000000 0.000000 0.000000 0.103167
#
#
# Mechanical properties :
#
#
# Convention : Reuss Voigt Hill
#
# Bulk Modulus (GPa) = 47.63234 64.70986 56.17110
# Shear Modulus (GPa) = 22.69633 32.45730 27.57682
#
# Velocity S-wave (km/s) = 2.96686 3.54794 3.27033
# Velocity P-wave (km/s) = 5.49632 6.47148 6.00373
#
# Compressibility (1/GPa) = 0.02099414
#
# Stress axis : x y z
#
# Youngs Moduli (GPa) = 72.51796 56.13167 151.38795
#
# Poissons Ratio (x) = 0.11843 0.47117
# Poissons Ratio (y) = 0.15300 0.51259
# Poissons Ratio (z) = 0.22570 0.19006
#
# Static dielectric constant tensor:
#      x y z
#    x 1.969250 0.000000 0.000000 
#    y 0.000000 2.105790 0.000000 
#    z 0.000000 0.000000 2.015090 
# 
# From -- ./inp_files/22579.got.cif
#   From: 2010.05.17/outbox.cif.g08.bks.cpg/sg43_12_cif.got.tgz:22579.got - 2010.06.03 19:21:55.
