data_PCOD9370149
_publ_section_title
;
Structure prediction by ZEFSAII (Michael W. Deem and Ramdas Pophale) SiO2 
 PCOD9370149
Probable space group: F D D 2
;
_chemical_formula_sum "Si O2"
_cell_formula_units_Z 120
_cell_length_a 11.541215
_cell_length_b 26.441395
_cell_length_c 15.841546
_cell_angle_alpha 90.000000
_cell_angle_beta 90.000000
_cell_angle_gamma 90.000000
_cell_volume 4834.298448
_symmetry_space_group_name_H-M "F D D 2"
_symmetry_group_IT_number 43
_symmetry_cell_setting 'orthorhombic'
loop_
_space_group_symop_operation_xyz
x,y,z
-x,-y,z
1/4-x,1/4+y,1/4+z
1/4+x,1/4-y,1/4+z
x,1/2+y,1/2+z
-x,1/2-y,1/2+z
1/4-x,3/4+y,3/4+z
1/4+x,3/4-y,3/4+z
1/2+x,y,1/2+z
1/2-x,-y,1/2+z
3/4-x,1/4+y,3/4+z
3/4+x,1/4-y,3/4+z
1/2+x,1/2+y,z
1/2-x,1/2-y,z
3/4-x,3/4+y,1/4+z
3/4+x,3/4-y,1/4+z
loop_
_atom_site_type_symbol
_atom_site_label
_atom_site_fract_x
_atom_site_fract_y
_atom_site_fract_z
Si Si1 0.750000 0.250000 0.385401
Si Si2 0.995004 0.076255 0.262117
Si Si3 0.313226 0.575616 0.064639
Si Si4 0.742490 0.042547 0.810428
Si Si5 0.485024 0.283180 0.855464
Si Si6 0.387466 0.153344 0.958983
Si Si7 0.770719 0.063797 0.360009
Si Si8 0.560661 0.598438 0.083258
O O1 0.649346 0.222763 0.332495
O O2 0.687156 0.296273 0.435120
O O3 0.982080 0.137296 0.260664
O O4 0.107810 0.060197 0.315253
O O5 0.022973 0.065857 0.165746
O O6 0.882124 0.052372 0.300069
O O7 0.293903 0.516902 0.068945
O O8 0.259701 0.592966 0.156294
O O9 0.442578 0.588289 0.031852
O O10 0.764210 0.034188 0.709062
O O11 0.816443 0.091303 0.836537
O O12 0.770772 0.994145 0.868622
O O13 0.562274 0.327741 0.818240
O O14 0.323073 0.103305 0.926347
O O15 0.423652 0.156994 0.056051
#
# Coordination Sequence:
#
# PCOD9370149 Si02
#       8
#     8  16  16  16  16  16  16  16
#     4  10  20  42  56  82 112 164 218 262 318 408
#     4   9  18  30  55  86 128 154 199 268 332 380
#     4   9  16  31  55  84 115 155 195 259 320 391
#     4  10  19  33  57  89 122 161 205 262 328 401
#     4  10  19  35  58  81 113 160 208 253 322 395
#     4  10  21  36  62  83 121 163 218 264 327 393
#     4  11  19  38  58  92 122 169 214 268 331 396
#     4  10  18  31  54  89 118 148 199 261 325 386
#
# _framework density 24.822631000000001
#
# number of rings (size 3 to 8) (size 9 to 14) (size 15 to 20)
#    0.000    2.133    4.000    0.800    0.000    2.133 
#    2.400    4.000    0.000    0.000    3.467    0.000 
#    0.000    0.000    0.000    0.000    0.000    0.000 
#
# Total GULP energy -167215.443328 kJ/mol
# GULP energy per Si atom -5573.848111 kJ/mol
# Density = 2.476613 g / cm^3
# Si number density = 24.822631 Si / 1000 Ang^3
#
#
#
# Elastic Constant Matrix: (Units=GPa)
#
#
# Indices 1 2 3 4 5 6 
#
# 1 130.3597 69.1243 18.2824 0.0000 0.0000 0.0000
# 2 69.1243 191.0911 27.7304 0.0000 0.0000 0.0000
# 3 18.2824 27.7304 43.0472 0.0000 0.0000 0.0000
# 4 0.0000 0.0000 0.0000 20.1680 0.0000 0.0000
# 5 0.0000 0.0000 0.0000 0.0000 18.9608 0.0000
# 6 0.0000 0.0000 0.0000 0.0000 0.0000 45.6604
#
#
#
# Elastic Compliance Matrix: (Units=1/GPa)
#
#
# Indices 1 2 3 4 5 6 
#
# 1 0.009652 -0.003195 -0.002041 0.000000 0.000000 0.000000
# 2 -0.003195 0.006831 -0.003043 0.000000 0.000000 0.000000
# 3 -0.002041 -0.003043 0.026057 0.000000 0.000000 0.000000
# 4 0.000000 0.000000 0.000000 0.049584 0.000000 0.000000
# 5 0.000000 0.000000 0.000000 0.000000 0.052740 0.000000
# 6 0.000000 0.000000 0.000000 0.000000 0.000000 0.021901
#
#
# Mechanical properties :
#
#
# Convention : Reuss Voigt Hill
#
# Bulk Modulus (GPa) = 38.48920 66.08581 52.28751
# Shear Modulus (GPa) = 26.04400 33.58189 29.81295
#
# Velocity S-wave (km/s) = 3.24266 3.68213 3.46936
# Velocity P-wave (km/s) = 5.43683 6.69018 6.09580
#
# Compressibility (1/GPa) = 0.02598131
#
# Stress axis : x y z
#
# Youngs Moduli (GPa) = 103.61026 146.40191 38.37683
#
# Poissons Ratio (x) = 0.46778 0.07832
# Poissons Ratio (y) = 0.33105 0.11679
# Poissons Ratio (z) = 0.21145 0.44552
#
# Static dielectric constant tensor:
#      x y z
#    x 2.049080 0.000000 0.000000 
#    y 0.000000 2.010460 0.000000 
#    z 0.000000 0.000000 2.079390 
# 
# From -- ./inp_files/17273.got.cif
#   From: 2010.05.17/outbox.cif.g08.bks.cpg/sg43_9_cif.got.tgz:17273.got - 2010.06.03 19:21:55.
