data_PCOD9370691
_publ_section_title
;
Structure prediction by ZEFSAII (Michael W. Deem and Ramdas Pophale) SiO2 
 PCOD9370691
Probable space group: F D D 2
;
_chemical_formula_sum "Si O2"
_cell_formula_units_Z 120
_cell_length_a 25.128274
_cell_length_b 9.133349
_cell_length_c 27.496802
_cell_angle_alpha 90.000000
_cell_angle_beta 90.000000
_cell_angle_gamma 90.000000
_cell_volume 6310.661688
_symmetry_space_group_name_H-M "F D D 2"
_symmetry_group_IT_number 43
_symmetry_cell_setting 'orthorhombic'
loop_
_space_group_symop_operation_xyz
x,y,z
-x,-y,z
1/4-x,1/4+y,1/4+z
1/4+x,1/4-y,1/4+z
x,1/2+y,1/2+z
-x,1/2-y,1/2+z
1/4-x,3/4+y,3/4+z
1/4+x,3/4-y,3/4+z
1/2+x,y,1/2+z
1/2-x,-y,1/2+z
3/4-x,1/4+y,3/4+z
3/4+x,1/4-y,3/4+z
1/2+x,1/2+y,z
1/2-x,1/2-y,z
3/4-x,3/4+y,1/4+z
3/4+x,3/4-y,1/4+z
loop_
_atom_site_type_symbol
_atom_site_label
_atom_site_fract_x
_atom_site_fract_y
_atom_site_fract_z
Si Si1 0.665647 0.960894 0.707440
Si Si2 0.580034 0.297662 0.064728
Si Si3 0.007433 0.674204 0.637512
Si Si4 0.809325 0.187767 0.561196
Si Si5 0.080687 0.195004 0.705574
Si Si6 0.902440 0.168919 0.373737
Si Si7 0.370528 0.653138 0.863516
Si Si8 0.000000 0.500000 0.919161
O O1 0.617467 0.841479 0.708564
O O2 0.720137 0.870804 0.701345
O O3 0.666877 0.050400 0.757117
O O4 0.656716 0.058608 0.659815
O O5 0.520764 0.284019 0.086561
O O6 0.616273 0.164518 0.083989
O O7 0.600972 0.443350 0.091161
O O8 0.070303 0.690799 0.632445
O O9 0.000000 0.500000 0.647177
O O10 0.973826 0.761498 0.677792
O O11 0.750000 0.250000 0.566045
O O12 0.818348 0.117385 0.508389
O O13 0.848758 0.320784 0.571407
O O14 0.825570 0.068772 0.602009
O O15 0.115053 0.084125 0.671780
O O16 0.953825 0.071363 0.386798
#
# Coordination Sequence:
#
# PCOD9370691 Si02
#       8
#    16  16  16  16  16  16  16   8
#     4  11  20  38  67  94 123 171 220 257 317 386
#     4  10  20  39  67  96 120 167 220 259 315 392
#     4   9  18  39  65  93 125 158 214 267 306 378
#     4  12  27  41  59  98 136 164 209 270 330 373
#     4  10  21  41  66  94 125 167 220 263 310 396
#     4  10  21  42  65  87 130 170 214 264 316 382
#     4  11  23  43  63  96 134 164 211 271 325 380
#     4  10  20  38  64  92 124 170 220 264 302 388
#
# _framework density 19.015439000000001
#
# number of rings (size 3 to 8) (size 9 to 14) (size 15 to 20)
#    0.000    1.600    6.667    0.800    0.000    5.333 
#    1.200    6.000    0.000    0.000    0.000    0.000 
#    0.000    0.000    0.000    0.000    0.000    0.000 
#
# Total GULP energy -167400.696895 kJ/mol
# GULP energy per Si atom -5580.023230 kJ/mol
# Density = 1.897216 g / cm^3
# Si number density = 19.015439 Si / 1000 Ang^3
#
#
#
# Elastic Constant Matrix: (Units=GPa)
#
#
# Indices 1 2 3 4 5 6 
#
# 1 98.6575 18.4076 15.6772 0.0000 0.0000 0.0000
# 2 18.4076 41.8711 20.7223 0.0000 0.0000 0.0000
# 3 15.6772 20.7223 102.3012 0.0000 0.0000 0.0000
# 4 0.0000 0.0000 0.0000 34.0537 0.0000 0.0000
# 5 0.0000 0.0000 0.0000 0.0000 13.0873 0.0000
# 6 0.0000 0.0000 0.0000 0.0000 0.0000 28.2173
#
#
#
# Elastic Compliance Matrix: (Units=1/GPa)
#
#
# Indices 1 2 3 4 5 6 
#
# 1 0.011099 -0.004488 -0.000792 0.000000 0.000000 0.000000
# 2 -0.004488 0.028358 -0.005057 0.000000 0.000000 0.000000
# 3 -0.000792 -0.005057 0.010921 0.000000 0.000000 0.000000
# 4 0.000000 0.000000 0.000000 0.029365 0.000000 0.000000
# 5 0.000000 0.000000 0.000000 0.000000 0.076410 0.000000
# 6 0.000000 0.000000 0.000000 0.000000 0.000000 0.035439
#
#
# Mechanical properties :
#
#
# Convention : Reuss Voigt Hill
#
# Bulk Modulus (GPa) = 33.66322 39.16042 36.41182
# Shear Modulus (GPa) = 22.50562 27.60652 25.05607
#
# Velocity S-wave (km/s) = 3.44400 3.81438 3.63391
# Velocity P-wave (km/s) = 5.79279 6.32756 6.06607
#
# Compressibility (1/GPa) = 0.02970602
#
# Stress axis : x y z
#
# Youngs Moduli (GPa) = 90.09652 35.26312 91.56938
#
# Poissons Ratio (x) = 0.15825 0.07251
# Poissons Ratio (y) = 0.40431 0.46303
# Poissons Ratio (z) = 0.07135 0.17831
#
# Static dielectric constant tensor:
#      x y z
#    x 1.668880 0.000000 0.000000 
#    y 0.000000 1.687480 0.000000 
#    z 0.000000 0.000000 1.634000 
# 
# From -- ./inp_files/26600.got.cif
#   From: 2010.05.17/outbox.cif.g08.bks.cpg/sg43_14_cif.got.tgz:26600.got - 2010.06.03 19:21:55.
