data_PCOD9370110
_publ_section_title
;
Structure prediction by ZEFSAII (Michael W. Deem and Ramdas Pophale) SiO2 
 PCOD9370110
Probable space group: F D D 2
;
_chemical_formula_sum "Si O2"
_cell_formula_units_Z 88
_cell_length_a 8.626360
_cell_length_b 16.512269
_cell_length_c 23.077988
_cell_angle_alpha 90.000000
_cell_angle_beta 90.000000
_cell_angle_gamma 90.000000
_cell_volume 3287.246538
_symmetry_space_group_name_H-M "F D D 2"
_symmetry_group_IT_number 43
_symmetry_cell_setting 'orthorhombic'
loop_
_space_group_symop_operation_xyz
x,y,z
-x,-y,z
1/4-x,1/4+y,1/4+z
1/4+x,1/4-y,1/4+z
x,1/2+y,1/2+z
-x,1/2-y,1/2+z
1/4-x,3/4+y,3/4+z
1/4+x,3/4-y,3/4+z
1/2+x,y,1/2+z
1/2-x,-y,1/2+z
3/4-x,1/4+y,3/4+z
3/4+x,1/4-y,3/4+z
1/2+x,1/2+y,z
1/2-x,1/2-y,z
3/4-x,3/4+y,1/4+z
3/4+x,3/4-y,1/4+z
loop_
_atom_site_type_symbol
_atom_site_label
_atom_site_fract_x
_atom_site_fract_y
_atom_site_fract_z
Si Si1 0.006728 0.825039 0.754260
Si Si2 0.176020 0.131473 0.295898
Si Si3 0.166476 0.496043 0.693331
Si Si4 0.750000 0.750000 0.943164
Si Si5 0.428760 0.253869 0.638929
Si Si6 0.574141 0.110177 0.040441
O O1 0.022882 0.771069 0.696414
O O2 0.839947 0.814524 0.784308
O O3 0.165514 0.820975 0.788353
O O4 0.998779 0.919233 0.731998
O O5 0.166611 0.067850 0.241532
O O6 0.003070 0.168817 0.298019
O O7 0.203859 0.076807 0.352817
O O8 0.332905 0.500637 0.661818
O O9 0.167717 0.413887 0.731332
O O10 0.000000 0.500000 0.662337
O O11 0.250000 0.250000 0.657535
O O12 0.448245 0.327892 0.594254
#
# Coordination Sequence:
#
# PCOD9370110 Si02
#       6
#    16  16  16   8  16  16
#     4  10  17  30  55  80 114 161 209 257 319 381
#     4   8  15  29  47  75 112 147 196 258 307 376
#     4   7  10  19  37  59  88 126 166 219 278 329
#     4   8  14  22  40  70  96 130 190 234 278 356
#     4   9  18  33  54  84 123 162 213 266 326 387
#     4   8  15  29  47  71 107 151 192 251 308 364
#
# _framework density 26.770125
#
# number of rings (size 3 to 8) (size 9 to 14) (size 15 to 20)
#    0.000    3.636    0.000    3.273    0.000    0.000 
#    0.000    7.273    2.000    0.000    0.000    0.000 
#    0.000    0.000    0.000    0.000    0.000    0.000 
#
# Total GULP energy -123037.447189 kJ/mol
# GULP energy per Si atom -5592.611236 kJ/mol
# Density = 2.670920 g / cm^3
# Si number density = 26.770125 Si / 1000 Ang^3
#
#
#
# Elastic Constant Matrix: (Units=GPa)
#
#
# Indices 1 2 3 4 5 6 
#
# 1 362.5521 89.6407 81.2572 0.0000 0.0000 0.0000
# 2 89.6407 92.2917 45.4099 0.0000 0.0000 0.0000
# 3 81.2572 45.4099 130.8368 0.0000 0.0000 0.0000
# 4 0.0000 0.0000 0.0000 24.1548 0.0000 0.0000
# 5 0.0000 0.0000 0.0000 0.0000 13.8272 0.0000
# 6 0.0000 0.0000 0.0000 0.0000 0.0000 57.0731
#
#
#
# Elastic Compliance Matrix: (Units=1/GPa)
#
#
# Indices 1 2 3 4 5 6 
#
# 1 0.003806 -0.003055 -0.001303 0.000000 0.000000 0.000000
# 2 -0.003055 0.015519 -0.003489 0.000000 0.000000 0.000000
# 3 -0.001303 -0.003489 0.009663 0.000000 0.000000 0.000000
# 4 0.000000 0.000000 0.000000 0.041400 0.000000 0.000000
# 5 0.000000 0.000000 0.000000 0.000000 0.072321 0.000000
# 6 0.000000 0.000000 0.000000 0.000000 0.000000 0.017521
#
#
# Mechanical properties :
#
#
# Convention : Reuss Voigt Hill
#
# Bulk Modulus (GPa) = 75.22283 113.14402 94.18343
# Shear Modulus (GPa) = 27.72293 43.63588 35.67941
#
# Velocity S-wave (km/s) = 3.22155 4.04173 3.65472
# Velocity P-wave (km/s) = 6.48062 8.00859 7.28478
#
# Compressibility (1/GPa) = 0.01329384
#
# Stress axis : x y z
#
# Youngs Moduli (GPa) = 262.76431 64.43611 103.48377
#
# Poissons Ratio (x) = 0.19686 0.13486
# Poissons Ratio (y) = 0.80279 0.36104
# Poissons Ratio (z) = 0.34243 0.22481
#
# Static dielectric constant tensor:
#      x y z
#    x 2.045310 0.000000 0.000000 
#    y 0.000000 2.127710 0.000000 
#    z 0.000000 0.000000 1.988740 
# 
# From -- ./inp_files/28081.got.cif
#   From: 2010.05.17/outbox.cif.g08.bks.cpg/sg43_15_cif.got.tgz:28081.got - 2010.06.03 19:21:55.
