data_PCOD9370768
_publ_section_title
;
Structure prediction by ZEFSAII (Michael W. Deem and Ramdas Pophale) SiO2 
 PCOD9370768
Probable space group: F D D 2
;
_chemical_formula_sum "Si O2"
_cell_formula_units_Z 72
_cell_length_a 5.461221
_cell_length_b 20.053927
_cell_length_c 26.043462
_cell_angle_alpha 90.000000
_cell_angle_beta 90.000000
_cell_angle_gamma 90.000000
_cell_volume 2852.252021
_symmetry_space_group_name_H-M "F D D 2"
_symmetry_group_IT_number 43
_symmetry_cell_setting 'orthorhombic'
loop_
_space_group_symop_operation_xyz
x,y,z
-x,-y,z
1/4-x,1/4+y,1/4+z
1/4+x,1/4-y,1/4+z
x,1/2+y,1/2+z
-x,1/2-y,1/2+z
1/4-x,3/4+y,3/4+z
1/4+x,3/4-y,3/4+z
1/2+x,y,1/2+z
1/2-x,-y,1/2+z
3/4-x,1/4+y,3/4+z
3/4+x,1/4-y,3/4+z
1/2+x,1/2+y,z
1/2-x,1/2-y,z
3/4-x,3/4+y,1/4+z
3/4+x,3/4-y,1/4+z
loop_
_atom_site_type_symbol
_atom_site_label
_atom_site_fract_x
_atom_site_fract_y
_atom_site_fract_z
Si Si1 0.992410 0.357817 0.803250
Si Si2 0.251799 0.471852 0.695945
Si Si3 0.265173 0.574374 0.608364
Si Si4 0.250000 0.750000 0.107711
Si Si5 0.268592 0.588437 0.934302
O O1 0.253332 0.329512 0.821846
O O2 0.031263 0.435439 0.821064
O O3 0.948644 0.333765 0.744885
O O4 0.736023 0.337623 0.828889
O O5 0.500000 0.500000 0.722147
O O6 0.203845 0.394186 0.685258
O O7 0.000000 0.500000 0.719785
O O8 0.257867 0.506924 0.640608
O O9 0.247608 0.627304 0.655520
O O10 0.047968 0.775746 0.149070
#
# Coordination Sequence:
#
# PCOD9370768 Si02
#       5
#    16  16  16   8  16
#     4  11  25  45  74 103 140 195 234 287 386 411
#     4  10  20  39  70  96 136 175 228 293 337 413
#     4  10  23  45  70 103 142 181 241 298 343 447
#     4  10  24  48  68 104 148 176 240 304 342 444
#     4  10  24  46  71 105 144 188 233 304 359 427
#
# _framework density 25.243210999999999
#
# number of rings (size 3 to 8) (size 9 to 14) (size 15 to 20)
#    0.000    1.778    0.000    4.000    4.667   10.667 
#   22.000    0.000    0.000    0.000    0.000    0.000 
#    0.000    0.000    0.000    0.000    0.000    0.000 
#
# Total GULP energy -100375.728499 kJ/mol
# GULP energy per Si atom -5576.429361 kJ/mol
# Density = 2.518576 g / cm^3
# Si number density = 25.243211 Si / 1000 Ang^3
#
#
#
# Elastic Constant Matrix: (Units=GPa)
#
#
# Indices 1 2 3 4 5 6 
#
# 1 173.0992 7.3855 48.7421 0.0000 0.0000 0.0000
# 2 7.3855 74.1203 3.6893 0.0000 0.0000 0.0000
# 3 48.7421 3.6893 162.8912 0.0000 0.0000 0.0000
# 4 0.0000 0.0000 0.0000 15.7341 0.0000 0.0000
# 5 0.0000 0.0000 0.0000 0.0000 -4.5317 0.0000
# 6 0.0000 0.0000 0.0000 0.0000 0.0000 25.9406
#
#
#
# Elastic Compliance Matrix: (Units=1/GPa)
#
#
# Indices 1 2 3 4 5 6 
#
# 1 0.006330 -0.000537 -0.001882 0.000000 0.000000 0.000000
# 2 -0.000537 0.013552 -0.000146 0.000000 0.000000 0.000000
# 3 -0.001882 -0.000146 0.006706 0.000000 0.000000 0.000000
# 4 0.000000 0.000000 0.000000 0.063556 0.000000 0.000000
# 5 0.000000 0.000000 0.000000 0.000000 -0.220669 0.000000
# 6 0.000000 0.000000 0.000000 0.000000 0.000000 0.038550
#
#
# Mechanical properties :
#
#
# Convention : Reuss Voigt Hill
#
# Bulk Modulus (GPa) = 46.60417 58.86050 52.73234
# Shear Modulus (GPa) = -62.74090 30.78153 -15.97969
#
# Velocity S-wave (km/s) = -4.99084 3.49578 -2.51874
# Velocity P-wave (km/s) = 3.83526 6.29777 3.53219
#
# Compressibility (1/GPa) = 0.02145731
#
# Stress axis : x y z
#
# Youngs Moduli (GPa) = 157.98109 73.78780 149.13100
#
# Poissons Ratio (x) = 0.03963 0.28065
# Poissons Ratio (y) = 0.08484 0.02181
# Poissons Ratio (z) = 0.29731 0.01079
#
# Static dielectric constant tensor:
#      x y z
#    x 2.075650 0.000000 0.000000 
#    y 0.000000 2.139430 0.000000 
#    z 0.000000 0.000000 2.041050 
# 
# From -- ./inp_files/23496.got.cif
#   From: 2010.05.17/outbox.cif.g08.bks.cpg/sg43_12_cif.got.tgz:23496.got - 2010.06.03 19:21:55.
