data_PCOD9370468
_publ_section_title
;
Structure prediction by ZEFSAII (Michael W. Deem and Ramdas Pophale) SiO2 
 PCOD9370468
Probable space group: F D D 2
;
_chemical_formula_sum "Si O2"
_cell_formula_units_Z 112
_cell_length_a 13.139448
_cell_length_b 14.309406
_cell_length_c 27.235752
_cell_angle_alpha 90.000000
_cell_angle_beta 90.000000
_cell_angle_gamma 90.000000
_cell_volume 5120.803341
_symmetry_space_group_name_H-M "F D D 2"
_symmetry_group_IT_number 43
_symmetry_cell_setting 'orthorhombic'
loop_
_space_group_symop_operation_xyz
x,y,z
-x,-y,z
1/4-x,1/4+y,1/4+z
1/4+x,1/4-y,1/4+z
x,1/2+y,1/2+z
-x,1/2-y,1/2+z
1/4-x,3/4+y,3/4+z
1/4+x,3/4-y,3/4+z
1/2+x,y,1/2+z
1/2-x,-y,1/2+z
3/4-x,1/4+y,3/4+z
3/4+x,1/4-y,3/4+z
1/2+x,1/2+y,z
1/2-x,1/2-y,z
3/4-x,3/4+y,1/4+z
3/4+x,3/4-y,1/4+z
loop_
_atom_site_type_symbol
_atom_site_label
_atom_site_fract_x
_atom_site_fract_y
_atom_site_fract_z
Si Si1 0.350366 0.301098 0.822710
Si Si2 0.039212 0.661879 0.502765
Si Si3 0.940889 0.617981 0.857019
Si Si4 0.453417 0.723712 0.710690
Si Si5 0.598778 0.865632 0.965632
Si Si6 0.279066 0.987844 0.351802
Si Si7 0.802253 0.656059 0.512095
O O1 0.250000 0.250000 0.841848
O O2 0.430616 0.227606 0.842965
O O3 0.330289 0.324590 0.765157
O O4 0.359377 0.403652 0.844591
O O5 0.103446 0.574359 0.483275
O O6 0.075975 0.757980 0.477183
O O7 0.048659 0.684424 0.560890
O O8 0.918733 0.651729 0.496022
O O9 0.957512 0.606822 0.915147
O O10 0.833438 0.562461 0.844882
O O11 0.031491 0.589807 0.820547
O O12 0.533080 0.638381 0.706188
O O13 0.452337 0.768749 0.656947
O O14 0.494171 0.808363 0.743975
O O15 0.750000 0.750000 0.492016
#
# Coordination Sequence:
#
# PCOD9370468 Si02
#       7
#    16  16  16  16  16  16  16
#     4   9  17  33  61  96 126 162 218 288 333 388
#     4  11  23  44  67 105 139 174 223 292 347 414
#     4  10  19  39  65  97 131 177 225 280 337 405
#     4  11  23  44  70  98 135 184 229 284 345 410
#     4  10  21  38  70 101 126 174 234 280 338 409
#     4   9  20  40  68  97 134 171 229 283 338 404
#     4  12  25  45  63  94 144 183 221 282 345 409
#
# _framework density 21.871566999999999
#
# number of rings (size 3 to 8) (size 9 to 14) (size 15 to 20)
#    0.000    1.714    2.857    1.714    0.000    2.857 
#    5.143    2.857    0.000    0.000    0.000    0.000 
#    0.000    0.000    0.000    0.000    0.000    0.000 
#
# Total GULP energy -155999.850135 kJ/mol
# GULP energy per Si atom -5571.423219 kJ/mol
# Density = 2.182179 g / cm^3
# Si number density = 21.871567 Si / 1000 Ang^3
#
#
#
# Elastic Constant Matrix: (Units=GPa)
#
#
# Indices 1 2 3 4 5 6 
#
# 1 39.3667 22.9474 6.7192 0.0000 0.0000 0.0000
# 2 22.9474 93.5875 22.3884 0.0000 0.0000 0.0000
# 3 6.7192 22.3884 121.4355 0.0000 0.0000 0.0000
# 4 0.0000 0.0000 0.0000 3.6531 0.0000 0.0000
# 5 0.0000 0.0000 0.0000 0.0000 23.8957 0.0000
# 6 0.0000 0.0000 0.0000 0.0000 0.0000 30.3372
#
#
#
# Elastic Compliance Matrix: (Units=1/GPa)
#
#
# Indices 1 2 3 4 5 6 
#
# 1 0.029650 -0.007195 -0.000314 0.000000 0.000000 0.000000
# 2 -0.007195 0.012924 -0.001985 0.000000 0.000000 0.000000
# 3 -0.000314 -0.001985 0.008618 0.000000 0.000000 0.000000
# 4 0.000000 0.000000 0.000000 0.273738 0.000000 0.000000
# 5 0.000000 0.000000 0.000000 0.000000 0.041849 0.000000
# 6 0.000000 0.000000 0.000000 0.000000 0.000000 0.032963
#
#
# Mechanical properties :
#
#
# Convention : Reuss Voigt Hill
#
# Bulk Modulus (GPa) = 31.05131 39.83329 35.44230
# Shear Modulus (GPa) = 11.64244 25.06618 18.35431
#
# Velocity S-wave (km/s) = 2.30969 3.38903 2.90001
# Velocity P-wave (km/s) = 4.61961 5.79361 5.23959
#
# Compressibility (1/GPa) = 0.03220476
#
# Stress axis : x y z
#
# Youngs Moduli (GPa) = 33.72706 77.37466 116.03482
#
# Poissons Ratio (x) = 0.55670 0.03645
# Poissons Ratio (y) = 0.24266 0.23029
# Poissons Ratio (z) = 0.01059 0.15356
#
# Static dielectric constant tensor:
#      x y z
#    x 1.858460 0.000000 0.000000 
#    y 0.000000 1.807120 0.000000 
#    z 0.000000 0.000000 1.826290 
# 
# From -- ./inp_files/25642.got.cif
#   From: 2010.05.17/outbox.cif.g08.bks.cpg/sg43_13_cif.got.tgz:25642.got - 2010.06.03 19:21:55.
