data_PCOD9370373
_publ_section_title
;
Structure prediction by ZEFSAII (Michael W. Deem and Ramdas Pophale) SiO2 
 PCOD9370373
Probable space group: F D D 2
;
_chemical_formula_sum "Si O2"
_cell_formula_units_Z 64
_cell_length_a 5.518276
_cell_length_b 18.795777
_cell_length_c 24.156139
_cell_angle_alpha 90.000000
_cell_angle_beta 90.000000
_cell_angle_gamma 90.000000
_cell_volume 2505.481624
_symmetry_space_group_name_H-M "F D D 2"
_symmetry_group_IT_number 43
_symmetry_cell_setting 'orthorhombic'
loop_
_space_group_symop_operation_xyz
x,y,z
-x,-y,z
1/4-x,1/4+y,1/4+z
1/4+x,1/4-y,1/4+z
x,1/2+y,1/2+z
-x,1/2-y,1/2+z
1/4-x,3/4+y,3/4+z
1/4+x,3/4-y,3/4+z
1/2+x,y,1/2+z
1/2-x,-y,1/2+z
3/4-x,1/4+y,3/4+z
3/4+x,1/4-y,3/4+z
1/2+x,1/2+y,z
1/2-x,1/2-y,z
3/4-x,3/4+y,1/4+z
3/4+x,3/4-y,1/4+z
loop_
_atom_site_type_symbol
_atom_site_label
_atom_site_fract_x
_atom_site_fract_y
_atom_site_fract_z
Si Si1 0.750188 0.495086 0.298600
Si Si2 0.956074 0.897308 0.100323
Si Si3 0.789818 0.633950 0.884774
Si Si4 0.255387 0.461439 0.987347
O O1 0.500000 0.500000 0.266249
O O2 0.756701 0.561689 0.341692
O O3 0.742301 0.423354 0.334489
O O4 0.000000 0.500000 0.265951
O O5 0.730273 0.914280 0.139459
O O6 0.217912 0.925698 0.118516
O O7 0.874080 0.925792 0.040912
O O8 0.836419 0.593108 0.941349
O O9 0.500000 0.500000 0.963019
O O10 0.000000 0.500000 0.003045
#
# Coordination Sequence:
#
# PCOD9370373 Si02
#       4
#    16  16  16  16
#     4   8  14  27  49  74 102 137 182 234 283 329
#     4  10  20  34  56  86 119 152 195 251 307 354
#     4  10  19  36  59  84 115 154 202 255 299 355
#     4  12  23  37  60  92 123 161 211 258 305 372
#
# _framework density 25.543989
#
# number of rings (size 3 to 8) (size 9 to 14) (size 15 to 20)
#    0.000    2.000    0.000    7.500    0.000    0.000 
#    0.000    0.000    0.000   18.000    0.000    0.000 
#    0.000    0.000    0.000    0.000    0.000    0.000 
#
# Total GULP energy -89292.535776 kJ/mol
# GULP energy per Si atom -5580.783486 kJ/mol
# Density = 2.548585 g / cm^3
# Si number density = 25.543989 Si / 1000 Ang^3
#
#
#
# Elastic Constant Matrix: (Units=GPa)
#
#
# Indices 1 2 3 4 5 6 
#
# 1 316.2258 26.2006 32.0028 0.0000 0.0000 0.0000
# 2 26.2006 79.6709 5.1798 0.0000 0.0000 0.0000
# 3 32.0028 5.1798 64.6258 0.0000 0.0000 0.0000
# 4 0.0000 0.0000 0.0000 12.5358 0.0000 0.0000
# 5 0.0000 0.0000 0.0000 0.0000 36.0336 0.0000
# 6 0.0000 0.0000 0.0000 0.0000 0.0000 6.8293
#
#
#
# Elastic Compliance Matrix: (Units=1/GPa)
#
#
# Indices 1 2 3 4 5 6 
#
# 1 0.003409 -0.001017 -0.001607 0.000000 0.000000 0.000000
# 2 -0.001017 0.012921 -0.000532 0.000000 0.000000 0.000000
# 3 -0.001607 -0.000532 0.016312 0.000000 0.000000 0.000000
# 4 0.000000 0.000000 0.000000 0.079771 0.000000 0.000000
# 5 0.000000 0.000000 0.000000 0.000000 0.027752 0.000000
# 6 0.000000 0.000000 0.000000 0.000000 0.000000 0.146429
#
#
# Mechanical properties :
#
#
# Convention : Reuss Voigt Hill
#
# Bulk Modulus (GPa) = 37.97856 65.25431 51.61644
# Shear Modulus (GPa) = 16.57377 37.55568 27.06473
#
# Velocity S-wave (km/s) = 2.54998 3.83853 3.25858
# Velocity P-wave (km/s) = 4.85490 6.72659 5.86588
#
# Compressibility (1/GPa) = 0.02633065
#
# Stress axis : x y z
#
# Youngs Moduli (GPa) = 293.32938 77.39591 61.30458
#
# Poissons Ratio (x) = 0.07869 0.09850
# Poissons Ratio (y) = 0.29822 0.03262
# Poissons Ratio (z) = 0.47130 0.04119
#
# Static dielectric constant tensor:
#      x y z
#    x 2.203890 0.000000 0.000000 
#    y 0.000000 2.107680 0.000000 
#    z 0.000000 0.000000 1.891620 
# 
# From -- ./inp_files/15580.got.cif
#   From: 2010.05.17/outbox.cif.g08.bks.cpg/sg43_8_cif.got.tgz:15580.got - 2010.06.03 19:21:55.
