data_PCOD9370065
_publ_section_title
;
Structure prediction by ZEFSAII (Michael W. Deem and Ramdas Pophale) SiO2 
 PCOD9370065
Probable space group: F D D 2
;
_chemical_formula_sum "Si O2"
_cell_formula_units_Z 120
_cell_length_a 14.827514
_cell_length_b 16.995145
_cell_length_c 22.780203
_cell_angle_alpha 90.000000
_cell_angle_beta 90.000000
_cell_angle_gamma 90.000000
_cell_volume 5740.514350
_symmetry_space_group_name_H-M "F D D 2"
_symmetry_group_IT_number 43
_symmetry_cell_setting 'orthorhombic'
loop_
_space_group_symop_operation_xyz
x,y,z
-x,-y,z
1/4-x,1/4+y,1/4+z
1/4+x,1/4-y,1/4+z
x,1/2+y,1/2+z
-x,1/2-y,1/2+z
1/4-x,3/4+y,3/4+z
1/4+x,3/4-y,3/4+z
1/2+x,y,1/2+z
1/2-x,-y,1/2+z
3/4-x,1/4+y,3/4+z
3/4+x,1/4-y,3/4+z
1/2+x,1/2+y,z
1/2-x,1/2-y,z
3/4-x,3/4+y,1/4+z
3/4+x,3/4-y,1/4+z
loop_
_atom_site_type_symbol
_atom_site_label
_atom_site_fract_x
_atom_site_fract_y
_atom_site_fract_z
Si Si1 0.840575 0.302789 0.512000
Si Si2 0.176955 0.187747 0.502009
Si Si3 0.900700 0.229046 0.250643
Si Si4 0.424519 0.642139 0.648578
Si Si5 0.260780 0.100158 0.090810
Si Si6 0.250000 0.250000 0.833812
Si Si7 0.370146 0.815802 0.137009
Si Si8 0.236687 0.033297 0.690085
O O1 0.750000 0.250000 0.502398
O O2 0.844336 0.375747 0.465913
O O3 0.825768 0.349192 0.572514
O O4 0.925138 0.249561 0.493708
O O5 0.250000 0.250000 0.480361
O O6 0.211421 0.097862 0.495648
O O7 0.160634 0.203460 0.571493
O O8 0.083340 0.192872 0.466192
O O9 0.818016 0.203255 0.292749
O O10 0.856943 0.253970 0.189416
O O11 0.948150 0.301919 0.284481
O O12 0.336104 0.663587 0.612419
O O13 0.441390 0.554333 0.624118
O O14 0.520367 0.680497 0.637397
O O15 0.248127 0.035964 0.142049
O O16 0.320194 0.895795 0.159373
#
# Coordination Sequence:
#
# PCOD9370065 Si02
#       8
#    16  16  16  16  16   8  16  16
#     4  11  19  35  61  99 140 172 209 265 341 406
#     4  12  29  47  63  96 135 177 228 285 343 417
#     4  11  21  36  66  97 129 163 216 275 346 398
#     4  10  17  31  55  98 139 156 201 269 336 385
#     4  10  21  36  64  98 139 174 208 271 341 405
#     4  10  16  30  54  94 130 160 188 270 342 374
#     4  12  22  39  70 106 129 172 220 286 347 403
#     4  11  24  45  65  97 141 172 224 287 336 402
#
# _framework density 20.904049000000001
#
# number of rings (size 3 to 8) (size 9 to 14) (size 15 to 20)
#    0.000    1.067    6.000    1.600    6.533    0.000 
#    2.400    0.000    0.000    0.000    0.000    0.000 
#    0.000    0.000    0.000    0.000    0.000    0.000 
#
# Total GULP energy -167299.834568 kJ/mol
# GULP energy per Si atom -5576.661152 kJ/mol
# Density = 2.085647 g / cm^3
# Si number density = 20.904049 Si / 1000 Ang^3
#
#
#
# Elastic Constant Matrix: (Units=GPa)
#
#
# Indices 1 2 3 4 5 6 
#
# 1 73.2399 18.0035 17.8682 0.0000 0.0000 0.0000
# 2 18.0035 56.5126 20.3991 0.0000 0.0000 0.0000
# 3 17.8682 20.3991 84.1933 0.0000 0.0000 0.0000
# 4 0.0000 0.0000 0.0000 32.3825 0.0000 0.0000
# 5 0.0000 0.0000 0.0000 0.0000 20.5556 0.0000
# 6 0.0000 0.0000 0.0000 0.0000 0.0000 26.4287
#
#
#
# Elastic Compliance Matrix: (Units=1/GPa)
#
#
# Indices 1 2 3 4 5 6 
#
# 1 0.015193 -0.004028 -0.002248 0.000000 0.000000 0.000000
# 2 -0.004028 0.020459 -0.004102 0.000000 0.000000 0.000000
# 3 -0.002248 -0.004102 0.013348 0.000000 0.000000 0.000000
# 4 0.000000 0.000000 0.000000 0.030881 0.000000 0.000000
# 5 0.000000 0.000000 0.000000 0.000000 0.048649 0.000000
# 6 0.000000 0.000000 0.000000 0.000000 0.000000 0.037838
#
#
# Mechanical properties :
#
#
# Convention : Reuss Voigt Hill
#
# Bulk Modulus (GPa) = 35.40736 36.27635 35.84186
# Shear Modulus (GPa) = 25.44024 26.38503 25.91264
#
# Velocity S-wave (km/s) = 3.49234 3.55660 3.52461
# Velocity P-wave (km/s) = 5.76513 5.85297 5.80922
#
# Compressibility (1/GPa) = 0.02824271
#
# Stress axis : x y z
#
# Youngs Moduli (GPa) = 65.82192 48.87772 74.91500
#
# Poissons Ratio (x) = 0.19690 0.16843
# Poissons Ratio (y) = 0.26516 0.30731
# Poissons Ratio (z) = 0.14798 0.20050
#
# Static dielectric constant tensor:
#      x y z
#    x 1.807130 0.000000 0.000000 
#    y 0.000000 1.782960 0.000000 
#    z 0.000000 0.000000 1.795990 
# 
# From -- ./inp_files/21815.got.cif
#   From: 2010.05.17/outbox.cif.g08.bks.cpg/sg43_11_cif.got.tgz:21815.got - 2010.06.03 19:21:55.
