data_PCOD9370610
_publ_section_title
;
Structure prediction by ZEFSAII (Michael W. Deem and Ramdas Pophale) SiO2 
 PCOD9370610
Probable space group: F D D 2
;
_chemical_formula_sum "Si O2"
_cell_formula_units_Z 88
_cell_length_a 17.691344
_cell_length_b 14.470224
_cell_length_c 13.105460
_cell_angle_alpha 90.000000
_cell_angle_beta 90.000000
_cell_angle_gamma 90.000000
_cell_volume 3354.967756
_symmetry_space_group_name_H-M "F D D 2"
_symmetry_group_IT_number 43
_symmetry_cell_setting 'orthorhombic'
loop_
_space_group_symop_operation_xyz
x,y,z
-x,-y,z
1/4-x,1/4+y,1/4+z
1/4+x,1/4-y,1/4+z
x,1/2+y,1/2+z
-x,1/2-y,1/2+z
1/4-x,3/4+y,3/4+z
1/4+x,3/4-y,3/4+z
1/2+x,y,1/2+z
1/2-x,-y,1/2+z
3/4-x,1/4+y,3/4+z
3/4+x,1/4-y,3/4+z
1/2+x,1/2+y,z
1/2-x,1/2-y,z
3/4-x,3/4+y,1/4+z
3/4+x,3/4-y,1/4+z
loop_
_atom_site_type_symbol
_atom_site_label
_atom_site_fract_x
_atom_site_fract_y
_atom_site_fract_z
Si Si1 0.713303 0.046129 0.943010
Si Si2 0.621608 0.664416 0.814522
Si Si3 0.881533 0.353125 0.546030
Si Si4 0.250000 0.750000 0.592824
Si Si5 0.496765 0.305655 0.519491
Si Si6 0.860281 0.057973 0.078414
O O1 0.708534 0.948903 0.880039
O O2 0.670045 0.117611 0.869623
O O3 0.795063 0.075377 0.991076
O O4 0.662763 0.013920 0.039703
O O5 0.559288 0.581731 0.807017
O O6 0.696390 0.639464 0.751795
O O7 0.651096 0.658842 0.931600
O O8 0.817190 0.320850 0.625626
O O9 0.951645 0.285120 0.538882
O O10 0.899817 0.459961 0.557085
O O11 0.440353 0.292769 0.428984
#
# Coordination Sequence:
#
# PCOD9370610 Si02
#       6
#    16  16  16   8  16  16
#     4  12  28  50  76 119 166 210 266 340 429 492
#     4  11  22  45  75 106 151 206 277 331 402 492
#     4  11  22  45  75 106 151 206 277 331 402 492
#     4  10  20  36  76 100 138 188 278 324 386 468
#     4  11  26  45  75 110 151 214 274 338 409 486
#     4  12  28  50  76 119 166 210 266 340 429 492
#
# _framework density 26.229759000000001
#
# number of rings (size 3 to 8) (size 9 to 14) (size 15 to 20)
#    0.000    0.727    5.455    0.000    5.091    4.364 
#    0.000    0.000    0.000    0.000    0.000    0.000 
#    0.000    0.000    0.000    0.000    0.000    0.000 
#
# Total GULP energy -122662.291421 kJ/mol
# GULP energy per Si atom -5575.558701 kJ/mol
# Density = 2.617006 g / cm^3
# Si number density = 26.229759 Si / 1000 Ang^3
#
#
#
# Elastic Constant Matrix: (Units=GPa)
#
#
# Indices 1 2 3 4 5 6 
#
# 1 116.0129 41.1377 16.9469 0.0000 0.0000 0.0000
# 2 41.1377 100.4527 1.7656 0.0000 0.0000 0.0000
# 3 16.9469 1.7656 67.8731 0.0000 0.0000 0.0000
# 4 0.0000 0.0000 0.0000 39.5853 0.0000 0.0000
# 5 0.0000 0.0000 0.0000 0.0000 39.3595 0.0000
# 6 0.0000 0.0000 0.0000 0.0000 0.0000 39.8153
#
#
#
# Elastic Compliance Matrix: (Units=1/GPa)
#
#
# Indices 1 2 3 4 5 6 
#
# 1 0.010495 -0.004254 -0.002510 0.000000 0.000000 0.000000
# 2 -0.004254 0.011684 0.000758 0.000000 0.000000 0.000000
# 3 -0.002510 0.000758 0.015340 0.000000 0.000000 0.000000
# 4 0.000000 0.000000 0.000000 0.025262 0.000000 0.000000
# 5 0.000000 0.000000 0.000000 0.000000 0.025407 0.000000
# 6 0.000000 0.000000 0.000000 0.000000 0.000000 0.025116
#
#
# Mechanical properties :
#
#
# Convention : Reuss Voigt Hill
#
# Bulk Modulus (GPa) = 39.20332 44.89325 42.04828
# Shear Modulus (GPa) = 37.36459 38.71791 38.04125
#
# Velocity S-wave (km/s) = 3.77836 3.84618 3.81242
# Velocity P-wave (km/s) = 5.83209 6.07262 5.95357
#
# Compressibility (1/GPa) = 0.02550804
#
# Stress axis : x y z
#
# Youngs Moduli (GPa) = 95.28632 85.59005 65.18786
#
# Poissons Ratio (x) = 0.36408 0.16360
# Poissons Ratio (y) = 0.40532 -0.04942
# Poissons Ratio (z) = 0.23914 -0.06489
#
# Static dielectric constant tensor:
#      x y z
#    x 2.145750 0.000000 0.000000 
#    y 0.000000 2.028580 0.000000 
#    z 0.000000 0.000000 2.469840 
# 
# From -- ./inp_files/10882.got.cif
#   From: 2010.05.17/outbox.cif.g08.bks.cpg/sg43_6_cif.got.tgz:10882.got - 2010.06.03 19:21:55.
