data_PCOD9370788
_publ_section_title
;
Structure prediction by ZEFSAII (Michael W. Deem and Ramdas Pophale) SiO2 
 PCOD9370788
Probable space group: F D D 2
;
_chemical_formula_sum "Si O2"
_cell_formula_units_Z 72
_cell_length_a 13.619218
_cell_length_b 19.110944
_cell_length_c 14.358420
_cell_angle_alpha 90.000000
_cell_angle_beta 90.000000
_cell_angle_gamma 90.000000
_cell_volume 3737.153740
_symmetry_space_group_name_H-M "F D D 2"
_symmetry_group_IT_number 43
_symmetry_cell_setting 'orthorhombic'
loop_
_space_group_symop_operation_xyz
x,y,z
-x,-y,z
1/4-x,1/4+y,1/4+z
1/4+x,1/4-y,1/4+z
x,1/2+y,1/2+z
-x,1/2-y,1/2+z
1/4-x,3/4+y,3/4+z
1/4+x,3/4-y,3/4+z
1/2+x,y,1/2+z
1/2-x,-y,1/2+z
3/4-x,1/4+y,3/4+z
3/4+x,1/4-y,3/4+z
1/2+x,1/2+y,z
1/2-x,1/2-y,z
3/4-x,3/4+y,1/4+z
3/4+x,3/4-y,1/4+z
loop_
_atom_site_type_symbol
_atom_site_label
_atom_site_fract_x
_atom_site_fract_y
_atom_site_fract_z
Si Si1 0.905471 0.081840 0.328930
Si Si2 0.147399 0.770065 0.395973
Si Si3 0.024663 0.079262 0.140538
Si Si4 0.533457 0.296325 0.004793
Si Si5 0.000000 0.500000 0.969606
O O1 0.853718 0.147897 0.373802
O O2 0.994686 0.064382 0.399391
O O3 0.952293 0.094293 0.227973
O O4 0.835946 0.014277 0.316732
O O5 0.250000 0.750000 0.444655
O O6 0.160170 0.739931 0.290751
O O7 0.053860 0.741266 0.448427
O O8 0.133550 0.074887 0.184058
O O9 0.007736 0.139638 0.065650
O O10 0.000000 0.000000 0.106931
#
# Coordination Sequence:
#
# PCOD9370788 Si02
#       5
#    16  16  16  16   8
#     4  11  20  43  71  94 129 176 236 271 318 414
#     4  10  25  39  64 101 134 167 223 271 345 383
#     4  10  24  42  69 100 130 179 228 274 341 400
#     4  11  23  45  68  97 140 171 223 283 334 407
#     4  10  20  40  62  98 118 172 226 264 326 388
#
# _framework density 19.265998
#
# number of rings (size 3 to 8) (size 9 to 14) (size 15 to 20)
#    0.667    0.889    3.333    2.667    6.222    1.778 
#    4.000    0.000    0.000    0.000    0.000    0.000 
#    0.000    0.000    0.000    0.000    0.000    0.000 
#
# Total GULP energy -100277.403109 kJ/mol
# GULP energy per Si atom -5570.966839 kJ/mol
# Density = 1.922215 g / cm^3
# Si number density = 19.265998 Si / 1000 Ang^3
#
#
#
# Elastic Constant Matrix: (Units=GPa)
#
#
# Indices 1 2 3 4 5 6 
#
# 1 131.5390 78.8987 44.4705 0.0000 0.0000 0.0000
# 2 78.8987 139.7502 61.9161 0.0000 0.0000 0.0000
# 3 44.4705 61.9161 84.2151 0.0000 0.0000 0.0000
# 4 0.0000 0.0000 0.0000 15.1770 0.0000 0.0000
# 5 0.0000 0.0000 0.0000 0.0000 26.9773 0.0000
# 6 0.0000 0.0000 0.0000 0.0000 0.0000 32.6553
#
#
#
# Elastic Compliance Matrix: (Units=1/GPa)
#
#
# Indices 1 2 3 4 5 6 
#
# 1 0.011709 -0.005742 -0.001962 0.000000 0.000000 0.000000
# 2 -0.005742 0.013428 -0.006840 0.000000 0.000000 0.000000
# 3 -0.001962 -0.006840 0.017940 0.000000 0.000000 0.000000
# 4 0.000000 0.000000 0.000000 0.065889 0.000000 0.000000
# 5 0.000000 0.000000 0.000000 0.000000 0.037068 0.000000
# 6 0.000000 0.000000 0.000000 0.000000 0.000000 0.030623
#
#
# Mechanical properties :
#
#
# Convention : Reuss Voigt Hill
#
# Bulk Modulus (GPa) = 71.48540 80.67498 76.08019
# Shear Modulus (GPa) = 23.76337 26.30986 25.03662
#
# Velocity S-wave (km/s) = 3.51584 3.69943 3.60880
# Velocity P-wave (km/s) = 7.32574 7.75969 7.54584
#
# Compressibility (1/GPa) = 0.01398887
#
# Stress axis : x y z
#
# Youngs Moduli (GPa) = 85.40095 74.47270 55.74270
#
# Poissons Ratio (x) = 0.42759 0.10937
# Poissons Ratio (y) = 0.49033 0.38130
# Poissons Ratio (z) = 0.16756 0.50942
#
# Static dielectric constant tensor:
#      x y z
#    x 1.715750 0.000000 0.000000 
#    y 0.000000 1.798220 0.000000 
#    z 0.000000 0.000000 1.664910 
# 
# From -- ./inp_files/9960.got.cif
#   From: 2010.05.17/outbox.cif.g08.bks.cpg/sg43_5_cif.got.tgz:9960.got - 2010.06.03 19:21:55.
