data_PCOD9370199
_publ_section_title
;
Structure prediction by ZEFSAII (Michael W. Deem and Ramdas Pophale) SiO2 
 PCOD9370199
Probable space group: F D D 2
;
_chemical_formula_sum "Si O2"
_cell_formula_units_Z 104
_cell_length_a 24.910470
_cell_length_b 24.410925
_cell_length_c 9.019187
_cell_angle_alpha 90.000000
_cell_angle_beta 90.000000
_cell_angle_gamma 90.000000
_cell_volume 5484.455911
_symmetry_space_group_name_H-M "F D D 2"
_symmetry_group_IT_number 43
_symmetry_cell_setting 'orthorhombic'
loop_
_space_group_symop_operation_xyz
x,y,z
-x,-y,z
1/4-x,1/4+y,1/4+z
1/4+x,1/4-y,1/4+z
x,1/2+y,1/2+z
-x,1/2-y,1/2+z
1/4-x,3/4+y,3/4+z
1/4+x,3/4-y,3/4+z
1/2+x,y,1/2+z
1/2-x,-y,1/2+z
3/4-x,1/4+y,3/4+z
3/4+x,1/4-y,3/4+z
1/2+x,1/2+y,z
1/2-x,1/2-y,z
3/4-x,3/4+y,1/4+z
3/4+x,3/4-y,1/4+z
loop_
_atom_site_type_symbol
_atom_site_label
_atom_site_fract_x
_atom_site_fract_y
_atom_site_fract_z
Si Si1 0.004448 0.123355 0.412190
Si Si2 0.949394 0.217917 0.553774
Si Si3 0.061058 0.346829 0.666844
Si Si4 0.608831 0.681396 0.535656
Si Si5 0.948851 0.721474 0.404227
Si Si6 0.250000 0.250000 0.745021
Si Si7 0.877906 0.002775 0.569583
O O1 0.956913 0.154694 0.501638
O O2 0.996565 0.149802 0.248988
O O3 0.058423 0.142797 0.494103
O O4 0.001043 0.058048 0.409541
O O5 0.953469 0.218462 0.729504
O O6 0.898048 0.247464 0.481882
O O7 0.999416 0.249777 0.479273
O O8 0.090131 0.401545 0.718325
O O9 0.057607 0.335031 0.493336
O O10 0.097298 0.297690 0.735776
O O11 0.599239 0.738173 0.449734
O O12 0.613310 0.696530 0.709799
O O13 0.307739 0.249351 0.826677
#
# Coordination Sequence:
#
# PCOD9370199 Si02
#       7
#    16  16  16  16  16   8  16
#     4  10  20  34  61  84 118 155 202 242 298 361
#     4  10  20  40  59  87 113 159 213 258 287 351
#     4  10  19  35  58  90 115 156 196 243 304 364
#     4  10  18  35  57  87 118 154 197 250 294 368
#     4  10  20  36  63  86 117 153 211 257 294 354
#     4  12  20  34  58  92 120 158 192 246 308 374
#     4  10  21  35  61  85 117 156 205 240 303 365
#
# _framework density 18.962682999999998
#
# number of rings (size 3 to 8) (size 9 to 14) (size 15 to 20)
#    0.000    1.846    3.077    4.615    0.000    0.000 
#    2.769    0.000    3.385    4.615    0.000    0.000 
#    0.000    0.000    0.000    0.000    0.000    0.000 
#
# Total GULP energy -144742.649363 kJ/mol
# GULP energy per Si atom -5567.024975 kJ/mol
# Density = 1.891952 g / cm^3
# Si number density = 18.962683 Si / 1000 Ang^3
#
#
#
# Elastic Constant Matrix: (Units=GPa)
#
#
# Indices 1 2 3 4 5 6 
#
# 1 92.4573 19.9893 39.1636 0.0003 -0.0003 0.0001
# 2 19.9893 94.0370 47.0137 0.0005 -0.0005 0.0002
# 3 39.1636 47.0137 172.5703 0.0020 -0.0017 0.0007
# 4 0.0003 0.0005 0.0020 18.5276 -0.0008 0.0003
# 5 -0.0003 -0.0005 -0.0017 -0.0008 17.3931 -0.0003
# 6 0.0001 0.0002 0.0007 0.0003 -0.0003 16.7851
#
#
#
# Elastic Compliance Matrix: (Units=1/GPa)
#
#
# Indices 1 2 3 4 5 6 
#
# 1 0.012121 -0.001391 -0.002372 0.000000 0.000000 0.000000
# 2 -0.001391 0.012470 -0.003082 0.000000 0.000000 0.000000
# 3 -0.002372 -0.003082 0.007173 -0.000001 0.000001 0.000000
# 4 0.000000 0.000000 -0.000001 0.053974 0.000002 -0.000001
# 5 0.000000 0.000000 0.000001 0.000002 0.057494 0.000001
# 6 0.000000 0.000000 0.000000 -0.000001 0.000001 0.059577
#
#
# Mechanical properties :
#
#
# Convention : Reuss Voigt Hill
#
# Bulk Modulus (GPa) = 55.32370 63.48864 59.40617
# Shear Modulus (GPa) = 22.46962 27.40101 24.93531
#
# Velocity S-wave (km/s) = 3.44603 3.80543 3.63018
# Velocity P-wave (km/s) = 6.71356 7.27062 6.99764
#
# Compressibility (1/GPa) = 0.01807543
#
# Stress axis : x y z
#
# Youngs Moduli (GPa) = 82.50006 80.18961 139.41949
#
# Poissons Ratio (x) = 0.11152 0.33069
# Poissons Ratio (y) = 0.11474 0.42965
# Poissons Ratio (z) = 0.19569 0.24712
#
# Static dielectric constant tensor:
#      x y z
#    x 1.743690 0.000000 0.000000 
#    y 0.000000 1.706600 0.000000 
#    z 0.000000 0.000000 1.674500 
# 
# From -- ./inp_files/3826.got.cif
#   From: 2010.05.17/outbox.cif.g08.bks.cpg/sg43_2_cif.got.tgz:3826.got - 2010.06.03 19:21:55.
