data_PCOD9370632
_publ_section_title
;
Structure prediction by ZEFSAII (Michael W. Deem and Ramdas Pophale) SiO2 
 PCOD9370632
Probable space group: F D D 2
;
_chemical_formula_sum "Si O2"
_cell_formula_units_Z 80
_cell_length_a 27.718628
_cell_length_b 15.385623
_cell_length_c 7.556055
_cell_angle_alpha 90.000000
_cell_angle_beta 90.000000
_cell_angle_gamma 90.000000
_cell_volume 3222.418388
_symmetry_space_group_name_H-M "F D D 2"
_symmetry_group_IT_number 43
_symmetry_cell_setting 'orthorhombic'
loop_
_space_group_symop_operation_xyz
x,y,z
-x,-y,z
1/4-x,1/4+y,1/4+z
1/4+x,1/4-y,1/4+z
x,1/2+y,1/2+z
-x,1/2-y,1/2+z
1/4-x,3/4+y,3/4+z
1/4+x,3/4-y,3/4+z
1/2+x,y,1/2+z
1/2-x,-y,1/2+z
3/4-x,1/4+y,3/4+z
3/4+x,1/4-y,3/4+z
1/2+x,1/2+y,z
1/2-x,1/2-y,z
3/4-x,3/4+y,1/4+z
3/4+x,3/4-y,1/4+z
loop_
_atom_site_type_symbol
_atom_site_label
_atom_site_fract_x
_atom_site_fract_y
_atom_site_fract_z
Si Si1 0.325013 0.669400 0.372210
Si Si2 0.594285 0.209644 0.442807
Si Si3 0.554800 0.332110 0.957174
Si Si4 0.513457 0.321492 0.568877
Si Si5 0.125062 0.195051 0.335987
O O1 0.350965 0.761354 0.397881
O O2 0.328493 0.616430 0.559486
O O3 0.272430 0.652419 0.288263
O O4 0.359427 0.622506 0.233201
O O5 0.557611 0.292431 0.443382
O O6 0.595671 0.188613 0.651324
O O7 0.531807 0.338930 0.765397
O O8 0.606106 0.284210 0.920846
O O9 0.569401 0.423536 0.042621
O O10 0.521238 0.264267 0.061255
#
# Coordination Sequence:
#
# PCOD9370632 Si02
#       5
#    16  16  16  16  16
#     4  11  22  40  67  91 131 170 217 265 331 386
#     4  11  22  40  66  94 126 175 211 273 323 392
#     4  10  20  39  63  91 124 167 213 263 316 391
#     4  10  20  37  64  90 120 168 221 253 320 397
#     4  10  22  38  63  95 125 165 216 261 322 387
#
# _framework density 24.826074999999999
#
# number of rings (size 3 to 8) (size 9 to 14) (size 15 to 20)
#    0.000    1.600    2.000    4.800    0.000    0.000 
#    0.000    4.000    0.000    2.400    0.000    0.000 
#    0.000    0.000    0.000    0.000    0.000    0.000 
#
# Total GULP energy -111565.891983 kJ/mol
# GULP energy per Si atom -5578.294599 kJ/mol
# Density = 2.476957 g / cm^3
# Si number density = 24.826075 Si / 1000 Ang^3
#
#
#
# Elastic Constant Matrix: (Units=GPa)
#
#
# Indices 1 2 3 4 5 6 
#
# 1 112.0523 43.8023 -8.7176 0.0000 0.0000 0.0000
# 2 43.8023 45.4280 0.8212 0.0000 0.0000 0.0000
# 3 -8.7176 0.8212 65.5992 0.0000 0.0000 0.0000
# 4 0.0000 0.0000 0.0000 20.2729 0.0000 0.0000
# 5 0.0000 0.0000 0.0000 0.0000 26.3381 0.0000
# 6 0.0000 0.0000 0.0000 0.0000 0.0000 41.4913
#
#
#
# Elastic Compliance Matrix: (Units=1/GPa)
#
#
# Indices 1 2 3 4 5 6 
#
# 1 0.014612 -0.014127 0.002119 0.000000 0.000000 0.000000
# 2 -0.014127 0.035676 -0.002324 0.000000 0.000000 0.000000
# 3 0.002119 -0.002324 0.015555 0.000000 0.000000 0.000000
# 4 0.000000 0.000000 0.000000 0.049327 0.000000 0.000000
# 5 0.000000 0.000000 0.000000 0.000000 0.037968 0.000000
# 6 0.000000 0.000000 0.000000 0.000000 0.000000 0.024101
#
#
# Mechanical properties :
#
#
# Convention : Reuss Voigt Hill
#
# Bulk Modulus (GPa) = 26.89770 32.76570 29.83170
# Shear Modulus (GPa) = 22.90467 30.09870 26.50169
#
# Velocity S-wave (km/s) = 3.04074 3.48571 3.27080
# Velocity P-wave (km/s) = 4.81519 5.42466 5.12899
#
# Compressibility (1/GPa) = 0.03717790
#
# Stress axis : x y z
#
# Youngs Moduli (GPa) = 68.43879 28.02985 64.28911
#
# Poissons Ratio (x) = 0.39598 -0.13620
# Poissons Ratio (y) = 0.96683 0.14941
# Poissons Ratio (z) = -0.14499 0.06514
#
# Static dielectric constant tensor:
#      x y z
#    x 2.056490 0.000000 0.000000 
#    y 0.000000 2.131370 0.000000 
#    z 0.000000 0.000000 1.928530 
# 
# From -- ./inp_files/2781.got.cif
#   From: 2010.05.17/outbox.cif.g08.bks.cpg/sg43_2_cif.got.tgz:2781.got - 2010.06.03 19:21:55.
