data_PCOD9370724
_publ_section_title
;
Structure prediction by ZEFSAII (Michael W. Deem and Ramdas Pophale) SiO2 
 PCOD9370724
Probable space group: F D D 2
;
_chemical_formula_sum "Si O2"
_cell_formula_units_Z 120
_cell_length_a 14.677450
_cell_length_b 12.775752
_cell_length_c 28.386274
_cell_angle_alpha 90.000000
_cell_angle_beta 90.000000
_cell_angle_gamma 90.000000
_cell_volume 5322.865261
_symmetry_space_group_name_H-M "F D D 2"
_symmetry_group_IT_number 43
_symmetry_cell_setting 'orthorhombic'
loop_
_space_group_symop_operation_xyz
x,y,z
-x,-y,z
1/4-x,1/4+y,1/4+z
1/4+x,1/4-y,1/4+z
x,1/2+y,1/2+z
-x,1/2-y,1/2+z
1/4-x,3/4+y,3/4+z
1/4+x,3/4-y,3/4+z
1/2+x,y,1/2+z
1/2-x,-y,1/2+z
3/4-x,1/4+y,3/4+z
3/4+x,1/4-y,3/4+z
1/2+x,1/2+y,z
1/2-x,1/2-y,z
3/4-x,3/4+y,1/4+z
3/4+x,3/4-y,1/4+z
loop_
_atom_site_type_symbol
_atom_site_label
_atom_site_fract_x
_atom_site_fract_y
_atom_site_fract_z
Si Si1 0.172064 0.984530 0.053150
Si Si2 0.603963 0.524369 0.340859
Si Si3 0.392296 0.299674 0.691758
Si Si4 0.250000 0.750000 0.351365
Si Si5 0.126111 0.596798 0.028233
Si Si6 0.401741 0.220471 0.203620
Si Si7 0.923916 0.771275 0.919087
Si Si8 0.319171 0.345025 0.119167
O O1 0.129681 0.896041 0.085723
O O2 0.281756 0.959563 0.048789
O O3 0.147741 0.099975 0.071628
O O4 0.135692 0.966536 0.000823
O O5 0.500000 0.500000 0.355126
O O6 0.653412 0.482374 0.387205
O O7 0.610138 0.469204 0.289346
O O8 0.361048 0.207098 0.727466
O O9 0.495471 0.322508 0.707107
O O10 0.332898 0.406129 0.691354
O O11 0.207535 0.829935 0.313963
O O12 0.164268 0.719983 0.383979
O O13 0.338532 0.119044 0.203364
O O14 0.384743 0.292506 0.157837
O O15 0.014208 0.806025 0.891584
O O16 0.250000 0.250000 0.108045
#
# Coordination Sequence:
#
# PCOD9370724 Si02
#       8
#    16  16  16   8  16  16  16  16
#     4  10  21  40  61  84 122 174 206 246 324 401
#     4  10  20  39  58  83 125 159 201 261 321 378
#     4  11  21  38  62  92 120 165 215 263 322 387
#     4  12  18  38  64  94 124 152 206 286 316 370
#     4  10  22  35  60  95 121 155 208 270 323 373
#     4  10  22  39  59  89 125 166 213 266 321 383
#     4  11  19  39  64  88 128 159 211 276 327 372
#     4  10  22  40  63  90 127 170 210 272 328 380
#
# _framework density 22.544249000000001
#
# number of rings (size 3 to 8) (size 9 to 14) (size 15 to 20)
#    0.000    1.600    4.000    0.800    0.933    3.200 
#    2.400    6.000    0.000    0.000    0.000    0.000 
#    0.000    0.000    0.000    0.000    0.000    0.000 
#
# Total GULP energy -167046.038441 kJ/mol
# GULP energy per Si atom -5568.201281 kJ/mol
# Density = 2.249294 g / cm^3
# Si number density = 22.544249 Si / 1000 Ang^3
#
#
#
# Elastic Constant Matrix: (Units=GPa)
#
#
# Indices 1 2 3 4 5 6 
#
# 1 26.7068 1.9760 -0.0156 0.0000 0.0000 0.0000
# 2 1.9760 119.2532 50.9468 0.0000 0.0000 0.0000
# 3 -0.0156 50.9468 83.4053 0.0000 0.0000 0.0000
# 4 0.0000 0.0000 0.0000 26.3842 0.0000 0.0000
# 5 0.0000 0.0000 0.0000 0.0000 23.2429 0.0000
# 6 0.0000 0.0000 0.0000 0.0000 0.0000 20.7954
#
#
#
# Elastic Compliance Matrix: (Units=1/GPa)
#
#
# Indices 1 2 3 4 5 6 
#
# 1 0.037506 -0.000845 0.000523 0.000000 0.000000 0.000000
# 2 -0.000845 0.011366 -0.006943 0.000000 0.000000 0.000000
# 3 0.000523 -0.006943 0.016230 0.000000 0.000000 0.000000
# 4 0.000000 0.000000 0.000000 0.037902 0.000000 0.000000
# 5 0.000000 0.000000 0.000000 0.000000 0.043024 0.000000
# 6 0.000000 0.000000 0.000000 0.000000 0.000000 0.048088
#
#
# Mechanical properties :
#
#
# Convention : Reuss Voigt Hill
#
# Bulk Modulus (GPa) = 19.77315 37.24217 28.50766
# Shear Modulus (GPa) = 22.17275 25.84837 24.01056
#
# Velocity S-wave (km/s) = 3.13952 3.38977 3.26704
# Velocity P-wave (km/s) = 4.68316 5.64589 5.18691
#
# Compressibility (1/GPa) = 0.05057364
#
# Stress axis : x y z
#
# Youngs Moduli (GPa) = 26.66211 87.98557 61.61240
#
# Poissons Ratio (x) = 0.07434 -0.03223
# Poissons Ratio (y) = 0.02253 0.42775
# Poissons Ratio (z) = -0.01395 0.61085
#
# Static dielectric constant tensor:
#      x y z
#    x 1.902670 0.000000 0.000000 
#    y 0.000000 1.926750 0.000000 
#    z 0.000000 0.000000 1.909110 
# 
# From -- ./inp_files/26078.got.cif
#   From: 2010.05.17/outbox.cif.g08.bks.cpg/sg43_14_cif.got.tgz:26078.got - 2010.06.03 19:21:55.
