data_PCOD9370203
_publ_section_title
;
Structure prediction by ZEFSAII (Michael W. Deem and Ramdas Pophale) SiO2 
 PCOD9370203
Probable space group: F D D 2
;
_chemical_formula_sum "Si O2"
_cell_formula_units_Z 104
_cell_length_a 16.732201
_cell_length_b 10.448119
_cell_length_c 27.616164
_cell_angle_alpha 90.000000
_cell_angle_beta 90.000000
_cell_angle_gamma 90.000000
_cell_volume 4827.858541
_symmetry_space_group_name_H-M "F D D 2"
_symmetry_group_IT_number 43
_symmetry_cell_setting 'orthorhombic'
loop_
_space_group_symop_operation_xyz
x,y,z
-x,-y,z
1/4-x,1/4+y,1/4+z
1/4+x,1/4-y,1/4+z
x,1/2+y,1/2+z
-x,1/2-y,1/2+z
1/4-x,3/4+y,3/4+z
1/4+x,3/4-y,3/4+z
1/2+x,y,1/2+z
1/2-x,-y,1/2+z
3/4-x,1/4+y,3/4+z
3/4+x,1/4-y,3/4+z
1/2+x,1/2+y,z
1/2-x,1/2-y,z
3/4-x,3/4+y,1/4+z
3/4+x,3/4-y,1/4+z
loop_
_atom_site_type_symbol
_atom_site_label
_atom_site_fract_x
_atom_site_fract_y
_atom_site_fract_z
Si Si1 0.550401 0.190114 0.437190
Si Si2 0.916335 0.797018 0.487325
Si Si3 0.515949 0.227221 0.328806
Si Si4 0.932164 0.415519 0.083036
Si Si5 0.000000 0.000000 0.291528
Si Si6 0.865656 0.532394 0.927303
Si Si7 0.212390 0.611361 0.478822
O O1 0.471141 0.182779 0.469003
O O2 0.520233 0.171184 0.382313
O O3 0.585610 0.337327 0.440779
O O4 0.625192 0.106681 0.455105
O O5 0.962036 0.854785 0.533742
O O6 0.828990 0.762330 0.508231
O O7 0.908854 0.904380 0.445367
O O8 0.610376 0.241041 0.316704
O O9 0.489971 0.375381 0.324916
O O10 0.466526 0.159786 0.286606
O O11 0.901793 0.309365 0.120706
O O12 0.000000 0.500000 0.107778
O O13 0.779282 0.523200 0.953849
O O14 0.250000 0.750000 0.470250
#
# Coordination Sequence:
#
# PCOD9370203 Si02
#       7
#    16  16  16  16   8  16  16
#     4  10  22  35  64  94 119 168 222 265 334 391
#     4  11  22  36  59  90 121 165 217 274 318 399
#     4  10  21  39  62  89 128 172 213 272 332 398
#     4  10  19  32  59  95 119 158 215 278 335 382
#     4  10  22  40  60  84 130 170 212 270 336 378
#     4  10  18  35  59  90 125 155 209 279 327 378
#     4  10  20  39  59  94 132 161 206 276 339 392
#
# _framework density 21.541643000000001
#
# number of rings (size 3 to 8) (size 9 to 14) (size 15 to 20)
#    0.000    1.846    3.077    3.692    8.615    0.000 
#    0.000    3.846    0.000    0.000    0.000    0.000 
#    0.000    0.000    0.000    0.000    0.000    0.000 
#
# Total GULP energy -144983.409222 kJ/mol
# GULP energy per Si atom -5576.284970 kJ/mol
# Density = 2.149261 g / cm^3
# Si number density = 21.541643 Si / 1000 Ang^3
#
#
#
# Elastic Constant Matrix: (Units=GPa)
#
#
# Indices 1 2 3 4 5 6 
#
# 1 92.5365 28.2664 51.7315 0.0000 0.0000 0.0000
# 2 28.2664 29.9258 9.5361 0.0000 0.0000 0.0000
# 3 51.7315 9.5361 148.3189 0.0000 0.0000 0.0000
# 4 0.0000 0.0000 0.0000 24.7505 0.0000 0.0000
# 5 0.0000 0.0000 0.0000 0.0000 19.2110 0.0000
# 6 0.0000 0.0000 0.0000 0.0000 0.0000 31.6962
#
#
#
# Elastic Compliance Matrix: (Units=1/GPa)
#
#
# Indices 1 2 3 4 5 6 
#
# 1 0.018771 -0.015971 -0.005520 0.000000 0.000000 0.000000
# 2 -0.015971 0.047704 0.002503 0.000000 0.000000 0.000000
# 3 -0.005520 0.002503 0.008507 0.000000 0.000000 0.000000
# 4 0.000000 0.000000 0.000000 0.040403 0.000000 0.000000
# 5 0.000000 0.000000 0.000000 0.000000 0.052054 0.000000
# 6 0.000000 0.000000 0.000000 0.000000 0.000000 0.031550
#
#
# Mechanical properties :
#
#
# Convention : Reuss Voigt Hill
#
# Bulk Modulus (GPa) = 27.02293 49.98323 38.50308
# Shear Modulus (GPa) = 20.05622 27.21470 23.63546
#
# Velocity S-wave (km/s) = 3.05461 3.55822 3.31599
# Velocity P-wave (km/s) = 5.00126 6.33520 5.70733
#
# Compressibility (1/GPa) = 0.03700561
#
# Stress axis : x y z
#
# Youngs Moduli (GPa) = 53.27312 20.96267 117.55493
#
# Poissons Ratio (x) = 0.33480 0.64893
# Poissons Ratio (y) = 0.85084 -0.29429
# Poissons Ratio (z) = 0.29408 -0.05248
#
# Static dielectric constant tensor:
#      x y z
#    x 1.824290 0.000000 0.000000 
#    y 0.000000 1.824390 0.000000 
#    z 0.000000 0.000000 1.827150 
# 
# From -- ./inp_files/26028.got.cif
#   From: 2010.05.17/outbox.cif.g08.bks.cpg/sg43_14_cif.got.tgz:26028.got - 2010.06.03 19:21:55.
