data_PCOD9370602
_publ_section_title
;
Structure prediction by ZEFSAII (Michael W. Deem and Ramdas Pophale) SiO2 
 PCOD9370602
Probable space group: F D D 2
;
_chemical_formula_sum "Si O2"
_cell_formula_units_Z 120
_cell_length_a 28.654448
_cell_length_b 15.601265
_cell_length_c 12.070323
_cell_angle_alpha 90.000000
_cell_angle_beta 90.000000
_cell_angle_gamma 90.000000
_cell_volume 5395.985230
_symmetry_space_group_name_H-M "F D D 2"
_symmetry_group_IT_number 43
_symmetry_cell_setting 'orthorhombic'
loop_
_space_group_symop_operation_xyz
x,y,z
-x,-y,z
1/4-x,1/4+y,1/4+z
1/4+x,1/4-y,1/4+z
x,1/2+y,1/2+z
-x,1/2-y,1/2+z
1/4-x,3/4+y,3/4+z
1/4+x,3/4-y,3/4+z
1/2+x,y,1/2+z
1/2-x,-y,1/2+z
3/4-x,1/4+y,3/4+z
3/4+x,1/4-y,3/4+z
1/2+x,1/2+y,z
1/2-x,1/2-y,z
3/4-x,3/4+y,1/4+z
3/4+x,3/4-y,1/4+z
loop_
_atom_site_type_symbol
_atom_site_label
_atom_site_fract_x
_atom_site_fract_y
_atom_site_fract_z
Si Si1 0.000000 0.500000 0.118750
Si Si2 0.679501 0.485920 0.066009
Si Si3 0.341212 0.184903 0.765030
Si Si4 0.161615 0.711125 0.035876
Si Si5 0.723248 0.065217 0.128857
Si Si6 0.309810 0.900915 0.376288
Si Si7 0.639692 0.365931 0.904605
Si Si8 0.149955 0.441111 0.163223
O O1 0.962483 0.446260 0.047829
O O2 0.967027 0.568789 0.177537
O O3 0.721325 0.437551 0.124139
O O4 0.658590 0.567877 0.127595
O O5 0.703600 0.521718 0.954031
O O6 0.639344 0.428009 0.010358
O O7 0.364643 0.091816 0.754406
O O8 0.347362 0.241238 0.653555
O O9 0.369712 0.228125 0.867612
O O10 0.201506 0.639129 0.050807
O O11 0.171319 0.785748 0.946551
O O12 0.705968 0.088975 0.251383
O O13 0.699815 0.970231 0.113367
O O14 0.365780 0.885401 0.373325
O O15 0.653706 0.417143 0.793239
#
# Coordination Sequence:
#
# PCOD9370602 Si02
#       8
#     8  16  16  16  16  16  16  16
#     4  10  20  36  64  94 120 166 226 280 322 406
#     4  11  26  46  69 101 140 188 233 286 355 425
#     4  10  22  38  63  92 133 172 226 275 346 413
#     4  11  23  38  61 103 131 178 221 291 353 399
#     4  11  22  43  68 101 133 181 241 282 345 431
#     4  10  21  42  67  98 130 183 223 291 345 413
#     4  11  24  43  68  98 143 184 229 292 365 409
#     4   9  20  43  66  92 130 183 234 275 347 414
#
# _framework density 22.238755999999999
#
# number of rings (size 3 to 8) (size 9 to 14) (size 15 to 20)
#    0.000    1.600    4.000    0.800    3.733    2.667 
#    4.800    1.333    0.000    0.000    0.000    0.000 
#    0.000    0.000    0.000    0.000    0.000    0.000 
#
# Total GULP energy -167084.997204 kJ/mol
# GULP energy per Si atom -5569.499907 kJ/mol
# Density = 2.218814 g / cm^3
# Si number density = 22.238756 Si / 1000 Ang^3
#
#
#
# Elastic Constant Matrix: (Units=GPa)
#
#
# Indices 1 2 3 4 5 6 
#
# 1 88.9079 12.1700 28.9025 0.0000 0.0000 0.0000
# 2 12.1700 79.0139 31.3536 0.0000 0.0000 0.0000
# 3 28.9025 31.3536 93.1295 0.0000 0.0000 0.0000
# 4 0.0000 0.0000 0.0000 49.8243 0.0000 0.0000
# 5 0.0000 0.0000 0.0000 0.0000 14.1603 0.0000
# 6 0.0000 0.0000 0.0000 0.0000 0.0000 30.8858
#
#
#
# Elastic Compliance Matrix: (Units=1/GPa)
#
#
# Indices 1 2 3 4 5 6 
#
# 1 0.012523 -0.000446 -0.003736 0.000000 0.000000 0.000000
# 2 -0.000446 0.014623 -0.004785 0.000000 0.000000 0.000000
# 3 -0.003736 -0.004785 0.013508 0.000000 0.000000 0.000000
# 4 0.000000 0.000000 0.000000 0.020071 0.000000 0.000000
# 5 0.000000 0.000000 0.000000 0.000000 0.070620 0.000000
# 6 0.000000 0.000000 0.000000 0.000000 0.000000 0.032377
#
#
# Mechanical properties :
#
#
# Convention : Reuss Voigt Hill
#
# Bulk Modulus (GPa) = 44.01365 45.10037 44.55701
# Shear Modulus (GPa) = 26.42280 31.54911 28.98596
#
# Velocity S-wave (km/s) = 3.45068 3.77059 3.61418
# Velocity P-wave (km/s) = 5.97584 6.26742 6.12337
#
# Compressibility (1/GPa) = 0.02272022
#
# Stress axis : x y z
#
# Youngs Moduli (GPa) = 79.85113 68.38374 74.02940
#
# Poissons Ratio (x) = 0.03052 0.27660
# Poissons Ratio (y) = 0.03563 0.35421
# Poissons Ratio (z) = 0.29835 0.32720
#
# Static dielectric constant tensor:
#      x y z
#    x 1.844740 0.000000 0.000000 
#    y 0.000000 1.957880 0.000000 
#    z 0.000000 0.000000 1.870530 
# 
# From -- ./inp_files/8368.got.cif
#   From: 2010.05.17/outbox.cif.g08.bks.cpg/sg43_5_cif.got.tgz:8368.got - 2010.06.03 19:21:55.
