data_PCOD9370187
_publ_section_title
;
Structure prediction by ZEFSAII (Michael W. Deem and Ramdas Pophale) SiO2 
 PCOD9370187
Probable space group: F D D 2
;
_chemical_formula_sum "Si O2"
_cell_formula_units_Z 104
_cell_length_a 19.895597
_cell_length_b 8.759747
_cell_length_c 33.693065
_cell_angle_alpha 90.000000
_cell_angle_beta 90.000000
_cell_angle_gamma 90.000000
_cell_volume 5872.040715
_symmetry_space_group_name_H-M "F D D 2"
_symmetry_group_IT_number 43
_symmetry_cell_setting 'orthorhombic'
loop_
_space_group_symop_operation_xyz
x,y,z
-x,-y,z
1/4-x,1/4+y,1/4+z
1/4+x,1/4-y,1/4+z
x,1/2+y,1/2+z
-x,1/2-y,1/2+z
1/4-x,3/4+y,3/4+z
1/4+x,3/4-y,3/4+z
1/2+x,y,1/2+z
1/2-x,-y,1/2+z
3/4-x,1/4+y,3/4+z
3/4+x,1/4-y,3/4+z
1/2+x,1/2+y,z
1/2-x,1/2-y,z
3/4-x,3/4+y,1/4+z
3/4+x,3/4-y,1/4+z
loop_
_atom_site_type_symbol
_atom_site_label
_atom_site_fract_x
_atom_site_fract_y
_atom_site_fract_z
Si Si1 0.213032 0.004704 0.819160
Si Si2 0.580513 0.017434 0.426918
Si Si3 0.928830 0.973474 0.140674
Si Si4 0.250000 0.250000 0.048571
Si Si5 0.368812 0.942430 0.515715
Si Si6 0.848779 0.040125 0.599434
Si Si7 0.135511 0.035578 0.327253
O O1 0.169327 0.150592 0.831032
O O2 0.203375 0.890928 0.856199
O O3 0.178089 0.912361 0.783875
O O4 0.291492 0.023510 0.812851
O O5 0.612401 0.037858 0.470182
O O6 0.596144 0.153816 0.395273
O O7 0.500000 0.000000 0.429003
O O8 0.618094 0.865321 0.411259
O O9 0.899120 0.119001 0.117645
O O10 0.000000 0.000000 0.163708
O O11 0.300860 0.348235 0.022465
O O12 0.207717 0.361796 0.076911
O O13 0.362969 0.095377 0.543003
O O14 0.842132 0.862012 0.589048
#
# Coordination Sequence:
#
# PCOD9370187 Si02
#       7
#    16  16  16   8  16  16  16
#     4   8  16  34  59  81 113 151 194 241 295 371
#     4  11  21  38  60  86 120 163 198 255 322 363
#     4   8  17  35  54  82 118 152 192 243 300 364
#     4  10  22  44  54  80 122 164 202 236 308 376
#     4  10  21  38  60  83 119 162 199 250 306 365
#     4  10  20  35  61  86 117 156 205 249 296 366
#     4  10  18  34  60  90 109 153 208 247 288 371
#
# _framework density 17.711048000000002
#
# number of rings (size 3 to 8) (size 9 to 14) (size 15 to 20)
#    0.000    2.462    0.769    3.692    0.000    0.615 
#   11.077    1.538    0.000    0.000    0.000    0.000 
#    0.000    0.000    0.000    0.000    0.000    0.000 
#
# Total GULP energy -144782.797208 kJ/mol
# GULP energy per Si atom -5568.569123 kJ/mol
# Density = 1.767074 g / cm^3
# Si number density = 17.711048 Si / 1000 Ang^3
#
#
#
# Elastic Constant Matrix: (Units=GPa)
#
#
# Indices 1 2 3 4 5 6 
#
# 1 113.4819 56.7927 49.8909 0.0000 0.0000 0.0000
# 2 56.7927 128.8642 55.6163 0.0000 0.0000 0.0000
# 3 49.8909 55.6163 111.2828 0.0000 0.0000 0.0000
# 4 0.0000 0.0000 0.0000 7.6494 0.0000 0.0000
# 5 0.0000 0.0000 0.0000 0.0000 10.5150 0.0000
# 6 0.0000 0.0000 0.0000 0.0000 0.0000 8.8973
#
#
#
# Elastic Compliance Matrix: (Units=1/GPa)
#
#
# Indices 1 2 3 4 5 6 
#
# 1 0.012335 -0.003888 -0.003587 0.000000 0.000000 0.000000
# 2 -0.003888 0.011120 -0.003814 0.000000 0.000000 0.000000
# 3 -0.003587 -0.003814 0.012500 0.000000 0.000000 0.000000
# 4 0.000000 0.000000 0.000000 0.130730 0.000000 0.000000
# 5 0.000000 0.000000 0.000000 0.000000 0.095102 0.000000
# 6 0.000000 0.000000 0.000000 0.000000 0.000000 0.112394
#
#
# Mechanical properties :
#
#
# Convention : Reuss Voigt Hill
#
# Bulk Modulus (GPa) = 74.75709 75.35873 75.05791
# Shear Modulus (GPa) = 12.46206 18.16760 15.31483
#
# Velocity S-wave (km/s) = 2.65548 3.20625 2.94378
# Velocity P-wave (km/s) = 7.19048 7.50654 7.35021
#
# Compressibility (1/GPa) = 0.01337666
#
# Stress axis : x y z
#
# Youngs Moduli (GPa) = 81.07222 89.92913 79.99719
#
# Poissons Ratio (x) = 0.34965 0.28693
# Poissons Ratio (y) = 0.31522 0.30513
# Poissons Ratio (z) = 0.29079 0.34302
#
# Static dielectric constant tensor:
#      x y z
#    x 1.649790 0.000000 0.000000 
#    y 0.000000 1.645190 0.000000 
#    z 0.000000 0.000000 1.589150 
# 
# From -- ./inp_files/28031.got.cif
#   From: 2010.05.17/outbox.cif.g08.bks.cpg/sg43_15_cif.got.tgz:28031.got - 2010.06.03 19:21:55.
