data_PCOD9370280
_publ_section_title
;
Structure prediction by ZEFSAII (Michael W. Deem and Ramdas Pophale) SiO2 
 PCOD9370280
Probable space group: F D D 2
;
_chemical_formula_sum "Si O2"
_cell_formula_units_Z 88
_cell_length_a 24.002313
_cell_length_b 15.310059
_cell_length_c 11.849782
_cell_angle_alpha 90.000000
_cell_angle_beta 90.000000
_cell_angle_gamma 90.000000
_cell_volume 4354.520304
_symmetry_space_group_name_H-M "F D D 2"
_symmetry_group_IT_number 43
_symmetry_cell_setting 'orthorhombic'
loop_
_space_group_symop_operation_xyz
x,y,z
-x,-y,z
1/4-x,1/4+y,1/4+z
1/4+x,1/4-y,1/4+z
x,1/2+y,1/2+z
-x,1/2-y,1/2+z
1/4-x,3/4+y,3/4+z
1/4+x,3/4-y,3/4+z
1/2+x,y,1/2+z
1/2-x,-y,1/2+z
3/4-x,1/4+y,3/4+z
3/4+x,1/4-y,3/4+z
1/2+x,1/2+y,z
1/2-x,1/2-y,z
3/4-x,3/4+y,1/4+z
3/4+x,3/4-y,1/4+z
loop_
_atom_site_type_symbol
_atom_site_label
_atom_site_fract_x
_atom_site_fract_y
_atom_site_fract_z
Si Si1 0.853372 0.152994 0.363230
Si Si2 0.250000 0.250000 0.878519
Si Si3 0.546631 0.322911 0.739001
Si Si4 0.084012 0.558071 0.379514
Si Si5 0.030579 0.877281 0.961052
Si Si6 0.188426 0.033133 0.428041
O O1 0.800561 0.205880 0.310647
O O2 0.847054 0.181293 0.495836
O O3 0.844808 0.048774 0.371664
O O4 0.906294 0.183545 0.290003
O O5 0.227770 0.168535 0.953305
O O6 0.606325 0.319174 0.684119
O O7 0.553823 0.308151 0.871956
O O8 0.499546 0.256051 0.701069
O O9 0.214281 0.371268 0.180518
O O10 0.058983 0.466021 0.418376
O O11 0.049861 0.857456 0.086065
#
# Coordination Sequence:
#
# PCOD9370280 Si02
#       6
#    16   8  16  16  16  16
#     4  11  22  46  65 104 130 189 221 297 328 434
#     4  10  18  40  68  96 124 174 250 268 330 418
#     4  11  23  39  70  99 127 185 226 292 341 418
#     4  11  23  44  75  88 141 182 245 268 354 421
#     4  11  24  45  65 106 130 182 236 290 337 434
#     4  11  27  41  69 101 147 165 237 285 361 391
#
# _framework density 20.208884999999999
#
# number of rings (size 3 to 8) (size 9 to 14) (size 15 to 20)
#    0.000    1.091    5.455    1.091    7.636    0.000 
#    0.000    0.000    0.000    0.000    0.000    0.000 
#    0.000    0.000    0.000    0.000    0.000    0.000 
#
# Total GULP energy -122517.218009 kJ/mol
# GULP energy per Si atom -5568.964455 kJ/mol
# Density = 2.016289 g / cm^3
# Si number density = 20.208885 Si / 1000 Ang^3
#
#
#
# Elastic Constant Matrix: (Units=GPa)
#
#
# Indices 1 2 3 4 5 6 
#
# 1 171.0212 33.2142 79.4574 0.0000 0.0000 0.0000
# 2 33.2142 49.8936 42.2967 0.0000 0.0000 0.0000
# 3 79.4574 42.2967 112.0997 0.0000 0.0000 0.0000
# 4 0.0000 0.0000 0.0000 10.0843 0.0000 0.0000
# 5 0.0000 0.0000 0.0000 0.0000 32.0620 0.0000
# 6 0.0000 0.0000 0.0000 0.0000 0.0000 9.8362
#
#
#
# Elastic Compliance Matrix: (Units=1/GPa)
#
#
# Indices 1 2 3 4 5 6 
#
# 1 0.008742 -0.000833 -0.005882 0.000000 0.000000 0.000000
# 2 -0.000833 0.029548 -0.010558 0.000000 0.000000 0.000000
# 3 -0.005882 -0.010558 0.017074 0.000000 0.000000 0.000000
# 4 0.000000 0.000000 0.000000 0.099164 0.000000 0.000000
# 5 0.000000 0.000000 0.000000 0.000000 0.031190 0.000000
# 6 0.000000 0.000000 0.000000 0.000000 0.000000 0.101665
#
#
# Mechanical properties :
#
#
# Convention : Reuss Voigt Hill
#
# Bulk Modulus (GPa) = 48.03848 71.43901 59.73874
# Shear Modulus (GPa) = 15.20368 22.26626 18.73497
#
# Velocity S-wave (km/s) = 2.74583 3.32295 3.04808
# Velocity P-wave (km/s) = 5.82026 7.08164 6.48171
#
# Compressibility (1/GPa) = 0.02081665
#
# Stress axis : x y z
#
# Youngs Moduli (GPa) = 114.39287 33.84329 58.56990
#
# Poissons Ratio (x) = 0.02819 0.34451
# Poissons Ratio (y) = 0.09530 0.61840
# Poissons Ratio (z) = 0.67285 0.35733
#
# Static dielectric constant tensor:
#      x y z
#    x 1.770310 0.000000 0.000000 
#    y 0.000000 1.796250 0.000000 
#    z 0.000000 0.000000 1.746620 
# 
# From -- ./inp_files/6140.got.cif
#   From: 2010.05.17/outbox.cif.g08.bks.cpg/sg43_4_cif.got.tgz:6140.got - 2010.06.03 19:21:55.
