data_PCOD9370236
_publ_section_title
;
Structure prediction by ZEFSAII (Michael W. Deem and Ramdas Pophale) SiO2 
 PCOD9370236
Probable space group: F D D 2
;
_chemical_formula_sum "Si O2"
_cell_formula_units_Z 88
_cell_length_a 28.431483
_cell_length_b 11.771279
_cell_length_c 9.808865
_cell_angle_alpha 90.000000
_cell_angle_beta 90.000000
_cell_angle_gamma 90.000000
_cell_volume 3282.781097
_symmetry_space_group_name_H-M "F D D 2"
_symmetry_group_IT_number 43
_symmetry_cell_setting 'orthorhombic'
loop_
_space_group_symop_operation_xyz
x,y,z
-x,-y,z
1/4-x,1/4+y,1/4+z
1/4+x,1/4-y,1/4+z
x,1/2+y,1/2+z
-x,1/2-y,1/2+z
1/4-x,3/4+y,3/4+z
1/4+x,3/4-y,3/4+z
1/2+x,y,1/2+z
1/2-x,-y,1/2+z
3/4-x,1/4+y,3/4+z
3/4+x,1/4-y,3/4+z
1/2+x,1/2+y,z
1/2-x,1/2-y,z
3/4-x,3/4+y,1/4+z
3/4+x,3/4-y,1/4+z
loop_
_atom_site_type_symbol
_atom_site_label
_atom_site_fract_x
_atom_site_fract_y
_atom_site_fract_z
Si Si1 0.422649 0.136947 0.270040
Si Si2 0.413874 0.400938 0.325571
Si Si3 0.931868 0.400508 0.402026
Si Si4 0.897009 0.844467 0.615537
Si Si5 0.455251 0.174948 0.979026
Si Si6 0.250000 0.750000 0.035884
O O1 0.421711 0.270254 0.300372
O O2 0.367787 0.123331 0.226424
O O3 0.436426 0.035822 0.374614
O O4 0.453695 0.129879 0.132684
O O5 0.364574 0.467337 0.312306
O O6 0.418377 0.412783 0.489843
O O7 0.449657 0.469080 0.226097
O O8 0.928843 0.352650 0.247243
O O9 0.966088 0.309866 0.473946
O O10 0.846643 0.897172 0.663285
O O11 0.489917 0.107877 0.881247
#
# Coordination Sequence:
#
# PCOD9370236 Si02
#       6
#    16  16  16  16  16   8
#     4  11  21  35  62  95 126 155 211 274 323 371
#     4  11  22  39  60  97 124 167 211 274 320 386
#     4  11  18  36  63  93 122 159 211 265 313 385
#     4  10  18  36  65  88 117 162 218 252 308 379
#     4  10  21  41  63  90 124 170 213 259 318 398
#     4  10  24  44  58  84 134 170 216 254 340 392
#
# _framework density 26.806539000000001
#
# number of rings (size 3 to 8) (size 9 to 14) (size 15 to 20)
#    0.000    1.455    5.455    3.273    0.000    0.000 
#    6.545    0.000    0.000    0.000    0.000    0.000 
#    0.000    0.000    0.000    0.000    0.000    0.000 
#
# Total GULP energy -122776.006456 kJ/mol
# GULP energy per Si atom -5580.727566 kJ/mol
# Density = 2.674553 g / cm^3
# Si number density = 26.806539 Si / 1000 Ang^3
#
#
#
# Elastic Constant Matrix: (Units=GPa)
#
#
# Indices 1 2 3 4 5 6 
#
# 1 30.1413 9.2326 -4.1358 0.0000 0.0000 0.0000
# 2 9.2326 236.4953 12.3494 0.0000 0.0000 0.0000
# 3 -4.1358 12.3494 28.0355 0.0000 0.0000 0.0000
# 4 0.0000 0.0000 0.0000 45.8650 0.0000 0.0000
# 5 0.0000 0.0000 0.0000 0.0000 8.2617 0.0000
# 6 0.0000 0.0000 0.0000 0.0000 0.0000 29.9395
#
#
#
# Elastic Compliance Matrix: (Units=1/GPa)
#
#
# Indices 1 2 3 4 5 6 
#
# 1 0.034480 -0.001650 0.005813 0.000000 0.000000 0.000000
# 2 -0.001650 0.004407 -0.002185 0.000000 0.000000 0.000000
# 3 0.005813 -0.002185 0.037489 0.000000 0.000000 0.000000
# 4 0.000000 0.000000 0.000000 0.021803 0.000000 0.000000
# 5 0.000000 0.000000 0.000000 0.000000 0.121041 0.000000
# 6 0.000000 0.000000 0.000000 0.000000 0.000000 0.033401
#
#
# Mechanical properties :
#
#
# Convention : Reuss Voigt Hill
#
# Bulk Modulus (GPa) = 12.44807 36.61826 24.53317
# Shear Modulus (GPa) = 18.15276 35.29498 26.72387
#
# Velocity S-wave (km/s) = 2.60509 3.63251 3.16082
# Velocity P-wave (km/s) = 3.70167 5.59315 4.74267
#
# Compressibility (1/GPa) = 0.08033374
#
# Stress axis : x y z
#
# Youngs Moduli (GPa) = 29.00227 226.91751 26.67459
#
# Poissons Ratio (x) = 0.37433 -0.15506
# Poissons Ratio (y) = 0.04784 0.05827
# Poissons Ratio (z) = -0.16859 0.49571
#
# Static dielectric constant tensor:
#      x y z
#    x 2.235520 0.000000 0.000000 
#    y 0.000000 2.379580 0.000000 
#    z 0.000000 0.000000 2.191910 
# 
# From -- ./inp_files/8229.got.cif
#   From: 2010.05.17/outbox.cif.g08.bks.cpg/sg43_5_cif.got.tgz:8229.got - 2010.06.03 19:21:55.
