data_PCOD9370060
_publ_section_title
;
Structure prediction by ZEFSAII (Michael W. Deem and Ramdas Pophale) SiO2 
 PCOD9370060
Probable space group: F D D 2
;
_chemical_formula_sum "Si O2"
_cell_formula_units_Z 128
_cell_length_a 23.286958
_cell_length_b 9.806827
_cell_length_c 25.056938
_cell_angle_alpha 90.000000
_cell_angle_beta 90.000000
_cell_angle_gamma 90.000000
_cell_volume 5722.282209
_symmetry_space_group_name_H-M "F D D 2"
_symmetry_group_IT_number 43
_symmetry_cell_setting 'orthorhombic'
loop_
_space_group_symop_operation_xyz
x,y,z
-x,-y,z
1/4-x,1/4+y,1/4+z
1/4+x,1/4-y,1/4+z
x,1/2+y,1/2+z
-x,1/2-y,1/2+z
1/4-x,3/4+y,3/4+z
1/4+x,3/4-y,3/4+z
1/2+x,y,1/2+z
1/2-x,-y,1/2+z
3/4-x,1/4+y,3/4+z
3/4+x,1/4-y,3/4+z
1/2+x,1/2+y,z
1/2-x,1/2-y,z
3/4-x,3/4+y,1/4+z
3/4+x,3/4-y,1/4+z
loop_
_atom_site_type_symbol
_atom_site_label
_atom_site_fract_x
_atom_site_fract_y
_atom_site_fract_z
Si Si1 0.488844 0.158456 0.465120
Si Si2 0.379912 0.782102 0.484431
Si Si3 0.455060 0.887074 0.159125
Si Si4 0.054447 0.842414 0.081623
Si Si5 0.430596 0.393213 0.136076
Si Si6 0.708137 0.471901 0.988802
Si Si7 0.235855 0.028145 0.102631
Si Si8 0.339681 0.202617 0.092744
O O1 0.552429 0.204833 0.480608
O O2 0.449384 0.159911 0.517842
O O3 0.467330 0.244844 0.414118
O O4 0.500000 0.000000 0.448678
O O5 0.347762 0.712133 0.436014
O O6 0.367032 0.687907 0.535213
O O7 0.347088 0.926966 0.491981
O O8 0.430582 0.795175 0.111731
O O9 0.491521 0.803946 0.205430
O O10 0.500000 0.000000 0.138684
O O11 0.988938 0.861726 0.103699
O O12 0.089650 0.969308 0.106661
O O13 0.443317 0.402254 0.198887
O O14 0.388800 0.264367 0.130125
O O15 0.726167 0.438973 0.049598
O O16 0.302540 0.072550 0.107583
O O17 0.202804 0.167867 0.088001
#
# Coordination Sequence:
#
# PCOD9370060 Si02
#       8
#    16  16  16  16  16  16  16  16
#     4  12  20  33  52  91 125 147 189 260 314 350
#     4  10  18  31  54  84 116 148 194 245 299 356
#     4   9  18  35  56  83 115 151 205 255 285 348
#     4  10  20  34  55  87 118 152 195 252 307 356
#     4  10  18  32  54  83 120 150 188 240 310 361
#     4   9  18  31  52  84 115 150 189 244 298 350
#     4  10  20  30  51  84 122 149 189 250 290 344
#     4  10  16  30  50  82 117 147 189 241 304 342
#
# _framework density 22.368698999999999
#
# number of rings (size 3 to 8) (size 9 to 14) (size 15 to 20)
#    0.000    2.000    5.000    0.750    0.000    0.000 
#    0.000    0.000    0.000    6.000    6.500    0.000 
#    0.000    0.000    0.000    0.000    0.000    0.000 
#
# Total GULP energy -178429.769564 kJ/mol
# GULP energy per Si atom -5575.930299 kJ/mol
# Density = 2.231779 g / cm^3
# Si number density = 22.368699 Si / 1000 Ang^3
#
#
#
# Elastic Constant Matrix: (Units=GPa)
#
#
# Indices 1 2 3 4 5 6 
#
# 1 48.6026 9.2513 22.9364 0.0000 0.0000 0.0000
# 2 9.2513 38.4702 47.7232 0.0000 0.0000 0.0000
# 3 22.9364 47.7232 209.7515 0.0000 0.0000 0.0000
# 4 0.0000 0.0000 0.0000 19.6853 0.0000 0.0000
# 5 0.0000 0.0000 0.0000 0.0000 21.1362 0.0000
# 6 0.0000 0.0000 0.0000 0.0000 0.0000 14.4307
#
#
#
# Elastic Compliance Matrix: (Units=1/GPa)
#
#
# Indices 1 2 3 4 5 6 
#
# 1 0.021975 -0.003209 -0.001673 0.000000 0.000000 0.000000
# 2 -0.003209 0.036685 -0.007996 0.000000 0.000000 0.000000
# 3 -0.001673 -0.007996 0.006770 0.000000 0.000000 0.000000
# 4 0.000000 0.000000 0.000000 0.050799 0.000000 0.000000
# 5 0.000000 0.000000 0.000000 0.000000 0.047312 0.000000
# 6 0.000000 0.000000 0.000000 0.000000 0.000000 0.069297
#
#
# Mechanical properties :
#
#
# Convention : Reuss Voigt Hill
#
# Bulk Modulus (GPa) = 25.20547 50.73844 37.97195
# Shear Modulus (GPa) = 18.39464 25.51135 21.95299
#
# Velocity S-wave (km/s) = 2.87076 3.38078 3.13615
# Velocity P-wave (km/s) = 4.72027 6.16211 5.48874
#
# Compressibility (1/GPa) = 0.03967393
#
# Stress axis : x y z
#
# Youngs Moduli (GPa) = 45.50555 27.25930 147.71806
#
# Poissons Ratio (x) = 0.08749 0.24710
# Poissons Ratio (y) = 0.14605 1.18110
# Poissons Ratio (z) = 0.07612 0.21796
#
# Static dielectric constant tensor:
#      x y z
#    x 1.885520 0.000000 0.000000 
#    y 0.000000 1.860840 0.000000 
#    z 0.000000 0.000000 1.903730 
# 
# From -- ./inp_files/22663.got.cif
#   From: 2010.05.17/outbox.cif.g08.bks.cpg/sg43_12_cif.got.tgz:22663.got - 2010.06.03 19:21:55.
