data_PCOD9370069
_publ_section_title
;
Structure prediction by ZEFSAII (Michael W. Deem and Ramdas Pophale) SiO2 
 PCOD9370069
Probable space group: F D D 2
;
_chemical_formula_sum "Si O2"
_cell_formula_units_Z 112
_cell_length_a 13.219140
_cell_length_b 13.501899
_cell_length_c 30.101345
_cell_angle_alpha 90.000000
_cell_angle_beta 90.000000
_cell_angle_gamma 90.000000
_cell_volume 5372.593204
_symmetry_space_group_name_H-M "F D D 2"
_symmetry_group_IT_number 43
_symmetry_cell_setting 'orthorhombic'
loop_
_space_group_symop_operation_xyz
x,y,z
-x,-y,z
1/4-x,1/4+y,1/4+z
1/4+x,1/4-y,1/4+z
x,1/2+y,1/2+z
-x,1/2-y,1/2+z
1/4-x,3/4+y,3/4+z
1/4+x,3/4-y,3/4+z
1/2+x,y,1/2+z
1/2-x,-y,1/2+z
3/4-x,1/4+y,3/4+z
3/4+x,1/4-y,3/4+z
1/2+x,1/2+y,z
1/2-x,1/2-y,z
3/4-x,3/4+y,1/4+z
3/4+x,3/4-y,1/4+z
loop_
_atom_site_type_symbol
_atom_site_label
_atom_site_fract_x
_atom_site_fract_y
_atom_site_fract_z
Si Si1 0.347364 0.180417 0.330840
Si Si2 0.903342 0.927822 0.622212
Si Si3 0.881736 0.471640 0.293931
Si Si4 0.009805 0.704420 0.194759
Si Si5 0.325442 0.335374 0.165768
Si Si6 0.940823 0.260272 0.292442
Si Si7 0.663166 0.956135 0.203618
O O1 0.250000 0.250000 0.328409
O O2 0.392157 0.166122 0.379947
O O3 0.439577 0.223688 0.301533
O O4 0.328444 0.065109 0.317057
O O5 0.931748 0.829147 0.650036
O O6 0.852786 0.923474 0.573639
O O7 0.833690 0.987101 0.657231
O O8 0.000000 0.000000 0.619082
O O9 0.884063 0.359736 0.310902
O O10 0.838500 0.470292 0.244375
O O11 0.000000 0.500000 0.292722
O O12 0.069264 0.738730 0.238955
O O13 0.926842 0.785665 0.182676
O O14 0.940176 0.607999 0.206381
O O15 0.250000 0.250000 0.145745
O O16 0.257241 0.382198 0.204284
#
# Coordination Sequence:
#
# PCOD9370069 Si02
#       7
#    16  16  16  16  16  16  16
#     4  11  23  34  54  87 123 161 200 252 310 374
#     4  10  20  34  57  90 124 160 200 265 321 368
#     4  10  18  31  54  88 125 150 192 264 312 364
#     4  10  20  33  58  91 125 159 204 264 309 375
#     4  10  21  35  61  90 121 157 211 257 316 374
#     4  11  20  36  60  91 123 157 212 259 317 375
#     4  10  16  31  54  91 124 151 188 262 324 357
#
# _framework density 20.846544000000002
#
# number of rings (size 3 to 8) (size 9 to 14) (size 15 to 20)
#    0.000    1.714    5.714    1.714    6.000    0.000 
#    0.000    0.000    6.286    0.000    0.000    0.000 
#    0.000    0.000    0.000    0.000    0.000    0.000 
#
# Total GULP energy -156086.322598 kJ/mol
# GULP energy per Si atom -5574.511521 kJ/mol
# Density = 2.079910 g / cm^3
# Si number density = 20.846544 Si / 1000 Ang^3
#
#
#
# Elastic Constant Matrix: (Units=GPa)
#
#
# Indices 1 2 3 4 5 6 
#
# 1 67.9109 44.7615 43.4561 0.0000 0.0000 0.0000
# 2 44.7615 49.5130 28.3131 0.0000 0.0000 0.0000
# 3 43.4561 28.3131 108.9243 0.0000 0.0000 0.0000
# 4 0.0000 0.0000 0.0000 20.3083 0.0000 0.0000
# 5 0.0000 0.0000 0.0000 0.0000 14.9717 0.0000
# 6 0.0000 0.0000 0.0000 0.0000 0.0000 39.2157
#
#
#
# Elastic Compliance Matrix: (Units=1/GPa)
#
#
# Indices 1 2 3 4 5 6 
#
# 1 0.041658 -0.033072 -0.008023 0.000000 0.000000 0.000000
# 2 -0.033072 0.049979 0.000203 0.000000 0.000000 0.000000
# 3 -0.008023 0.000203 0.012329 0.000000 0.000000 0.000000
# 4 0.000000 0.000000 0.000000 0.049241 0.000000 0.000000
# 5 0.000000 0.000000 0.000000 0.000000 0.066793 0.000000
# 6 0.000000 0.000000 0.000000 0.000000 0.000000 0.025500
#
#
# Mechanical properties :
#
#
# Convention : Reuss Voigt Hill
#
# Bulk Modulus (GPa) = 45.08312 51.04549 48.06431
# Shear Modulus (GPa) = 14.93978 22.22032 18.58005
#
# Velocity S-wave (km/s) = 2.67995 3.26835 2.98867
# Velocity P-wave (km/s) = 5.59011 6.22754 5.91741
#
# Compressibility (1/GPa) = 0.02218125
#
# Stress axis : x y z
#
# Youngs Moduli (GPa) = 24.00519 20.00842 81.11138
#
# Poissons Ratio (x) = 0.66172 0.65076
# Poissons Ratio (y) = 0.79390 -0.01648
# Poissons Ratio (z) = 0.19259 -0.00406
#
# Static dielectric constant tensor:
#      x y z
#    x 1.734990 0.000000 0.000000 
#    y 0.000000 1.781300 0.000000 
#    z 0.000000 0.000000 1.823880 
# 
# From -- ./inp_files/28639.got.cif
#   From: 2010.05.17/outbox.cif.g08.bks.cpg/sg43_15_cif.got.tgz:28639.got - 2010.06.03 19:21:55.
