data_PCOD9370923
_publ_section_title
;
Structure prediction by ZEFSAII (Michael W. Deem and Ramdas Pophale) SiO2 
 PCOD9370923
Probable space group: F D D 2
;
_chemical_formula_sum "Si O2"
_cell_formula_units_Z 72
_cell_length_a 17.236659
_cell_length_b 8.050317
_cell_length_c 22.256930
_cell_angle_alpha 90.000000
_cell_angle_beta 90.000000
_cell_angle_gamma 90.000000
_cell_volume 3088.384270
_symmetry_space_group_name_H-M "F D D 2"
_symmetry_group_IT_number 43
_symmetry_cell_setting 'orthorhombic'
loop_
_space_group_symop_operation_xyz
x,y,z
-x,-y,z
1/4-x,1/4+y,1/4+z
1/4+x,1/4-y,1/4+z
x,1/2+y,1/2+z
-x,1/2-y,1/2+z
1/4-x,3/4+y,3/4+z
1/4+x,3/4-y,3/4+z
1/2+x,y,1/2+z
1/2-x,-y,1/2+z
3/4-x,1/4+y,3/4+z
3/4+x,1/4-y,3/4+z
1/2+x,1/2+y,z
1/2-x,1/2-y,z
3/4-x,3/4+y,1/4+z
3/4+x,3/4-y,1/4+z
loop_
_atom_site_type_symbol
_atom_site_label
_atom_site_fract_x
_atom_site_fract_y
_atom_site_fract_z
Si Si1 0.729220 0.944008 0.821490
Si Si2 0.202938 0.975548 0.946916
Si Si3 0.203039 0.415672 0.196289
Si Si4 0.898600 0.620056 0.745805
Si Si5 0.250000 0.250000 0.675231
O O1 0.750000 0.750000 0.826916
O O2 0.637374 0.944715 0.808190
O O3 0.755992 0.026014 0.882483
O O4 0.770097 0.030015 0.763872
O O5 0.273752 0.978352 0.994568
O O6 0.163609 0.798504 0.959169
O O7 0.137636 0.117458 0.947530
O O8 0.250000 0.250000 0.180439
O O9 0.229587 0.565584 0.152444
O O10 0.828643 0.716655 0.713811
#
# Coordination Sequence:
#
# PCOD9370923 Si02
#       5
#    16  16  16  16   8
#     4  11  24  45  70 103 149 191 241 306 367 437
#     4  11  25  40  77 107 138 204 244 288 391 437
#     4  11  21  44  72 102 155 186 235 316 360 431
#     4  10  22  45  67 104 150 186 246 306 353 440
#     4  10  20  42  68  96 146 190 222 306 366 408
#
# _framework density 23.313162999999999
#
# number of rings (size 3 to 8) (size 9 to 14) (size 15 to 20)
#    0.000    1.333    8.889    0.000    6.222    0.000 
#    0.000    6.667    0.000    0.000    0.000    0.000 
#    0.000    0.000    0.000    0.000    0.000    0.000 
#
# Total GULP energy -100398.190020 kJ/mol
# GULP energy per Si atom -5577.677223 kJ/mol
# Density = 2.326010 g / cm^3
# Si number density = 23.313163 Si / 1000 Ang^3
#
#
#
# Elastic Constant Matrix: (Units=GPa)
#
#
# Indices 1 2 3 4 5 6 
#
# 1 171.8497 49.7284 31.7308 0.0000 0.0000 0.0000
# 2 49.7284 152.9691 22.1083 0.0000 0.0000 0.0000
# 3 31.7308 22.1083 86.6378 0.0000 0.0000 0.0000
# 4 0.0000 0.0000 0.0000 11.6886 0.0000 0.0000
# 5 0.0000 0.0000 0.0000 0.0000 17.0264 0.0000
# 6 0.0000 0.0000 0.0000 0.0000 0.0000 59.5989
#
#
#
# Elastic Compliance Matrix: (Units=1/GPa)
#
#
# Indices 1 2 3 4 5 6 
#
# 1 0.006736 -0.001903 -0.001981 0.000000 0.000000 0.000000
# 2 -0.001903 0.007325 -0.001172 0.000000 0.000000 0.000000
# 3 -0.001981 -0.001172 0.012567 0.000000 0.000000 0.000000
# 4 0.000000 0.000000 0.000000 0.085554 0.000000 0.000000
# 5 0.000000 0.000000 0.000000 0.000000 0.058732 0.000000
# 6 0.000000 0.000000 0.000000 0.000000 0.000000 0.016779
#
#
# Mechanical properties :
#
#
# Convention : Reuss Voigt Hill
#
# Bulk Modulus (GPa) = 60.55253 68.73240 64.64247
# Shear Modulus (GPa) = 24.59285 38.18873 31.39079
#
# Velocity S-wave (km/s) = 3.25143 4.05171 3.67343
# Velocity P-wave (km/s) = 6.33448 7.17180 6.76610
#
# Compressibility (1/GPa) = 0.01651459
#
# Stress axis : x y z
#
# Youngs Moduli (GPa) = 148.46443 136.51069 79.57325
#
# Poissons Ratio (x) = 0.25982 0.15765
# Poissons Ratio (y) = 0.28258 0.09328
# Poissons Ratio (z) = 0.29414 0.16002
#
# Static dielectric constant tensor:
#      x y z
#    x 1.945960 0.000000 0.000000 
#    y 0.000000 1.908070 0.000000 
#    z 0.000000 0.000000 1.929990 
# 
# From -- ./inp_files/21990.got.cif
#   From: 2010.05.17/outbox.cif.g08.bks.cpg/sg43_11_cif.got.tgz:21990.got - 2010.06.03 19:21:55.
