data_PCOD9370377
_publ_section_title
;
Structure prediction by ZEFSAII (Michael W. Deem and Ramdas Pophale) SiO2 
 PCOD9370377
Probable space group: F D D 2
;
_chemical_formula_sum "Si O2"
_cell_formula_units_Z 96
_cell_length_a 26.797214
_cell_length_b 22.399308
_cell_length_c 7.764804
_cell_angle_alpha 90.000000
_cell_angle_beta 90.000000
_cell_angle_gamma 90.000000
_cell_volume 4660.738576
_symmetry_space_group_name_H-M "F D D 2"
_symmetry_group_IT_number 43
_symmetry_cell_setting 'orthorhombic'
loop_
_space_group_symop_operation_xyz
x,y,z
-x,-y,z
1/4-x,1/4+y,1/4+z
1/4+x,1/4-y,1/4+z
x,1/2+y,1/2+z
-x,1/2-y,1/2+z
1/4-x,3/4+y,3/4+z
1/4+x,3/4-y,3/4+z
1/2+x,y,1/2+z
1/2-x,-y,1/2+z
3/4-x,1/4+y,3/4+z
3/4+x,1/4-y,3/4+z
1/2+x,1/2+y,z
1/2-x,1/2-y,z
3/4-x,3/4+y,1/4+z
3/4+x,3/4-y,1/4+z
loop_
_atom_site_type_symbol
_atom_site_label
_atom_site_fract_x
_atom_site_fract_y
_atom_site_fract_z
Si Si1 0.981485 0.934603 0.918580
Si Si2 0.709799 0.069283 0.727058
Si Si3 0.316496 0.616870 0.364600
Si Si4 0.777588 0.973160 0.861028
Si Si5 0.827300 0.897423 0.568513
Si Si6 0.269677 0.185515 0.558295
O O1 0.944006 0.906831 0.782201
O O2 0.027056 0.886926 0.922828
O O3 0.960759 0.939138 0.112847
O O4 0.000000 0.000000 0.867287
O O5 0.699789 0.032898 0.551973
O O6 0.670478 0.070277 0.882111
O O7 0.759990 0.038975 0.807198
O O8 0.275212 0.564150 0.364978
O O9 0.375316 0.606171 0.358299
O O10 0.305436 0.656554 0.196904
O O11 0.813971 0.944405 0.719315
O O12 0.778649 0.856624 0.554551
O O13 0.250000 0.250000 0.612444
#
# Coordination Sequence:
#
# PCOD9370377 Si02
#       6
#    16  16  16  16  16  16
#     4   9  19  37  61  82 115 154 196 239 295 345
#     4  10  19  36  61  83 113 157 188 239 290 343
#     4  10  21  35  57  87 116 151 197 246 290 354
#     4  10  20  37  59  83 119 154 191 243 294 346
#     4  10  21  36  56  88 114 151 200 236 298 351
#     4   9  19  37  58  77 116 156 188 240 292 346
#
# _framework density 20.597594999999998
#
# number of rings (size 3 to 8) (size 9 to 14) (size 15 to 20)
#    0.000    2.333    1.667    0.500    0.000    2.667 
#    0.000    3.333    0.000    0.000    0.000    0.000 
#    0.000    0.000    0.000    0.000    0.000    0.000 
#
# Total GULP energy -133837.490048 kJ/mol
# GULP energy per Si atom -5576.562085 kJ/mol
# Density = 2.055071 g / cm^3
# Si number density = 20.597595 Si / 1000 Ang^3
#
#
#
# Elastic Constant Matrix: (Units=GPa)
#
#
# Indices 1 2 3 4 5 6 
#
# 1 62.3133 -3.3803 26.5109 0.0004 0.0002 -0.0001
# 2 -3.3803 72.1677 -0.5648 -0.0011 0.0008 0.0002
# 3 26.5109 -0.5648 98.6699 -0.0032 0.0042 0.0011
# 4 0.0004 -0.0011 -0.0032 37.9229 0.0022 0.0005
# 5 0.0002 0.0008 0.0042 0.0022 25.4107 -0.0009
# 6 -0.0001 0.0002 0.0011 0.0005 -0.0009 6.8687
#
#
#
# Elastic Compliance Matrix: (Units=1/GPa)
#
#
# Indices 1 2 3 4 5 6 
#
# 1 0.018167 0.000813 -0.004876 -0.000001 0.000001 0.000001
# 2 0.000813 0.013894 -0.000139 0.000000 0.000000 0.000000
# 3 -0.004876 -0.000139 0.011444 0.000001 -0.000002 -0.000002
# 4 -0.000001 0.000000 0.000001 0.026369 -0.000002 -0.000002
# 5 0.000001 0.000000 -0.000002 -0.000002 0.039354 0.000005
# 6 0.000001 0.000000 -0.000002 -0.000002 0.000005 0.145588
#
#
# Mechanical properties :
#
#
# Convention : Reuss Voigt Hill
#
# Bulk Modulus (GPa) = 28.49045 30.92027 29.70536
# Shear Modulus (GPa) = 18.18708 28.07946 23.13327
#
# Velocity S-wave (km/s) = 2.97471 3.69621 3.35491
# Velocity P-wave (km/s) = 5.06562 5.76716 5.42774
#
# Compressibility (1/GPa) = 0.03509948
#
# Stress axis : x y z
#
# Youngs Moduli (GPa) = 55.04587 71.97562 87.38039
#
# Poissons Ratio (x) = -0.05850 0.42610
# Poissons Ratio (y) = -0.04474 0.01213
# Poissons Ratio (z) = 0.26843 0.00999
#
# Static dielectric constant tensor:
#      x y z
#    x 1.703030 0.000000 0.000000 
#    y 0.000000 1.773390 0.000000 
#    z 0.000000 0.000000 1.787330 
# 
# From -- ./inp_files/3729.got.cif
#   From: 2010.05.17/outbox.cif.g08.bks.cpg/sg43_2_cif.got.tgz:3729.got - 2010.06.03 19:21:55.
