data_PCOD9370327
_publ_section_title
;
Structure prediction by ZEFSAII (Michael W. Deem and Ramdas Pophale) SiO2 
 PCOD9370327
Probable space group: F D D 2
;
_chemical_formula_sum "Si O2"
_cell_formula_units_Z 112
_cell_length_a 18.711035
_cell_length_b 10.912754
_cell_length_c 27.565884
_cell_angle_alpha 90.000000
_cell_angle_beta 90.000000
_cell_angle_gamma 90.000000
_cell_volume 5628.648139
_symmetry_space_group_name_H-M "F D D 2"
_symmetry_group_IT_number 43
_symmetry_cell_setting 'orthorhombic'
loop_
_space_group_symop_operation_xyz
x,y,z
-x,-y,z
1/4-x,1/4+y,1/4+z
1/4+x,1/4-y,1/4+z
x,1/2+y,1/2+z
-x,1/2-y,1/2+z
1/4-x,3/4+y,3/4+z
1/4+x,3/4-y,3/4+z
1/2+x,y,1/2+z
1/2-x,-y,1/2+z
3/4-x,1/4+y,3/4+z
3/4+x,1/4-y,3/4+z
1/2+x,1/2+y,z
1/2-x,1/2-y,z
3/4-x,3/4+y,1/4+z
3/4+x,3/4-y,1/4+z
loop_
_atom_site_type_symbol
_atom_site_label
_atom_site_fract_x
_atom_site_fract_y
_atom_site_fract_z
Si Si1 0.815604 0.653943 0.676990
Si Si2 0.029727 0.370997 0.268728
Si Si3 0.204127 0.873876 0.066609
Si Si4 0.414372 0.499238 0.593354
Si Si5 0.087958 0.131963 0.692723
Si Si6 0.660464 0.517355 0.785439
Si Si7 0.576484 0.730700 0.526563
O O1 0.750000 0.750000 0.685928
O O2 0.804392 0.600606 0.623694
O O3 0.887493 0.734912 0.675984
O O4 0.823003 0.558107 0.720324
O O5 0.011144 0.243327 0.292984
O O6 0.113581 0.395640 0.277441
O O7 0.000000 0.500000 0.289558
O O8 0.991878 0.367920 0.215567
O O9 0.250000 0.750000 0.061875
O O10 0.129630 0.839524 0.040552
O O11 0.500000 0.500000 0.589997
O O12 0.397900 0.457545 0.647760
O O13 0.389724 0.634092 0.577264
O O14 0.395738 0.389324 0.556294
O O15 0.139512 0.092478 0.736776
O O16 0.744305 0.493346 0.790571
#
# Coordination Sequence:
#
# PCOD9370327 Si02
#       7
#    16  16  16  16  16  16  16
#     4  11  20  36  64  97 128 166 227 269 328 398
#     4  10  24  43  65  91 134 171 215 268 330 392
#     4  11  25  41  66  95 130 176 218 277 337 393
#     4  10  19  33  61  97 123 169 222 265 317 390
#     4  11  19  38  63  98 127 171 225 268 323 400
#     4  10  21  37  63  93 130 167 214 274 326 391
#     4  11  20  38  61  91 128 163 216 274 327 387
#
# _framework density 19.898205000000001
#
# number of rings (size 3 to 8) (size 9 to 14) (size 15 to 20)
#    0.000    1.429    4.286    2.571    2.000    0.571 
#    0.000    5.714    3.143    0.000    0.000    0.000 
#    0.000    0.000    0.000    0.000    0.000    0.000 
#
# Total GULP energy -156072.725097 kJ/mol
# GULP energy per Si atom -5574.025896 kJ/mol
# Density = 1.985292 g / cm^3
# Si number density = 19.898205 Si / 1000 Ang^3
#
#
#
# Elastic Constant Matrix: (Units=GPa)
#
#
# Indices 1 2 3 4 5 6 
#
# 1 90.2008 20.7178 19.4900 0.0000 0.0000 0.0000
# 2 20.7178 66.7984 42.3036 0.0000 0.0000 0.0000
# 3 19.4900 42.3036 120.3706 0.0000 0.0000 0.0000
# 4 0.0000 0.0000 0.0000 17.8303 0.0000 0.0000
# 5 0.0000 0.0000 0.0000 0.0000 20.4465 0.0000
# 6 0.0000 0.0000 0.0000 0.0000 0.0000 31.8821
#
#
#
# Elastic Compliance Matrix: (Units=1/GPa)
#
#
# Indices 1 2 3 4 5 6 
#
# 1 0.011999 -0.003204 -0.000817 0.000000 0.000000 0.000000
# 2 -0.003204 0.020112 -0.006549 0.000000 0.000000 0.000000
# 3 -0.000817 -0.006549 0.010742 0.000000 0.000000 0.000000
# 4 0.000000 0.000000 0.000000 0.056084 0.000000 0.000000
# 5 0.000000 0.000000 0.000000 0.000000 0.048908 0.000000
# 6 0.000000 0.000000 0.000000 0.000000 0.000000 0.031366
#
#
# Mechanical properties :
#
#
# Convention : Reuss Voigt Hill
#
# Bulk Modulus (GPa) = 46.05806 49.15471 47.60639
# Shear Modulus (GPa) = 24.08608 27.02232 25.55420
#
# Velocity S-wave (km/s) = 3.48295 3.68914 3.58753
# Velocity P-wave (km/s) = 6.27468 6.55004 6.41384
#
# Compressibility (1/GPa) = 0.02171173
#
# Stress axis : x y z
#
# Youngs Moduli (GPa) = 83.34163 49.72152 93.09537
#
# Poissons Ratio (x) = 0.15932 0.07603
# Poissons Ratio (y) = 0.26705 0.60972
# Poissons Ratio (z) = 0.06806 0.32565
#
# Static dielectric constant tensor:
#      x y z
#    x 1.804470 0.000000 0.000000 
#    y 0.000000 1.702940 0.000000 
#    z 0.000000 0.000000 1.717650 
# 
# From -- ./inp_files/22403.got.cif
#   From: 2010.05.17/outbox.cif.g08.bks.cpg/sg43_12_cif.got.tgz:22403.got - 2010.06.03 19:21:55.
