data_PCOD9370095
_publ_section_title
;
Structure prediction by ZEFSAII (Michael W. Deem and Ramdas Pophale) SiO2 
 PCOD9370095
Probable space group: F D D 2
;
_chemical_formula_sum "Si O2"
_cell_formula_units_Z 112
_cell_length_a 17.588785
_cell_length_b 11.780033
_cell_length_c 25.911014
_cell_angle_alpha 90.000000
_cell_angle_beta 90.000000
_cell_angle_gamma 90.000000
_cell_volume 5368.670576
_symmetry_space_group_name_H-M "F D D 2"
_symmetry_group_IT_number 43
_symmetry_cell_setting 'orthorhombic'
loop_
_space_group_symop_operation_xyz
x,y,z
-x,-y,z
1/4-x,1/4+y,1/4+z
1/4+x,1/4-y,1/4+z
x,1/2+y,1/2+z
-x,1/2-y,1/2+z
1/4-x,3/4+y,3/4+z
1/4+x,3/4-y,3/4+z
1/2+x,y,1/2+z
1/2-x,-y,1/2+z
3/4-x,1/4+y,3/4+z
3/4+x,1/4-y,3/4+z
1/2+x,1/2+y,z
1/2-x,1/2-y,z
3/4-x,3/4+y,1/4+z
3/4+x,3/4-y,1/4+z
loop_
_atom_site_type_symbol
_atom_site_label
_atom_site_fract_x
_atom_site_fract_y
_atom_site_fract_z
Si Si1 0.750000 0.250000 0.401050
Si Si2 0.574836 0.063977 0.622189
Si Si3 0.293279 0.560947 0.172887
Si Si4 0.662760 0.746653 0.251866
Si Si5 0.860828 0.011965 0.271838
Si Si6 0.296548 0.453154 0.830720
Si Si7 0.000000 0.000000 0.341973
Si Si8 0.133500 0.494112 0.222964
O O1 0.710383 0.161386 0.362475
O O2 0.684721 0.295743 0.439579
O O3 0.581233 0.024501 0.562765
O O4 0.565481 0.197704 0.620561
O O5 0.500000 0.000000 0.644221
O O6 0.653772 0.033038 0.647733
O O7 0.340446 0.594101 0.224292
O O8 0.283426 0.656039 0.130084
O O9 0.212128 0.518215 0.192915
O O10 0.750000 0.750000 0.231909
O O11 0.630887 0.618285 0.250829
O O12 0.622116 0.857316 0.228041
O O13 0.785993 0.014128 0.307414
O O14 0.933294 0.044392 0.305083
O O15 0.352701 0.457760 0.781052
#
# Coordination Sequence:
#
# PCOD9370095 Si02
#       8
#     8  16  16  16  16  16   8  16
#     4  12  26  45  66 100 142 190 231 280 372 424
#     4  10  18  37  67  96 125 173 223 287 341 402
#     4  11  23  39  66  97 137 178 230 286 357 408
#     4  10  16  40  67  90 130 169 233 301 330 397
#     4  11  22  40  65  94 135 186 229 289 353 407
#     4  10  22  44  66  93 141 181 226 290 352 409
#     4  12  24  41  62 108 144 178 239 288 344 438
#     4  10  24  42  64  97 130 188 234 284 351 418
#
# _framework density 20.861775000000002
#
# number of rings (size 3 to 8) (size 9 to 14) (size 15 to 20)
#    0.000    1.429    7.143    0.857    3.000    2.286 
#    5.143    1.429    0.000    0.000    0.000    0.000 
#    0.000    0.000    0.000    0.000    0.000    0.000 
#
# Total GULP energy -156243.544877 kJ/mol
# GULP energy per Si atom -5580.126603 kJ/mol
# Density = 2.081429 g / cm^3
# Si number density = 20.861775 Si / 1000 Ang^3
#
#
#
# Elastic Constant Matrix: (Units=GPa)
#
#
# Indices 1 2 3 4 5 6 
#
# 1 76.8012 7.0934 53.3290 0.0000 0.0000 0.0000
# 2 7.0934 43.0400 34.8485 0.0000 0.0000 0.0000
# 3 53.3290 34.8485 90.2925 0.0000 0.0000 0.0000
# 4 0.0000 0.0000 0.0000 14.6192 0.0000 0.0000
# 5 0.0000 0.0000 0.0000 0.0000 3.7185 0.0000
# 6 0.0000 0.0000 0.0000 0.0000 0.0000 9.9782
#
#
#
# Elastic Compliance Matrix: (Units=1/GPa)
#
#
# Indices 1 2 3 4 5 6 
#
# 1 0.025540 0.011643 -0.019578 0.000000 0.000000 0.000000
# 2 0.011643 0.039102 -0.021968 0.000000 0.000000 0.000000
# 3 -0.019578 -0.021968 0.031117 0.000000 0.000000 0.000000
# 4 0.000000 0.000000 0.000000 0.068403 0.000000 0.000000
# 5 0.000000 0.000000 0.000000 0.000000 0.268924 0.000000
# 6 0.000000 0.000000 0.000000 0.000000 0.000000 0.100219
#
#
# Mechanical properties :
#
#
# Convention : Reuss Voigt Hill
#
# Bulk Modulus (GPa) = 27.81453 44.51948 36.16701
# Shear Modulus (GPa) = 8.26315 13.32070 10.79193
#
# Velocity S-wave (km/s) = 1.99236 2.52964 2.27690
# Velocity P-wave (km/s) = 4.31907 5.46979 4.92814
#
# Compressibility (1/GPa) = 0.03595243
#
# Stress axis : x y z
#
# Youngs Moduli (GPa) = 39.15469 25.57386 32.13694
#
# Poissons Ratio (x) = -0.29775 0.62917
# Poissons Ratio (y) = -0.45586 0.70598
# Poissons Ratio (z) = 0.76656 0.56181
#
# Static dielectric constant tensor:
#      x y z
#    x 1.895680 0.000000 0.000000 
#    y 0.000000 1.821500 0.000000 
#    z 0.000000 0.000000 1.774910 
# 
# From -- ./inp_files/22431.got.cif
#   From: 2010.05.17/outbox.cif.g08.bks.cpg/sg43_12_cif.got.tgz:22431.got - 2010.06.03 19:21:55.
