data_PCOD9370848
_publ_section_title
;
Structure prediction by ZEFSAII (Michael W. Deem and Ramdas Pophale) SiO2 
 PCOD9370848
Probable space group: F D D 2
;
_chemical_formula_sum "Si O2"
_cell_formula_units_Z 80
_cell_length_a 21.097093
_cell_length_b 14.466300
_cell_length_c 10.675107
_cell_angle_alpha 90.000000
_cell_angle_beta 90.000000
_cell_angle_gamma 90.000000
_cell_volume 3258.009312
_symmetry_space_group_name_H-M "F D D 2"
_symmetry_group_IT_number 43
_symmetry_cell_setting 'orthorhombic'
loop_
_space_group_symop_operation_xyz
x,y,z
-x,-y,z
1/4-x,1/4+y,1/4+z
1/4+x,1/4-y,1/4+z
x,1/2+y,1/2+z
-x,1/2-y,1/2+z
1/4-x,3/4+y,3/4+z
1/4+x,3/4-y,3/4+z
1/2+x,y,1/2+z
1/2-x,-y,1/2+z
3/4-x,1/4+y,3/4+z
3/4+x,1/4-y,3/4+z
1/2+x,1/2+y,z
1/2-x,1/2-y,z
3/4-x,3/4+y,1/4+z
3/4+x,3/4-y,1/4+z
loop_
_atom_site_type_symbol
_atom_site_label
_atom_site_fract_x
_atom_site_fract_y
_atom_site_fract_z
Si Si1 0.250000 0.250000 0.622921
Si Si2 0.891086 0.062706 0.753350
Si Si3 0.282469 0.906452 0.867971
Si Si4 0.910129 0.401723 0.746331
Si Si5 0.750000 0.250000 0.669863
Si Si6 0.716050 0.078611 0.286643
O O1 0.311069 0.249983 0.533325
O O2 0.254400 0.338414 0.709439
O O3 0.871564 0.135742 0.862302
O O4 0.925720 0.119921 0.645451
O O5 0.940473 0.998071 0.827984
O O6 0.832844 0.994220 0.720402
O O7 0.228083 0.901132 0.977213
O O8 0.357364 0.883680 0.852094
O O9 0.254905 0.837586 0.760928
O O10 0.273341 0.013325 0.830802
#
# Coordination Sequence:
#
# PCOD9370848 Si02
#       6
#     8  16  16  16   8  16
#     4  12  28  42  64 106 146 186 244 332 396 440
#     4  10  22  44  70  97 137 195 249 304 384 480
#     4  10  23  43  70 102 139 189 245 308 379 474
#     4  10  24  44  70 100 138 189 251 310 382 463
#     4  10  20  40  72 102 132 182 248 308 376 460
#     4  11  25  43  66 102 145 186 241 311 391 467
#
# _framework density 24.554870999999999
#
# number of rings (size 3 to 8) (size 9 to 14) (size 15 to 20)
#    0.000    1.600    0.000    3.600    0.000   19.200 
#    0.000    2.000    0.000    0.000    0.000    0.000 
#    0.000    0.000    0.000    0.000    0.000    0.000 
#
# Total GULP energy -111416.940319 kJ/mol
# GULP energy per Si atom -5570.847016 kJ/mol
# Density = 2.449898 g / cm^3
# Si number density = 24.554871 Si / 1000 Ang^3
#
#
#
# Elastic Constant Matrix: (Units=GPa)
#
#
# Indices 1 2 3 4 5 6 
#
# 1 170.7859 35.1159 48.9669 0.0000 0.0000 0.0000
# 2 35.1159 109.1613 48.7182 0.0000 0.0000 0.0000
# 3 48.9669 48.7182 81.3834 0.0000 0.0000 0.0000
# 4 0.0000 0.0000 0.0000 26.1128 0.0000 0.0000
# 5 0.0000 0.0000 0.0000 0.0000 62.9865 0.0000
# 6 0.0000 0.0000 0.0000 0.0000 0.0000 46.5022
#
#
#
# Elastic Compliance Matrix: (Units=1/GPa)
#
#
# Indices 1 2 3 4 5 6 
#
# 1 0.007097 -0.000515 -0.003962 0.000000 0.000000 0.000000
# 2 -0.000515 0.012538 -0.007196 0.000000 0.000000 0.000000
# 3 -0.003962 -0.007196 0.018979 0.000000 0.000000 0.000000
# 4 0.000000 0.000000 0.000000 0.038295 0.000000 0.000000
# 5 0.000000 0.000000 0.000000 0.000000 0.015876 0.000000
# 6 0.000000 0.000000 0.000000 0.000000 0.000000 0.021504
#
#
# Mechanical properties :
#
#
# Convention : Reuss Voigt Hill
#
# Bulk Modulus (GPa) = 65.49320 69.65917 67.57619
# Shear Modulus (GPa) = 35.03253 42.35560 38.69407
#
# Velocity S-wave (km/s) = 3.78127 4.15774 3.97397
# Velocity P-wave (km/s) = 6.76713 7.17492 6.97401
#
# Compressibility (1/GPa) = 0.01526876
#
# Stress axis : x y z
#
# Youngs Moduli (GPa) = 140.90246 79.75904 52.69015
#
# Poissons Ratio (x) = 0.04106 0.20876
# Poissons Ratio (y) = 0.07254 0.37914
# Poissons Ratio (z) = 0.55826 0.57392
#
# Static dielectric constant tensor:
#      x y z
#    x 1.992640 0.000000 0.000000 
#    y 0.000000 2.015660 0.000000 
#    z 0.000000 0.000000 2.010410 
# 
# From -- ./inp_files/6105.got.cif
#   From: 2010.05.17/outbox.cif.g08.bks.cpg/sg43_4_cif.got.tgz:6105.got - 2010.06.03 19:21:55.
