data_PCOD9370221
_publ_section_title
;
Structure prediction by ZEFSAII (Michael W. Deem and Ramdas Pophale) SiO2 
 PCOD9370221
Probable space group: F D D 2
;
_chemical_formula_sum "Si O2"
_cell_formula_units_Z 80
_cell_length_a 7.964766
_cell_length_b 28.774481
_cell_length_c 12.697524
_cell_angle_alpha 90.000000
_cell_angle_beta 90.000000
_cell_angle_gamma 90.000000
_cell_volume 2910.044046
_symmetry_space_group_name_H-M "F D D 2"
_symmetry_group_IT_number 43
_symmetry_cell_setting 'orthorhombic'
loop_
_space_group_symop_operation_xyz
x,y,z
-x,-y,z
1/4-x,1/4+y,1/4+z
1/4+x,1/4-y,1/4+z
x,1/2+y,1/2+z
-x,1/2-y,1/2+z
1/4-x,3/4+y,3/4+z
1/4+x,3/4-y,3/4+z
1/2+x,y,1/2+z
1/2-x,-y,1/2+z
3/4-x,1/4+y,3/4+z
3/4+x,1/4-y,3/4+z
1/2+x,1/2+y,z
1/2-x,1/2-y,z
3/4-x,3/4+y,1/4+z
3/4+x,3/4-y,1/4+z
loop_
_atom_site_type_symbol
_atom_site_label
_atom_site_fract_x
_atom_site_fract_y
_atom_site_fract_z
Si Si1 0.157637 0.466573 0.501300
Si Si2 0.608893 0.687625 0.482278
Si Si3 0.323062 0.028821 0.276189
Si Si4 0.589827 0.621015 0.640708
Si Si5 0.576474 0.691230 0.802454
O O1 0.107711 0.440053 0.607869
O O2 0.180698 0.444700 0.386967
O O3 0.302324 0.504993 0.524596
O O4 0.000000 0.500000 0.483406
O O5 0.569082 0.738684 0.524117
O O6 0.700842 0.654915 0.565895
O O7 0.430638 0.660432 0.477823
O O8 0.278719 0.060297 0.175799
O O9 0.500000 0.000000 0.259342
O O10 0.491259 0.658702 0.713743
O O11 0.510150 0.581858 0.564536
#
# Coordination Sequence:
#
# PCOD9370221 Si02
#       5
#    16  16  16  16  16
#     4  10  22  38  58  86 120 155 193 238 284 352
#     4  10  20  38  59  83 119 148 193 240 286 347
#     4  10  18  36  60  86 109 154 195 234 283 345
#     4  10  20  37  60  90 113 151 194 244 291 343
#     4  10  20  35  60  88 114 152 196 241 285 345
#
# _framework density 27.490994000000001
#
# number of rings (size 3 to 8) (size 9 to 14) (size 15 to 20)
#    0.000    2.000    4.000    0.000    0.000    0.000 
#    0.000   15.000    0.000    0.000    0.000    0.000 
#    0.000    0.000    0.000    0.000    0.000    0.000 
#
# Total GULP energy -111423.644332 kJ/mol
# GULP energy per Si atom -5571.182217 kJ/mol
# Density = 2.742842 g / cm^3
# Si number density = 27.490994 Si / 1000 Ang^3
#
#
#
# Elastic Constant Matrix: (Units=GPa)
#
#
# Indices 1 2 3 4 5 6 
#
# 1 68.2998 14.4693 5.3823 0.0000 0.0000 0.0000
# 2 14.4693 82.9359 51.3787 0.0000 0.0000 0.0000
# 3 5.3823 51.3787 266.1559 0.0000 0.0000 0.0000
# 4 0.0000 0.0000 0.0000 63.2801 0.0000 0.0000
# 5 0.0000 0.0000 0.0000 0.0000 23.8685 0.0000
# 6 0.0000 0.0000 0.0000 0.0000 0.0000 7.0150
#
#
#
# Elastic Compliance Matrix: (Units=1/GPa)
#
#
# Indices 1 2 3 4 5 6 
#
# 1 0.015216 -0.002799 0.000233 0.000000 0.000000 0.000000
# 2 -0.002799 0.014210 -0.002687 0.000000 0.000000 0.000000
# 3 0.000233 -0.002687 0.004271 0.000000 0.000000 0.000000
# 4 0.000000 0.000000 0.000000 0.015803 0.000000 0.000000
# 5 0.000000 0.000000 0.000000 0.000000 0.041896 0.000000
# 6 0.000000 0.000000 0.000000 0.000000 0.000000 0.142551
#
#
# Mechanical properties :
#
#
# Convention : Reuss Voigt Hill
#
# Bulk Modulus (GPa) = 43.11874 62.20580 52.66227
# Shear Modulus (GPa) = 19.82688 41.91014 30.86851
#
# Velocity S-wave (km/s) = 2.68846 3.90873 3.35454
# Velocity P-wave (km/s) = 5.03545 6.56107 5.84822
#
# Compressibility (1/GPa) = 0.02319177
#
# Stress axis : x y z
#
# Youngs Moduli (GPa) = 65.72073 70.37264 234.13189
#
# Poissons Ratio (x) = 0.19695 -0.05445
# Poissons Ratio (y) = 0.18393 0.62900
# Poissons Ratio (z) = -0.01528 0.18906
#
# Static dielectric constant tensor:
#      x y z
#    x 2.443210 0.000000 0.000000 
#    y 0.000000 2.102060 0.000000 
#    z 0.000000 0.000000 2.277000 
# 
# From -- ./inp_files/5678.got.cif
#   From: 2010.05.17/outbox.cif.g08.bks.cpg/sg43_3_cif.got.tgz:5678.got - 2010.06.03 19:21:55.
