data_PCOD9370161
_publ_section_title
;
Structure prediction by ZEFSAII (Michael W. Deem and Ramdas Pophale) SiO2 
 PCOD9370161
Probable space group: F D D 2
;
_chemical_formula_sum "Si O2"
_cell_formula_units_Z 72
_cell_length_a 11.983390
_cell_length_b 8.299171
_cell_length_c 30.729576
_cell_angle_alpha 90.000000
_cell_angle_beta 90.000000
_cell_angle_gamma 90.000000
_cell_volume 3056.124023
_symmetry_space_group_name_H-M "F D D 2"
_symmetry_group_IT_number 43
_symmetry_cell_setting 'orthorhombic'
loop_
_space_group_symop_operation_xyz
x,y,z
-x,-y,z
1/4-x,1/4+y,1/4+z
1/4+x,1/4-y,1/4+z
x,1/2+y,1/2+z
-x,1/2-y,1/2+z
1/4-x,3/4+y,3/4+z
1/4+x,3/4-y,3/4+z
1/2+x,y,1/2+z
1/2-x,-y,1/2+z
3/4-x,1/4+y,3/4+z
3/4+x,1/4-y,3/4+z
1/2+x,1/2+y,z
1/2-x,1/2-y,z
3/4-x,3/4+y,1/4+z
3/4+x,3/4-y,1/4+z
loop_
_atom_site_type_symbol
_atom_site_label
_atom_site_fract_x
_atom_site_fract_y
_atom_site_fract_z
Si Si1 0.500000 0.500000 0.865090
Si Si2 0.690051 0.543826 0.035921
Si Si3 0.029856 0.250271 0.533970
Si Si4 0.504815 0.194249 0.626906
Si Si5 0.418024 0.157747 0.714711
O O1 0.503973 0.351212 0.830689
O O2 0.616588 0.483210 0.890570
O O3 0.635421 0.369098 0.038986
O O4 0.585331 0.657549 0.026126
O O5 0.774442 0.536128 0.996333
O O6 0.016344 0.197818 0.584176
O O7 0.061024 0.148109 0.491845
O O8 0.417298 0.219380 0.665500
O O9 0.500000 0.000000 0.614840
O O10 0.500000 0.000000 0.710574
#
# Coordination Sequence:
#
# PCOD9370161 Si02
#       5
#     8  16  16  16  16
#     4  10  18  32  60  80 122 156 190 252 296 358
#     4   9  17  33  52  79 115 153 192 240 300 349
#     4   9  16  34  55  80 117 155 192 243 295 349
#     4  10  18  33  55  90 116 154 208 243 296 367
#     4   9  19  30  56  85 112 155 199 243 294 356
#
# _framework density 23.559252999999998
#
# number of rings (size 3 to 8) (size 9 to 14) (size 15 to 20)
#    0.000    2.667    4.444    0.000    0.000    5.333 
#    0.000    4.444    4.889    8.000    0.000    0.000 
#    0.000    0.000    0.000    0.000    0.000    0.000 
#
# Total GULP energy -100322.923916 kJ/mol
# GULP energy per Si atom -5573.495773 kJ/mol
# Density = 2.350563 g / cm^3
# Si number density = 23.559253 Si / 1000 Ang^3
#
#
#
# Elastic Constant Matrix: (Units=GPa)
#
#
# Indices 1 2 3 4 5 6 
#
# 1 83.7222 20.7636 12.8753 0.0000 0.0000 0.0000
# 2 20.7636 43.2605 -14.4438 0.0000 0.0000 0.0000
# 3 12.8753 -14.4438 70.5205 0.0000 0.0000 0.0000
# 4 0.0000 0.0000 0.0000 -25.0747 0.0000 0.0000
# 5 0.0000 0.0000 0.0000 0.0000 34.6815 0.0000
# 6 0.0000 0.0000 0.0000 0.0000 0.0000 28.4547
#
#
#
# Elastic Compliance Matrix: (Units=1/GPa)
#
#
# Indices 1 2 3 4 5 6 
#
# 1 0.014753 -0.008566 -0.004448 0.000000 0.000000 0.000000
# 2 -0.008566 0.029786 0.007665 0.000000 0.000000 0.000000
# 3 -0.004448 0.007665 0.016562 0.000000 0.000000 0.000000
# 4 0.000000 0.000000 0.000000 -0.039881 0.000000 0.000000
# 5 0.000000 0.000000 0.000000 0.000000 0.028834 0.000000
# 6 0.000000 0.000000 0.000000 0.000000 0.000000 0.035144
#
#
# Mechanical properties :
#
#
# Convention : Reuss Voigt Hill
#
# Bulk Modulus (GPa) = 19.84019 26.21037 23.02528
# Shear Modulus (GPa) = 44.36683 19.49949 31.93316
#
# Velocity S-wave (km/s) = 4.34430 2.88006 3.68562
# Velocity P-wave (km/s) = 5.79686 4.71266 5.28265
#
# Compressibility (1/GPa) = 0.05040273
#
# Stress axis : x y z
#
# Youngs Moduli (GPa) = 67.78434 33.57265 60.37849
#
# Poissons Ratio (x) = 0.28758 0.26856
# Poissons Ratio (y) = 0.58063 -0.46278
# Poissons Ratio (z) = 0.30150 -0.25732
#
# Static dielectric constant tensor:
#      x y z
#    x 1.905620 0.000000 0.000000 
#    y 0.000000 2.096750 0.000000 
#    z 0.000000 0.000000 1.940060 
# 
# From -- ./inp_files/28362.got.cif
#   From: 2010.05.17/outbox.cif.g08.bks.cpg/sg43_15_cif.got.tgz:28362.got - 2010.06.03 19:21:55.
