data_PCOD9370224
_publ_section_title
;
Structure prediction by ZEFSAII (Michael W. Deem and Ramdas Pophale) SiO2 
 PCOD9370224
Probable space group: F D D 2
;
_chemical_formula_sum "Si O2"
_cell_formula_units_Z 88
_cell_length_a 9.471817
_cell_length_b 24.325517
_cell_length_c 18.089947
_cell_angle_alpha 90.000000
_cell_angle_beta 90.000000
_cell_angle_gamma 90.000000
_cell_volume 4168.047623
_symmetry_space_group_name_H-M "F D D 2"
_symmetry_group_IT_number 43
_symmetry_cell_setting 'orthorhombic'
loop_
_space_group_symop_operation_xyz
x,y,z
-x,-y,z
1/4-x,1/4+y,1/4+z
1/4+x,1/4-y,1/4+z
x,1/2+y,1/2+z
-x,1/2-y,1/2+z
1/4-x,3/4+y,3/4+z
1/4+x,3/4-y,3/4+z
1/2+x,y,1/2+z
1/2-x,-y,1/2+z
3/4-x,1/4+y,3/4+z
3/4+x,1/4-y,3/4+z
1/2+x,1/2+y,z
1/2-x,1/2-y,z
3/4-x,3/4+y,1/4+z
3/4+x,3/4-y,1/4+z
loop_
_atom_site_type_symbol
_atom_site_label
_atom_site_fract_x
_atom_site_fract_y
_atom_site_fract_z
Si Si1 0.846761 0.044018 0.379450
Si Si2 0.257897 0.359015 0.449259
Si Si3 0.204012 0.985014 0.545357
Si Si4 0.750000 0.750000 0.362356
Si Si5 0.290438 0.156306 0.824103
Si Si6 0.917112 0.686029 0.574464
O O1 0.824014 0.014274 0.457589
O O2 0.784457 0.105133 0.379466
O O3 0.010101 0.056315 0.360088
O O4 0.787104 0.999828 0.319757
O O5 0.293707 0.300667 0.413651
O O6 0.386814 0.379725 0.500849
O O7 0.120676 0.347673 0.500533
O O8 0.241245 0.401396 0.381975
O O9 0.367098 0.982209 0.563959
O O10 0.113552 0.932388 0.568849
O O11 0.140008 0.039909 0.583669
#
# Coordination Sequence:
#
# PCOD9370224 Si02
#       6
#    16  16  16   8  16  16
#     4  10  18  36  61  96 125 172 225 271 329 410
#     4  11  20  37  62  98 130 175 221 286 333 418
#     4  11  22  41  63  97 127 178 222 283 346 409
#     4  12  26  38  60 102 142 164 228 296 354 388
#     4  10  20  40  69  88 127 178 231 265 334 430
#     4  10  19  35  65  95 128 171 230 273 330 407
#
# _framework density 21.113002000000002
#
# number of rings (size 3 to 8) (size 9 to 14) (size 15 to 20)
#    0.000    1.455    3.636    5.455    0.000    0.000 
#    6.545    0.000    0.000    0.000    0.000    0.000 
#    0.000    0.000    0.000    0.000    0.000    0.000 
#
# Total GULP energy -122616.667423 kJ/mol
# GULP energy per Si atom -5573.484883 kJ/mol
# Density = 2.106495 g / cm^3
# Si number density = 21.113002 Si / 1000 Ang^3
#
#
#
# Elastic Constant Matrix: (Units=GPa)
#
#
# Indices 1 2 3 4 5 6 
#
# 1 78.6857 22.3266 9.2701 0.0000 0.0000 0.0000
# 2 22.3266 146.2200 21.4714 0.0000 0.0000 0.0000
# 3 9.2701 21.4714 53.7718 0.0000 0.0000 0.0000
# 4 0.0000 0.0000 0.0000 35.0761 0.0000 0.0000
# 5 0.0000 0.0000 0.0000 0.0000 10.6383 0.0000
# 6 0.0000 0.0000 0.0000 0.0000 0.0000 21.3110
#
#
#
# Elastic Compliance Matrix: (Units=1/GPa)
#
#
# Indices 1 2 3 4 5 6 
#
# 1 0.013411 -0.001815 -0.001587 0.000000 0.000000 0.000000
# 2 -0.001815 0.007511 -0.002686 0.000000 0.000000 0.000000
# 3 -0.001587 -0.002686 0.019943 0.000000 0.000000 0.000000
# 4 0.000000 0.000000 0.000000 0.028509 0.000000 0.000000
# 5 0.000000 0.000000 0.000000 0.000000 0.094000 0.000000
# 6 0.000000 0.000000 0.000000 0.000000 0.000000 0.046924
#
#
# Mechanical properties :
#
#
# Convention : Reuss Voigt Hill
#
# Bulk Modulus (GPa) = 34.85743 42.75707 38.80725
# Shear Modulus (GPa) = 21.54830 28.44572 24.99701
#
# Velocity S-wave (km/s) = 3.19818 3.67455 3.44461
# Velocity P-wave (km/s) = 5.49396 6.18859 5.85159
#
# Compressibility (1/GPa) = 0.02868829
#
# Stress axis : x y z
#
# Youngs Moduli (GPa) = 74.56737 133.14638 50.14201
#
# Poissons Ratio (x) = 0.24161 0.07959
# Poissons Ratio (y) = 0.13531 0.13469
# Poissons Ratio (z) = 0.11837 0.35765
#
# Static dielectric constant tensor:
#      x y z
#    x 1.752390 0.000000 0.000000 
#    y 0.000000 1.873200 0.000000 
#    z 0.000000 0.000000 1.844740 
# 
# From -- ./inp_files/16373.got.cif
#   From: 2010.05.17/outbox.cif.g08.bks.cpg/sg43_9_cif.got.tgz:16373.got - 2010.06.03 19:21:55.
