data_PCOD9370226
_publ_section_title
;
Structure prediction by ZEFSAII (Michael W. Deem and Ramdas Pophale) SiO2 
 PCOD9370226
Probable space group: F D D 2
;
_chemical_formula_sum "Si O2"
_cell_formula_units_Z 112
_cell_length_a 25.749663
_cell_length_b 14.569646
_cell_length_c 13.964940
_cell_angle_alpha 90.000000
_cell_angle_beta 90.000000
_cell_angle_gamma 90.000000
_cell_volume 5239.135412
_symmetry_space_group_name_H-M "F D D 2"
_symmetry_group_IT_number 43
_symmetry_cell_setting 'orthorhombic'
loop_
_space_group_symop_operation_xyz
x,y,z
-x,-y,z
1/4-x,1/4+y,1/4+z
1/4+x,1/4-y,1/4+z
x,1/2+y,1/2+z
-x,1/2-y,1/2+z
1/4-x,3/4+y,3/4+z
1/4+x,3/4-y,3/4+z
1/2+x,y,1/2+z
1/2-x,-y,1/2+z
3/4-x,1/4+y,3/4+z
3/4+x,1/4-y,3/4+z
1/2+x,1/2+y,z
1/2-x,1/2-y,z
3/4-x,3/4+y,1/4+z
3/4+x,3/4-y,1/4+z
loop_
_atom_site_type_symbol
_atom_site_label
_atom_site_fract_x
_atom_site_fract_y
_atom_site_fract_z
Si Si1 0.936746 0.658215 0.464320
Si Si2 0.045480 0.734080 0.457339
Si Si3 0.569896 0.038988 0.693220
Si Si4 0.795449 0.507380 0.438170
Si Si5 0.410895 0.958735 0.476915
Si Si6 0.405319 0.121808 0.822182
Si Si7 0.180552 0.001862 0.411344
O O1 0.882283 0.704166 0.442438
O O2 0.930947 0.553435 0.429565
O O3 0.940991 0.670714 0.579862
O O4 0.986089 0.713596 0.429039
O O5 0.051966 0.744467 0.572209
O O6 0.074414 0.638626 0.432101
O O7 0.065758 0.824292 0.405982
O O8 0.547704 0.137158 0.723860
O O9 0.559973 0.034008 0.579838
O O10 0.560957 0.956760 0.767323
O O11 0.847974 0.463215 0.480431
O O12 0.736646 0.472369 0.452452
O O13 0.396489 0.198969 0.741722
O O14 0.352754 0.077577 0.862525
#
# Coordination Sequence:
#
# PCOD9370226 Si02
#       7
#    16  16  16  16  16  16  16
#     4   9  18  37  60  89 121 160 217 272 313 377
#     4  10  22  35  59  90 129 167 206 265 335 386
#     4   9  19  36  61  91 119 160 216 276 314 369
#     4   9  21  39  59  90 122 169 217 267 317 390
#     4  10  18  36  62  85 122 163 218 262 317 377
#     4  11  23  40  64  94 131 173 211 275 333 395
#     4  10  22  41  63  88 130 166 214 273 326 387
#
# _framework density 21.377573000000002
#
# number of rings (size 3 to 8) (size 9 to 14) (size 15 to 20)
#    0.000    2.286    1.429    0.429    4.000    0.571 
#    0.000    5.000    3.143    0.000    0.000    0.000 
#    0.000    0.000    0.000    0.000    0.000    0.000 
#
# Total GULP energy -156087.225701 kJ/mol
# GULP energy per Si atom -5574.543775 kJ/mol
# Density = 2.132892 g / cm^3
# Si number density = 21.377573 Si / 1000 Ang^3
#
#
#
# Elastic Constant Matrix: (Units=GPa)
#
#
# Indices 1 2 3 4 5 6 
#
# 1 134.2666 48.0891 18.0417 0.0000 0.0000 0.0000
# 2 48.0891 99.4688 31.9017 0.0000 0.0000 0.0000
# 3 18.0417 31.9017 66.4608 0.0000 0.0000 0.0000
# 4 0.0000 0.0000 0.0000 28.4451 0.0000 0.0000
# 5 0.0000 0.0000 0.0000 0.0000 18.0050 0.0000
# 6 0.0000 0.0000 0.0000 0.0000 0.0000 21.9352
#
#
#
# Elastic Compliance Matrix: (Units=1/GPa)
#
#
# Indices 1 2 3 4 5 6 
#
# 1 0.009017 -0.004225 -0.000420 0.000000 0.000000 0.000000
# 2 -0.004225 0.013862 -0.005507 0.000000 0.000000 0.000000
# 3 -0.000420 -0.005507 0.017804 0.000000 0.000000 0.000000
# 4 0.000000 0.000000 0.000000 0.035155 0.000000 0.000000
# 5 0.000000 0.000000 0.000000 0.000000 0.055540 0.000000
# 6 0.000000 0.000000 0.000000 0.000000 0.000000 0.045589
#
#
# Mechanical properties :
#
#
# Convention : Reuss Voigt Hill
#
# Bulk Modulus (GPa) = 49.06823 55.14013 52.10418
# Shear Modulus (GPa) = 24.50198 27.15463 25.82831
#
# Velocity S-wave (km/s) = 3.38916 3.56791 3.47968
# Velocity P-wave (km/s) = 6.19017 6.54391 6.36949
#
# Compressibility (1/GPa) = 0.02037979
#
# Stress axis : x y z
#
# Youngs Moduli (GPa) = 110.89558 72.13861 56.16748
#
# Poissons Ratio (x) = 0.30478 0.02359
# Poissons Ratio (y) = 0.46852 0.30932
# Poissons Ratio (z) = 0.04657 0.39727
#
# Static dielectric constant tensor:
#      x y z
#    x 1.789550 0.000000 0.000000 
#    y 0.000000 1.780470 0.000000 
#    z 0.000000 0.000000 1.854050 
# 
# From -- ./inp_files/11516.got.cif
#   From: 2010.05.17/outbox.cif.g08.bks.cpg/sg43_6_cif.got.tgz:11516.got - 2010.06.03 19:21:55.
