data_PCOD9370451
_publ_section_title
;
Structure prediction by ZEFSAII (Michael W. Deem and Ramdas Pophale) SiO2 
 PCOD9370451
Probable space group: F D D 2
;
_chemical_formula_sum "Si O2"
_cell_formula_units_Z 96
_cell_length_a 15.278629
_cell_length_b 18.057061
_cell_length_c 14.445563
_cell_angle_alpha 90.000000
_cell_angle_beta 90.000000
_cell_angle_gamma 90.000000
_cell_volume 3985.345002
_symmetry_space_group_name_H-M "F D D 2"
_symmetry_group_IT_number 43
_symmetry_cell_setting 'orthorhombic'
loop_
_space_group_symop_operation_xyz
x,y,z
-x,-y,z
1/4-x,1/4+y,1/4+z
1/4+x,1/4-y,1/4+z
x,1/2+y,1/2+z
-x,1/2-y,1/2+z
1/4-x,3/4+y,3/4+z
1/4+x,3/4-y,3/4+z
1/2+x,y,1/2+z
1/2-x,-y,1/2+z
3/4-x,1/4+y,3/4+z
3/4+x,1/4-y,3/4+z
1/2+x,1/2+y,z
1/2-x,1/2-y,z
3/4-x,3/4+y,1/4+z
3/4+x,3/4-y,1/4+z
loop_
_atom_site_type_symbol
_atom_site_label
_atom_site_fract_x
_atom_site_fract_y
_atom_site_fract_z
Si Si1 0.019904 0.272235 0.120490
Si Si2 0.333973 0.302498 0.580401
Si Si3 0.429542 0.565748 0.918607
Si Si4 0.583262 0.442342 0.132223
Si Si5 0.997422 0.216131 0.839081
Si Si6 0.567321 0.432135 0.539585
O O1 0.095635 0.211522 0.108860
O O2 0.019105 0.275826 0.230740
O O3 0.040040 0.354737 0.084724
O O4 0.923347 0.254822 0.083760
O O5 0.250000 0.250000 0.580153
O O6 0.327569 0.347911 0.483138
O O7 0.336342 0.339566 0.681573
O O8 0.500000 0.500000 0.918571
O O9 0.468789 0.635615 0.869406
O O10 0.415869 0.587249 0.027086
O O11 0.500000 0.500000 0.133150
O O12 0.679926 0.478681 0.137117
O O13 0.101349 0.216817 0.846135
O O14 0.500000 0.500000 0.537072
#
# Coordination Sequence:
#
# PCOD9370451 Si02
#       6
#    16  16  16  16  16  16
#     4  10  21  39  64  99 129 165 214 260 324 381
#     4   9  20  43  60  84 133 165 210 261 306 382
#     4  10  19  38  67  96 127 165 208 267 321 372
#     4   9  20  41  61  89 126 166 212 261 311 380
#     4  10  21  39  65  96 128 163 214 264 319 379
#     4  10  21  41  65  93 130 165 207 266 321 383
#
# _framework density 24.088253000000002
#
# number of rings (size 3 to 8) (size 9 to 14) (size 15 to 20)
#    0.000    2.333    1.667    0.000    0.000    2.000 
#   15.000    6.667    0.000    0.000    0.000    0.000 
#    0.000    0.000    0.000    0.000    0.000    0.000 
#
# Total GULP energy -133911.102090 kJ/mol
# GULP energy per Si atom -5579.629254 kJ/mol
# Density = 2.403343 g / cm^3
# Si number density = 24.088253 Si / 1000 Ang^3
#
#
#
# Elastic Constant Matrix: (Units=GPa)
#
#
# Indices 1 2 3 4 5 6 
#
# 1 158.1032 31.9752 43.7976 0.0000 0.0000 0.0000
# 2 31.9752 46.9387 5.0211 0.0000 0.0000 0.0000
# 3 43.7976 5.0211 67.7888 0.0000 0.0000 0.0000
# 4 0.0000 0.0000 0.0000 26.4158 0.0000 0.0000
# 5 0.0000 0.0000 0.0000 0.0000 19.6013 0.0000
# 6 0.0000 0.0000 0.0000 0.0000 0.0000 20.7229
#
#
#
# Elastic Compliance Matrix: (Units=1/GPa)
#
#
# Indices 1 2 3 4 5 6 
#
# 1 0.008922 -0.005505 -0.005357 0.000000 0.000000 0.000000
# 2 -0.005505 0.024871 0.001714 0.000000 0.000000 0.000000
# 3 -0.005357 0.001714 0.018086 0.000000 0.000000 0.000000
# 4 0.000000 0.000000 0.000000 0.037856 0.000000 0.000000
# 5 0.000000 0.000000 0.000000 0.000000 0.051017 0.000000
# 6 0.000000 0.000000 0.000000 0.000000 0.000000 0.048256
#
#
# Mechanical properties :
#
#
# Convention : Reuss Voigt Hill
#
# Bulk Modulus (GPa) = 29.77574 48.26872 39.02223
# Shear Modulus (GPa) = 22.88359 26.15046 24.51703
#
# Velocity S-wave (km/s) = 3.08553 3.29843 3.19376
# Velocity P-wave (km/s) = 5.00819 5.88116 5.46214
#
# Compressibility (1/GPa) = 0.03358439
#
# Stress axis : x y z
#
# Youngs Moduli (GPa) = 112.07936 40.20751 55.29235
#
# Poissons Ratio (x) = 0.22134 0.29619
# Poissons Ratio (y) = 0.61699 -0.09480
# Poissons Ratio (z) = 0.60039 -0.06893
#
# Static dielectric constant tensor:
#      x y z
#    x 1.979210 0.000000 0.000000 
#    y 0.000000 1.909690 0.000000 
#    z 0.000000 0.000000 1.923390 
# 
# From -- ./inp_files/10074.got.cif
#   From: 2010.05.17/outbox.cif.g08.bks.cpg/sg43_6_cif.got.tgz:10074.got - 2010.06.03 19:21:55.
