data_PCOD9370263
_publ_section_title
;
Structure prediction by ZEFSAII (Michael W. Deem and Ramdas Pophale) SiO2 
 PCOD9370263
Probable space group: F D D 2
;
_chemical_formula_sum "Si O2"
_cell_formula_units_Z 112
_cell_length_a 10.091034
_cell_length_b 20.012931
_cell_length_c 25.802108
_cell_angle_alpha 90.000000
_cell_angle_beta 90.000000
_cell_angle_gamma 90.000000
_cell_volume 5210.765826
_symmetry_space_group_name_H-M "F D D 2"
_symmetry_group_IT_number 43
_symmetry_cell_setting 'orthorhombic'
loop_
_space_group_symop_operation_xyz
x,y,z
-x,-y,z
1/4-x,1/4+y,1/4+z
1/4+x,1/4-y,1/4+z
x,1/2+y,1/2+z
-x,1/2-y,1/2+z
1/4-x,3/4+y,3/4+z
1/4+x,3/4-y,3/4+z
1/2+x,y,1/2+z
1/2-x,-y,1/2+z
3/4-x,1/4+y,3/4+z
3/4+x,1/4-y,3/4+z
1/2+x,1/2+y,z
1/2-x,1/2-y,z
3/4-x,3/4+y,1/4+z
3/4+x,3/4-y,1/4+z
loop_
_atom_site_type_symbol
_atom_site_label
_atom_site_fract_x
_atom_site_fract_y
_atom_site_fract_z
Si Si1 0.963907 0.128514 0.282630
Si Si2 0.198934 0.178605 0.748291
Si Si3 0.250000 0.750000 0.965758
Si Si4 0.854150 0.111216 0.394372
Si Si5 0.180725 0.815408 0.659788
Si Si6 0.500000 0.000000 0.147716
Si Si7 0.325491 0.471460 0.021655
Si Si8 0.044636 0.794014 0.883487
O O1 0.810480 0.128543 0.264931
O O2 0.020030 0.064636 0.252594
O O3 0.945926 0.123184 0.344601
O O4 0.031411 0.199903 0.267710
O O5 0.250000 0.250000 0.767333
O O6 0.184917 0.178529 0.686853
O O7 0.052641 0.173068 0.769489
O O8 0.122272 0.751513 0.927072
O O9 0.714009 0.075234 0.383906
O O10 0.800351 0.180110 0.421268
O O11 0.250000 0.750000 0.637816
O O12 0.155222 0.801311 0.721132
O O13 0.271795 0.880249 0.652285
O O14 0.642126 0.979856 0.122534
O O15 0.374915 0.460084 0.079760
#
# Coordination Sequence:
#
# PCOD9370263 Si02
#       8
#    16  16   8  16  16   8  16  16
#     4  11  22  39  61  89 132 169 217 267 329 402
#     4   9  19  35  61  91 114 158 219 260 315 388
#     4  12  28  42  56 105 138 173 216 276 332 404
#     4  10  20  35  63  89 122 166 211 273 320 380
#     4  10  22  41  63  97 133 174 226 278 335 405
#     4  10  18  38  70  93 112 165 222 264 316 380
#     4  10  21  40  71  93 121 179 223 272 339 396
#     4  11  23  43  69  97 134 174 226 275 337 398
#
# _framework density 21.493960999999999
#
# number of rings (size 3 to 8) (size 9 to 14) (size 15 to 20)
#    0.000    1.714    1.429    3.429    4.000    0.000 
#    2.571    0.000    7.857    0.000    0.000    0.000 
#    0.000    0.000    0.000    0.000    0.000    0.000 
#
# Total GULP energy -155893.039344 kJ/mol
# GULP energy per Si atom -5567.608548 kJ/mol
# Density = 2.144504 g / cm^3
# Si number density = 21.493961 Si / 1000 Ang^3
#
#
#
# Elastic Constant Matrix: (Units=GPa)
#
#
# Indices 1 2 3 4 5 6 
#
# 1 53.7640 12.2735 28.0350 0.0000 0.0000 0.0000
# 2 12.2735 102.0457 43.5340 0.0000 0.0000 0.0000
# 3 28.0350 43.5340 80.7236 0.0000 0.0000 0.0000
# 4 0.0000 0.0000 0.0000 19.3918 0.0000 0.0000
# 5 0.0000 0.0000 0.0000 0.0000 -46.2873 0.0000
# 6 0.0000 0.0000 0.0000 0.0000 0.0000 31.4282
#
#
#
# Elastic Compliance Matrix: (Units=1/GPa)
#
#
# Indices 1 2 3 4 5 6 
#
# 1 0.022766 0.000825 -0.008351 0.000000 0.000000 0.000000
# 2 0.000825 0.012758 -0.007167 0.000000 0.000000 0.000000
# 3 -0.008351 -0.007167 0.019153 0.000000 0.000000 0.000000
# 4 0.000000 0.000000 0.000000 0.051568 0.000000 0.000000
# 5 0.000000 0.000000 0.000000 0.000000 -0.021604 0.000000
# 6 0.000000 0.000000 0.000000 0.000000 0.000000 0.031819
#
#
# Mechanical properties :
#
#
# Convention : Reuss Voigt Hill
#
# Bulk Modulus (GPa) = 39.54038 44.91316 42.22677
# Shear Modulus (GPa) = 32.40931 11.08594 21.74762
#
# Velocity S-wave (km/s) = 3.88730 2.27352 3.18433
# Velocity P-wave (km/s) = 6.21161 5.27569 5.76268
#
# Compressibility (1/GPa) = 0.02529060
#
# Stress axis : x y z
#
# Youngs Moduli (GPa) = 43.92456 78.38402 52.21049
#
# Poissons Ratio (x) = -0.06463 0.43603
# Poissons Ratio (y) = -0.03622 0.37417
# Poissons Ratio (z) = 0.36683 0.56174
#
# Static dielectric constant tensor:
#      x y z
#    x 1.841720 0.000000 0.000000 
#    y 0.000000 1.812430 0.000000 
#    z 0.000000 0.000000 1.803300 
# 
# From -- ./inp_files/18639.got.cif
#   From: 2010.05.17/outbox.cif.g08.bks.cpg/sg43_10_cif.got.tgz:18639.got - 2010.06.03 19:21:55.
