data_PCOD9370507
_publ_section_title
;
Structure prediction by ZEFSAII (Michael W. Deem and Ramdas Pophale) SiO2 
 PCOD9370507
Probable space group: F D D 2
;
_chemical_formula_sum "Si O2"
_cell_formula_units_Z 112
_cell_length_a 34.496157
_cell_length_b 11.638017
_cell_length_c 11.917485
_cell_angle_alpha 90.000000
_cell_angle_beta 90.000000
_cell_angle_gamma 90.000000
_cell_volume 4784.475301
_symmetry_space_group_name_H-M "F D D 2"
_symmetry_group_IT_number 43
_symmetry_cell_setting 'orthorhombic'
loop_
_space_group_symop_operation_xyz
x,y,z
-x,-y,z
1/4-x,1/4+y,1/4+z
1/4+x,1/4-y,1/4+z
x,1/2+y,1/2+z
-x,1/2-y,1/2+z
1/4-x,3/4+y,3/4+z
1/4+x,3/4-y,3/4+z
1/2+x,y,1/2+z
1/2-x,-y,1/2+z
3/4-x,1/4+y,3/4+z
3/4+x,1/4-y,3/4+z
1/2+x,1/2+y,z
1/2-x,1/2-y,z
3/4-x,3/4+y,1/4+z
3/4+x,3/4-y,1/4+z
loop_
_atom_site_type_symbol
_atom_site_label
_atom_site_fract_x
_atom_site_fract_y
_atom_site_fract_z
Si Si1 0.032491 0.787915 0.668420
Si Si2 0.466079 0.137676 0.651367
Si Si3 0.750000 0.750000 0.782920
Si Si4 0.566026 0.174967 0.445535
Si Si5 0.858606 0.927050 0.059089
Si Si6 0.185645 0.686013 0.110071
Si Si7 0.000000 0.500000 0.448191
Si Si8 0.387318 0.671903 0.060192
O O1 0.051383 0.713229 0.568971
O O2 0.066656 0.823949 0.751035
O O3 0.999048 0.707282 0.715663
O O4 0.009170 0.892109 0.611632
O O5 0.453563 0.039807 0.737548
O O6 0.427671 0.205079 0.616768
O O7 0.479223 0.087288 0.533250
O O8 0.787745 0.750871 0.701961
O O9 0.608933 0.125782 0.475292
O O10 0.565860 0.297922 0.381512
O O11 0.534991 0.079938 0.397024
O O12 0.857560 0.873845 0.182770
O O13 0.869449 0.053591 0.105643
O O14 0.142818 0.732948 0.098582
#
# Coordination Sequence:
#
# PCOD9370507 Si02
#       8
#    16  16   8  16  16  16   8  16
#     4  10  25  43  69 102 143 185 236 305 372 438
#     4  11  24  43  67 103 135 186 247 293 358 444
#     4  10  25  48  69 102 144 192 229 302 383 436
#     4  10  22  43  66 100 136 185 238 306 363 436
#     4  12  24  46  71 104 140 192 242 300 369 440
#     4  11  25  42  71 103 142 188 243 305 365 439
#     4  10  19  42  69  90 136 182 245 298 351 440
#     4  12  25  44  73 104 135 193 245 302 359 452
#
# _framework density 23.409046
#
# number of rings (size 3 to 8) (size 9 to 14) (size 15 to 20)
#    0.000    1.143    4.286    0.429    6.000    5.714 
#    2.571    0.714    0.000    0.000    0.000    0.000 
#    0.000    0.000    0.000    0.000    0.000    0.000 
#
# Total GULP energy -156112.206673 kJ/mol
# GULP energy per Si atom -5575.435953 kJ/mol
# Density = 2.335577 g / cm^3
# Si number density = 23.409046 Si / 1000 Ang^3
#
#
#
# Elastic Constant Matrix: (Units=GPa)
#
#
# Indices 1 2 3 4 5 6 
#
# 1 192.0255 75.0390 33.5503 0.0000 0.0000 0.0000
# 2 75.0390 86.7243 10.4509 0.0000 0.0000 0.0000
# 3 33.5503 10.4509 21.9657 0.0000 0.0000 0.0000
# 4 0.0000 0.0000 0.0000 5.8904 0.0000 0.0000
# 5 0.0000 0.0000 0.0000 0.0000 20.4588 0.0000
# 6 0.0000 0.0000 0.0000 0.0000 0.0000 43.7418
#
#
#
# Elastic Compliance Matrix: (Units=1/GPa)
#
#
# Indices 1 2 3 4 5 6 
#
# 1 0.010195 -0.007367 -0.012066 0.000000 0.000000 0.000000
# 2 -0.007367 0.017556 0.002900 0.000000 0.000000 0.000000
# 3 -0.012066 0.002900 0.062576 0.000000 0.000000 0.000000
# 4 0.000000 0.000000 0.000000 0.169767 0.000000 0.000000
# 5 0.000000 0.000000 0.000000 0.000000 0.048879 0.000000
# 6 0.000000 0.000000 0.000000 0.000000 0.000000 0.022861
#
#
# Mechanical properties :
#
#
# Convention : Reuss Voigt Hill
#
# Bulk Modulus (GPa) = 17.46457 59.86622 38.66539
# Shear Modulus (GPa) = 13.02129 26.12991 19.57560
#
# Velocity S-wave (km/s) = 2.36105 3.34463 2.89492
# Velocity P-wave (km/s) = 3.86129 6.36749 5.26566
#
# Compressibility (1/GPa) = 0.05725878
#
# Stress axis : x y z
#
# Youngs Moduli (GPa) = 98.09089 56.96165 15.98067
#
# Poissons Ratio (x) = 0.41963 0.19282
# Poissons Ratio (y) = 0.72263 -0.04634
# Poissons Ratio (z) = 1.18358 -0.16516
#
# Static dielectric constant tensor:
#      x y z
#    x 1.932450 0.000000 0.000000 
#    y 0.000000 1.878710 0.000000 
#    z 0.000000 0.000000 1.882060 
# 
# From -- ./inp_files/9812.got.cif
#   From: 2010.05.17/outbox.cif.g08.bks.cpg/sg43_5_cif.got.tgz:9812.got - 2010.06.03 19:21:55.
