data_PCOD9370122
_publ_section_title
;
Structure prediction by ZEFSAII (Michael W. Deem and Ramdas Pophale) SiO2 
 PCOD9370122
Probable space group: F D D 2
;
_chemical_formula_sum "Si O2"
_cell_formula_units_Z 96
_cell_length_a 13.350751
_cell_length_b 11.899811
_cell_length_c 26.867874
_cell_angle_alpha 90.000000
_cell_angle_beta 90.000000
_cell_angle_gamma 90.000000
_cell_volume 4268.537123
_symmetry_space_group_name_H-M "F D D 2"
_symmetry_group_IT_number 43
_symmetry_cell_setting 'orthorhombic'
loop_
_space_group_symop_operation_xyz
x,y,z
-x,-y,z
1/4-x,1/4+y,1/4+z
1/4+x,1/4-y,1/4+z
x,1/2+y,1/2+z
-x,1/2-y,1/2+z
1/4-x,3/4+y,3/4+z
1/4+x,3/4-y,3/4+z
1/2+x,y,1/2+z
1/2-x,-y,1/2+z
3/4-x,1/4+y,3/4+z
3/4+x,1/4-y,3/4+z
1/2+x,1/2+y,z
1/2-x,1/2-y,z
3/4-x,3/4+y,1/4+z
3/4+x,3/4-y,1/4+z
loop_
_atom_site_type_symbol
_atom_site_label
_atom_site_fract_x
_atom_site_fract_y
_atom_site_fract_z
Si Si1 0.151302 0.391649 0.033080
Si Si2 0.397318 0.707293 0.368389
Si Si3 0.887343 0.858103 0.049621
Si Si4 0.129751 0.484755 0.640126
Si Si5 0.275163 0.129977 0.192683
Si Si6 0.871765 0.252244 0.176189
O O1 0.111469 0.489460 0.068091
O O2 0.095199 0.275937 0.046264
O O3 0.267647 0.371637 0.046046
O O4 0.149845 0.436713 0.977281
O O5 0.395865 0.803453 0.411749
O O6 0.517934 0.688813 0.363940
O O7 0.348923 0.591465 0.383995
O O8 0.937018 0.899343 0.998252
O O9 0.173413 0.558602 0.685849
O O10 0.084499 0.569764 0.598730
O O11 0.085439 0.371287 0.664250
O O12 0.250000 0.250000 0.168359
O O13 0.750000 0.250000 0.178568
#
# Coordination Sequence:
#
# PCOD9370122 Si02
#       6
#    16  16  16  16  16  16
#     4  10  18  32  58  81 105 139 189 226 287 328
#     4   8  17  31  53  78 100 143 176 222 272 333
#     4  10  18  33  58  82 106 143 186 235 273 336
#     4   8  18  32  55  76 108 144 177 233 272 331
#     4  10  18  34  57  80 104 146 188 224 274 338
#     4  10  17  35  53  77 112 141 181 224 285 338
#
# _framework density 22.49014
#
# number of rings (size 3 to 8) (size 9 to 14) (size 15 to 20)
#    1.000    1.667    1.667    1.000    0.000    0.000 
#    3.000    1.667    7.333    0.000    0.000    0.000 
#    0.000    0.000    0.000    0.000    0.000    0.000 
#
# Total GULP energy -133613.562311 kJ/mol
# GULP energy per Si atom -5567.231763 kJ/mol
# Density = 2.243895 g / cm^3
# Si number density = 22.490140 Si / 1000 Ang^3
#
#
#
# Elastic Constant Matrix: (Units=GPa)
#
#
# Indices 1 2 3 4 5 6 
#
# 1 44.5516 2.0751 3.3610 0.0000 0.0000 0.0000
# 2 2.0751 162.5874 34.6461 0.0000 0.0000 0.0000
# 3 3.3610 34.6461 76.5888 0.0000 0.0000 0.0000
# 4 0.0000 0.0000 0.0000 37.0326 0.0000 0.0000
# 5 0.0000 0.0000 0.0000 0.0000 22.5819 0.0000
# 6 0.0000 0.0000 0.0000 0.0000 0.0000 -9.3867
#
#
#
# Elastic Compliance Matrix: (Units=1/GPa)
#
#
# Indices 1 2 3 4 5 6 
#
# 1 0.022522 -0.000085 -0.000950 0.000000 0.000000 0.000000
# 2 -0.000085 0.006807 -0.003076 0.000000 0.000000 0.000000
# 3 -0.000950 -0.003076 0.014490 0.000000 0.000000 0.000000
# 4 0.000000 0.000000 0.000000 0.027003 0.000000 0.000000
# 5 0.000000 0.000000 0.000000 0.000000 0.044283 0.000000
# 6 0.000000 0.000000 0.000000 0.000000 0.000000 -0.106534
#
#
# Mechanical properties :
#
#
# Convention : Reuss Voigt Hill
#
# Bulk Modulus (GPa) = 28.09198 40.43249 34.26224
# Shear Modulus (GPa) = 174.47614 26.28859 100.38237
#
# Velocity S-wave (km/s) = 8.81745 3.42262 6.68811
# Velocity P-wave (km/s) = 10.77873 5.79965 8.65497
#
# Compressibility (1/GPa) = 0.03559735
#
# Stress axis : x y z
#
# Youngs Moduli (GPa) = 44.40196 146.90775 69.01459
#
# Poissons Ratio (x) = 0.01249 0.06556
# Poissons Ratio (y) = 0.00378 0.21226
# Poissons Ratio (z) = 0.04218 0.45182
#
# Static dielectric constant tensor:
#      x y z
#    x 1.918970 0.000000 0.000000 
#    y 0.000000 1.874920 0.000000 
#    z 0.000000 0.000000 1.812910 
# 
# From -- ./inp_files/18308.got.cif
#   From: 2010.05.17/outbox.cif.g08.bks.cpg/sg43_10_cif.got.tgz:18308.got - 2010.06.03 19:21:55.
