data_PCOD9370251
_publ_section_title
;
Structure prediction by ZEFSAII (Michael W. Deem and Ramdas Pophale) SiO2 
 PCOD9370251
Probable space group: F D D 2
;
_chemical_formula_sum "Si O2"
_cell_formula_units_Z 96
_cell_length_a 10.422569
_cell_length_b 14.435071
_cell_length_c 27.775334
_cell_angle_alpha 90.000000
_cell_angle_beta 90.000000
_cell_angle_gamma 90.000000
_cell_volume 4178.813541
_symmetry_space_group_name_H-M "F D D 2"
_symmetry_group_IT_number 43
_symmetry_cell_setting 'orthorhombic'
loop_
_space_group_symop_operation_xyz
x,y,z
-x,-y,z
1/4-x,1/4+y,1/4+z
1/4+x,1/4-y,1/4+z
x,1/2+y,1/2+z
-x,1/2-y,1/2+z
1/4-x,3/4+y,3/4+z
1/4+x,3/4-y,3/4+z
1/2+x,y,1/2+z
1/2-x,-y,1/2+z
3/4-x,1/4+y,3/4+z
3/4+x,1/4-y,3/4+z
1/2+x,1/2+y,z
1/2-x,1/2-y,z
3/4-x,3/4+y,1/4+z
3/4+x,3/4-y,1/4+z
loop_
_atom_site_type_symbol
_atom_site_label
_atom_site_fract_x
_atom_site_fract_y
_atom_site_fract_z
Si Si1 0.498801 0.614049 0.545890
Si Si2 0.492260 0.112818 0.510215
Si Si3 0.231711 0.401124 0.582971
Si Si4 0.185234 0.848355 0.190371
Si Si5 0.528993 0.869774 0.322725
Si Si6 0.169964 0.846700 0.921537
O O1 0.500000 0.500000 0.548009
O O2 0.632025 0.643616 0.570250
O O3 0.510991 0.639874 0.489769
O O4 0.368138 0.651959 0.569462
O O5 0.388021 0.135533 0.552062
O O6 0.629943 0.147054 0.528574
O O7 0.440597 0.156169 0.461168
O O8 0.500000 0.000000 0.505070
O O9 0.213531 0.397169 0.639978
O O10 0.234103 0.508743 0.569317
O O11 0.250000 0.750000 0.185864
O O12 0.031396 0.838203 0.193269
O O13 0.607295 0.882612 0.372312
O O14 0.250000 0.750000 0.915787
#
# Coordination Sequence:
#
# PCOD9370251 Si02
#       6
#    16  16  16  16  16  16
#     4   9  20  36  59  85 124 166 210 254 323 385
#     4  10  21  37  65  92 124 167 215 262 328 384
#     4  10  18  38  61  87 119 170 214 251 316 396
#     4  11  22  37  61  94 125 160 219 266 315 381
#     4  10  20  39  62  91 125 170 212 264 321 394
#     4  12  22  41  69  96 125 172 224 268 320 397
#
# _framework density 22.973027999999999
#
# number of rings (size 3 to 8) (size 9 to 14) (size 15 to 20)
#    0.000    1.667    5.000    0.500    2.333    2.000 
#    0.000    0.000    0.000    0.000    0.000    0.000 
#    0.000    0.000    0.000    0.000    0.000    0.000 
#
# Total GULP energy -134071.132621 kJ/mol
# GULP energy per Si atom -5586.297193 kJ/mol
# Density = 2.292074 g / cm^3
# Si number density = 22.973028 Si / 1000 Ang^3
#
#
#
# Elastic Constant Matrix: (Units=GPa)
#
#
# Indices 1 2 3 4 5 6 
#
# 1 149.7188 14.1140 64.7197 0.0000 0.0000 0.0000
# 2 14.1140 62.8604 0.8571 0.0000 0.0000 0.0000
# 3 64.7197 0.8571 132.3268 0.0000 0.0000 0.0000
# 4 0.0000 0.0000 0.0000 14.8416 0.0000 0.0000
# 5 0.0000 0.0000 0.0000 0.0000 59.4906 0.0000
# 6 0.0000 0.0000 0.0000 0.0000 0.0000 8.9454
#
#
#
# Elastic Compliance Matrix: (Units=1/GPa)
#
#
# Indices 1 2 3 4 5 6 
#
# 1 0.008690 -0.001893 -0.004238 0.000000 0.000000 0.000000
# 2 -0.001893 0.016322 0.000820 0.000000 0.000000 0.000000
# 3 -0.004238 0.000820 0.009624 0.000000 0.000000 0.000000
# 4 0.000000 0.000000 0.000000 0.067378 0.000000 0.000000
# 5 0.000000 0.000000 0.000000 0.000000 0.016809 0.000000
# 6 0.000000 0.000000 0.000000 0.000000 0.000000 0.111789
#
#
# Mechanical properties :
#
#
# Convention : Reuss Voigt Hill
#
# Bulk Modulus (GPa) = 41.64129 56.03195 48.83662
# Shear Modulus (GPa) = 20.06105 34.33654 27.19880
#
# Velocity S-wave (km/s) = 2.95828 3.87026 3.44458
# Velocity P-wave (km/s) = 5.46205 6.66447 6.09300
#
# Compressibility (1/GPa) = 0.02401462
#
# Stress axis : x y z
#
# Youngs Moduli (GPa) = 115.08126 61.26636 103.90321
#
# Poissons Ratio (x) = 0.11599 0.44031
# Poissons Ratio (y) = 0.21788 -0.08523
# Poissons Ratio (z) = 0.48768 -0.05025
#
# Static dielectric constant tensor:
#      x y z
#    x 1.874620 0.000000 0.000000 
#    y 0.000000 1.940960 0.000000 
#    z 0.000000 0.000000 1.830760 
# 
# From -- ./inp_files/24235.got.cif
#   From: 2010.05.17/outbox.cif.g08.bks.cpg/sg43_13_cif.got.tgz:24235.got - 2010.06.03 19:21:55.
