data_PCOD9370146
_publ_section_title
;
Structure prediction by ZEFSAII (Michael W. Deem and Ramdas Pophale) SiO2 
 PCOD9370146
Probable space group: F D D 2
;
_chemical_formula_sum "Si O2"
_cell_formula_units_Z 120
_cell_length_a 26.945725
_cell_length_b 26.441932
_cell_length_c 7.143149
_cell_angle_alpha 90.000000
_cell_angle_beta 90.000000
_cell_angle_gamma 90.000000
_cell_volume 5089.472434
_symmetry_space_group_name_H-M "F D D 2"
_symmetry_group_IT_number 43
_symmetry_cell_setting 'orthorhombic'
loop_
_space_group_symop_operation_xyz
x,y,z
-x,-y,z
1/4-x,1/4+y,1/4+z
1/4+x,1/4-y,1/4+z
x,1/2+y,1/2+z
-x,1/2-y,1/2+z
1/4-x,3/4+y,3/4+z
1/4+x,3/4-y,3/4+z
1/2+x,y,1/2+z
1/2-x,-y,1/2+z
3/4-x,1/4+y,3/4+z
3/4+x,1/4-y,3/4+z
1/2+x,1/2+y,z
1/2-x,1/2-y,z
3/4-x,3/4+y,1/4+z
3/4+x,3/4-y,1/4+z
loop_
_atom_site_type_symbol
_atom_site_label
_atom_site_fract_x
_atom_site_fract_y
_atom_site_fract_z
Si Si1 0.250000 0.250000 0.127841
Si Si2 0.295311 0.654272 0.631772
Si Si3 0.869312 0.138085 0.170799
Si Si4 0.790499 0.943447 0.539434
Si Si5 0.610058 0.812630 0.308698
Si Si6 0.502083 0.800619 0.363413
Si Si7 0.509996 0.591405 0.324234
Si Si8 0.420719 0.032295 0.691572
O O1 0.267528 0.199582 0.025651
O O2 0.296707 0.269362 0.254233
O O3 0.352614 0.668825 0.649474
O O4 0.281327 0.598885 0.564110
O O5 0.275654 0.657711 0.850565
O O6 0.902784 0.177422 0.282665
O O7 0.883991 0.080312 0.214820
O O8 0.889286 0.141622 0.956364
O O9 0.813090 0.156841 0.173814
O O10 0.770673 0.943331 0.325630
O O11 0.763428 0.895233 0.627671
O O12 0.777494 0.998794 0.606220
O O13 0.554237 0.799449 0.251024
O O14 0.634353 0.766226 0.428562
O O15 0.466785 0.548461 0.330020
#
# Coordination Sequence:
#
# PCOD9370146 Si02
#       8
#     8  16  16  16  16  16  16  16
#     4   8  12  22  36  58  90 116 144 196 244 268
#     4   8  15  25  42  68  97 123 158 203 244 282
#     4   9  16  26  41  67  95 121 155 194 238 282
#     4   9  18  29  47  70  97 130 159 194 242 289
#     4   9  16  26  45  70  95 127 160 196 248 288
#     4  10  18  31  48  72 102 128 157 200 243 289
#     4   8  14  26  42  65  96 126 158 202 243 279
#     4   9  15  23  39  64  93 118 153 200 240 282
#
# _framework density 23.578082999999999
#
# number of rings (size 3 to 8) (size 9 to 14) (size 15 to 20)
#    0.000    3.200    0.000    4.000    0.000    0.000 
#    0.000    0.000    0.000    8.000    0.000    1.867 
#    0.000    6.400    0.000    0.000    0.000    0.000 
#
# Total GULP energy -167081.982249 kJ/mol
# GULP energy per Si atom -5569.399408 kJ/mol
# Density = 2.352442 g / cm^3
# Si number density = 23.578083 Si / 1000 Ang^3
#
#
#
# Elastic Constant Matrix: (Units=GPa)
#
#
# Indices 1 2 3 4 5 6 
#
# 1 154.9964 99.0749 26.8353 -0.0010 -0.0014 -0.0026
# 2 99.0749 182.2227 13.4700 -0.0003 0.0001 -0.0024
# 3 26.8353 13.4700 38.1112 -0.0131 0.0093 0.0019
# 4 -0.0010 -0.0003 -0.0131 20.1806 0.0054 -0.0035
# 5 -0.0014 0.0001 0.0093 0.0054 18.5872 0.0007
# 6 -0.0026 -0.0024 0.0019 -0.0035 0.0007 18.4294
#
#
#
# Elastic Compliance Matrix: (Units=1/GPa)
#
#
# Indices 1 2 3 4 5 6 
#
# 1 0.011005 -0.005556 -0.005785 -0.000003 0.000004 0.000001
# 2 -0.005556 0.008440 0.000929 0.000000 -0.000001 0.000000
# 3 -0.005785 0.000929 0.029984 0.000019 -0.000016 -0.000004
# 4 -0.000003 0.000000 0.000019 0.049552 -0.000014 0.000009
# 5 0.000004 -0.000001 -0.000016 -0.000014 0.053800 -0.000002
# 6 0.000001 0.000000 -0.000004 0.000009 -0.000002 0.054261
#
#
# Mechanical properties :
#
#
# Convention : Reuss Voigt Hill
#
# Bulk Modulus (GPa) = 34.95899 72.67675 53.81787
# Shear Modulus (GPa) = 21.06143 27.16945 24.11544
#
# Velocity S-wave (km/s) = 2.99199 3.39826 3.20158
# Velocity P-wave (km/s) = 5.17640 6.80356 6.04498
#
# Compressibility (1/GPa) = 0.02860495
#
# Stress axis : x y z
#
# Youngs Moduli (GPa) = 90.87174 118.48774 33.35092
#
# Poissons Ratio (x) = 0.65826 0.19294
# Poissons Ratio (y) = 0.50484 -0.03098
# Poissons Ratio (z) = 0.52570 -0.11007
#
# Static dielectric constant tensor:
#      x y z
#    x 1.927560 0.000000 -0.000010 
#    y 0.000000 1.886700 0.000000 
#    z -0.000010 0.000000 2.006990 
# 
# From -- ./inp_files/4420.got.cif
#   From: 2010.05.17/outbox.cif.g08.bks.cpg/sg43_3_cif.got.tgz:4420.got - 2010.06.03 19:21:55.
