data_PCOD9370064
_publ_section_title
;
Structure prediction by ZEFSAII (Michael W. Deem and Ramdas Pophale) SiO2 
 PCOD9370064
Probable space group: F D D 2
;
_chemical_formula_sum "Si O2"
_cell_formula_units_Z 120
_cell_length_a 10.538747
_cell_length_b 31.832392
_cell_length_c 21.797055
_cell_angle_alpha 90.000000
_cell_angle_beta 90.000000
_cell_angle_gamma 90.000000
_cell_volume 7312.334891
_symmetry_space_group_name_H-M "F D D 2"
_symmetry_group_IT_number 43
_symmetry_cell_setting 'orthorhombic'
loop_
_space_group_symop_operation_xyz
x,y,z
-x,-y,z
1/4-x,1/4+y,1/4+z
1/4+x,1/4-y,1/4+z
x,1/2+y,1/2+z
-x,1/2-y,1/2+z
1/4-x,3/4+y,3/4+z
1/4+x,3/4-y,3/4+z
1/2+x,y,1/2+z
1/2-x,-y,1/2+z
3/4-x,1/4+y,3/4+z
3/4+x,1/4-y,3/4+z
1/2+x,1/2+y,z
1/2-x,1/2-y,z
3/4-x,3/4+y,1/4+z
3/4+x,3/4-y,1/4+z
loop_
_atom_site_type_symbol
_atom_site_label
_atom_site_fract_x
_atom_site_fract_y
_atom_site_fract_z
Si Si1 0.066356 0.591924 0.726490
Si Si2 0.148592 0.781318 0.199206
Si Si3 0.858560 0.064178 0.996629
Si Si4 0.500000 0.000000 0.408214
Si Si5 0.653920 0.504566 0.220493
Si Si6 0.087431 0.180106 0.385693
Si Si7 0.255178 0.528323 0.351066
Si Si8 0.545846 0.904230 0.863606
O O1 0.121059 0.638436 0.722820
O O2 0.165492 0.554577 0.713330
O O3 0.947300 0.587642 0.680491
O O4 0.016357 0.587587 0.796641
O O5 0.250000 0.750000 0.230175
O O6 0.082336 0.752511 0.146975
O O7 0.219807 0.818842 0.164164
O O8 0.038744 0.800101 0.241277
O O9 0.893690 0.062570 0.068023
O O10 0.936142 0.033847 0.952875
O O11 0.391032 0.977881 0.368078
O O12 0.500000 0.500000 0.224862
O O13 0.699837 0.474503 0.165853
O O14 0.714331 0.487518 0.282867
O O15 0.978290 0.144685 0.378695
O O16 0.314865 0.574793 0.360135
#
# Coordination Sequence:
#
# PCOD9370064 Si02
#       8
#    16  16  16   8  16  16  16  16
#     4  10  18  31  55  82 106 133 182 237 275 314
#     4   9  16  29  51  74  96 133 180 224 267 312
#     4  10  21  34  49  79 114 142 180 220 280 343
#     4  10  24  34  52  78 114 154 172 216 282 342
#     4  10  17  31  57  87 100 135 183 240 275 305
#     4  10  20  29  55  83 112 132 174 231 283 317
#     4  10  17  33  55  73 107 132 190 218 263 322
#     4  10  16  30  54  82 100 132 176 239 269 308
#
# _framework density 16.410627000000002
#
# number of rings (size 3 to 8) (size 9 to 14) (size 15 to 20)
#    0.000    2.133    5.333    0.400    2.800    0.000 
#    0.000    0.000    7.333    1.600    0.000    0.000 
#    0.000    0.000    0.000    0.000    0.000    0.000 
#
# Total GULP energy -167065.572034 kJ/mol
# GULP energy per Si atom -5568.852401 kJ/mol
# Density = 1.637328 g / cm^3
# Si number density = 16.410627 Si / 1000 Ang^3
#
#
#
# Elastic Constant Matrix: (Units=GPa)
#
#
# Indices 1 2 3 4 5 6 
#
# 1 68.1597 42.3900 15.7496 0.0000 0.0000 0.0000
# 2 42.3900 135.9197 42.6037 0.0000 0.0000 0.0000
# 3 15.7496 42.6037 59.0000 0.0000 0.0000 0.0000
# 4 0.0000 0.0000 0.0000 24.4645 0.0000 0.0000
# 5 0.0000 0.0000 0.0000 0.0000 12.9037 0.0000
# 6 0.0000 0.0000 0.0000 0.0000 0.0000 15.9356
#
#
#
# Elastic Compliance Matrix: (Units=1/GPa)
#
#
# Indices 1 2 3 4 5 6 
#
# 1 0.018246 -0.005382 -0.000984 0.000000 0.000000 0.000000
# 2 -0.005382 0.011097 -0.006577 0.000000 0.000000 0.000000
# 3 -0.000984 -0.006577 0.021961 0.000000 0.000000 0.000000
# 4 0.000000 0.000000 0.000000 0.040876 0.000000 0.000000
# 5 0.000000 0.000000 0.000000 0.000000 0.077497 0.000000
# 6 0.000000 0.000000 0.000000 0.000000 0.000000 0.062752
#
#
# Mechanical properties :
#
#
# Convention : Reuss Voigt Hill
#
# Bulk Modulus (GPa) = 39.34170 51.61844 45.48007
# Shear Modulus (GPa) = 18.74150 21.48317 20.11233
#
# Velocity S-wave (km/s) = 3.38307 3.62208 3.50461
# Velocity P-wave (km/s) = 6.26782 7.00108 6.64457
#
# Compressibility (1/GPa) = 0.02541832
#
# Stress axis : x y z
#
# Youngs Moduli (GPa) = 54.80645 90.11286 45.53561
#
# Poissons Ratio (x) = 0.48498 0.04482
# Poissons Ratio (y) = 0.29497 0.29947
# Poissons Ratio (z) = 0.05395 0.59263
#
# Static dielectric constant tensor:
#      x y z
#    x 1.548000 0.000000 0.000000 
#    y 0.000000 1.597280 0.000000 
#    z 0.000000 0.000000 1.531540 
# 
# From -- ./inp_files/17385.got.cif
#   From: 2010.05.17/outbox.cif.g08.bks.cpg/sg43_9_cif.got.tgz:17385.got - 2010.06.03 19:21:55.
