data_PCOD9370524
_publ_section_title
;
Structure prediction by ZEFSAII (Michael W. Deem and Ramdas Pophale) SiO2 
 PCOD9370524
Probable space group: F D D 2
;
_chemical_formula_sum "Si O2"
_cell_formula_units_Z 104
_cell_length_a 27.014495
_cell_length_b 9.492560
_cell_length_c 17.189621
_cell_angle_alpha 90.000000
_cell_angle_beta 90.000000
_cell_angle_gamma 90.000000
_cell_volume 4408.049935
_symmetry_space_group_name_H-M "F D D 2"
_symmetry_group_IT_number 43
_symmetry_cell_setting 'orthorhombic'
loop_
_space_group_symop_operation_xyz
x,y,z
-x,-y,z
1/4-x,1/4+y,1/4+z
1/4+x,1/4-y,1/4+z
x,1/2+y,1/2+z
-x,1/2-y,1/2+z
1/4-x,3/4+y,3/4+z
1/4+x,3/4-y,3/4+z
1/2+x,y,1/2+z
1/2-x,-y,1/2+z
3/4-x,1/4+y,3/4+z
3/4+x,1/4-y,3/4+z
1/2+x,1/2+y,z
1/2-x,1/2-y,z
3/4-x,3/4+y,1/4+z
3/4+x,3/4-y,1/4+z
loop_
_atom_site_type_symbol
_atom_site_label
_atom_site_fract_x
_atom_site_fract_y
_atom_site_fract_z
Si Si1 0.348112 0.592858 0.063330
Si Si2 0.924064 0.529372 0.323061
Si Si3 0.976289 0.201973 0.465119
Si Si4 0.750000 0.250000 0.696725
Si Si5 0.912258 0.580654 0.089878
Si Si6 0.250000 0.750000 0.077279
Si Si7 0.088301 0.676117 0.998195
Si Si8 0.500000 0.500000 0.698860
O O1 0.345315 0.428176 0.041632
O O2 0.297919 0.677567 0.037916
O O3 0.352466 0.602979 0.158055
O O4 0.393205 0.670430 0.022258
O O5 0.961549 0.576947 0.390033
O O6 0.882518 0.432072 0.360413
O O7 0.957837 0.444673 0.259973
O O8 0.973009 0.368205 0.483128
O O9 0.929818 0.134775 0.506041
O O10 0.979835 0.130008 0.380517
O O11 0.029115 0.160033 0.501610
O O12 0.961611 0.583157 0.143069
O O13 0.893053 0.425599 0.067766
#
# Coordination Sequence:
#
# PCOD9370524 Si02
#       8
#    16  16  16   8  16   8  16   8
#     4  11  25  45  70 105 138 185 246 301 376 445
#     4  11  28  43  71 102 146 189 239 314 368 437
#     4  11  21  43  68  96 127 184 231 287 349 440
#     4  11  24  44  69  99 136 179 248 290 365 434
#     4  12  25  44  73  98 145 194 236 305 372 445
#     4  10  19  44  69  89 135 176 228 284 352 435
#     4  11  24  43  69  99 139 184 242 294 362 452
#     4  11  27  46  64 112 149 185 262 296 373 469
#
# _framework density 23.593198999999998
#
# number of rings (size 3 to 8) (size 9 to 14) (size 15 to 20)
#    0.000    0.923    7.692    0.000   10.769    0.000 
#    0.000    0.000    0.000    0.000    0.000    0.000 
#    0.000    0.000    0.000    0.000    0.000    0.000 
#
# Total GULP energy -144910.647336 kJ/mol
# GULP energy per Si atom -5573.486436 kJ/mol
# Density = 2.353950 g / cm^3
# Si number density = 23.593199 Si / 1000 Ang^3
#
#
#
# Elastic Constant Matrix: (Units=GPa)
#
#
# Indices 1 2 3 4 5 6 
#
# 1 87.9468 17.0102 26.4170 0.0000 0.0000 0.0000
# 2 17.0102 121.7052 3.5590 0.0000 0.0000 0.0000
# 3 26.4170 3.5590 56.5331 0.0000 0.0000 0.0000
# 4 0.0000 0.0000 0.0000 21.2558 0.0000 0.0000
# 5 0.0000 0.0000 0.0000 0.0000 31.8386 0.0000
# 6 0.0000 0.0000 0.0000 0.0000 0.0000 44.6556
#
#
#
# Elastic Compliance Matrix: (Units=1/GPa)
#
#
# Indices 1 2 3 4 5 6 
#
# 1 0.013575 -0.001715 -0.006236 0.000000 0.000000 0.000000
# 2 -0.001715 0.008448 0.000270 0.000000 0.000000 0.000000
# 3 -0.006236 0.000270 0.020586 0.000000 0.000000 0.000000
# 4 0.000000 0.000000 0.000000 0.047046 0.000000 0.000000
# 5 0.000000 0.000000 0.000000 0.000000 0.031408 0.000000
# 6 0.000000 0.000000 0.000000 0.000000 0.000000 0.022394
#
#
# Mechanical properties :
#
#
# Convention : Reuss Voigt Hill
#
# Bulk Modulus (GPa) = 36.70107 40.01751 38.35929
# Shear Modulus (GPa) = 29.77936 34.16326 31.97131
#
# Velocity S-wave (km/s) = 3.55660 3.80940 3.68517
# Velocity P-wave (km/s) = 5.69697 6.02885 5.86526
#
# Compressibility (1/GPa) = 0.02724716
#
# Stress axis : x y z
#
# Youngs Moduli (GPa) = 73.66371 118.36570 48.57782
#
# Poissons Ratio (x) = 0.20300 0.30291
# Poissons Ratio (y) = 0.12633 -0.01309
# Poissons Ratio (z) = 0.45933 -0.03190
#
# Static dielectric constant tensor:
#      x y z
#    x 1.896020 0.000000 0.000000 
#    y 0.000000 2.035730 0.000000 
#    z 0.000000 0.000000 1.949280 
# 
# From -- ./inp_files/16597.got.cif
#   From: 2010.05.17/outbox.cif.g08.bks.cpg/sg43_9_cif.got.tgz:16597.got - 2010.06.03 19:21:55.
