data_PCOD9370231
_publ_section_title
;
Structure prediction by ZEFSAII (Michael W. Deem and Ramdas Pophale) SiO2 
 PCOD9370231
Probable space group: F D D 2
;
_chemical_formula_sum "Si O2"
_cell_formula_units_Z 88
_cell_length_a 17.264423
_cell_length_b 28.863796
_cell_length_c 9.671346
_cell_angle_alpha 90.000000
_cell_angle_beta 90.000000
_cell_angle_gamma 90.000000
_cell_volume 4819.394031
_symmetry_space_group_name_H-M "F D D 2"
_symmetry_group_IT_number 43
_symmetry_cell_setting 'orthorhombic'
loop_
_space_group_symop_operation_xyz
x,y,z
-x,-y,z
1/4-x,1/4+y,1/4+z
1/4+x,1/4-y,1/4+z
x,1/2+y,1/2+z
-x,1/2-y,1/2+z
1/4-x,3/4+y,3/4+z
1/4+x,3/4-y,3/4+z
1/2+x,y,1/2+z
1/2-x,-y,1/2+z
3/4-x,1/4+y,3/4+z
3/4+x,1/4-y,3/4+z
1/2+x,1/2+y,z
1/2-x,1/2-y,z
3/4-x,3/4+y,1/4+z
3/4+x,3/4-y,1/4+z
loop_
_atom_site_type_symbol
_atom_site_label
_atom_site_fract_x
_atom_site_fract_y
_atom_site_fract_z
Si Si1 0.931358 0.842057 0.614710
Si Si2 0.500000 0.000000 0.758616
Si Si3 0.713351 0.085216 0.632682
Si Si4 0.092861 0.729261 0.878621
Si Si5 0.815043 0.097263 0.906896
Si Si6 0.250153 0.341526 0.646961
O O1 0.943504 0.799386 0.507451
O O2 0.842749 0.840222 0.668013
O O3 0.988127 0.841622 0.743373
O O4 0.951901 0.886704 0.521813
O O5 0.433722 0.021008 0.663691
O O6 0.530144 0.040878 0.856336
O O7 0.769495 0.091288 0.764388
O O8 0.643624 0.122608 0.640044
O O9 0.682652 0.032421 0.629044
O O10 0.078834 0.701161 0.737403
O O11 0.763097 0.126764 0.012928
#
# Coordination Sequence:
#
# PCOD9370231 Si02
#       6
#    16   8  16  16  16  16
#     4  10  22  38  59  87 120 156 199 248 307 361
#     4  10  18  36  64  88 114 156 206 260 292 372
#     4  12  22  40  62  89 128 154 201 265 301 363
#     4  10  22  38  63  90 119 160 212 243 311 368
#     4  11  23  38  66  90 118 168 204 249 314 362
#     4  10  20  39  59  85 114 157 200 241 304 368
#
# _framework density 18.259556
#
# number of rings (size 3 to 8) (size 9 to 14) (size 15 to 20)
#    0.000    1.455    1.818    5.455    0.000    0.000 
#    3.273    0.000    4.000    1.091    0.000    0.000 
#    0.000    0.000    0.000    0.000    0.000    0.000 
#
# Total GULP energy -122789.388369 kJ/mol
# GULP energy per Si atom -5581.335835 kJ/mol
# Density = 1.821800 g / cm^3
# Si number density = 18.259556 Si / 1000 Ang^3
#
#
#
# Elastic Constant Matrix: (Units=GPa)
#
#
# Indices 1 2 3 4 5 6 
#
# 1 71.5188 18.2761 28.6752 0.0000 0.0000 0.0000
# 2 18.2761 94.6109 29.9748 0.0000 0.0000 0.0000
# 3 28.6752 29.9748 90.7802 0.0000 0.0000 0.0000
# 4 0.0000 0.0000 0.0000 12.3921 0.0000 0.0000
# 5 0.0000 0.0000 0.0000 0.0000 -19.7606 0.0000
# 6 0.0000 0.0000 0.0000 0.0000 0.0000 27.6983
#
#
#
# Elastic Compliance Matrix: (Units=1/GPa)
#
#
# Indices 1 2 3 4 5 6 
#
# 1 0.016248 -0.001689 -0.004575 0.000000 0.000000 0.000000
# 2 -0.001689 0.011980 -0.003422 0.000000 0.000000 0.000000
# 3 -0.004575 -0.003422 0.013591 0.000000 0.000000 0.000000
# 4 0.000000 0.000000 0.000000 0.080696 0.000000 0.000000
# 5 0.000000 0.000000 0.000000 0.000000 -0.050606 0.000000
# 6 0.000000 0.000000 0.000000 0.000000 0.000000 0.036103
#
#
# Mechanical properties :
#
#
# Convention : Reuss Voigt Hill
#
# Bulk Modulus (GPa) = 44.54976 45.64022 45.09499
# Shear Modulus (GPa) = 37.07351 16.06489 26.56920
#
# Velocity S-wave (km/s) = 4.51084 2.96937 3.81870
# Velocity P-wave (km/s) = 7.18201 6.06677 6.64782
#
# Compressibility (1/GPa) = 0.02244681
#
# Stress axis : x y z
#
# Youngs Moduli (GPa) = 61.54528 83.47152 73.58049
#
# Poissons Ratio (x) = 0.14101 0.33660
# Poissons Ratio (y) = 0.10397 0.25180
# Poissons Ratio (z) = 0.28154 0.28565
#
# Static dielectric constant tensor:
#      x y z
#    x 1.625240 0.000000 0.000000 
#    y 0.000000 1.666120 0.000000 
#    z 0.000000 0.000000 1.606600 
# 
# From -- ./inp_files/2896.got.cif
#   From: 2010.05.17/outbox.cif.g08.bks.cpg/sg43_2_cif.got.tgz:2896.got - 2010.06.03 19:21:55.
