data_PCOD9370556
_publ_section_title
;
Structure prediction by ZEFSAII (Michael W. Deem and Ramdas Pophale) SiO2 
 PCOD9370556
Probable space group: F D D 2
;
_chemical_formula_sum "Si O2"
_cell_formula_units_Z 72
_cell_length_a 14.349726
_cell_length_b 24.614064
_cell_length_c 7.798120
_cell_angle_alpha 90.000000
_cell_angle_beta 90.000000
_cell_angle_gamma 90.000000
_cell_volume 2754.335553
_symmetry_space_group_name_H-M "F D D 2"
_symmetry_group_IT_number 43
_symmetry_cell_setting 'orthorhombic'
loop_
_space_group_symop_operation_xyz
x,y,z
-x,-y,z
1/4-x,1/4+y,1/4+z
1/4+x,1/4-y,1/4+z
x,1/2+y,1/2+z
-x,1/2-y,1/2+z
1/4-x,3/4+y,3/4+z
1/4+x,3/4-y,3/4+z
1/2+x,y,1/2+z
1/2-x,-y,1/2+z
3/4-x,1/4+y,3/4+z
3/4+x,1/4-y,3/4+z
1/2+x,1/2+y,z
1/2-x,1/2-y,z
3/4-x,3/4+y,1/4+z
3/4+x,3/4-y,1/4+z
loop_
_atom_site_type_symbol
_atom_site_label
_atom_site_fract_x
_atom_site_fract_y
_atom_site_fract_z
Si Si1 0.602251 0.192238 0.240240
Si Si2 0.500000 0.500000 0.972872
Si Si3 0.130744 0.155127 0.254190
Si Si4 0.769020 0.170407 0.451989
Si Si5 0.034503 0.297653 0.570527
O O1 0.710067 0.194214 0.296375
O O2 0.582156 0.131532 0.171477
O O3 0.573973 0.239312 0.111547
O O4 0.531052 0.201447 0.401852
O O5 0.446845 0.546483 0.075991
O O6 0.437354 0.465467 0.833383
O O7 0.031292 0.180475 0.223567
O O8 0.136828 0.094031 0.315328
O O9 0.182063 0.149343 0.068473
#
# Coordination Sequence:
#
# PCOD9370556 Si02
#       5
#    16   8  16  16  16
#     4  10  20  35  60  91 124 161 214 256 314 372
#     4   8  16  30  58  84 118 152 216 236 304 374
#     4   8  18  33  59  88 116 164 201 257 293 383
#     4   8  18  32  56  90 119 160 205 255 297 382
#     4  10  20  37  60  89 124 162 215 249 317 372
#
# _framework density 26.140605999999998
#
# number of rings (size 3 to 8) (size 9 to 14) (size 15 to 20)
#    1.333    1.778    0.000    0.000    3.111    1.778 
#    0.000    4.444    0.000    0.000    0.000    0.000 
#    0.000    0.000    0.000    0.000    0.000    0.000 
#
# Total GULP energy -100395.133280 kJ/mol
# GULP energy per Si atom -5577.507404 kJ/mol
# Density = 2.608111 g / cm^3
# Si number density = 26.140606 Si / 1000 Ang^3
#
#
#
# Elastic Constant Matrix: (Units=GPa)
#
#
# Indices 1 2 3 4 5 6 
#
# 1 46.6145 28.1340 29.5220 0.0000 0.0000 0.0000
# 2 28.1340 173.3314 36.3184 0.0000 0.0000 0.0000
# 3 29.5220 36.3184 63.6438 0.0000 0.0000 0.0000
# 4 0.0000 0.0000 0.0000 40.7386 0.0000 0.0000
# 5 0.0000 0.0000 0.0000 0.0000 129.8516 0.0000
# 6 0.0000 0.0000 0.0000 0.0000 0.0000 20.0339
#
#
#
# Elastic Compliance Matrix: (Units=1/GPa)
#
#
# Indices 1 2 3 4 5 6 
#
# 1 0.031167 -0.002305 -0.013142 0.000000 0.000000 0.000000
# 2 -0.002305 0.006723 -0.002767 0.000000 0.000000 0.000000
# 3 -0.013142 -0.002767 0.023388 0.000000 0.000000 0.000000
# 4 0.000000 0.000000 0.000000 0.024547 0.000000 0.000000
# 5 0.000000 0.000000 0.000000 0.000000 0.007701 0.000000
# 6 0.000000 0.000000 0.000000 0.000000 0.000000 0.049915
#
#
# Mechanical properties :
#
#
# Convention : Reuss Voigt Hill
#
# Bulk Modulus (GPa) = 40.24269 52.39316 46.31793
# Shear Modulus (GPa) = 26.57422 50.76585 38.67003
#
# Velocity S-wave (km/s) = 3.19186 4.41163 3.85035
# Velocity P-wave (km/s) = 5.38628 6.78500 6.12570
#
# Compressibility (1/GPa) = 0.02484923
#
# Stress axis : x y z
#
# Youngs Moduli (GPa) = 32.08545 148.73631 42.75775
#
# Poissons Ratio (x) = 0.34286 0.56191
# Poissons Ratio (y) = 0.07396 0.11833
# Poissons Ratio (z) = 0.42166 0.41161
#
# Static dielectric constant tensor:
#      x y z
#    x 1.960670 0.000000 0.000000 
#    y 0.000000 2.055090 0.000000 
#    z 0.000000 0.000000 2.221430 
# 
# From -- ./inp_files/6578.got.cif
#   From: 2010.05.17/outbox.cif.g08.bks.cpg/sg43_4_cif.got.tgz:6578.got - 2010.06.03 19:21:55.
