data_PCOD9370429
_publ_section_title
;
Structure prediction by ZEFSAII (Michael W. Deem and Ramdas Pophale) SiO2 
 PCOD9370429
Probable space group: F D D 2
;
_chemical_formula_sum "Si O2"
_cell_formula_units_Z 112
_cell_length_a 26.986701
_cell_length_b 9.658902
_cell_length_c 24.163042
_cell_angle_alpha 90.000000
_cell_angle_beta 90.000000
_cell_angle_gamma 90.000000
_cell_volume 6298.384444
_symmetry_space_group_name_H-M "F D D 2"
_symmetry_group_IT_number 43
_symmetry_cell_setting 'orthorhombic'
loop_
_space_group_symop_operation_xyz
x,y,z
-x,-y,z
1/4-x,1/4+y,1/4+z
1/4+x,1/4-y,1/4+z
x,1/2+y,1/2+z
-x,1/2-y,1/2+z
1/4-x,3/4+y,3/4+z
1/4+x,3/4-y,3/4+z
1/2+x,y,1/2+z
1/2-x,-y,1/2+z
3/4-x,1/4+y,3/4+z
3/4+x,1/4-y,3/4+z
1/2+x,1/2+y,z
1/2-x,1/2-y,z
3/4-x,3/4+y,1/4+z
3/4+x,3/4-y,1/4+z
loop_
_atom_site_type_symbol
_atom_site_label
_atom_site_fract_x
_atom_site_fract_y
_atom_site_fract_z
Si Si1 0.124794 0.457146 0.061980
Si Si2 0.308548 0.230868 0.918567
Si Si3 0.355947 0.856388 0.527064
Si Si4 0.368806 0.241085 0.690393
Si Si5 0.194983 0.262881 0.218426
Si Si6 0.681692 0.005994 0.636783
Si Si7 0.955634 0.215568 0.392156
O O1 0.086456 0.478992 0.111889
O O2 0.127117 0.295190 0.047410
O O3 0.178081 0.507698 0.084254
O O4 0.112553 0.537106 0.005549
O O5 0.250000 0.250000 0.913084
O O6 0.330025 0.076387 0.931616
O O7 0.326507 0.325691 0.970140
O O8 0.402872 0.950229 0.511831
O O9 0.326282 0.927404 0.576661
O O10 0.359563 0.105901 0.653771
O O11 0.325611 0.348449 0.673094
O O12 0.250000 0.250000 0.243212
O O13 0.198331 0.392428 0.176292
O O14 0.182286 0.128307 0.182233
O O15 0.736296 0.938063 0.638001
#
# Coordination Sequence:
#
# PCOD9370429 Si02
#       7
#    16  16  16  16  16  16  16
#     4  10  19  38  60  81 120 155 197 249 294 363
#     4  10  22  37  62  91 117 161 209 241 304 370
#     4  11  20  38  61  85 119 156 202 253 294 360
#     4  10  22  39  57  87 126 152 197 257 301 356
#     4  10  20  37  59  86 114 155 204 240 302 374
#     4  11  23  34  62  89 118 154 201 253 307 353
#     4  10  19  38  59  89 111 157 204 237 299 371
#
# _framework density 17.782336999999998
#
# number of rings (size 3 to 8) (size 9 to 14) (size 15 to 20)
#    0.000    1.714    5.714    0.429    4.000    3.429 
#    2.571    0.000    0.000    0.000    0.000    0.000 
#    0.000    0.000    0.000    0.000    0.000    0.000 
#
# Total GULP energy -156158.073124 kJ/mol
# GULP energy per Si atom -5577.074040 kJ/mol
# Density = 1.774186 g / cm^3
# Si number density = 17.782337 Si / 1000 Ang^3
#
#
#
# Elastic Constant Matrix: (Units=GPa)
#
#
# Indices 1 2 3 4 5 6 
#
# 1 84.3891 10.9018 23.3733 0.0000 0.0000 0.0000
# 2 10.9018 43.6084 9.4646 0.0000 0.0000 0.0000
# 3 23.3733 9.4646 87.4677 0.0000 0.0000 0.0000
# 4 0.0000 0.0000 0.0000 21.8948 0.0000 0.0000
# 5 0.0000 0.0000 0.0000 0.0000 14.1289 0.0000
# 6 0.0000 0.0000 0.0000 0.0000 0.0000 21.8341
#
#
#
# Elastic Compliance Matrix: (Units=1/GPa)
#
#
# Indices 1 2 3 4 5 6 
#
# 1 0.013072 -0.002570 -0.003215 0.000000 0.000000 0.000000
# 2 -0.002570 0.023988 -0.001909 0.000000 0.000000 0.000000
# 3 -0.003215 -0.001909 0.012498 0.000000 0.000000 0.000000
# 4 0.000000 0.000000 0.000000 0.045673 0.000000 0.000000
# 5 0.000000 0.000000 0.000000 0.000000 0.070777 0.000000
# 6 0.000000 0.000000 0.000000 0.000000 0.000000 0.045800
#
#
# Mechanical properties :
#
#
# Convention : Reuss Voigt Hill
#
# Bulk Modulus (GPa) = 29.26485 33.66052 31.46268
# Shear Modulus (GPa) = 20.95668 23.01994 21.98831
#
# Velocity S-wave (km/s) = 3.43667 3.60187 3.52024
# Velocity P-wave (km/s) = 5.67808 6.02231 5.85273
#
# Compressibility (1/GPa) = 0.03417069
#
# Stress axis : x y z
#
# Youngs Moduli (GPa) = 76.49706 41.68718 80.00968
#
# Poissons Ratio (x) = 0.10715 0.25724
# Poissons Ratio (y) = 0.19661 0.15273
# Poissons Ratio (z) = 0.24595 0.07957
#
# Static dielectric constant tensor:
#      x y z
#    x 1.614360 0.000000 0.000000 
#    y 0.000000 1.613030 0.000000 
#    z 0.000000 0.000000 1.604220 
# 
# From -- ./inp_files/18908.got.cif
#   From: 2010.05.17/outbox.cif.g08.bks.cpg/sg43_10_cif.got.tgz:18908.got - 2010.06.03 19:21:55.
