data_PCOD9370651
_publ_section_title
;
Structure prediction by ZEFSAII (Michael W. Deem and Ramdas Pophale) SiO2 
 PCOD9370651
Probable space group: F D D 2
;
_chemical_formula_sum "Si O2"
_cell_formula_units_Z 104
_cell_length_a 21.851715
_cell_length_b 7.777848
_cell_length_c 28.502787
_cell_angle_alpha 90.000000
_cell_angle_beta 90.000000
_cell_angle_gamma 90.000000
_cell_volume 4844.314234
_symmetry_space_group_name_H-M "F D D 2"
_symmetry_group_IT_number 43
_symmetry_cell_setting 'orthorhombic'
loop_
_space_group_symop_operation_xyz
x,y,z
-x,-y,z
1/4-x,1/4+y,1/4+z
1/4+x,1/4-y,1/4+z
x,1/2+y,1/2+z
-x,1/2-y,1/2+z
1/4-x,3/4+y,3/4+z
1/4+x,3/4-y,3/4+z
1/2+x,y,1/2+z
1/2-x,-y,1/2+z
3/4-x,1/4+y,3/4+z
3/4+x,1/4-y,3/4+z
1/2+x,1/2+y,z
1/2-x,1/2-y,z
3/4-x,3/4+y,1/4+z
3/4+x,3/4-y,1/4+z
loop_
_atom_site_type_symbol
_atom_site_label
_atom_site_fract_x
_atom_site_fract_y
_atom_site_fract_z
Si Si1 0.000000 0.000000 0.219661
Si Si2 0.434610 0.585590 0.380785
Si Si3 0.765673 0.053343 0.296671
Si Si4 0.104129 0.353662 0.776129
Si Si5 0.569979 0.506454 0.721636
Si Si6 0.307272 0.995444 0.896761
Si Si7 0.195539 0.886439 0.714179
O O1 0.057184 0.988801 0.253967
O O2 0.013860 0.844965 0.184403
O O3 0.500000 0.500000 0.372045
O O4 0.410080 0.664724 0.331595
O O5 0.380015 0.451487 0.395075
O O6 0.445189 0.721676 0.422635
O O7 0.750000 0.250000 0.307009
O O8 0.829301 0.067659 0.269196
O O9 0.778915 0.967529 0.346268
O O10 0.717229 0.963586 0.263844
O O11 0.097669 0.171522 0.749599
O O12 0.500000 0.500000 0.740127
O O13 0.562807 0.561416 0.666948
O O14 0.621792 0.357750 0.721964
O O15 0.250000 0.750000 0.703000
#
# Coordination Sequence:
#
# PCOD9370651 Si02
#       7
#     8  16  16  16  16  16  16
#     4  10  20  38  58 100 126 156 214 276 312 392
#     4  10  21  42  65  95 128 173 215 267 328 402
#     4  11  21  41  68  90 124 175 216 261 320 402
#     4  10  21  39  67  92 125 171 216 261 333 396
#     4  10  21  42  62  91 132 176 213 269 335 398
#     4   9  22  37  65  88 128 170 214 258 330 391
#     4  11  25  40  65  99 133 168 226 280 330 381
#
# _framework density 21.468468000000001
#
# number of rings (size 3 to 8) (size 9 to 14) (size 15 to 20)
#    0.000    1.846    2.308    0.923    5.385    3.077 
#    0.000    0.000    0.000    0.000    0.000    0.000 
#    0.000    0.000    0.000    0.000    0.000    0.000 
#
# Total GULP energy -144745.864551 kJ/mol
# GULP energy per Si atom -5567.148637 kJ/mol
# Density = 2.141960 g / cm^3
# Si number density = 21.468468 Si / 1000 Ang^3
#
#
#
# Elastic Constant Matrix: (Units=GPa)
#
#
# Indices 1 2 3 4 5 6 
#
# 1 167.8420 25.9343 29.1032 0.0003 0.0000 0.0002
# 2 25.9343 36.2302 14.6924 0.0007 0.0000 0.0004
# 3 29.1032 14.6924 109.6627 0.0002 0.0000 0.0001
# 4 0.0003 0.0007 0.0002 87.8270 0.0003 -0.0003
# 5 0.0000 0.0000 0.0000 0.0003 23.2546 0.0001
# 6 0.0002 0.0004 0.0001 -0.0003 0.0001 26.8471
#
#
#
# Elastic Compliance Matrix: (Units=1/GPa)
#
#
# Indices 1 2 3 4 5 6 
#
# 1 0.006852 -0.004407 -0.001228 0.000000 0.000000 0.000000
# 2 -0.004407 0.032021 -0.003121 0.000000 0.000000 0.000000
# 3 -0.001228 -0.003121 0.009863 0.000000 0.000000 0.000000
# 4 0.000000 0.000000 0.000000 0.011386 0.000000 0.000000
# 5 0.000000 0.000000 0.000000 0.000000 0.043002 0.000000
# 6 0.000000 0.000000 0.000000 0.000000 0.000000 0.037248
#
#
# Mechanical properties :
#
#
# Convention : Reuss Voigt Hill
#
# Bulk Modulus (GPa) = 32.02543 50.35498 41.19021
# Shear Modulus (GPa) = 29.71042 43.85273 36.78157
#
# Velocity S-wave (km/s) = 3.72413 4.52448 4.14367
# Velocity P-wave (km/s) = 5.78291 7.12747 6.49010
#
# Compressibility (1/GPa) = 0.03122518
#
# Stress axis : x y z
#
# Youngs Moduli (GPa) = 145.94672 31.22936 101.39042
#
# Poissons Ratio (x) = 0.13762 0.12451
# Poissons Ratio (y) = 0.64314 0.31640
# Poissons Ratio (z) = 0.17922 0.09746
#
# Static dielectric constant tensor:
#      x y z
#    x 1.881000 0.000000 0.000000 
#    y 0.000000 1.224010 0.000000 
#    z 0.000000 0.000000 1.769150 
# 
# From -- ./inp_files/28035.got.cif
#   From: 2010.05.17/outbox.cif.g08.bks.cpg/sg43_15_cif.got.tgz:28035.got - 2010.06.03 19:21:55.
