data_PCOD9370294
_publ_section_title
;
Structure prediction by ZEFSAII (Michael W. Deem and Ramdas Pophale) SiO2 
 PCOD9370294
Probable space group: F D D 2
;
_chemical_formula_sum "Si O2"
_cell_formula_units_Z 120
_cell_length_a 26.015094
_cell_length_b 20.978349
_cell_length_c 9.785276
_cell_angle_alpha 90.000000
_cell_angle_beta 90.000000
_cell_angle_gamma 90.000000
_cell_volume 5340.350790
_symmetry_space_group_name_H-M "F D D 2"
_symmetry_group_IT_number 43
_symmetry_cell_setting 'orthorhombic'
loop_
_space_group_symop_operation_xyz
x,y,z
-x,-y,z
1/4-x,1/4+y,1/4+z
1/4+x,1/4-y,1/4+z
x,1/2+y,1/2+z
-x,1/2-y,1/2+z
1/4-x,3/4+y,3/4+z
1/4+x,3/4-y,3/4+z
1/2+x,y,1/2+z
1/2-x,-y,1/2+z
3/4-x,1/4+y,3/4+z
3/4+x,1/4-y,3/4+z
1/2+x,1/2+y,z
1/2-x,1/2-y,z
3/4-x,3/4+y,1/4+z
3/4+x,3/4-y,1/4+z
loop_
_atom_site_type_symbol
_atom_site_label
_atom_site_fract_x
_atom_site_fract_y
_atom_site_fract_z
Si Si1 0.022569 0.636261 0.596980
Si Si2 0.750000 0.250000 0.424277
Si Si3 0.187603 0.681159 0.979188
Si Si4 0.587547 0.820747 0.926985
Si Si5 0.761315 0.524189 0.825045
Si Si6 0.054337 0.122894 0.788770
Si Si7 0.335529 0.732565 0.226841
Si Si8 0.920713 0.844843 0.369654
O O1 0.047569 0.634746 0.448697
O O2 0.063894 0.645399 0.715145
O O3 0.988817 0.574741 0.640120
O O4 0.986690 0.699228 0.603263
O O5 0.729198 0.309725 0.506945
O O6 0.703973 0.230580 0.323193
O O7 0.139278 0.667932 0.883554
O O8 0.191921 0.624034 0.089629
O O9 0.169915 0.739013 0.076093
O O10 0.612165 0.772258 0.814467
O O11 0.547497 0.790655 0.032413
O O12 0.637043 0.855078 0.996499
O O13 0.796403 0.540648 0.693981
O O14 0.781609 0.569476 0.946869
O O15 0.318570 0.659143 0.206787
#
# Coordination Sequence:
#
# PCOD9370294 Si02
#       8
#    16   8  16  16  16  16  16  16
#     4  12  28  44  66 105 148 182 226 299 363 418
#     4  10  18  42  68  98 128 172 230 282 342 418
#     4  11  23  41  72 100 135 183 237 286 353 420
#     4  10  23  42  72 104 130 189 240 288 352 427
#     4  12  23  47  73 100 140 187 239 292 354 432
#     4  11  25  44  68 104 138 181 234 293 356 424
#     4  10  21  41  73  98 133 176 243 289 337 433
#     4  11  24  43  68 103 133 183 241 276 357 419
#
# _framework density 22.470434000000001
#
# number of rings (size 3 to 8) (size 9 to 14) (size 15 to 20)
#    0.000    1.067    5.333    2.400    5.600    2.133 
#    7.200    0.000    0.000    0.000    0.000    0.000 
#    0.000    0.000    0.000    0.000    0.000    0.000 
#
# Total GULP energy -167770.564215 kJ/mol
# GULP energy per Si atom -5592.352140 kJ/mol
# Density = 2.241929 g / cm^3
# Si number density = 22.470434 Si / 1000 Ang^3
#
#
#
# Elastic Constant Matrix: (Units=GPa)
#
#
# Indices 1 2 3 4 5 6 
#
# 1 59.4454 26.4472 44.4825 -0.0004 0.0000 0.0000
# 2 26.4472 70.8702 30.6697 -0.0003 0.0001 0.0000
# 3 44.4825 30.6697 162.7809 -0.0013 0.0001 0.0000
# 4 -0.0004 -0.0003 -0.0013 -61.8655 0.0000 0.0001
# 5 0.0000 0.0001 0.0001 0.0000 24.4066 0.0000
# 6 0.0000 0.0000 0.0000 0.0001 0.0000 24.1183
#
#
#
# Elastic Compliance Matrix: (Units=1/GPa)
#
#
# Indices 1 2 3 4 5 6 
#
# 1 0.023654 -0.006565 -0.005227 0.000000 0.000000 0.000000
# 2 -0.006565 0.017185 -0.001444 0.000000 0.000000 0.000000
# 3 -0.005227 -0.001444 0.007844 0.000000 0.000000 0.000000
# 4 0.000000 0.000000 0.000000 -0.016164 0.000000 0.000000
# 5 0.000000 0.000000 0.000000 0.000000 0.040972 0.000000
# 6 0.000000 0.000000 0.000000 0.000000 0.000000 0.041462
#
#
# Mechanical properties :
#
#
# Convention : Reuss Voigt Hill
#
# Bulk Modulus (GPa) = 45.02272 55.14392 50.08332
# Shear Modulus (GPa) = 33.59550 10.09837 21.84694
#
# Velocity S-wave (km/s) = 3.87084 2.12222 3.12148
# Velocity P-wave (km/s) = 6.32913 5.53164 5.94377
#
# Compressibility (1/GPa) = 0.02221101
#
# Stress axis : x y z
#
# Youngs Moduli (GPa) = 42.27553 58.18978 127.49239
#
# Poissons Ratio (x) = 0.38203 0.66640
# Poissons Ratio (y) = 0.27755 0.18407
# Poissons Ratio (z) = 0.22097 0.08401
#
# Static dielectric constant tensor:
#      x y z
#    x 1.832530 0.000000 0.000000 
#    y 0.000000 2.381710 0.000000 
#    z 0.000000 0.000000 1.826490 
# 
# From -- ./inp_files/4344.got.cif
#   From: 2010.05.17/outbox.cif.g08.bks.cpg/sg43_3_cif.got.tgz:4344.got - 2010.06.03 19:21:55.
