data_PCOD9370218
_publ_section_title
;
Structure prediction by ZEFSAII (Michael W. Deem and Ramdas Pophale) SiO2 
 PCOD9370218
Probable space group: F D D 2
;
_chemical_formula_sum "Si O2"
_cell_formula_units_Z 104
_cell_length_a 20.395890
_cell_length_b 12.248359
_cell_length_c 19.941040
_cell_angle_alpha 90.000000
_cell_angle_beta 90.000000
_cell_angle_gamma 90.000000
_cell_volume 4981.594495
_symmetry_space_group_name_H-M "F D D 2"
_symmetry_group_IT_number 43
_symmetry_cell_setting 'orthorhombic'
loop_
_space_group_symop_operation_xyz
x,y,z
-x,-y,z
1/4-x,1/4+y,1/4+z
1/4+x,1/4-y,1/4+z
x,1/2+y,1/2+z
-x,1/2-y,1/2+z
1/4-x,3/4+y,3/4+z
1/4+x,3/4-y,3/4+z
1/2+x,y,1/2+z
1/2-x,-y,1/2+z
3/4-x,1/4+y,3/4+z
3/4+x,1/4-y,3/4+z
1/2+x,1/2+y,z
1/2-x,1/2-y,z
3/4-x,3/4+y,1/4+z
3/4+x,3/4-y,1/4+z
loop_
_atom_site_type_symbol
_atom_site_label
_atom_site_fract_x
_atom_site_fract_y
_atom_site_fract_z
Si Si1 0.719980 0.627043 0.866750
Si Si2 0.173839 0.221073 0.618883
Si Si3 0.825926 0.576532 0.763983
Si Si4 0.367886 0.313186 0.751767
Si Si5 0.250000 0.250000 0.420344
Si Si6 0.516076 0.234658 0.742995
Si Si7 0.391482 0.284740 0.372493
O O1 0.750000 0.750000 0.878793
O O2 0.772708 0.559879 0.821609
O O3 0.657082 0.630575 0.818489
O O4 0.706370 0.562726 0.934517
O O5 0.250000 0.250000 0.618308
O O6 0.146768 0.181051 0.548334
O O7 0.151091 0.139454 0.678336
O O8 0.135268 0.334394 0.625184
O O9 0.821864 0.704989 0.748147
O O10 0.824649 0.509539 0.695080
O O11 0.443766 0.284504 0.755578
O O12 0.242168 0.361393 0.464248
O O13 0.316564 0.246700 0.376085
O O14 0.562368 0.238972 0.808896
#
# Coordination Sequence:
#
# PCOD9370218 Si02
#       7
#    16  16  16  16   8  16  16
#     4  10  22  43  66  99 141 177 238 298 354 418
#     4  11  19  34  65 101 136 169 228 295 345 409
#     4  10  18  36  59  98 128 171 222 292 336 406
#     4  10  20  37  64  96 126 174 232 282 348 402
#     4  12  24  48  68 102 144 182 240 296 356 426
#     4  12  24  46  68 102 140 189 233 290 363 425
#     4  11  24  36  63 103 137 180 227 281 361 421
#
# _framework density 20.876850000000001
#
# number of rings (size 3 to 8) (size 9 to 14) (size 15 to 20)
#    0.000    1.231    4.615    4.154    2.154    0.000 
#    2.769    3.077    0.000    0.000    2.000    0.000 
#    0.000    0.000    0.000    0.000    0.000    0.000 
#
# Total GULP energy -144893.249096 kJ/mol
# GULP energy per Si atom -5572.817273 kJ/mol
# Density = 2.082933 g / cm^3
# Si number density = 20.876850 Si / 1000 Ang^3
#
#
#
# Elastic Constant Matrix: (Units=GPa)
#
#
# Indices 1 2 3 4 5 6 
#
# 1 152.0390 28.3327 81.4904 0.0000 0.0000 0.0000
# 2 28.3327 40.5583 42.8635 0.0000 0.0000 0.0000
# 3 81.4904 42.8635 198.6856 0.0000 0.0000 0.0000
# 4 0.0000 0.0000 0.0000 33.3361 0.0000 0.0000
# 5 0.0000 0.0000 0.0000 0.0000 44.3252 0.0000
# 6 0.0000 0.0000 0.0000 0.0000 0.0000 23.0060
#
#
#
# Elastic Compliance Matrix: (Units=1/GPa)
#
#
# Indices 1 2 3 4 5 6 
#
# 1 0.008701 -0.002988 -0.002924 0.000000 0.000000 0.000000
# 2 -0.002988 0.032964 -0.005886 0.000000 0.000000 0.000000
# 3 -0.002924 -0.005886 0.007502 0.000000 0.000000 0.000000
# 4 0.000000 0.000000 0.000000 0.029997 0.000000 0.000000
# 5 0.000000 0.000000 0.000000 0.000000 0.022561 0.000000
# 6 0.000000 0.000000 0.000000 0.000000 0.000000 0.043467
#
#
# Mechanical properties :
#
#
# Convention : Reuss Voigt Hill
#
# Bulk Modulus (GPa) = 39.10688 77.40621 58.25654
# Shear Modulus (GPa) = 28.19882 36.03988 32.11935
#
# Velocity S-wave (km/s) = 3.67920 4.15939 3.92665
# Velocity P-wave (km/s) = 6.06808 7.76051 6.96588
#
# Compressibility (1/GPa) = 0.02557095
#
# Stress axis : x y z
#
# Youngs Moduli (GPa) = 114.92352 30.33643 133.29369
#
# Poissons Ratio (x) = 0.09065 0.38978
# Poissons Ratio (y) = 0.34340 0.78455
# Poissons Ratio (z) = 0.33606 0.17856
#
# Static dielectric constant tensor:
#      x y z
#    x 1.778330 0.000000 0.000000 
#    y 0.000000 1.828250 0.000000 
#    z 0.000000 0.000000 1.987450 
# 
# From -- ./inp_files/14592.got.cif
#   From: 2010.05.17/outbox.cif.g08.bks.cpg/sg43_8_cif.got.tgz:14592.got - 2010.06.03 19:21:55.
