data_PCOD9370107
_publ_section_title
;
Structure prediction by ZEFSAII (Michael W. Deem and Ramdas Pophale) SiO2 
 PCOD9370107
Probable space group: F D D 2
;
_chemical_formula_sum "Si O2"
_cell_formula_units_Z 128
_cell_length_a 24.857796
_cell_length_b 26.293695
_cell_length_c 10.051940
_cell_angle_alpha 90.000000
_cell_angle_beta 90.000000
_cell_angle_gamma 90.000000
_cell_volume 6569.981220
_symmetry_space_group_name_H-M "F D D 2"
_symmetry_group_IT_number 43
_symmetry_cell_setting 'orthorhombic'
loop_
_space_group_symop_operation_xyz
x,y,z
-x,-y,z
1/4-x,1/4+y,1/4+z
1/4+x,1/4-y,1/4+z
x,1/2+y,1/2+z
-x,1/2-y,1/2+z
1/4-x,3/4+y,3/4+z
1/4+x,3/4-y,3/4+z
1/2+x,y,1/2+z
1/2-x,-y,1/2+z
3/4-x,1/4+y,3/4+z
3/4+x,1/4-y,3/4+z
1/2+x,1/2+y,z
1/2-x,1/2-y,z
3/4-x,3/4+y,1/4+z
3/4+x,3/4-y,1/4+z
loop_
_atom_site_type_symbol
_atom_site_label
_atom_site_fract_x
_atom_site_fract_y
_atom_site_fract_z
Si Si1 0.179310 0.541191 0.928370
Si Si2 0.846195 0.036162 0.665724
Si Si3 0.217685 0.698834 0.421133
Si Si4 0.475985 0.339343 0.323152
Si Si5 0.744714 0.521586 0.810079
Si Si6 0.724732 0.195488 0.100695
Si Si7 0.287749 0.103164 0.976368
Si Si8 0.879166 0.853139 0.477124
O O1 0.197361 0.507981 0.800850
O O2 0.154330 0.503391 0.039344
O O3 0.240220 0.559754 0.963766
O O4 0.144321 0.592032 0.931957
O O5 0.906158 0.045435 0.714292
O O6 0.821135 0.087929 0.606324
O O7 0.806693 0.011358 0.773115
O O8 0.250000 0.750000 0.450602
O O9 0.216545 0.692821 0.260091
O O10 0.249822 0.651626 0.481798
O O11 0.506191 0.317385 0.453377
O O12 0.485995 0.399224 0.312609
O O13 0.413827 0.331373 0.354885
O O14 0.750974 0.553168 0.946218
O O15 0.750000 0.250000 0.068785
O O16 0.668995 0.182297 0.027736
O O17 0.330229 0.110320 0.853623
#
# Coordination Sequence:
#
# PCOD9370107 Si02
#       8
#    16  16  16  16  16  16  16  16
#     4   9  19  32  51  73  97 130 166 206 242 296
#     4  10  20  32  51  70 100 138 160 204 253 287
#     4  11  20  29  47  77 102 126 162 201 247 298
#     4   9  18  31  47  74 101 128 158 196 250 296
#     4   9  18  34  49  69  98 132 170 196 237 299
#     4  10  19  28  45  75 105 123 154 198 247 297
#     4  10  19  32  49  75 104 126 162 204 249 302
#     4  10  17  30  49  73 100 127 151 203 255 285
#
# _framework density 19.482551999999998
#
# number of rings (size 3 to 8) (size 9 to 14) (size 15 to 20)
#    0.000    2.250    3.750    0.750    1.750    1.000 
#    0.000    1.250    0.000    4.500    0.000    4.375 
#    0.000    0.000    0.000    0.000    0.000    0.000 
#
# Total GULP energy -178178.399139 kJ/mol
# GULP energy per Si atom -5568.074973 kJ/mol
# Density = 1.943821 g / cm^3
# Si number density = 19.482552 Si / 1000 Ang^3
#
#
#
# Elastic Constant Matrix: (Units=GPa)
#
#
# Indices 1 2 3 4 5 6 
#
# 1 142.3639 69.3655 22.6299 0.0000 0.0000 0.0000
# 2 69.3655 120.8205 10.8321 0.0000 -0.0001 0.0000
# 3 22.6299 10.8321 7.1176 0.0003 -0.0002 -0.0001
# 4 0.0000 0.0000 0.0003 11.4823 -0.0001 0.0000
# 5 0.0000 -0.0001 -0.0002 -0.0001 17.9003 0.0000
# 6 0.0000 0.0000 -0.0001 0.0000 0.0000 28.4996
#
#
#
# Elastic Compliance Matrix: (Units=1/GPa)
#
#
# Indices 1 2 3 4 5 6 
#
# 1 0.017029 -0.005700 -0.045468 0.000001 0.000000 0.000000
# 2 -0.005700 0.011493 0.000634 0.000000 0.000000 0.000000
# 3 -0.045468 0.000634 0.284096 -0.000006 0.000003 0.000001
# 4 0.000001 0.000000 -0.000006 0.087091 0.000000 0.000000
# 5 0.000000 0.000000 0.000003 0.000000 0.055865 0.000000
# 6 0.000000 0.000000 0.000001 0.000000 0.000000 0.035088
#
#
# Mechanical properties :
#
#
# Convention : Reuss Voigt Hill
#
# Bulk Modulus (GPa) = 4.72705 52.88412 28.80559
# Shear Modulus (GPa) = 7.55004 22.74140 15.14572
#
# Velocity S-wave (km/s) = 1.97071 3.42024 2.79121
# Velocity P-wave (km/s) = 2.75859 6.54222 5.02048
#
# Compressibility (1/GPa) = 0.21154832
#
# Stress axis : x y z
#
# Youngs Moduli (GPa) = 58.72233 87.01208 3.51993
#
# Poissons Ratio (x) = 0.49601 0.16005
# Poissons Ratio (y) = 0.33474 -0.00223
# Poissons Ratio (z) = 2.67000 -0.05514
#
# Static dielectric constant tensor:
#      x y z
#    x 1.707530 0.000000 0.000000 
#    y 0.000000 1.763700 0.000000 
#    z 0.000000 0.000000 1.705300 
# 
# From -- ./inp_files/7671.got.cif
#   From: 2010.05.17/outbox.cif.g08.bks.cpg/sg43_4_cif.got.tgz:7671.got - 2010.06.03 19:21:55.
