data_PCOD9370421
_publ_section_title
;
Structure prediction by ZEFSAII (Michael W. Deem and Ramdas Pophale) SiO2 
 PCOD9370421
Probable space group: F D D 2
;
_chemical_formula_sum "Si O2"
_cell_formula_units_Z 112
_cell_length_a 15.396611
_cell_length_b 26.170038
_cell_length_c 11.676978
_cell_angle_alpha 90.000000
_cell_angle_beta 90.000000
_cell_angle_gamma 90.000000
_cell_volume 4705.003519
_symmetry_space_group_name_H-M "F D D 2"
_symmetry_group_IT_number 43
_symmetry_cell_setting 'orthorhombic'
loop_
_space_group_symop_operation_xyz
x,y,z
-x,-y,z
1/4-x,1/4+y,1/4+z
1/4+x,1/4-y,1/4+z
x,1/2+y,1/2+z
-x,1/2-y,1/2+z
1/4-x,3/4+y,3/4+z
1/4+x,3/4-y,3/4+z
1/2+x,y,1/2+z
1/2-x,-y,1/2+z
3/4-x,1/4+y,3/4+z
3/4+x,1/4-y,3/4+z
1/2+x,1/2+y,z
1/2-x,1/2-y,z
3/4-x,3/4+y,1/4+z
3/4+x,3/4-y,1/4+z
loop_
_atom_site_type_symbol
_atom_site_label
_atom_site_fract_x
_atom_site_fract_y
_atom_site_fract_z
Si Si1 0.855414 0.153786 0.201530
Si Si2 0.250000 0.250000 0.757676
Si Si3 0.462620 0.390166 0.132940
Si Si4 0.680160 0.356454 0.616143
Si Si5 0.835204 0.031518 0.651343
Si Si6 0.750000 0.750000 0.344004
Si Si7 0.051132 0.829969 0.426211
Si Si8 0.847737 0.802286 0.146096
O O1 0.806660 0.208263 0.188467
O O2 0.877531 0.149473 0.336718
O O3 0.785587 0.111703 0.169844
O O4 0.948627 0.142163 0.145246
O O5 0.321293 0.276570 0.839539
O O6 0.389908 0.355043 0.189851
O O7 0.428227 0.396265 0.003314
O O8 0.478838 0.449097 0.165968
O O9 0.702318 0.416331 0.599035
O O10 0.595069 0.338730 0.549649
O O11 0.757134 0.317971 0.586035
O O12 0.845227 0.033969 0.789524
O O13 0.786335 0.978154 0.635823
O O14 0.826098 0.766803 0.253978
#
# Coordination Sequence:
#
# PCOD9370421 Si02
#       8
#    16   8  16  16  16   8  16  16
#     4  11  25  45  68 102 145 185 232 301 360 438
#     4  10  19  42  67  90 138 182 234 289 363 412
#     4  10  24  41  69 100 145 186 237 297 366 435
#     4  10  21  39  65  99 133 179 237 293 346 419
#     4  10  19  37  66  99 129 178 232 295 349 407
#     4  10  21  42  67  90 138 190 232 293 361 418
#     4  11  24  43  70 100 140 184 241 296 354 426
#     4  10  20  39  66 100 136 179 242 296 346 426
#
# _framework density 23.804445999999999
#
# number of rings (size 3 to 8) (size 9 to 14) (size 15 to 20)
#    0.000    1.714    1.429    3.857    6.000    1.143 
#    7.714    0.714    0.000    0.000    0.000    0.000 
#    0.000    0.000    0.000    0.000    0.000    0.000 
#
# Total GULP energy -156321.529169 kJ/mol
# GULP energy per Si atom -5582.911756 kJ/mol
# Density = 2.375027 g / cm^3
# Si number density = 23.804446 Si / 1000 Ang^3
#
#
#
# Elastic Constant Matrix: (Units=GPa)
#
#
# Indices 1 2 3 4 5 6 
#
# 1 63.0447 14.9675 13.0081 0.0000 0.0000 0.0000
# 2 14.9675 134.0944 7.7853 0.0000 0.0000 0.0000
# 3 13.0081 7.7853 78.0535 0.0000 0.0000 0.0000
# 4 0.0000 0.0000 0.0000 26.0589 0.0000 0.0000
# 5 0.0000 0.0000 0.0000 0.0000 23.5751 0.0000
# 6 0.0000 0.0000 0.0000 0.0000 0.0000 43.0715
#
#
#
# Elastic Compliance Matrix: (Units=1/GPa)
#
#
# Indices 1 2 3 4 5 6 
#
# 1 0.016814 -0.001724 -0.002630 0.000000 0.000000 0.000000
# 2 -0.001724 0.007678 -0.000478 0.000000 0.000000 0.000000
# 3 -0.002630 -0.000478 0.013298 0.000000 0.000000 0.000000
# 4 0.000000 0.000000 0.000000 0.038375 0.000000 0.000000
# 5 0.000000 0.000000 0.000000 0.000000 0.042418 0.000000
# 6 0.000000 0.000000 0.000000 0.000000 0.000000 0.023217
#
#
# Mechanical properties :
#
#
# Convention : Reuss Voigt Hill
#
# Bulk Modulus (GPa) = 35.55699 38.52381 37.04040
# Shear Modulus (GPa) = 31.08707 34.50321 32.79514
#
# Velocity S-wave (km/s) = 3.61769 3.81129 3.71575
# Velocity P-wave (km/s) = 5.69384 5.96544 5.83122
#
# Compressibility (1/GPa) = 0.02812387
#
# Stress axis : x y z
#
# Youngs Moduli (GPa) = 59.47510 130.24820 75.20046
#
# Poissons Ratio (x) = 0.22455 0.19779
# Poissons Ratio (y) = 0.10254 0.03598
# Poissons Ratio (z) = 0.15643 0.06232
#
# Static dielectric constant tensor:
#      x y z
#    x 1.894380 0.000000 0.000000 
#    y 0.000000 2.002940 0.000000 
#    z 0.000000 0.000000 1.935810 
# 
# From -- ./inp_files/10290.got.cif
#   From: 2010.05.17/outbox.cif.g08.bks.cpg/sg43_6_cif.got.tgz:10290.got - 2010.06.03 19:21:55.
