data_PCOD9370945
_publ_section_title
;
Structure prediction by ZEFSAII (Michael W. Deem and Ramdas Pophale) SiO2 
 PCOD9370945
Probable space group: F D D 2
;
_chemical_formula_sum "Si O2"
_cell_formula_units_Z 56
_cell_length_a 18.759351
_cell_length_b 7.078325
_cell_length_c 19.746513
_cell_angle_alpha 90.000000
_cell_angle_beta 90.000000
_cell_angle_gamma 90.000000
_cell_volume 2622.036447
_symmetry_space_group_name_H-M "F D D 2"
_symmetry_group_IT_number 43
_symmetry_cell_setting 'orthorhombic'
loop_
_space_group_symop_operation_xyz
x,y,z
-x,-y,z
1/4-x,1/4+y,1/4+z
1/4+x,1/4-y,1/4+z
x,1/2+y,1/2+z
-x,1/2-y,1/2+z
1/4-x,3/4+y,3/4+z
1/4+x,3/4-y,3/4+z
1/2+x,y,1/2+z
1/2-x,-y,1/2+z
3/4-x,1/4+y,3/4+z
3/4+x,1/4-y,3/4+z
1/2+x,1/2+y,z
1/2-x,1/2-y,z
3/4-x,3/4+y,1/4+z
3/4+x,3/4-y,1/4+z
loop_
_atom_site_type_symbol
_atom_site_label
_atom_site_fract_x
_atom_site_fract_y
_atom_site_fract_z
Si Si1 0.142964 0.378813 0.327970
Si Si2 0.609733 0.202972 0.421527
Si Si3 0.500000 0.000000 0.958378
Si Si4 0.305302 0.527777 0.330253
O O1 0.123949 0.419310 0.250164
O O2 0.100711 0.506595 0.381390
O O3 0.225158 0.448761 0.336353
O O4 0.143752 0.153754 0.335946
O O5 0.540515 0.337323 0.418288
O O6 0.671389 0.323720 0.386219
O O7 0.554945 0.109012 0.009015
#
# Coordination Sequence:
#
# PCOD9370945 Si02
#       4
#    16  16   8  16
#     4  10  23  37  68  90 129 174 216 269 336 389
#     4  11  20  41  61  96 125 173 215 268 325 402
#     4  10  22  40  68  92 136 170 220 282 340 384
#     4  10  20  43  63  90 126 174 212 273 330 390
#
# _framework density 21.357444000000001
#
# number of rings (size 3 to 8) (size 9 to 14) (size 15 to 20)
#    0.000    1.714    5.714    0.000    4.000    0.000 
#    0.000    8.571    0.000    0.000    0.000    0.000 
#    0.000    0.000    0.000    0.000    0.000    0.000 
#
# Total GULP energy -78180.941846 kJ/mol
# GULP energy per Si atom -5584.352989 kJ/mol
# Density = 2.130883 g / cm^3
# Si number density = 21.357444 Si / 1000 Ang^3
#
#
#
# Elastic Constant Matrix: (Units=GPa)
#
#
# Indices 1 2 3 4 5 6 
#
# 1 37.3513 32.3164 37.3262 0.0000 0.0000 0.0000
# 2 32.3164 192.0383 66.1274 0.0000 0.0000 0.0000
# 3 37.3262 66.1274 113.8133 0.0000 0.0000 0.0000
# 4 0.0000 0.0000 0.0000 49.4950 0.0000 0.0000
# 5 0.0000 0.0000 0.0000 0.0000 37.1085 0.0000
# 6 0.0000 0.0000 0.0000 0.0000 0.0000 46.8976
#
#
#
# Elastic Compliance Matrix: (Units=1/GPa)
#
#
# Indices 1 2 3 4 5 6 
#
# 1 0.041027 -0.002839 -0.011806 0.000000 0.000000 0.000000
# 2 -0.002839 0.006706 -0.002965 0.000000 0.000000 0.000000
# 3 -0.011806 -0.002965 0.014381 0.000000 0.000000 0.000000
# 4 0.000000 0.000000 0.000000 0.020204 0.000000 0.000000
# 5 0.000000 0.000000 0.000000 0.000000 0.026948 0.000000
# 6 0.000000 0.000000 0.000000 0.000000 0.000000 0.021323
#
#
# Mechanical properties :
#
#
# Convention : Reuss Voigt Hill
#
# Bulk Modulus (GPa) = 37.18282 68.30478 52.74380
# Shear Modulus (GPa) = 28.60844 40.52907 34.56876
#
# Velocity S-wave (km/s) = 3.66390 4.36093 4.02752
# Velocity P-wave (km/s) = 5.94529 7.57682 6.81009
#
# Compressibility (1/GPa) = 0.02689414
#
# Stress axis : x y z
#
# Youngs Moduli (GPa) = 24.37433 149.11766 69.53587
#
# Poissons Ratio (x) = 0.42331 0.82092
# Poissons Ratio (y) = 0.06919 0.20620
# Poissons Ratio (z) = 0.28776 0.44219
#
# Static dielectric constant tensor:
#      x y z
#    x 1.812590 0.000000 0.000000 
#    y 0.000000 1.792420 0.000000 
#    z 0.000000 0.000000 1.757050 
# 
# From -- ./inp_files/8918.got.cif
#   From: 2010.05.17/outbox.cif.g08.bks.cpg/sg43_5_cif.got.tgz:8918.got - 2010.06.03 19:21:55.
