data_PCOD9370023
_publ_section_title
;
Structure prediction by ZEFSAII (Michael W. Deem and Ramdas Pophale) SiO2 
 PCOD9370023
Probable space group: F M M 2
;
_chemical_formula_sum "Si O2"
_cell_formula_units_Z 24
_cell_length_a 15.000000
_cell_length_b 15.000000
_cell_length_c 21.000000
_cell_angle_alpha 90.000000
_cell_angle_beta 90.000000
_cell_angle_gamma 90.000000
_cell_volume 4725.000000
_symmetry_space_group_name_H-M "F M M 2"
_symmetry_group_IT_number 42
_symmetry_cell_setting 'orthorhombic'
loop_
_space_group_symop_operation_xyz
x,y,z
-x,-y,z
-x,y,z
x,-y,z
x,1/2+y,1/2+z
-x,1/2-y,1/2+z
-x,1/2+y,1/2+z
x,1/2-y,1/2+z
1/2+x,y,1/2+z
1/2-x,-y,1/2+z
1/2-x,y,1/2+z
1/2+x,-y,1/2+z
1/2+x,1/2+y,z
1/2-x,1/2-y,z
1/2-x,1/2+y,z
1/2+x,1/2-y,z
loop_
_atom_site_type_symbol
_atom_site_label
_atom_site_fract_x
_atom_site_fract_y
_atom_site_fract_z
Si Si1 0.894745 0.303917 0.667390
Si Si2 0.315390 0.500000 0.763029
Si Si3 0.898667 0.810952 0.400327
Si Si4 0.892935 0.692034 0.287114
Si Si5 0.657327 0.799930 0.038998
Si Si6 0.316656 0.000000 0.651734
Si Si7 0.722475 0.000000 0.027594
Si Si8 0.198270 0.000000 0.387019
O O1 0.858456 0.252334 0.728955
O O2 0.875268 0.245720 0.604066
O O3 0.861053 0.405279 0.666694
O O4 0.000000 0.308640 0.673473
O O5 0.367356 0.590764 0.775122
O O6 0.274033 0.500000 0.692646
O O7 0.241499 0.500000 0.818182
O O8 0.860716 0.735105 0.353539
O O9 0.896325 0.783687 0.474191
O O10 0.853698 0.906869 0.392318
O O11 0.000000 0.824830 0.380673
O O12 0.000000 0.694550 0.286805
O O13 0.750000 0.750000 0.026645
O O14 0.669977 0.907525 0.042544
O O15 0.302979 0.000000 0.576325
O O16 0.752449 0.000000 0.953948
#
# Coordination Sequence:
#
# PCOD9370023 Si02
#       8
#    16   8  16  16  16   8   8   8
#     4  11  24  42  63  90 124 165 203 252 313 368
#     4  12  25  38  63  92 122 160 208 248 315 356
#     4  10  22  41  63  90 124 164 203 251 308 362
#     4  10  24  42  62  88 124 162 204 252 306 370
#     4  11  22  39  64  92 126 160 209 256 302 365
#     4  12  23  39  61  93 120 160 203 256 302 372
#     4  10  22  38  58  92 124 154 202 258 300 346
#     4  10  23  37  61  93 120 160 201 256 298 366
#
# _framework density 5.0793650000000001
#
# number of rings (size 3 to 8) (size 9 to 14) (size 15 to 20)
#    0.000    1.333    1.667    3.250    4.667    1.333 
#    0.000    5.417    0.000    4.000    0.000    0.000 
#    0.000    0.000    0.000    0.000    0.000    0.000 
#
# Total GULP energy -133864.274105 kJ/mol
# GULP energy per Si atom -5577.678088 kJ/mol
# Density = 0.506780 g / cm^3
# Si number density = 5.079365 Si / 1000 Ang^3
#
#
#
# Elastic Constant Matrix: (Units=GPa)
#
#
# Indices 1 2 3 4 5 6 
#
# 1 48.7954 19.3483 0.6138 0.0000 0.0000 0.0000
# 2 19.3483 161.5020 29.6423 0.0000 0.0000 0.0000
# 3 0.6138 29.6423 44.6737 0.0000 0.0000 0.0000
# 4 0.0000 0.0000 0.0000 39.3157 0.0000 0.0000
# 5 0.0000 0.0000 0.0000 0.0000 23.7118 0.0000
# 6 0.0000 0.0000 0.0000 0.0000 0.0000 31.2060
#
#
#
# Elastic Compliance Matrix: (Units=1/GPa)
#
#
# Indices 1 2 3 4 5 6 
#
# 1 0.021618 -0.002887 0.001619 0.000000 0.000000 0.000000
# 2 -0.002887 0.007436 -0.004894 0.000000 0.000000 0.000000
# 3 0.001619 -0.004894 0.025610 0.000000 0.000000 0.000000
# 4 0.000000 0.000000 0.000000 0.025435 0.000000 0.000000
# 5 0.000000 0.000000 0.000000 0.000000 0.042173 0.000000
# 6 0.000000 0.000000 0.000000 0.000000 0.000000 0.032045
#
#
# Mechanical properties :
#
#
# Convention : Reuss Voigt Hill
#
# Bulk Modulus (GPa) = 23.61920 39.35332 31.48626
# Shear Modulus (GPa) = 27.66165 32.53782 30.09974
#
# Velocity S-wave (km/s) = 3.69382 4.00618 3.85316
# Velocity P-wave (km/s) = 5.46284 6.38831 5.94362
#
# Compressibility (1/GPa) = 0.04233844
#
# Stress axis : x y z
#
# Youngs Moduli (GPa) = 46.25747 134.47990 39.04751
#
# Poissons Ratio (x) = 0.38824 -0.06320
# Poissons Ratio (y) = 0.13354 0.19111
# Poissons Ratio (z) = -0.07487 0.65819
#
# Static dielectric constant tensor:
#      x y z
#    x 1.751110 0.000000 0.000000 
#    y 0.000000 1.859120 0.000000 
#    z 0.000000 0.000000 1.810580 
# 
# From -- ./inp_files/25184.got.cif
#   From: 2010.05.17/outbox.ucp.g08.bks.cvg/sg42_13_cif.got.tgz:25184.got - 2010.06.11 16:29:10.
