data_PCOD9370142
_publ_section_title
;
Structure prediction by ZEFSAII (Michael W. Deem and Ramdas Pophale) SiO2 
 PCOD9370142
Probable space group: F D D 2
;
_chemical_formula_sum "Si O2"
_cell_formula_units_Z 88
_cell_length_a 18.243246
_cell_length_b 7.283778
_cell_length_c 28.234480
_cell_angle_alpha 90.000000
_cell_angle_beta 90.000000
_cell_angle_gamma 90.000000
_cell_volume 3751.790753
_symmetry_space_group_name_H-M "F D D 2"
_symmetry_group_IT_number 43
_symmetry_cell_setting 'orthorhombic'
loop_
_space_group_symop_operation_xyz
x,y,z
-x,-y,z
1/4-x,1/4+y,1/4+z
1/4+x,1/4-y,1/4+z
x,1/2+y,1/2+z
-x,1/2-y,1/2+z
1/4-x,3/4+y,3/4+z
1/4+x,3/4-y,3/4+z
1/2+x,y,1/2+z
1/2-x,-y,1/2+z
3/4-x,1/4+y,3/4+z
3/4+x,1/4-y,3/4+z
1/2+x,1/2+y,z
1/2-x,1/2-y,z
3/4-x,3/4+y,1/4+z
3/4+x,3/4-y,1/4+z
loop_
_atom_site_type_symbol
_atom_site_label
_atom_site_fract_x
_atom_site_fract_y
_atom_site_fract_z
Si Si1 0.405416 0.753939 0.689400
Si Si2 0.250000 0.750000 0.370176
Si Si3 0.793697 0.946044 0.130620
Si Si4 0.279423 0.982649 0.222042
Si Si5 0.745066 0.524232 0.028990
Si Si6 0.841297 0.641457 0.782005
O O1 0.451610 0.627631 0.653660
O O2 0.370173 0.909986 0.656677
O O3 0.338817 0.639825 0.713283
O O4 0.457351 0.804017 0.732484
O O5 0.194656 0.850836 0.333912
O O6 0.750000 0.750000 0.126864
O O7 0.799902 0.011253 0.077188
O O8 0.746315 0.057256 0.168500
O O9 0.204656 0.012057 0.252785
O O10 0.319074 0.822156 0.250877
O O11 0.750000 0.750000 0.022949
O O12 0.822647 0.424189 0.035993
#
# Coordination Sequence:
#
# PCOD9370142 Si02
#       6
#    16   8  16  16  16  16
#     4  11  19  33  59  85 110 152 195 242 280 344
#     4  10  18  30  54  92 108 140 198 236 286 332
#     4   9  20  33  57  80 113 151 193 234 286 338
#     4   9  18  34  52  80 115 144 182 237 291 333
#     4  11  19  34  58  87 112 147 202 236 281 348
#     4  10  20  32  60  86 115 146 183 247 295 343
#
# _framework density 23.455465
#
# number of rings (size 3 to 8) (size 9 to 14) (size 15 to 20)
#    0.000    2.182    2.727    3.273    2.545    0.000 
#    0.000    0.909   32.000    0.000    0.000    0.000 
#    0.000    0.000    0.000    0.000    0.000    0.000 
#
# Total GULP energy -122800.169663 kJ/mol
# GULP energy per Si atom -5581.825894 kJ/mol
# Density = 2.340208 g / cm^3
# Si number density = 23.455465 Si / 1000 Ang^3
#
#
#
# Elastic Constant Matrix: (Units=GPa)
#
#
# Indices 1 2 3 4 5 6 
#
# 1 147.0488 32.4155 72.2385 0.0000 0.0000 -0.0001
# 2 32.4155 77.4291 34.9381 -0.0001 0.0000 -0.0001
# 3 72.2385 34.9381 210.3312 0.0000 0.0000 0.0000
# 4 0.0000 -0.0001 0.0000 28.1886 0.0000 0.0000
# 5 0.0000 0.0000 0.0000 0.0000 39.0366 0.0000
# 6 -0.0001 -0.0001 0.0000 0.0000 0.0000 17.9121
#
#
#
# Elastic Compliance Matrix: (Units=1/GPa)
#
#
# Indices 1 2 3 4 5 6 
#
# 1 0.008590 -0.002448 -0.002543 0.000000 0.000000 0.000000
# 2 -0.002448 0.014659 -0.001594 0.000000 0.000000 0.000000
# 3 -0.002543 -0.001594 0.005893 0.000000 0.000000 0.000000
# 4 0.000000 0.000000 0.000000 0.035475 0.000000 0.000000
# 5 0.000000 0.000000 0.000000 0.000000 0.025617 0.000000
# 6 0.000000 0.000000 0.000000 0.000000 0.000000 0.055828
#
#
# Mechanical properties :
#
#
# Convention : Reuss Voigt Hill
#
# Bulk Modulus (GPa) = 62.61802 79.33259 70.97531
# Shear Modulus (GPa) = 30.38450 36.70859 33.54654
#
# Velocity S-wave (km/s) = 3.60309 3.96034 3.78593
# Velocity P-wave (km/s) = 6.63809 7.40328 7.03110
#
# Compressibility (1/GPa) = 0.01596984
#
# Stress axis : x y z
#
# Youngs Moduli (GPa) = 116.41908 68.21567 169.69983
#
# Poissons Ratio (x) = 0.16702 0.43162
# Poissons Ratio (y) = 0.28504 0.27053
# Poissons Ratio (z) = 0.29610 0.10875
#
# Static dielectric constant tensor:
#      x y z
#    x 1.944390 0.000000 0.000000 
#    y 0.000000 1.897720 0.000000 
#    z 0.000000 0.000000 1.842460 
# 
# From -- ./inp_files/29452.got.cif
#   From: 2010.05.17/outbox.cif.g08.bks.cpg/sg43_15_cif.got.tgz:29452.got - 2010.06.03 19:21:55.
