data_PCOD9370592
_publ_section_title
;
Structure prediction by ZEFSAII (Michael W. Deem and Ramdas Pophale) SiO2 
 PCOD9370592
Probable space group: F D D 2
;
_chemical_formula_sum "Si O2"
_cell_formula_units_Z 80
_cell_length_a 11.625484
_cell_length_b 25.751011
_cell_length_c 9.869409
_cell_angle_alpha 90.000000
_cell_angle_beta 90.000000
_cell_angle_gamma 90.000000
_cell_volume 2954.584902
_symmetry_space_group_name_H-M "F D D 2"
_symmetry_group_IT_number 43
_symmetry_cell_setting 'orthorhombic'
loop_
_space_group_symop_operation_xyz
x,y,z
-x,-y,z
1/4-x,1/4+y,1/4+z
1/4+x,1/4-y,1/4+z
x,1/2+y,1/2+z
-x,1/2-y,1/2+z
1/4-x,3/4+y,3/4+z
1/4+x,3/4-y,3/4+z
1/2+x,y,1/2+z
1/2-x,-y,1/2+z
3/4-x,1/4+y,3/4+z
3/4+x,1/4-y,3/4+z
1/2+x,1/2+y,z
1/2-x,1/2-y,z
3/4-x,3/4+y,1/4+z
3/4+x,3/4-y,1/4+z
loop_
_atom_site_type_symbol
_atom_site_label
_atom_site_fract_x
_atom_site_fract_y
_atom_site_fract_z
Si Si1 0.468261 0.337123 0.197080
Si Si2 0.419055 0.549650 0.571253
Si Si3 0.240676 0.803678 0.839598
Si Si4 0.790501 0.977270 0.906410
Si Si5 0.677137 0.379096 0.351471
O O1 0.435070 0.394506 0.148156
O O2 0.368468 0.320191 0.299160
O O3 0.469387 0.285778 0.101908
O O4 0.595571 0.345565 0.255305
O O5 0.500000 0.500000 0.563811
O O6 0.291204 0.527948 0.541393
O O7 0.416860 0.592298 0.448976
O O8 0.482608 0.589567 0.674957
O O9 0.250000 0.750000 0.924658
O O10 0.165246 0.787777 0.709684
O O11 0.745377 0.931706 0.810680
#
# Coordination Sequence:
#
# PCOD9370592 Si02
#       5
#    16  16  16  16  16
#     4  11  21  40  61  85 120 153 193 242 288 343
#     4  10  20  37  62  83 115 148 195 239 284 336
#     4  10  24  39  58  87 121 154 189 240 296 344
#     4   9  23  39  60  84 120 153 192 238 295 340
#     4  10  20  36  63  85 112 153 193 241 282 348
#
# _framework density 27.076563
#
# number of rings (size 3 to 8) (size 9 to 14) (size 15 to 20)
#    1.200    0.800    2.000    1.200    2.800    2.400 
#    0.000    2.000    0.000    0.000    0.000    0.000 
#    0.000    0.000    0.000    0.000    0.000    0.000 
#
# Total GULP energy -111362.931628 kJ/mol
# GULP energy per Si atom -5568.146581 kJ/mol
# Density = 2.701494 g / cm^3
# Si number density = 27.076563 Si / 1000 Ang^3
#
#
#
# Elastic Constant Matrix: (Units=GPa)
#
#
# Indices 1 2 3 4 5 6 
#
# 1 144.5062 48.4380 11.5980 0.0000 0.0000 0.0000
# 2 48.4380 305.7245 33.6394 0.0000 0.0000 0.0000
# 3 11.5980 33.6394 28.7111 0.0000 0.0000 0.0000
# 4 0.0000 0.0000 0.0000 24.4726 0.0000 0.0000
# 5 0.0000 0.0000 0.0000 0.0000 5.9678 0.0000
# 6 0.0000 0.0000 0.0000 0.0000 0.0000 61.4694
#
#
#
# Elastic Compliance Matrix: (Units=1/GPa)
#
#
# Indices 1 2 3 4 5 6 
#
# 1 0.007393 -0.000967 -0.001853 0.000000 0.000000 0.000000
# 2 -0.000967 0.003882 -0.004157 0.000000 0.000000 0.000000
# 3 -0.001853 -0.004157 0.040449 0.000000 0.000000 0.000000
# 4 0.000000 0.000000 0.000000 0.040862 0.000000 0.000000
# 5 0.000000 0.000000 0.000000 0.000000 0.167567 0.000000
# 6 0.000000 0.000000 0.000000 0.000000 0.000000 0.016268
#
#
# Mechanical properties :
#
#
# Convention : Reuss Voigt Hill
#
# Bulk Modulus (GPa) = 26.47701 74.03249 50.25475
# Shear Modulus (GPa) = 16.50356 44.06639 30.28497
#
# Velocity S-wave (km/s) = 2.47151 4.03857 3.34802
# Velocity P-wave (km/s) = 4.23607 7.01056 5.79190
#
# Compressibility (1/GPa) = 0.03776861
#
# Stress axis : x y z
#
# Youngs Moduli (GPa) = 135.26076 257.62499 24.72255
#
# Poissons Ratio (x) = 0.24924 0.04581
# Poissons Ratio (y) = 0.13086 0.10277
# Poissons Ratio (z) = 0.25063 1.07097
#
# Static dielectric constant tensor:
#      x y z
#    x 2.207480 0.000000 0.000000 
#    y 0.000000 2.232470 0.000000 
#    z 0.000000 0.000000 2.228930 
# 
# From -- ./inp_files/9541.got.cif
#   From: 2010.05.17/outbox.cif.g08.bks.cpg/sg43_5_cif.got.tgz:9541.got - 2010.06.03 19:21:55.
