data_PCOD9370383
_publ_section_title
;
Structure prediction by ZEFSAII (Michael W. Deem and Ramdas Pophale) SiO2 
 PCOD9370383
Probable space group: F D D 2
;
_chemical_formula_sum "Si O2"
_cell_formula_units_Z 88
_cell_length_a 12.487528
_cell_length_b 11.537338
_cell_length_c 26.546105
_cell_angle_alpha 90.000000
_cell_angle_beta 90.000000
_cell_angle_gamma 90.000000
_cell_volume 3824.572508
_symmetry_space_group_name_H-M "F D D 2"
_symmetry_group_IT_number 43
_symmetry_cell_setting 'orthorhombic'
loop_
_space_group_symop_operation_xyz
x,y,z
-x,-y,z
1/4-x,1/4+y,1/4+z
1/4+x,1/4-y,1/4+z
x,1/2+y,1/2+z
-x,1/2-y,1/2+z
1/4-x,3/4+y,3/4+z
1/4+x,3/4-y,3/4+z
1/2+x,y,1/2+z
1/2-x,-y,1/2+z
3/4-x,1/4+y,3/4+z
3/4+x,1/4-y,3/4+z
1/2+x,1/2+y,z
1/2-x,1/2-y,z
3/4-x,3/4+y,1/4+z
3/4+x,3/4-y,1/4+z
loop_
_atom_site_type_symbol
_atom_site_label
_atom_site_fract_x
_atom_site_fract_y
_atom_site_fract_z
Si Si1 0.653544 0.576856 0.915360
Si Si2 0.905396 0.566468 0.262479
Si Si3 0.922352 0.599969 0.053211
Si Si4 0.585815 0.313141 0.925047
Si Si5 0.250000 0.750000 0.005888
Si Si6 0.693470 0.475448 0.067468
O O1 0.696952 0.608722 0.860549
O O2 0.646109 0.438167 0.919522
O O3 0.537242 0.638163 0.926984
O O4 0.713583 0.635303 0.962346
O O5 0.823187 0.461259 0.266548
O O6 0.866123 0.683391 0.288639
O O7 0.000000 0.500000 0.293841
O O8 0.808834 0.535824 0.059570
O O9 0.000000 0.500000 0.035460
O O10 0.648055 0.242958 0.968153
O O11 0.588104 0.234266 0.875287
O O12 0.289569 0.646758 0.041926
#
# Coordination Sequence:
#
# PCOD9370383 Si02
#       6
#    16  16  16  16   8  16
#     4  10  19  39  65  90 124 170 226 267 328 411
#     4  10  19  36  63  91 126 167 216 267 331 402
#     4  10  21  37  64  95 128 165 218 276 335 402
#     4  10  22  41  63  91 128 178 226 273 332 421
#     4  12  24  44  64  96 138 176 226 292 350 392
#     4  10  22  43  61  93 134 175 221 279 337 410
#
# _framework density 23.009108000000001
#
# number of rings (size 3 to 8) (size 9 to 14) (size 15 to 20)
#    0.000    1.818    3.636    0.545    2.545    0.000 
#    6.545    3.636    0.000    0.000    0.000    0.000 
#    0.000    0.000    0.000    0.000    0.000    0.000 
#
# Total GULP energy -122470.425912 kJ/mol
# GULP energy per Si atom -5566.837541 kJ/mol
# Density = 2.295674 g / cm^3
# Si number density = 23.009108 Si / 1000 Ang^3
#
#
#
# Elastic Constant Matrix: (Units=GPa)
#
#
# Indices 1 2 3 4 5 6 
#
# 1 44.1767 26.7183 11.8884 0.0000 0.0000 0.0000
# 2 26.7183 158.8653 74.5189 0.0000 0.0000 0.0000
# 3 11.8884 74.5189 122.8076 0.0000 0.0000 0.0000
# 4 0.0000 0.0000 0.0000 -486.4363 0.0000 0.0000
# 5 0.0000 0.0000 0.0000 0.0000 10.4325 0.0000
# 6 0.0000 0.0000 0.0000 0.0000 0.0000 32.0530
#
#
#
# Elastic Compliance Matrix: (Units=1/GPa)
#
#
# Indices 1 2 3 4 5 6 
#
# 1 0.025203 -0.004325 0.000185 0.000000 0.000000 0.000000
# 2 -0.004325 0.009541 -0.005371 0.000000 0.000000 0.000000
# 3 0.000185 -0.005371 0.011384 0.000000 0.000000 0.000000
# 4 0.000000 0.000000 0.000000 -0.002056 0.000000 0.000000
# 5 0.000000 0.000000 0.000000 0.000000 0.095854 0.000000
# 6 0.000000 0.000000 0.000000 0.000000 0.000000 0.031198
#
#
# Mechanical properties :
#
#
# Convention : Reuss Voigt Hill
#
# Bulk Modulus (GPa) = 36.89341 61.34455 49.11898
# Shear Modulus (GPa) = 25.10259 -74.60857 -24.75299
#
# Velocity S-wave (km/s) = 3.30659 -5.70053 -3.28348
# Velocity P-wave (km/s) = 5.53598 4.07544 2.64933
#
# Compressibility (1/GPa) = 0.02710511
#
# Stress axis : x y z
#
# Youngs Moduli (GPa) = 39.67846 104.80586 87.84253
#
# Poissons Ratio (x) = 0.45332 -0.01624
# Poissons Ratio (y) = 0.17162 0.47180
# Poissons Ratio (z) = -0.00733 0.56291
#
# Static dielectric constant tensor:
#      x y z
#    x 2.180050 0.000000 0.000000 
#    y 0.000000 1.917920 0.000000 
#    z 0.000000 0.000000 1.988670 
# 
# From -- ./inp_files/25556.got.cif
#   From: 2010.05.17/outbox.cif.g08.bks.cpg/sg43_13_cif.got.tgz:25556.got - 2010.06.03 19:21:55.
