data_PCOD9370948
_publ_section_title
;
Structure prediction by ZEFSAII (Michael W. Deem and Ramdas Pophale) SiO2 
 PCOD9370948
Probable space group: F D D 2
;
_chemical_formula_sum "Si O2"
_cell_formula_units_Z 112
_cell_length_a 18.387698
_cell_length_b 23.165087
_cell_length_c 11.699449
_cell_angle_alpha 90.000000
_cell_angle_beta 90.000000
_cell_angle_gamma 90.000000
_cell_volume 4983.411000
_symmetry_space_group_name_H-M "F D D 2"
_symmetry_group_IT_number 43
_symmetry_cell_setting 'orthorhombic'
loop_
_space_group_symop_operation_xyz
x,y,z
-x,-y,z
1/4-x,1/4+y,1/4+z
1/4+x,1/4-y,1/4+z
x,1/2+y,1/2+z
-x,1/2-y,1/2+z
1/4-x,3/4+y,3/4+z
1/4+x,3/4-y,3/4+z
1/2+x,y,1/2+z
1/2-x,-y,1/2+z
3/4-x,1/4+y,3/4+z
3/4+x,1/4-y,3/4+z
1/2+x,1/2+y,z
1/2-x,1/2-y,z
3/4-x,3/4+y,1/4+z
3/4+x,3/4-y,1/4+z
loop_
_atom_site_type_symbol
_atom_site_label
_atom_site_fract_x
_atom_site_fract_y
_atom_site_fract_z
Si Si1 0.440651 0.961469 0.528640
Si Si2 0.081862 0.991626 0.784415
Si Si3 0.190153 0.941558 0.406695
Si Si4 0.991810 0.806341 0.270677
Si Si5 0.321174 0.398512 0.734324
Si Si6 0.296004 0.588221 0.769389
Si Si7 0.415478 0.240285 0.444929
O O1 0.466873 0.901874 0.473802
O O2 0.383892 0.945895 0.626553
O O3 0.500000 0.000000 0.590853
O O4 0.417252 0.000057 0.421295
O O5 0.121811 0.932911 0.751470
O O6 0.132127 0.043499 0.744651
O O7 0.000000 0.000000 0.743424
O O8 0.255283 0.907199 0.332077
O O9 0.132582 0.902412 0.477707
O O10 0.225789 0.993131 0.482676
O O11 0.145403 0.978303 0.311599
O O12 0.038478 0.845828 0.356277
O O13 0.972790 0.837077 0.153567
O O14 0.924567 0.790387 0.351583
O O15 0.241257 0.541446 0.718332
#
# Coordination Sequence:
#
# PCOD9370948 Si02
#       7
#    16  16  16  16  16  16  16
#     4  11  26  40  65 100 132 164 231 277 325 405
#     4  11  24  41  63 103 128 167 232 273 340 404
#     4  10  23  41  67  97 132 180 228 276 348 407
#     4  10  20  43  66  87 136 175 225 260 348 411
#     4  11  23  43  68 101 133 181 224 290 342 417
#     4  11  23  43  66  94 127 185 211 283 333 398
#     4  10  21  43  65  90 131 177 219 266 345 404
#
# _framework density 22.474565999999999
#
# number of rings (size 3 to 8) (size 9 to 14) (size 15 to 20)
#    0.000    1.429    5.714    0.000    8.000    2.286 
#    7.714    0.000    0.000    0.000    0.000    0.000 
#    0.000    0.000    0.000    0.000    0.000    0.000 
#
# Total GULP energy -155936.008098 kJ/mol
# GULP energy per Si atom -5569.143146 kJ/mol
# Density = 2.242341 g / cm^3
# Si number density = 22.474566 Si / 1000 Ang^3
#
#
#
# Elastic Constant Matrix: (Units=GPa)
#
#
# Indices 1 2 3 4 5 6 
#
# 1 74.3314 25.7697 1.1942 0.0000 0.0000 0.0000
# 2 25.7697 86.0806 -5.6140 0.0000 0.0000 0.0000
# 3 1.1942 -5.6140 70.9844 0.0000 0.0000 0.0000
# 4 0.0000 0.0000 0.0000 20.0499 0.0000 0.0000
# 5 0.0000 0.0000 0.0000 0.0000 28.2791 0.0000
# 6 0.0000 0.0000 0.0000 0.0000 0.0000 32.0631
#
#
#
# Elastic Compliance Matrix: (Units=1/GPa)
#
#
# Indices 1 2 3 4 5 6 
#
# 1 0.015038 -0.004542 -0.000612 0.000000 0.000000 0.000000
# 2 -0.004542 0.013049 0.001108 0.000000 0.000000 0.000000
# 3 -0.000612 0.001108 0.014186 0.000000 0.000000 0.000000
# 4 0.000000 0.000000 0.000000 0.049876 0.000000 0.000000
# 5 0.000000 0.000000 0.000000 0.000000 0.035362 0.000000
# 6 0.000000 0.000000 0.000000 0.000000 0.000000 0.031189
#
#
# Mechanical properties :
#
#
# Convention : Reuss Voigt Hill
#
# Bulk Modulus (GPa) = 29.25585 30.45517 29.85551
# Shear Modulus (GPa) = 28.06106 30.08150 29.07128
#
# Velocity S-wave (km/s) = 3.53734 3.66248 3.60045
# Velocity P-wave (km/s) = 5.45246 5.60940 5.53149
#
# Compressibility (1/GPa) = 0.03418119
#
# Stress axis : x y z
#
# Youngs Moduli (GPa) = 66.49979 76.63457 70.49424
#
# Poissons Ratio (x) = 0.34805 0.04316
# Poissons Ratio (y) = 0.30202 -0.07814
# Poissons Ratio (z) = 0.04071 -0.08494
#
# Static dielectric constant tensor:
#      x y z
#    x 1.854550 0.000000 0.000000 
#    y 0.000000 1.841650 0.000000 
#    z 0.000000 0.000000 1.895950 
# 
# From -- ./inp_files/7158.got.cif
#   From: 2010.05.17/outbox.cif.g08.bks.cpg/sg43_4_cif.got.tgz:7158.got - 2010.06.03 19:21:55.
