data_PCOD9370708
_publ_section_title
;
Structure prediction by ZEFSAII (Michael W. Deem and Ramdas Pophale) SiO2 
 PCOD9370708
Probable space group: F D D 2
;
_chemical_formula_sum "Si O2"
_cell_formula_units_Z 112
_cell_length_a 24.058048
_cell_length_b 20.405370
_cell_length_c 10.359237
_cell_angle_alpha 90.000000
_cell_angle_beta 90.000000
_cell_angle_gamma 90.000000
_cell_volume 5085.487956
_symmetry_space_group_name_H-M "F D D 2"
_symmetry_group_IT_number 43
_symmetry_cell_setting 'orthorhombic'
loop_
_space_group_symop_operation_xyz
x,y,z
-x,-y,z
1/4-x,1/4+y,1/4+z
1/4+x,1/4-y,1/4+z
x,1/2+y,1/2+z
-x,1/2-y,1/2+z
1/4-x,3/4+y,3/4+z
1/4+x,3/4-y,3/4+z
1/2+x,y,1/2+z
1/2-x,-y,1/2+z
3/4-x,1/4+y,3/4+z
3/4+x,1/4-y,3/4+z
1/2+x,1/2+y,z
1/2-x,1/2-y,z
3/4-x,3/4+y,1/4+z
3/4+x,3/4-y,1/4+z
loop_
_atom_site_type_symbol
_atom_site_label
_atom_site_fract_x
_atom_site_fract_y
_atom_site_fract_z
Si Si1 0.095379 0.276645 0.719220
Si Si2 0.750000 0.750000 0.309645
Si Si3 0.381897 0.552555 0.719780
Si Si4 0.877983 0.461088 0.462044
Si Si5 0.801474 0.336335 0.018905
Si Si6 0.462613 0.916650 0.961928
Si Si7 0.000000 0.500000 0.185722
Si Si8 0.921523 0.776087 0.459340
O O1 0.109675 0.225003 0.831554
O O2 0.063766 0.337654 0.779643
O O3 0.154117 0.304744 0.664063
O O4 0.060724 0.256379 0.593475
O O5 0.807445 0.732190 0.238495
O O6 0.763428 0.812265 0.401058
O O7 0.372509 0.631346 0.712447
O O8 0.359356 0.504738 0.836319
O O9 0.448155 0.540808 0.739109
O O10 0.839323 0.482978 0.583153
O O11 0.860721 0.304330 0.995337
O O12 0.769681 0.312799 0.144991
O O13 0.458450 0.839687 0.938916
O O14 0.467680 0.943336 0.105777
#
# Coordination Sequence:
#
# PCOD9370708 Si02
#       8
#    16   8  16  16  16  16   8  16
#     4  10  23  41  68  96 133 176 230 283 337 420
#     4  10  22  42  70  92 137 184 231 278 361 420
#     4  11  26  45  71 102 145 184 228 292 364 427
#     4  11  26  45  71 102 145 184 228 292 364 427
#     4  10  20  38  67  96 126 171 233 276 339 406
#     4  10  20  38  67  96 126 171 233 276 339 406
#     4  10  22  42  70  92 137 184 231 278 361 420
#     4  10  23  41  68  96 133 176 230 283 337 420
#
# _framework density 22.023451999999999
#
# number of rings (size 3 to 8) (size 9 to 14) (size 15 to 20)
#    0.000    1.714    0.000    4.286   16.000    0.000 
#    5.143    0.000    0.000    0.000    0.000    0.000 
#    0.000    0.000    0.000    0.000    0.000    0.000 
#
# Total GULP energy -155958.374037 kJ/mol
# GULP energy per Si atom -5569.941930 kJ/mol
# Density = 2.197333 g / cm^3
# Si number density = 22.023452 Si / 1000 Ang^3
#
#
#
# Elastic Constant Matrix: (Units=GPa)
#
#
# Indices 1 2 3 4 5 6 
#
# 1 42.5328 10.3269 -2.5317 -0.0011 0.0000 0.0000
# 2 10.3269 162.4581 43.4569 -0.0029 0.0000 0.0000
# 3 -2.5317 43.4569 50.8783 -0.0067 0.0001 0.0000
# 4 -0.0011 -0.0029 -0.0067 2106.8433 0.0004 0.0000
# 5 0.0000 0.0000 0.0001 0.0004 -1.3296 0.0000
# 6 0.0000 0.0000 0.0000 0.0000 0.0000 22.7025
#
#
#
# Elastic Compliance Matrix: (Units=1/GPa)
#
#
# Indices 1 2 3 4 5 6 
#
# 1 0.024294 -0.002421 0.003277 0.000000 0.000000 0.000000
# 2 -0.002421 0.008220 -0.007141 0.000000 0.000000 0.000000
# 3 0.003277 -0.007141 0.025917 0.000000 0.000002 0.000000
# 4 0.000000 0.000000 0.000000 0.000475 0.000000 0.000000
# 5 0.000000 0.000000 0.000002 0.000000 -0.752093 0.000000
# 6 0.000000 0.000000 0.000000 0.000000 0.000000 0.044048
#
#
# Mechanical properties :
#
#
# Convention : Reuss Voigt Hill
#
# Bulk Modulus (GPa) = 21.80538 39.81928 30.81233
# Shear Modulus (GPa) = -8.04788 439.28438 215.61825
#
# Velocity S-wave (km/s) = -1.91368 14.13843 9.90538
# Velocity P-wave (km/s) = 2.24490 16.87147 12.03507
#
# Compressibility (1/GPa) = 0.04586024
#
# Stress axis : x y z
#
# Youngs Moduli (GPa) = 41.16230 121.66179 38.58447
#
# Poissons Ratio (x) = 0.29451 -0.12642
# Poissons Ratio (y) = 0.09964 0.27553
# Poissons Ratio (z) = -0.13487 0.86879
#
# Static dielectric constant tensor:
#      x y z
#    x 1.811080 0.000000 0.000000 
#    y 0.000000 -3.470970 0.000000 
#    z 0.000000 0.000000 1.945660 
# 
# From -- ./inp_files/8016.got.cif
#   From: 2010.05.17/outbox.cif.g08.bks.cpg/sg43_5_cif.got.tgz:8016.got - 2010.06.03 19:21:55.
