data_PCOD9370815
_publ_section_title
;
Structure prediction by ZEFSAII (Michael W. Deem and Ramdas Pophale) SiO2 
 PCOD9370815
Probable space group: F D D 2
;
_chemical_formula_sum "Si O2"
_cell_formula_units_Z 120
_cell_length_a 17.715400
_cell_length_b 11.266407
_cell_length_c 27.025658
_cell_angle_alpha 90.000000
_cell_angle_beta 90.000000
_cell_angle_gamma 90.000000
_cell_volume 5394.021529
_symmetry_space_group_name_H-M "F D D 2"
_symmetry_group_IT_number 43
_symmetry_cell_setting 'orthorhombic'
loop_
_space_group_symop_operation_xyz
x,y,z
-x,-y,z
1/4-x,1/4+y,1/4+z
1/4+x,1/4-y,1/4+z
x,1/2+y,1/2+z
-x,1/2-y,1/2+z
1/4-x,3/4+y,3/4+z
1/4+x,3/4-y,3/4+z
1/2+x,y,1/2+z
1/2-x,-y,1/2+z
3/4-x,1/4+y,3/4+z
3/4+x,1/4-y,3/4+z
1/2+x,1/2+y,z
1/2-x,1/2-y,z
3/4-x,3/4+y,1/4+z
3/4+x,3/4-y,1/4+z
loop_
_atom_site_type_symbol
_atom_site_label
_atom_site_fract_x
_atom_site_fract_y
_atom_site_fract_z
Si Si1 0.729206 0.561284 0.195650
Si Si2 0.419266 0.477004 0.518368
Si Si3 0.095854 0.785826 0.582168
Si Si4 0.010245 0.755193 0.252919
Si Si5 0.381015 0.963873 0.438554
Si Si6 0.812495 0.479706 0.807942
Si Si7 0.250000 0.250000 0.037051
Si Si8 0.539750 0.627079 0.355722
O O1 0.814745 0.607525 0.207468
O O2 0.685065 0.675913 0.176272
O O3 0.691108 0.535294 0.248505
O O4 0.721163 0.459324 0.154246
O O5 0.500000 0.500000 0.492152
O O6 0.408703 0.600958 0.546580
O O7 0.343635 0.452081 0.486755
O O8 0.424554 0.372174 0.559190
O O9 0.096462 0.831356 0.637781
O O10 0.175192 0.725615 0.568846
O O11 0.022364 0.704934 0.575967
O O12 0.934976 0.771180 0.221460
O O13 0.014651 0.613824 0.254571
O O14 0.997348 0.807008 0.308031
O O15 0.875075 0.405464 0.837192
O O16 0.500000 0.500000 0.362846
#
# Coordination Sequence:
#
# PCOD9370815 Si02
#       8
#    16  16  16  16  16  16   8  16
#     4  11  25  44  71 102 146 191 239 306 378 442
#     4   9  20  39  68  90 136 183 223 289 358 422
#     4  10  21  40  67  93 134 181 236 291 354 429
#     4  11  21  41  68 101 139 185 242 305 361 445
#     4  11  23  43  68 103 138 184 246 302 365 444
#     4  11  23  44  65 105 142 186 239 302 366 441
#     4  10  20  40  66  96 128 186 236 294 364 430
#     4  12  25  44  73 103 148 198 247 303 382 452
#
# _framework density 22.246853000000002
#
# number of rings (size 3 to 8) (size 9 to 14) (size 15 to 20)
#    0.000    1.333    2.667    4.000    0.000    2.667 
#    3.600    2.667    0.000    0.000    0.000    0.000 
#    0.000    0.000    0.000    0.000    0.000    0.000 
#
# Total GULP energy -167282.134829 kJ/mol
# GULP energy per Si atom -5576.071161 kJ/mol
# Density = 2.219622 g / cm^3
# Si number density = 22.246853 Si / 1000 Ang^3
#
#
#
# Elastic Constant Matrix: (Units=GPa)
#
#
# Indices 1 2 3 4 5 6 
#
# 1 184.7199 27.5598 38.0858 0.0000 0.0000 0.0000
# 2 27.5598 69.8520 7.9036 0.0000 0.0000 0.0000
# 3 38.0858 7.9036 64.1425 0.0000 0.0000 0.0000
# 4 0.0000 0.0000 0.0000 6.9026 0.0000 0.0000
# 5 0.0000 0.0000 0.0000 0.0000 -0.4769 0.0000
# 6 0.0000 0.0000 0.0000 0.0000 0.0000 27.3073
#
#
#
# Elastic Compliance Matrix: (Units=1/GPa)
#
#
# Indices 1 2 3 4 5 6 
#
# 1 0.006472 -0.002149 -0.003578 0.000000 0.000000 0.000000
# 2 -0.002149 0.015232 -0.000601 0.000000 0.000000 0.000000
# 3 -0.003578 -0.000601 0.017789 0.000000 0.000000 0.000000
# 4 0.000000 0.000000 0.000000 0.144872 0.000000 0.000000
# 5 0.000000 0.000000 0.000000 0.000000 -2.096930 0.000000
# 6 0.000000 0.000000 0.000000 0.000000 0.000000 0.036620
#
#
# Mechanical properties :
#
#
# Convention : Reuss Voigt Hill
#
# Bulk Modulus (GPa) = 37.26192 51.75696 44.50944
# Shear Modulus (GPa) = -2.69637 23.09096 10.19730
#
# Velocity S-wave (km/s) = -1.10211 3.22521 2.14328
# Velocity P-wave (km/s) = 3.89437 6.09792 5.11619
#
# Compressibility (1/GPa) = 0.02683705
#
# Stress axis : x y z
#
# Youngs Moduli (GPa) = 154.51419 65.65252 56.21484
#
# Poissons Ratio (x) = 0.14106 0.20114
# Poissons Ratio (y) = 0.33199 0.03379
# Poissons Ratio (z) = 0.55286 0.03946
#
# Static dielectric constant tensor:
#      x y z
#    x 2.018570 0.000000 0.000000 
#    y 0.000000 1.853540 0.000000 
#    z 0.000000 0.000000 1.823850 
# 
# From -- ./inp_files/26074.got.cif
#   From: 2010.05.17/outbox.cif.g08.bks.cpg/sg43_14_cif.got.tgz:26074.got - 2010.06.03 19:21:55.
