data_PCOD9370039
_publ_section_title
;
Structure prediction by ZEFSAII (Michael W. Deem and Ramdas Pophale) SiO2 
 PCOD9370039
Probable space group: F D D 2
;
_chemical_formula_sum "Si O2"
_cell_formula_units_Z 80
_cell_length_a 24.670657
_cell_length_b 20.361382
_cell_length_c 5.656708
_cell_angle_alpha 90.000000
_cell_angle_beta 90.000000
_cell_angle_gamma 90.000000
_cell_volume 2841.526614
_symmetry_space_group_name_H-M "F D D 2"
_symmetry_group_IT_number 43
_symmetry_cell_setting 'orthorhombic'
loop_
_space_group_symop_operation_xyz
x,y,z
-x,-y,z
1/4-x,1/4+y,1/4+z
1/4+x,1/4-y,1/4+z
x,1/2+y,1/2+z
-x,1/2-y,1/2+z
1/4-x,3/4+y,3/4+z
1/4+x,3/4-y,3/4+z
1/2+x,y,1/2+z
1/2-x,-y,1/2+z
3/4-x,1/4+y,3/4+z
3/4+x,1/4-y,3/4+z
1/2+x,1/2+y,z
1/2-x,1/2-y,z
3/4-x,3/4+y,1/4+z
3/4+x,3/4-y,1/4+z
loop_
_atom_site_type_symbol
_atom_site_label
_atom_site_fract_x
_atom_site_fract_y
_atom_site_fract_z
Si Si1 0.964063 0.431908 0.980190
Si Si2 0.841584 0.483786 0.027428
Si Si3 0.171958 0.521186 0.528648
Si Si4 0.505125 0.921572 0.470974
Si Si5 0.127967 0.898118 0.821596
O O1 0.899644 0.447631 0.991317
O O2 0.000000 0.500000 0.989165
O O3 0.983959 0.401177 0.730052
O O4 0.977197 0.396636 0.229074
O O5 0.806215 0.474156 0.793431
O O6 0.808890 0.462859 0.262913
O O7 0.861835 0.557646 0.089186
O O8 0.157347 0.444710 0.510171
O O9 0.119171 0.570294 0.527726
O O10 0.566762 0.904597 0.414765
O O11 0.500000 0.000000 0.475354
#
# Coordination Sequence:
#
# PCOD9370039 Si02
#       5
#    16  16  16  16  16
#     4  10  15  28  47  75 101 124 161 226 278 300
#     4  10  20  34  51  78 111 137 177 222 270 332
#     4  10  22  32  54  72 115 145 179 214 274 330
#     4  10  17  27  50  75 106 122 167 231 277 299
#     4  10  22  35  52  82 114 140 182 223 279 332
#
# _framework density 28.153880999999998
#
# number of rings (size 3 to 8) (size 9 to 14) (size 15 to 20)
#    1.200    0.800    4.000    3.600    2.800    0.000 
#    0.000    0.000    0.000    0.000    0.000    8.400 
#    0.000    0.000    0.000    0.000    0.000    0.000 
#
# Total GULP energy -111401.416660 kJ/mol
# GULP energy per Si atom -5570.070833 kJ/mol
# Density = 2.808980 g / cm^3
# Si number density = 28.153881 Si / 1000 Ang^3
#
#
#
# Elastic Constant Matrix: (Units=GPa)
#
#
# Indices 1 2 3 4 5 6 
#
# 1 84.3034 10.8602 31.9826 0.0014 -0.0011 0.0033
# 2 10.8602 125.4264 18.3074 0.0081 -0.0088 0.0150
# 3 31.9826 18.3074 342.0540 0.0153 -0.0109 0.0265
# 4 0.0014 0.0081 0.0153 -0.8079 -0.0087 0.0140
# 5 -0.0011 -0.0088 -0.0109 -0.0087 -23.9671 -0.0188
# 6 0.0033 0.0150 0.0265 0.0140 -0.0188 22.8097
#
#
#
# Elastic Compliance Matrix: (Units=1/GPa)
#
#
# Indices 1 2 3 4 5 6 
#
# 1 0.012401 -0.000912 -0.001111 -0.000008 0.000000 0.000000
# 2 -0.000912 0.008103 -0.000348 0.000073 -0.000003 -0.000005
# 3 -0.001111 -0.000348 0.003046 0.000052 -0.000001 -0.000003
# 4 -0.000008 0.000073 0.000052 -1.237776 0.000450 0.000759
# 5 0.000000 -0.000003 -0.000001 0.000450 -0.041724 -0.000035
# 6 0.000000 -0.000005 -0.000003 0.000759 -0.000035 0.043841
#
#
# Mechanical properties :
#
#
# Convention : Reuss Voigt Hill
#
# Bulk Modulus (GPa) = 53.16931 74.89825 64.03378
# Shear Modulus (GPa) = -4.16285 32.31586 14.07650
#
# Velocity S-wave (km/s) = -1.21730 3.39164 2.23846
# Velocity P-wave (km/s) = 4.11710 6.48063 5.42904
#
# Compressibility (1/GPa) = 0.01880784
#
# Stress axis : x y z
#
# Youngs Moduli (GPa) = 80.64047 123.41734 328.29800
#
# Poissons Ratio (x) = 0.11251 0.36464
# Poissons Ratio (y) = 0.07351 0.11439
# Poissons Ratio (z) = 0.08957 0.04300
#
# Static dielectric constant tensor:
#      x y z
#    x 2.244900 0.000000 0.000020 
#    y 0.000000 2.427890 -0.000040 
#    z 0.000020 -0.000040 2.281780 
# 
# From -- ./inp_files/1423.got.cif
#   From: 2010.05.17/outbox.cif.g08.bks.cpg/sg43_1_cif.got.tgz:1423.got - 2010.06.03 19:21:55.
