data_PCOD9370953
_publ_section_title
;
Structure prediction by ZEFSAII (Michael W. Deem and Ramdas Pophale) SiO2 
 PCOD9370953
Probable space group: F D D 2
;
_chemical_formula_sum "Si O2"
_cell_formula_units_Z 96
_cell_length_a 11.558062
_cell_length_b 15.955509
_cell_length_c 23.497213
_cell_angle_alpha 90.000000
_cell_angle_beta 90.000000
_cell_angle_gamma 90.000000
_cell_volume 4333.232949
_symmetry_space_group_name_H-M "F D D 2"
_symmetry_group_IT_number 43
_symmetry_cell_setting 'orthorhombic'
loop_
_space_group_symop_operation_xyz
x,y,z
-x,-y,z
1/4-x,1/4+y,1/4+z
1/4+x,1/4-y,1/4+z
x,1/2+y,1/2+z
-x,1/2-y,1/2+z
1/4-x,3/4+y,3/4+z
1/4+x,3/4-y,3/4+z
1/2+x,y,1/2+z
1/2-x,-y,1/2+z
3/4-x,1/4+y,3/4+z
3/4+x,1/4-y,3/4+z
1/2+x,1/2+y,z
1/2-x,1/2-y,z
3/4-x,3/4+y,1/4+z
3/4+x,3/4-y,1/4+z
loop_
_atom_site_type_symbol
_atom_site_label
_atom_site_fract_x
_atom_site_fract_y
_atom_site_fract_z
Si Si1 0.808693 0.928140 0.269770
Si Si2 0.250000 0.250000 0.909295
Si Si3 0.438803 0.259652 0.815984
Si Si4 0.324687 0.875006 0.489131
Si Si5 0.088087 0.119522 0.374350
Si Si6 0.000000 0.500000 0.968125
Si Si7 0.500000 0.500000 0.980296
Si Si8 0.000000 0.500000 0.685100
O O1 0.674293 0.943042 0.255402
O O2 0.854050 0.948737 0.332304
O O3 0.806768 0.826161 0.265006
O O4 0.896404 0.964427 0.223950
O O5 0.354350 0.278307 0.868603
O O6 0.231790 0.329177 0.950580
O O7 0.528079 0.331620 0.796457
O O8 0.501513 0.175572 0.836716
O O9 0.359975 0.250497 0.760015
O O10 0.393316 0.948259 0.453972
O O11 0.190990 0.177817 0.397928
O O12 0.021178 0.077916 0.426413
#
# Coordination Sequence:
#
# PCOD9370953 Si02
#       8
#    16   8  16  16  16   8   8   8
#     4  10  21  40  66  98 129 173 217 277 321 405
#     4  11  24  38  70  96 125 179 224 277 336 386
#     4  11  22  44  61  92 138 175 220 278 334 398
#     4  10  20  43  68  94 135 178 220 272 338 408
#     4  12  22  41  66  95 127 182 214 271 338 398
#     4  11  27  38  66  97 133 174 225 279 332 394
#     4   8  19  40  69  89 135 181 206 275 326 408
#     4  12  24  38  73 102 131 166 233 273 330 398
#
# _framework density 22.15436
#
# number of rings (size 3 to 8) (size 9 to 14) (size 15 to 20)
#    1.000    0.333    1.667    5.000    0.000    0.000 
#    0.000    4.167    0.000    0.000    0.000    0.000 
#    0.000    0.000    0.000    0.000    0.000    0.000 
#
# Total GULP energy -133727.848087 kJ/mol
# GULP energy per Si atom -5571.993670 kJ/mol
# Density = 2.210394 g / cm^3
# Si number density = 22.154360 Si / 1000 Ang^3
#
#
#
# Elastic Constant Matrix: (Units=GPa)
#
#
# Indices 1 2 3 4 5 6 
#
# 1 106.2500 27.4757 44.8416 0.0000 0.0000 0.0000
# 2 27.4757 50.3398 34.8989 0.0000 0.0000 0.0000
# 3 44.8416 34.8989 108.8257 0.0000 0.0000 0.0000
# 4 0.0000 0.0000 0.0000 68.9374 0.0000 0.0000
# 5 0.0000 0.0000 0.0000 0.0000 10.1575 0.0000
# 6 0.0000 0.0000 0.0000 0.0000 0.0000 43.6618
#
#
#
# Elastic Compliance Matrix: (Units=1/GPa)
#
#
# Indices 1 2 3 4 5 6 
#
# 1 0.011992 -0.004011 -0.003655 0.000000 0.000000 0.000000
# 2 -0.004011 0.026886 -0.006969 0.000000 0.000000 0.000000
# 3 -0.003655 -0.006969 0.012930 0.000000 0.000000 0.000000
# 4 0.000000 0.000000 0.000000 0.014506 0.000000 0.000000
# 5 0.000000 0.000000 0.000000 0.000000 0.098450 0.000000
# 6 0.000000 0.000000 0.000000 0.000000 0.000000 0.022903
#
#
# Mechanical properties :
#
#
# Convention : Reuss Voigt Hill
#
# Bulk Modulus (GPa) = 44.37160 53.31643 48.84402
# Shear Modulus (GPa) = 22.27682 35.09796 28.68739
#
# Velocity S-wave (km/s) = 3.17445 3.98458 3.60236
# Velocity P-wave (km/s) = 5.78861 6.72958 6.27675
#
# Compressibility (1/GPa) = 0.02253694
#
# Stress axis : x y z
#
# Youngs Moduli (GPa) = 83.39239 37.19438 77.34059
#
# Poissons Ratio (x) = 0.14920 0.28266
# Poissons Ratio (y) = 0.33451 0.53899
# Poissons Ratio (z) = 0.30478 0.25921
#
# Static dielectric constant tensor:
#      x y z
#    x 1.900220 0.000000 0.000000 
#    y 0.000000 1.689230 0.000000 
#    z 0.000000 0.000000 1.812290 
# 
# From -- ./inp_files/17171.got.cif
#   From: 2010.05.17/outbox.cif.g08.bks.cpg/sg43_9_cif.got.tgz:17171.got - 2010.06.03 19:21:55.
