data_PCOD9370655
_publ_section_title
;
Structure prediction by ZEFSAII (Michael W. Deem and Ramdas Pophale) SiO2 
 PCOD9370655
Probable space group: F D D 2
;
_chemical_formula_sum "Si O2"
_cell_formula_units_Z 88
_cell_length_a 28.491317
_cell_length_b 5.770750
_cell_length_c 25.513551
_cell_angle_alpha 90.000000
_cell_angle_beta 90.000000
_cell_angle_gamma 90.000000
_cell_volume 4194.842828
_symmetry_space_group_name_H-M "F D D 2"
_symmetry_group_IT_number 43
_symmetry_cell_setting 'orthorhombic'
loop_
_space_group_symop_operation_xyz
x,y,z
-x,-y,z
1/4-x,1/4+y,1/4+z
1/4+x,1/4-y,1/4+z
x,1/2+y,1/2+z
-x,1/2-y,1/2+z
1/4-x,3/4+y,3/4+z
1/4+x,3/4-y,3/4+z
1/2+x,y,1/2+z
1/2-x,-y,1/2+z
3/4-x,1/4+y,3/4+z
3/4+x,1/4-y,3/4+z
1/2+x,1/2+y,z
1/2-x,1/2-y,z
3/4-x,3/4+y,1/4+z
3/4+x,3/4-y,1/4+z
loop_
_atom_site_type_symbol
_atom_site_label
_atom_site_fract_x
_atom_site_fract_y
_atom_site_fract_z
Si Si1 0.648317 0.588247 0.445020
Si Si2 0.415731 0.712059 0.025867
Si Si3 0.276287 0.001123 0.033566
Si Si4 0.396829 0.219641 0.862512
Si Si5 0.321327 0.599180 0.854179
Si Si6 0.750000 0.750000 0.817256
O O1 0.612443 0.766733 0.472504
O O2 0.683036 0.491782 0.489218
O O3 0.615901 0.394886 0.417728
O O4 0.678911 0.713665 0.400250
O O5 0.379533 0.805338 0.070112
O O6 0.430023 0.462252 0.046676
O O7 0.461389 0.871807 0.031965
O O8 0.250000 0.750000 0.026358
O O9 0.300945 0.990218 0.090841
O O10 0.250000 0.250000 0.029657
O O11 0.369871 0.461955 0.859185
O O12 0.278191 0.424466 0.854770
#
# Coordination Sequence:
#
# PCOD9370655 Si02
#       6
#    16  16  16  16  16   8
#     4  10  23  42  66  97 127 181 234 272 342 418
#     4   9  20  39  61  86 129 168 218 272 338 393
#     4  11  27  45  70 103 144 180 229 293 352 409
#     4   9  22  42  65  89 132 179 218 276 345 408
#     4  10  21  38  66  90 132 171 222 279 342 404
#     4  10  20  38  58  92 126 168 214 282 338 388
#
# _framework density 20.978141000000001
#
# number of rings (size 3 to 8) (size 9 to 14) (size 15 to 20)
#    0.000    2.182    0.000    0.545   10.182    7.273 
#    8.182    0.000    0.000    0.000    0.000    0.000 
#    0.000    0.000    0.000    0.000    0.000    0.000 
#
# Total GULP energy -122707.113964 kJ/mol
# GULP energy per Si atom -5577.596089 kJ/mol
# Density = 2.093039 g / cm^3
# Si number density = 20.978141 Si / 1000 Ang^3
#
#
#
# Elastic Constant Matrix: (Units=GPa)
#
#
# Indices 1 2 3 4 5 6 
#
# 1 40.0197 25.4936 82.7919 -0.0052 0.0012 -0.0003
# 2 25.4936 101.2651 55.4944 0.0066 0.0005 0.0019
# 3 82.7919 55.4944 64.6693 0.0048 -0.0005 0.0003
# 4 -0.0052 0.0066 0.0048 -19.3529 0.0011 0.0053
# 5 0.0012 0.0005 -0.0005 0.0011 29.0318 -0.0003
# 6 -0.0003 0.0019 0.0003 0.0053 -0.0003 17.8776
#
#
#
# Elastic Compliance Matrix: (Units=1/GPa)
#
#
# Indices 1 2 3 4 5 6 
#
# 1 -0.009555 -0.008114 0.019196 0.000005 0.000001 0.000000
# 2 -0.008114 0.011751 0.000304 0.000006 0.000000 -0.000001
# 3 0.019196 0.000304 -0.009372 -0.000007 -0.000001 0.000000
# 4 0.000005 0.000006 -0.000007 -0.051672 0.000002 0.000015
# 5 0.000001 0.000000 -0.000001 0.000002 0.034445 0.000001
# 6 0.000000 -0.000001 0.000000 0.000015 0.000001 0.055936
#
#
# Mechanical properties :
#
#
# Convention : Reuss Voigt Hill
#
# Bulk Modulus (GPa) = 64.12465 59.27932 61.70198
# Shear Modulus (GPa) = 358.15181 8.32291 183.23736
#
# Velocity S-wave (km/s) = 13.08040 1.99400 9.35609
# Velocity P-wave (km/s) = 16.08611 5.79831 12.09097
#
# Compressibility (1/GPa) = 0.01559463
#
# Stress axis : x y z
#
# Youngs Moduli (GPa) = -104.65457 85.09613 -106.69791
#
# Poissons Ratio (x) = 0.69046 2.04815
# Poissons Ratio (y) = -0.84916 0.03239
# Poissons Ratio (z) = 2.00892 -0.02583
#
# Static dielectric constant tensor:
#      x y z
#    x 1.752890 0.000000 0.000000 
#    y 0.000000 1.833940 0.000000 
#    z 0.000000 0.000000 1.759220 
# 
# From -- ./inp_files/19546.got.cif
#   From: 2010.05.17/outbox.cif.g08.bks.cpg/sg43_10_cif.got.tgz:19546.got - 2010.06.03 19:21:55.
