data_PCOD9370098
_publ_section_title
;
Structure prediction by ZEFSAII (Michael W. Deem and Ramdas Pophale) SiO2 
 PCOD9370098
Probable space group: F D D 2
;
_chemical_formula_sum "Si O2"
_cell_formula_units_Z 112
_cell_length_a 26.115356
_cell_length_b 8.866252
_cell_length_c 20.029142
_cell_angle_alpha 90.000000
_cell_angle_beta 90.000000
_cell_angle_gamma 90.000000
_cell_volume 4637.654241
_symmetry_space_group_name_H-M "F D D 2"
_symmetry_group_IT_number 43
_symmetry_cell_setting 'orthorhombic'
loop_
_space_group_symop_operation_xyz
x,y,z
-x,-y,z
1/4-x,1/4+y,1/4+z
1/4+x,1/4-y,1/4+z
x,1/2+y,1/2+z
-x,1/2-y,1/2+z
1/4-x,3/4+y,3/4+z
1/4+x,3/4-y,3/4+z
1/2+x,y,1/2+z
1/2-x,-y,1/2+z
3/4-x,1/4+y,3/4+z
3/4+x,1/4-y,3/4+z
1/2+x,1/2+y,z
1/2-x,1/2-y,z
3/4-x,3/4+y,1/4+z
3/4+x,3/4-y,1/4+z
loop_
_atom_site_type_symbol
_atom_site_label
_atom_site_fract_x
_atom_site_fract_y
_atom_site_fract_z
Si Si1 0.019899 0.825522 0.032100
Si Si2 0.349905 0.287988 0.098651
Si Si3 0.204031 0.587509 0.494922
Si Si4 0.138214 0.758657 0.388605
Si Si5 0.578836 0.374387 0.503448
Si Si6 0.963823 0.647378 0.687418
Si Si7 0.631269 0.806922 0.471214
O O1 0.035089 0.804674 0.110272
O O2 0.978198 0.698860 0.008276
O O3 0.073236 0.810629 0.993658
O O4 0.000000 0.000000 0.024787
O O5 0.347832 0.130571 0.136425
O O6 0.386430 0.257384 0.035817
O O7 0.378943 0.408438 0.142582
O O8 0.298106 0.341142 0.067315
O O9 0.183987 0.692788 0.434653
O O10 0.259290 0.527481 0.478105
O O11 0.165276 0.443853 0.499614
O O12 0.161293 0.752200 0.312116
O O13 0.105650 0.886473 0.429292
O O14 0.912943 0.595696 0.724679
O O15 0.000000 0.500000 0.689305
#
# Coordination Sequence:
#
# PCOD9370098 Si02
#       7
#    16  16  16  16  16  16  16
#     4  11  17  23  36  54  82 114 139 165 224 273
#     4   8  14  23  35  51  78 108 137 168 212 264
#     4   9  13  24  36  48  74 114 142 167 211 267
#     4   8  14  22  37  56  81 109 143 169 211 259
#     4   9  15  25  37  55  83 114 139 175 207 279
#     4   9  16  25  35  52  77 111 139 165 213 273
#     4  10  17  22  32  55  83 106 138 177 211 274
#
# _framework density 24.15014
#
# number of rings (size 3 to 8) (size 9 to 14) (size 15 to 20)
#    0.857    2.000    1.429    5.143    0.000    0.000 
#    0.000    0.000    0.000    0.000    0.000    0.000 
#    4.286   13.714    0.000    0.000    0.000    0.000 
#
# Total GULP energy -155983.382676 kJ/mol
# GULP energy per Si atom -5570.835096 kJ/mol
# Density = 2.409517 g / cm^3
# Si number density = 24.150140 Si / 1000 Ang^3
#
#
#
# Elastic Constant Matrix: (Units=GPa)
#
#
# Indices 1 2 3 4 5 6 
#
# 1 115.9956 51.7434 24.7983 0.0000 0.0000 0.0000
# 2 51.7434 71.4315 29.3223 0.0000 0.0000 0.0000
# 3 24.7983 29.3223 39.9784 0.0000 0.0000 0.0000
# 4 0.0000 0.0000 0.0000 19.0529 0.0000 0.0000
# 5 0.0000 0.0000 0.0000 0.0000 12.6917 0.0000
# 6 0.0000 0.0000 0.0000 0.0000 0.0000 23.0159
#
#
#
# Elastic Compliance Matrix: (Units=1/GPa)
#
#
# Indices 1 2 3 4 5 6 
#
# 1 0.012811 -0.008610 -0.001631 0.000000 0.000000 0.000000
# 2 -0.008610 0.025817 -0.013595 0.000000 0.000000 0.000000
# 3 -0.001631 -0.013595 0.035997 0.000000 0.000000 0.000000
# 4 0.000000 0.000000 0.000000 0.052486 0.000000 0.000000
# 5 0.000000 0.000000 0.000000 0.000000 0.078792 0.000000
# 6 0.000000 0.000000 0.000000 0.000000 0.000000 0.043448
#
#
# Mechanical properties :
#
#
# Convention : Reuss Voigt Hill
#
# Bulk Modulus (GPa) = 37.10316 48.79261 42.94788
# Shear Modulus (GPa) = 16.33958 19.05486 17.69722
#
# Velocity S-wave (km/s) = 2.60394 2.81199 2.70996
# Velocity P-wave (km/s) = 4.94344 5.54894 5.25492
#
# Compressibility (1/GPa) = 0.02695188
#
# Stress axis : x y z
#
# Youngs Moduli (GPa) = 78.06081 38.73420 27.78047
#
# Poissons Ratio (x) = 0.33350 0.04532
# Poissons Ratio (y) = 0.67211 0.37767
# Poissons Ratio (z) = 0.12733 0.52658
#
# Static dielectric constant tensor:
#      x y z
#    x 2.010720 0.000000 0.000000 
#    y 0.000000 2.009730 0.000000 
#    z 0.000000 0.000000 1.980230 
# 
# From -- ./inp_files/18907.got.cif
#   From: 2010.05.17/outbox.cif.g08.bks.cpg/sg43_10_cif.got.tgz:18907.got - 2010.06.03 19:21:55.
