data_PCOD9370072
_publ_section_title
;
Structure prediction by ZEFSAII (Michael W. Deem and Ramdas Pophale) SiO2 
 PCOD9370072
Probable space group: F D D 2
;
_chemical_formula_sum "Si O2"
_cell_formula_units_Z 88
_cell_length_a 32.971267
_cell_length_b 20.086136
_cell_length_c 5.208799
_cell_angle_alpha 90.000000
_cell_angle_beta 90.000000
_cell_angle_gamma 90.000000
_cell_volume 3449.607109
_symmetry_space_group_name_H-M "F D D 2"
_symmetry_group_IT_number 43
_symmetry_cell_setting 'orthorhombic'
loop_
_space_group_symop_operation_xyz
x,y,z
-x,-y,z
1/4-x,1/4+y,1/4+z
1/4+x,1/4-y,1/4+z
x,1/2+y,1/2+z
-x,1/2-y,1/2+z
1/4-x,3/4+y,3/4+z
1/4+x,3/4-y,3/4+z
1/2+x,y,1/2+z
1/2-x,-y,1/2+z
3/4-x,1/4+y,3/4+z
3/4+x,1/4-y,3/4+z
1/2+x,1/2+y,z
1/2-x,1/2-y,z
3/4-x,3/4+y,1/4+z
3/4+x,3/4-y,1/4+z
loop_
_atom_site_type_symbol
_atom_site_label
_atom_site_fract_x
_atom_site_fract_y
_atom_site_fract_z
Si Si1 0.250000 0.250000 0.112010
Si Si2 0.350797 0.819456 0.300461
Si Si3 0.522755 0.357175 0.719512
Si Si4 0.476904 0.819011 0.738106
Si Si5 0.392940 0.776637 0.804614
Si Si6 0.180680 0.791318 0.982000
O O1 0.210872 0.249283 0.299994
O O2 0.248481 0.181066 0.961255
O O3 0.318692 0.874332 0.389499
O O4 0.380362 0.804742 0.531498
O O5 0.377181 0.825326 0.037356
O O6 0.325290 0.751690 0.239124
O O7 0.504439 0.315486 0.487524
O O8 0.505388 0.329865 0.990365
O O9 0.440755 0.765753 0.781562
O O10 0.449938 0.886830 0.750147
O O11 0.364281 0.712998 0.859948
#
# Coordination Sequence:
#
# PCOD9370072 Si02
#       6
#     8  16  16  16  16  16
#     4  10  16  32  50  84 104 126 164 212 264 328
#     4  10  18  35  50  71 107 134 167 205 263 305
#     4  11  19  31  50  78 102 135 163 213 255 321
#     4  11  22  31  50  78 108 132 175 206 261 319
#     4  10  21  34  46  75 110 138 166 211 256 317
#     4   9  20  31  53  73 109 135 165 207 269 313
#
# _framework density 25.510151
#
# number of rings (size 3 to 8) (size 9 to 14) (size 15 to 20)
#    1.091    0.727    1.818    5.455    2.545    0.727 
#    0.000    0.000    0.000    0.000    0.000    5.091 
#    0.000    0.000    0.000    0.000    0.000    0.000 
#
# Total GULP energy -122937.828677 kJ/mol
# GULP energy per Si atom -5588.083122 kJ/mol
# Density = 2.545209 g / cm^3
# Si number density = 25.510151 Si / 1000 Ang^3
#
#
#
# Elastic Constant Matrix: (Units=GPa)
#
#
# Indices 1 2 3 4 5 6 
#
# 1 188.9717 21.0316 79.2820 0.1633 -0.0170 0.0010
# 2 21.0316 83.5922 3.6583 -0.1107 0.0060 0.0008
# 3 79.2820 3.6583 182.9081 -0.4019 0.0482 0.0000
# 4 0.1633 -0.1107 -0.4019-2488.2523 -2.8415 0.0582
# 5 -0.0170 0.0060 0.0482 -2.8415 -4.3462 -0.0079
# 6 0.0010 0.0008 0.0000 0.0582 -0.0079 46.7912
#
#
#
# Elastic Compliance Matrix: (Units=1/GPa)
#
#
# Indices 1 2 3 4 5 6 
#
# 1 0.006663 -0.001551 -0.002857 0.000001 -0.000061 0.000000
# 2 -0.001551 0.012335 0.000426 -0.000001 0.000028 0.000000
# 3 -0.002857 0.000426 0.006697 -0.000001 0.000087 0.000000
# 4 0.000001 -0.000001 -0.000001 -0.000402 0.000263 0.000001
# 5 -0.000061 0.000028 0.000087 0.000263 -0.230257 -0.000039
# 6 0.000000 0.000000 0.000000 0.000001 -0.000039 0.021372
#
#
# Mechanical properties :
#
#
# Convention : Reuss Voigt Hill
#
# Bulk Modulus (GPa) = 56.40390 73.71288 65.05839
# Shear Modulus (GPa) = -29.46069 -465.72812 -247.59441
#
# Velocity S-wave (km/s) = -3.40201 -13.52635 -9.86245
# Velocity P-wave (km/s) = 2.59361 14.66258 10.20452
#
# Compressibility (1/GPa) = 0.01772927
#
# Stress axis : x y z
#
# Youngs Moduli (GPa) = 150.07945 81.07322 149.31818
#
# Poissons Ratio (x) = 0.12578 0.42662
# Poissons Ratio (y) = 0.23283 -0.06357
# Poissons Ratio (z) = 0.42879 -0.03452
#
# Static dielectric constant tensor:
#      x y z
#    x 6.181890 0.005170 0.000060 
#    y 0.005170 2.263570 0.000010 
#    z 0.000060 0.000010 1.929030 
# 
# From -- ./inp_files/1225.got.cif
#   From: 2010.05.17/outbox.cif.g08.bks.cpg/sg43_1_cif.got.tgz:1225.got - 2010.06.03 19:21:55.
