data_PCOD9370139
_publ_section_title
;
Structure prediction by ZEFSAII (Michael W. Deem and Ramdas Pophale) SiO2 
 PCOD9370139
Probable space group: F D D 2
;
_chemical_formula_sum "Si O2"
_cell_formula_units_Z 64
_cell_length_a 13.716887
_cell_length_b 32.071635
_cell_length_c 5.398697
_cell_angle_alpha 90.000000
_cell_angle_beta 90.000000
_cell_angle_gamma 90.000000
_cell_volume 2375.010944
_symmetry_space_group_name_H-M "F D D 2"
_symmetry_group_IT_number 43
_symmetry_cell_setting 'orthorhombic'
loop_
_space_group_symop_operation_xyz
x,y,z
-x,-y,z
1/4-x,1/4+y,1/4+z
1/4+x,1/4-y,1/4+z
x,1/2+y,1/2+z
-x,1/2-y,1/2+z
1/4-x,3/4+y,3/4+z
1/4+x,3/4-y,3/4+z
1/2+x,y,1/2+z
1/2-x,-y,1/2+z
3/4-x,1/4+y,3/4+z
3/4+x,1/4-y,3/4+z
1/2+x,1/2+y,z
1/2-x,1/2-y,z
3/4-x,3/4+y,1/4+z
3/4+x,3/4-y,1/4+z
loop_
_atom_site_type_symbol
_atom_site_label
_atom_site_fract_x
_atom_site_fract_y
_atom_site_fract_z
Si Si1 0.804747 0.551818 0.371620
Si Si2 0.789032 0.593218 0.857851
Si Si3 0.430524 0.436056 0.406773
Si Si4 0.101593 0.538067 0.392602
O O1 0.839460 0.567112 0.639852
O O2 0.686879 0.555860 0.390195
O O3 0.835132 0.503630 0.363227
O O4 0.829484 0.580392 0.130388
O O5 0.795179 0.638609 0.730795
O O6 0.677235 0.577193 0.880165
O O7 0.465235 0.459012 0.652572
O O8 0.458140 0.454548 0.142016
#
# Coordination Sequence:
#
# PCOD9370139 Si02
#       4
#    16  16  16  16
#     4  10  19  33  50  73 101 130 166 208 244 296
#     4  10  18  29  48  75 100 126 161 208 251 288
#     4  10  18  29  48  75 100 126 161 208 251 288
#     4  10  19  33  50  73 101 130 166 208 244 296
#
# _framework density 26.947243
#
# number of rings (size 3 to 8) (size 9 to 14) (size 15 to 20)
#    0.000    2.000    0.000    9.000    0.000    0.000 
#    0.000    0.000    0.000    0.000    0.000  168.000 
#    0.000    0.000    0.000    0.000    0.000    0.000 
#
# Total GULP energy -89356.821536 kJ/mol
# GULP energy per Si atom -5584.801346 kJ/mol
# Density = 2.688591 g / cm^3
# Si number density = 26.947243 Si / 1000 Ang^3
#
#
#
# Elastic Constant Matrix: (Units=GPa)
#
#
# Indices 1 2 3 4 5 6 
#
# 1 114.4364 34.8810 -5.3516 -0.0001 -0.0011 0.0002
# 2 34.8810 185.1959 40.9929 0.0003 0.0003 -0.0001
# 3 -5.3516 40.9929 299.5227 -0.0007 0.0000 0.0003
# 4 -0.0001 0.0003 -0.0007 39.7732 -0.0005 -0.0001
# 5 -0.0011 0.0003 0.0000 -0.0005 -68.1338 0.0000
# 6 0.0002 -0.0001 0.0003 -0.0001 0.0000 38.2393
#
#
#
# Elastic Compliance Matrix: (Units=1/GPa)
#
#
# Indices 1 2 3 4 5 6 
#
# 1 0.009322 -0.001849 0.000420 0.000000 0.000000 0.000000
# 2 -0.001849 0.005935 -0.000845 0.000000 0.000000 0.000000
# 3 0.000420 -0.000845 0.003462 0.000000 0.000000 0.000000
# 4 0.000000 0.000000 0.000000 0.025143 0.000000 0.000000
# 5 0.000000 0.000000 0.000000 0.000000 -0.014677 0.000000
# 6 0.000000 0.000000 0.000000 0.000000 0.000000 0.026151
#
#
# Mechanical properties :
#
#
# Convention : Reuss Voigt Hill
#
# Bulk Modulus (GPa) = 70.57292 82.24440 76.40866
# Shear Modulus (GPa) = 77.39117 37.21791 57.30454
#
# Velocity S-wave (km/s) = 5.36487 3.72040 4.61645
# Velocity P-wave (km/s) = 8.03878 7.00300 7.53870
#
# Compressibility (1/GPa) = 0.01416974
#
# Stress axis : x y z
#
# Youngs Moduli (GPa) = 107.27836 168.49314 288.86470
#
# Poissons Ratio (x) = 0.31147 -0.12119
# Poissons Ratio (y) = 0.19831 0.24417
# Poissons Ratio (z) = -0.04501 0.14243
#
# Static dielectric constant tensor:
#      x y z
#    x 2.136700 0.000000 0.000000 
#    y 0.000000 2.136980 0.000000 
#    z 0.000000 0.000000 2.292380 
# 
# From -- ./inp_files/503.got.cif
#   From: 2010.05.17/outbox.cif.g08.bks.cpg/sg43_1_cif.got.tgz:503.got - 2010.06.03 19:21:55.
