data_PCOD9370414
_publ_section_title
;
Structure prediction by ZEFSAII (Michael W. Deem and Ramdas Pophale) SiO2 
 PCOD9370414
Probable space group: F D D 2
;
_chemical_formula_sum "Si O2"
_cell_formula_units_Z 104
_cell_length_a 14.554862
_cell_length_b 23.321992
_cell_length_c 12.251375
_cell_angle_alpha 90.000000
_cell_angle_beta 90.000000
_cell_angle_gamma 90.000000
_cell_volume 4158.709337
_symmetry_space_group_name_H-M "F D D 2"
_symmetry_group_IT_number 43
_symmetry_cell_setting 'orthorhombic'
loop_
_space_group_symop_operation_xyz
x,y,z
-x,-y,z
1/4-x,1/4+y,1/4+z
1/4+x,1/4-y,1/4+z
x,1/2+y,1/2+z
-x,1/2-y,1/2+z
1/4-x,3/4+y,3/4+z
1/4+x,3/4-y,3/4+z
1/2+x,y,1/2+z
1/2-x,-y,1/2+z
3/4-x,1/4+y,3/4+z
3/4+x,1/4-y,3/4+z
1/2+x,1/2+y,z
1/2-x,1/2-y,z
3/4-x,3/4+y,1/4+z
3/4+x,3/4-y,1/4+z
loop_
_atom_site_type_symbol
_atom_site_label
_atom_site_fract_x
_atom_site_fract_y
_atom_site_fract_z
Si Si1 0.590174 0.175752 0.721790
Si Si2 0.181017 0.549872 0.527093
Si Si3 0.000000 0.000000 0.510714
Si Si4 0.174075 0.136252 0.731657
Si Si5 0.564461 0.694456 0.563074
Si Si6 0.603827 0.813972 0.604250
Si Si7 0.725972 0.351320 0.636641
O O1 0.588752 0.233448 0.792834
O O2 0.493815 0.171610 0.659247
O O3 0.610939 0.118617 0.789409
O O4 0.679746 0.184212 0.643036
O O5 0.247810 0.550849 0.419977
O O6 0.235236 0.584313 0.619777
O O7 0.089309 0.583981 0.487755
O O8 0.944864 0.056257 0.555706
O O9 0.076356 0.035973 0.442919
O O10 0.149434 0.159638 0.612868
O O11 0.259367 0.094268 0.730915
O O12 0.090772 0.098804 0.781611
O O13 0.590861 0.757587 0.529805
#
# Coordination Sequence:
#
# PCOD9370414 Si02
#       7
#    16  16   8  16  16  16  16
#     4  11  22  41  63  93 131 173 209 268 332 395
#     4   9  19  36  64  88 129 165 211 267 328 379
#     4  10  22  44  64  84 130 164 212 278 320 382
#     4   9  18  36  62  88 123 167 213 268 330 379
#     4   8  17  36  59  90 122 163 209 270 320 388
#     4  10  23  41  63  91 128 170 216 263 329 393
#     4  10  19  37  63  94 124 165 215 266 324 391
#
# _framework density 25.007760000000001
#
# number of rings (size 3 to 8) (size 9 to 14) (size 15 to 20)
#    0.000    2.462    0.000    2.308    0.000    2.462 
#    8.308    0.000   23.692    0.000    0.000    0.000 
#    0.000    0.000    0.000    0.000    0.000    0.000 
#
# Total GULP energy -145127.721960 kJ/mol
# GULP energy per Si atom -5581.835460 kJ/mol
# Density = 2.495084 g / cm^3
# Si number density = 25.007760 Si / 1000 Ang^3
#
#
#
# Elastic Constant Matrix: (Units=GPa)
#
#
# Indices 1 2 3 4 5 6 
#
# 1 143.9812 60.3956 37.2827 0.0000 0.0000 0.0000
# 2 60.3956 204.2931 50.8328 0.0000 0.0000 0.0000
# 3 37.2827 50.8328 50.4215 0.0000 0.0000 0.0000
# 4 0.0000 0.0000 0.0000 44.7447 0.0000 0.0000
# 5 0.0000 0.0000 0.0000 0.0000 23.3551 0.0000
# 6 0.0000 0.0000 0.0000 0.0000 0.0000 51.2066
#
#
#
# Elastic Compliance Matrix: (Units=1/GPa)
#
#
# Indices 1 2 3 4 5 6 
#
# 1 0.008848 -0.001319 -0.005213 0.000000 0.000000 0.000000
# 2 -0.001319 0.006731 -0.005810 0.000000 0.000000 0.000000
# 3 -0.005213 -0.005810 0.029545 0.000000 0.000000 0.000000
# 4 0.000000 0.000000 0.000000 0.022349 0.000000 0.000000
# 5 0.000000 0.000000 0.000000 0.000000 0.042817 0.000000
# 6 0.000000 0.000000 0.000000 0.000000 0.000000 0.019529
#
#
# Mechanical properties :
#
#
# Convention : Reuss Voigt Hill
#
# Bulk Modulus (GPa) = 48.92443 77.30202 63.11322
# Shear Modulus (GPa) = 30.99485 40.54027 35.76756
#
# Velocity S-wave (km/s) = 3.52434 4.03067 3.78598
# Velocity P-wave (km/s) = 6.01394 7.25534 6.66361
#
# Compressibility (1/GPa) = 0.02043969
#
# Stress axis : x y z
#
# Youngs Moduli (GPa) = 113.01434 148.57677 33.84624
#
# Poissons Ratio (x) = 0.19593 0.17645
# Poissons Ratio (y) = 0.14903 0.19666
# Poissons Ratio (z) = 0.58917 0.86328
#
# Static dielectric constant tensor:
#      x y z
#    x 2.067200 0.000000 0.000000 
#    y 0.000000 1.975280 0.000000 
#    z 0.000000 0.000000 2.055470 
# 
# From -- ./inp_files/13901.got.cif
#   From: 2010.05.17/outbox.cif.g08.bks.cpg/sg43_7_cif.got.tgz:13901.got - 2010.06.03 19:21:55.
