data_PCOD9370650
_publ_section_title
;
Structure prediction by ZEFSAII (Michael W. Deem and Ramdas Pophale) SiO2 
 PCOD9370650
Probable space group: F D D 2
;
_chemical_formula_sum "Si O2"
_cell_formula_units_Z 88
_cell_length_a 27.833107
_cell_length_b 13.538350
_cell_length_c 8.283971
_cell_angle_alpha 90.000000
_cell_angle_beta 90.000000
_cell_angle_gamma 90.000000
_cell_volume 3121.519099
_symmetry_space_group_name_H-M "F D D 2"
_symmetry_group_IT_number 43
_symmetry_cell_setting 'orthorhombic'
loop_
_space_group_symop_operation_xyz
x,y,z
-x,-y,z
1/4-x,1/4+y,1/4+z
1/4+x,1/4-y,1/4+z
x,1/2+y,1/2+z
-x,1/2-y,1/2+z
1/4-x,3/4+y,3/4+z
1/4+x,3/4-y,3/4+z
1/2+x,y,1/2+z
1/2-x,-y,1/2+z
3/4-x,1/4+y,3/4+z
3/4+x,1/4-y,3/4+z
1/2+x,1/2+y,z
1/2-x,1/2-y,z
3/4-x,3/4+y,1/4+z
3/4+x,3/4-y,1/4+z
loop_
_atom_site_type_symbol
_atom_site_label
_atom_site_fract_x
_atom_site_fract_y
_atom_site_fract_z
Si Si1 0.429193 0.575166 0.534340
Si Si2 0.714900 0.896913 0.809499
Si Si3 0.500000 0.500000 0.961868
Si Si4 0.925992 0.338579 0.380303
Si Si5 0.674281 0.187159 0.917568
Si Si6 0.175869 0.419559 0.484785
O O1 0.480782 0.613748 0.591248
O O2 0.434620 0.455453 0.539999
O O3 0.381266 0.604708 0.628255
O O4 0.421328 0.604578 0.347051
O O5 0.709885 0.948877 0.634312
O O6 0.690855 0.956182 0.956529
O O7 0.458020 0.439196 0.873964
O O8 0.528143 0.416563 0.065190
O O9 0.934002 0.288628 0.554801
O O10 0.627420 0.178510 0.808317
O O11 0.681973 0.303701 0.950634
#
# Coordination Sequence:
#
# PCOD9370650 Si02
#       6
#    16  16   8  16  16  16
#     4  10  20  37  68  91 127 165 227 274 338 400
#     4  10  21  40  59  94 126 174 213 279 335 412
#     4  10  22  38  66  92 124 176 220 260 344 410
#     4  11  22  36  64  97 123 170 222 273 323 415
#     4  10  20  41  64  95 130 175 220 276 342 408
#     4  10  22  37  63  91 134 170 218 273 339 404
#
# _framework density 28.191399000000001
#
# number of rings (size 3 to 8) (size 9 to 14) (size 15 to 20)
#    0.000    1.818    1.818    4.364    7.636    0.000 
#    0.000    0.000    4.000    0.000    0.000    0.000 
#    0.000    0.000    0.000    0.000    0.000    0.000 
#
# Total GULP energy -123215.862059 kJ/mol
# GULP energy per Si atom -5600.721003 kJ/mol
# Density = 2.812723 g / cm^3
# Si number density = 28.191399 Si / 1000 Ang^3
#
#
#
# Elastic Constant Matrix: (Units=GPa)
#
#
# Indices 1 2 3 4 5 6 
#
# 1 167.2654 53.7714 43.4375 0.0000 0.0000 0.0000
# 2 53.7714 61.5446 34.0992 0.0000 0.0000 0.0000
# 3 43.4375 34.0992 239.0174 0.0000 0.0000 0.0000
# 4 0.0000 0.0000 0.0000 32.7878 0.0000 0.0000
# 5 0.0000 0.0000 0.0000 0.0000 48.9496 0.0000
# 6 0.0000 0.0000 0.0000 0.0000 0.0000 39.9450
#
#
#
# Elastic Compliance Matrix: (Units=1/GPa)
#
#
# Indices 1 2 3 4 5 6 
#
# 1 0.008372 -0.007027 -0.000519 0.000000 0.000000 0.000000
# 2 -0.007027 0.023541 -0.002081 0.000000 0.000000 0.000000
# 3 -0.000519 -0.002081 0.004575 0.000000 0.000000 0.000000
# 4 0.000000 0.000000 0.000000 0.030499 0.000000 0.000000
# 5 0.000000 0.000000 0.000000 0.000000 0.020429 0.000000
# 6 0.000000 0.000000 0.000000 0.000000 0.000000 0.025034
#
#
# Mechanical properties :
#
#
# Convention : Reuss Voigt Hill
#
# Bulk Modulus (GPa) = 58.02717 81.16038 69.59378
# Shear Modulus (GPa) = 36.37638 46.77110 41.57374
#
# Velocity S-wave (km/s) = 3.59602 4.07757 3.84434
# Velocity P-wave (km/s) = 6.15384 7.14285 6.66671
#
# Compressibility (1/GPa) = 0.01723331
#
# Stress axis : x y z
#
# Youngs Moduli (GPa) = 119.43950 42.47822 218.57660
#
# Poissons Ratio (x) = 0.29851 0.11344
# Poissons Ratio (y) = 0.83935 0.45495
# Poissons Ratio (z) = 0.06199 0.08841
#
# Static dielectric constant tensor:
#      x y z
#    x 2.121690 0.000000 0.000000 
#    y 0.000000 2.273150 0.000000 
#    z 0.000000 0.000000 2.366970 
# 
# From -- ./inp_files/3210.got.cif
#   From: 2010.05.17/outbox.cif.g08.bks.cpg/sg43_2_cif.got.tgz:3210.got - 2010.06.03 19:21:55.
