data_PCOD9370318
_publ_section_title
;
Structure prediction by ZEFSAII (Michael W. Deem and Ramdas Pophale) SiO2 
 PCOD9370318
Probable space group: F D D 2
;
_chemical_formula_sum "Si O2"
_cell_formula_units_Z 88
_cell_length_a 13.623110
_cell_length_b 22.691120
_cell_length_c 14.345602
_cell_angle_alpha 90.000000
_cell_angle_beta 90.000000
_cell_angle_gamma 90.000000
_cell_volume 4434.564476
_symmetry_space_group_name_H-M "F D D 2"
_symmetry_group_IT_number 43
_symmetry_cell_setting 'orthorhombic'
loop_
_space_group_symop_operation_xyz
x,y,z
-x,-y,z
1/4-x,1/4+y,1/4+z
1/4+x,1/4-y,1/4+z
x,1/2+y,1/2+z
-x,1/2-y,1/2+z
1/4-x,3/4+y,3/4+z
1/4+x,3/4-y,3/4+z
1/2+x,y,1/2+z
1/2-x,-y,1/2+z
3/4-x,1/4+y,3/4+z
3/4+x,1/4-y,3/4+z
1/2+x,1/2+y,z
1/2-x,1/2-y,z
3/4-x,3/4+y,1/4+z
3/4+x,3/4-y,1/4+z
loop_
_atom_site_type_symbol
_atom_site_label
_atom_site_fract_x
_atom_site_fract_y
_atom_site_fract_z
Si Si1 0.438971 0.889276 0.451040
Si Si2 0.351224 0.223104 0.668046
Si Si3 0.408250 0.096780 0.611928
Si Si4 0.565989 0.741499 0.222969
Si Si5 0.938355 0.557011 0.298759
Si Si6 0.250000 0.250000 0.488185
O O1 0.523891 0.880608 0.527446
O O2 0.364819 0.836140 0.462486
O O3 0.488026 0.898421 0.351349
O O4 0.380863 0.949282 0.478888
O O5 0.250000 0.250000 0.708890
O O6 0.360632 0.151872 0.665628
O O7 0.450491 0.249356 0.709609
O O8 0.340411 0.240207 0.558658
O O9 0.335256 0.050990 0.561038
O O10 0.477212 0.057359 0.678008
O O11 0.610611 0.710352 0.130114
O O12 0.000000 0.500000 0.273830
#
# Coordination Sequence:
#
# PCOD9370318 Si02
#       6
#    16  16  16  16  16   8
#     4  10  19  32  61  87 115 148 194 247 295 340
#     4  10  23  35  56  88 127 156 192 248 309 348
#     4  11  18  36  62  91 113 150 212 250 284 350
#     4  10  19  35  57  88 121 148 191 253 294 344
#     4   9  19  33  55  88 114 148 191 245 293 341
#     4  10  22  36  60  96 108 154 210 236 294 350
#
# _framework density 19.844114000000001
#
# number of rings (size 3 to 8) (size 9 to 14) (size 15 to 20)
#    0.545    1.455    3.636    2.182    2.545    0.000 
#    0.000    3.636    0.000    0.000    0.000    0.000 
#    0.000    0.000    0.000    0.000    0.000    0.000 
#
# Total GULP energy -122662.756706 kJ/mol
# GULP energy per Si atom -5575.579850 kJ/mol
# Density = 1.979895 g / cm^3
# Si number density = 19.844114 Si / 1000 Ang^3
#
#
#
# Elastic Constant Matrix: (Units=GPa)
#
#
# Indices 1 2 3 4 5 6 
#
# 1 119.7577 15.0334 13.9904 0.0000 0.0000 0.0000
# 2 15.0334 31.0154 -2.8473 0.0000 0.0000 0.0000
# 3 13.9904 -2.8473 12.7837 0.0000 0.0000 0.0000
# 4 0.0000 0.0000 0.0000 3.6978 0.0000 0.0000
# 5 0.0000 0.0000 0.0000 0.0000 16.9862 0.0000
# 6 0.0000 0.0000 0.0000 0.0000 0.0000 33.3755
#
#
#
# Elastic Compliance Matrix: (Units=1/GPa)
#
#
# Indices 1 2 3 4 5 6 
#
# 1 0.010683 -0.006382 -0.013113 0.000000 0.000000 0.000000
# 2 -0.006382 0.036728 0.015165 0.000000 0.000000 0.000000
# 3 -0.013113 0.015165 0.095954 0.000000 0.000000 0.000000
# 4 0.000000 0.000000 0.000000 0.270434 0.000000 0.000000
# 5 0.000000 0.000000 0.000000 0.000000 0.058871 0.000000
# 6 0.000000 0.000000 0.000000 0.000000 0.000000 0.029962
#
#
# Mechanical properties :
#
#
# Convention : Reuss Voigt Hill
#
# Bulk Modulus (GPa) = 7.42370 23.98998 15.70684
# Shear Modulus (GPa) = 8.98967 19.97056 14.48011
#
# Velocity S-wave (km/s) = 2.13072 3.17578 2.70421
# Velocity P-wave (km/s) = 3.13088 5.05598 4.20508
#
# Compressibility (1/GPa) = 0.13470372
#
# Stress axis : x y z
#
# Youngs Moduli (GPa) = 93.60429 27.22739 10.42170
#
# Poissons Ratio (x) = 0.17377 0.13666
# Poissons Ratio (y) = 0.59739 -0.15804
# Poissons Ratio (z) = 1.22745 -0.41290
#
# Static dielectric constant tensor:
#      x y z
#    x 1.712580 0.000000 0.000000 
#    y 0.000000 1.724150 0.000000 
#    z 0.000000 0.000000 1.665750 
# 
# From -- ./inp_files/9667.got.cif
#   From: 2010.05.17/outbox.cif.g08.bks.cpg/sg43_5_cif.got.tgz:9667.got - 2010.06.03 19:21:55.
