data_PCOD9370522
_publ_section_title
;
Structure prediction by ZEFSAII (Michael W. Deem and Ramdas Pophale) SiO2 
 PCOD9370522
Probable space group: F D D 2
;
_chemical_formula_sum "Si O2"
_cell_formula_units_Z 88
_cell_length_a 12.807071
_cell_length_b 10.943609
_cell_length_c 26.454438
_cell_angle_alpha 90.000000
_cell_angle_beta 90.000000
_cell_angle_gamma 90.000000
_cell_volume 3707.737034
_symmetry_space_group_name_H-M "F D D 2"
_symmetry_group_IT_number 43
_symmetry_cell_setting 'orthorhombic'
loop_
_space_group_symop_operation_xyz
x,y,z
-x,-y,z
1/4-x,1/4+y,1/4+z
1/4+x,1/4-y,1/4+z
x,1/2+y,1/2+z
-x,1/2-y,1/2+z
1/4-x,3/4+y,3/4+z
1/4+x,3/4-y,3/4+z
1/2+x,y,1/2+z
1/2-x,-y,1/2+z
3/4-x,1/4+y,3/4+z
3/4+x,1/4-y,3/4+z
1/2+x,1/2+y,z
1/2-x,1/2-y,z
3/4-x,3/4+y,1/4+z
3/4+x,3/4-y,1/4+z
loop_
_atom_site_type_symbol
_atom_site_label
_atom_site_fract_x
_atom_site_fract_y
_atom_site_fract_z
Si Si1 0.393604 0.763836 0.421360
Si Si2 0.655086 0.590886 0.110432
Si Si3 0.250000 0.250000 0.841804
Si Si4 0.378642 0.266719 0.207109
Si Si5 0.186389 0.028223 0.782997
Si Si6 0.906981 0.906628 0.306501
O O1 0.481679 0.827277 0.386602
O O2 0.329416 0.686452 0.381052
O O3 0.429438 0.702631 0.472881
O O4 0.333884 0.880514 0.445560
O O5 0.597198 0.654283 0.157360
O O6 0.638289 0.679918 0.061964
O O7 0.630284 0.451835 0.095642
O O8 0.317564 0.341352 0.809280
O O9 0.250000 0.250000 0.217071
O O10 0.429831 0.331338 0.254907
O O11 0.302027 0.979066 0.794439
O O12 0.000000 0.000000 0.319386
#
# Coordination Sequence:
#
# PCOD9370522 Si02
#       6
#    16  16   8  16  16  16
#     4  11  24  48  71 108 143 191 255 294 365 462
#     4  11  22  43  78  97 137 194 241 297 361 435
#     4  12  28  46  68 110 148 188 238 316 378 426
#     4  10  19  43  74  97 136 191 249 284 352 459
#     4  12  25  48  74 101 149 195 240 308 371 452
#     4  12  24  42  69 111 146 180 245 316 371 433
#
# _framework density 23.734154
#
# number of rings (size 3 to 8) (size 9 to 14) (size 15 to 20)
#    0.000    0.727    7.273    1.636    0.000    2.909 
#    8.182    0.000    0.000    0.000    0.000    0.000 
#    0.000    0.000    0.000    0.000    0.000    0.000 
#
# Total GULP energy -122726.643360 kJ/mol
# GULP energy per Si atom -5578.483789 kJ/mol
# Density = 2.368013 g / cm^3
# Si number density = 23.734154 Si / 1000 Ang^3
#
#
#
# Elastic Constant Matrix: (Units=GPa)
#
#
# Indices 1 2 3 4 5 6 
#
# 1 47.7782 3.8768 37.2096 0.0000 0.0000 0.0000
# 2 3.8768 66.4654 50.3518 0.0000 0.0000 0.0000
# 3 37.2096 50.3518 119.7077 0.0000 0.0000 0.0000
# 4 0.0000 0.0000 0.0000 30.9392 0.0000 0.0000
# 5 0.0000 0.0000 0.0000 0.0000 14.1504 0.0000
# 6 0.0000 0.0000 0.0000 0.0000 0.0000 15.1322
#
#
#
# Elastic Compliance Matrix: (Units=1/GPa)
#
#
# Indices 1 2 3 4 5 6 
#
# 1 0.030165 0.007843 -0.012675 0.000000 0.000000 0.000000
# 2 0.007843 0.024121 -0.012584 0.000000 0.000000 0.000000
# 3 -0.012675 -0.012584 0.017587 0.000000 0.000000 0.000000
# 4 0.000000 0.000000 0.000000 0.032321 0.000000 0.000000
# 5 0.000000 0.000000 0.000000 0.000000 0.070669 0.000000
# 6 0.000000 0.000000 0.000000 0.000000 0.000000 0.066084
#
#
# Mechanical properties :
#
#
# Convention : Reuss Voigt Hill
#
# Bulk Modulus (GPa) = 26.99751 46.31420 36.65585
# Shear Modulus (GPa) = 17.35347 21.54524 19.44935
#
# Velocity S-wave (km/s) = 2.70693 3.01620 2.86574
# Velocity P-wave (km/s) = 4.60105 5.62903 5.14080
#
# Compressibility (1/GPa) = 0.03704046
#
# Stress axis : x y z
#
# Youngs Moduli (GPa) = 33.15079 41.45785 56.86135
#
# Poissons Ratio (x) = -0.32515 0.72074
# Poissons Ratio (y) = -0.26000 0.71552
# Poissons Ratio (z) = 0.42020 0.52169
#
# Static dielectric constant tensor:
#      x y z
#    x 2.028470 0.000000 0.000000 
#    y 0.000000 1.930030 0.000000 
#    z 0.000000 0.000000 1.912320 
# 
# From -- ./inp_files/21671.got.cif
#   From: 2010.05.17/outbox.cif.g08.bks.cpg/sg43_11_cif.got.tgz:21671.got - 2010.06.03 19:21:55.
