data_PCOD9370160
_publ_section_title
;
Structure prediction by ZEFSAII (Michael W. Deem and Ramdas Pophale) SiO2 
 PCOD9370160
Probable space group: F D D 2
;
_chemical_formula_sum "Si O2"
_cell_formula_units_Z 96
_cell_length_a 24.465210
_cell_length_b 20.225976
_cell_length_c 7.679557
_cell_angle_alpha 90.000000
_cell_angle_beta 90.000000
_cell_angle_gamma 90.000000
_cell_volume 3800.096311
_symmetry_space_group_name_H-M "F D D 2"
_symmetry_group_IT_number 43
_symmetry_cell_setting 'orthorhombic'
loop_
_space_group_symop_operation_xyz
x,y,z
-x,-y,z
1/4-x,1/4+y,1/4+z
1/4+x,1/4-y,1/4+z
x,1/2+y,1/2+z
-x,1/2-y,1/2+z
1/4-x,3/4+y,3/4+z
1/4+x,3/4-y,3/4+z
1/2+x,y,1/2+z
1/2-x,-y,1/2+z
3/4-x,1/4+y,3/4+z
3/4+x,1/4-y,3/4+z
1/2+x,1/2+y,z
1/2-x,1/2-y,z
3/4-x,3/4+y,1/4+z
3/4+x,3/4-y,1/4+z
loop_
_atom_site_type_symbol
_atom_site_label
_atom_site_fract_x
_atom_site_fract_y
_atom_site_fract_z
Si Si1 0.887601 0.620893 0.561730
Si Si2 0.469426 0.208648 0.111117
Si Si3 0.246784 0.677614 0.706270
Si Si4 0.843494 0.073874 0.688612
Si Si5 0.540291 0.941344 0.063503
Si Si6 0.918638 0.751448 0.486208
O O1 0.868173 0.597627 0.372531
O O2 0.877131 0.698426 0.566425
O O3 0.858046 0.570895 0.688337
O O4 0.953152 0.612384 0.570700
O O5 0.435041 0.255156 0.984492
O O6 0.474245 0.135417 0.029510
O O7 0.441913 0.218104 0.303064
O O8 0.530572 0.235915 0.111167
O O9 0.250000 0.750000 0.792619
O O10 0.299344 0.632836 0.658260
O O11 0.219989 0.694213 0.521299
O O12 0.893344 0.060811 0.556593
O O13 0.500000 0.000000 0.992649
#
# Coordination Sequence:
#
# PCOD9370160 Si02
#       6
#    16  16  16  16  16  16
#     4  10  20  37  62 100 128 173 224 286 337 427
#     4  11  21  41  66  94 130 175 225 281 341 425
#     4  10  18  32  59  94 124 156 220 275 332 396
#     4  10  19  34  64  92 126 168 221 277 338 395
#     4  10  22  35  58  92 127 165 215 274 336 408
#     4  11  22  41  70  96 139 176 238 282 356 414
#
# _framework density 25.262519000000001
#
# number of rings (size 3 to 8) (size 9 to 14) (size 15 to 20)
#    0.000    1.667    5.000    1.000    7.000    0.000 
#    0.000    3.333    3.667    0.000    0.000    0.000 
#    0.000    0.000    0.000    0.000    0.000    0.000 
#
# Total GULP energy -133984.685461 kJ/mol
# GULP energy per Si atom -5582.695228 kJ/mol
# Density = 2.520502 g / cm^3
# Si number density = 25.262519 Si / 1000 Ang^3
#
#
#
# Elastic Constant Matrix: (Units=GPa)
#
#
# Indices 1 2 3 4 5 6 
#
# 1 180.7919 158.9438 34.3599 0.0010 0.0003 0.0000
# 2 158.9438 371.8841 59.5640 0.0018 0.0009 0.0002
# 3 34.3599 59.5640 76.9527 0.0010 0.0003 0.0001
# 4 0.0010 0.0018 0.0010 7.9754 0.0002 0.0002
# 5 0.0003 0.0009 0.0003 0.0002 19.8506 -0.0003
# 6 0.0000 0.0002 0.0001 0.0002 -0.0003 49.7352
#
#
#
# Elastic Compliance Matrix: (Units=1/GPa)
#
#
# Indices 1 2 3 4 5 6 
#
# 1 0.008954 -0.003638 -0.001182 0.000000 0.000000 0.000000
# 2 -0.003638 0.004547 -0.001896 0.000000 0.000000 0.000000
# 3 -0.001182 -0.001896 0.014990 -0.000001 0.000000 0.000000
# 4 0.000000 0.000000 -0.000001 0.125385 -0.000002 0.000000
# 5 0.000000 0.000000 0.000000 -0.000002 0.050376 0.000000
# 6 0.000000 0.000000 0.000000 0.000000 0.000000 0.020106
#
#
# Mechanical properties :
#
#
# Convention : Reuss Voigt Hill
#
# Bulk Modulus (GPa) = 66.39949 126.15155 96.27552
# Shear Modulus (GPa) = 20.59219 40.62963 30.61091
#
# Velocity S-wave (km/s) = 2.85814 4.01471 3.48474
# Velocity P-wave (km/s) = 6.10187 8.45785 7.37455
#
# Compressibility (1/GPa) = 0.01506036
#
# Stress axis : x y z
#
# Youngs Moduli (GPa) = 111.68346 219.91052 66.71027
#
# Poissons Ratio (x) = 0.79993 0.07888
# Poissons Ratio (y) = 0.40625 0.12646
# Poissons Ratio (z) = 0.13205 0.41686
#
# Static dielectric constant tensor:
#      x y z
#    x 2.070920 0.000000 0.000000 
#    y 0.000000 2.147330 0.000000 
#    z 0.000000 0.000000 1.872870 
# 
# From -- ./inp_files/6750.got.cif
#   From: 2010.05.17/outbox.cif.g08.bks.cpg/sg43_4_cif.got.tgz:6750.got - 2010.06.03 19:21:55.
