data_PCOD9370898
_publ_section_title
;
Structure prediction by ZEFSAII (Michael W. Deem and Ramdas Pophale) SiO2 
 PCOD9370898
Probable space group: F D D 2
;
_chemical_formula_sum "Si O2"
_cell_formula_units_Z 104
_cell_length_a 31.813047
_cell_length_b 18.697172
_cell_length_c 8.565583
_cell_angle_alpha 90.000000
_cell_angle_beta 90.000000
_cell_angle_gamma 90.000000
_cell_volume 5094.928786
_symmetry_space_group_name_H-M "F D D 2"
_symmetry_group_IT_number 43
_symmetry_cell_setting 'orthorhombic'
loop_
_space_group_symop_operation_xyz
x,y,z
-x,-y,z
1/4-x,1/4+y,1/4+z
1/4+x,1/4-y,1/4+z
x,1/2+y,1/2+z
-x,1/2-y,1/2+z
1/4-x,3/4+y,3/4+z
1/4+x,3/4-y,3/4+z
1/2+x,y,1/2+z
1/2-x,-y,1/2+z
3/4-x,1/4+y,3/4+z
3/4+x,1/4-y,3/4+z
1/2+x,1/2+y,z
1/2-x,1/2-y,z
3/4-x,3/4+y,1/4+z
3/4+x,3/4-y,1/4+z
loop_
_atom_site_type_symbol
_atom_site_label
_atom_site_fract_x
_atom_site_fract_y
_atom_site_fract_z
Si Si1 0.500000 0.000000 0.871881
Si Si2 0.830769 0.176076 0.179348
Si Si3 0.137449 0.951527 0.777963
Si Si4 0.204770 0.962965 0.010191
Si Si5 0.368831 0.389988 0.733824
Si Si6 0.344833 0.424926 0.221205
Si Si7 0.289230 0.393467 0.521290
O O1 0.514951 0.932074 0.772001
O O2 0.458626 0.976554 0.966675
O O3 0.811808 0.107724 0.094629
O O4 0.853292 0.144142 0.329457
O O5 0.864495 0.210619 0.058173
O O6 0.130121 0.924022 0.601383
O O7 0.122106 0.032134 0.808737
O O8 0.185766 0.955069 0.836107
O O9 0.112602 0.894220 0.881890
O O10 0.254852 0.957059 0.023254
O O11 0.181893 0.027319 0.101362
O O12 0.320967 0.391716 0.669056
O O13 0.315874 0.402115 0.365096
#
# Coordination Sequence:
#
# PCOD9370898 Si02
#       7
#     8  16  16  16  16  16  16
#     4  10  20  42  62  98 124 164 228 280 330 398
#     4   9  22  37  65  87 123 168 214 263 332 399
#     4  11  23  39  62  93 129 167 220 276 327 401
#     4  10  22  41  60  95 124 171 215 272 332 402
#     4  11  23  41  64  96 128 176 220 274 340 403
#     4  10  22  39  64  89 129 173 215 270 336 406
#     4  10  24  39  68  90 131 174 223 275 334 416
#
# _framework density 20.412454
#
# number of rings (size 3 to 8) (size 9 to 14) (size 15 to 20)
#    0.000    1.846    1.538    0.923   12.923    1.231 
#    0.000    4.615    0.000    1.846    0.000    0.000 
#    0.000    0.000    0.000    0.000    0.000    0.000 
#
# Total GULP energy -144975.156127 kJ/mol
# GULP energy per Si atom -5575.967543 kJ/mol
# Density = 2.036599 g / cm^3
# Si number density = 20.412454 Si / 1000 Ang^3
#
#
#
# Elastic Constant Matrix: (Units=GPa)
#
#
# Indices 1 2 3 4 5 6 
#
# 1 112.1542 21.9134 38.6002 0.0000 0.0000 0.0000
# 2 21.9134 72.9335 10.6994 0.0000 0.0000 0.0000
# 3 38.6002 10.6994 80.9990 0.0000 0.0000 0.0000
# 4 0.0000 0.0000 0.0000 28.1148 0.0000 0.0000
# 5 0.0000 0.0000 0.0000 0.0000 18.8513 0.0000
# 6 0.0000 0.0000 0.0000 0.0000 0.0000 29.4829
#
#
#
# Elastic Compliance Matrix: (Units=1/GPa)
#
#
# Indices 1 2 3 4 5 6 
#
# 1 0.011135 -0.002618 -0.004961 0.000000 0.000000 0.000000
# 2 -0.002618 0.014598 -0.000681 0.000000 0.000000 0.000000
# 3 -0.004961 -0.000681 0.014800 0.000000 0.000000 0.000000
# 4 0.000000 0.000000 0.000000 0.035569 0.000000 0.000000
# 5 0.000000 0.000000 0.000000 0.000000 0.053047 0.000000
# 6 0.000000 0.000000 0.000000 0.000000 0.000000 0.033918
#
#
# Mechanical properties :
#
#
# Convention : Reuss Voigt Hill
#
# Bulk Modulus (GPa) = 41.64243 45.39031 43.51637
# Shear Modulus (GPa) = 26.65404 28.28136 27.46770
#
# Velocity S-wave (km/s) = 3.61747 3.72626 3.67227
# Velocity P-wave (km/s) = 6.15572 6.38735 6.27260
#
# Compressibility (1/GPa) = 0.02401397
#
# Stress axis : x y z
#
# Youngs Moduli (GPa) = 89.80603 68.50469 67.56870
#
# Poissons Ratio (x) = 0.17934 0.33518
# Poissons Ratio (y) = 0.23510 0.04599
# Poissons Ratio (z) = 0.44550 0.04663
#
# Static dielectric constant tensor:
#      x y z
#    x 1.785180 0.000000 0.000000 
#    y 0.000000 1.745020 0.000000 
#    z 0.000000 0.000000 1.738560 
# 
# From -- ./inp_files/3461.got.cif
#   From: 2010.05.17/outbox.cif.g08.bks.cpg/sg43_2_cif.got.tgz:3461.got - 2010.06.03 19:21:55.
