data_PCOD9370890
_publ_section_title
;
Structure prediction by ZEFSAII (Michael W. Deem and Ramdas Pophale) SiO2 
 PCOD9370890
Probable space group: F D D 2
;
_chemical_formula_sum "Si O2"
_cell_formula_units_Z 120
_cell_length_a 20.481471
_cell_length_b 12.163827
_cell_length_c 21.064450
_cell_angle_alpha 90.000000
_cell_angle_beta 90.000000
_cell_angle_gamma 90.000000
_cell_volume 5247.851095
_symmetry_space_group_name_H-M "F D D 2"
_symmetry_group_IT_number 43
_symmetry_cell_setting 'orthorhombic'
loop_
_space_group_symop_operation_xyz
x,y,z
-x,-y,z
1/4-x,1/4+y,1/4+z
1/4+x,1/4-y,1/4+z
x,1/2+y,1/2+z
-x,1/2-y,1/2+z
1/4-x,3/4+y,3/4+z
1/4+x,3/4-y,3/4+z
1/2+x,y,1/2+z
1/2-x,-y,1/2+z
3/4-x,1/4+y,3/4+z
3/4+x,1/4-y,3/4+z
1/2+x,1/2+y,z
1/2-x,1/2-y,z
3/4-x,3/4+y,1/4+z
3/4+x,3/4-y,1/4+z
loop_
_atom_site_type_symbol
_atom_site_label
_atom_site_fract_x
_atom_site_fract_y
_atom_site_fract_z
Si Si1 0.694823 0.070948 0.248180
Si Si2 0.452248 0.399436 0.420230
Si Si3 0.288822 0.591908 0.367268
Si Si4 0.138201 0.537967 0.026738
Si Si5 0.866547 0.866748 0.044574
Si Si6 0.290496 0.586172 0.032927
Si Si7 0.000000 0.500000 0.232268
Si Si8 0.723507 0.863947 0.393322
O O1 0.745719 0.058605 0.190079
O O2 0.738040 0.104883 0.309373
O O3 0.638453 0.165359 0.256648
O O4 0.666995 0.948636 0.250996
O O5 0.500000 0.500000 0.439407
O O6 0.389669 0.395825 0.465203
O O7 0.441249 0.403490 0.345860
O O8 0.353135 0.651243 0.337323
O O9 0.270318 0.655403 0.431614
O O10 0.275792 0.462712 0.382404
O O11 0.215450 0.543019 0.037568
O O12 0.904020 0.859944 0.111061
O O13 0.842993 0.988622 0.029867
O O14 0.803444 0.795488 0.029998
O O15 0.290845 0.649880 0.967398
O O16 0.750000 0.750000 0.365830
#
# Coordination Sequence:
#
# PCOD9370890 Si02
#       8
#    16  16  16  16  16  16   8  16
#     4   9  19  40  68 102 146 178 219 311 362 430
#     4   9  21  41  65 104 136 176 244 301 354 416
#     4  10  20  41  74 107 140 183 234 300 374 419
#     4  10  21  39  73 109 139 172 237 304 363 432
#     4  11  26  44  70 105 149 187 242 296 370 437
#     4  12  25  43  70 102 135 198 236 291 361 434
#     4  12  20  42  76 108 136 184 242 302 362 436
#     4  11  27  52  71  98 151 204 246 295 368 439
#
# _framework density 22.866502000000001
#
# number of rings (size 3 to 8) (size 9 to 14) (size 15 to 20)
#    0.000    1.600    2.667    2.000    3.733    1.067 
#    4.800    1.333    0.000    0.000    0.000    0.000 
#    0.000    0.000    0.000    0.000    0.000    0.000 
#
# Total GULP energy -167154.718501 kJ/mol
# GULP energy per Si atom -5571.823950 kJ/mol
# Density = 2.281446 g / cm^3
# Si number density = 22.866502 Si / 1000 Ang^3
#
#
#
# Elastic Constant Matrix: (Units=GPa)
#
#
# Indices 1 2 3 4 5 6 
#
# 1 85.9551 25.5104 50.7418 0.0000 0.0000 0.0000
# 2 25.5104 93.6698 16.2717 0.0000 0.0000 0.0000
# 3 50.7418 16.2717 94.7008 0.0000 0.0000 0.0000
# 4 0.0000 0.0000 0.0000 46.1804 0.0000 0.0000
# 5 0.0000 0.0000 0.0000 0.0000 39.6068 0.0000
# 6 0.0000 0.0000 0.0000 0.0000 0.0000 40.0384
#
#
#
# Elastic Compliance Matrix: (Units=1/GPa)
#
#
# Indices 1 2 3 4 5 6 
#
# 1 0.017965 -0.003320 -0.009055 0.000000 0.000000 0.000000
# 2 -0.003320 0.011618 -0.000218 0.000000 0.000000 0.000000
# 3 -0.009055 -0.000218 0.015449 0.000000 0.000000 0.000000
# 4 0.000000 0.000000 0.000000 0.021654 0.000000 0.000000
# 5 0.000000 0.000000 0.000000 0.000000 0.025248 0.000000
# 6 0.000000 0.000000 0.000000 0.000000 0.000000 0.024976
#
#
# Mechanical properties :
#
#
# Convention : Reuss Voigt Hill
#
# Bulk Modulus (GPa) = 50.38678 51.04151 50.71415
# Shear Modulus (GPa) = 33.62242 37.28525 35.45383
#
# Velocity S-wave (km/s) = 3.83871 4.04240 3.94187
# Velocity P-wave (km/s) = 6.45993 6.64515 6.55319
#
# Compressibility (1/GPa) = 0.01984647
#
# Stress axis : x y z
#
# Youngs Moduli (GPa) = 55.66423 86.07598 64.72936
#
# Poissons Ratio (x) = 0.28573 0.58615
# Poissons Ratio (y) = 0.18478 0.01408
# Poissons Ratio (z) = 0.50406 0.01872
#
# Static dielectric constant tensor:
#      x y z
#    x 1.604460 0.000000 0.000000 
#    y 0.000000 1.281280 0.000000 
#    z 0.000000 0.000000 1.863450 
# 
# From -- ./inp_files/22459.got.cif
#   From: 2010.05.17/outbox.cif.g08.bks.cpg/sg43_12_cif.got.tgz:22459.got - 2010.06.03 19:21:55.
