data_PCOD9370445
_publ_section_title
;
Structure prediction by ZEFSAII (Michael W. Deem and Ramdas Pophale) SiO2 
 PCOD9370445
Probable space group: F D D 2
;
_chemical_formula_sum "Si O2"
_cell_formula_units_Z 64
_cell_length_a 12.266512
_cell_length_b 8.170297
_cell_length_c 30.235480
_cell_angle_alpha 90.000000
_cell_angle_beta 90.000000
_cell_angle_gamma 90.000000
_cell_volume 3030.231438
_symmetry_space_group_name_H-M "F D D 2"
_symmetry_group_IT_number 43
_symmetry_cell_setting 'orthorhombic'
loop_
_space_group_symop_operation_xyz
x,y,z
-x,-y,z
1/4-x,1/4+y,1/4+z
1/4+x,1/4-y,1/4+z
x,1/2+y,1/2+z
-x,1/2-y,1/2+z
1/4-x,3/4+y,3/4+z
1/4+x,3/4-y,3/4+z
1/2+x,y,1/2+z
1/2-x,-y,1/2+z
3/4-x,1/4+y,3/4+z
3/4+x,1/4-y,3/4+z
1/2+x,1/2+y,z
1/2-x,1/2-y,z
3/4-x,3/4+y,1/4+z
3/4+x,3/4-y,1/4+z
loop_
_atom_site_type_symbol
_atom_site_label
_atom_site_fract_x
_atom_site_fract_y
_atom_site_fract_z
Si Si1 0.124090 0.451864 0.512490
Si Si2 0.667826 0.936154 0.121260
Si Si3 0.156073 0.877826 0.913226
Si Si4 0.500000 0.000000 0.836496
Si Si5 0.750000 0.750000 0.039631
O O1 0.141157 0.363182 0.465910
O O2 0.174289 0.356058 0.553815
O O3 0.187617 0.621823 0.510386
O O4 0.000000 0.500000 0.519660
O O5 0.586306 0.821128 0.149368
O O6 0.789729 0.916388 0.141583
O O7 0.671008 0.850861 0.072810
O O8 0.668974 0.130919 0.113827
O O9 0.250000 0.750000 0.899041
#
# Coordination Sequence:
#
# PCOD9370445 Si02
#       5
#    16  16  16   8   8
#     4  11  20  40  67  91 125 167 212 271 328 385
#     4   9  20  40  58  92 128 163 215 268 320 396
#     4  10  19  38  65  90 127 173 213 265 329 386
#     4  10  22  40  66  96 130 166 218 278 328 394
#     4   8  20  36  60  90 122 156 208 262 314 388
#
# _framework density 21.120498999999999
#
# number of rings (size 3 to 8) (size 9 to 14) (size 15 to 20)
#    0.000    2.500    3.750    0.000    0.000    9.000 
#    4.500   10.000    0.000    0.000    0.000    0.000 
#    0.000    0.000    0.000    0.000    0.000    0.000 
#
# Total GULP energy -89145.008159 kJ/mol
# GULP energy per Si atom -5571.563010 kJ/mol
# Density = 2.107243 g / cm^3
# Si number density = 21.120499 Si / 1000 Ang^3
#
#
#
# Elastic Constant Matrix: (Units=GPa)
#
#
# Indices 1 2 3 4 5 6 
#
# 1 106.9735 52.0563 25.9402 0.0000 0.0000 0.0000
# 2 52.0563 136.9559 20.3626 0.0000 0.0000 0.0000
# 3 25.9402 20.3626 65.0989 0.0000 0.0000 0.0000
# 4 0.0000 0.0000 0.0000 29.6176 0.0000 0.0000
# 5 0.0000 0.0000 0.0000 0.0000 18.4534 0.0000
# 6 0.0000 0.0000 0.0000 0.0000 0.0000 44.0247
#
#
#
# Elastic Compliance Matrix: (Units=1/GPa)
#
#
# Indices 1 2 3 4 5 6 
#
# 1 0.012217 -0.004111 -0.003582 0.000000 0.000000 0.000000
# 2 -0.004111 0.009041 -0.001190 0.000000 0.000000 0.000000
# 3 -0.003582 -0.001190 0.017161 0.000000 0.000000 0.000000
# 4 0.000000 0.000000 0.000000 0.033764 0.000000 0.000000
# 5 0.000000 0.000000 0.000000 0.000000 0.054191 0.000000
# 6 0.000000 0.000000 0.000000 0.000000 0.000000 0.022715
#
#
# Mechanical properties :
#
#
# Convention : Reuss Voigt Hill
#
# Bulk Modulus (GPa) = 48.41973 56.19407 52.30690
# Shear Modulus (GPa) = 28.77874 32.46374 30.62124
#
# Velocity S-wave (km/s) = 3.69534 3.92480 3.81180
# Velocity P-wave (km/s) = 6.41737 6.87044 6.64777
#
# Compressibility (1/GPa) = 0.02065274
#
# Stress axis : x y z
#
# Youngs Moduli (GPa) = 81.85036 110.60532 58.27198
#
# Poissons Ratio (x) = 0.45472 0.20875
# Poissons Ratio (y) = 0.33650 0.06933
# Poissons Ratio (z) = 0.29322 0.13160
#
# Static dielectric constant tensor:
#      x y z
#    x 1.763470 0.000000 0.000000 
#    y 0.000000 1.871080 0.000000 
#    z 0.000000 0.000000 1.725580 
# 
# From -- ./inp_files/27674.got.cif
#   From: 2010.05.17/outbox.cif.g08.bks.cpg/sg43_14_cif.got.tgz:27674.got - 2010.06.03 19:21:55.
