data_PCOD9370216
_publ_section_title
;
Structure prediction by ZEFSAII (Michael W. Deem and Ramdas Pophale) SiO2 
 PCOD9370216
Probable space group: F D D 2
;
_chemical_formula_sum "Si O2"
_cell_formula_units_Z 104
_cell_length_a 30.685851
_cell_length_b 14.994065
_cell_length_c 11.905910
_cell_angle_alpha 90.000000
_cell_angle_beta 90.000000
_cell_angle_gamma 90.000000
_cell_volume 5477.976394
_symmetry_space_group_name_H-M "F D D 2"
_symmetry_group_IT_number 43
_symmetry_cell_setting 'orthorhombic'
loop_
_space_group_symop_operation_xyz
x,y,z
-x,-y,z
1/4-x,1/4+y,1/4+z
1/4+x,1/4-y,1/4+z
x,1/2+y,1/2+z
-x,1/2-y,1/2+z
1/4-x,3/4+y,3/4+z
1/4+x,3/4-y,3/4+z
1/2+x,y,1/2+z
1/2-x,-y,1/2+z
3/4-x,1/4+y,3/4+z
3/4+x,1/4-y,3/4+z
1/2+x,1/2+y,z
1/2-x,1/2-y,z
3/4-x,3/4+y,1/4+z
3/4+x,3/4-y,1/4+z
loop_
_atom_site_type_symbol
_atom_site_label
_atom_site_fract_x
_atom_site_fract_y
_atom_site_fract_z
Si Si1 0.661844 0.886293 0.237390
Si Si2 0.653540 0.762684 0.855534
Si Si3 0.236729 0.429204 0.074845
Si Si4 0.126270 0.689102 0.711648
Si Si5 0.407818 0.291636 0.672746
Si Si6 0.174826 0.004766 0.167326
Si Si7 0.500000 0.500000 0.682518
O O1 0.708255 0.906141 0.183693
O O2 0.652303 0.782064 0.215526
O O3 0.659203 0.925976 0.362907
O O4 0.622903 0.936493 0.171364
O O5 0.631406 0.761454 0.732434
O O6 0.645619 0.853658 0.924659
O O7 0.705466 0.749142 0.860525
O O8 0.277739 0.486352 0.112961
O O9 0.201480 0.476255 0.993922
O O10 0.250092 0.338471 0.010066
O O11 0.156970 0.606095 0.680565
O O12 0.103353 0.693964 0.832880
O O13 0.419996 0.278223 0.543720
#
# Coordination Sequence:
#
# PCOD9370216 Si02
#       7
#    16  16  16  16  16  16   8
#     4  10  19  36  58  90 115 146 198 244 297 339
#     4  10  20  37  60  84 118 152 192 246 291 348
#     4  10  21  33  59  85 111 147 189 251 281 347
#     4  10  21  35  60  83 113 156 190 238 295 351
#     4  10  22  39  56  85 118 157 193 236 300 348
#     4  11  22  38  58  81 119 157 193 239 292 362
#     4  10  18  36  58  88 114 144 200 240 298 342
#
# _framework density 18.985112999999998
#
# number of rings (size 3 to 8) (size 9 to 14) (size 15 to 20)
#    0.000    1.846    0.000    6.462    2.154    0.000 
#    8.308    0.000    0.000    0.000    0.000    0.000 
#    0.000    0.000    0.000    0.000    0.000    0.000 
#
# Total GULP energy -144898.198597 kJ/mol
# GULP energy per Si atom -5573.007638 kJ/mol
# Density = 1.894190 g / cm^3
# Si number density = 18.985113 Si / 1000 Ang^3
#
#
#
# Elastic Constant Matrix: (Units=GPa)
#
#
# Indices 1 2 3 4 5 6 
#
# 1 99.9064 16.6543 35.7913 0.0000 0.0000 0.0000
# 2 16.6543 42.9473 15.3075 0.0000 0.0000 0.0000
# 3 35.7913 15.3075 123.7001 0.0000 0.0000 0.0000
# 4 0.0000 0.0000 0.0000 24.5522 0.0000 0.0000
# 5 0.0000 0.0000 0.0000 0.0000 23.6762 0.0000
# 6 0.0000 0.0000 0.0000 0.0000 0.0000 13.3316
#
#
#
# Elastic Compliance Matrix: (Units=1/GPa)
#
#
# Indices 1 2 3 4 5 6 
#
# 1 0.011640 -0.003466 -0.002939 0.000000 0.000000 0.000000
# 2 -0.003466 0.025391 -0.002139 0.000000 0.000000 0.000000
# 3 -0.002939 -0.002139 0.009199 0.000000 0.000000 0.000000
# 4 0.000000 0.000000 0.000000 0.040730 0.000000 0.000000
# 5 0.000000 0.000000 0.000000 0.000000 0.042237 0.000000
# 6 0.000000 0.000000 0.000000 0.000000 0.000000 0.075010
#
#
# Mechanical properties :
#
#
# Convention : Reuss Voigt Hill
#
# Bulk Modulus (GPa) = 34.31549 44.67332 39.49441
# Shear Modulus (GPa) = 21.64420 25.56537 23.60479
#
# Velocity S-wave (km/s) = 3.38014 3.67359 3.52992
# Velocity P-wave (km/s) = 5.77477 6.44790 6.12060
#
# Compressibility (1/GPa) = 0.02914136
#
# Stress axis : x y z
#
# Youngs Moduli (GPa) = 85.91001 39.38413 108.70584
#
# Poissons Ratio (x) = 0.13652 0.31949
# Poissons Ratio (y) = 0.29779 0.23253
# Poissons Ratio (z) = 0.25249 0.08425
#
# Static dielectric constant tensor:
#      x y z
#    x 1.643710 0.000000 0.000000 
#    y 0.000000 1.692700 0.000000 
#    z 0.000000 0.000000 1.705430 
# 
# From -- ./inp_files/6870.got.cif
#   From: 2010.05.17/outbox.cif.g08.bks.cpg/sg43_4_cif.got.tgz:6870.got - 2010.06.03 19:21:55.
