data_PCOD9370767
_publ_section_title
;
Structure prediction by ZEFSAII (Michael W. Deem and Ramdas Pophale) SiO2 
 PCOD9370767
Probable space group: F D D 2
;
_chemical_formula_sum "Si O2"
_cell_formula_units_Z 88
_cell_length_a 14.474696
_cell_length_b 11.108205
_cell_length_c 24.138974
_cell_angle_alpha 90.000000
_cell_angle_beta 90.000000
_cell_angle_gamma 90.000000
_cell_volume 3881.254708
_symmetry_space_group_name_H-M "F D D 2"
_symmetry_group_IT_number 43
_symmetry_cell_setting 'orthorhombic'
loop_
_space_group_symop_operation_xyz
x,y,z
-x,-y,z
1/4-x,1/4+y,1/4+z
1/4+x,1/4-y,1/4+z
x,1/2+y,1/2+z
-x,1/2-y,1/2+z
1/4-x,3/4+y,3/4+z
1/4+x,3/4-y,3/4+z
1/2+x,y,1/2+z
1/2-x,-y,1/2+z
3/4-x,1/4+y,3/4+z
3/4+x,1/4-y,3/4+z
1/2+x,1/2+y,z
1/2-x,1/2-y,z
3/4-x,3/4+y,1/4+z
3/4+x,3/4-y,1/4+z
loop_
_atom_site_type_symbol
_atom_site_label
_atom_site_fract_x
_atom_site_fract_y
_atom_site_fract_z
Si Si1 0.829074 0.502794 0.338820
Si Si2 0.897831 0.628598 0.721537
Si Si3 0.345894 0.583881 0.392513
Si Si4 0.544542 0.256890 0.468660
Si Si5 0.750000 0.750000 0.377115
Si Si6 0.000000 0.500000 0.422371
Si Si7 0.750000 0.750000 0.564865
O O1 0.750380 0.409711 0.360457
O O2 0.854358 0.486723 0.274763
O O3 0.781691 0.634693 0.343304
O O4 0.911718 0.502694 0.382103
O O5 0.917508 0.760331 0.699116
O O6 0.791601 0.596042 0.732006
O O7 0.966542 0.602894 0.772416
O O8 0.921753 0.540963 0.670280
O O9 0.402222 0.699496 0.413311
O O10 0.412890 0.498742 0.355517
O O11 0.507593 0.121997 0.458191
#
# Coordination Sequence:
#
# PCOD9370767 Si02
#       7
#    16  16  16  16   8   8   8
#     4  11  25  45  72  99 136 190 225 287 352 399
#     4  10  20  39  70 102 129 172 233 287 327 401
#     4  11  24  42  70 106 137 176 238 288 334 413
#     4  12  24  46  68 102 144 181 232 277 356 419
#     4   9  19  42  70  96 126 174 245 273 314 416
#     4  12  29  48  67 102 145 184 227 290 348 422
#     4  11  20  38  71 108 133 178 226 289 340 400
#
# _framework density 22.673081
#
# number of rings (size 3 to 8) (size 9 to 14) (size 15 to 20)
#    0.000    1.091    5.455    0.545    0.000    3.636 
#    6.545    0.000    0.000    0.000    0.000    0.000 
#    0.000    0.000    0.000    0.000    0.000    0.000 
#
# Total GULP energy -122784.442441 kJ/mol
# GULP energy per Si atom -5581.111020 kJ/mol
# Density = 2.262148 g / cm^3
# Si number density = 22.673081 Si / 1000 Ang^3
#
#
#
# Elastic Constant Matrix: (Units=GPa)
#
#
# Indices 1 2 3 4 5 6 
#
# 1 80.2411 10.9314 32.3664 0.0000 0.0000 0.0000
# 2 10.9314 63.9363 23.6188 0.0000 0.0000 0.0000
# 3 32.3664 23.6188 119.8925 0.0000 0.0000 0.0000
# 4 0.0000 0.0000 0.0000 15.2620 0.0000 0.0000
# 5 0.0000 0.0000 0.0000 0.0000 -14.4300 0.0000
# 6 0.0000 0.0000 0.0000 0.0000 0.0000 26.2580
#
#
#
# Elastic Compliance Matrix: (Units=1/GPa)
#
#
# Indices 1 2 3 4 5 6 
#
# 1 0.014054 -0.001080 -0.003581 0.000000 0.000000 0.000000
# 2 -0.001080 0.016951 -0.003048 0.000000 0.000000 0.000000
# 3 -0.003581 -0.003048 0.009908 0.000000 0.000000 0.000000
# 4 0.000000 0.000000 0.000000 0.065522 0.000000 0.000000
# 5 0.000000 0.000000 0.000000 0.000000 -0.069300 0.000000
# 6 0.000000 0.000000 0.000000 0.000000 0.000000 0.038084
#
#
# Mechanical properties :
#
#
# Convention : Reuss Voigt Hill
#
# Bulk Modulus (GPa) = 39.22314 44.21145 41.71730
# Shear Modulus (GPa) = 50.43593 18.56155 34.49874
#
# Velocity S-wave (km/s) = 4.72156 2.86433 3.90497
# Velocity P-wave (km/s) = 6.86011 5.52096 6.22664
#
# Compressibility (1/GPa) = 0.02549515
#
# Stress axis : x y z
#
# Youngs Moduli (GPa) = 71.15337 58.99324 100.92803
#
# Poissons Ratio (x) = 0.06371 0.36146
# Poissons Ratio (y) = 0.07684 0.30761
# Poissons Ratio (z) = 0.25482 0.17980
#
# Static dielectric constant tensor:
#      x y z
#    x 1.856810 0.000000 0.000000 
#    y 0.000000 1.935550 0.000000 
#    z 0.000000 0.000000 1.837150 
# 
# From -- ./inp_files/17078.got.cif
#   From: 2010.05.17/outbox.cif.g08.bks.cpg/sg43_9_cif.got.tgz:17078.got - 2010.06.03 19:21:55.
