data_PCOD9370120
_publ_section_title
;
Structure prediction by ZEFSAII (Michael W. Deem and Ramdas Pophale) SiO2 
 PCOD9370120
Probable space group: F D D 2
;
_chemical_formula_sum "Si O2"
_cell_formula_units_Z 120
_cell_length_a 10.614976
_cell_length_b 16.556787
_cell_length_c 33.706323
_cell_angle_alpha 90.000000
_cell_angle_beta 90.000000
_cell_angle_gamma 90.000000
_cell_volume 5923.882783
_symmetry_space_group_name_H-M "F D D 2"
_symmetry_group_IT_number 43
_symmetry_cell_setting 'orthorhombic'
loop_
_space_group_symop_operation_xyz
x,y,z
-x,-y,z
1/4-x,1/4+y,1/4+z
1/4+x,1/4-y,1/4+z
x,1/2+y,1/2+z
-x,1/2-y,1/2+z
1/4-x,3/4+y,3/4+z
1/4+x,3/4-y,3/4+z
1/2+x,y,1/2+z
1/2-x,-y,1/2+z
3/4-x,1/4+y,3/4+z
3/4+x,1/4-y,3/4+z
1/2+x,1/2+y,z
1/2-x,1/2-y,z
3/4-x,3/4+y,1/4+z
3/4+x,3/4-y,1/4+z
loop_
_atom_site_type_symbol
_atom_site_label
_atom_site_fract_x
_atom_site_fract_y
_atom_site_fract_z
Si Si1 0.790233 0.163090 0.257460
Si Si2 0.930976 0.788314 0.235890
Si Si3 0.923101 0.871265 0.007099
Si Si4 0.135398 0.962463 0.676198
Si Si5 0.680204 0.048150 0.402656
Si Si6 0.789064 0.368353 0.167628
Si Si7 0.000000 0.000000 0.353167
Si Si8 0.016473 0.766240 0.564835
O O1 0.750000 0.250000 0.274418
O O2 0.738211 0.156268 0.212602
O O3 0.731468 0.091957 0.284308
O O4 0.941566 0.168169 0.250342
O O5 0.916927 0.699681 0.256486
O O6 0.810437 0.842003 0.246815
O O7 0.921925 0.765541 0.188778
O O8 0.935608 0.815801 0.045169
O O9 0.882420 0.809665 0.972486
O O10 0.160773 0.875175 0.657970
O O11 0.227057 0.035580 0.665918
O O12 0.000000 0.000000 0.664684
O O13 0.819434 0.087224 0.408635
O O14 0.667784 0.022761 0.357501
O O15 0.713602 0.322340 0.133469
O O16 0.118936 0.985284 0.325916
#
# Coordination Sequence:
#
# PCOD9370120 Si02
#       8
#    16  16  16  16  16  16   8  16
#     4  12  21  35  61  94 114 149 204 252 297 353
#     4  10  21  39  64  80 121 166 202 229 298 378
#     4  10  21  38  62  85 120 162 196 242 294 362
#     4   9  18  34  64  83 111 154 206 234 284 365
#     4   9  19  37  61  84 117 157 194 248 301 352
#     4  10  17  34  59  87 112 156 200 240 291 368
#     4  10  20  34  54  82 120 156 184 246 316 340
#     4  11  22  35  59  90 120 148 200 261 302 345
#
# _framework density 20.256985
#
# number of rings (size 3 to 8) (size 9 to 14) (size 15 to 20)
#    0.000    1.867    3.333    1.600    0.000    2.667 
#    0.000    0.000   32.267    0.000    0.000    0.000 
#    0.000    0.000    0.000    0.000    0.000    0.000 
#
# Total GULP energy -167221.715945 kJ/mol
# GULP energy per Si atom -5574.057198 kJ/mol
# Density = 2.021088 g / cm^3
# Si number density = 20.256985 Si / 1000 Ang^3
#
#
#
# Elastic Constant Matrix: (Units=GPa)
#
#
# Indices 1 2 3 4 5 6 
#
# 1 14.6958 10.6039 4.3887 0.0000 0.0000 0.0000
# 2 10.6039 78.1976 45.6283 0.0000 0.0000 0.0000
# 3 4.3887 45.6283 114.1589 0.0000 0.0000 0.0000
# 4 0.0000 0.0000 0.0000 23.9293 0.0000 0.0000
# 5 0.0000 0.0000 0.0000 0.0000 19.4823 0.0000
# 6 0.0000 0.0000 0.0000 0.0000 0.0000 19.8877
#
#
#
# Elastic Compliance Matrix: (Units=1/GPa)
#
#
# Indices 1 2 3 4 5 6 
#
# 1 0.075638 -0.011164 0.001554 0.000000 0.000000 0.000000
# 2 -0.011164 0.018325 -0.006895 0.000000 0.000000 0.000000
# 3 0.001554 -0.006895 0.011456 0.000000 0.000000 0.000000
# 4 0.000000 0.000000 0.000000 0.041790 0.000000 0.000000
# 5 0.000000 0.000000 0.000000 0.000000 0.051329 0.000000
# 6 0.000000 0.000000 0.000000 0.000000 0.000000 0.050282
#
#
# Mechanical properties :
#
#
# Convention : Reuss Voigt Hill
#
# Bulk Modulus (GPa) = 13.81034 36.47713 25.14373
# Shear Modulus (GPa) = 16.34170 22.42195 19.38182
#
# Velocity S-wave (km/s) = 2.84336 3.33058 3.09657
# Velocity P-wave (km/s) = 4.19666 5.73033 5.02238
#
# Compressibility (1/GPa) = 0.07240953
#
# Stress axis : x y z
#
# Youngs Moduli (GPa) = 13.22093 54.56920 87.29074
#
# Poissons Ratio (x) = 0.60919 -0.13567
# Poissons Ratio (y) = 0.14759 0.60190
# Poissons Ratio (z) = -0.02055 0.37627
#
# Static dielectric constant tensor:
#      x y z
#    x 1.776980 0.000000 0.000000 
#    y 0.000000 1.795980 0.000000 
#    z 0.000000 0.000000 1.718760 
# 
# From -- ./inp_files/25700.got.cif
#   From: 2010.05.17/outbox.cif.g08.bks.cpg/sg43_13_cif.got.tgz:25700.got - 2010.06.03 19:21:55.
