data_PCOD9370260
_publ_section_title
;
Structure prediction by ZEFSAII (Michael W. Deem and Ramdas Pophale) SiO2 
 PCOD9370260
Probable space group: F D D 2
;
_chemical_formula_sum "Si O2"
_cell_formula_units_Z 88
_cell_length_a 9.301699
_cell_length_b 29.304170
_cell_length_c 16.288211
_cell_angle_alpha 90.000000
_cell_angle_beta 90.000000
_cell_angle_gamma 90.000000
_cell_volume 4439.817242
_symmetry_space_group_name_H-M "F D D 2"
_symmetry_group_IT_number 43
_symmetry_cell_setting 'orthorhombic'
loop_
_space_group_symop_operation_xyz
x,y,z
-x,-y,z
1/4-x,1/4+y,1/4+z
1/4+x,1/4-y,1/4+z
x,1/2+y,1/2+z
-x,1/2-y,1/2+z
1/4-x,3/4+y,3/4+z
1/4+x,3/4-y,3/4+z
1/2+x,y,1/2+z
1/2-x,-y,1/2+z
3/4-x,1/4+y,3/4+z
3/4+x,1/4-y,3/4+z
1/2+x,1/2+y,z
1/2-x,1/2-y,z
3/4-x,3/4+y,1/4+z
3/4+x,3/4-y,1/4+z
loop_
_atom_site_type_symbol
_atom_site_label
_atom_site_fract_x
_atom_site_fract_y
_atom_site_fract_z
Si Si1 0.269529 0.151576 0.817440
Si Si2 0.207432 0.841274 0.507673
Si Si3 0.797083 0.418868 0.774297
Si Si4 0.000000 0.500000 0.093047
Si Si5 0.249163 0.515284 0.220209
Si Si6 0.186638 0.149371 0.425794
O O1 0.110817 0.131254 0.810300
O O2 0.320149 0.148846 0.911149
O O3 0.269969 0.204248 0.793202
O O4 0.366238 0.123505 0.755825
O O5 0.375734 0.836206 0.517597
O O6 0.111176 0.796254 0.523862
O O7 0.816871 0.474241 0.773239
O O8 0.837766 0.385059 0.849808
O O9 0.895208 0.404025 0.697368
O O10 0.140848 0.494795 0.151093
O O11 0.361658 0.550197 0.176407
#
# Coordination Sequence:
#
# PCOD9370260 Si02
#       6
#    16  16  16   8  16  16
#     4  10  20  40  59  88 121 162 207 253 313 386
#     4  10  20  38  66  86 118 166 211 251 311 379
#     4  12  21  40  63  93 123 163 204 268 311 370
#     4  10  18  38  66  84 116 166 210 250 312 384
#     4  10  20  40  64  86 119 172 205 246 319 385
#     4  11  25  38  63  91 129 156 209 260 322 366
#
# _framework density 19.820634999999999
#
# number of rings (size 3 to 8) (size 9 to 14) (size 15 to 20)
#    0.000    1.455    3.636    4.909    0.000    0.000 
#    9.818    0.000    0.000    0.000    0.000    0.000 
#    0.000    0.000    0.000    0.000    0.000    0.000 
#
# Total GULP energy -122543.419031 kJ/mol
# GULP energy per Si atom -5570.155410 kJ/mol
# Density = 1.977552 g / cm^3
# Si number density = 19.820635 Si / 1000 Ang^3
#
#
#
# Elastic Constant Matrix: (Units=GPa)
#
#
# Indices 1 2 3 4 5 6 
#
# 1 94.7813 34.1862 14.9094 0.0000 0.0000 0.0000
# 2 34.1862 115.3751 37.7763 0.0000 0.0000 0.0000
# 3 14.9094 37.7763 50.3425 0.0000 0.0000 0.0000
# 4 0.0000 0.0000 0.0000 32.9728 0.0000 0.0000
# 5 0.0000 0.0000 0.0000 0.0000 23.7237 0.0000
# 6 0.0000 0.0000 0.0000 0.0000 0.0000 34.1730
#
#
#
# Elastic Compliance Matrix: (Units=1/GPa)
#
#
# Indices 1 2 3 4 5 6 
#
# 1 0.011864 -0.003135 -0.001161 0.000000 0.000000 0.000000
# 2 -0.003135 0.012319 -0.008316 0.000000 0.000000 0.000000
# 3 -0.001161 -0.008316 0.026448 0.000000 0.000000 0.000000
# 4 0.000000 0.000000 0.000000 0.030328 0.000000 0.000000
# 5 0.000000 0.000000 0.000000 0.000000 0.042152 0.000000
# 6 0.000000 0.000000 0.000000 0.000000 0.000000 0.029263
#
#
# Mechanical properties :
#
#
# Convention : Reuss Voigt Hill
#
# Bulk Modulus (GPa) = 39.35890 48.24919 43.80404
# Shear Modulus (GPa) = 26.87216 29.74903 28.31060
#
# Velocity S-wave (km/s) = 3.68607 3.87836 3.78344
# Velocity P-wave (km/s) = 6.16578 6.66719 6.42138
#
# Compressibility (1/GPa) = 0.02540721
#
# Stress axis : x y z
#
# Youngs Moduli (GPa) = 84.28808 81.17509 37.81062
#
# Poissons Ratio (x) = 0.25450 0.04390
# Poissons Ratio (y) = 0.26426 0.31441
# Poissons Ratio (z) = 0.09786 0.67501
#
# Static dielectric constant tensor:
#      x y z
#    x 1.793840 0.000000 0.000000 
#    y 0.000000 1.763040 0.000000 
#    z 0.000000 0.000000 1.676470 
# 
# From -- ./inp_files/12868.got.cif
#   From: 2010.05.17/outbox.cif.g08.bks.cpg/sg43_7_cif.got.tgz:12868.got - 2010.06.03 19:21:55.
