data_PCOD9370219
_publ_section_title
;
Structure prediction by ZEFSAII (Michael W. Deem and Ramdas Pophale) SiO2 
 PCOD9370219
Probable space group: F D D 2
;
_chemical_formula_sum "Si O2"
_cell_formula_units_Z 104
_cell_length_a 19.695906
_cell_length_b 9.621043
_cell_length_c 24.346700
_cell_angle_alpha 90.000000
_cell_angle_beta 90.000000
_cell_angle_gamma 90.000000
_cell_volume 4613.581777
_symmetry_space_group_name_H-M "F D D 2"
_symmetry_group_IT_number 43
_symmetry_cell_setting 'orthorhombic'
loop_
_space_group_symop_operation_xyz
x,y,z
-x,-y,z
1/4-x,1/4+y,1/4+z
1/4+x,1/4-y,1/4+z
x,1/2+y,1/2+z
-x,1/2-y,1/2+z
1/4-x,3/4+y,3/4+z
1/4+x,3/4-y,3/4+z
1/2+x,y,1/2+z
1/2-x,-y,1/2+z
3/4-x,1/4+y,3/4+z
3/4+x,1/4-y,3/4+z
1/2+x,1/2+y,z
1/2-x,1/2-y,z
3/4-x,3/4+y,1/4+z
3/4+x,3/4-y,1/4+z
loop_
_atom_site_type_symbol
_atom_site_label
_atom_site_fract_x
_atom_site_fract_y
_atom_site_fract_z
Si Si1 0.033167 0.291125 0.259420
Si Si2 0.136282 0.255762 0.075517
Si Si3 0.561616 0.222926 0.950459
Si Si4 0.554725 0.119422 0.658500
Si Si5 0.622280 0.800351 0.794862
Si Si6 0.931868 0.435934 0.837584
Si Si7 0.250000 0.750000 0.670426
O O1 0.067598 0.436468 0.277712
O O2 0.036117 0.252040 0.195655
O O3 0.081796 0.186421 0.294801
O O4 0.955060 0.254025 0.277418
O O5 0.077123 0.157218 0.097603
O O6 0.101686 0.402990 0.064747
O O7 0.186945 0.268720 0.128244
O O8 0.632323 0.299101 0.939051
O O9 0.549615 0.133957 0.895152
O O10 0.510098 0.354518 0.953130
O O11 0.579456 0.115883 0.998472
O O12 0.500000 0.000000 0.658612
O O13 0.615839 0.929281 0.837624
O O14 0.000000 0.500000 0.813107
#
# Coordination Sequence:
#
# PCOD9370219 Si02
#       7
#    16  16  16  16  16  16   8
#     4  11  18  37  65  99 121 170 228 271 318 405
#     4  11  22  38  67  98 138 173 226 280 338 400
#     4  11  21  36  66  92 130 165 225 275 335 391
#     4  11  21  38  67 100 127 176 222 275 339 407
#     4  11  21  37  64  97 127 172 223 272 331 399
#     4  10  19  35  63  89 121 162 215 270 321 395
#     4  10  18  36  60 100 130 174 226 284 324 396
#
# _framework density 22.542138999999999
#
# number of rings (size 3 to 8) (size 9 to 14) (size 15 to 20)
#    0.000    1.231    7.692    1.385    0.000    1.231 
#    0.000    0.000   22.000    0.000    0.000    0.000 
#    0.000    0.000    0.000    0.000    0.000    0.000 
#
# Total GULP energy -144750.776538 kJ/mol
# GULP energy per Si atom -5567.337559 kJ/mol
# Density = 2.249083 g / cm^3
# Si number density = 22.542139 Si / 1000 Ang^3
#
#
#
# Elastic Constant Matrix: (Units=GPa)
#
#
# Indices 1 2 3 4 5 6 
#
# 1 26.9390 20.3929 8.4598 0.0000 0.0000 0.0000
# 2 20.3929 149.3955 60.4445 0.0000 0.0000 0.0000
# 3 8.4598 60.4445 48.7353 0.0000 0.0000 0.0000
# 4 0.0000 0.0000 0.0000 28.1850 0.0000 0.0000
# 5 0.0000 0.0000 0.0000 0.0000 12.9547 0.0000
# 6 0.0000 0.0000 0.0000 0.0000 0.0000 5.3130
#
#
#
# Elastic Compliance Matrix: (Units=1/GPa)
#
#
# Indices 1 2 3 4 5 6 
#
# 1 0.041402 -0.005507 -0.000356 0.000000 0.000000 0.000000
# 2 -0.005507 0.014168 -0.016616 0.000000 0.000000 0.000000
# 3 -0.000356 -0.016616 0.041190 0.000000 0.000000 0.000000
# 4 0.000000 0.000000 0.000000 0.035480 0.000000 0.000000
# 5 0.000000 0.000000 0.000000 0.000000 0.077192 0.000000
# 6 0.000000 0.000000 0.000000 0.000000 0.000000 0.188216
#
#
# Mechanical properties :
#
#
# Convention : Reuss Voigt Hill
#
# Bulk Modulus (GPa) = 19.30510 44.85157 32.07833
# Shear Modulus (GPa) = 10.87253 18.34205 14.60729
#
# Velocity S-wave (km/s) = 2.19856 2.85560 2.54834
# Velocity P-wave (km/s) = 3.87653 5.55091 4.78749
#
# Compressibility (1/GPa) = 0.05179979
#
# Stress axis : x y z
#
# Youngs Moduli (GPa) = 24.15348 70.57997 24.27797
#
# Poissons Ratio (x) = 0.38871 0.00865
# Poissons Ratio (y) = 0.13302 0.40341
# Poissons Ratio (z) = 0.00860 1.17279
#
# Static dielectric constant tensor:
#      x y z
#    x 1.916360 0.000000 0.000000 
#    y 0.000000 1.736300 0.000000 
#    z 0.000000 0.000000 1.869970 
# 
# From -- ./inp_files/24304.got.cif
#   From: 2010.05.17/outbox.cif.g08.bks.cpg/sg43_13_cif.got.tgz:24304.got - 2010.06.03 19:21:55.
