data_PCOD9370339
_publ_section_title
;
Structure prediction by ZEFSAII (Michael W. Deem and Ramdas Pophale) SiO2 
 PCOD9370339
Probable space group: F D D 2
;
_chemical_formula_sum "Si O2"
_cell_formula_units_Z 96
_cell_length_a 9.979902
_cell_length_b 33.081515
_cell_length_c 13.883817
_cell_angle_alpha 90.000000
_cell_angle_beta 90.000000
_cell_angle_gamma 90.000000
_cell_volume 4583.746038
_symmetry_space_group_name_H-M "F D D 2"
_symmetry_group_IT_number 43
_symmetry_cell_setting 'orthorhombic'
loop_
_space_group_symop_operation_xyz
x,y,z
-x,-y,z
1/4-x,1/4+y,1/4+z
1/4+x,1/4-y,1/4+z
x,1/2+y,1/2+z
-x,1/2-y,1/2+z
1/4-x,3/4+y,3/4+z
1/4+x,3/4-y,3/4+z
1/2+x,y,1/2+z
1/2-x,-y,1/2+z
3/4-x,1/4+y,3/4+z
3/4+x,1/4-y,3/4+z
1/2+x,1/2+y,z
1/2-x,1/2-y,z
3/4-x,3/4+y,1/4+z
3/4+x,3/4-y,1/4+z
loop_
_atom_site_type_symbol
_atom_site_label
_atom_site_fract_x
_atom_site_fract_y
_atom_site_fract_z
Si Si1 0.466002 0.256037 0.547210
Si Si2 0.793089 0.410491 0.252911
Si Si3 0.250000 0.750000 0.649646
Si Si4 0.504401 0.578853 0.579103
Si Si5 0.777675 0.336731 0.653471
Si Si6 0.232904 0.921353 0.724798
Si Si7 0.750000 0.250000 0.209938
O O1 0.452102 0.299681 0.497206
O O2 0.621659 0.254515 0.579829
O O3 0.440152 0.213745 0.491935
O O4 0.375110 0.258177 0.641113
O O5 0.730287 0.366285 0.256429
O O6 0.896180 0.413372 0.166379
O O7 0.881117 0.410261 0.352263
O O8 0.226881 0.707427 0.703887
O O9 0.357959 0.574127 0.628575
O O10 0.534328 0.537834 0.525334
O O11 0.885203 0.333788 0.567161
O O12 0.803624 0.377787 0.711889
#
# Coordination Sequence:
#
# PCOD9370339 Si02
#       7
#    16  16   8  16  16  16   8
#     4  10  20  36  55  81 113 149 187 235 282 337
#     4   9  17  33  57  82 109 142 192 240 280 333
#     4   8  16  33  54  73 100 140 184 224 272 331
#     4  10  19  34  58  86 110 148 192 235 281 342
#     4   8  15  28  53  81 101 133 181 230 272 325
#     4   9  17  32  55  78 105 139 183 228 275 330
#     4  12  24  35  54  85 120 152 186 230 288 337
#
# _framework density 20.943567999999999
#
# number of rings (size 3 to 8) (size 9 to 14) (size 15 to 20)
#    0.000    2.667    0.000    3.000    0.000    5.333 
#    0.000    6.667    0.000    9.000    0.000    0.000 
#    0.000    0.000    0.000    0.000    0.000    0.000 
#
# Total GULP energy -133705.876766 kJ/mol
# GULP energy per Si atom -5571.078199 kJ/mol
# Density = 2.089590 g / cm^3
# Si number density = 20.943568 Si / 1000 Ang^3
#
#
#
# Elastic Constant Matrix: (Units=GPa)
#
#
# Indices 1 2 3 4 5 6 
#
# 1 17.7936 -11.8085 2.7772 0.0000 0.0000 0.0000
# 2 -11.8085 189.7949 29.2112 0.0000 0.0000 0.0000
# 3 2.7772 29.2112 28.6575 0.0000 0.0000 0.0000
# 4 0.0000 0.0000 0.0000 38.3738 0.0000 0.0000
# 5 0.0000 0.0000 0.0000 0.0000 -3.6483 0.0000
# 6 0.0000 0.0000 0.0000 0.0000 0.0000 12.2346
#
#
#
# Elastic Compliance Matrix: (Units=1/GPa)
#
#
# Indices 1 2 3 4 5 6 
#
# 1 0.061785 0.005652 -0.011749 0.000000 0.000000 0.000000
# 2 0.005652 0.006766 -0.007445 0.000000 0.000000 0.000000
# 3 -0.011749 -0.007445 0.043622 0.000000 0.000000 0.000000
# 4 0.000000 0.000000 0.000000 0.026059 0.000000 0.000000
# 5 0.000000 0.000000 0.000000 0.000000 -0.274099 0.000000
# 6 0.000000 0.000000 0.000000 0.000000 0.000000 0.081735
#
#
# Mechanical properties :
#
#
# Convention : Reuss Voigt Hill
#
# Bulk Modulus (GPa) = 11.75228 30.73400 21.24314
# Shear Modulus (GPa) = 3798.83061 23.79643 1911.31352
#
# Velocity S-wave (km/s) = 42.63542 3.37444 30.24207
# Velocity P-wave (km/s) = 49.28822 5.46708 35.06578
#
# Compressibility (1/GPa) = 0.08508990
#
# Stress axis : x y z
#
# Youngs Moduli (GPa) = 16.18521 147.78997 22.92410
#
# Poissons Ratio (x) = -0.83537 0.26934
# Poissons Ratio (y) = -0.09149 0.17067
# Poissons Ratio (z) = 0.19016 1.10028
#
# Static dielectric constant tensor:
#      x y z
#    x 1.788860 0.000000 0.000000 
#    y 0.000000 1.860120 0.000000 
#    z 0.000000 0.000000 1.717080 
# 
# From -- ./inp_files/9736.got.cif
#   From: 2010.05.17/outbox.cif.g08.bks.cpg/sg43_5_cif.got.tgz:9736.got - 2010.06.03 19:21:55.
