data_PCOD9370212
_publ_section_title
;
Structure prediction by ZEFSAII (Michael W. Deem and Ramdas Pophale) SiO2 
 PCOD9370212
Probable space group: F D D 2
;
_chemical_formula_sum "Si O2"
_cell_formula_units_Z 128
_cell_length_a 11.538549
_cell_length_b 23.733340
_cell_length_c 23.006032
_cell_angle_alpha 90.000000
_cell_angle_beta 90.000000
_cell_angle_gamma 90.000000
_cell_volume 6300.162903
_symmetry_space_group_name_H-M "F D D 2"
_symmetry_group_IT_number 43
_symmetry_cell_setting 'orthorhombic'
loop_
_space_group_symop_operation_xyz
x,y,z
-x,-y,z
1/4-x,1/4+y,1/4+z
1/4+x,1/4-y,1/4+z
x,1/2+y,1/2+z
-x,1/2-y,1/2+z
1/4-x,3/4+y,3/4+z
1/4+x,3/4-y,3/4+z
1/2+x,y,1/2+z
1/2-x,-y,1/2+z
3/4-x,1/4+y,3/4+z
3/4+x,1/4-y,3/4+z
1/2+x,1/2+y,z
1/2-x,1/2-y,z
3/4-x,3/4+y,1/4+z
3/4+x,3/4-y,1/4+z
loop_
_atom_site_type_symbol
_atom_site_label
_atom_site_fract_x
_atom_site_fract_y
_atom_site_fract_z
Si Si1 0.729405 0.426507 0.410950
Si Si2 0.771821 0.887040 0.423974
Si Si3 0.451356 0.833488 0.839999
Si Si4 0.713206 0.689202 0.521072
Si Si5 0.165972 0.299225 0.919353
Si Si6 0.616543 0.732960 0.223771
Si Si7 0.296901 0.428478 0.781564
Si Si8 0.756494 0.311678 0.228660
O O1 0.729580 0.359269 0.413581
O O2 0.796736 0.460246 0.460286
O O3 0.785307 0.442865 0.349120
O O4 0.595590 0.442707 0.424578
O O5 0.834411 0.858651 0.369034
O O6 0.726911 0.834850 0.463056
O O7 0.674763 0.935679 0.426127
O O8 0.881182 0.917841 0.456362
O O9 0.517538 0.888454 0.815428
O O10 0.544464 0.805123 0.883777
O O11 0.418055 0.793713 0.786040
O O12 0.750000 0.750000 0.541905
O O13 0.578764 0.694411 0.506747
O O14 0.250000 0.250000 0.899416
O O15 0.136655 0.293231 0.987988
O O16 0.750000 0.750000 0.221150
O O17 0.304061 0.360911 0.770341
O O18 0.750000 0.250000 0.255779
#
# Coordination Sequence:
#
# PCOD9370212 Si02
#       8
#    16  16  16  16  16  16  16  16
#     4  11  22  40  68  91 136 181 227 282 341 416
#     4  10  20  41  67  96 136 175 224 290 333 404
#     4  11  22  44  69 103 134 180 241 288 339 413
#     4  10  20  35  63  97 128 168 226 281 324 394
#     4  11  24  42  65 103 140 173 227 287 351 412
#     4  11  27  46  64 100 141 181 233 286 354 429
#     4  10  21  38  58  99 135 163 224 279 331 413
#     4  10  18  35  68 102 126 168 237 284 341 387
#
# _framework density 20.316935000000001
#
# number of rings (size 3 to 8) (size 9 to 14) (size 15 to 20)
#    0.000    1.500    6.250    0.000    1.750    4.500 
#    4.500    2.500    0.000    0.000    0.000    0.000 
#    0.000    0.000    0.000    0.000    0.000    0.000 
#
# Total GULP energy -178345.845010 kJ/mol
# GULP energy per Si atom -5573.307657 kJ/mol
# Density = 2.027069 g / cm^3
# Si number density = 20.316935 Si / 1000 Ang^3
#
#
#
# Elastic Constant Matrix: (Units=GPa)
#
#
# Indices 1 2 3 4 5 6 
#
# 1 93.9139 50.8286 44.6459 0.0000 0.0000 0.0000
# 2 50.8286 108.8951 36.3390 0.0000 0.0000 0.0000
# 3 44.6459 36.3390 100.7669 0.0000 0.0000 0.0000
# 4 0.0000 0.0000 0.0000 16.6009 0.0000 0.0000
# 5 0.0000 0.0000 0.0000 0.0000 21.9784 0.0000
# 6 0.0000 0.0000 0.0000 0.0000 0.0000 33.5109
#
#
#
# Elastic Compliance Matrix: (Units=1/GPa)
#
#
# Indices 1 2 3 4 5 6 
#
# 1 0.016249 -0.005891 -0.005075 0.000000 0.000000 0.000000
# 2 -0.005891 0.012575 -0.001925 0.000000 0.000000 0.000000
# 3 -0.005075 -0.001925 0.012867 0.000000 0.000000 0.000000
# 4 0.000000 0.000000 0.000000 0.060238 0.000000 0.000000
# 5 0.000000 0.000000 0.000000 0.000000 0.045499 0.000000
# 6 0.000000 0.000000 0.000000 0.000000 0.000000 0.029841
#
#
# Mechanical properties :
#
#
# Convention : Reuss Voigt Hill
#
# Bulk Modulus (GPa) = 62.85632 63.02255 62.93943
# Shear Modulus (GPa) = 23.99773 25.86887 24.93330
#
# Velocity S-wave (km/s) = 3.44054 3.57216 3.50697
# Velocity P-wave (km/s) = 6.84019 6.93547 6.88800
#
# Compressibility (1/GPa) = 0.01590930
#
# Stress axis : x y z
#
# Youngs Moduli (GPa) = 61.54250 79.52163 77.72110
#
# Poissons Ratio (x) = 0.46846 0.39442
# Poissons Ratio (y) = 0.36254 0.14960
# Poissons Ratio (z) = 0.31232 0.15307
#
# Static dielectric constant tensor:
#      x y z
#    x 1.736770 0.000000 0.000000 
#    y 0.000000 1.761100 0.000000 
#    z 0.000000 0.000000 1.789780 
# 
# From -- ./inp_files/21317.got.cif
#   From: 2010.05.17/outbox.cif.g08.bks.cpg/sg43_11_cif.got.tgz:21317.got - 2010.06.03 19:21:55.
