data_PCOD9370548
_publ_section_title
;
Structure prediction by ZEFSAII (Michael W. Deem and Ramdas Pophale) SiO2 
 PCOD9370548
Probable space group: F D D 2
;
_chemical_formula_sum "Si O2"
_cell_formula_units_Z 64
_cell_length_a 12.605335
_cell_length_b 23.095544
_cell_length_c 9.413219
_cell_angle_alpha 90.000000
_cell_angle_beta 90.000000
_cell_angle_gamma 90.000000
_cell_volume 2740.442859
_symmetry_space_group_name_H-M "F D D 2"
_symmetry_group_IT_number 43
_symmetry_cell_setting 'orthorhombic'
loop_
_space_group_symop_operation_xyz
x,y,z
-x,-y,z
1/4-x,1/4+y,1/4+z
1/4+x,1/4-y,1/4+z
x,1/2+y,1/2+z
-x,1/2-y,1/2+z
1/4-x,3/4+y,3/4+z
1/4+x,3/4-y,3/4+z
1/2+x,y,1/2+z
1/2-x,-y,1/2+z
3/4-x,1/4+y,3/4+z
3/4+x,1/4-y,3/4+z
1/2+x,1/2+y,z
1/2-x,1/2-y,z
3/4-x,3/4+y,1/4+z
3/4+x,3/4-y,1/4+z
loop_
_atom_site_type_symbol
_atom_site_label
_atom_site_fract_x
_atom_site_fract_y
_atom_site_fract_z
Si Si1 0.987930 0.419374 0.800990
Si Si2 0.841632 0.017241 0.438514
Si Si3 0.802318 0.343771 0.748532
Si Si4 0.166671 0.961629 0.763387
O O1 0.911360 0.464471 0.877561
O O2 0.923880 0.359498 0.794784
O O3 0.099858 0.425013 0.880313
O O4 0.002457 0.435782 0.635842
O O5 0.847879 0.013986 0.607020
O O6 0.728159 0.006315 0.366596
O O7 0.814742 0.310316 0.601521
O O8 0.738640 0.403928 0.734028
#
# Coordination Sequence:
#
# PCOD9370548 Si02
#       4
#    16  16  16  16
#     4   9  19  36  55  79 109 146 187 231 278 328
#     4  10  20  35  55  83 112 144 185 231 277 329
#     4   9  19  37  58  78 110 152 189 230 281 333
#     4  10  20  36  58  84 113 148 187 230 280 334
#
# _framework density 23.35389
#
# number of rings (size 3 to 8) (size 9 to 14) (size 15 to 20)
#    0.000    2.500    0.000    1.500    0.000    2.000 
#    0.000   20.000    0.000    0.000    0.000    0.000 
#    0.000    0.000    0.000    0.000    0.000    0.000 
#
# Total GULP energy -89304.314210 kJ/mol
# GULP energy per Si atom -5581.519638 kJ/mol
# Density = 2.330074 g / cm^3
# Si number density = 23.353890 Si / 1000 Ang^3
#
#
#
# Elastic Constant Matrix: (Units=GPa)
#
#
# Indices 1 2 3 4 5 6 
#
# 1 33.6982 17.6828 41.9311 0.0000 0.0000 0.0000
# 2 17.6828 52.8775 40.9402 0.0000 0.0000 0.0000
# 3 41.9311 40.9402 241.7496 0.0000 0.0000 0.0000
# 4 0.0000 0.0000 0.0000 39.8092 0.0000 0.0000
# 5 0.0000 0.0000 0.0000 0.0000 42.1735 0.0000
# 6 0.0000 0.0000 0.0000 0.0000 0.0000 32.2725
#
#
#
# Elastic Compliance Matrix: (Units=1/GPa)
#
#
# Indices 1 2 3 4 5 6 
#
# 1 0.041687 -0.009601 -0.005605 0.000000 0.000000 0.000000
# 2 -0.009601 0.023977 -0.002395 0.000000 0.000000 0.000000
# 3 -0.005605 -0.002395 0.005514 0.000000 0.000000 0.000000
# 4 0.000000 0.000000 0.000000 0.025120 0.000000 0.000000
# 5 0.000000 0.000000 0.000000 0.000000 0.023712 0.000000
# 6 0.000000 0.000000 0.000000 0.000000 0.000000 0.030986
#
#
# Mechanical properties :
#
#
# Convention : Reuss Voigt Hill
#
# Bulk Modulus (GPa) = 27.79614 58.82593 43.31103
# Shear Modulus (GPa) = 25.22830 38.03579 31.63204
#
# Velocity S-wave (km/s) = 3.29030 4.04006 3.68430
# Velocity P-wave (km/s) = 5.13447 6.85612 6.05678
#
# Compressibility (1/GPa) = 0.03597622
#
# Stress axis : x y z
#
# Youngs Moduli (GPa) = 23.98814 41.70692 181.34872
#
# Poissons Ratio (x) = 0.40044 1.01639
# Poissons Ratio (y) = 0.23032 0.43435
# Poissons Ratio (z) = 0.13444 0.09989
#
# Static dielectric constant tensor:
#      x y z
#    x 1.985620 0.000000 0.000000 
#    y 0.000000 1.956220 0.000000 
#    z 0.000000 0.000000 1.834680 
# 
# From -- ./inp_files/530.got.cif
#   From: 2010.05.17/outbox.cif.g08.bks.cpg/sg43_1_cif.got.tgz:530.got - 2010.06.03 19:21:55.
