data_PCOD9370402
_publ_section_title
;
Structure prediction by ZEFSAII (Michael W. Deem and Ramdas Pophale) SiO2 
 PCOD9370402
Probable space group: F D D 2
;
_chemical_formula_sum "Si O2"
_cell_formula_units_Z 112
_cell_length_a 24.218050
_cell_length_b 10.632080
_cell_length_c 19.744102
_cell_angle_alpha 90.000000
_cell_angle_beta 90.000000
_cell_angle_gamma 90.000000
_cell_volume 5083.874174
_symmetry_space_group_name_H-M "F D D 2"
_symmetry_group_IT_number 43
_symmetry_cell_setting 'orthorhombic'
loop_
_space_group_symop_operation_xyz
x,y,z
-x,-y,z
1/4-x,1/4+y,1/4+z
1/4+x,1/4-y,1/4+z
x,1/2+y,1/2+z
-x,1/2-y,1/2+z
1/4-x,3/4+y,3/4+z
1/4+x,3/4-y,3/4+z
1/2+x,y,1/2+z
1/2-x,-y,1/2+z
3/4-x,1/4+y,3/4+z
3/4+x,1/4-y,3/4+z
1/2+x,1/2+y,z
1/2-x,1/2-y,z
3/4-x,3/4+y,1/4+z
3/4+x,3/4-y,1/4+z
loop_
_atom_site_type_symbol
_atom_site_label
_atom_site_fract_x
_atom_site_fract_y
_atom_site_fract_z
Si Si1 0.550467 0.673699 0.782970
Si Si2 0.169087 0.463512 0.610475
Si Si3 0.327496 0.805354 0.073099
Si Si4 0.064373 0.037796 0.177107
Si Si5 0.615737 0.295599 0.447206
Si Si6 0.260993 0.614662 0.679374
Si Si7 0.806239 0.435245 0.460911
O O1 0.543513 0.821638 0.799567
O O2 0.610007 0.631574 0.757018
O O3 0.536657 0.608244 0.854049
O O4 0.507514 0.648554 0.722553
O O5 0.192349 0.321461 0.610116
O O6 0.103995 0.466306 0.625507
O O7 0.203699 0.544272 0.664417
O O8 0.176949 0.528886 0.538007
O O9 0.365472 0.871014 0.129188
O O10 0.341518 0.747474 0.999952
O O11 0.065326 0.188137 0.168521
O O12 0.000000 0.000000 0.177241
O O13 0.555798 0.231950 0.460242
O O14 0.656574 0.178652 0.437762
O O15 0.250000 0.750000 0.713049
#
# Coordination Sequence:
#
# PCOD9370402 Si02
#       7
#    16  16  16  16  16  16  16
#     4  10  19  37  61  91 125 169 221 259 324 395
#     4  10  22  40  65  95 127 171 226 269 330 395
#     4  10  22  37  63  95 127 168 218 271 321 396
#     4  11  21  40  68  93 127 174 223 268 332 405
#     4  11  22  35  64  95 128 166 216 278 328 388
#     4  10  21  38  63  90 127 170 214 268 325 399
#     4  10  21  37  63  92 127 170 219 269 324 410
#
# _framework density 22.030443999999999
#
# number of rings (size 3 to 8) (size 9 to 14) (size 15 to 20)
#    0.000    1.714    1.429    3.857    2.000    1.143 
#    0.000    3.571   12.571    0.000    0.000    0.000 
#    0.000    0.000    0.000    0.000    0.000    0.000 
#
# Total GULP energy -156100.163011 kJ/mol
# GULP energy per Si atom -5575.005822 kJ/mol
# Density = 2.198030 g / cm^3
# Si number density = 22.030444 Si / 1000 Ang^3
#
#
#
# Elastic Constant Matrix: (Units=GPa)
#
#
# Indices 1 2 3 4 5 6 
#
# 1 104.1840 45.0574 30.6112 0.0000 0.0000 0.0000
# 2 45.0574 155.2736 16.6536 0.0000 0.0000 0.0000
# 3 30.6112 16.6536 22.5351 0.0000 0.0000 0.0000
# 4 0.0000 0.0000 0.0000 27.5818 0.0000 0.0000
# 5 0.0000 0.0000 0.0000 0.0000 27.7765 0.0000
# 6 0.0000 0.0000 0.0000 0.0000 0.0000 32.1629
#
#
#
# Elastic Compliance Matrix: (Units=1/GPa)
#
#
# Indices 1 2 3 4 5 6 
#
# 1 0.016926 -0.002656 -0.021029 0.000000 0.000000 0.000000
# 2 -0.002656 0.007411 -0.001869 0.000000 0.000000 0.000000
# 3 -0.021029 -0.001869 0.074321 0.000000 0.000000 0.000000
# 4 0.000000 0.000000 0.000000 0.036256 0.000000 0.000000
# 5 0.000000 0.000000 0.000000 0.000000 0.036002 0.000000
# 6 0.000000 0.000000 0.000000 0.000000 0.000000 0.031092
#
#
# Mechanical properties :
#
#
# Convention : Reuss Voigt Hill
#
# Bulk Modulus (GPa) = 21.03011 51.84855 36.43933
# Shear Modulus (GPa) = 18.58973 30.14895 24.36934
#
# Velocity S-wave (km/s) = 2.90801 3.70336 3.32952
# Velocity P-wave (km/s) = 4.56531 6.47090 5.59976
#
# Compressibility (1/GPa) = 0.04755087
#
# Stress axis : x y z
#
# Youngs Moduli (GPa) = 59.08172 134.92601 13.45508
#
# Poissons Ratio (x) = 0.35838 0.28294
# Poissons Ratio (y) = 0.15693 0.02515
# Poissons Ratio (z) = 1.24241 0.25219
#
# Static dielectric constant tensor:
#      x y z
#    x 1.870860 0.000000 0.000000 
#    y 0.000000 1.845730 0.000000 
#    z 0.000000 0.000000 1.824500 
# 
# From -- ./inp_files/22639.got.cif
#   From: 2010.05.17/outbox.cif.g08.bks.cpg/sg43_12_cif.got.tgz:22639.got - 2010.06.03 19:21:55.
