data_PCOD9370015
_publ_section_title
;
Structure prediction by ZEFSAII (Michael W. Deem and Ramdas Pophale) SiO2 
 PCOD9370015
Probable space group: F M M 2
;
_chemical_formula_sum "Si O2"
_cell_formula_units_Z 20
_cell_length_a 24.000000
_cell_length_b 15.000000
_cell_length_c 12.000000
_cell_angle_alpha 90.000000
_cell_angle_beta 90.000000
_cell_angle_gamma 90.000000
_cell_volume 4320.000000
_symmetry_space_group_name_H-M "F M M 2"
_symmetry_group_IT_number 42
_symmetry_cell_setting 'orthorhombic'
loop_
_space_group_symop_operation_xyz
x,y,z
-x,-y,z
-x,y,z
x,-y,z
x,1/2+y,1/2+z
-x,1/2-y,1/2+z
-x,1/2+y,1/2+z
x,1/2-y,1/2+z
1/2+x,y,1/2+z
1/2-x,-y,1/2+z
1/2-x,y,1/2+z
1/2+x,-y,1/2+z
1/2+x,1/2+y,z
1/2-x,1/2-y,z
1/2-x,1/2+y,z
1/2+x,1/2-y,z
loop_
_atom_site_type_symbol
_atom_site_label
_atom_site_fract_x
_atom_site_fract_y
_atom_site_fract_z
Si Si1 0.355406 0.108229 0.131230
Si Si2 0.931797 0.727820 0.970519
Si Si3 0.655976 0.714272 0.276362
Si Si4 0.736261 0.104359 0.936787
Si Si5 0.642673 0.108074 0.545980
O O1 0.342341 0.182606 0.228616
O O2 0.364574 0.000000 0.158922
O O3 0.406306 0.155712 0.060712
O O4 0.302500 0.109164 0.047570
O O5 0.899584 0.706515 0.854003
O O6 0.000000 0.726026 0.966525
O O7 0.906778 0.826736 0.000792
O O8 0.706959 0.673371 0.350750
O O9 0.652833 0.648804 0.169255
O O10 0.733889 0.000000 0.896785
O O11 0.800126 0.122968 0.974384
O O12 0.632227 0.000000 0.546575
#
# Coordination Sequence:
#
# PCOD9370015 Si02
#       5
#    16  16  16  16  16
#     4   9  20  38  61  89 118 151 196 248 301 360
#     4  10  23  40  57  83 120 160 203 251 302 353
#     4  10  21  37  62  87 119 159 199 241 297 360
#     4   9  19  37  60  90 123 151 186 237 301 368
#     4  10  22  39  61  89 120 155 197 247 299 357
#
# _framework density 4.6296299999999997
#
# number of rings (size 3 to 8) (size 9 to 14) (size 15 to 20)
#    0.000    2.400    0.000    0.600    0.000   16.000 
#    0.000    4.000    0.000    4.800    0.000    0.000 
#    0.000    0.000    0.000    0.000    0.000    0.000 
#
# Total GULP energy -111540.001124 kJ/mol
# GULP energy per Si atom -5577.000056 kJ/mol
# Density = 0.461909 g / cm^3
# Si number density = 4.629630 Si / 1000 Ang^3
#
#
#
# Elastic Constant Matrix: (Units=GPa)
#
#
# Indices 1 2 3 4 5 6 
#
# 1 151.0792 63.3731 43.7892 0.0000 0.0000 0.0000
# 2 63.3731 184.2426 57.1408 0.0000 0.0000 0.0000
# 3 43.7892 57.1408 107.6156 0.0000 0.0000 0.0000
# 4 0.0000 0.0000 0.0000 42.4048 0.0000 0.0000
# 5 0.0000 0.0000 0.0000 0.0000 24.0062 0.0000
# 6 0.0000 0.0000 0.0000 0.0000 0.0000 36.2320
#
#
#
# Elastic Compliance Matrix: (Units=1/GPa)
#
#
# Indices 1 2 3 4 5 6 
#
# 1 0.008143 -0.002123 -0.002186 0.000000 0.000000 0.000000
# 2 -0.002123 0.007051 -0.002880 0.000000 0.000000 0.000000
# 3 -0.002186 -0.002880 0.011711 0.000000 0.000000 0.000000
# 4 0.000000 0.000000 0.000000 0.023582 0.000000 0.000000
# 5 0.000000 0.000000 0.000000 0.000000 0.041656 0.000000
# 6 0.000000 0.000000 0.000000 0.000000 0.000000 0.027600
#
#
# Mechanical properties :
#
#
# Convention : Reuss Voigt Hill
#
# Bulk Modulus (GPa) = 79.82849 85.72708 82.77778
# Shear Modulus (GPa) = 36.15388 39.10422 37.62905
#
# Velocity S-wave (km/s) = 4.42329 4.60023 4.51263
# Velocity P-wave (km/s) = 8.32396 8.63767 8.48226
#
# Compressibility (1/GPa) = 0.01252686
#
# Stress axis : x y z
#
# Youngs Moduli (GPa) = 122.80132 141.82243 85.38844
#
# Poissons Ratio (x) = 0.30108 0.18668
# Poissons Ratio (y) = 0.26070 0.24593
# Poissons Ratio (z) = 0.26848 0.40846
#
# Static dielectric constant tensor:
#      x y z
#    x 1.623440 0.000000 0.000000 
#    y 0.000000 1.672340 0.000000 
#    z 0.000000 0.000000 1.687370 
# 
# From -- ./inp_files/7740.got.cif
#   From: 2010.05.17/outbox.ucp.g08.bks.cvg/sg42_4_cif.got.tgz:7740.got - 2010.06.11 16:29:10.
