data_PCOD9370970
_publ_section_title
;
Structure prediction by ZEFSAII (Michael W. Deem and Ramdas Pophale) SiO2 
 PCOD9370970
Probable space group: F D D 2
;
_chemical_formula_sum "Si O2"
_cell_formula_units_Z 64
_cell_length_a 8.734725
_cell_length_b 10.641699
_cell_length_c 27.687649
_cell_angle_alpha 90.000000
_cell_angle_beta 90.000000
_cell_angle_gamma 90.000000
_cell_volume 2573.631052
_symmetry_space_group_name_H-M "F D D 2"
_symmetry_group_IT_number 43
_symmetry_cell_setting 'orthorhombic'
loop_
_space_group_symop_operation_xyz
x,y,z
-x,-y,z
1/4-x,1/4+y,1/4+z
1/4+x,1/4-y,1/4+z
x,1/2+y,1/2+z
-x,1/2-y,1/2+z
1/4-x,3/4+y,3/4+z
1/4+x,3/4-y,3/4+z
1/2+x,y,1/2+z
1/2-x,-y,1/2+z
3/4-x,1/4+y,3/4+z
3/4+x,1/4-y,3/4+z
1/2+x,1/2+y,z
1/2-x,1/2-y,z
3/4-x,3/4+y,1/4+z
3/4+x,3/4-y,1/4+z
loop_
_atom_site_type_symbol
_atom_site_label
_atom_site_fract_x
_atom_site_fract_y
_atom_site_fract_z
Si Si1 0.404263 0.868113 0.664220
Si Si2 0.633235 0.102955 0.559619
Si Si3 0.572036 0.747731 0.499759
Si Si4 0.186136 0.892328 0.462805
O O1 0.313103 0.877265 0.614303
O O2 0.994560 0.756005 0.673789
O O3 0.500000 0.000000 0.665768
O O4 0.304350 0.886550 0.712220
O O5 0.539592 0.227090 0.544126
O O6 0.747845 0.071906 0.516218
O O7 0.500000 0.000000 0.561705
O O8 0.750000 0.750000 0.514292
O O9 0.495556 0.632317 0.471155
O O10 0.250000 0.750000 0.452184
#
# Coordination Sequence:
#
# PCOD9370970 Si02
#       4
#    16  16  16  16
#     4  10  22  42  74 102 146 194 240 305 379 427
#     4  10  20  44  70  98 139 198 243 295 373 438
#     4  10  22  43  67 101 144 182 230 310 358 436
#     4  10  22  44  71 102 144 188 249 300 365 451
#
# _framework density 24.867591000000001
#
# number of rings (size 3 to 8) (size 9 to 14) (size 15 to 20)
#    0.000    2.000    2.500    0.000    0.000    4.000 
#   40.500    0.000    0.000    0.000    0.000    0.000 
#    0.000    0.000    0.000    0.000    0.000    0.000 
#
# Total GULP energy -89199.975561 kJ/mol
# GULP energy per Si atom -5574.998473 kJ/mol
# Density = 2.481099 g / cm^3
# Si number density = 24.867591 Si / 1000 Ang^3
#
#
#
# Elastic Constant Matrix: (Units=GPa)
#
#
# Indices 1 2 3 4 5 6 
#
# 1 92.0416 8.9265 5.1687 0.0000 0.0000 0.0000
# 2 8.9265 144.9440 3.9025 0.0000 0.0000 0.0000
# 3 5.1687 3.9025 124.1756 0.0000 0.0000 0.0000
# 4 0.0000 0.0000 0.0000 16.9832 0.0000 0.0000
# 5 0.0000 0.0000 0.0000 0.0000 22.4060 0.0000
# 6 0.0000 0.0000 0.0000 0.0000 0.0000 53.3995
#
#
#
# Elastic Compliance Matrix: (Units=1/GPa)
#
#
# Indices 1 2 3 4 5 6 
#
# 1 0.010953 -0.000663 -0.000435 0.000000 0.000000 0.000000
# 2 -0.000663 0.006945 -0.000191 0.000000 0.000000 0.000000
# 3 -0.000435 -0.000191 0.008077 0.000000 0.000000 0.000000
# 4 0.000000 0.000000 0.000000 0.058882 0.000000 0.000000
# 5 0.000000 0.000000 0.000000 0.000000 0.044631 0.000000
# 6 0.000000 0.000000 0.000000 0.000000 0.000000 0.018727
#
#
# Mechanical properties :
#
#
# Convention : Reuss Voigt Hill
#
# Bulk Modulus (GPa) = 42.73778 44.12852 43.43315
# Shear Modulus (GPa) = 31.52746 41.43531 36.48138
#
# Velocity S-wave (km/s) = 3.56450 4.08639 3.83433
# Velocity P-wave (km/s) = 5.84502 6.32840 6.09151
#
# Compressibility (1/GPa) = 0.02339850
#
# Stress axis : x y z
#
# Youngs Moduli (GPa) = 91.29608 143.98489 123.80509
#
# Poissons Ratio (x) = 0.09544 0.05387
# Poissons Ratio (y) = 0.06052 0.02361
# Poissons Ratio (z) = 0.03972 0.02745
#
# Static dielectric constant tensor:
#      x y z
#    x 2.107920 0.000000 0.000000 
#    y 0.000000 2.164100 0.000000 
#    z 0.000000 0.000000 1.936640 
# 
# From -- ./inp_files/27664.got.cif
#   From: 2010.05.17/outbox.cif.g08.bks.cpg/sg43_14_cif.got.tgz:27664.got - 2010.06.03 19:21:55.
