data_PCOD9370492
_publ_section_title
;
Structure prediction by ZEFSAII (Michael W. Deem and Ramdas Pophale) SiO2 
 PCOD9370492
Probable space group: F D D 2
;
_chemical_formula_sum "Si O2"
_cell_formula_units_Z 112
_cell_length_a 28.366978
_cell_length_b 16.340533
_cell_length_c 10.451589
_cell_angle_alpha 90.000000
_cell_angle_beta 90.000000
_cell_angle_gamma 90.000000
_cell_volume 4844.641146
_symmetry_space_group_name_H-M "F D D 2"
_symmetry_group_IT_number 43
_symmetry_cell_setting 'orthorhombic'
loop_
_space_group_symop_operation_xyz
x,y,z
-x,-y,z
1/4-x,1/4+y,1/4+z
1/4+x,1/4-y,1/4+z
x,1/2+y,1/2+z
-x,1/2-y,1/2+z
1/4-x,3/4+y,3/4+z
1/4+x,3/4-y,3/4+z
1/2+x,y,1/2+z
1/2-x,-y,1/2+z
3/4-x,1/4+y,3/4+z
3/4+x,1/4-y,3/4+z
1/2+x,1/2+y,z
1/2-x,1/2-y,z
3/4-x,3/4+y,1/4+z
3/4+x,3/4-y,1/4+z
loop_
_atom_site_type_symbol
_atom_site_label
_atom_site_fract_x
_atom_site_fract_y
_atom_site_fract_z
Si Si1 0.215702 0.813487 0.978120
Si Si2 0.631418 0.368544 0.260408
Si Si3 0.175251 0.711207 0.210539
Si Si4 0.714006 0.175381 0.665875
Si Si5 0.605585 0.188353 0.735383
Si Si6 0.035867 0.331349 0.151367
Si Si7 0.031591 0.308550 0.651890
O O1 0.250000 0.750000 0.904185
O O2 0.167021 0.853361 0.927867
O O3 0.247030 0.893757 0.000428
O O4 0.201825 0.758129 0.097048
O O5 0.661101 0.288481 0.297149
O O6 0.618083 0.420180 0.384112
O O7 0.583366 0.329781 0.200255
O O8 0.650141 0.423122 0.140065
O O9 0.202627 0.640892 0.284107
O O10 0.750000 0.250000 0.656055
O O11 0.660523 0.198808 0.705481
O O12 0.713211 0.134491 0.527995
O O13 0.727815 0.104784 0.768125
O O14 0.576013 0.261954 0.673701
O O15 0.986406 0.283285 0.139592
#
# Coordination Sequence:
#
# PCOD9370492 Si02
#       7
#    16  16  16  16  16  16  16
#     4  10  19  40  71 102 128 174 224 286 330 415
#     4  10  23  44  69  98 128 181 225 278 339 431
#     4  11  25  43  67 100 136 173 229 281 351 404
#     4  11  26  45  67  98 140 180 229 285 348 420
#     4   9  24  42  69  99 137 178 229 274 356 420
#     4  11  27  43  67 101 137 176 223 295 349 407
#     4  10  23  44  69  97 129 179 229 274 344 421
#
# _framework density 23.118326
#
# number of rings (size 3 to 8) (size 9 to 14) (size 15 to 20)
#    0.000    1.714    1.429    0.429   12.000    2.857 
#    2.571    0.000    0.000    0.000    0.000    0.000 
#    0.000    0.000    0.000    0.000    0.000    0.000 
#
# Total GULP energy -156342.264691 kJ/mol
# GULP energy per Si atom -5583.652310 kJ/mol
# Density = 2.306571 g / cm^3
# Si number density = 23.118326 Si / 1000 Ang^3
#
#
#
# Elastic Constant Matrix: (Units=GPa)
#
#
# Indices 1 2 3 4 5 6 
#
# 1 80.2576 36.8795 -3.3488 0.0000 0.0000 0.0000
# 2 36.8795 132.9148 41.6852 0.0000 0.0000 0.0000
# 3 -3.3488 41.6852 76.1926 0.0000 0.0000 0.0000
# 4 0.0000 0.0000 0.0000 35.6050 0.0000 0.0000
# 5 0.0000 0.0000 0.0000 0.0000 -35.3146 0.0000
# 6 0.0000 0.0000 0.0000 0.0000 0.0000 41.6154
#
#
#
# Elastic Compliance Matrix: (Units=1/GPa)
#
#
# Indices 1 2 3 4 5 6 
#
# 1 0.015038 -0.005287 0.003553 0.000000 0.000000 0.000000
# 2 -0.005287 0.010941 -0.006218 0.000000 0.000000 0.000000
# 3 0.003553 -0.006218 0.016683 0.000000 0.000000 0.000000
# 4 0.000000 0.000000 0.000000 0.028086 0.000000 0.000000
# 5 0.000000 0.000000 0.000000 0.000000 -0.028317 0.000000
# 6 0.000000 0.000000 0.000000 0.000000 0.000000 0.024030
#
#
# Mechanical properties :
#
#
# Convention : Reuss Voigt Hill
#
# Bulk Modulus (GPa) = 37.37211 48.86632 43.11922
# Shear Modulus (GPa) = 54.77542 22.65778 38.71660
#
# Velocity S-wave (km/s) = 4.87288 3.13402 4.09677
# Velocity P-wave (km/s) = 6.91814 5.85487 6.40859
#
# Compressibility (1/GPa) = 0.02675792
#
# Stress axis : x y z
#
# Youngs Moduli (GPa) = 66.50028 91.40206 59.94219
#
# Poissons Ratio (x) = 0.48323 -0.21300
# Poissons Ratio (y) = 0.35158 0.37272
# Poissons Ratio (z) = -0.23630 0.56834
#
# Static dielectric constant tensor:
#      x y z
#    x 2.005530 0.000000 0.000000 
#    y 0.000000 1.885750 0.000000 
#    z 0.000000 0.000000 1.879010 
# 
# From -- ./inp_files/6315.got.cif
#   From: 2010.05.17/outbox.cif.g08.bks.cpg/sg43_4_cif.got.tgz:6315.got - 2010.06.03 19:21:55.
