data_PCOD9370860
_publ_section_title
;
Structure prediction by ZEFSAII (Michael W. Deem and Ramdas Pophale) SiO2 
 PCOD9370860
Probable space group: F D D 2
;
_chemical_formula_sum "Si O2"
_cell_formula_units_Z 104
_cell_length_a 16.144167
_cell_length_b 10.773593
_cell_length_c 29.532575
_cell_angle_alpha 90.000000
_cell_angle_beta 90.000000
_cell_angle_gamma 90.000000
_cell_volume 5136.620987
_symmetry_space_group_name_H-M "F D D 2"
_symmetry_group_IT_number 43
_symmetry_cell_setting 'orthorhombic'
loop_
_space_group_symop_operation_xyz
x,y,z
-x,-y,z
1/4-x,1/4+y,1/4+z
1/4+x,1/4-y,1/4+z
x,1/2+y,1/2+z
-x,1/2-y,1/2+z
1/4-x,3/4+y,3/4+z
1/4+x,3/4-y,3/4+z
1/2+x,y,1/2+z
1/2-x,-y,1/2+z
3/4-x,1/4+y,3/4+z
3/4+x,1/4-y,3/4+z
1/2+x,1/2+y,z
1/2-x,1/2-y,z
3/4-x,3/4+y,1/4+z
3/4+x,3/4-y,1/4+z
loop_
_atom_site_type_symbol
_atom_site_label
_atom_site_fract_x
_atom_site_fract_y
_atom_site_fract_z
Si Si1 0.815272 0.065958 0.611550
Si Si2 0.183035 0.997570 0.425216
Si Si3 0.250000 0.250000 0.455218
Si Si4 0.000000 0.000000 0.937244
Si Si5 0.814723 0.652941 0.600892
Si Si6 0.273101 0.611990 0.510152
Si Si7 0.619671 0.652007 0.258118
Si Si8 0.000000 0.500000 0.133294
O O1 0.800780 0.160097 0.653231
O O2 0.802150 0.122403 0.561714
O O3 0.908720 0.013193 0.611110
O O4 0.741775 0.963544 0.615281
O O5 0.233286 0.126246 0.427149
O O6 0.107182 0.028486 0.392762
O O7 0.161749 0.952420 0.476075
O O8 0.238038 0.882990 0.407827
O O9 0.173359 0.280696 0.487302
O O10 0.941353 0.070764 0.972661
O O11 0.750000 0.750000 0.579771
O O12 0.881317 0.618733 0.561876
O O13 0.250000 0.750000 0.494856
O O14 0.194986 0.517959 0.507259
#
# Coordination Sequence:
#
# PCOD9370860 Si02
#       8
#    16  16   8   8  16  16  16   8
#     4  11  24  44  69  97 142 181 233 286 361 415
#     4  11  23  39  71  95 136 177 234 280 346 417
#     4  10  20  41  62  93 124 185 218 275 350 414
#     4  12  24  44  68 106 132 184 234 294 338 432
#     4  11  22  43  65  93 133 188 226 286 344 414
#     4  10  21  44  68  99 140 186 223 292 361 415
#     4  10  23  40  68  91 138 179 236 281 344 411
#     4  12  24  43  64 103 136 177 226 297 340 416
#
# _framework density 20.246773999999998
#
# number of rings (size 3 to 8) (size 9 to 14) (size 15 to 20)
#    0.000    1.231    3.846    2.769    0.000    0.615 
#    4.154    0.000    0.000    0.000    0.000    0.000 
#    0.000    0.000    0.000    0.000    0.000    0.000 
#
# Total GULP energy -144835.722805 kJ/mol
# GULP energy per Si atom -5570.604723 kJ/mol
# Density = 2.020069 g / cm^3
# Si number density = 20.246774 Si / 1000 Ang^3
#
#
#
# Elastic Constant Matrix: (Units=GPa)
#
#
# Indices 1 2 3 4 5 6 
#
# 1 75.9601 20.5126 61.5743 0.0000 0.0000 0.0000
# 2 20.5126 114.8482 39.8748 0.0000 0.0000 0.0000
# 3 61.5743 39.8748 129.9923 0.0000 0.0000 0.0000
# 4 0.0000 0.0000 0.0000 3.8861 0.0000 0.0000
# 5 0.0000 0.0000 0.0000 0.0000 22.0108 0.0000
# 6 0.0000 0.0000 0.0000 0.0000 0.0000 24.7364
#
#
#
# Elastic Compliance Matrix: (Units=1/GPa)
#
#
# Indices 1 2 3 4 5 6 
#
# 1 0.021382 -0.000339 -0.010024 0.000000 0.000000 0.000000
# 2 -0.000339 0.009750 -0.002831 0.000000 0.000000 0.000000
# 3 -0.010024 -0.002831 0.013309 0.000000 0.000000 0.000000
# 4 0.000000 0.000000 0.000000 0.257325 0.000000 0.000000
# 5 0.000000 0.000000 0.000000 0.000000 0.045432 0.000000
# 6 0.000000 0.000000 0.000000 0.000000 0.000000 0.040426
#
#
# Mechanical properties :
#
#
# Convention : Reuss Voigt Hill
#
# Bulk Modulus (GPa) = 55.38660 62.74710 59.06685
# Shear Modulus (GPa) = 11.90390 23.38259 17.64324
#
# Velocity S-wave (km/s) = 2.42738 3.40204 2.95517
# Velocity P-wave (km/s) = 5.93897 6.81838 6.39381
#
# Compressibility (1/GPa) = 0.01805491
#
# Stress axis : x y z
#
# Youngs Moduli (GPa) = 46.76811 102.56022 75.13533
#
# Poissons Ratio (x) = 0.03472 0.75318
# Poissons Ratio (y) = 0.01583 0.21267
# Poissons Ratio (z) = 0.46882 0.29030
#
# Static dielectric constant tensor:
#      x y z
#    x 1.809770 0.000000 0.000000 
#    y 0.000000 1.732700 0.000000 
#    z 0.000000 0.000000 1.767990 
# 
# From -- ./inp_files/26042.got.cif
#   From: 2010.05.17/outbox.cif.g08.bks.cpg/sg43_14_cif.got.tgz:26042.got - 2010.06.03 19:21:55.
