data_PCOD9370731
_publ_section_title
;
Structure prediction by ZEFSAII (Michael W. Deem and Ramdas Pophale) SiO2 
 PCOD9370731
Probable space group: F D D 2
;
_chemical_formula_sum "Si O2"
_cell_formula_units_Z 104
_cell_length_a 22.233633
_cell_length_b 25.944199
_cell_length_c 7.202858
_cell_angle_alpha 90.000000
_cell_angle_beta 90.000000
_cell_angle_gamma 90.000000
_cell_volume 4154.851944
_symmetry_space_group_name_H-M "F D D 2"
_symmetry_group_IT_number 43
_symmetry_cell_setting 'orthorhombic'
loop_
_space_group_symop_operation_xyz
x,y,z
-x,-y,z
1/4-x,1/4+y,1/4+z
1/4+x,1/4-y,1/4+z
x,1/2+y,1/2+z
-x,1/2-y,1/2+z
1/4-x,3/4+y,3/4+z
1/4+x,3/4-y,3/4+z
1/2+x,y,1/2+z
1/2-x,-y,1/2+z
3/4-x,1/4+y,3/4+z
3/4+x,1/4-y,3/4+z
1/2+x,1/2+y,z
1/2-x,1/2-y,z
3/4-x,3/4+y,1/4+z
3/4+x,3/4-y,1/4+z
loop_
_atom_site_type_symbol
_atom_site_label
_atom_site_fract_x
_atom_site_fract_y
_atom_site_fract_z
Si Si1 0.140340 0.272663 0.840900
Si Si2 0.685445 0.830908 0.183847
Si Si3 0.270886 0.928405 0.980424
Si Si4 0.854651 0.064042 0.825843
Si Si5 0.250000 0.250000 0.454349
Si Si6 0.339285 0.327557 0.458507
Si Si7 0.291533 0.630391 0.317093
O O1 0.141081 0.300323 0.046057
O O2 0.076044 0.282685 0.747971
O O3 0.139886 0.214133 0.911831
O O4 0.189956 0.311341 0.747364
O O5 0.727956 0.859279 0.028403
O O6 0.650895 0.874846 0.294721
O O7 0.719038 0.791826 0.317910
O O8 0.215582 0.950469 0.862055
O O9 0.298938 0.876060 0.899790
O O10 0.247493 0.904195 0.178175
O O11 0.885907 0.053515 0.020488
O O12 0.301682 0.282627 0.556450
O O13 0.394657 0.350696 0.571356
#
# Coordination Sequence:
#
# PCOD9370731 Si02
#       7
#    16  16  16  16   8  16  16
#     4   9  21  41  58  88 125 156 200 254 306 367
#     4  10  22  39  62  88 122 158 206 256 310 364
#     4  10  20  40  63  88 126 162 202 257 306 371
#     4  11  21  40  64  89 121 163 208 254 306 374
#     4  12  20  40  66  92 120 168 210 250 314 372
#     4  10  20  39  62  86 123 159 203 254 302 372
#     4   8  20  41  59  87 127 152 200 259 302 370
#
# _framework density 25.030975000000002
#
# number of rings (size 3 to 8) (size 9 to 14) (size 15 to 20)
#    0.923    1.231    3.077    0.000    0.000    2.462 
#    5.538    0.769    0.000    0.000    0.000    0.000 
#    0.000    0.000    0.000    0.000    0.000    0.000 
#
# Total GULP energy -145039.778098 kJ/mol
# GULP energy per Si atom -5578.453004 kJ/mol
# Density = 2.497400 g / cm^3
# Si number density = 25.030975 Si / 1000 Ang^3
#
#
#
# Elastic Constant Matrix: (Units=GPa)
#
#
# Indices 1 2 3 4 5 6 
#
# 1 33.4247 -22.6753 -3.1320 -0.0033 0.0005 0.0035
# 2 -22.6753 75.7996 -8.4483 -0.0033 -0.0018 0.0025
# 3 -3.1320 -8.4483 56.1093 -0.0064 0.0073 0.0050
# 4 -0.0033 -0.0033 -0.0064 37.1855 0.0006 0.0021
# 5 0.0005 -0.0018 0.0073 0.0006 20.5409 0.0002
# 6 0.0035 0.0025 0.0050 0.0021 0.0002 10.3936
#
#
#
# Elastic Compliance Matrix: (Units=1/GPa)
#
#
# Indices 1 2 3 4 5 6 
#
# 1 0.038372 0.011918 0.003936 0.000005 -0.000001 -0.000018
# 2 0.011918 0.017119 0.003243 0.000003 0.000000 -0.000010
# 3 0.003936 0.003243 0.018530 0.000004 -0.000006 -0.000011
# 4 0.000005 0.000003 0.000004 0.026892 -0.000001 -0.000005
# 5 -0.000001 0.000000 -0.000006 -0.000001 0.048683 -0.000001
# 6 -0.000018 -0.000010 -0.000011 -0.000005 -0.000001 0.096213
#
#
# Mechanical properties :
#
#
# Convention : Reuss Voigt Hill
#
# Bulk Modulus (GPa) = 8.91150 10.75805 9.83477
# Shear Modulus (GPa) = 20.40639 26.92996 23.66817
#
# Velocity S-wave (km/s) = 2.85835 3.28360 3.07832
# Velocity P-wave (km/s) = 3.80282 4.32241 4.07091
#
# Compressibility (1/GPa) = 0.11221460
#
# Stress axis : x y z
#
# Youngs Moduli (GPa) = 26.06088 58.41394 53.96548
#
# Poissons Ratio (x) = -0.69615 -0.21242
# Poissons Ratio (y) = -0.31058 -0.17500
# Poissons Ratio (z) = -0.10258 -0.18943
#
# Static dielectric constant tensor:
#      x y z
#    x 2.072280 0.000000 0.000000 
#    y 0.000000 2.014780 0.000000 
#    z 0.000000 0.000000 2.044710 
# 
# From -- ./inp_files/3821.got.cif
#   From: 2010.05.17/outbox.cif.g08.bks.cpg/sg43_2_cif.got.tgz:3821.got - 2010.06.03 19:21:55.
