data_PCOD9370440
_publ_section_title
;
Structure prediction by ZEFSAII (Michael W. Deem and Ramdas Pophale) SiO2 
 PCOD9370440
Probable space group: F D D 2
;
_chemical_formula_sum "Si O2"
_cell_formula_units_Z 112
_cell_length_a 14.723449
_cell_length_b 26.459035
_cell_length_c 13.669148
_cell_angle_alpha 90.000000
_cell_angle_beta 90.000000
_cell_angle_gamma 90.000000
_cell_volume 5325.066098
_symmetry_space_group_name_H-M "F D D 2"
_symmetry_group_IT_number 43
_symmetry_cell_setting 'orthorhombic'
loop_
_space_group_symop_operation_xyz
x,y,z
-x,-y,z
1/4-x,1/4+y,1/4+z
1/4+x,1/4-y,1/4+z
x,1/2+y,1/2+z
-x,1/2-y,1/2+z
1/4-x,3/4+y,3/4+z
1/4+x,3/4-y,3/4+z
1/2+x,y,1/2+z
1/2-x,-y,1/2+z
3/4-x,1/4+y,3/4+z
3/4+x,1/4-y,3/4+z
1/2+x,1/2+y,z
1/2-x,1/2-y,z
3/4-x,3/4+y,1/4+z
3/4+x,3/4-y,1/4+z
loop_
_atom_site_type_symbol
_atom_site_label
_atom_site_fract_x
_atom_site_fract_y
_atom_site_fract_z
Si Si1 0.464950 0.775224 0.776230
Si Si2 0.081044 0.463288 0.809336
Si Si3 0.940847 0.389353 0.769112
Si Si4 0.690075 0.894659 0.143881
Si Si5 0.906757 0.524060 0.042936
Si Si6 0.279051 0.462607 0.308357
Si Si7 0.122259 0.329643 0.307165
O O1 0.431778 0.831424 0.800125
O O2 0.566241 0.759416 0.812301
O O3 0.476540 0.777215 0.657980
O O4 0.398287 0.729924 0.806683
O O5 0.175561 0.485240 0.770982
O O6 0.000000 0.500000 0.771804
O O7 0.042813 0.408255 0.789035
O O8 0.087864 0.470398 0.925872
O O9 0.865653 0.424472 0.823465
O O10 0.923596 0.400442 0.653768
O O11 0.607843 0.920767 0.088355
O O12 0.720260 0.934718 0.227612
O O13 0.774149 0.892937 0.069095
O O14 0.668645 0.845380 0.206165
O O15 0.000000 0.500000 0.078398
#
# Coordination Sequence:
#
# PCOD9370440 Si02
#       7
#    16  16  16  16  16  16  16
#     4  10  20  40  62  88 126 165 206 266 314 377
#     4   8  16  34  62  85 117 154 193 258 311 358
#     4  10  19  38  63  95 124 161 213 266 323 373
#     4  10  20  41  61  86 126 169 209 256 316 394
#     4   9  19  39  60  83 123 161 208 255 314 373
#     4   9  18  37  59  85 123 158 197 259 313 369
#     4  10  22  41  64  90 130 170 209 262 331 385
#
# _framework density 21.032603000000002
#
# number of rings (size 3 to 8) (size 9 to 14) (size 15 to 20)
#    0.000    2.571    1.429    0.857    0.000    0.000 
#   23.143    5.714    0.000    0.000    0.000    0.000 
#    0.000    0.000    0.000    0.000    0.000    0.000 
#
# Total GULP energy -156132.268010 kJ/mol
# GULP energy per Si atom -5576.152429 kJ/mol
# Density = 2.098473 g / cm^3
# Si number density = 21.032603 Si / 1000 Ang^3
#
#
#
# Elastic Constant Matrix: (Units=GPa)
#
#
# Indices 1 2 3 4 5 6 
#
# 1 35.6238 23.8621 2.4020 0.0000 0.0000 0.0000
# 2 23.8621 126.2163 17.2080 0.0000 0.0000 0.0000
# 3 2.4020 17.2080 28.6203 0.0000 0.0000 0.0000
# 4 0.0000 0.0000 0.0000 30.1400 0.0000 0.0000
# 5 0.0000 0.0000 0.0000 0.0000 25.0730 0.0000
# 6 0.0000 0.0000 0.0000 0.0000 0.0000 18.9190
#
#
#
# Elastic Compliance Matrix: (Units=1/GPa)
#
#
# Indices 1 2 3 4 5 6 
#
# 1 0.032170 -0.006224 0.001042 0.000000 0.000000 0.000000
# 2 -0.006224 0.009835 -0.005391 0.000000 0.000000 0.000000
# 3 0.001042 -0.005391 0.038094 0.000000 0.000000 0.000000
# 4 0.000000 0.000000 0.000000 0.033178 0.000000 0.000000
# 5 0.000000 0.000000 0.000000 0.000000 0.039883 0.000000
# 6 0.000000 0.000000 0.000000 0.000000 0.000000 0.052857
#
#
# Mechanical properties :
#
#
# Convention : Reuss Voigt Hill
#
# Bulk Modulus (GPa) = 16.96251 30.82275 23.89263
# Shear Modulus (GPa) = 20.25823 24.62564 22.44194
#
# Velocity S-wave (km/s) = 3.10689 3.42545 3.27005
# Velocity P-wave (km/s) = 4.57741 5.50741 5.06380
#
# Compressibility (1/GPa) = 0.05895355
#
# Stress axis : x y z
#
# Youngs Moduli (GPa) = 31.08489 101.68209 26.25095
#
# Poissons Ratio (x) = 0.63288 -0.02736
# Poissons Ratio (y) = 0.19348 0.14151
# Poissons Ratio (z) = -0.03240 0.54814
#
# Static dielectric constant tensor:
#      x y z
#    x 1.813050 0.000000 0.000000 
#    y 0.000000 1.797630 0.000000 
#    z 0.000000 0.000000 1.765420 
# 
# From -- ./inp_files/10276.got.cif
#   From: 2010.05.17/outbox.cif.g08.bks.cpg/sg43_6_cif.got.tgz:10276.got - 2010.06.03 19:21:55.
