data_PCOD9370200
_publ_section_title
;
Structure prediction by ZEFSAII (Michael W. Deem and Ramdas Pophale) SiO2 
 PCOD9370200
Probable space group: F D D 2
;
_chemical_formula_sum "Si O2"
_cell_formula_units_Z 96
_cell_length_a 12.521629
_cell_length_b 12.646338
_cell_length_c 34.113336
_cell_angle_alpha 90.000000
_cell_angle_beta 90.000000
_cell_angle_gamma 90.000000
_cell_volume 5401.940657
_symmetry_space_group_name_H-M "F D D 2"
_symmetry_group_IT_number 43
_symmetry_cell_setting 'orthorhombic'
loop_
_space_group_symop_operation_xyz
x,y,z
-x,-y,z
1/4-x,1/4+y,1/4+z
1/4+x,1/4-y,1/4+z
x,1/2+y,1/2+z
-x,1/2-y,1/2+z
1/4-x,3/4+y,3/4+z
1/4+x,3/4-y,3/4+z
1/2+x,y,1/2+z
1/2-x,-y,1/2+z
3/4-x,1/4+y,3/4+z
3/4+x,1/4-y,3/4+z
1/2+x,1/2+y,z
1/2-x,1/2-y,z
3/4-x,3/4+y,1/4+z
3/4+x,3/4-y,1/4+z
loop_
_atom_site_type_symbol
_atom_site_label
_atom_site_fract_x
_atom_site_fract_y
_atom_site_fract_z
Si Si1 0.655284 0.899047 0.739130
Si Si2 0.234801 0.478993 0.168777
Si Si3 0.250000 0.750000 0.044303
Si Si4 0.000000 0.500000 0.047694
Si Si5 0.750000 0.750000 0.950194
Si Si6 0.768636 0.476967 0.080207
Si Si7 0.776285 0.466926 0.496392
Si Si8 0.250000 0.750000 0.705318
O O1 0.744766 0.848504 0.767511
O O2 0.497176 0.895653 0.820292
O O3 0.701151 0.945185 0.699038
O O4 0.563951 0.806585 0.736010
O O5 0.108671 0.500271 0.175156
O O6 0.265475 0.496854 0.123811
O O7 0.252815 0.357329 0.180333
O O8 0.149918 0.740159 0.014972
O O9 0.895090 0.496140 0.073921
O O10 0.750854 0.644582 0.976630
O O11 0.718957 0.539611 0.043519
O O12 0.892045 0.498555 0.480542
#
# Coordination Sequence:
#
# PCOD9370200 Si02
#       8
#    16  16   8   8   8  16  16   8
#     4  10  18  35  59  78 101 144 185 215 257 326
#     4  11  21  34  55  81 109 137 177 227 269 310
#     4   8  18  33  53  76 103 134 175 220 261 307
#     4   8  17  33  54  78 107 136 171 214 262 311
#     4  10  21  35  54  80 109 144 177 214 266 327
#     4  10  19  33  53  81 108 135 174 223 265 307
#     4   9  20  38  57  76 105 144 182 212 264 330
#     4  10  22  39  53  74 111 146 169 214 279 331
#
# _framework density 17.771391999999999
#
# number of rings (size 3 to 8) (size 9 to 14) (size 15 to 20)
#    0.000    2.667    0.000    4.500    0.000    2.667 
#    0.000    4.167    0.000    2.000    0.000    0.000 
#    0.000    0.000    0.000    0.000    0.000    0.000 
#
# Total GULP energy -133762.501403 kJ/mol
# GULP energy per Si atom -5573.437558 kJ/mol
# Density = 1.773094 g / cm^3
# Si number density = 17.771392 Si / 1000 Ang^3
#
#
#
# Elastic Constant Matrix: (Units=GPa)
#
#
# Indices 1 2 3 4 5 6 
#
# 1 77.8143 41.3065 39.7291 0.0000 0.0000 0.0000
# 2 41.3065 82.5951 45.1205 0.0000 0.0000 0.0000
# 3 39.7291 45.1205 148.7205 0.0000 0.0000 0.0000
# 4 0.0000 0.0000 0.0000 -59.2930 0.0000 0.0000
# 5 0.0000 0.0000 0.0000 0.0000 6.2781 0.0000
# 6 0.0000 0.0000 0.0000 0.0000 0.0000 35.6749
#
#
#
# Elastic Compliance Matrix: (Units=1/GPa)
#
#
# Indices 1 2 3 4 5 6 
#
# 1 0.018254 -0.007750 -0.002525 0.000000 0.000000 0.000000
# 2 -0.007750 0.017802 -0.003331 0.000000 0.000000 0.000000
# 3 -0.002525 -0.003331 0.008409 0.000000 0.000000 0.000000
# 4 0.000000 0.000000 0.000000 -0.016865 0.000000 0.000000
# 5 0.000000 0.000000 0.000000 0.000000 0.159284 0.000000
# 6 0.000000 0.000000 0.000000 0.000000 0.000000 0.028031
#
#
# Mechanical properties :
#
#
# Convention : Reuss Voigt Hill
#
# Bulk Modulus (GPa) = 57.95624 62.38247 60.16936
# Shear Modulus (GPa) = 20.17116 8.73024 14.45070
#
# Velocity S-wave (km/s) = 3.37268 2.21883 2.85466
# Velocity P-wave (km/s) = 6.91734 6.46090 6.69301
#
# Compressibility (1/GPa) = 0.01725440
#
# Stress axis : x y z
#
# Youngs Moduli (GPa) = 54.78208 56.17189 118.91751
#
# Poissons Ratio (x) = 0.43531 0.30030
# Poissons Ratio (y) = 0.42454 0.39610
# Poissons Ratio (z) = 0.13834 0.18710
#
# Static dielectric constant tensor:
#      x y z
#    x 1.637380 0.000000 0.000000 
#    y 0.000000 1.622480 0.000000 
#    z 0.000000 0.000000 1.579720 
# 
# From -- ./inp_files/29065.got.cif
#   From: 2010.05.17/outbox.cif.g08.bks.cpg/sg43_15_cif.got.tgz:29065.got - 2010.06.03 19:21:55.
