data_PCOD9370202
_publ_section_title
;
Structure prediction by ZEFSAII (Michael W. Deem and Ramdas Pophale) SiO2 
 PCOD9370202
Probable space group: F D D 2
;
_chemical_formula_sum "Si O2"
_cell_formula_units_Z 128
_cell_length_a 11.067463
_cell_length_b 27.121203
_cell_length_c 17.385872
_cell_angle_alpha 90.000000
_cell_angle_beta 90.000000
_cell_angle_gamma 90.000000
_cell_volume 5218.593945
_symmetry_space_group_name_H-M "F D D 2"
_symmetry_group_IT_number 43
_symmetry_cell_setting 'orthorhombic'
loop_
_space_group_symop_operation_xyz
x,y,z
-x,-y,z
1/4-x,1/4+y,1/4+z
1/4+x,1/4-y,1/4+z
x,1/2+y,1/2+z
-x,1/2-y,1/2+z
1/4-x,3/4+y,3/4+z
1/4+x,3/4-y,3/4+z
1/2+x,y,1/2+z
1/2-x,-y,1/2+z
3/4-x,1/4+y,3/4+z
3/4+x,1/4-y,3/4+z
1/2+x,1/2+y,z
1/2-x,1/2-y,z
3/4-x,3/4+y,1/4+z
3/4+x,3/4-y,1/4+z
loop_
_atom_site_type_symbol
_atom_site_label
_atom_site_fract_x
_atom_site_fract_y
_atom_site_fract_z
Si Si1 0.521368 0.189497 0.790800
Si Si2 0.915472 0.453687 0.633742
Si Si3 0.997417 0.290241 0.246877
Si Si4 0.778249 0.889103 0.309934
Si Si5 0.305269 0.351982 0.944322
Si Si6 0.757397 0.329172 0.268548
Si Si7 0.633240 0.512395 0.305291
Si Si8 0.704996 0.563294 0.716712
O O1 0.555974 0.236557 0.738010
O O2 0.607294 0.142691 0.779144
O O3 0.381977 0.180699 0.774524
O O4 0.509076 0.202659 0.883439
O O5 0.796417 0.448998 0.582495
O O6 0.892863 0.463274 0.721999
O O7 0.000000 0.500000 0.607237
O O8 0.977854 0.401498 0.618698
O O9 0.853228 0.289008 0.240125
O O10 0.031022 0.339059 0.200359
O O11 0.675191 0.902648 0.246450
O O12 0.812772 0.940696 0.348556
O O13 0.307240 0.340802 0.854282
O O14 0.192254 0.316887 0.972350
O O15 0.766418 0.379017 0.220510
O O16 0.500000 0.500000 0.335042
O O17 0.725086 0.467995 0.282923
#
# Coordination Sequence:
#
# PCOD9370202 Si02
#       8
#    16  16  16  16  16  16  16  16
#     4  11  20  36  62  89 119 165 213 266 312 385
#     4  10  18  35  59  84 116 152 206 259 309 373
#     4  10  18  35  59  88 115 161 210 256 316 383
#     4  11  22  36  60  92 122 158 211 265 322 374
#     4   9  22  36  60  90 128 163 202 269 322 392
#     4  10  21  38  58  90 123 163 210 261 331 384
#     4  11  21  36  59  87 118 161 204 258 313 384
#     4  10  21  40  60  86 126 164 211 260 319 387
#
# _framework density 24.52768
#
# number of rings (size 3 to 8) (size 9 to 14) (size 15 to 20)
#    0.000    1.750    2.500    2.625    0.000    0.500 
#    0.000    2.500    0.000    6.000    0.000    0.000 
#    0.000    0.000    0.000    0.000    0.000    0.000 
#
# Total GULP energy -178513.822576 kJ/mol
# GULP energy per Si atom -5578.556955 kJ/mol
# Density = 2.447185 g / cm^3
# Si number density = 24.527680 Si / 1000 Ang^3
#
#
#
# Elastic Constant Matrix: (Units=GPa)
#
#
# Indices 1 2 3 4 5 6 
#
# 1 147.9650 50.8229 24.5763 0.0000 0.0000 0.0000
# 2 50.8229 117.0296 26.3873 0.0000 0.0000 0.0000
# 3 24.5763 26.3873 59.6375 0.0000 0.0000 0.0000
# 4 0.0000 0.0000 0.0000 33.0154 0.0000 0.0000
# 5 0.0000 0.0000 0.0000 0.0000 44.0860 0.0000
# 6 0.0000 0.0000 0.0000 0.0000 0.0000 45.9779
#
#
#
# Elastic Compliance Matrix: (Units=1/GPa)
#
#
# Indices 1 2 3 4 5 6 
#
# 1 0.008151 -0.003091 -0.001991 0.000000 0.000000 0.000000
# 2 -0.003091 0.010664 -0.003445 0.000000 0.000000 0.000000
# 3 -0.001991 -0.003445 0.019113 0.000000 0.000000 0.000000
# 4 0.000000 0.000000 0.000000 0.030289 0.000000 0.000000
# 5 0.000000 0.000000 0.000000 0.000000 0.022683 0.000000
# 6 0.000000 0.000000 0.000000 0.000000 0.000000 0.021750
#
#
# Mechanical properties :
#
#
# Convention : Reuss Voigt Hill
#
# Bulk Modulus (GPa) = 47.90689 58.68947 53.29818
# Shear Modulus (GPa) = 36.58724 39.47226 38.02975
#
# Velocity S-wave (km/s) = 3.86641 4.01595 3.94189
# Velocity P-wave (km/s) = 6.28540 6.74416 6.51882
#
# Compressibility (1/GPa) = 0.02087383
#
# Stress axis : x y z
#
# Youngs Moduli (GPa) = 122.68918 93.77605 52.32117
#
# Poissons Ratio (x) = 0.28983 0.10419
# Poissons Ratio (y) = 0.37919 0.18023
# Poissons Ratio (z) = 0.24432 0.32302
#
# Static dielectric constant tensor:
#      x y z
#    x 1.974090 0.000000 0.000000 
#    y 0.000000 2.020230 0.000000 
#    z 0.000000 0.000000 1.992030 
# 
# From -- ./inp_files/21380.got.cif
#   From: 2010.05.17/outbox.cif.g08.bks.cpg/sg43_11_cif.got.tgz:21380.got - 2010.06.03 19:21:55.
