data_PCOD9370182
_publ_section_title
;
Structure prediction by ZEFSAII (Michael W. Deem and Ramdas Pophale) SiO2 
 PCOD9370182
Probable space group: F D D 2
;
_chemical_formula_sum "Si O2"
_cell_formula_units_Z 64
_cell_length_a 12.090834
_cell_length_b 22.050039
_cell_length_c 12.200277
_cell_angle_alpha 90.000000
_cell_angle_beta 90.000000
_cell_angle_gamma 90.000000
_cell_volume 3252.634856
_symmetry_space_group_name_H-M "F D D 2"
_symmetry_group_IT_number 43
_symmetry_cell_setting 'orthorhombic'
loop_
_space_group_symop_operation_xyz
x,y,z
-x,-y,z
1/4-x,1/4+y,1/4+z
1/4+x,1/4-y,1/4+z
x,1/2+y,1/2+z
-x,1/2-y,1/2+z
1/4-x,3/4+y,3/4+z
1/4+x,3/4-y,3/4+z
1/2+x,y,1/2+z
1/2-x,-y,1/2+z
3/4-x,1/4+y,3/4+z
3/4+x,1/4-y,3/4+z
1/2+x,1/2+y,z
1/2-x,1/2-y,z
3/4-x,3/4+y,1/4+z
3/4+x,3/4-y,1/4+z
loop_
_atom_site_type_symbol
_atom_site_label
_atom_site_fract_x
_atom_site_fract_y
_atom_site_fract_z
Si Si1 0.816130 0.941408 0.819750
Si Si2 0.502532 0.934718 0.132369
Si Si3 0.496222 0.316226 0.990678
Si Si4 0.931411 0.940028 0.057143
O O1 0.747678 0.878785 0.819303
O O2 0.907152 0.936365 0.723828
O O3 0.746009 0.002549 0.803539
O O4 0.880833 0.947197 0.934950
O O5 0.621340 0.932851 0.192758
O O6 0.500000 0.000000 0.071910
O O7 0.581641 0.317728 0.891553
O O8 0.503841 0.378562 0.058033
O O9 0.000000 0.000000 0.082931
#
# Coordination Sequence:
#
# PCOD9370182 Si02
#       4
#    16  16  16  16
#     4  10  18  34  57  82 109 142 181 221 261 314
#     4   9  17  31  54  81 106 140 180 216 260 313
#     4  10  20  34  56  81 107 143 181 218 266 320
#     4  11  20  35  56  80 106 141 181 223 265 317
#
# _framework density 19.676355999999998
#
# number of rings (size 3 to 8) (size 9 to 14) (size 15 to 20)
#    0.000    2.000    0.000    9.750    0.000    0.000 
#    0.000   12.500    0.000    4.500    0.000    0.000 
#    0.000    0.000    0.000    0.000    0.000    0.000 
#
# Total GULP energy -89230.332727 kJ/mol
# GULP energy per Si atom -5576.895795 kJ/mol
# Density = 1.963157 g / cm^3
# Si number density = 19.676356 Si / 1000 Ang^3
#
#
#
# Elastic Constant Matrix: (Units=GPa)
#
#
# Indices 1 2 3 4 5 6 
#
# 1 40.4892 41.1502 26.5104 0.0000 0.0000 0.0000
# 2 41.1502 233.2370 47.8786 0.0000 0.0000 0.0000
# 3 26.5104 47.8786 48.0197 0.0000 0.0000 0.0000
# 4 0.0000 0.0000 0.0000 30.0554 0.0000 0.0000
# 5 0.0000 0.0000 0.0000 0.0000 29.4000 0.0000
# 6 0.0000 0.0000 0.0000 0.0000 0.0000 32.2897
#
#
#
# Elastic Compliance Matrix: (Units=1/GPa)
#
#
# Indices 1 2 3 4 5 6 
#
# 1 0.040509 -0.003214 -0.019159 0.000000 0.000000 0.000000
# 2 -0.003214 0.005646 -0.003855 0.000000 0.000000 0.000000
# 3 -0.019159 -0.003855 0.035246 0.000000 0.000000 0.000000
# 4 0.000000 0.000000 0.000000 0.033272 0.000000 0.000000
# 5 0.000000 0.000000 0.000000 0.000000 0.034014 0.000000
# 6 0.000000 0.000000 0.000000 0.000000 0.000000 0.030970
#
#
# Mechanical properties :
#
#
# Convention : Reuss Voigt Hill
#
# Bulk Modulus (GPa) = 34.54945 61.42492 47.98719
# Shear Modulus (GPa) = 20.68163 32.09615 26.38889
#
# Velocity S-wave (km/s) = 3.24557 4.04320 3.66614
# Velocity P-wave (km/s) = 5.62512 7.28574 6.50861
#
# Compressibility (1/GPa) = 0.02894402
#
# Stress axis : x y z
#
# Youngs Moduli (GPa) = 24.68583 177.12077 28.37221
#
# Poissons Ratio (x) = 0.56927 0.54360
# Poissons Ratio (y) = 0.07934 0.10937
# Poissons Ratio (z) = 0.47297 0.68278
#
# Static dielectric constant tensor:
#      x y z
#    x 1.664460 0.000000 0.000000 
#    y 0.000000 1.797660 0.000000 
#    z 0.000000 0.000000 1.672090 
# 
# From -- ./inp_files/5487.got.cif
#   From: 2010.05.17/outbox.cif.g08.bks.cpg/sg43_3_cif.got.tgz:5487.got - 2010.06.03 19:21:55.
