data_PCOD9370837
_publ_section_title
;
Structure prediction by ZEFSAII (Michael W. Deem and Ramdas Pophale) SiO2 
 PCOD9370837
Probable space group: F D D 2
;
_chemical_formula_sum "Si O2"
_cell_formula_units_Z 72
_cell_length_a 17.502001
_cell_length_b 7.059240
_cell_length_c 20.948560
_cell_angle_alpha 90.000000
_cell_angle_beta 90.000000
_cell_angle_gamma 90.000000
_cell_volume 2588.211882
_symmetry_space_group_name_H-M "F D D 2"
_symmetry_group_IT_number 43
_symmetry_cell_setting 'orthorhombic'
loop_
_space_group_symop_operation_xyz
x,y,z
-x,-y,z
1/4-x,1/4+y,1/4+z
1/4+x,1/4-y,1/4+z
x,1/2+y,1/2+z
-x,1/2-y,1/2+z
1/4-x,3/4+y,3/4+z
1/4+x,3/4-y,3/4+z
1/2+x,y,1/2+z
1/2-x,-y,1/2+z
3/4-x,1/4+y,3/4+z
3/4+x,1/4-y,3/4+z
1/2+x,1/2+y,z
1/2-x,1/2-y,z
3/4-x,3/4+y,1/4+z
3/4+x,3/4-y,1/4+z
loop_
_atom_site_type_symbol
_atom_site_label
_atom_site_fract_x
_atom_site_fract_y
_atom_site_fract_z
Si Si1 0.513752 0.725613 0.029010
Si Si2 0.500000 0.000000 0.917383
Si Si3 0.315239 0.511140 0.953666
Si Si4 0.667114 0.912585 0.895861
Si Si5 0.333385 0.848172 0.587240
O O1 0.500000 0.500000 0.030211
O O2 0.456953 0.821960 0.077959
O O3 0.599630 0.771808 0.052057
O O4 0.499618 0.815524 0.961468
O O5 0.418755 0.021019 0.885395
O O6 0.330332 0.293812 0.928683
O O7 0.225503 0.540528 0.938273
O O8 0.372979 0.622038 0.905842
O O9 0.324253 0.505644 0.030275
O O10 0.250000 0.750000 0.594316
#
# Coordination Sequence:
#
# PCOD9370837 Si02
#       5
#    16   8  16  16  16
#     4  11  25  46  69 109 150 190 256 330 384 474
#     4  12  22  48  76 100 150 204 246 314 406 464
#     4  10  20  40  69 105 143 200 249 322 393 466
#     4  10  22  41  68 102 144 192 251 314 392 459
#     4  11  21  41  71 106 145 200 260 314 401 473
#
# _framework density 27.818434
#
# number of rings (size 3 to 8) (size 9 to 14) (size 15 to 20)
#    0.000    1.333    4.444    2.667    0.000    2.667 
#    8.000    0.000    0.000    0.000    0.000    0.000 
#    0.000    0.000    0.000    0.000    0.000    0.000 
#
# Total GULP energy -100657.208306 kJ/mol
# GULP energy per Si atom -5592.067128 kJ/mol
# Density = 2.775512 g / cm^3
# Si number density = 27.818434 Si / 1000 Ang^3
#
#
#
# Elastic Constant Matrix: (Units=GPa)
#
#
# Indices 1 2 3 4 5 6 
#
# 1 299.6293 40.7682 90.6090 0.0000 0.0000 0.0000
# 2 40.7682 127.0260 59.3140 0.0000 0.0000 -0.0001
# 3 90.6090 59.3140 161.4783 0.0000 0.0000 0.0000
# 4 0.0000 0.0000 0.0000 40.2293 0.0000 0.0000
# 5 0.0000 0.0000 0.0000 0.0000 46.9987 0.0000
# 6 0.0000 -0.0001 0.0000 0.0000 0.0000 41.4363
#
#
#
# Elastic Compliance Matrix: (Units=1/GPa)
#
#
# Indices 1 2 3 4 5 6 
#
# 1 0.004028 -0.000287 -0.002155 0.000000 0.000000 0.000000
# 2 -0.000287 0.009523 -0.003337 0.000000 0.000000 0.000000
# 3 -0.002155 -0.003337 0.008628 0.000000 0.000000 0.000000
# 4 0.000000 0.000000 0.000000 0.024858 0.000000 0.000000
# 5 0.000000 0.000000 0.000000 0.000000 0.021277 0.000000
# 6 0.000000 0.000000 0.000000 0.000000 0.000000 0.024133
#
#
# Mechanical properties :
#
#
# Convention : Reuss Voigt Hill
#
# Bulk Modulus (GPa) = 94.15059 107.72402 100.93730
# Shear Modulus (GPa) = 46.49249 52.22901 49.36075
#
# Velocity S-wave (km/s) = 4.09257 4.33771 4.21692
# Velocity P-wave (km/s) = 7.50002 7.99348 7.75068
#
# Compressibility (1/GPa) = 0.01062128
#
# Stress axis : x y z
#
# Youngs Moduli (GPa) = 248.25419 105.01363 115.90481
#
# Poissons Ratio (x) = 0.03009 0.24978
# Poissons Ratio (y) = 0.07113 0.38678
# Poissons Ratio (z) = 0.53499 0.35044
#
# Static dielectric constant tensor:
#      x y z
#    x 2.188180 0.000000 0.000000 
#    y 0.000000 2.249410 0.000000 
#    z 0.000000 0.000000 2.139110 
# 
# From -- ./inp_files/22000.got.cif
#   From: 2010.05.17/outbox.cif.g08.bks.cpg/sg43_11_cif.got.tgz:22000.got - 2010.06.03 19:21:55.
