data_PCOD9370153
_publ_section_title
;
Structure prediction by ZEFSAII (Michael W. Deem and Ramdas Pophale) SiO2 
 PCOD9370153
Probable space group: F D D 2
;
_chemical_formula_sum "Si O2"
_cell_formula_units_Z 96
_cell_length_a 8.586471
_cell_length_b 16.923029
_cell_length_c 26.025770
_cell_angle_alpha 90.000000
_cell_angle_beta 90.000000
_cell_angle_gamma 90.000000
_cell_volume 3781.781157
_symmetry_space_group_name_H-M "F D D 2"
_symmetry_group_IT_number 43
_symmetry_cell_setting 'orthorhombic'
loop_
_space_group_symop_operation_xyz
x,y,z
-x,-y,z
1/4-x,1/4+y,1/4+z
1/4+x,1/4-y,1/4+z
x,1/2+y,1/2+z
-x,1/2-y,1/2+z
1/4-x,3/4+y,3/4+z
1/4+x,3/4-y,3/4+z
1/2+x,y,1/2+z
1/2-x,-y,1/2+z
3/4-x,1/4+y,3/4+z
3/4+x,1/4-y,3/4+z
1/2+x,1/2+y,z
1/2-x,1/2-y,z
3/4-x,3/4+y,1/4+z
3/4+x,3/4-y,1/4+z
loop_
_atom_site_type_symbol
_atom_site_label
_atom_site_fract_x
_atom_site_fract_y
_atom_site_fract_z
Si Si1 0.773963 0.858115 0.885690
Si Si2 0.494909 0.770583 0.308033
Si Si3 0.144104 0.414193 0.636236
Si Si4 0.505807 0.411761 0.746687
Si Si5 0.832764 0.996204 0.348392
Si Si6 0.143659 0.385953 0.751840
O O1 0.854863 0.815080 0.838549
O O2 0.586462 0.847202 0.884822
O O3 0.792818 0.951696 0.877990
O O4 0.830285 0.828443 0.940574
O O5 0.436743 0.694186 0.274286
O O6 0.579881 0.837882 0.275060
O O7 0.601212 0.744213 0.355004
O O8 0.060339 0.346451 0.602250
O O9 0.085129 0.409011 0.694807
O O10 0.500000 0.500000 0.770439
O O11 0.329047 0.379356 0.741865
O O12 0.860751 0.043448 0.294680
O O13 0.000000 0.000000 0.377256
#
# Coordination Sequence:
#
# PCOD9370153 Si02
#       6
#    16  16  16  16  16  16
#     4  10  18  32  52  88 113 139 180 245 282 319
#     4  12  20  38  60  87 115 144 192 244 274 325
#     4  10  20  32  55  86 115 144 183 230 290 330
#     4  11  22  32  56  85 117 148 188 228 287 330
#     4  10  18  32  54  85 117 138 178 240 288 322
#     4  11  20  34  59  89 112 145 183 240 286 330
#
# _framework density 25.384864
#
# number of rings (size 3 to 8) (size 9 to 14) (size 15 to 20)
#    0.000    1.333    5.000    5.000    0.000    2.667 
#    0.000    0.000    7.333    0.000    0.000    0.000 
#    0.000    0.000    0.000    0.000    0.000    0.000 
#
# Total GULP energy -133755.637045 kJ/mol
# GULP energy per Si atom -5573.151544 kJ/mol
# Density = 2.532709 g / cm^3
# Si number density = 25.384864 Si / 1000 Ang^3
#
#
#
# Elastic Constant Matrix: (Units=GPa)
#
#
# Indices 1 2 3 4 5 6 
#
# 1 41.9225 -0.0077 5.2446 0.0000 0.0000 0.0000
# 2 -0.0077 160.0936 88.7814 0.0000 0.0000 0.0000
# 3 5.2446 88.7814 171.3713 0.0000 0.0000 0.0000
# 4 0.0000 0.0000 0.0000 22.5992 0.0000 0.0000
# 5 0.0000 0.0000 0.0000 0.0000 -1.1468 0.0000
# 6 0.0000 0.0000 0.0000 0.0000 0.0000 28.6646
#
#
#
# Elastic Compliance Matrix: (Units=1/GPa)
#
#
# Indices 1 2 3 4 5 6 
#
# 1 0.023983 0.000573 -0.001031 0.000000 0.000000 0.000000
# 2 0.000573 0.008778 -0.004565 0.000000 0.000000 0.000000
# 3 -0.001031 -0.004565 0.008232 0.000000 0.000000 0.000000
# 4 0.000000 0.000000 0.000000 0.044249 0.000000 0.000000
# 5 0.000000 0.000000 0.000000 0.000000 -0.872026 0.000000
# 6 0.000000 0.000000 0.000000 0.000000 0.000000 0.034886
#
#
# Mechanical properties :
#
#
# Convention : Reuss Voigt Hill
#
# Bulk Modulus (GPa) = 32.31401 62.38045 47.34723
# Shear Modulus (GPa) = -6.83493 28.64802 10.90654
#
# Velocity S-wave (km/s) = -1.64267 3.36303 2.07504
# Velocity P-wave (km/s) = 3.02646 6.30136 4.94301
#
# Compressibility (1/GPa) = 0.03094633
#
# Stress axis : x y z
#
# Youngs Moduli (GPa) = 41.69692 113.92129 121.47951
#
# Poissons Ratio (x) = -0.06524 0.12520
# Poissons Ratio (y) = -0.02388 0.55457
# Poissons Ratio (z) = 0.04298 0.52006
#
# Static dielectric constant tensor:
#      x y z
#    x 2.114940 0.000000 0.000000 
#    y 0.000000 2.137220 0.000000 
#    z 0.000000 0.000000 2.077750 
# 
# From -- ./inp_files/25045.got.cif
#   From: 2010.05.17/outbox.cif.g08.bks.cpg/sg43_13_cif.got.tgz:25045.got - 2010.06.03 19:21:55.
