data_PCOD9370827
_publ_section_title
;
Structure prediction by ZEFSAII (Michael W. Deem and Ramdas Pophale) SiO2 
 PCOD9370827
Probable space group: F D D 2
;
_chemical_formula_sum "Si O2"
_cell_formula_units_Z 128
_cell_length_a 21.332391
_cell_length_b 25.851342
_cell_length_c 10.811113
_cell_angle_alpha 90.000000
_cell_angle_beta 90.000000
_cell_angle_gamma 90.000000
_cell_volume 5962.014599
_symmetry_space_group_name_H-M "F D D 2"
_symmetry_group_IT_number 43
_symmetry_cell_setting 'orthorhombic'
loop_
_space_group_symop_operation_xyz
x,y,z
-x,-y,z
1/4-x,1/4+y,1/4+z
1/4+x,1/4-y,1/4+z
x,1/2+y,1/2+z
-x,1/2-y,1/2+z
1/4-x,3/4+y,3/4+z
1/4+x,3/4-y,3/4+z
1/2+x,y,1/2+z
1/2-x,-y,1/2+z
3/4-x,1/4+y,3/4+z
3/4+x,1/4-y,3/4+z
1/2+x,1/2+y,z
1/2-x,1/2-y,z
3/4-x,3/4+y,1/4+z
3/4+x,3/4-y,1/4+z
loop_
_atom_site_type_symbol
_atom_site_label
_atom_site_fract_x
_atom_site_fract_y
_atom_site_fract_z
Si Si1 0.832690 0.999418 0.709100
Si Si2 0.698166 0.072216 0.877104
Si Si3 0.595630 0.647465 0.345538
Si Si4 0.534505 0.244678 0.813508
Si Si5 0.507967 0.914022 0.977719
Si Si6 0.578821 0.338267 0.645352
Si Si7 0.401718 0.999899 0.950031
Si Si8 0.576688 0.144524 0.564792
O O1 0.758117 0.002851 0.683654
O O2 0.845984 0.945251 0.773998
O O3 0.864158 0.008101 0.577224
O O4 0.850882 0.046740 0.796212
O O5 0.651937 0.119096 0.915821
O O6 0.645385 0.027603 0.853137
O O7 0.751562 0.101598 0.797965
O O8 0.742682 0.042930 0.975483
O O9 0.594531 0.709505 0.343826
O O10 0.529223 0.629297 0.401717
O O11 0.595843 0.627955 0.203023
O O12 0.547074 0.297212 0.739435
O O13 0.454937 0.958280 0.988046
O O14 0.565410 0.946023 0.916580
O O15 0.534450 0.885001 0.098893
O O16 0.639354 0.360404 0.713225
#
# Coordination Sequence:
#
# PCOD9370827 Si02
#       8
#    16  16  16  16  16  16  16  16
#     4  11  21  41  61  94 133 170 220 278 338 418
#     4   9  20  41  64  87 128 175 212 270 339 404
#     4  10  20  41  67  89 135 173 216 284 337 412
#     4  10  22  39  65  95 124 172 231 271 340 415
#     4  10  20  40  68 102 124 169 229 289 345 393
#     4  12  23  38  67  98 135 179 227 286 338 421
#     4   9  20  40  68  97 132 162 220 293 337 400
#     4  11  24  40  60  95 133 174 218 272 339 415
#
# _framework density 21.469252999999998
#
# number of rings (size 3 to 8) (size 9 to 14) (size 15 to 20)
#    0.000    1.750    5.000    0.000    1.750    1.000 
#    0.000    3.125   11.000    0.000    0.000    0.000 
#    0.000    0.000    0.000    0.000    0.000    0.000 
#
# Total GULP energy -178208.906229 kJ/mol
# GULP energy per Si atom -5569.028320 kJ/mol
# Density = 2.142039 g / cm^3
# Si number density = 21.469253 Si / 1000 Ang^3
#
#
#
# Elastic Constant Matrix: (Units=GPa)
#
#
# Indices 1 2 3 4 5 6 
#
# 1 110.7725 49.2298 32.8660 0.0000 0.0000 0.0000
# 2 49.2298 101.8461 24.3230 0.0000 0.0000 0.0000
# 3 32.8660 24.3230 58.5722 0.0000 0.0000 0.0000
# 4 0.0000 0.0000 0.0000 42.4803 0.0000 0.0000
# 5 0.0000 0.0000 0.0000 0.0000 36.6432 0.0000
# 6 0.0000 0.0000 0.0000 0.0000 0.0000 34.2630
#
#
#
# Elastic Compliance Matrix: (Units=1/GPa)
#
#
# Indices 1 2 3 4 5 6 
#
# 1 0.012734 -0.004939 -0.005094 0.000000 0.000000 0.000000
# 2 -0.004939 0.012815 -0.002551 0.000000 0.000000 0.000000
# 3 -0.005094 -0.002551 0.020991 0.000000 0.000000 0.000000
# 4 0.000000 0.000000 0.000000 0.023540 0.000000 0.000000
# 5 0.000000 0.000000 0.000000 0.000000 0.027290 0.000000
# 6 0.000000 0.000000 0.000000 0.000000 0.000000 0.029186
#
#
# Mechanical properties :
#
#
# Convention : Reuss Voigt Hill
#
# Bulk Modulus (GPa) = 46.78893 53.78094 50.28494
# Shear Modulus (GPa) = 31.47681 33.66209 32.56945
#
# Velocity S-wave (km/s) = 3.83317 3.96399 3.89913
# Velocity P-wave (km/s) = 6.43674 6.78643 6.61390
#
# Compressibility (1/GPa) = 0.02137258
#
# Stress axis : x y z
#
# Youngs Moduli (GPa) = 78.53109 78.03342 47.64028
#
# Poissons Ratio (x) = 0.38537 0.24270
# Poissons Ratio (y) = 0.38783 0.12151
# Poissons Ratio (z) = 0.40007 0.19903
#
# Static dielectric constant tensor:
#      x y z
#    x 1.813380 0.000000 0.000000 
#    y 0.000000 1.819700 0.000000 
#    z 0.000000 0.000000 1.849510 
# 
# From -- ./inp_files/7687.got.cif
#   From: 2010.05.17/outbox.cif.g08.bks.cpg/sg43_4_cif.got.tgz:7687.got - 2010.06.03 19:21:55.
