data_PCOD9370372
_publ_section_title
;
Structure prediction by ZEFSAII (Michael W. Deem and Ramdas Pophale) SiO2 
 PCOD9370372
Probable space group: F D D 2
;
_chemical_formula_sum "Si O2"
_cell_formula_units_Z 80
_cell_length_a 7.661230
_cell_length_b 16.410274
_cell_length_c 24.629525
_cell_angle_alpha 90.000000
_cell_angle_beta 90.000000
_cell_angle_gamma 90.000000
_cell_volume 3096.494902
_symmetry_space_group_name_H-M "F D D 2"
_symmetry_group_IT_number 43
_symmetry_cell_setting 'orthorhombic'
loop_
_space_group_symop_operation_xyz
x,y,z
-x,-y,z
1/4-x,1/4+y,1/4+z
1/4+x,1/4-y,1/4+z
x,1/2+y,1/2+z
-x,1/2-y,1/2+z
1/4-x,3/4+y,3/4+z
1/4+x,3/4-y,3/4+z
1/2+x,y,1/2+z
1/2-x,-y,1/2+z
3/4-x,1/4+y,3/4+z
3/4+x,1/4-y,3/4+z
1/2+x,1/2+y,z
1/2-x,1/2-y,z
3/4-x,3/4+y,1/4+z
3/4+x,3/4-y,1/4+z
loop_
_atom_site_type_symbol
_atom_site_label
_atom_site_fract_x
_atom_site_fract_y
_atom_site_fract_z
Si Si1 0.826486 0.111188 0.191130
Si Si2 0.708791 0.571908 0.800153
Si Si3 0.759416 0.976926 0.921992
Si Si4 0.522941 0.686149 0.322576
Si Si5 0.855379 0.146692 0.768209
O O1 0.803040 0.052534 0.242732
O O2 0.659293 0.171858 0.186982
O O3 0.975958 0.180341 0.190823
O O4 0.820154 0.061864 0.135694
O O5 0.719618 0.525354 0.857215
O O6 0.508080 0.584855 0.783283
O O7 0.827469 0.653179 0.813981
O O8 0.901096 0.924577 0.955457
O O9 0.668835 0.628288 0.294341
O O10 0.564648 0.772262 0.296419
#
# Coordination Sequence:
#
# PCOD9370372 Si02
#       5
#    16  16  16  16  16
#     4   9  18  35  57  85 114 149 196 236 288 355
#     4  10  19  36  59  80 113 153 189 240 286 343
#     4   9  18  35  60  83 111 155 194 233 294 349
#     4  10  20  34  57  83 114 150 189 240 292 342
#     4  10  20  36  55  86 111 147 198 229 289 352
#
# _framework density 25.835663
#
# number of rings (size 3 to 8) (size 9 to 14) (size 15 to 20)
#    0.000    2.400    2.000    0.600    0.000    1.600 
#    0.000   10.000    0.000    4.800    0.000    0.000 
#    0.000    0.000    0.000    0.000    0.000    0.000 
#
# Total GULP energy -111678.091761 kJ/mol
# GULP energy per Si atom -5583.904588 kJ/mol
# Density = 2.577686 g / cm^3
# Si number density = 25.835663 Si / 1000 Ang^3
#
#
#
# Elastic Constant Matrix: (Units=GPa)
#
#
# Indices 1 2 3 4 5 6 
#
# 1 138.4970 9.8032 18.8491 0.0000 0.0000 0.0000
# 2 9.8032 73.5445 27.3860 0.0000 0.0000 0.0000
# 3 18.8491 27.3860 222.5974 0.0000 0.0000 0.0000
# 4 0.0000 0.0000 0.0000 22.6816 0.0000 0.0000
# 5 0.0000 0.0000 0.0000 0.0000 15.4120 0.0000
# 6 0.0000 0.0000 0.0000 0.0000 0.0000 7.1094
#
#
#
# Elastic Compliance Matrix: (Units=1/GPa)
#
#
# Indices 1 2 3 4 5 6 
#
# 1 0.007347 -0.000784 -0.000526 0.000000 0.000000 0.000000
# 2 -0.000784 0.014334 -0.001697 0.000000 0.000000 0.000000
# 3 -0.000526 -0.001697 0.004746 0.000000 0.000000 0.000000
# 4 0.000000 0.000000 0.000000 0.044089 0.000000 0.000000
# 5 0.000000 0.000000 0.000000 0.000000 0.064884 0.000000
# 6 0.000000 0.000000 0.000000 0.000000 0.000000 0.140658
#
#
# Mechanical properties :
#
#
# Convention : Reuss Voigt Hill
#
# Bulk Modulus (GPa) = 48.98643 60.74616 54.86629
# Shear Modulus (GPa) = 17.30851 34.28065 25.79458
#
# Velocity S-wave (km/s) = 2.59114 3.64658 3.16319
# Velocity P-wave (km/s) = 5.28715 6.42601 5.88420
#
# Compressibility (1/GPa) = 0.02041382
#
# Stress axis : x y z
#
# Youngs Moduli (GPa) = 136.10273 69.76608 210.71585
#
# Poissons Ratio (x) = 0.05467 0.11079
# Poissons Ratio (y) = 0.10665 0.35761
# Poissons Ratio (z) = 0.07156 0.11840
#
# Static dielectric constant tensor:
#      x y z
#    x 2.134920 0.000000 0.000000 
#    y 0.000000 2.132930 0.000000 
#    z 0.000000 0.000000 2.029340 
# 
# From -- ./inp_files/12748.got.cif
#   From: 2010.05.17/outbox.cif.g08.bks.cpg/sg43_7_cif.got.tgz:12748.got - 2010.06.03 19:21:55.
