data_PCOD9370798
_publ_section_title
;
Structure prediction by ZEFSAII (Michael W. Deem and Ramdas Pophale) SiO2 
 PCOD9370798
Probable space group: F D D 2
;
_chemical_formula_sum "Si O2"
_cell_formula_units_Z 104
_cell_length_a 7.690510
_cell_length_b 30.693324
_cell_length_c 18.483978
_cell_angle_alpha 90.000000
_cell_angle_beta 90.000000
_cell_angle_gamma 90.000000
_cell_volume 4363.093380
_symmetry_space_group_name_H-M "F D D 2"
_symmetry_group_IT_number 43
_symmetry_cell_setting 'orthorhombic'
loop_
_space_group_symop_operation_xyz
x,y,z
-x,-y,z
1/4-x,1/4+y,1/4+z
1/4+x,1/4-y,1/4+z
x,1/2+y,1/2+z
-x,1/2-y,1/2+z
1/4-x,3/4+y,3/4+z
1/4+x,3/4-y,3/4+z
1/2+x,y,1/2+z
1/2-x,-y,1/2+z
3/4-x,1/4+y,3/4+z
3/4+x,1/4-y,3/4+z
1/2+x,1/2+y,z
1/2-x,1/2-y,z
3/4-x,3/4+y,1/4+z
3/4+x,3/4-y,1/4+z
loop_
_atom_site_type_symbol
_atom_site_label
_atom_site_fract_x
_atom_site_fract_y
_atom_site_fract_z
Si Si1 0.912867 0.799406 0.921370
Si Si2 0.382832 0.339265 0.532721
Si Si3 0.645989 0.352961 0.659384
Si Si4 0.689339 0.447509 0.844782
Si Si5 0.184844 0.642900 0.800693
Si Si6 0.250000 0.250000 0.590374
Si Si7 0.231588 0.045014 0.647347
O O1 0.974964 0.847834 0.900968
O O2 0.724947 0.796356 0.882750
O O3 0.020249 0.756235 0.904270
O O4 0.898556 0.795525 0.009363
O O5 0.477826 0.351196 0.607991
O O6 0.243624 0.375861 0.511763
O O7 0.289905 0.292768 0.544321
O O8 0.510077 0.326542 0.468050
O O9 0.760014 0.311843 0.634222
O O10 0.654614 0.349840 0.746347
O O11 0.778041 0.399885 0.848066
O O12 0.818740 0.484272 0.876097
O O13 0.119225 0.684125 0.843639
#
# Coordination Sequence:
#
# PCOD9370798 Si02
#       7
#    16  16  16  16  16   8  16
#     4  10  21  37  67  98 124 174 237 283 341 428
#     4  11  21  39  70  95 135 179 236 291 342 424
#     4  11  22  40  66  97 137 180 227 294 365 422
#     4  10  20  40  64  94 128 170 235 285 343 420
#     4  10  23  39  60 100 137 176 220 287 361 416
#     4  10  22  38  64 102 120 170 240 294 332 404
#     4  11  20  39  67  98 130 176 232 286 345 424
#
# _framework density 23.836300000000001
#
# number of rings (size 3 to 8) (size 9 to 14) (size 15 to 20)
#    0.000    1.538    4.615    0.923    0.000    0.615 
#    0.000    1.538   16.923    0.000    0.000    0.000 
#    0.000    0.000    0.000    0.000    0.000    0.000 
#
# Total GULP energy -144880.811897 kJ/mol
# GULP energy per Si atom -5572.338919 kJ/mol
# Density = 2.378205 g / cm^3
# Si number density = 23.836300 Si / 1000 Ang^3
#
#
#
# Elastic Constant Matrix: (Units=GPa)
#
#
# Indices 1 2 3 4 5 6 
#
# 1 57.2595 0.6549 18.5037 0.0000 0.0000 0.0000
# 2 0.6549 94.1635 31.7124 0.0000 0.0000 0.0000
# 3 18.5037 31.7124 75.0404 0.0000 0.0000 0.0000
# 4 0.0000 0.0000 0.0000 25.4525 0.0000 0.0000
# 5 0.0000 0.0000 0.0000 0.0000 9.8760 0.0000
# 6 0.0000 0.0000 0.0000 0.0000 0.0000 44.7182
#
#
#
# Elastic Compliance Matrix: (Units=1/GPa)
#
#
# Indices 1 2 3 4 5 6 
#
# 1 0.019208 0.001704 -0.005457 0.000000 0.000000 0.000000
# 2 0.001704 0.012533 -0.005717 0.000000 0.000000 0.000000
# 3 -0.005457 -0.005717 0.017088 0.000000 0.000000 0.000000
# 4 0.000000 0.000000 0.000000 0.039289 0.000000 0.000000
# 5 0.000000 0.000000 0.000000 0.000000 0.101255 0.000000
# 6 0.000000 0.000000 0.000000 0.000000 0.000000 0.022362
#
#
# Mechanical properties :
#
#
# Convention : Reuss Voigt Hill
#
# Bulk Modulus (GPa) = 33.45549 36.46725 34.96137
# Shear Modulus (GPa) = 20.77814 27.71551 24.24682
#
# Velocity S-wave (km/s) = 2.95566 3.41360 3.19285
# Velocity P-wave (km/s) = 5.07089 5.55600 5.31898
#
# Compressibility (1/GPa) = 0.02989046
#
# Stress axis : x y z
#
# Youngs Moduli (GPa) = 52.06120 79.78753 58.52200
#
# Poissons Ratio (x) = -0.13596 0.31933
# Poissons Ratio (y) = -0.08872 0.33456
# Poissons Ratio (z) = 0.28407 0.45613
#
# Static dielectric constant tensor:
#      x y z
#    x 2.100530 0.000000 0.000000 
#    y 0.000000 1.878590 0.000000 
#    z 0.000000 0.000000 1.972750 
# 
# From -- ./inp_files/16655.got.cif
#   From: 2010.05.17/outbox.cif.g08.bks.cpg/sg43_9_cif.got.tgz:16655.got - 2010.06.03 19:21:55.
