data_PCOD9370858
_publ_section_title
;
Structure prediction by ZEFSAII (Michael W. Deem and Ramdas Pophale) SiO2 
 PCOD9370858
Probable space group: F D D 2
;
_chemical_formula_sum "Si O2"
_cell_formula_units_Z 88
_cell_length_a 6.265862
_cell_length_b 25.694808
_cell_length_c 27.579238
_cell_angle_alpha 90.000000
_cell_angle_beta 90.000000
_cell_angle_gamma 90.000000
_cell_volume 4440.260656
_symmetry_space_group_name_H-M "F D D 2"
_symmetry_group_IT_number 43
_symmetry_cell_setting 'orthorhombic'
loop_
_space_group_symop_operation_xyz
x,y,z
-x,-y,z
1/4-x,1/4+y,1/4+z
1/4+x,1/4-y,1/4+z
x,1/2+y,1/2+z
-x,1/2-y,1/2+z
1/4-x,3/4+y,3/4+z
1/4+x,3/4-y,3/4+z
1/2+x,y,1/2+z
1/2-x,-y,1/2+z
3/4-x,1/4+y,3/4+z
3/4+x,1/4-y,3/4+z
1/2+x,1/2+y,z
1/2-x,1/2-y,z
3/4-x,3/4+y,1/4+z
3/4+x,3/4-y,1/4+z
loop_
_atom_site_type_symbol
_atom_site_label
_atom_site_fract_x
_atom_site_fract_y
_atom_site_fract_z
Si Si1 0.679166 0.466615 0.674220
Si Si2 0.983006 0.112920 0.066745
Si Si3 0.750000 0.750000 0.349393
Si Si4 0.717830 0.371666 0.961997
Si Si5 0.390128 0.125801 0.901576
Si Si6 0.239862 0.811658 0.628674
O O1 0.500000 0.500000 0.702440
O O2 0.871792 0.435161 0.698562
O O3 0.539733 0.420127 0.651594
O O4 0.793413 0.502722 0.634477
O O5 0.807765 0.118352 0.108787
O O6 0.046070 0.052237 0.069801
O O7 0.166639 0.153945 0.083360
O O8 0.869502 0.120620 0.015622
O O9 0.619347 0.415277 0.925422
O O10 0.970170 0.372709 0.950825
O O11 0.254783 0.074450 0.891363
O O12 0.250000 0.750000 0.621047
#
# Coordination Sequence:
#
# PCOD9370858 Si02
#       6
#    16  16   8  16  16  16
#     4  11  19  38  65  88 126 168 206 265 327 387
#     4  11  23  39  65  97 128 166 220 275 322 404
#     4  12  20  40  66  96 124 162 216 272 338 386
#     4  10  23  39  59  99 129 163 222 267 329 399
#     4  10  20  41  61  88 129 168 210 266 333 384
#     4  10  23  44  65  87 131 179 216 269 330 395
#
# _framework density 19.818656000000001
#
# number of rings (size 3 to 8) (size 9 to 14) (size 15 to 20)
#    0.000    1.455    7.273    0.000    1.273    6.545 
#    0.000    5.455    0.000    0.000    0.000    0.000 
#    0.000    0.000    0.000    0.000    0.000    0.000 
#
# Total GULP energy -122471.705450 kJ/mol
# GULP energy per Si atom -5566.895702 kJ/mol
# Density = 1.977355 g / cm^3
# Si number density = 19.818656 Si / 1000 Ang^3
#
#
#
# Elastic Constant Matrix: (Units=GPa)
#
#
# Indices 1 2 3 4 5 6 
#
# 1 94.6664 40.8086 22.0969 0.0000 0.0000 0.0000
# 2 40.8086 146.9728 31.6329 0.0000 0.0000 0.0000
# 3 22.0969 31.6329 98.9259 0.0000 0.0000 0.0000
# 4 0.0000 0.0000 0.0000 13.0445 0.0000 0.0000
# 5 0.0000 0.0000 0.0000 0.0000 18.3399 0.0000
# 6 0.0000 0.0000 0.0000 0.0000 0.0000 31.7256
#
#
#
# Elastic Compliance Matrix: (Units=1/GPa)
#
#
# Indices 1 2 3 4 5 6 
#
# 1 0.012283 -0.003028 -0.001775 0.000000 0.000000 0.000000
# 2 -0.003028 0.008054 -0.001899 0.000000 0.000000 0.000000
# 3 -0.001775 -0.001899 0.011112 0.000000 0.000000 0.000000
# 4 0.000000 0.000000 0.000000 0.076661 0.000000 0.000000
# 5 0.000000 0.000000 0.000000 0.000000 0.054526 0.000000
# 6 0.000000 0.000000 0.000000 0.000000 0.000000 0.031520
#
#
# Mechanical properties :
#
#
# Convention : Reuss Voigt Hill
#
# Bulk Modulus (GPa) = 55.42005 58.84913 57.13459
# Shear Modulus (GPa) = 23.41090 29.02378 26.21734
#
# Velocity S-wave (km/s) = 3.44067 3.83099 3.64106
# Velocity P-wave (km/s) = 6.61880 7.02331 6.82405
#
# Compressibility (1/GPa) = 0.01804401
#
# Stress axis : x y z
#
# Youngs Moduli (GPa) = 81.41126 124.16894 89.99057
#
# Poissons Ratio (x) = 0.37605 0.15976
# Poissons Ratio (y) = 0.24655 0.17087
# Poissons Ratio (z) = 0.14453 0.23577
#
# Static dielectric constant tensor:
#      x y z
#    x 1.748960 0.000000 0.000000 
#    y 0.000000 1.781240 0.000000 
#    z 0.000000 0.000000 1.713220 
# 
# From -- ./inp_files/27246.got.cif
#   From: 2010.05.17/outbox.cif.g08.bks.cpg/sg43_14_cif.got.tgz:27246.got - 2010.06.03 19:21:55.
