data_PCOD9370433
_publ_section_title
;
Structure prediction by ZEFSAII (Michael W. Deem and Ramdas Pophale) SiO2 
 PCOD9370433
Probable space group: F D D 2
;
_chemical_formula_sum "Si O2"
_cell_formula_units_Z 112
_cell_length_a 14.666502
_cell_length_b 12.050878
_cell_length_c 29.112748
_cell_angle_alpha 90.000000
_cell_angle_beta 90.000000
_cell_angle_gamma 90.000000
_cell_volume 5145.510120
_symmetry_space_group_name_H-M "F D D 2"
_symmetry_group_IT_number 43
_symmetry_cell_setting 'orthorhombic'
loop_
_space_group_symop_operation_xyz
x,y,z
-x,-y,z
1/4-x,1/4+y,1/4+z
1/4+x,1/4-y,1/4+z
x,1/2+y,1/2+z
-x,1/2-y,1/2+z
1/4-x,3/4+y,3/4+z
1/4+x,3/4-y,3/4+z
1/2+x,y,1/2+z
1/2-x,-y,1/2+z
3/4-x,1/4+y,3/4+z
3/4+x,1/4-y,3/4+z
1/2+x,1/2+y,z
1/2-x,1/2-y,z
3/4-x,3/4+y,1/4+z
3/4+x,3/4-y,1/4+z
loop_
_atom_site_type_symbol
_atom_site_label
_atom_site_fract_x
_atom_site_fract_y
_atom_site_fract_z
Si Si1 0.582550 0.565030 0.713250
Si Si2 0.023269 0.204383 0.801645
Si Si3 0.497504 0.237639 0.507157
Si Si4 0.163939 0.181368 0.327439
Si Si5 0.437474 0.235568 0.654840
Si Si6 0.305518 0.364567 0.844201
Si Si7 0.182770 0.153851 0.491149
O O1 0.500000 0.500000 0.690220
O O2 0.535770 0.619906 0.758808
O O3 0.663214 0.481262 0.726076
O O4 0.616942 0.665891 0.681073
O O5 0.086766 0.159658 0.842395
O O6 0.070722 0.315499 0.781971
O O7 0.921000 0.239508 0.815036
O O8 0.455021 0.131010 0.532504
O O9 0.529384 0.322563 0.546937
O O10 0.415503 0.296388 0.480709
O O11 0.250000 0.250000 0.346699
O O12 0.139950 0.085977 0.364750
O O13 0.522083 0.298954 0.632062
O O14 0.468514 0.155289 0.695598
O O15 0.250000 0.250000 0.844548
O O16 0.250000 0.250000 0.506121
#
# Coordination Sequence:
#
# PCOD9370433 Si02
#       7
#    16  16  16  16  16  16  16
#     4  10  21  41  61  90 127 169 210 262 319 386
#     4  10  21  36  69  91 116 166 215 261 315 381
#     4  10  21  37  66  93 117 166 217 269 311 377
#     4  11  22  42  64  95 123 168 216 269 316 385
#     4  10  24  38  60  86 135 166 199 265 329 369
#     4  10  19  38  60  90 124 156 208 264 314 372
#     4  11  20  40  62  90 127 162 211 262 322 383
#
# _framework density 21.766549999999999
#
# number of rings (size 3 to 8) (size 9 to 14) (size 15 to 20)
#    0.000    1.714    2.857    1.714    0.000    0.000 
#    7.714    0.000    3.143    0.000    0.000    0.000 
#    0.000    0.000    0.000    0.000    0.000    0.000 
#
# Total GULP energy -156274.814841 kJ/mol
# GULP energy per Si atom -5581.243387 kJ/mol
# Density = 2.171701 g / cm^3
# Si number density = 21.766550 Si / 1000 Ang^3
#
#
#
# Elastic Constant Matrix: (Units=GPa)
#
#
# Indices 1 2 3 4 5 6 
#
# 1 129.0230 21.8732 20.3653 0.0000 0.0000 0.0000
# 2 21.8732 60.5254 12.7280 0.0000 0.0000 0.0000
# 3 20.3653 12.7280 61.5926 0.0000 0.0000 0.0000
# 4 0.0000 0.0000 0.0000 11.3111 0.0000 0.0000
# 5 0.0000 0.0000 0.0000 0.0000 -5.9222 0.0000
# 6 0.0000 0.0000 0.0000 0.0000 0.0000 34.6729
#
#
#
# Elastic Compliance Matrix: (Units=1/GPa)
#
#
# Indices 1 2 3 4 5 6 
#
# 1 0.008554 -0.002610 -0.002289 0.000000 0.000000 0.000000
# 2 -0.002610 0.018069 -0.002871 0.000000 0.000000 0.000000
# 3 -0.002289 -0.002871 0.017586 0.000000 0.000000 0.000000
# 4 0.000000 0.000000 0.000000 0.088409 0.000000 0.000000
# 5 0.000000 0.000000 0.000000 0.000000 -0.168856 0.000000
# 6 0.000000 0.000000 0.000000 0.000000 0.000000 0.028841
#
#
# Mechanical properties :
#
#
# Convention : Reuss Voigt Hill
#
# Bulk Modulus (GPa) = 34.88080 40.11931 37.50006
# Shear Modulus (GPa) = 282.50220 21.09067 151.79644
#
# Velocity S-wave (km/s) = 11.40478 3.11617 8.36001
# Velocity P-wave (km/s) = 13.76536 5.60527 10.50962
#
# Compressibility (1/GPa) = 0.02866906
#
# Stress axis : x y z
#
# Youngs Moduli (GPa) = 116.89953 55.34348 56.86383
#
# Poissons Ratio (x) = 0.14445 0.13017
# Poissons Ratio (y) = 0.30512 0.16325
# Poissons Ratio (z) = 0.26759 0.15889
#
# Static dielectric constant tensor:
#      x y z
#    x 1.792350 0.000000 0.000000 
#    y 0.000000 1.823340 0.000000 
#    z 0.000000 0.000000 1.822430 
# 
# From -- ./inp_files/29071.got.cif
#   From: 2010.05.17/outbox.cif.g08.bks.cpg/sg43_15_cif.got.tgz:29071.got - 2010.06.03 19:21:55.
