data_PCOD9370535
_publ_section_title
;
Structure prediction by ZEFSAII (Michael W. Deem and Ramdas Pophale) SiO2 
 PCOD9370535
Probable space group: F D D 2
;
_chemical_formula_sum "Si O2"
_cell_formula_units_Z 120
_cell_length_a 11.063646
_cell_length_b 15.991898
_cell_length_c 33.970770
_cell_angle_alpha 90.000000
_cell_angle_beta 90.000000
_cell_angle_gamma 90.000000
_cell_volume 6010.404118
_symmetry_space_group_name_H-M "F D D 2"
_symmetry_group_IT_number 43
_symmetry_cell_setting 'orthorhombic'
loop_
_space_group_symop_operation_xyz
x,y,z
-x,-y,z
1/4-x,1/4+y,1/4+z
1/4+x,1/4-y,1/4+z
x,1/2+y,1/2+z
-x,1/2-y,1/2+z
1/4-x,3/4+y,3/4+z
1/4+x,3/4-y,3/4+z
1/2+x,y,1/2+z
1/2-x,-y,1/2+z
3/4-x,1/4+y,3/4+z
3/4+x,1/4-y,3/4+z
1/2+x,1/2+y,z
1/2-x,1/2-y,z
3/4-x,3/4+y,1/4+z
3/4+x,3/4-y,1/4+z
loop_
_atom_site_type_symbol
_atom_site_label
_atom_site_fract_x
_atom_site_fract_y
_atom_site_fract_z
Si Si1 0.184198 0.667650 0.750000
Si Si2 0.708186 0.125467 0.612077
Si Si3 0.725719 0.847511 0.432547
Si Si4 0.500000 0.000000 0.071585
Si Si5 0.877791 0.784095 0.031697
Si Si6 0.405404 0.438232 0.380436
Si Si7 0.712669 0.569583 0.846896
Si Si8 0.508663 0.202184 0.821088
O O1 0.250000 0.750000 0.733588
O O2 0.077675 0.635041 0.722259
O O3 0.282703 0.593626 0.757310
O O4 0.117937 0.696934 0.790128
O O5 0.622161 0.122232 0.649217
O O6 0.654310 0.163676 0.571549
O O7 0.832540 0.176104 0.618052
O O8 0.727733 0.028440 0.601358
O O9 0.750000 0.750000 0.437181
O O10 0.847726 0.882953 0.414087
O O11 0.501455 0.916344 0.097975
O O12 0.370240 0.979740 0.050919
O O13 0.750000 0.750000 0.014479
O O14 0.943355 0.703469 0.050734
O O15 0.500000 0.500000 0.399264
O O16 0.302968 0.499937 0.362685
O O17 0.471594 0.383014 0.346493
#
# Coordination Sequence:
#
# PCOD9370535 Si02
#       8
#    16  16  16   8  16  16  16  16
#     4  12  26  42  67 102 135 182 226 284 349 414
#     4  10  20  39  69  97 124 167 228 283 323 402
#     4  12  27  44  64  94 138 182 225 277 347 409
#     4  10  22  36  58 104 132 168 208 284 346 386
#     4  10  20  38  68 100 126 163 229 284 335 398
#     4  12  23  40  68  99 132 173 228 283 339 404
#     4  10  20  33  64  99 127 157 215 287 332 389
#     4  11  21  41  70  97 133 173 233 278 331 410
#
# _framework density 19.96538
#
# number of rings (size 3 to 8) (size 9 to 14) (size 15 to 20)
#    0.000    1.067    6.667    0.000    1.867    1.600 
#    1.200    1.333    5.867    0.000    0.000    0.000 
#    0.000    0.000    0.000    0.000    0.000    0.000 
#
# Total GULP energy -167036.978812 kJ/mol
# GULP energy per Si atom -5567.899294 kJ/mol
# Density = 1.991994 g / cm^3
# Si number density = 19.965380 Si / 1000 Ang^3
#
#
#
# Elastic Constant Matrix: (Units=GPa)
#
#
# Indices 1 2 3 4 5 6 
#
# 1 97.8408 41.5532 13.5841 0.0000 0.0000 0.0000
# 2 41.5532 134.4882 13.6016 0.0000 0.0000 0.0000
# 3 13.5841 13.6016 21.7398 0.0000 0.0000 0.0000
# 4 0.0000 0.0000 0.0000 32.6252 0.0000 0.0000
# 5 0.0000 0.0000 0.0000 0.0000 -14.4898 0.0000
# 6 0.0000 0.0000 0.0000 0.0000 0.0000 37.0152
#
#
#
# Elastic Compliance Matrix: (Units=1/GPa)
#
#
# Indices 1 2 3 4 5 6 
#
# 1 0.012395 -0.003252 -0.005710 0.000000 0.000000 0.000000
# 2 -0.003252 0.008791 -0.003468 0.000000 0.000000 0.000000
# 3 -0.005710 -0.003468 0.051736 0.000000 0.000000 0.000000
# 4 0.000000 0.000000 0.000000 0.030651 0.000000 0.000000
# 5 0.000000 0.000000 0.000000 0.000000 -0.069014 0.000000
# 6 0.000000 0.000000 0.000000 0.000000 0.000000 0.027016
#
#
# Mechanical properties :
#
#
# Convention : Reuss Voigt Hill
#
# Bulk Modulus (GPa) = 20.80670 43.50519 32.15594
# Shear Modulus (GPa) = 48.80139 23.38546 36.09343
#
# Velocity S-wave (km/s) = 4.94935 3.42614 4.25644
# Velocity P-wave (km/s) = 6.56547 6.12281 6.34800
#
# Compressibility (1/GPa) = 0.04806144
#
# Stress axis : x y z
#
# Youngs Moduli (GPa) = 80.68004 113.75061 19.32878
#
# Poissons Ratio (x) = 0.36993 0.11037
# Poissons Ratio (y) = 0.26238 0.06704
# Poissons Ratio (z) = 0.46069 0.39450
#
# Static dielectric constant tensor:
#      x y z
#    x 1.837410 0.000000 0.000000 
#    y 0.000000 1.761750 0.000000 
#    z 0.000000 0.000000 1.663090 
# 
# From -- ./inp_files/28756.got.cif
#   From: 2010.05.17/outbox.cif.g08.bks.cpg/sg43_15_cif.got.tgz:28756.got - 2010.06.03 19:21:55.
