data_PCOD9370193
_publ_section_title
;
Structure prediction by ZEFSAII (Michael W. Deem and Ramdas Pophale) SiO2 
 PCOD9370193
Probable space group: F D D 2
;
_chemical_formula_sum "Si O2"
_cell_formula_units_Z 104
_cell_length_a 22.326581
_cell_length_b 12.395315
_cell_length_c 16.051109
_cell_angle_alpha 90.000000
_cell_angle_beta 90.000000
_cell_angle_gamma 90.000000
_cell_volume 4442.064230
_symmetry_space_group_name_H-M "F D D 2"
_symmetry_group_IT_number 43
_symmetry_cell_setting 'orthorhombic'
loop_
_space_group_symop_operation_xyz
x,y,z
-x,-y,z
1/4-x,1/4+y,1/4+z
1/4+x,1/4-y,1/4+z
x,1/2+y,1/2+z
-x,1/2-y,1/2+z
1/4-x,3/4+y,3/4+z
1/4+x,3/4-y,3/4+z
1/2+x,y,1/2+z
1/2-x,-y,1/2+z
3/4-x,1/4+y,3/4+z
3/4+x,1/4-y,3/4+z
1/2+x,1/2+y,z
1/2-x,1/2-y,z
3/4-x,3/4+y,1/4+z
3/4+x,3/4-y,1/4+z
loop_
_atom_site_type_symbol
_atom_site_label
_atom_site_fract_x
_atom_site_fract_y
_atom_site_fract_z
Si Si1 0.682789 0.772281 0.753420
Si Si2 0.212503 0.470293 0.131259
Si Si3 0.164515 0.741572 0.434538
Si Si4 0.806375 0.324798 0.830904
Si Si5 0.590969 0.252546 0.954951
Si Si6 0.500000 0.000000 0.320395
Si Si7 0.937364 0.766222 0.691603
O O1 0.750000 0.750000 0.726562
O O2 0.674024 0.704475 0.839156
O O3 0.634757 0.741421 0.683850
O O4 0.664863 0.898279 0.766060
O O5 0.157041 0.497664 0.191328
O O6 0.277341 0.506869 0.158993
O O7 0.216857 0.340873 0.122904
O O8 0.199748 0.512293 0.038141
O O9 0.197666 0.692497 0.514245
O O10 0.198166 0.857453 0.432918
O O11 0.750000 0.250000 0.809647
O O12 0.839580 0.383775 0.753706
O O13 0.853774 0.265478 0.892149
O O14 0.782648 0.429284 0.882876
#
# Coordination Sequence:
#
# PCOD9370193 Si02
#       7
#    16  16  16  16  16   8  16
#     4  10  18  34  63  96 127 166 225 282 341 409
#     4  10  23  39  64  95 135 180 232 291 353 429
#     4  10  18  38  62  89 132 173 225 284 346 406
#     4  11  26  46  73 103 143 185 240 299 366 443
#     4  11  25  45  68 103 139 187 239 296 362 439
#     4  10  22  40  60  96 130 174 230 278 348 420
#     4   9  20  39  61  95 129 173 226 292 347 421
#
# _framework density 23.412538000000001
#
# number of rings (size 3 to 8) (size 9 to 14) (size 15 to 20)
#    0.000    1.846    2.308    0.923    3.231    1.231 
#    0.000    0.000    0.000    0.000    0.000    0.000 
#    0.000    0.000    0.000    0.000    0.000    0.000 
#
# Total GULP energy -144977.590507 kJ/mol
# GULP energy per Si atom -5576.061173 kJ/mol
# Density = 2.335925 g / cm^3
# Si number density = 23.412538 Si / 1000 Ang^3
#
#
#
# Elastic Constant Matrix: (Units=GPa)
#
#
# Indices 1 2 3 4 5 6 
#
# 1 86.1858 28.0280 30.6999 0.0000 0.0000 0.0000
# 2 28.0280 90.2851 19.2565 0.0000 0.0000 0.0000
# 3 30.6999 19.2565 62.6583 0.0000 0.0000 0.0000
# 4 0.0000 0.0000 0.0000 26.4169 0.0000 0.0000
# 5 0.0000 0.0000 0.0000 0.0000 29.6937 0.0000
# 6 0.0000 0.0000 0.0000 0.0000 0.0000 32.1915
#
#
#
# Elastic Compliance Matrix: (Units=1/GPa)
#
#
# Indices 1 2 3 4 5 6 
#
# 1 0.014915 -0.003287 -0.006298 0.000000 0.000000 0.000000
# 2 -0.003287 0.012577 -0.002255 0.000000 0.000000 0.000000
# 3 -0.006298 -0.002255 0.019738 0.000000 0.000000 0.000000
# 4 0.000000 0.000000 0.000000 0.037855 0.000000 0.000000
# 5 0.000000 0.000000 0.000000 0.000000 0.033677 0.000000
# 6 0.000000 0.000000 0.000000 0.000000 0.000000 0.031064
#
#
# Mechanical properties :
#
#
# Convention : Reuss Voigt Hill
#
# Bulk Modulus (GPa) = 42.45987 43.89977 43.17982
# Shear Modulus (GPa) = 27.57015 28.40343 27.98679
#
# Velocity S-wave (km/s) = 3.43531 3.48684 3.46117
# Velocity P-wave (km/s) = 5.82323 5.91625 5.86992
#
# Compressibility (1/GPa) = 0.02355165
#
# Stress axis : x y z
#
# Youngs Moduli (GPa) = 67.04655 79.50791 50.66344
#
# Poissons Ratio (x) = 0.26134 0.31906
# Poissons Ratio (y) = 0.22038 0.11424
# Poissons Ratio (z) = 0.42223 0.17928
#
# Static dielectric constant tensor:
#      x y z
#    x 1.878780 0.000000 0.000000 
#    y 0.000000 2.004560 0.000000 
#    z 0.000000 0.000000 1.996450 
# 
# From -- ./inp_files/13943.got.cif
#   From: 2010.05.17/outbox.cif.g08.bks.cpg/sg43_7_cif.got.tgz:13943.got - 2010.06.03 19:21:55.
