data_PCOD9370913
_publ_section_title
;
Structure prediction by ZEFSAII (Michael W. Deem and Ramdas Pophale) SiO2 
 PCOD9370913
Probable space group: F D D 2
;
_chemical_formula_sum "Si O2"
_cell_formula_units_Z 88
_cell_length_a 5.346377
_cell_length_b 30.382108
_cell_length_c 22.398257
_cell_angle_alpha 90.000000
_cell_angle_beta 90.000000
_cell_angle_gamma 90.000000
_cell_volume 3638.243034
_symmetry_space_group_name_H-M "F D D 2"
_symmetry_group_IT_number 43
_symmetry_cell_setting 'orthorhombic'
loop_
_space_group_symop_operation_xyz
x,y,z
-x,-y,z
1/4-x,1/4+y,1/4+z
1/4+x,1/4-y,1/4+z
x,1/2+y,1/2+z
-x,1/2-y,1/2+z
1/4-x,3/4+y,3/4+z
1/4+x,3/4-y,3/4+z
1/2+x,y,1/2+z
1/2-x,-y,1/2+z
3/4-x,1/4+y,3/4+z
3/4+x,1/4-y,3/4+z
1/2+x,1/2+y,z
1/2-x,1/2-y,z
3/4-x,3/4+y,1/4+z
3/4+x,3/4-y,1/4+z
loop_
_atom_site_type_symbol
_atom_site_label
_atom_site_fract_x
_atom_site_fract_y
_atom_site_fract_z
Si Si1 0.000000 0.500000 0.325230
Si Si2 0.876992 0.957898 0.420270
Si Si3 0.944680 0.097289 0.662271
Si Si4 0.464076 0.333284 0.570387
Si Si5 0.322926 0.855511 0.757034
Si Si6 0.464058 0.551795 0.127294
O O1 0.806840 0.523467 0.369616
O O2 0.862364 0.458676 0.293428
O O3 0.733221 0.923253 0.460325
O O4 0.087290 0.935236 0.380834
O O5 0.000000 0.000000 0.453271
O O6 0.920121 0.126228 0.722387
O O7 0.701616 0.066958 0.665449
O O8 0.891463 0.126719 0.602551
O O9 0.202948 0.071210 0.653233
O O10 0.247270 0.354842 0.530956
O O11 0.270882 0.823277 0.811749
O O12 0.500000 0.500000 0.122389
#
# Coordination Sequence:
#
# PCOD9370913 Si02
#       6
#     8  16  16  16  16  16
#     4  10  20  42  66  96 148 178 234 304 364 412
#     4  10  22  42  66 102 143 180 236 308 362 423
#     4  11  24  46  71 105 151 190 240 307 371 436
#     4  10  23  41  69 104 143 192 235 305 367 432
#     4  11  23  41  74 106 139 196 256 292 374 449
#     4  11  27  47  74 108 149 196 243 310 371 441
#
# _framework density 24.187497
#
# number of rings (size 3 to 8) (size 9 to 14) (size 15 to 20)
#    0.000    1.455    1.818    2.727    1.273    8.727 
#    0.000    2.727    0.000    0.000    0.000    0.000 
#    0.000    0.000    0.000    0.000    0.000    0.000 
#
# Total GULP energy -123047.859649 kJ/mol
# GULP energy per Si atom -5593.084530 kJ/mol
# Density = 2.413245 g / cm^3
# Si number density = 24.187497 Si / 1000 Ang^3
#
#
#
# Elastic Constant Matrix: (Units=GPa)
#
#
# Indices 1 2 3 4 5 6 
#
# 1 100.7717 74.9537 26.7010 0.0000 0.0000 0.0000
# 2 74.9537 171.4432 54.2047 0.0000 0.0000 0.0000
# 3 26.7010 54.2047 95.6512 0.0000 0.0000 0.0000
# 4 0.0000 0.0000 0.0000 73.6094 0.0000 0.0000
# 5 0.0000 0.0000 0.0000 0.0000 33.7685 0.0000
# 6 0.0000 0.0000 0.0000 0.0000 0.0000 37.4975
#
#
#
# Elastic Compliance Matrix: (Units=1/GPa)
#
#
# Indices 1 2 3 4 5 6 
#
# 1 0.014730 -0.006262 -0.000563 0.000000 0.000000 0.000000
# 2 -0.006262 0.009768 -0.003787 0.000000 0.000000 0.000000
# 3 -0.000563 -0.003787 0.012758 0.000000 0.000000 0.000000
# 4 0.000000 0.000000 0.000000 0.013585 0.000000 0.000000
# 5 0.000000 0.000000 0.000000 0.000000 0.029613 0.000000
# 6 0.000000 0.000000 0.000000 0.000000 0.000000 0.026668
#
#
# Mechanical properties :
#
#
# Convention : Reuss Voigt Hill
#
# Bulk Modulus (GPa) = 62.37888 75.50944 68.94416
# Shear Modulus (GPa) = 37.39929 43.10885 40.25407
#
# Velocity S-wave (km/s) = 3.93647 4.22628 4.08395
# Velocity P-wave (km/s) = 6.81959 7.42304 7.12770
#
# Compressibility (1/GPa) = 0.01603107
#
# Stress axis : x y z
#
# Youngs Moduli (GPa) = 67.88766 102.37614 78.38081
#
# Poissons Ratio (x) = 0.64106 0.04416
# Poissons Ratio (y) = 0.42510 0.29686
# Poissons Ratio (z) = 0.03825 0.38774
#
# Static dielectric constant tensor:
#      x y z
#    x 2.046640 0.000000 0.000000 
#    y 0.000000 1.696130 0.000000 
#    z 0.000000 0.000000 1.921610 
# 
# From -- ./inp_files/19545.got.cif
#   From: 2010.05.17/outbox.cif.g08.bks.cpg/sg43_10_cif.got.tgz:19545.got - 2010.06.03 19:21:55.
