data_PCOD9370532
_publ_section_title
;
Structure prediction by ZEFSAII (Michael W. Deem and Ramdas Pophale) SiO2 
 PCOD9370532
Probable space group: F D D 2
;
_chemical_formula_sum "Si O2"
_cell_formula_units_Z 72
_cell_length_a 8.160588
_cell_length_b 26.874609
_cell_length_c 14.007992
_cell_angle_alpha 90.000000
_cell_angle_beta 90.000000
_cell_angle_gamma 90.000000
_cell_volume 3072.129310
_symmetry_space_group_name_H-M "F D D 2"
_symmetry_group_IT_number 43
_symmetry_cell_setting 'orthorhombic'
loop_
_space_group_symop_operation_xyz
x,y,z
-x,-y,z
1/4-x,1/4+y,1/4+z
1/4+x,1/4-y,1/4+z
x,1/2+y,1/2+z
-x,1/2-y,1/2+z
1/4-x,3/4+y,3/4+z
1/4+x,3/4-y,3/4+z
1/2+x,y,1/2+z
1/2-x,-y,1/2+z
3/4-x,1/4+y,3/4+z
3/4+x,1/4-y,3/4+z
1/2+x,1/2+y,z
1/2-x,1/2-y,z
3/4-x,3/4+y,1/4+z
3/4+x,3/4-y,1/4+z
loop_
_atom_site_type_symbol
_atom_site_label
_atom_site_fract_x
_atom_site_fract_y
_atom_site_fract_z
Si Si1 0.093870 0.282697 0.791900
Si Si2 0.000000 0.500000 0.515883
Si Si3 0.828738 0.923941 0.343754
Si Si4 0.477386 0.944533 0.324803
Si Si5 0.354865 0.605414 0.259276
O O1 0.250000 0.250000 0.816653
O O2 0.072794 0.283566 0.675304
O O3 0.137411 0.340287 0.811867
O O4 0.916400 0.262215 0.823247
O O5 0.031668 0.545954 0.440433
O O6 0.649789 0.919045 0.299755
O O7 0.861227 0.873603 0.402643
O O8 0.991758 0.929300 0.283781
O O9 0.316062 0.919202 0.285290
O O10 0.500000 0.000000 0.285317
#
# Coordination Sequence:
#
# PCOD9370532 Si02
#       5
#    16   8  16  16  16
#     4   9  18  32  54  77 102 139 182 226 266 321
#     4   8  16  32  54  82  96 138 190 226 254 318
#     4   9  21  33  54  82 105 141 184 230 271 324
#     4   9  18  33  56  81 104 141 186 226 265 328
#     4  10  20  33  53  81 110 138 182 225 276 322
#
# _framework density 23.436512
#
# number of rings (size 3 to 8) (size 9 to 14) (size 15 to 20)
#    2.000    0.889    0.000    1.333    0.000    3.556 
#    0.000    1.111    0.000    5.333    0.000    0.000 
#    0.000    0.000    0.000    0.000    0.000    0.000 
#
# Total GULP energy -100227.200798 kJ/mol
# GULP energy per Si atom -5568.177822 kJ/mol
# Density = 2.338317 g / cm^3
# Si number density = 23.436512 Si / 1000 Ang^3
#
#
#
# Elastic Constant Matrix: (Units=GPa)
#
#
# Indices 1 2 3 4 5 6 
#
# 1 307.4783 98.6624 31.8546 0.0000 0.0000 0.0000
# 2 98.6624 95.5117 3.1482 0.0000 0.0000 0.0000
# 3 31.8546 3.1482 24.1718 0.0000 0.0000 0.0000
# 4 0.0000 0.0000 0.0000 21.8928 0.0000 0.0000
# 5 0.0000 0.0000 0.0000 0.0000 16.9142 0.0000
# 6 0.0000 0.0000 0.0000 0.0000 0.0000 31.8320
#
#
#
# Elastic Compliance Matrix: (Units=1/GPa)
#
#
# Indices 1 2 3 4 5 6 
#
# 1 0.005829 -0.005792 -0.006927 0.000000 0.000000 0.000000
# 2 -0.005792 0.016272 0.005514 0.000000 0.000000 0.000000
# 3 -0.006927 0.005514 0.049781 0.000000 0.000000 0.000000
# 4 0.000000 0.000000 0.000000 0.045677 0.000000 0.000000
# 5 0.000000 0.000000 0.000000 0.000000 0.059122 0.000000
# 6 0.000000 0.000000 0.000000 0.000000 0.000000 0.031415
#
#
# Mechanical properties :
#
#
# Convention : Reuss Voigt Hill
#
# Bulk Modulus (GPa) = 17.40003 77.16579 47.28291
# Shear Modulus (GPa) = 20.69008 33.69422 27.19215
#
# Velocity S-wave (km/s) = 2.97444 3.79579 3.40994
# Velocity P-wave (km/s) = 4.38598 7.22548 5.97681
#
# Compressibility (1/GPa) = 0.05747116
#
# Stress axis : x y z
#
# Youngs Moduli (GPa) = 171.56979 61.45623 20.08818
#
# Poissons Ratio (x) = 0.35598 0.13914
# Poissons Ratio (y) = 0.99382 -0.11077
# Poissons Ratio (z) = 1.18840 -0.33889
#
# Static dielectric constant tensor:
#      x y z
#    x 1.912290 0.000000 0.000000 
#    y 0.000000 1.838200 0.000000 
#    z 0.000000 0.000000 2.006740 
# 
# From -- ./inp_files/9150.got.cif
#   From: 2010.05.17/outbox.cif.g08.bks.cpg/sg43_5_cif.got.tgz:9150.got - 2010.06.03 19:21:55.
