data_PCOD9370563
_publ_section_title
;
Structure prediction by ZEFSAII (Michael W. Deem and Ramdas Pophale) SiO2 
 PCOD9370563
Probable space group: F D D 2
;
_chemical_formula_sum "Si O2"
_cell_formula_units_Z 80
_cell_length_a 28.522636
_cell_length_b 23.150147
_cell_length_c 5.362077
_cell_angle_alpha 90.000000
_cell_angle_beta 90.000000
_cell_angle_gamma 90.000000
_cell_volume 3540.596689
_symmetry_space_group_name_H-M "F D D 2"
_symmetry_group_IT_number 43
_symmetry_cell_setting 'orthorhombic'
loop_
_space_group_symop_operation_xyz
x,y,z
-x,-y,z
1/4-x,1/4+y,1/4+z
1/4+x,1/4-y,1/4+z
x,1/2+y,1/2+z
-x,1/2-y,1/2+z
1/4-x,3/4+y,3/4+z
1/4+x,3/4-y,3/4+z
1/2+x,y,1/2+z
1/2-x,-y,1/2+z
3/4-x,1/4+y,3/4+z
3/4+x,1/4-y,3/4+z
1/2+x,1/2+y,z
1/2-x,1/2-y,z
3/4-x,3/4+y,1/4+z
3/4+x,3/4-y,1/4+z
loop_
_atom_site_type_symbol
_atom_site_label
_atom_site_fract_x
_atom_site_fract_y
_atom_site_fract_z
Si Si1 0.144810 0.992458 0.234440
Si Si2 0.461386 0.170369 0.288625
Si Si3 0.485340 0.433629 0.640216
Si Si4 0.295976 0.210295 0.390376
Si Si5 0.055791 0.221756 0.992560
O O1 0.167079 0.057152 0.194630
O O2 0.089783 0.999886 0.207021
O O3 0.162057 0.968930 0.498230
O O4 0.166858 0.958415 0.998748
O O5 0.470025 0.105080 0.211020
O O6 0.507938 0.188536 0.439564
O O7 0.459524 0.211501 0.044899
O O8 0.500000 0.500000 0.610305
O O9 0.463644 0.418210 0.373005
O O10 0.448994 0.430635 0.870545
O O11 0.250000 0.250000 0.358911
#
# Coordination Sequence:
#
# PCOD9370563 Si02
#       5
#    16  16  16  16  16
#     4  10  20  37  63  92 130 157 216 255 330 382
#     4  10  21  38  67  92 129 154 215 261 329 380
#     4  10  23  40  61  83 124 174 211 254 315 375
#     4  10  22  42  61  85 130 177 213 260 307 394
#     4  10  20  35  65  96 119 164 200 278 322 375
#
# _framework density 22.59506
#
# number of rings (size 3 to 8) (size 9 to 14) (size 15 to 20)
#    1.200    0.800    2.000    1.200    2.800    0.000 
#    0.000   12.000    0.000    0.000    0.000    0.000 
#    0.000    0.000    0.000    0.000    0.000    0.000 
#
# Total GULP energy -111494.868420 kJ/mol
# GULP energy per Si atom -5574.743421 kJ/mol
# Density = 2.254363 g / cm^3
# Si number density = 22.595060 Si / 1000 Ang^3
#
#
#
# Elastic Constant Matrix: (Units=GPa)
#
#
# Indices 1 2 3 4 5 6 
#
# 1 112.5336 5.1643 4.8406 0.1002 0.0023 -0.0964
# 2 5.1643 72.4074 -5.9504 0.1333 -0.0127 -0.0476
# 3 4.8406 -5.9504 154.0474 0.3768 -0.0298 -0.2570
# 4 0.1002 0.1333 0.3768 13.5656 -0.0283 -0.1551
# 5 0.0023 -0.0127 -0.0298 -0.0283 17.0517 0.1818
# 6 -0.0964 -0.0476 -0.2570 -0.1551 0.1818 28.5676
#
#
#
# Elastic Compliance Matrix: (Units=1/GPa)
#
#
# Indices 1 2 3 4 5 6 
#
# 1 0.008930 -0.000662 -0.000306 -0.000051 -0.000003 0.000026
# 2 -0.000662 0.013904 0.000558 -0.000147 0.000011 0.000025
# 3 -0.000306 0.000558 0.006523 -0.000184 0.000011 0.000058
# 4 -0.000051 -0.000147 -0.000184 0.073727 0.000118 0.000397
# 5 -0.000003 0.000011 0.000011 0.000118 0.058649 -0.000372
# 6 0.000026 0.000025 0.000058 0.000397 -0.000372 0.035010
#
#
# Mechanical properties :
#
#
# Convention : Reuss Voigt Hill
#
# Bulk Modulus (GPa) = 35.04117 38.56639 36.80378
# Shear Modulus (GPa) = 24.14575 34.16592 29.15584
#
# Velocity S-wave (km/s) = 3.27254 3.89279 3.59606
# Velocity P-wave (km/s) = 5.46089 6.10824 5.79362
#
# Compressibility (1/GPa) = 0.02853786
#
# Stress axis : x y z
#
# Youngs Moduli (GPa) = 111.98409 71.92116 153.29817
#
# Poissons Ratio (x) = 0.04761 0.04691
# Poissons Ratio (y) = 0.07413 -0.08558
# Poissons Ratio (z) = 0.03427 -0.04015
#
# Static dielectric constant tensor:
#      x y z
#    x 1.728890 0.000130 -0.000100 
#    y 0.000130 1.846300 0.000000 
#    z -0.000100 0.000000 1.936700 
# 
# From -- ./inp_files/1433.got.cif
#   From: 2010.05.17/outbox.cif.g08.bks.cpg/sg43_1_cif.got.tgz:1433.got - 2010.06.03 19:21:55.
