data_PCOD9370803
_publ_section_title
;
Structure prediction by ZEFSAII (Michael W. Deem and Ramdas Pophale) SiO2 
 PCOD9370803
Probable space group: F D D 2
;
_chemical_formula_sum "Si O2"
_cell_formula_units_Z 112
_cell_length_a 14.213847
_cell_length_b 13.966566
_cell_length_c 24.170053
_cell_angle_alpha 90.000000
_cell_angle_beta 90.000000
_cell_angle_gamma 90.000000
_cell_volume 4798.205863
_symmetry_space_group_name_H-M "F D D 2"
_symmetry_group_IT_number 43
_symmetry_cell_setting 'orthorhombic'
loop_
_space_group_symop_operation_xyz
x,y,z
-x,-y,z
1/4-x,1/4+y,1/4+z
1/4+x,1/4-y,1/4+z
x,1/2+y,1/2+z
-x,1/2-y,1/2+z
1/4-x,3/4+y,3/4+z
1/4+x,3/4-y,3/4+z
1/2+x,y,1/2+z
1/2-x,-y,1/2+z
3/4-x,1/4+y,3/4+z
3/4+x,1/4-y,3/4+z
1/2+x,1/2+y,z
1/2-x,1/2-y,z
3/4-x,3/4+y,1/4+z
3/4+x,3/4-y,1/4+z
loop_
_atom_site_type_symbol
_atom_site_label
_atom_site_fract_x
_atom_site_fract_y
_atom_site_fract_z
Si Si1 0.707060 0.539984 0.238580
Si Si2 0.240218 0.066339 0.024640
Si Si3 0.622416 0.711946 0.180750
Si Si4 0.752197 0.600735 0.601726
Si Si5 0.685423 0.656530 0.712222
Si Si6 0.250000 0.750000 0.588197
Si Si7 0.967564 0.109867 0.107905
Si Si8 0.000000 0.000000 0.255887
O O1 0.701498 0.634393 0.199772
O O2 0.772371 0.447670 0.229293
O O3 0.721224 0.580636 0.300510
O O4 0.600572 0.502378 0.228207
O O5 0.211618 0.168175 0.048286
O O6 0.259833 0.006165 0.080453
O O7 0.335527 0.076922 0.990092
O O8 0.162789 0.018516 0.984828
O O9 0.664320 0.772586 0.129942
O O10 0.532961 0.657023 0.154385
O O11 0.681217 0.644404 0.645772
O O12 0.857819 0.611595 0.624370
O O13 0.746887 0.658867 0.545389
O O14 0.750000 0.750000 0.724593
O O15 0.000000 0.000000 0.098655
#
# Coordination Sequence:
#
# PCOD9370803 Si02
#       8
#    16  16  16  16  16   8  16   8
#     4  11  25  42  72 108 146 199 250 318 373 451
#     4  12  27  51  72 113 150 200 255 315 380 466
#     4  12  27  46  81 105 146 207 253 313 388 456
#     4  11  23  43  70 104 145 190 247 319 362 454
#     4  12  25  43  73 107 158 200 248 306 402 449
#     4  12  30  50  72 107 161 186 258 310 388 464
#     4  11  23  42  74 109 144 184 261 315 373 436
#     4  10  20  40  64  97 141 174 252 314 358 418
#
# _framework density 23.342058000000002
#
# number of rings (size 3 to 8) (size 9 to 14) (size 15 to 20)
#    0.000    0.571    3.571    5.143    6.000    2.286 
#    2.571    0.000    0.000    0.000    0.000    0.000 
#    0.000    0.000    0.000    0.000    0.000    0.000 
#
# Total GULP energy -156631.946298 kJ/mol
# GULP energy per Si atom -5593.998082 kJ/mol
# Density = 2.328893 g / cm^3
# Si number density = 23.342058 Si / 1000 Ang^3
#
#
#
# Elastic Constant Matrix: (Units=GPa)
#
#
# Indices 1 2 3 4 5 6 
#
# 1 93.5818 21.7923 36.7605 0.0000 0.0000 0.0000
# 2 21.7923 123.4941 44.6872 0.0000 0.0000 0.0000
# 3 36.7605 44.6872 107.6805 0.0000 0.0000 0.0000
# 4 0.0000 0.0000 0.0000 49.4103 0.0000 0.0000
# 5 0.0000 0.0000 0.0000 0.0000 41.4053 0.0000
# 6 0.0000 0.0000 0.0000 0.0000 0.0000 29.3603
#
#
#
# Elastic Compliance Matrix: (Units=1/GPa)
#
#
# Indices 1 2 3 4 5 6 
#
# 1 0.012403 -0.000773 -0.003914 0.000000 0.000000 0.000000
# 2 -0.000773 0.009577 -0.003711 0.000000 0.000000 0.000000
# 3 -0.003914 -0.003711 0.012163 0.000000 0.000000 0.000000
# 4 0.000000 0.000000 0.000000 0.020239 0.000000 0.000000
# 5 0.000000 0.000000 0.000000 0.000000 0.024151 0.000000
# 6 0.000000 0.000000 0.000000 0.000000 0.000000 0.034060
#
#
# Mechanical properties :
#
#
# Convention : Reuss Voigt Hill
#
# Bulk Modulus (GPa) = 57.64047 59.02627 58.33337
# Shear Modulus (GPa) = 36.99090 38.80295 37.89692
#
# Velocity S-wave (km/s) = 3.98519 4.08163 4.03370
# Velocity P-wave (km/s) = 6.77666 6.89604 6.83661
#
# Compressibility (1/GPa) = 0.01734892
#
# Stress axis : x y z
#
# Youngs Moduli (GPa) = 80.62517 104.42174 82.21891
#
# Poissons Ratio (x) = 0.08067 0.32177
# Poissons Ratio (y) = 0.06228 0.30507
# Poissons Ratio (z) = 0.31554 0.38746
#
# Static dielectric constant tensor:
#      x y z
#    x 1.866130 0.000000 0.000000 
#    y 0.000000 2.056900 0.000000 
#    z 0.000000 0.000000 1.895670 
# 
# From -- ./inp_files/21773.got.cif
#   From: 2010.05.17/outbox.cif.g08.bks.cpg/sg43_11_cif.got.tgz:21773.got - 2010.06.03 19:21:55.
