data_PCOD9370307
_publ_section_title
;
Structure prediction by ZEFSAII (Michael W. Deem and Ramdas Pophale) SiO2 
 PCOD9370307
Probable space group: F D D 2
;
_chemical_formula_sum "Si O2"
_cell_formula_units_Z 80
_cell_length_a 18.539431
_cell_length_b 5.556361
_cell_length_c 31.519939
_cell_angle_alpha 90.000000
_cell_angle_beta 90.000000
_cell_angle_gamma 90.000000
_cell_volume 3246.924750
_symmetry_space_group_name_H-M "F D D 2"
_symmetry_group_IT_number 43
_symmetry_cell_setting 'orthorhombic'
loop_
_space_group_symop_operation_xyz
x,y,z
-x,-y,z
1/4-x,1/4+y,1/4+z
1/4+x,1/4-y,1/4+z
x,1/2+y,1/2+z
-x,1/2-y,1/2+z
1/4-x,3/4+y,3/4+z
1/4+x,3/4-y,3/4+z
1/2+x,y,1/2+z
1/2-x,-y,1/2+z
3/4-x,1/4+y,3/4+z
3/4+x,1/4-y,3/4+z
1/2+x,1/2+y,z
1/2-x,1/2-y,z
3/4-x,3/4+y,1/4+z
3/4+x,3/4-y,1/4+z
loop_
_atom_site_type_symbol
_atom_site_label
_atom_site_fract_x
_atom_site_fract_y
_atom_site_fract_z
Si Si1 0.752626 0.000060 0.688130
Si Si2 0.670903 0.487771 0.990841
Si Si3 0.902297 0.442672 0.647381
Si Si4 0.629636 0.293210 0.369523
Si Si5 0.915697 0.748766 0.774738
O O1 0.750000 0.750000 0.712108
O O2 0.822862 0.985955 0.658223
O O3 0.750000 0.250000 0.712603
O O4 0.683579 0.019166 0.656609
O O5 0.681634 0.417434 0.941618
O O6 0.750290 0.496203 0.011396
O O7 0.631423 0.246790 0.006682
O O8 0.638734 0.747997 0.004191
O O9 0.921963 0.709264 0.630539
O O10 0.917122 0.218587 0.616851
O O11 0.589289 0.293872 0.324785
#
# Coordination Sequence:
#
# PCOD9370307 Si02
#       5
#    16  16  16  16  16
#     4   8  16  25  44  68  98 126 174 206 259 297
#     4  10  21  32  49  76 116 143 172 228 293 324
#     4  10  19  31  47  75 114 138 179 219 274 325
#     4  10  19  31  53  76 106 142 185 220 269 330
#     4  10  21  33  53  75 112 146 178 223 294 325
#
# _framework density 24.6387
#
# number of rings (size 3 to 8) (size 9 to 14) (size 15 to 20)
#    0.000    2.400    0.000    2.400   16.800    0.000 
#    0.000    0.000    0.000    0.000    0.000    0.000 
#  270.000    0.000    0.000    0.000    0.000    0.000 
#
# Total GULP energy -111377.546207 kJ/mol
# GULP energy per Si atom -5568.877310 kJ/mol
# Density = 2.458262 g / cm^3
# Si number density = 24.638700 Si / 1000 Ang^3
#
#
#
# Elastic Constant Matrix: (Units=GPa)
#
#
# Indices 1 2 3 4 5 6 
#
# 1 64.4509 25.8604 14.3930 0.0000 0.0000 0.0000
# 2 25.8604 342.0854 42.1656 0.0001 0.0000 0.0001
# 3 14.3930 42.1656 109.9120 0.0000 0.0000 0.0000
# 4 0.0000 0.0001 0.0000 32.0923 0.0000 0.0000
# 5 0.0000 0.0000 0.0000 0.0000 25.7727 0.0000
# 6 0.0000 0.0001 0.0000 0.0000 0.0000 3.8987
#
#
#
# Elastic Compliance Matrix: (Units=1/GPa)
#
#
# Indices 1 2 3 4 5 6 
#
# 1 0.016314 -0.001018 -0.001746 0.000000 0.000000 0.000000
# 2 -0.001018 0.003132 -0.001068 0.000000 0.000000 0.000000
# 3 -0.001746 -0.001068 0.009737 0.000000 0.000000 0.000000
# 4 0.000000 0.000000 0.000000 0.031160 0.000000 0.000000
# 5 0.000000 0.000000 0.000000 0.000000 0.038801 0.000000
# 6 0.000000 0.000000 0.000000 0.000000 0.000000 0.256497
#
#
# Mechanical properties :
#
#
# Convention : Reuss Voigt Hill
#
# Bulk Modulus (GPa) = 46.47171 75.69847 61.08509
# Shear Modulus (GPa) = 13.49611 41.28801 27.39206
#
# Velocity S-wave (km/s) = 2.34297 4.09802 3.33791
# Velocity P-wave (km/s) = 5.12070 7.29258 6.30093
#
# Compressibility (1/GPa) = 0.02151847
#
# Stress axis : x y z
#
# Youngs Moduli (GPa) = 61.29684 319.29776 102.70549
#
# Poissons Ratio (x) = 0.32508 0.17930
# Poissons Ratio (y) = 0.06241 0.10971
# Poissons Ratio (z) = 0.10701 0.34106
#
# Static dielectric constant tensor:
#      x y z
#    x 2.010320 0.000000 0.000000 
#    y 0.000000 2.131390 0.000000 
#    z 0.000000 0.000000 2.024560 
# 
# From -- ./inp_files/19513.got.cif
#   From: 2010.05.17/outbox.cif.g08.bks.cpg/sg43_10_cif.got.tgz:19513.got - 2010.06.03 19:21:55.
