data_PCOD9370521
_publ_section_title
;
Structure prediction by ZEFSAII (Michael W. Deem and Ramdas Pophale) SiO2 
 PCOD9370521
Probable space group: F D D 2
;
_chemical_formula_sum "Si O2"
_cell_formula_units_Z 88
_cell_length_a 29.478297
_cell_length_b 17.860974
_cell_length_c 7.258712
_cell_angle_alpha 90.000000
_cell_angle_beta 90.000000
_cell_angle_gamma 90.000000
_cell_volume 3821.792413
_symmetry_space_group_name_H-M "F D D 2"
_symmetry_group_IT_number 43
_symmetry_cell_setting 'orthorhombic'
loop_
_space_group_symop_operation_xyz
x,y,z
-x,-y,z
1/4-x,1/4+y,1/4+z
1/4+x,1/4-y,1/4+z
x,1/2+y,1/2+z
-x,1/2-y,1/2+z
1/4-x,3/4+y,3/4+z
1/4+x,3/4-y,3/4+z
1/2+x,y,1/2+z
1/2-x,-y,1/2+z
3/4-x,1/4+y,3/4+z
3/4+x,1/4-y,3/4+z
1/2+x,1/2+y,z
1/2-x,1/2-y,z
3/4-x,3/4+y,1/4+z
3/4+x,3/4-y,1/4+z
loop_
_atom_site_type_symbol
_atom_site_label
_atom_site_fract_x
_atom_site_fract_y
_atom_site_fract_z
Si Si1 0.071998 0.054875 0.340230
Si Si2 0.650831 0.662649 0.399768
Si Si3 0.853729 0.473227 0.367096
Si Si4 0.466785 0.123286 0.327737
Si Si5 0.000000 0.000000 0.593282
Si Si6 0.069136 0.636161 0.439422
O O1 0.115391 0.095940 0.427175
O O2 0.027506 0.057507 0.465634
O O3 0.064330 0.095308 0.141362
O O4 0.081186 0.966066 0.310647
O O5 0.623460 0.721823 0.273729
O O6 0.691946 0.632899 0.274048
O O7 0.810609 0.431172 0.453243
O O8 0.893131 0.412970 0.336368
O O9 0.838261 0.530219 0.211003
O O10 0.465340 0.043288 0.225954
O O11 0.519690 0.139268 0.352377
#
# Coordination Sequence:
#
# PCOD9370521 Si02
#       6
#    16  16  16  16   8  16
#     4  10  21  42  65  94 136 170 225 282 343 407
#     4  10  19  43  70  91 130 181 225 277 344 411
#     4  10  20  40  66 100 128 167 238 275 329 417
#     4  12  23  41  69  99 134 183 231 277 351 423
#     4  12  26  40  60 106 136 170 232 286 346 416
#     4  10  22  42  73  93 135 184 221 286 349 415
#
# _framework density 23.025846000000001
#
# number of rings (size 3 to 8) (size 9 to 14) (size 15 to 20)
#    0.000    1.455    5.455    3.273    0.000    2.909 
#    6.545    0.000    0.000    0.000    0.000    0.000 
#    0.000    0.000    0.000    0.000    0.000    0.000 
#
# Total GULP energy -123038.166744 kJ/mol
# GULP energy per Si atom -5592.643943 kJ/mol
# Density = 2.297344 g / cm^3
# Si number density = 23.025846 Si / 1000 Ang^3
#
#
#
# Elastic Constant Matrix: (Units=GPa)
#
#
# Indices 1 2 3 4 5 6 
#
# 1 184.1878 81.6042 46.9048 0.0000 0.0000 0.0000
# 2 81.6042 117.4071 19.5434 -0.0001 0.0000 0.0000
# 3 46.9048 19.5434 56.7323 -0.0002 0.0000 0.0000
# 4 0.0000 -0.0001 -0.0002 22.8727 0.0000 0.0000
# 5 0.0000 0.0000 0.0000 0.0000 16.3976 0.0000
# 6 0.0000 0.0000 0.0000 0.0000 0.0000 32.0679
#
#
#
# Elastic Compliance Matrix: (Units=1/GPa)
#
#
# Indices 1 2 3 4 5 6 
#
# 1 0.009371 -0.005542 -0.005839 0.000000 0.000000 0.000000
# 2 -0.005542 0.012313 0.000340 0.000000 0.000000 0.000000
# 3 -0.005839 0.000340 0.022337 0.000000 0.000000 0.000000
# 4 0.000000 0.000000 0.000000 0.043720 0.000000 0.000000
# 5 0.000000 0.000000 0.000000 0.000000 0.060984 0.000000
# 6 0.000000 0.000000 0.000000 0.000000 0.000000 0.031184
#
#
# Mechanical properties :
#
#
# Convention : Reuss Voigt Hill
#
# Bulk Modulus (GPa) = 45.57883 72.71465 59.14674
# Shear Modulus (GPa) = 23.88874 28.28596 26.08735
#
# Velocity S-wave (km/s) = 3.22448 3.50872 3.36960
# Velocity P-wave (km/s) = 5.80523 6.93274 6.39389
#
# Compressibility (1/GPa) = 0.02194001
#
# Stress axis : x y z
#
# Youngs Moduli (GPa) = 106.70716 81.21820 44.76876
#
# Poissons Ratio (x) = 0.45009 0.26141
# Poissons Ratio (y) = 0.59134 -0.01523
# Poissons Ratio (z) = 0.62307 -0.02764
#
# Static dielectric constant tensor:
#      x y z
#    x 1.827280 0.000000 0.000000 
#    y 0.000000 1.915080 0.000000 
#    z 0.000000 0.000000 1.874720 
# 
# From -- ./inp_files/4683.got.cif
#   From: 2010.05.17/outbox.cif.g08.bks.cpg/sg43_3_cif.got.tgz:4683.got - 2010.06.03 19:21:55.
