data_PCOD9370151
_publ_section_title
;
Structure prediction by ZEFSAII (Michael W. Deem and Ramdas Pophale) SiO2 
 PCOD9370151
Probable space group: F D D 2
;
_chemical_formula_sum "Si O2"
_cell_formula_units_Z 88
_cell_length_a 12.497520
_cell_length_b 13.485798
_cell_length_c 24.138018
_cell_angle_alpha 90.000000
_cell_angle_beta 90.000000
_cell_angle_gamma 90.000000
_cell_volume 4068.198145
_symmetry_space_group_name_H-M "F D D 2"
_symmetry_group_IT_number 43
_symmetry_cell_setting 'orthorhombic'
loop_
_space_group_symop_operation_xyz
x,y,z
-x,-y,z
1/4-x,1/4+y,1/4+z
1/4+x,1/4-y,1/4+z
x,1/2+y,1/2+z
-x,1/2-y,1/2+z
1/4-x,3/4+y,3/4+z
1/4+x,3/4-y,3/4+z
1/2+x,y,1/2+z
1/2-x,-y,1/2+z
3/4-x,1/4+y,3/4+z
3/4+x,1/4-y,3/4+z
1/2+x,1/2+y,z
1/2-x,1/2-y,z
3/4-x,3/4+y,1/4+z
3/4+x,3/4-y,1/4+z
loop_
_atom_site_type_symbol
_atom_site_label
_atom_site_fract_x
_atom_site_fract_y
_atom_site_fract_z
Si Si1 0.022002 0.243850 0.769610
Si Si2 0.654058 0.169769 0.172253
Si Si3 0.806515 0.369540 0.748351
Si Si4 0.019704 0.286002 0.393310
Si Si5 0.500000 0.000000 0.600444
Si Si6 0.115736 0.446653 0.802797
O O1 0.073940 0.176032 0.723308
O O2 0.100646 0.336540 0.781200
O O3 0.911989 0.299322 0.750362
O O4 0.008195 0.192123 0.829120
O O5 0.750000 0.250000 0.179884
O O6 0.592205 0.197731 0.115322
O O7 0.703561 0.061812 0.160520
O O8 0.755940 0.375269 0.687462
O O9 0.748562 0.338771 0.805377
O O10 0.827315 0.485063 0.758959
O O11 0.144975 0.254518 0.387762
O O12 0.000000 0.500000 0.808263
#
# Coordination Sequence:
#
# PCOD9370151 Si02
#       6
#    16  16  16  16   8  16
#     4   9  19  34  55  88 122 153 199 251 299 360
#     4  10  18  31  56  88 123 154 197 251 307 352
#     4  10  20  34  58  85 119 162 198 250 307 352
#     4  10  22  36  59  88 121 159 204 253 299 368
#     4  10  22  38  58  90 120 156 212 250 300 368
#     4   8  16  28  49  87 117 148 193 239 299 349
#
# _framework density 21.631197
#
# number of rings (size 3 to 8) (size 9 to 14) (size 15 to 20)
#    0.000    2.545    0.000    4.364    8.909    0.000 
#    0.000    1.818   16.000    0.000    0.000    0.000 
#    0.000    0.000    0.000    0.000    0.000    0.000 
#
# Total GULP energy -122604.736682 kJ/mol
# GULP energy per Si atom -5572.942576 kJ/mol
# Density = 2.158196 g / cm^3
# Si number density = 21.631197 Si / 1000 Ang^3
#
#
#
# Elastic Constant Matrix: (Units=GPa)
#
#
# Indices 1 2 3 4 5 6 
#
# 1 36.7894 15.3636 34.6553 0.0000 0.0000 0.0000
# 2 15.3636 33.4311 45.1498 0.0000 0.0000 0.0000
# 3 34.6553 45.1498 143.6996 0.0000 0.0000 0.0000
# 4 0.0000 0.0000 0.0000 23.8388 0.0000 0.0000
# 5 0.0000 0.0000 0.0000 0.0000 9.8342 0.0000
# 6 0.0000 0.0000 0.0000 0.0000 0.0000 12.1478
#
#
#
# Elastic Compliance Matrix: (Units=1/GPa)
#
#
# Indices 1 2 3 4 5 6 
#
# 1 0.036508 -0.008489 -0.006137 0.000000 0.000000 0.000000
# 2 -0.008489 0.053935 -0.014899 0.000000 0.000000 0.000000
# 3 -0.006137 -0.014899 0.013120 0.000000 0.000000 0.000000
# 4 0.000000 0.000000 0.000000 0.041948 0.000000 0.000000
# 5 0.000000 0.000000 0.000000 0.000000 0.101686 0.000000
# 6 0.000000 0.000000 0.000000 0.000000 0.000000 0.082320
#
#
# Mechanical properties :
#
#
# Convention : Reuss Voigt Hill
#
# Bulk Modulus (GPa) = 22.46544 44.91750 33.69147
# Shear Modulus (GPa) = 12.39448 17.08091 14.73770
#
# Velocity S-wave (km/s) = 2.39632 2.81311 2.61304
# Velocity P-wave (km/s) = 4.25026 5.60015 4.97123
#
# Compressibility (1/GPa) = 0.04451282
#
# Stress axis : x y z
#
# Youngs Moduli (GPa) = 27.39117 18.54083 76.21833
#
# Poissons Ratio (x) = 0.15740 0.46777
# Poissons Ratio (y) = 0.23253 1.13557
# Poissons Ratio (z) = 0.16811 0.27624
#
# Static dielectric constant tensor:
#      x y z
#    x 1.849620 0.000000 0.000000 
#    y 0.000000 1.809720 0.000000 
#    z 0.000000 0.000000 1.830010 
# 
# From -- ./inp_files/21006.got.cif
#   From: 2010.05.17/outbox.cif.g08.bks.cpg/sg43_11_cif.got.tgz:21006.got - 2010.06.03 19:21:55.
