data_PCOD9370907
_publ_section_title
;
Structure prediction by ZEFSAII (Michael W. Deem and Ramdas Pophale) SiO2 
 PCOD9370907
Probable space group: F D D 2
;
_chemical_formula_sum "Si O2"
_cell_formula_units_Z 120
_cell_length_a 16.665029
_cell_length_b 17.011091
_cell_length_c 21.407080
_cell_angle_alpha 90.000000
_cell_angle_beta 90.000000
_cell_angle_gamma 90.000000
_cell_volume 6068.700063
_symmetry_space_group_name_H-M "F D D 2"
_symmetry_group_IT_number 43
_symmetry_cell_setting 'orthorhombic'
loop_
_space_group_symop_operation_xyz
x,y,z
-x,-y,z
1/4-x,1/4+y,1/4+z
1/4+x,1/4-y,1/4+z
x,1/2+y,1/2+z
-x,1/2-y,1/2+z
1/4-x,3/4+y,3/4+z
1/4+x,3/4-y,3/4+z
1/2+x,y,1/2+z
1/2-x,-y,1/2+z
3/4-x,1/4+y,3/4+z
3/4+x,1/4-y,3/4+z
1/2+x,1/2+y,z
1/2-x,1/2-y,z
3/4-x,3/4+y,1/4+z
3/4+x,3/4-y,1/4+z
loop_
_atom_site_type_symbol
_atom_site_label
_atom_site_fract_x
_atom_site_fract_y
_atom_site_fract_z
Si Si1 0.500000 0.500000 0.539430
Si Si2 0.078588 0.804695 0.063661
Si Si3 0.408916 0.818175 0.605930
Si Si4 0.654045 0.104652 0.299024
Si Si5 0.260819 0.039917 0.698919
Si Si6 0.263733 0.932308 0.579401
Si Si7 0.796727 0.083592 0.997138
Si Si8 0.874405 0.927610 0.445477
O O1 0.532032 0.420979 0.572441
O O2 0.426193 0.475535 0.495014
O O3 0.056318 0.743150 0.010118
O O4 0.151069 0.855655 0.036639
O O5 0.100647 0.774633 0.133135
O O6 0.993673 0.849065 0.077183
O O7 0.404784 0.726852 0.586776
O O8 0.334049 0.868454 0.583108
O O9 0.411548 0.824382 0.680269
O O10 0.682096 0.080375 0.228828
O O11 0.566944 0.142245 0.304807
O O12 0.319131 0.106758 0.672712
O O13 0.248145 0.973254 0.647157
O O14 0.290330 0.002066 0.533771
O O15 0.704948 0.105174 0.979473
#
# Coordination Sequence:
#
# PCOD9370907 Si02
#       8
#     8  16  16  16  16  16  16  16
#     4  10  20  42  66  92 134 172 212 284 324 398
#     4  10  21  41  61  95 128 163 214 270 329 393
#     4  10  24  42  65  94 134 169 222 273 329 397
#     4  10  23  44  64  95 131 174 226 268 330 404
#     4  10  22  41  66  94 132 167 214 274 331 393
#     4  12  22  43  69  95 129 176 219 271 336 400
#     4  11  22  40  64  97 128 170 216 271 330 398
#     4  10  21  38  63  96 128 166 216 265 331 395
#
# _framework density 19.773592000000001
#
# number of rings (size 3 to 8) (size 9 to 14) (size 15 to 20)
#    0.000    1.600    4.000    0.400    0.000    4.267 
#    4.800    0.000    0.000    0.000    0.000    0.000 
#    0.000    0.000    0.000    0.000    0.000    0.000 
#
# Total GULP energy -167306.135757 kJ/mol
# GULP energy per Si atom -5576.871192 kJ/mol
# Density = 1.972859 g / cm^3
# Si number density = 19.773592 Si / 1000 Ang^3
#
#
#
# Elastic Constant Matrix: (Units=GPa)
#
#
# Indices 1 2 3 4 5 6 
#
# 1 95.5741 24.5013 19.0538 0.0000 0.0000 0.0000
# 2 24.5013 49.7925 4.0315 0.0000 0.0000 0.0000
# 3 19.0538 4.0315 54.9786 0.0000 0.0000 0.0000
# 4 0.0000 0.0000 0.0000 27.4656 0.0000 0.0000
# 5 0.0000 0.0000 0.0000 0.0000 26.5479 0.0000
# 6 0.0000 0.0000 0.0000 0.0000 0.0000 40.2249
#
#
#
# Elastic Compliance Matrix: (Units=1/GPa)
#
#
# Indices 1 2 3 4 5 6 
#
# 1 0.012790 -0.005970 -0.003995 0.000000 0.000000 0.000000
# 2 -0.005970 0.022990 0.000383 0.000000 0.000000 0.000000
# 3 -0.003995 0.000383 0.019545 0.000000 0.000000 0.000000
# 4 0.000000 0.000000 0.000000 0.036409 0.000000 0.000000
# 5 0.000000 0.000000 0.000000 0.000000 0.037668 0.000000
# 6 0.000000 0.000000 0.000000 0.000000 0.000000 0.024860
#
#
# Mechanical properties :
#
#
# Convention : Reuss Voigt Hill
#
# Bulk Modulus (GPa) = 27.65344 32.83538 30.24441
# Shear Modulus (GPa) = 26.95712 29.03159 27.99436
#
# Velocity S-wave (km/s) = 3.69628 3.83587 3.76672
# Velocity P-wave (km/s) = 5.67733 6.02165 5.85202
#
# Compressibility (1/GPa) = 0.03616187
#
# Stress axis : x y z
#
# Youngs Moduli (GPa) = 78.18613 43.49715 51.16327
#
# Poissons Ratio (x) = 0.25968 0.20439
# Poissons Ratio (y) = 0.46678 -0.01961
# Poissons Ratio (z) = 0.31234 -0.01667
#
# Static dielectric constant tensor:
#      x y z
#    x 1.710230 0.000000 0.000000 
#    y 0.000000 1.694770 0.000000 
#    z 0.000000 0.000000 1.698030 
# 
# From -- ./inp_files/21832.got.cif
#   From: 2010.05.17/outbox.cif.g08.bks.cpg/sg43_11_cif.got.tgz:21832.got - 2010.06.03 19:21:55.
