data_PCOD9370551
_publ_section_title
;
Structure prediction by ZEFSAII (Michael W. Deem and Ramdas Pophale) SiO2 
 PCOD9370551
Probable space group: F D D 2
;
_chemical_formula_sum "Si O2"
_cell_formula_units_Z 104
_cell_length_a 18.703209
_cell_length_b 32.863801
_cell_length_c 7.994096
_cell_angle_alpha 90.000000
_cell_angle_beta 90.000000
_cell_angle_gamma 90.000000
_cell_volume 4913.639365
_symmetry_space_group_name_H-M "F D D 2"
_symmetry_group_IT_number 43
_symmetry_cell_setting 'orthorhombic'
loop_
_space_group_symop_operation_xyz
x,y,z
-x,-y,z
1/4-x,1/4+y,1/4+z
1/4+x,1/4-y,1/4+z
x,1/2+y,1/2+z
-x,1/2-y,1/2+z
1/4-x,3/4+y,3/4+z
1/4+x,3/4-y,3/4+z
1/2+x,y,1/2+z
1/2-x,-y,1/2+z
3/4-x,1/4+y,3/4+z
3/4+x,1/4-y,3/4+z
1/2+x,1/2+y,z
1/2-x,1/2-y,z
3/4-x,3/4+y,1/4+z
3/4+x,3/4-y,1/4+z
loop_
_atom_site_type_symbol
_atom_site_label
_atom_site_fract_x
_atom_site_fract_y
_atom_site_fract_z
Si Si1 0.250000 0.750000 0.392120
Si Si2 0.230313 0.542536 0.698421
Si Si3 0.115756 0.938310 0.570740
Si Si4 0.730313 0.457464 0.085821
Si Si5 0.134244 0.811690 0.463502
Si Si6 0.324941 0.386395 0.992711
Si Si7 0.675059 0.386395 0.291531
O O1 0.195353 0.721156 0.294879
O O2 0.195353 0.778844 0.489362
O O3 0.305242 0.543951 0.595554
O O4 0.250000 0.541488 0.892121
O O5 0.193939 0.500000 0.642121
O O6 0.188991 0.584154 0.649327
O O7 0.099211 0.910514 0.735124
O O8 0.118588 0.909637 0.409232
O O9 0.805242 0.456049 0.188688
O O10 0.688991 0.415846 0.134915
O O11 0.131412 0.840363 0.625010
O O12 0.150789 0.839486 0.299118
O O13 0.250000 0.385437 0.892121
#
# Coordination Sequence:
#
# PCOD9370551 Si02
#       7
#     8  16  16  16  16  16  16
#     4  12  20  32  60  90 112 156 190 238 288 360
#     4  11  22  37  60  85 113 152 197 243 290 345
#     4  10  20  35  59  85 114 151 193 237 289 352
#     4  11  22  37  60  85 113 152 197 243 290 345
#     4  10  20  35  59  85 114 151 193 237 289 352
#     4   9  19  37  58  83 112 151 194 238 287 348
#     4   9  19  37  58  83 112 151 194 238 287 348
#
# _framework density 21.165575
#
# number of rings (size 3 to 8) (size 9 to 14) (size 15 to 20)
#    0.000    1.846    3.077    2.769    0.000    1.231 
#    0.000    0.000    0.000    1.846    0.000    0.000 
#    0.000    0.000    0.000    0.000    0.000    0.000 
#
# Total GULP energy -144873.937937 kJ/mol
# GULP energy per Si atom -5572.074536 kJ/mol
# Density = 2.111740 g / cm^3
# Si number density = 21.165575 Si / 1000 Ang^3
#
#
#
# Elastic Constant Matrix: (Units=GPa)
#
#
# Indices 1 2 3 4 5 6 
#
# 1 59.4353 14.3829 -17.5283 0.0000 -0.0007 0.0000
# 2 14.3829 104.4538 10.4429 0.0000 -0.0002 0.0000
# 3 -17.5283 10.4429 64.9524 0.0000 -0.0010 0.0000
# 4 0.0000 0.0000 0.0000 21.5312 0.0000 0.0000
# 5 -0.0007 -0.0002 -0.0010 0.0000 14.2429 0.0000
# 6 0.0000 0.0000 0.0000 0.0000 0.0000 11.1773
#
#
#
# Elastic Compliance Matrix: (Units=1/GPa)
#
#
# Indices 1 2 3 4 5 6 
#
# 1 0.019295 -0.003229 0.005726 0.000000 0.000001 0.000000
# 2 -0.003229 0.010270 -0.002523 0.000000 0.000000 0.000000
# 3 0.005726 -0.002523 0.017347 0.000000 0.000001 0.000000
# 4 0.000000 0.000000 0.000000 0.046444 0.000000 0.000000
# 5 0.000001 0.000000 0.000001 0.000000 0.070210 0.000000
# 6 0.000000 0.000000 0.000000 0.000000 0.000000 0.089467
#
#
# Mechanical properties :
#
#
# Convention : Reuss Voigt Hill
#
# Bulk Modulus (GPa) = 21.33975 27.04850 24.19412
# Shear Modulus (GPa) = 18.60768 24.15988 21.38378
#
# Velocity S-wave (km/s) = 2.96826 3.38223 3.18199
# Velocity P-wave (km/s) = 4.67457 5.29716 4.99557
#
# Compressibility (1/GPa) = 0.04686091
#
# Stress axis : x y z
#
# Youngs Moduli (GPa) = 51.82615 97.36625 57.64753
#
# Poissons Ratio (x) = 0.31443 -0.33011
# Poissons Ratio (y) = 0.16737 0.14543
# Poissons Ratio (z) = -0.29677 0.24563
#
# Static dielectric constant tensor:
#      x y z
#    x 1.763400 0.000000 0.000000 
#    y 0.000000 1.892710 0.000000 
#    z 0.000000 0.000000 1.779010 
# 
# From -- ./inp_files/3459.got.cif
#   From: 2010.05.17/outbox.cif.g08.bks.cpg/sg43_2_cif.got.tgz:3459.got - 2010.06.03 19:21:55.
