data_PCOD9370031
_publ_section_title
;
Structure prediction by ZEFSAII (Michael W. Deem and Ramdas Pophale) SiO2 
 PCOD9370031
Probable space group: F D D 2
;
_chemical_formula_sum "Si O2"
_cell_formula_units_Z 96
_cell_length_a 9.835317
_cell_length_b 16.122966
_cell_length_c 25.253377
_cell_angle_alpha 90.000000
_cell_angle_beta 90.000000
_cell_angle_gamma 90.000000
_cell_volume 4004.541166
_symmetry_space_group_name_H-M "F D D 2"
_symmetry_group_IT_number 43
_symmetry_cell_setting 'orthorhombic'
loop_
_space_group_symop_operation_xyz
x,y,z
-x,-y,z
1/4-x,1/4+y,1/4+z
1/4+x,1/4-y,1/4+z
x,1/2+y,1/2+z
-x,1/2-y,1/2+z
1/4-x,3/4+y,3/4+z
1/4+x,3/4-y,3/4+z
1/2+x,y,1/2+z
1/2-x,-y,1/2+z
3/4-x,1/4+y,3/4+z
3/4+x,1/4-y,3/4+z
1/2+x,1/2+y,z
1/2-x,1/2-y,z
3/4-x,3/4+y,1/4+z
3/4+x,3/4-y,1/4+z
loop_
_atom_site_type_symbol
_atom_site_label
_atom_site_fract_x
_atom_site_fract_y
_atom_site_fract_z
Si Si1 0.821025 0.413831 0.962150
Si Si2 0.670210 0.460332 0.817911
Si Si3 0.618924 0.564051 0.131161
Si Si4 0.474593 0.911747 0.807580
Si Si5 0.176907 0.538473 0.202327
Si Si6 0.701009 0.923817 0.896774
O O1 0.708622 0.365737 0.927185
O O2 0.959172 0.360695 0.963361
O O3 0.832685 0.503967 0.938071
O O4 0.762197 0.414061 0.021099
O O5 0.584436 0.381712 0.837683
O O6 0.653204 0.493331 0.758570
O O7 0.680912 0.536723 0.859718
O O8 0.819702 0.418901 0.822280
O O9 0.500000 0.500000 0.112724
O O10 0.744862 0.517729 0.158949
O O11 0.573923 0.913349 0.857003
O O12 0.500000 0.000000 0.777567
O O13 0.046895 0.587403 0.178197
#
# Coordination Sequence:
#
# PCOD9370031 Si02
#       6
#    16  16  16  16  16  16
#     4  10  15  26  43  66 103 138 157 203 276 297
#     4  10  18  29  46  73 106 131 167 215 259 307
#     4   9  17  28  43  68 103 134 165 209 263 306
#     4  10  14  27  40  64 103 131 158 214 254 303
#     4  11  17  29  46  72 106 134 166 217 257 305
#     4  10  20  27  44  75 106 134 168 215 260 316
#
# _framework density 23.972784000000001
#
# number of rings (size 3 to 8) (size 9 to 14) (size 15 to 20)
#    0.000    2.000    5.000    6.000    0.000    0.000 
#    0.000    0.000    0.000    0.000    4.333    4.667 
#    0.000    0.000    0.000    0.000    0.000    0.667 
#
# Total GULP energy -134090.967816 kJ/mol
# GULP energy per Si atom -5587.123659 kJ/mol
# Density = 2.391822 g / cm^3
# Si number density = 23.972784 Si / 1000 Ang^3
#
#
#
# Elastic Constant Matrix: (Units=GPa)
#
#
# Indices 1 2 3 4 5 6 
#
# 1 61.0008 39.0690 8.9336 0.0000 0.0000 0.0000
# 2 39.0690 166.8894 99.5793 0.0000 0.0000 0.0000
# 3 8.9336 99.5793 138.8212 0.0000 0.0000 0.0000
# 4 0.0000 0.0000 0.0000 53.0509 0.0000 0.0000
# 5 0.0000 0.0000 0.0000 0.0000 -3.5437 0.0000
# 6 0.0000 0.0000 0.0000 0.0000 0.0000 23.7779
#
#
#
# Elastic Compliance Matrix: (Units=1/GPa)
#
#
# Indices 1 2 3 4 5 6 
#
# 1 0.020304 -0.006947 0.003677 0.000000 0.000000 0.000000
# 2 -0.006947 0.012853 -0.008772 0.000000 0.000000 0.000000
# 3 0.003677 -0.008772 0.013259 0.000000 0.000000 0.000000
# 4 0.000000 0.000000 0.000000 0.018850 0.000000 0.000000
# 5 0.000000 0.000000 0.000000 0.000000 -0.282192 0.000000
# 6 0.000000 0.000000 0.000000 0.000000 0.000000 0.042056
#
#
# Mechanical properties :
#
#
# Convention : Reuss Voigt Hill
#
# Bulk Modulus (GPa) = 44.78149 73.54171 59.16160
# Shear Modulus (GPa) = -34.88186 29.26565 -2.80810
#
# Velocity S-wave (km/s) = -3.81866 3.49777 -1.08347
# Velocity P-wave (km/s) = 0.84985 6.85976 4.81321
#
# Compressibility (1/GPa) = 0.02233066
#
# Stress axis : x y z
#
# Youngs Moduli (GPa) = 49.25121 77.80568 75.41769
#
# Poissons Ratio (x) = 0.54051 -0.27728
# Poissons Ratio (y) = 0.34214 0.66159
# Poissons Ratio (z) = -0.18107 0.68254
#
# Static dielectric constant tensor:
#      x y z
#    x 1.980180 0.000000 0.000000 
#    y 0.000000 1.966200 0.000000 
#    z 0.000000 0.000000 1.929530 
# 
# From -- ./inp_files/29154.got.cif
#   From: 2010.05.17/outbox.cif.g08.bks.cpg/sg43_15_cif.got.tgz:29154.got - 2010.06.03 19:21:55.
