data_PCOD9370092
_publ_section_title
;
Structure prediction by ZEFSAII (Michael W. Deem and Ramdas Pophale) SiO2 
 PCOD9370092
Probable space group: F D D 2
;
_chemical_formula_sum "Si O2"
_cell_formula_units_Z 104
_cell_length_a 21.281674
_cell_length_b 8.391770
_cell_length_c 25.987204
_cell_angle_alpha 90.000000
_cell_angle_beta 90.000000
_cell_angle_gamma 90.000000
_cell_volume 4641.078500
_symmetry_space_group_name_H-M "F D D 2"
_symmetry_group_IT_number 43
_symmetry_cell_setting 'orthorhombic'
loop_
_space_group_symop_operation_xyz
x,y,z
-x,-y,z
1/4-x,1/4+y,1/4+z
1/4+x,1/4-y,1/4+z
x,1/2+y,1/2+z
-x,1/2-y,1/2+z
1/4-x,3/4+y,3/4+z
1/4+x,3/4-y,3/4+z
1/2+x,y,1/2+z
1/2-x,-y,1/2+z
3/4-x,1/4+y,3/4+z
3/4+x,1/4-y,3/4+z
1/2+x,1/2+y,z
1/2-x,1/2-y,z
3/4-x,3/4+y,1/4+z
3/4+x,3/4-y,1/4+z
loop_
_atom_site_type_symbol
_atom_site_label
_atom_site_fract_x
_atom_site_fract_y
_atom_site_fract_z
Si Si1 0.000000 0.500000 0.554451
Si Si2 0.351009 0.509930 0.318810
Si Si3 0.176593 0.949863 0.727667
Si Si4 0.179908 0.183643 0.467027
Si Si5 0.165977 0.479787 0.634557
Si Si6 0.500000 0.000000 0.392667
Si Si7 0.815907 0.168638 0.419250
Si Si8 0.750000 0.250000 0.206691
O O1 0.034924 0.339098 0.574397
O O2 0.057170 0.577603 0.522262
O O3 0.379040 0.563154 0.263932
O O4 0.400049 0.378521 0.337070
O O5 0.348851 0.643077 0.363505
O O6 0.211900 0.869038 0.679449
O O7 0.106877 0.977880 0.708748
O O8 0.208656 0.122233 0.737691
O O9 0.250000 0.250000 0.478586
O O10 0.144849 0.274326 0.419393
O O11 0.188287 0.005384 0.445204
O O12 0.201528 0.635560 0.615354
O O13 0.205973 0.361160 0.671368
O O14 0.750000 0.250000 0.410843
#
# Coordination Sequence:
#
# PCOD9370092 Si02
#       8
#     8  16  16  16  16   8  16   8
#     4  11  26  40  72 101 138 178 239 290 338 422
#     4  11  25  45  67 106 133 186 236 286 352 421
#     4  10  20  40  66  98 127 175 225 278 346 401
#     4  11  25  43  72  96 146 186 225 286 361 411
#     4  10  22  41  69 100 134 187 226 284 350 411
#     4   9  20  34  70  92 128 168 224 284 330 408
#     4  11  27  45  72 100 140 184 232 289 355 415
#     4  10  16  38  68  91 124 172 229 268 344 404
#
# _framework density 22.408584999999999
#
# number of rings (size 3 to 8) (size 9 to 14) (size 15 to 20)
#    0.000    1.538    3.077    2.769    9.692    1.231 
#    1.385    1.538    3.385    0.000    0.000    0.000 
#    0.000    0.000    0.000    0.000    0.000    0.000 
#
# Total GULP energy -144955.934270 kJ/mol
# GULP energy per Si atom -5575.228241 kJ/mol
# Density = 2.235758 g / cm^3
# Si number density = 22.408585 Si / 1000 Ang^3
#
#
#
# Elastic Constant Matrix: (Units=GPa)
#
#
# Indices 1 2 3 4 5 6 
#
# 1 81.0955 37.1284 10.4495 0.0000 0.0000 0.0000
# 2 37.1284 84.5319 24.1259 0.0000 0.0000 0.0000
# 3 10.4495 24.1259 67.8236 0.0000 0.0000 0.0000
# 4 0.0000 0.0000 0.0000 8.7957 0.0000 0.0000
# 5 0.0000 0.0000 0.0000 0.0000 16.4891 0.0000
# 6 0.0000 0.0000 0.0000 0.0000 0.0000 55.3299
#
#
#
# Elastic Compliance Matrix: (Units=1/GPa)
#
#
# Indices 1 2 3 4 5 6 
#
# 1 0.015435 -0.006790 0.000037 0.000000 0.000000 0.000000
# 2 -0.006790 0.016154 -0.004700 0.000000 0.000000 0.000000
# 3 0.000037 -0.004700 0.016410 0.000000 0.000000 0.000000
# 4 0.000000 0.000000 0.000000 0.113692 0.000000 0.000000
# 5 0.000000 0.000000 0.000000 0.000000 0.060646 0.000000
# 6 0.000000 0.000000 0.000000 0.000000 0.000000 0.018073
#
#
# Mechanical properties :
#
#
# Convention : Reuss Voigt Hill
#
# Bulk Modulus (GPa) = 39.85111 41.87318 40.86214
# Shear Modulus (GPa) = 18.40400 26.90610 22.65505
#
# Velocity S-wave (km/s) = 2.86893 3.46888 3.18307
# Velocity P-wave (km/s) = 5.36627 5.89669 5.63772
#
# Compressibility (1/GPa) = 0.02509340
#
# Stress axis : x y z
#
# Youngs Moduli (GPa) = 64.78749 61.90570 60.93761
#
# Poissons Ratio (x) = 0.42034 -0.00227
# Poissons Ratio (y) = 0.43991 0.28640
# Poissons Ratio (z) = -0.00242 0.29095
#
# Static dielectric constant tensor:
#      x y z
#    x 1.991080 0.000000 0.000000 
#    y 0.000000 1.936810 0.000000 
#    z 0.000000 0.000000 1.814230 
# 
# From -- ./inp_files/26374.got.cif
#   From: 2010.05.17/outbox.cif.g08.bks.cpg/sg43_14_cif.got.tgz:26374.got - 2010.06.03 19:21:55.
