data_PCOD9370140
_publ_section_title
;
Structure prediction by ZEFSAII (Michael W. Deem and Ramdas Pophale) SiO2 
 PCOD9370140
Probable space group: F D D 2
;
_chemical_formula_sum "Si O2"
_cell_formula_units_Z 112
_cell_length_a 20.687574
_cell_length_b 10.911389
_cell_length_c 19.169450
_cell_angle_alpha 90.000000
_cell_angle_beta 90.000000
_cell_angle_gamma 90.000000
_cell_volume 4327.123157
_symmetry_space_group_name_H-M "F D D 2"
_symmetry_group_IT_number 43
_symmetry_cell_setting 'orthorhombic'
loop_
_space_group_symop_operation_xyz
x,y,z
-x,-y,z
1/4-x,1/4+y,1/4+z
1/4+x,1/4-y,1/4+z
x,1/2+y,1/2+z
-x,1/2-y,1/2+z
1/4-x,3/4+y,3/4+z
1/4+x,3/4-y,3/4+z
1/2+x,y,1/2+z
1/2-x,-y,1/2+z
3/4-x,1/4+y,3/4+z
3/4+x,1/4-y,3/4+z
1/2+x,1/2+y,z
1/2-x,1/2-y,z
3/4-x,3/4+y,1/4+z
3/4+x,3/4-y,1/4+z
loop_
_atom_site_type_symbol
_atom_site_label
_atom_site_fract_x
_atom_site_fract_y
_atom_site_fract_z
Si Si1 0.750000 0.750000 0.834121
Si Si2 0.331470 0.450198 0.696405
Si Si3 0.891105 0.214785 0.123689
Si Si4 0.866534 0.472750 0.466177
Si Si5 0.877421 0.134892 0.259022
Si Si6 0.781501 0.000885 0.850944
Si Si7 0.001226 0.757398 0.825297
Si Si8 0.000000 0.500000 0.415119
O O1 0.813336 0.702883 0.790407
O O2 0.764274 0.866660 0.881086
O O3 0.376356 0.338145 0.671138
O O4 0.370075 0.579500 0.693864
O O5 0.304281 0.463715 0.774339
O O6 0.269908 0.431349 0.644834
O O7 0.867316 0.114253 0.177471
O O8 0.862697 0.258230 0.050550
O O9 0.964677 0.181003 0.106611
O O10 0.836651 0.546672 0.400743
O O11 0.817923 0.489383 0.531374
O O12 0.939899 0.518881 0.467068
O O13 0.942373 0.213456 0.274873
O O14 0.991597 0.889233 0.860890
#
# Coordination Sequence:
#
# PCOD9370140 Si02
#       8
#     8  16  16  16  16  16  16   8
#     4  10  18  29  50  78 117 150 174 230 298 347
#     4  10  22  34  53  86 115 143 185 245 299 353
#     4  10  20  33  55  83 123 145 191 231 303 356
#     4  11  21  34  58  80 110 149 186 240 294 361
#     4  10  19  34  52  86 118 154 188 243 297 364
#     4  11  19  32  55  80 112 144 182 234 300 353
#     4  10  21  36  55  81 117 145 190 243 299 354
#     4  10  22  35  54  84 111 142 188 238 298 347
#
# _framework density 25.883247999999998
#
# number of rings (size 3 to 8) (size 9 to 14) (size 15 to 20)
#    0.000    1.714    2.857    4.286    2.000    0.571 
#    0.000    0.000   12.571    0.000    0.000    0.000 
#    0.000    0.000    0.000    0.000    0.000    0.000 
#
# Total GULP energy -155959.726919 kJ/mol
# GULP energy per Si atom -5569.990247 kJ/mol
# Density = 2.582434 g / cm^3
# Si number density = 25.883248 Si / 1000 Ang^3
#
#
#
# Elastic Constant Matrix: (Units=GPa)
#
#
# Indices 1 2 3 4 5 6 
#
# 1 204.0629 17.0368 78.5279 0.0000 0.0000 0.0000
# 2 17.0368 26.5281 14.8812 0.0000 0.0000 0.0000
# 3 78.5279 14.8812 176.5284 0.0000 0.0000 0.0000
# 4 0.0000 0.0000 0.0000 28.2093 0.0000 0.0000
# 5 0.0000 0.0000 0.0000 0.0000 48.1413 0.0000
# 6 0.0000 0.0000 0.0000 0.0000 0.0000 17.9878
#
#
#
# Elastic Compliance Matrix: (Units=1/GPa)
#
#
# Indices 1 2 3 4 5 6 
#
# 1 0.006067 -0.002500 -0.002488 0.000000 0.000000 0.000000
# 2 -0.002500 0.040597 -0.002310 0.000000 0.000000 0.000000
# 3 -0.002488 -0.002310 0.006966 0.000000 0.000000 0.000000
# 4 0.000000 0.000000 0.000000 0.035449 0.000000 0.000000
# 5 0.000000 0.000000 0.000000 0.000000 0.020772 0.000000
# 6 0.000000 0.000000 0.000000 0.000000 0.000000 0.055593
#
#
# Mechanical properties :
#
#
# Convention : Reuss Voigt Hill
#
# Bulk Modulus (GPa) = 25.61895 69.77900 47.69897
# Shear Modulus (GPa) = 25.89963 38.64593 32.27278
#
# Velocity S-wave (km/s) = 3.16671 3.86824 3.53492
# Velocity P-wave (km/s) = 4.82598 6.85337 5.92701
#
# Compressibility (1/GPa) = 0.03903361
#
# Stress axis : x y z
#
# Youngs Moduli (GPa) = 164.83663 24.63207 143.54862
#
# Poissons Ratio (x) = 0.06159 0.35714
# Poissons Ratio (y) = 0.41217 0.33160
# Poissons Ratio (z) = 0.41010 0.05690
#
# Static dielectric constant tensor:
#      x y z
#    x 2.191280 0.000000 0.000000 
#    y 0.000000 2.177250 0.000000 
#    z 0.000000 0.000000 2.180540 
# 
# From -- ./inp_files/14650.got.cif
#   From: 2010.05.17/outbox.cif.g08.bks.cpg/sg43_8_cif.got.tgz:14650.got - 2010.06.03 19:21:55.
