data_PCOD9370874
_publ_section_title
;
Structure prediction by ZEFSAII (Michael W. Deem and Ramdas Pophale) SiO2 
 PCOD9370874
Probable space group: F D D 2
;
_chemical_formula_sum "Si O2"
_cell_formula_units_Z 120
_cell_length_a 22.331674
_cell_length_b 12.721293
_cell_length_c 17.529326
_cell_angle_alpha 90.000000
_cell_angle_beta 90.000000
_cell_angle_gamma 90.000000
_cell_volume 4979.867100
_symmetry_space_group_name_H-M "F D D 2"
_symmetry_group_IT_number 43
_symmetry_cell_setting 'orthorhombic'
loop_
_space_group_symop_operation_xyz
x,y,z
-x,-y,z
1/4-x,1/4+y,1/4+z
1/4+x,1/4-y,1/4+z
x,1/2+y,1/2+z
-x,1/2-y,1/2+z
1/4-x,3/4+y,3/4+z
1/4+x,3/4-y,3/4+z
1/2+x,y,1/2+z
1/2-x,-y,1/2+z
3/4-x,1/4+y,3/4+z
3/4+x,1/4-y,3/4+z
1/2+x,1/2+y,z
1/2-x,1/2-y,z
3/4-x,3/4+y,1/4+z
3/4+x,3/4-y,1/4+z
loop_
_atom_site_type_symbol
_atom_site_label
_atom_site_fract_x
_atom_site_fract_y
_atom_site_fract_z
Si Si1 0.750000 0.250000 0.460620
Si Si2 0.853692 0.275906 0.735179
Si Si3 0.099756 0.140713 0.727706
Si Si4 0.939910 0.626846 0.696283
Si Si5 0.506141 0.140624 0.539608
Si Si6 0.931905 0.665925 0.106526
Si Si7 0.679603 0.396624 0.128152
Si Si8 0.196905 0.146103 0.618957
O O1 0.697878 0.306196 0.506254
O O2 0.779532 0.340185 0.409414
O O3 0.800328 0.363652 0.734451
O O4 0.814466 0.176121 0.765114
O O5 0.888874 0.238680 0.659739
O O6 0.903458 0.316925 0.796152
O O7 0.068800 0.247951 0.703352
O O8 0.145676 0.154070 0.796250
O O9 0.136505 0.098897 0.654310
O O10 0.874991 0.574670 0.682950
O O11 0.959209 0.595896 0.779484
O O12 0.980952 0.606934 0.623583
O O13 0.526585 0.258403 0.555823
O O14 0.747612 0.426950 0.144466
O O15 0.688085 0.269690 0.139215
#
# Coordination Sequence:
#
# PCOD9370874 Si02
#       8
#     8  16  16  16  16  16  16  16
#     4  12  26  46  72  98 144 192 246 310 372 454
#     4  10  23  43  70 108 148 197 247 307 381 455
#     4  11  25  43  66  99 138 190 248 304 379 445
#     4  10  20  41  67  93 137 184 233 304 369 430
#     4  10  22  44  70 103 149 188 250 307 375 459
#     4  12  25  46  72 104 150 197 249 313 384 458
#     4   9  21  37  64 101 134 173 238 288 363 436
#     4  10  21  40  63  98 135 180 239 300 363 439
#
# _framework density 24.097028000000002
#
# number of rings (size 3 to 8) (size 9 to 14) (size 15 to 20)
#    0.000    1.600    1.333    2.400    0.000   11.733 
#    2.400    0.000    0.000    0.000    0.000    0.000 
#    0.000    0.000    0.000    0.000    0.000    0.000 
#
# Total GULP energy -167443.936597 kJ/mol
# GULP energy per Si atom -5581.464553 kJ/mol
# Density = 2.404218 g / cm^3
# Si number density = 24.097028 Si / 1000 Ang^3
#
#
#
# Elastic Constant Matrix: (Units=GPa)
#
#
# Indices 1 2 3 4 5 6 
#
# 1 84.1116 22.9824 29.6705 0.0000 0.0000 0.0000
# 2 22.9824 53.3354 11.5171 0.0000 0.0000 0.0000
# 3 29.6705 11.5171 82.3010 0.0000 0.0000 0.0000
# 4 0.0000 0.0000 0.0000 25.9141 0.0000 0.0000
# 5 0.0000 0.0000 0.0000 0.0000 4.2354 0.0000
# 6 0.0000 0.0000 0.0000 0.0000 0.0000 37.2335
#
#
#
# Elastic Compliance Matrix: (Units=1/GPa)
#
#
# Indices 1 2 3 4 5 6 
#
# 1 0.015024 -0.005470 -0.004651 0.000000 0.000000 0.000000
# 2 -0.005470 0.021325 -0.001012 0.000000 0.000000 0.000000
# 3 -0.004651 -0.001012 0.013969 0.000000 0.000000 0.000000
# 4 0.000000 0.000000 0.000000 0.038589 0.000000 0.000000
# 5 0.000000 0.000000 0.000000 0.000000 0.236103 0.000000
# 6 0.000000 0.000000 0.000000 0.000000 0.000000 0.026858
#
#
# Mechanical properties :
#
#
# Convention : Reuss Voigt Hill
#
# Bulk Modulus (GPa) = 35.64806 38.67643 37.16225
# Shear Modulus (GPa) = 13.03838 23.84849 18.44343
#
# Velocity S-wave (km/s) = 2.32863 3.14934 2.76956
# Velocity P-wave (km/s) = 4.69635 5.41383 5.06781
#
# Compressibility (1/GPa) = 0.02805202
#
# Stress axis : x y z
#
# Youngs Moduli (GPa) = 66.55972 46.89389 71.58759
#
# Poissons Ratio (x) = 0.25649 0.33295
# Poissons Ratio (y) = 0.36406 0.07247
# Poissons Ratio (z) = 0.30957 0.04747
#
# Static dielectric constant tensor:
#      x y z
#    x 2.049470 0.000000 0.000000 
#    y 0.000000 1.983220 0.000000 
#    z 0.000000 0.000000 1.893230 
# 
# From -- ./inp_files/14873.got.cif
#   From: 2010.05.17/outbox.cif.g08.bks.cpg/sg43_8_cif.got.tgz:14873.got - 2010.06.03 19:21:55.
