data_PCOD9370534
_publ_section_title
;
Structure prediction by ZEFSAII (Michael W. Deem and Ramdas Pophale) SiO2 
 PCOD9370534
Probable space group: F D D 2
;
_chemical_formula_sum "Si O2"
_cell_formula_units_Z 120
_cell_length_a 31.477624
_cell_length_b 11.821155
_cell_length_c 16.343086
_cell_angle_alpha 90.000000
_cell_angle_beta 90.000000
_cell_angle_gamma 90.000000
_cell_volume 6081.292900
_symmetry_space_group_name_H-M "F D D 2"
_symmetry_group_IT_number 43
_symmetry_cell_setting 'orthorhombic'
loop_
_space_group_symop_operation_xyz
x,y,z
-x,-y,z
1/4-x,1/4+y,1/4+z
1/4+x,1/4-y,1/4+z
x,1/2+y,1/2+z
-x,1/2-y,1/2+z
1/4-x,3/4+y,3/4+z
1/4+x,3/4-y,3/4+z
1/2+x,y,1/2+z
1/2-x,-y,1/2+z
3/4-x,1/4+y,3/4+z
3/4+x,1/4-y,3/4+z
1/2+x,1/2+y,z
1/2-x,1/2-y,z
3/4-x,3/4+y,1/4+z
3/4+x,3/4-y,1/4+z
loop_
_atom_site_type_symbol
_atom_site_label
_atom_site_fract_x
_atom_site_fract_y
_atom_site_fract_z
Si Si1 0.469305 0.104271 0.058360
Si Si2 0.413121 0.988196 0.197145
Si Si3 0.462670 0.275224 0.177895
Si Si4 0.250000 0.250000 0.383285
Si Si5 0.681014 0.490506 0.677278
Si Si6 0.380712 0.099894 0.366940
Si Si7 0.234793 0.377483 0.038049
Si Si8 0.079056 0.998008 0.019983
O O1 0.487301 0.216508 0.101852
O O2 0.500000 0.000000 0.043601
O O3 0.436993 0.064652 0.129955
O O4 0.448369 0.154145 0.978160
O O5 0.448360 0.894420 0.219235
O O6 0.367059 0.973146 0.156311
O O7 0.400168 0.033556 0.288620
O O8 0.482849 0.397914 0.187509
O O9 0.413664 0.294291 0.150722
O O10 0.474850 0.195931 0.253719
O O11 0.211384 0.216106 0.323351
O O12 0.711926 0.452129 0.605679
O O13 0.678057 0.373199 0.729895
O O14 0.367837 0.223061 0.332283
O O15 0.410802 0.085544 0.445425
O O16 0.250000 0.250000 0.062141
#
# Coordination Sequence:
#
# PCOD9370534 Si02
#       8
#    16  16  16   8  16  16  16  16
#     4  12  21  38  59  89 129 163 197 260 324 366
#     4  11  19  36  63  90 121 157 206 266 312 361
#     4  11  20  41  59  89 121 166 206 259 317 372
#     4  10  22  38  64  78 126 166 200 254 316 378
#     4  11  23  35  58  94 126 152 208 260 319 366
#     4  10  20  33  58  90 122 153 199 267 315 360
#     4  12  24  36  66  96 120 161 218 262 302 382
#     4  10  20  34  57  88 119 153 200 256 313 368
#
# _framework density 19.732645999999999
#
# number of rings (size 3 to 8) (size 9 to 14) (size 15 to 20)
#    0.000    1.067    8.000    2.400    0.933    0.000 
#    2.400    0.000    5.867    1.600    0.000    0.000 
#    0.000    0.000    0.000    0.000    0.000    0.000 
#
# Total GULP energy -167012.095129 kJ/mol
# GULP energy per Si atom -5567.069838 kJ/mol
# Density = 1.968773 g / cm^3
# Si number density = 19.732646 Si / 1000 Ang^3
#
#
#
# Elastic Constant Matrix: (Units=GPa)
#
#
# Indices 1 2 3 4 5 6 
#
# 1 91.2914 29.7551 38.3124 0.0000 0.0000 0.0000
# 2 29.7551 64.7401 28.8863 0.0000 0.0000 0.0000
# 3 38.3124 28.8863 86.3954 0.0000 0.0000 0.0000
# 4 0.0000 0.0000 0.0000 31.4712 0.0000 0.0000
# 5 0.0000 0.0000 0.0000 0.0000 -7.4541 0.0000
# 6 0.0000 0.0000 0.0000 0.0000 0.0000 24.3055
#
#
#
# Elastic Compliance Matrix: (Units=1/GPa)
#
#
# Indices 1 2 3 4 5 6 
#
# 1 0.014474 -0.004453 -0.004930 0.000000 0.000000 0.000000
# 2 -0.004453 0.019525 -0.004553 0.000000 0.000000 0.000000
# 3 -0.004930 -0.004553 0.015283 0.000000 0.000000 0.000000
# 4 0.000000 0.000000 0.000000 0.031775 0.000000 0.000000
# 5 0.000000 0.000000 0.000000 0.000000 -0.134154 0.000000
# 6 0.000000 0.000000 0.000000 0.000000 0.000000 0.041143
#
#
# Mechanical properties :
#
#
# Convention : Reuss Voigt Hill
#
# Bulk Modulus (GPa) = 46.70732 48.48159 47.59445
# Shear Modulus (GPa) = 216.87100 19.36272 118.11686
#
# Velocity S-wave (km/s) = 10.49492 3.13589 7.74523
# Velocity P-wave (km/s) = 13.06060 6.14283 10.20572
#
# Compressibility (1/GPa) = 0.02140992
#
# Stress axis : x y z
#
# Youngs Moduli (GPa) = 69.08861 51.21735 65.43093
#
# Poissons Ratio (x) = 0.22806 0.32256
# Poissons Ratio (y) = 0.30764 0.29794
# Poissons Ratio (z) = 0.34060 0.23322
#
# Static dielectric constant tensor:
#      x y z
#    x 1.792040 0.000000 0.000000 
#    y 0.000000 1.738670 0.000000 
#    z 0.000000 0.000000 1.739180 
# 
# From -- ./inp_files/15276.got.cif
#   From: 2010.05.17/outbox.cif.g08.bks.cpg/sg43_8_cif.got.tgz:15276.got - 2010.06.03 19:21:55.
