data_PCOD9370303
_publ_section_title
;
Structure prediction by ZEFSAII (Michael W. Deem and Ramdas Pophale) SiO2 
 PCOD9370303
Probable space group: F D D 2
;
_chemical_formula_sum "Si O2"
_cell_formula_units_Z 128
_cell_length_a 17.506995
_cell_length_b 22.455307
_cell_length_c 17.954191
_cell_angle_alpha 90.000000
_cell_angle_beta 90.000000
_cell_angle_gamma 90.000000
_cell_volume 7058.240392
_symmetry_space_group_name_H-M "F D D 2"
_symmetry_group_IT_number 43
_symmetry_cell_setting 'orthorhombic'
loop_
_space_group_symop_operation_xyz
x,y,z
-x,-y,z
1/4-x,1/4+y,1/4+z
1/4+x,1/4-y,1/4+z
x,1/2+y,1/2+z
-x,1/2-y,1/2+z
1/4-x,3/4+y,3/4+z
1/4+x,3/4-y,3/4+z
1/2+x,y,1/2+z
1/2-x,-y,1/2+z
3/4-x,1/4+y,3/4+z
3/4+x,1/4-y,3/4+z
1/2+x,1/2+y,z
1/2-x,1/2-y,z
3/4-x,3/4+y,1/4+z
3/4+x,3/4-y,1/4+z
loop_
_atom_site_type_symbol
_atom_site_label
_atom_site_fract_x
_atom_site_fract_y
_atom_site_fract_z
Si Si1 0.314348 0.962080 0.985600
Si Si2 0.994619 0.667405 0.200920
Si Si3 0.627631 0.515769 0.319729
Si Si4 0.318386 0.299309 0.002422
Si Si5 0.262152 0.843820 0.052332
Si Si6 0.162959 0.127246 0.702984
Si Si7 0.582488 0.473285 0.586684
Si Si8 0.949473 0.229523 0.554132
O O1 0.361203 0.973000 0.909004
O O2 0.257565 0.018530 0.988822
O O3 0.278844 0.897464 0.995792
O O4 0.367117 0.972910 0.056509
O O5 0.962639 0.616739 0.255353
O O6 0.950456 0.686483 0.126355
O O7 0.076760 0.640316 0.175137
O O8 0.576296 0.458325 0.298340
O O9 0.573227 0.568880 0.292120
O O10 0.714929 0.505325 0.294312
O O11 0.250000 0.250000 0.008993
O O12 0.353317 0.298885 0.918397
O O13 0.385716 0.280724 0.058063
O O14 0.275598 0.863325 0.138251
O O15 0.170056 0.173875 0.771687
O O16 0.173577 0.062321 0.736661
O O17 0.500000 0.500000 0.595578
#
# Coordination Sequence:
#
# PCOD9370303 Si02
#       8
#    16  16  16  16  16  16  16  16
#     4  10  21  35  58  83 121 152 187 245 307 350
#     4  10  21  38  54  86 118 150 196 246 302 366
#     4  10  23  37  57  87 116 156 198 239 297 367
#     4  11  21  33  58  86 122 157 195 246 298 363
#     4  11  21  36  59  87 119 153 194 242 299 364
#     4  11  19  32  59  88 119 145 188 248 311 356
#     4  10  19  28  51  88 120 145 180 236 303 365
#     4  11  21  36  58  84 121 158 190 249 302 358
#
# _framework density 18.134830999999998
#
# number of rings (size 3 to 8) (size 9 to 14) (size 15 to 20)
#    0.000    1.500    6.250    1.500    5.250    0.000 
#    0.000    0.000   22.000    0.000    0.000    0.000 
#    0.000    0.000    0.000    0.000    0.000    0.000 
#
# Total GULP energy -178199.509954 kJ/mol
# GULP energy per Si atom -5568.734686 kJ/mol
# Density = 1.809356 g / cm^3
# Si number density = 18.134831 Si / 1000 Ang^3
#
#
#
# Elastic Constant Matrix: (Units=GPa)
#
#
# Indices 1 2 3 4 5 6 
#
# 1 81.6634 47.3008 13.4596 0.0000 0.0000 0.0000
# 2 47.3008 120.9563 17.7958 0.0000 0.0000 0.0000
# 3 13.4596 17.7958 34.0119 0.0000 0.0000 0.0000
# 4 0.0000 0.0000 0.0000 29.0361 0.0000 0.0000
# 5 0.0000 0.0000 0.0000 0.0000 15.3888 0.0000
# 6 0.0000 0.0000 0.0000 0.0000 0.0000 31.8611
#
#
#
# Elastic Compliance Matrix: (Units=1/GPa)
#
#
# Indices 1 2 3 4 5 6 
#
# 1 0.016176 -0.005833 -0.003349 0.000000 0.000000 0.000000
# 2 -0.005833 0.011060 -0.003479 0.000000 0.000000 0.000000
# 3 -0.003349 -0.003479 0.032547 0.000000 0.000000 0.000000
# 4 0.000000 0.000000 0.000000 0.034440 0.000000 0.000000
# 5 0.000000 0.000000 0.000000 0.000000 0.064982 0.000000
# 6 0.000000 0.000000 0.000000 0.000000 0.000000 0.031386
#
#
# Mechanical properties :
#
#
# Convention : Reuss Voigt Hill
#
# Bulk Modulus (GPa) = 29.01818 43.74935 36.38377
# Shear Modulus (GPa) = 21.98760 25.79556 23.89158
#
# Velocity S-wave (km/s) = 3.48580 3.77561 3.63360
# Velocity P-wave (km/s) = 5.67778 6.57144 6.14089
#
# Compressibility (1/GPa) = 0.03446115
#
# Stress axis : x y z
#
# Youngs Moduli (GPa) = 61.82009 90.41377 30.72473
#
# Poissons Ratio (x) = 0.52738 0.10291
# Poissons Ratio (y) = 0.36059 0.10688
# Poissons Ratio (z) = 0.20706 0.31452
#
# Static dielectric constant tensor:
#      x y z
#    x 1.657750 0.000000 0.000000 
#    y 0.000000 1.686850 0.000000 
#    z 0.000000 0.000000 1.661790 
# 
# From -- ./inp_files/14902.got.cif
#   From: 2010.05.17/outbox.cif.g08.bks.cpg/sg43_8_cif.got.tgz:14902.got - 2010.06.03 19:21:55.
