data_PCOD9370991
_publ_section_title
;
Structure prediction by ZEFSAII (Michael W. Deem and Ramdas Pophale) SiO2 
 PCOD9370991
Probable space group: F D D 2
;
_chemical_formula_sum "Si O2"
_cell_formula_units_Z 96
_cell_length_a 16.624016
_cell_length_b 11.423517
_cell_length_c 23.680393
_cell_angle_alpha 90.000000
_cell_angle_beta 90.000000
_cell_angle_gamma 90.000000
_cell_volume 4497.018624
_symmetry_space_group_name_H-M "F D D 2"
_symmetry_group_IT_number 43
_symmetry_cell_setting 'orthorhombic'
loop_
_space_group_symop_operation_xyz
x,y,z
-x,-y,z
1/4-x,1/4+y,1/4+z
1/4+x,1/4-y,1/4+z
x,1/2+y,1/2+z
-x,1/2-y,1/2+z
1/4-x,3/4+y,3/4+z
1/4+x,3/4-y,3/4+z
1/2+x,y,1/2+z
1/2-x,-y,1/2+z
3/4-x,1/4+y,3/4+z
3/4+x,1/4-y,3/4+z
1/2+x,1/2+y,z
1/2-x,1/2-y,z
3/4-x,3/4+y,1/4+z
3/4+x,3/4-y,1/4+z
loop_
_atom_site_type_symbol
_atom_site_label
_atom_site_fract_x
_atom_site_fract_y
_atom_site_fract_z
Si Si1 0.664138 0.310191 0.443120
Si Si2 0.489063 0.223663 0.624483
Si Si3 0.250000 0.250000 0.456907
Si Si4 0.515111 0.133170 0.418537
Si Si5 0.169414 0.482979 0.754454
Si Si6 0.364413 0.638088 0.573696
Si Si7 0.500000 0.500000 0.537101
O O1 0.750000 0.250000 0.443636
O O2 0.682439 0.428194 0.405846
O O3 0.595308 0.210571 0.432219
O O4 0.644767 0.345048 0.507523
O O5 0.499880 0.113082 0.665341
O O6 0.448415 0.205419 0.562566
O O7 0.579432 0.268605 0.607120
O O8 0.175224 0.226987 0.498555
O O9 0.444479 0.202327 0.447339
O O10 0.527804 0.125790 0.351569
O O11 0.500000 0.000000 0.438537
O O12 0.218588 0.361155 0.753379
O O13 0.423811 0.527118 0.576242
#
# Coordination Sequence:
#
# PCOD9370991 Si02
#       7
#    16  16   8  16  16  16   8
#     4  12  24  43  76 101 139 193 242 304 371 444
#     4  11  25  47  73 105 147 191 242 317 366 444
#     4  12  28  50  69 108 154 197 244 312 388 452
#     4  12  24  43  72 106 143 185 243 312 370 433
#     4  11  26  47  72 104 150 196 248 311 378 450
#     4  11  22  44  70 106 139 182 253 296 367 445
#     4  10  20  46  73  98 148 189 248 310 354 454
#
# _framework density 21.347474999999999
#
# number of rings (size 3 to 8) (size 9 to 14) (size 15 to 20)
#    0.000    0.667    5.000    4.500    2.333    0.000 
#    9.000    0.000    0.000    0.000    0.000    0.000 
#    0.000    0.000    0.000    0.000    0.000    0.000 
#
# Total GULP energy -133620.043040 kJ/mol
# GULP energy per Si atom -5567.501793 kJ/mol
# Density = 2.129889 g / cm^3
# Si number density = 21.347475 Si / 1000 Ang^3
#
#
#
# Elastic Constant Matrix: (Units=GPa)
#
#
# Indices 1 2 3 4 5 6 
#
# 1 72.5770 14.5264 26.9808 0.0000 0.0000 0.0000
# 2 14.5264 92.5903 13.2055 0.0000 0.0000 0.0000
# 3 26.9808 13.2055 88.8879 0.0000 0.0000 0.0000
# 4 0.0000 0.0000 0.0000 15.1126 0.0000 0.0000
# 5 0.0000 0.0000 0.0000 0.0000 42.1871 0.0000
# 6 0.0000 0.0000 0.0000 0.0000 0.0000 23.1266
#
#
#
# Elastic Compliance Matrix: (Units=1/GPa)
#
#
# Indices 1 2 3 4 5 6 
#
# 1 0.015831 -0.001837 -0.004532 0.000000 0.000000 0.000000
# 2 -0.001837 0.011247 -0.001113 0.000000 0.000000 0.000000
# 3 -0.004532 -0.001113 0.012791 0.000000 0.000000 0.000000
# 4 0.000000 0.000000 0.000000 0.066170 0.000000 0.000000
# 5 0.000000 0.000000 0.000000 0.000000 0.023704 0.000000
# 6 0.000000 0.000000 0.000000 0.000000 0.000000 0.043240
#
#
# Mechanical properties :
#
#
# Convention : Reuss Voigt Hill
#
# Bulk Modulus (GPa) = 40.15447 40.38671 40.27059
# Shear Modulus (GPa) = 25.47758 29.37477 27.42617
#
# Velocity S-wave (km/s) = 3.45841 3.71351 3.58823
# Velocity P-wave (km/s) = 5.89900 6.11119 6.00604
#
# Compressibility (1/GPa) = 0.02490383
#
# Stress axis : x y z
#
# Youngs Moduli (GPa) = 63.16662 88.91033 78.17837
#
# Poissons Ratio (x) = 0.16336 0.35433
# Poissons Ratio (y) = 0.11606 0.08703
# Poissons Ratio (z) = 0.28630 0.09898
#
# Static dielectric constant tensor:
#      x y z
#    x 1.882860 0.000000 0.000000 
#    y 0.000000 1.861690 0.000000 
#    z 0.000000 0.000000 1.949250 
# 
# From -- ./inp_files/22092.got.cif
#   From: 2010.05.17/outbox.cif.g08.bks.cpg/sg43_12_cif.got.tgz:22092.got - 2010.06.03 19:21:55.
