data_PCOD9370799
_publ_section_title
;
Structure prediction by ZEFSAII (Michael W. Deem and Ramdas Pophale) SiO2 
 PCOD9370799
Probable space group: F D D 2
;
_chemical_formula_sum "Si O2"
_cell_formula_units_Z 112
_cell_length_a 24.701773
_cell_length_b 14.031264
_cell_length_c 14.196104
_cell_angle_alpha 90.000000
_cell_angle_beta 90.000000
_cell_angle_gamma 90.000000
_cell_volume 4920.328453
_symmetry_space_group_name_H-M "F D D 2"
_symmetry_group_IT_number 43
_symmetry_cell_setting 'orthorhombic'
loop_
_space_group_symop_operation_xyz
x,y,z
-x,-y,z
1/4-x,1/4+y,1/4+z
1/4+x,1/4-y,1/4+z
x,1/2+y,1/2+z
-x,1/2-y,1/2+z
1/4-x,3/4+y,3/4+z
1/4+x,3/4-y,3/4+z
1/2+x,y,1/2+z
1/2-x,-y,1/2+z
3/4-x,1/4+y,3/4+z
3/4+x,1/4-y,3/4+z
1/2+x,1/2+y,z
1/2-x,1/2-y,z
3/4-x,3/4+y,1/4+z
3/4+x,3/4-y,1/4+z
loop_
_atom_site_type_symbol
_atom_site_label
_atom_site_fract_x
_atom_site_fract_y
_atom_site_fract_z
Si Si1 0.402115 0.624607 0.476400
Si Si2 0.569487 0.475405 0.293046
Si Si3 0.195189 0.980557 0.251134
Si Si4 0.070536 0.192575 0.294627
Si Si5 0.190344 0.239749 0.331517
Si Si6 0.556675 0.542670 0.607625
Si Si7 0.953673 0.794504 0.092821
O O1 0.435765 0.592317 0.383121
O O2 0.408121 0.537031 0.550674
O O3 0.343127 0.655078 0.436469
O O4 0.424881 0.718188 0.526801
O O5 0.634074 0.487425 0.284802
O O6 0.549793 0.583599 0.306217
O O7 0.552909 0.446145 0.187291
O O8 0.195762 0.994450 0.140070
O O9 0.210342 0.873069 0.281663
O O10 0.235522 0.049752 0.304127
O O11 0.136380 0.195606 0.286805
O O12 0.046632 0.237763 0.200876
O O13 0.250000 0.250000 0.285993
O O14 0.175834 0.352421 0.343844
O O15 0.500000 0.500000 0.643391
#
# Coordination Sequence:
#
# PCOD9370799 Si02
#       7
#    16  16  16  16  16  16  16
#     4  11  24  42  71 100 139 182 237 287 357 425
#     4   9  20  39  64  94 122 167 229 291 334 399
#     4  10  20  40  64  95 128 180 230 285 340 415
#     4  10  21  41  63  90 135 176 225 289 347 409
#     4  10  22  39  63  92 129 176 225 275 347 422
#     4  11  23  45  70 101 142 183 234 300 353 423
#     4  11  24  39  62  98 137 175 228 282 352 419
#
# _framework density 22.762708
#
# number of rings (size 3 to 8) (size 9 to 14) (size 15 to 20)
#    0.000    1.714    2.857    0.857    2.000    2.857 
#    5.143    0.714    0.000    0.000    0.000    0.000 
#    0.000    0.000    0.000    0.000    0.000    0.000 
#
# Total GULP energy -156335.985770 kJ/mol
# GULP energy per Si atom -5583.428063 kJ/mol
# Density = 2.271090 g / cm^3
# Si number density = 22.762708 Si / 1000 Ang^3
#
#
#
# Elastic Constant Matrix: (Units=GPa)
#
#
# Indices 1 2 3 4 5 6 
#
# 1 102.9328 2.5721 39.4173 0.0000 0.0000 0.0000
# 2 2.5721 85.8422 27.6299 0.0000 0.0000 0.0000
# 3 39.4173 27.6299 120.6862 0.0000 0.0000 0.0000
# 4 0.0000 0.0000 0.0000 38.4075 0.0000 0.0000
# 5 0.0000 0.0000 0.0000 0.0000 29.7326 0.0000
# 6 0.0000 0.0000 0.0000 0.0000 0.0000 25.3691
#
#
#
# Elastic Compliance Matrix: (Units=1/GPa)
#
#
# Indices 1 2 3 4 5 6 
#
# 1 0.011169 0.000906 -0.003855 0.000000 0.000000 0.000000
# 2 0.000906 0.012650 -0.003192 0.000000 0.000000 0.000000
# 3 -0.003855 -0.003192 0.010276 0.000000 0.000000 0.000000
# 4 0.000000 0.000000 0.000000 0.026037 0.000000 0.000000
# 5 0.000000 0.000000 0.000000 0.000000 0.033633 0.000000
# 6 0.000000 0.000000 0.000000 0.000000 0.000000 0.039418
#
#
# Mechanical properties :
#
#
# Convention : Reuss Voigt Hill
#
# Bulk Modulus (GPa) = 45.84599 49.85553 47.85076
# Shear Modulus (GPa) = 32.73649 34.69129 33.71389
#
# Velocity S-wave (km/s) = 3.79643 3.90813 3.85268
# Velocity P-wave (km/s) = 6.27708 6.50496 6.39203
#
# Compressibility (1/GPa) = 0.02181216
#
# Stress axis : x y z
#
# Youngs Moduli (GPa) = 89.53513 79.05432 97.31499
#
# Poissons Ratio (x) = -0.07164 0.37518
# Poissons Ratio (y) = -0.08114 0.31063
# Poissons Ratio (z) = 0.34519 0.25234
#
# Static dielectric constant tensor:
#      x y z
#    x 1.919440 0.000000 0.000000 
#    y 0.000000 1.891640 0.000000 
#    z 0.000000 0.000000 1.811280 
# 
# From -- ./inp_files/10210.got.cif
#   From: 2010.05.17/outbox.cif.g08.bks.cpg/sg43_6_cif.got.tgz:10210.got - 2010.06.03 19:21:55.
