data_PCOD9370689
_publ_section_title
;
Structure prediction by ZEFSAII (Michael W. Deem and Ramdas Pophale) SiO2 
 PCOD9370689
Probable space group: F D D 2
;
_chemical_formula_sum "Si O2"
_cell_formula_units_Z 112
_cell_length_a 16.006258
_cell_length_b 11.553236
_cell_length_c 27.184176
_cell_angle_alpha 90.000000
_cell_angle_beta 90.000000
_cell_angle_gamma 90.000000
_cell_volume 5027.008633
_symmetry_space_group_name_H-M "F D D 2"
_symmetry_group_IT_number 43
_symmetry_cell_setting 'orthorhombic'
loop_
_space_group_symop_operation_xyz
x,y,z
-x,-y,z
1/4-x,1/4+y,1/4+z
1/4+x,1/4-y,1/4+z
x,1/2+y,1/2+z
-x,1/2-y,1/2+z
1/4-x,3/4+y,3/4+z
1/4+x,3/4-y,3/4+z
1/2+x,y,1/2+z
1/2-x,-y,1/2+z
3/4-x,1/4+y,3/4+z
3/4+x,1/4-y,3/4+z
1/2+x,1/2+y,z
1/2-x,1/2-y,z
3/4-x,3/4+y,1/4+z
3/4+x,3/4-y,1/4+z
loop_
_atom_site_type_symbol
_atom_site_label
_atom_site_fract_x
_atom_site_fract_y
_atom_site_fract_z
Si Si1 0.654849 0.294034 0.415000
Si Si2 0.631923 0.505786 0.556077
Si Si3 0.908160 0.950210 0.936075
Si Si4 0.345720 0.219838 0.701168
Si Si5 0.824381 0.458551 0.535981
Si Si6 0.315508 0.849665 0.862069
Si Si7 0.081621 0.754810 0.579650
O O1 0.750000 0.250000 0.417487
O O2 0.631827 0.317904 0.358098
O O3 0.595432 0.189408 0.432465
O O4 0.644235 0.408205 0.446610
O O5 0.606471 0.572872 0.506921
O O6 0.728177 0.468453 0.549961
O O7 0.580627 0.385300 0.560033
O O8 0.875476 0.991679 0.883226
O O9 0.845807 0.986289 0.979578
O O10 0.000000 0.000000 0.945848
O O11 0.250000 0.250000 0.691087
O O12 0.383233 0.139088 0.659355
O O13 0.874809 0.545254 0.571110
O O14 0.862844 0.331440 0.546775
O O15 0.250000 0.750000 0.876593
O O16 0.259093 0.950543 0.838416
#
# Coordination Sequence:
#
# PCOD9370689 Si02
#       7
#    16  16  16  16  16  16  16
#     4  11  23  42  65  92 123 160 206 261 311 366
#     4  11  22  39  62  90 122 163 204 247 306 373
#     4  11  22  38  64  95 122 158 209 262 311 365
#     4  12  25  42  61  90 129 168 203 248 311 378
#     4  11  21  38  62  92 124 159 202 257 310 359
#     4  10  23  43  64  89 125 165 208 258 308 367
#     4  10  20  38  64  92 121 155 203 259 306 360
#
# _framework density 22.279651999999999
#
# number of rings (size 3 to 8) (size 9 to 14) (size 15 to 20)
#    0.000    1.143    0.000    9.000    0.000    1.143 
#    0.000    6.429    0.000    0.000    0.000    0.000 
#    0.000    0.000    0.000    0.000    0.000    0.000 
#
# Total GULP energy -156851.577827 kJ/mol
# GULP energy per Si atom -5601.842065 kJ/mol
# Density = 2.222894 g / cm^3
# Si number density = 22.279652 Si / 1000 Ang^3
#
#
#
# Elastic Constant Matrix: (Units=GPa)
#
#
# Indices 1 2 3 4 5 6 
#
# 1 61.2813 11.6592 32.2732 0.0000 0.0000 0.0000
# 2 11.6592 30.6525 10.0464 0.0000 0.0000 0.0000
# 3 32.2732 10.0464 97.2623 0.0000 0.0000 0.0000
# 4 0.0000 0.0000 0.0000 23.1590 0.0000 0.0000
# 5 0.0000 0.0000 0.0000 0.0000 29.2275 0.0000
# 6 0.0000 0.0000 0.0000 0.0000 0.0000 24.2844
#
#
#
# Elastic Compliance Matrix: (Units=1/GPa)
#
#
# Indices 1 2 3 4 5 6 
#
# 1 0.020733 -0.005829 -0.006278 0.000000 0.000000 0.000000
# 2 -0.005829 0.035406 -0.001723 0.000000 0.000000 0.000000
# 3 -0.006278 -0.001723 0.012542 0.000000 0.000000 0.000000
# 4 0.000000 0.000000 0.000000 0.043180 0.000000 0.000000
# 5 0.000000 0.000000 0.000000 0.000000 0.034214 0.000000
# 6 0.000000 0.000000 0.000000 0.000000 0.000000 0.041179
#
#
# Mechanical properties :
#
#
# Convention : Reuss Voigt Hill
#
# Bulk Modulus (GPa) = 24.37686 33.01708 28.69697
# Shear Modulus (GPa) = 21.87355 24.34869 23.11112
#
# Velocity S-wave (km/s) = 3.13672 3.30944 3.22424
# Velocity P-wave (km/s) = 4.90752 5.42722 5.17390
#
# Compressibility (1/GPa) = 0.04102251
#
# Stress axis : x y z
#
# Youngs Moduli (GPa) = 48.23196 28.24416 79.72939
#
# Poissons Ratio (x) = 0.16463 0.50050
# Poissons Ratio (y) = 0.28113 0.13737
# Poissons Ratio (z) = 0.30278 0.04867
#
# Static dielectric constant tensor:
#      x y z
#    x 1.802490 0.000000 0.000000 
#    y 0.000000 1.808710 0.000000 
#    z 0.000000 0.000000 1.796460 
# 
# From -- ./inp_files/29092.got.cif
#   From: 2010.05.17/outbox.cif.g08.bks.cpg/sg43_15_cif.got.tgz:29092.got - 2010.06.03 19:21:55.
