data_PCOD9370103
_publ_section_title
;
Structure prediction by ZEFSAII (Michael W. Deem and Ramdas Pophale) SiO2 
 PCOD9370103
Probable space group: F D D 2
;
_chemical_formula_sum "Si O2"
_cell_formula_units_Z 112
_cell_length_a 15.665321
_cell_length_b 12.664234
_cell_length_c 24.614025
_cell_angle_alpha 90.000000
_cell_angle_beta 90.000000
_cell_angle_gamma 90.000000
_cell_volume 4883.158964
_symmetry_space_group_name_H-M "F D D 2"
_symmetry_group_IT_number 43
_symmetry_cell_setting 'orthorhombic'
loop_
_space_group_symop_operation_xyz
x,y,z
-x,-y,z
1/4-x,1/4+y,1/4+z
1/4+x,1/4-y,1/4+z
x,1/2+y,1/2+z
-x,1/2-y,1/2+z
1/4-x,3/4+y,3/4+z
1/4+x,3/4-y,3/4+z
1/2+x,y,1/2+z
1/2-x,-y,1/2+z
3/4-x,1/4+y,3/4+z
3/4+x,1/4-y,3/4+z
1/2+x,1/2+y,z
1/2-x,1/2-y,z
3/4-x,3/4+y,1/4+z
3/4+x,3/4-y,1/4+z
loop_
_atom_site_type_symbol
_atom_site_label
_atom_site_fract_x
_atom_site_fract_y
_atom_site_fract_z
Si Si1 0.500000 0.000000 0.744390
Si Si2 0.640759 0.568937 0.323744
Si Si3 0.362995 0.920619 0.378747
Si Si4 0.000000 0.500000 0.531818
Si Si5 0.848235 0.104463 0.180156
Si Si6 0.781654 0.916181 0.771671
Si Si7 0.307205 0.390952 0.112916
Si Si8 0.605289 0.892803 0.241980
O O1 0.439187 0.931541 0.783450
O O2 0.563606 0.926377 0.710117
O O3 0.690799 0.678432 0.318613
O O4 0.612895 0.555785 0.385425
O O5 0.708452 0.486562 0.300939
O O6 0.324152 0.865599 0.324968
O O7 0.462211 0.889922 0.379888
O O8 0.316842 0.883436 0.433639
O O9 0.371289 0.049506 0.375049
O O10 0.059601 0.571628 0.495465
O O11 0.773254 0.131160 0.222640
O O12 0.824128 0.997637 0.146481
O O13 0.858268 0.988884 0.747795
O O14 0.306210 0.389953 0.046815
#
# Coordination Sequence:
#
# PCOD9370103 Si02
#       8
#     8  16  16   8  16  16  16  16
#     4  10  25  36  58  92 126 158 199 252 326 356
#     4  10  21  37  56  87 122 153 201 246 307 363
#     4  10  20  34  51  81 125 145 191 251 296 348
#     4  10  17  28  56  86 114 148 193 246 294 356
#     4  11  20  37  59  83 119 154 201 250 295 372
#     4   9  21  35  54  85 114 154 193 239 305 353
#     4  10  20  31  54  87 112 155 191 245 306 347
#     4  10  18  29  52  81 116 144 186 240 300 348
#
# _framework density 22.935973000000001
#
# number of rings (size 3 to 8) (size 9 to 14) (size 15 to 20)
#    0.000    2.000    2.857    1.286    8.000    0.000 
#    0.000    2.857    0.000    0.000    0.000    0.000 
#    0.000    0.000    0.000    0.000    0.000    0.000 
#
# Total GULP energy -156247.835204 kJ/mol
# GULP energy per Si atom -5580.279829 kJ/mol
# Density = 2.288377 g / cm^3
# Si number density = 22.935973 Si / 1000 Ang^3
#
#
#
# Elastic Constant Matrix: (Units=GPa)
#
#
# Indices 1 2 3 4 5 6 
#
# 1 57.9099 10.5175 28.1189 0.0000 0.0000 0.0000
# 2 10.5175 23.7960 14.7574 0.0000 0.0000 0.0000
# 3 28.1189 14.7574 174.6916 0.0000 0.0000 0.0000
# 4 0.0000 0.0000 0.0000 104.0084 0.0000 0.0000
# 5 0.0000 0.0000 0.0000 0.0000 10.4207 0.0000
# 6 0.0000 0.0000 0.0000 0.0000 0.0000 7.0297
#
#
#
# Elastic Compliance Matrix: (Units=1/GPa)
#
#
# Indices 1 2 3 4 5 6 
#
# 1 0.019824 -0.007158 -0.002586 0.000000 0.000000 0.000000
# 2 -0.007158 0.046932 -0.002812 0.000000 0.000000 0.000000
# 3 -0.002586 -0.002812 0.006378 0.000000 0.000000 0.000000
# 4 0.000000 0.000000 0.000000 0.009615 0.000000 0.000000
# 5 0.000000 0.000000 0.000000 0.000000 0.095963 0.000000
# 6 0.000000 0.000000 0.000000 0.000000 0.000000 0.142254
#
#
# Mechanical properties :
#
#
# Convention : Reuss Voigt Hill
#
# Bulk Modulus (GPa) = 20.82440 40.35389 30.58914
# Shear Modulus (GPa) = 13.80889 37.82534 25.81711
#
# Velocity S-wave (km/s) = 2.45636 4.06540 3.35866
# Velocity P-wave (km/s) = 4.14053 6.29833 5.32978
#
# Compressibility (1/GPa) = 0.04802060
#
# Stress axis : x y z
#
# Youngs Moduli (GPa) = 50.44388 21.30748 156.78274
#
# Poissons Ratio (x) = 0.15252 0.40548
# Poissons Ratio (y) = 0.36108 0.44095
# Poissons Ratio (z) = 0.13046 0.05993
#
# Static dielectric constant tensor:
#      x y z
#    x 1.846300 0.000000 0.000000 
#    y 0.000000 1.827230 0.000000 
#    z 0.000000 0.000000 1.928260 
# 
# From -- ./inp_files/18060.got.cif
#   From: 2010.05.17/outbox.cif.g08.bks.cpg/sg43_10_cif.got.tgz:18060.got - 2010.06.03 19:21:55.
