data_PCOD9370293
_publ_section_title
;
Structure prediction by ZEFSAII (Michael W. Deem and Ramdas Pophale) SiO2 
 PCOD9370293
Probable space group: F D D 2
;
_chemical_formula_sum "Si O2"
_cell_formula_units_Z 120
_cell_length_a 20.061581
_cell_length_b 28.530108
_cell_length_c 8.945913
_cell_angle_alpha 90.000000
_cell_angle_beta 90.000000
_cell_angle_gamma 90.000000
_cell_volume 5120.274468
_symmetry_space_group_name_H-M "F D D 2"
_symmetry_group_IT_number 43
_symmetry_cell_setting 'orthorhombic'
loop_
_space_group_symop_operation_xyz
x,y,z
-x,-y,z
1/4-x,1/4+y,1/4+z
1/4+x,1/4-y,1/4+z
x,1/2+y,1/2+z
-x,1/2-y,1/2+z
1/4-x,3/4+y,3/4+z
1/4+x,3/4-y,3/4+z
1/2+x,y,1/2+z
1/2-x,-y,1/2+z
3/4-x,1/4+y,3/4+z
3/4+x,1/4-y,3/4+z
1/2+x,1/2+y,z
1/2-x,1/2-y,z
3/4-x,3/4+y,1/4+z
3/4+x,3/4-y,1/4+z
loop_
_atom_site_type_symbol
_atom_site_label
_atom_site_fract_x
_atom_site_fract_y
_atom_site_fract_z
Si Si1 0.564237 0.868641 0.867820
Si Si2 0.753413 0.667679 0.183167
Si Si3 0.254334 0.969958 0.012699
Si Si4 0.313499 0.671429 0.970873
Si Si5 0.000000 0.500000 0.902822
Si Si6 0.375440 0.335564 0.360977
Si Si7 0.784173 0.059223 0.685453
Si Si8 0.438127 0.569948 0.635240
O O1 0.562059 0.813808 0.831043
O O2 0.500262 0.889938 0.777998
O O3 0.621969 0.897537 0.783175
O O4 0.560484 0.881418 0.041353
O O5 0.814367 0.679264 0.293590
O O6 0.691279 0.684812 0.285953
O O7 0.758357 0.611690 0.165028
O O8 0.741626 0.685494 0.017241
O O9 0.186065 0.949356 0.083901
O O10 0.266551 0.023221 0.055174
O O11 0.246986 0.961217 0.837233
O O12 0.301257 0.719794 0.054226
O O13 0.369171 0.635623 0.024350
O O14 0.043023 0.466518 0.007113
O O15 0.864405 0.062562 0.699226
#
# Coordination Sequence:
#
# PCOD9370293 Si02
#       8
#    16  16  16  16   8  16  16  16
#     4   9  21  40  66  91 128 178 217 269 345 408
#     4  11  21  44  65  93 138 181 225 278 346 413
#     4  11  24  43  66 101 136 174 230 285 338 413
#     4   9  19  39  65  88 120 176 225 267 326 411
#     4  10  24  42  62  98 132 170 234 278 340 422
#     4  10  18  42  68  88 130 179 223 269 339 423
#     4  12  26  43  66 106 138 171 238 286 341 412
#     4  11  25  43  67 102 140 175 225 293 352 414
#
# _framework density 23.436243999999999
#
# number of rings (size 3 to 8) (size 9 to 14) (size 15 to 20)
#    0.000    1.600    5.333    0.000    5.600    2.667 
#    4.800    1.333    0.000    0.000    0.000    0.000 
#    0.000    0.000    0.000    0.000    0.000    0.000 
#
# Total GULP energy -167546.248999 kJ/mol
# GULP energy per Si atom -5584.874967 kJ/mol
# Density = 2.338290 g / cm^3
# Si number density = 23.436244 Si / 1000 Ang^3
#
#
#
# Elastic Constant Matrix: (Units=GPa)
#
#
# Indices 1 2 3 4 5 6 
#
# 1 16.5522 -4.7589 -8.0458 0.0000 -0.0002 0.0000
# 2 -4.7589 71.9669 21.9523 0.0000 -0.0001 0.0000
# 3 -8.0458 21.9523 116.0152 0.0003 -0.0007 -0.0001
# 4 0.0000 0.0000 0.0003 36.4007 -0.0001 0.0000
# 5 -0.0002 -0.0001 -0.0007 -0.0001 23.1729 0.0001
# 6 0.0000 0.0000 -0.0001 0.0000 0.0001 14.0019
#
#
#
# Elastic Compliance Matrix: (Units=1/GPa)
#
#
# Indices 1 2 3 4 5 6 
#
# 1 0.063132 0.003013 0.003808 0.000000 0.000001 0.000000
# 2 0.003013 0.014890 -0.002609 0.000000 0.000000 0.000000
# 3 0.003808 -0.002609 0.009377 0.000000 0.000000 0.000000
# 4 0.000000 0.000000 0.000000 0.027472 0.000000 0.000000
# 5 0.000001 0.000000 0.000000 0.000000 0.043154 0.000000
# 6 0.000000 0.000000 0.000000 0.000000 0.000000 0.071419
#
#
# Mechanical properties :
#
#
# Convention : Reuss Voigt Hill
#
# Bulk Modulus (GPa) = 10.43571 24.75886 17.59728
# Shear Modulus (GPa) = 19.76592 27.74088 23.75340
#
# Velocity S-wave (km/s) = 2.90727 3.44419 3.18706
# Velocity P-wave (km/s) = 3.96637 5.13847 4.58999
#
# Compressibility (1/GPa) = 0.09582482
#
# Stress axis : x y z
#
# Youngs Moduli (GPa) = 15.83980 67.15824 106.64112
#
# Poissons Ratio (x) = -0.20235 -0.40611
# Poissons Ratio (y) = -0.04773 0.27818
# Poissons Ratio (z) = -0.06032 0.17519
#
# Static dielectric constant tensor:
#      x y z
#    x 2.008380 0.000000 0.000000 
#    y 0.000000 1.892390 0.000000 
#    z 0.000000 0.000000 1.893580 
# 
# From -- ./inp_files/4005.got.cif
#   From: 2010.05.17/outbox.cif.g08.bks.cpg/sg43_3_cif.got.tgz:4005.got - 2010.06.03 19:21:55.
