data_PCOD9370401
_publ_section_title
;
Structure prediction by ZEFSAII (Michael W. Deem and Ramdas Pophale) SiO2 
 PCOD9370401
Probable space group: F D D 2
;
_chemical_formula_sum "Si O2"
_cell_formula_units_Z 120
_cell_length_a 25.626876
_cell_length_b 10.270608
_cell_length_c 15.829885
_cell_angle_alpha 90.000000
_cell_angle_beta 90.000000
_cell_angle_gamma 90.000000
_cell_volume 4166.482683
_symmetry_space_group_name_H-M "F D D 2"
_symmetry_group_IT_number 43
_symmetry_cell_setting 'orthorhombic'
loop_
_space_group_symop_operation_xyz
x,y,z
-x,-y,z
1/4-x,1/4+y,1/4+z
1/4+x,1/4-y,1/4+z
x,1/2+y,1/2+z
-x,1/2-y,1/2+z
1/4-x,3/4+y,3/4+z
1/4+x,3/4-y,3/4+z
1/2+x,y,1/2+z
1/2-x,-y,1/2+z
3/4-x,1/4+y,3/4+z
3/4+x,1/4-y,3/4+z
1/2+x,1/2+y,z
1/2-x,1/2-y,z
3/4-x,3/4+y,1/4+z
3/4+x,3/4-y,1/4+z
loop_
_atom_site_type_symbol
_atom_site_label
_atom_site_fract_x
_atom_site_fract_y
_atom_site_fract_z
Si Si1 0.908770 0.867751 0.185300
Si Si2 0.306969 0.941796 0.636280
Si Si3 0.657647 0.250500 0.487497
Si Si4 0.202195 0.005996 0.559248
Si Si5 0.205477 0.498215 0.283479
Si Si6 0.415391 0.964236 0.861288
Si Si7 0.750000 0.250000 0.348888
Si Si8 0.948742 0.144551 0.122546
O O1 0.846369 0.860732 0.195298
O O2 0.927707 0.755630 0.126114
O O3 0.932015 0.890435 0.275814
O O4 0.926250 0.999053 0.135059
O O5 0.325039 0.869886 0.547780
O O6 0.245689 0.943078 0.620501
O O7 0.320628 0.090511 0.668846
O O8 0.662162 0.389837 0.537079
O O9 0.595406 0.225887 0.475026
O O10 0.700278 0.268226 0.412437
O O11 0.187848 0.143184 0.602846
O O12 0.219268 0.055262 0.464349
O O13 0.231204 0.638663 0.285197
O O14 0.256409 0.407818 0.302149
O O15 0.353319 0.978953 0.860440
#
# Coordination Sequence:
#
# PCOD9370401 Si02
#       8
#    16  16  16  16  16  16   8  16
#     4   9  20  37  60  88 116 155 205 251 300 359
#     4  10  19  37  60  85 118 155 200 249 296 358
#     4  11  22  37  62  90 116 158 203 245 298 372
#     4  11  20  36  60  87 118 158 204 247 302 365
#     4  11  23  37  63  88 117 161 203 243 309 366
#     4  10  21  35  59  88 118 158 202 249 301 355
#     4  12  22  42  64  88 126 160 198 256 306 364
#     4  10  20  38  59  86 123 156 202 253 298 360
#
# _framework density 28.801271
#
# number of rings (size 3 to 8) (size 9 to 14) (size 15 to 20)
#    0.000    1.600    2.667    2.400    1.867    2.133 
#    0.000    2.667    0.000    8.000    0.000    0.000 
#    0.000    0.000    0.000    0.000    0.000    0.000 
#
# Total GULP energy -167469.195070 kJ/mol
# GULP energy per Si atom -5582.306502 kJ/mol
# Density = 2.873572 g / cm^3
# Si number density = 28.801271 Si / 1000 Ang^3
#
#
#
# Elastic Constant Matrix: (Units=GPa)
#
#
# Indices 1 2 3 4 5 6 
#
# 1 223.5817 35.4555 20.8883 0.0000 0.0000 0.0000
# 2 35.4555 163.4600 8.7811 0.0000 0.0000 0.0000
# 3 20.8883 8.7811 76.5937 0.0000 0.0000 0.0000
# 4 0.0000 0.0000 0.0000 35.7031 0.0000 0.0000
# 5 0.0000 0.0000 0.0000 0.0000 48.3738 0.0000
# 6 0.0000 0.0000 0.0000 0.0000 0.0000 46.7884
#
#
#
# Elastic Compliance Matrix: (Units=1/GPa)
#
#
# Indices 1 2 3 4 5 6 
#
# 1 0.004736 -0.000964 -0.001181 0.000000 0.000000 0.000000
# 2 -0.000964 0.006352 -0.000465 0.000000 0.000000 0.000000
# 3 -0.001181 -0.000465 0.013431 0.000000 0.000000 0.000000
# 4 0.000000 0.000000 0.000000 0.028009 0.000000 0.000000
# 5 0.000000 0.000000 0.000000 0.000000 0.020672 0.000000
# 6 0.000000 0.000000 0.000000 0.000000 0.000000 0.021373
#
#
# Mechanical properties :
#
#
# Convention : Reuss Voigt Hill
#
# Bulk Modulus (GPa) = 51.81736 65.98725 58.90231
# Shear Modulus (GPa) = 47.06945 52.74045 49.90495
#
# Velocity S-wave (km/s) = 4.04701 4.28388 4.16713
# Velocity P-wave (km/s) = 6.31412 6.88693 6.60674
#
# Compressibility (1/GPa) = 0.01929855
#
# Stress axis : x y z
#
# Youngs Moduli (GPa) = 211.15698 157.43686 74.45273
#
# Poissons Ratio (x) = 0.15173 0.08793
# Poissons Ratio (y) = 0.20351 0.03465
# Poissons Ratio (z) = 0.24938 0.07326
#
# Static dielectric constant tensor:
#      x y z
#    x 2.318050 0.000000 0.000000 
#    y 0.000000 2.315980 0.000000 
#    z 0.000000 0.000000 2.495970 
# 
# From -- ./inp_files/18661.got.cif
#   From: 2010.05.17/outbox.cif.g08.bks.cpg/sg43_10_cif.got.tgz:18661.got - 2010.06.03 19:21:55.
