data_PCOD9370809
_publ_section_title
;
Structure prediction by ZEFSAII (Michael W. Deem and Ramdas Pophale) SiO2 
 PCOD9370809
Probable space group: F D D 2
;
_chemical_formula_sum "Si O2"
_cell_formula_units_Z 88
_cell_length_a 8.643508
_cell_length_b 28.664519
_cell_length_c 17.129155
_cell_angle_alpha 90.000000
_cell_angle_beta 90.000000
_cell_angle_gamma 90.000000
_cell_volume 4243.953689
_symmetry_space_group_name_H-M "F D D 2"
_symmetry_group_IT_number 43
_symmetry_cell_setting 'orthorhombic'
loop_
_space_group_symop_operation_xyz
x,y,z
-x,-y,z
1/4-x,1/4+y,1/4+z
1/4+x,1/4-y,1/4+z
x,1/2+y,1/2+z
-x,1/2-y,1/2+z
1/4-x,3/4+y,3/4+z
1/4+x,3/4-y,3/4+z
1/2+x,y,1/2+z
1/2-x,-y,1/2+z
3/4-x,1/4+y,3/4+z
3/4+x,1/4-y,3/4+z
1/2+x,1/2+y,z
1/2-x,1/2-y,z
3/4-x,3/4+y,1/4+z
3/4+x,3/4-y,1/4+z
loop_
_atom_site_type_symbol
_atom_site_label
_atom_site_fract_x
_atom_site_fract_y
_atom_site_fract_z
Si Si1 0.958802 0.574935 0.985740
Si Si2 0.209611 0.929500 0.696154
Si Si3 0.250000 0.250000 0.853415
Si Si4 0.885883 0.956511 0.341249
Si Si5 0.453991 0.898788 0.320004
Si Si6 0.094317 0.769482 0.681241
O O1 0.791167 0.548144 0.976489
O O2 0.033865 0.578734 0.901123
O O3 0.052994 0.541133 0.044308
O O4 0.937816 0.624314 0.025648
O O5 0.346951 0.940604 0.755087
O O6 0.253085 0.890774 0.632361
O O7 0.079157 0.908636 0.753777
O O8 0.131321 0.974919 0.655590
O O9 0.736015 0.976474 0.386391
O O10 0.000000 0.000000 0.337840
O O11 0.403131 0.944512 0.365571
O O12 0.250000 0.750000 0.723042
#
# Coordination Sequence:
#
# PCOD9370809 Si02
#       6
#    16  16   8  16  16  16
#     4  10  21  41  62  94 124 161 212 268 321 372
#     4  11  22  39  63  92 126 164 210 254 319 384
#     4  10  20  40  66  86 122 164 208 256 316 386
#     4  10  21  41  64  89 124 163 209 262 311 379
#     4  11  22  38  62  92 124 164 208 262 310 387
#     4  11  19  36  65  90 122 165 212 251 325 373
#
# _framework density 20.735382999999999
#
# number of rings (size 3 to 8) (size 9 to 14) (size 15 to 20)
#    0.000    1.455    6.364    1.091    0.000    0.000 
#    6.545    5.455    4.000    0.000    0.000    0.000 
#    0.000    0.000    0.000    0.000    0.000    0.000 
#
# Total GULP energy -122719.451784 kJ/mol
# GULP energy per Si atom -5578.156899 kJ/mol
# Density = 2.068819 g / cm^3
# Si number density = 20.735383 Si / 1000 Ang^3
#
#
#
# Elastic Constant Matrix: (Units=GPa)
#
#
# Indices 1 2 3 4 5 6 
#
# 1 61.5637 13.2515 23.7997 0.0000 0.0000 0.0000
# 2 13.2515 30.6803 10.2068 0.0000 0.0000 0.0000
# 3 23.7997 10.2068 111.1286 0.0000 0.0000 0.0000
# 4 0.0000 0.0000 0.0000 27.7472 0.0000 0.0000
# 5 0.0000 0.0000 0.0000 0.0000 27.5452 0.0000
# 6 0.0000 0.0000 0.0000 0.0000 0.0000 2.7346
#
#
#
# Elastic Compliance Matrix: (Units=1/GPa)
#
#
# Indices 1 2 3 4 5 6 
#
# 1 0.019102 -0.007107 -0.003438 0.000000 0.000000 0.000000
# 2 -0.007107 0.036266 -0.001809 0.000000 0.000000 0.000000
# 3 -0.003438 -0.001809 0.009901 0.000000 0.000000 0.000000
# 4 0.000000 0.000000 0.000000 0.036040 0.000000 0.000000
# 5 0.000000 0.000000 0.000000 0.000000 0.036304 0.000000
# 6 0.000000 0.000000 0.000000 0.000000 0.000000 0.365689
#
#
# Mechanical properties :
#
#
# Convention : Reuss Voigt Hill
#
# Bulk Modulus (GPa) = 24.65421 33.09873 28.87647
# Shear Modulus (GPa) = 9.23311 22.01302 15.62306
#
# Velocity S-wave (km/s) = 2.11246 3.26178 2.74788
# Velocity P-wave (km/s) = 4.22679 5.49388 4.90145
#
# Compressibility (1/GPa) = 0.04056102
#
# Stress axis : x y z
#
# Youngs Moduli (GPa) = 52.34978 27.57430 100.99913
#
# Poissons Ratio (x) = 0.19597 0.34726
# Poissons Ratio (y) = 0.37204 0.18269
# Poissons Ratio (z) = 0.17999 0.04988
#
# Static dielectric constant tensor:
#      x y z
#    x 1.844250 0.000000 0.000000 
#    y 0.000000 1.756540 0.000000 
#    z 0.000000 0.000000 1.750730 
# 
# From -- ./inp_files/12865.got.cif
#   From: 2010.05.17/outbox.cif.g08.bks.cpg/sg43_7_cif.got.tgz:12865.got - 2010.06.03 19:21:55.
