data_PCOD9370811
_publ_section_title
;
Structure prediction by ZEFSAII (Michael W. Deem and Ramdas Pophale) SiO2 
 PCOD9370811
Probable space group: F D D 2
;
_chemical_formula_sum "Si O2"
_cell_formula_units_Z 72
_cell_length_a 7.887342
_cell_length_b 17.489812
_cell_length_c 21.992295
_cell_angle_alpha 90.000000
_cell_angle_beta 90.000000
_cell_angle_gamma 90.000000
_cell_volume 3033.795942
_symmetry_space_group_name_H-M "F D D 2"
_symmetry_group_IT_number 43
_symmetry_cell_setting 'orthorhombic'
loop_
_space_group_symop_operation_xyz
x,y,z
-x,-y,z
1/4-x,1/4+y,1/4+z
1/4+x,1/4-y,1/4+z
x,1/2+y,1/2+z
-x,1/2-y,1/2+z
1/4-x,3/4+y,3/4+z
1/4+x,3/4-y,3/4+z
1/2+x,y,1/2+z
1/2-x,-y,1/2+z
3/4-x,1/4+y,3/4+z
3/4+x,1/4-y,3/4+z
1/2+x,1/2+y,z
1/2-x,1/2-y,z
3/4-x,3/4+y,1/4+z
3/4+x,3/4-y,1/4+z
loop_
_atom_site_type_symbol
_atom_site_label
_atom_site_fract_x
_atom_site_fract_y
_atom_site_fract_z
Si Si1 0.197583 0.979387 0.518040
Si Si2 0.359686 0.148177 0.941609
Si Si3 0.497927 0.791128 0.399013
Si Si4 0.836281 0.049229 0.892853
Si Si5 0.250000 0.250000 0.620686
O O1 0.203363 0.888428 0.504612
O O2 0.273279 0.996995 0.583177
O O3 0.284224 0.020106 0.460879
O O4 0.000000 0.000000 0.521346
O O5 0.484160 0.220294 0.945268
O O6 0.190827 0.171788 0.904895
O O7 0.447807 0.077137 0.907691
O O8 0.624228 0.861718 0.401636
O O9 0.682355 0.028075 0.847053
O O10 0.000000 0.000000 0.875448
#
# Coordination Sequence:
#
# PCOD9370811 Si02
#       5
#    16  16  16  16   8
#     4  11  21  45  72  95 145 188 218 294 362 398
#     4  10  20  42  69  99 136 182 229 285 338 420
#     4  11  23  42  70 102 138 184 234 283 354 411
#     4  11  21  43  69  98 139 180 231 290 340 412
#     4  10  20  40  66  92 136 178 214 288 346 384
#
# _framework density 23.732644000000001
#
# number of rings (size 3 to 8) (size 9 to 14) (size 15 to 20)
#    0.000    1.333   11.111    0.000    0.000    0.889 
#    8.000    2.222    0.000    0.000    0.000    0.000 
#    0.000    0.000    0.000    0.000    0.000    0.000 
#
# Total GULP energy -100316.646434 kJ/mol
# GULP energy per Si atom -5573.147024 kJ/mol
# Density = 2.367863 g / cm^3
# Si number density = 23.732644 Si / 1000 Ang^3
#
#
#
# Elastic Constant Matrix: (Units=GPa)
#
#
# Indices 1 2 3 4 5 6 
#
# 1 116.1523 27.0253 -9.5363 0.0000 0.0000 0.0000
# 2 27.0253 140.7275 -2.5953 0.0000 0.0000 0.0000
# 3 -9.5363 -2.5953 45.2238 0.0000 0.0000 0.0000
# 4 0.0000 0.0000 0.0000 8.1193 0.0000 0.0000
# 5 0.0000 0.0000 0.0000 0.0000 9.0626 0.0000
# 6 0.0000 0.0000 0.0000 0.0000 0.0000 60.3451
#
#
#
# Elastic Compliance Matrix: (Units=1/GPa)
#
#
# Indices 1 2 3 4 5 6 
#
# 1 0.009161 -0.001726 0.001833 0.000000 0.000000 0.000000
# 2 -0.001726 0.007438 0.000063 0.000000 0.000000 0.000000
# 3 0.001833 0.000063 0.022502 0.000000 0.000000 0.000000
# 4 0.000000 0.000000 0.000000 0.123163 0.000000 0.000000
# 5 0.000000 0.000000 0.000000 0.000000 0.110344 0.000000
# 6 0.000000 0.000000 0.000000 0.000000 0.000000 0.016571
#
#
# Mechanical properties :
#
#
# Convention : Reuss Voigt Hill
#
# Bulk Modulus (GPa) = 25.35317 36.87676 31.11497
# Shear Modulus (GPa) = 16.55700 34.65273 25.60486
#
# Velocity S-wave (km/s) = 2.64417 3.82531 3.28821
# Velocity P-wave (km/s) = 4.47528 5.92307 5.24933
#
# Compressibility (1/GPa) = 0.03944279
#
# Stress axis : x y z
#
# Youngs Moduli (GPa) = 109.15417 134.43625 44.43975
#
# Poissons Ratio (x) = 0.23198 -0.08145
# Poissons Ratio (y) = 0.18835 -0.00280
# Poissons Ratio (z) = -0.20006 -0.00847
#
# Static dielectric constant tensor:
#      x y z
#    x 1.978540 0.000000 0.000000 
#    y 0.000000 1.982560 0.000000 
#    z 0.000000 0.000000 1.914730 
# 
# From -- ./inp_files/17909.got.cif
#   From: 2010.05.17/outbox.cif.g08.bks.cpg/sg43_9_cif.got.tgz:17909.got - 2010.06.03 19:21:55.
