data_PCOD9370914
_publ_section_title
;
Structure prediction by ZEFSAII (Michael W. Deem and Ramdas Pophale) SiO2 
 PCOD9370914
Probable space group: F D D 2
;
_chemical_formula_sum "Si O2"
_cell_formula_units_Z 80
_cell_length_a 17.135711
_cell_length_b 23.781184
_cell_length_c 9.123325
_cell_angle_alpha 90.000000
_cell_angle_beta 90.000000
_cell_angle_gamma 90.000000
_cell_volume 3717.823328
_symmetry_space_group_name_H-M "F D D 2"
_symmetry_group_IT_number 43
_symmetry_cell_setting 'orthorhombic'
loop_
_space_group_symop_operation_xyz
x,y,z
-x,-y,z
1/4-x,1/4+y,1/4+z
1/4+x,1/4-y,1/4+z
x,1/2+y,1/2+z
-x,1/2-y,1/2+z
1/4-x,3/4+y,3/4+z
1/4+x,3/4-y,3/4+z
1/2+x,y,1/2+z
1/2-x,-y,1/2+z
3/4-x,1/4+y,3/4+z
3/4+x,1/4-y,3/4+z
1/2+x,1/2+y,z
1/2-x,1/2-y,z
3/4-x,3/4+y,1/4+z
3/4+x,3/4-y,1/4+z
loop_
_atom_site_type_symbol
_atom_site_label
_atom_site_fract_x
_atom_site_fract_y
_atom_site_fract_z
Si Si1 0.500000 0.500000 0.092140
Si Si2 0.054424 0.583410 0.842035
Si Si3 0.750000 0.250000 0.339817
Si Si4 0.266836 0.451444 0.677130
Si Si5 0.867798 0.270179 0.581436
Si Si6 0.714466 0.044453 0.854011
O O1 0.520733 0.551811 0.199869
O O2 0.428837 0.515127 0.981890
O O3 0.010792 0.639884 0.887252
O O4 0.147838 0.589480 0.825102
O O5 0.042883 0.542382 0.980923
O O6 0.808322 0.282145 0.450085
O O7 0.339756 0.460899 0.786094
O O8 0.288746 0.477070 0.520242
O O9 0.201099 0.490784 0.749458
O O10 0.944275 0.310140 0.582379
#
# Coordination Sequence:
#
# PCOD9370914 Si02
#       6
#     8  16   8  16  16  16
#     4  10  22  40  74 102 142 172 240 294 336 422
#     4  11  22  40  72 102 131 185 233 283 341 423
#     4  10  20  42  66  98 138 178 222 290 346 412
#     4  10  23  42  68  97 143 179 231 274 365 400
#     4   9  21  44  63  93 143 180 215 294 351 398
#     4  10  21  43  65  94 136 185 220 292 329 421
#
# _framework density 21.517966999999999
#
# number of rings (size 3 to 8) (size 9 to 14) (size 15 to 20)
#    1.200    0.800    2.000    1.200    0.000    4.800 
#    3.600    4.000    0.000    0.000    0.000    0.000 
#    0.000    0.000    0.000    0.000    0.000    0.000 
#
# Total GULP energy -111422.446727 kJ/mol
# GULP energy per Si atom -5571.122336 kJ/mol
# Density = 2.146899 g / cm^3
# Si number density = 21.517967 Si / 1000 Ang^3
#
#
#
# Elastic Constant Matrix: (Units=GPa)
#
#
# Indices 1 2 3 4 5 6 
#
# 1 143.5859 25.5068 57.2438 0.0000 0.0000 0.0000
# 2 25.5068 50.7905 34.5703 0.0000 0.0000 0.0000
# 3 57.2438 34.5703 144.4658 0.0000 0.0000 0.0000
# 4 0.0000 0.0000 0.0000 12.1979 0.0000 0.0000
# 5 0.0000 0.0000 0.0000 0.0000 32.5747 0.0000
# 6 0.0000 0.0000 0.0000 0.0000 0.0000 6.1003
#
#
#
# Elastic Compliance Matrix: (Units=1/GPa)
#
#
# Indices 1 2 3 4 5 6 
#
# 1 0.008502 -0.002361 -0.002804 0.000000 0.000000 0.000000
# 2 -0.002361 0.024175 -0.004849 0.000000 0.000000 0.000000
# 3 -0.002804 -0.004849 0.009193 0.000000 0.000000 0.000000
# 4 0.000000 0.000000 0.000000 0.081981 0.000000 0.000000
# 5 0.000000 0.000000 0.000000 0.000000 0.030699 0.000000
# 6 0.000000 0.000000 0.000000 0.000000 0.000000 0.163927
#
#
# Mechanical properties :
#
#
# Convention : Reuss Voigt Hill
#
# Bulk Modulus (GPa) = 45.78402 63.72046 54.75224
# Shear Modulus (GPa) = 14.45979 24.94267 19.70123
#
# Velocity S-wave (km/s) = 2.59508 3.40833 3.02912
# Velocity P-wave (km/s) = 5.50478 6.72056 6.14282
#
# Compressibility (1/GPa) = 0.02184168
#
# Stress axis : x y z
#
# Youngs Moduli (GPa) = 117.62381 41.36455 108.77268
#
# Poissons Ratio (x) = 0.09767 0.30497
# Poissons Ratio (y) = 0.27773 0.52749
# Poissons Ratio (z) = 0.32978 0.20060
#
# Static dielectric constant tensor:
#      x y z
#    x 1.875870 0.000000 0.000000 
#    y 0.000000 1.772670 0.000000 
#    z 0.000000 0.000000 1.766920 
# 
# From -- ./inp_files/2825.got.cif
#   From: 2010.05.17/outbox.cif.g08.bks.cpg/sg43_2_cif.got.tgz:2825.got - 2010.06.03 19:21:55.
