data_PCOD9370189
_publ_section_title
;
Structure prediction by ZEFSAII (Michael W. Deem and Ramdas Pophale) SiO2 
 PCOD9370189
Probable space group: F D D 2
;
_chemical_formula_sum "Si O2"
_cell_formula_units_Z 120
_cell_length_a 17.817657
_cell_length_b 15.931287
_cell_length_c 22.435445
_cell_angle_alpha 90.000000
_cell_angle_beta 90.000000
_cell_angle_gamma 90.000000
_cell_volume 6368.485198
_symmetry_space_group_name_H-M "F D D 2"
_symmetry_group_IT_number 43
_symmetry_cell_setting 'orthorhombic'
loop_
_space_group_symop_operation_xyz
x,y,z
-x,-y,z
1/4-x,1/4+y,1/4+z
1/4+x,1/4-y,1/4+z
x,1/2+y,1/2+z
-x,1/2-y,1/2+z
1/4-x,3/4+y,3/4+z
1/4+x,3/4-y,3/4+z
1/2+x,y,1/2+z
1/2-x,-y,1/2+z
3/4-x,1/4+y,3/4+z
3/4+x,1/4-y,3/4+z
1/2+x,1/2+y,z
1/2-x,1/2-y,z
3/4-x,3/4+y,1/4+z
3/4+x,3/4-y,1/4+z
loop_
_atom_site_type_symbol
_atom_site_label
_atom_site_fract_x
_atom_site_fract_y
_atom_site_fract_z
Si Si1 0.347182 0.356929 0.007450
Si Si2 0.404689 0.726099 0.947364
Si Si3 0.810304 0.678686 0.556460
Si Si4 0.750000 0.250000 0.595563
Si Si5 0.597163 0.337681 0.170379
Si Si6 0.477886 0.746218 0.279155
Si Si7 0.189785 0.920224 0.649214
Si Si8 0.540221 0.588686 0.100491
O O1 0.312164 0.287395 0.050891
O O2 0.289824 0.435112 0.009704
O O3 0.425384 0.381797 0.038734
O O4 0.367131 0.329295 0.940896
O O5 0.376299 0.822035 0.943824
O O6 0.491690 0.716052 0.933234
O O7 0.359728 0.677300 0.895208
O O8 0.377869 0.686881 0.009404
O O9 0.750000 0.750000 0.540630
O O10 0.842144 0.692564 0.622432
O O11 0.772045 0.587936 0.549220
O O12 0.783918 0.175031 0.635039
O O13 0.576619 0.278394 0.225187
O O14 0.520003 0.353481 0.133759
O O15 0.434094 0.784163 0.335561
O O16 0.500000 0.500000 0.091683
#
# Coordination Sequence:
#
# PCOD9370189 Si02
#       8
#    16  16  16   8  16  16  16  16
#     4  11  24  41  64  91 127 168 208 263 311 375
#     4  11  19  38  63  99 124 154 206 261 317 370
#     4  12  22  39  65  93 126 164 203 263 316 376
#     4  10  24  44  62  94 124 164 218 256 314 370
#     4  11  22  37  63  92 127 163 205 255 320 371
#     4  11  22  42  63  92 127 161 206 262 315 367
#     4  11  24  41  66  89 127 168 210 262 310 377
#     4  10  18  34  60  98 125 151 199 259 319 373
#
# _framework density 18.842784999999999
#
# number of rings (size 3 to 8) (size 9 to 14) (size 15 to 20)
#    0.000    1.067    6.667    2.000    4.667    0.000 
#    4.800    0.000    1.467    0.000    0.000    0.000 
#    0.000    0.000    0.000    0.000    0.000    0.000 
#
# Total GULP energy -167606.843575 kJ/mol
# GULP energy per Si atom -5586.894786 kJ/mol
# Density = 1.879990 g / cm^3
# Si number density = 18.842785 Si / 1000 Ang^3
#
#
#
# Elastic Constant Matrix: (Units=GPa)
#
#
# Indices 1 2 3 4 5 6 
#
# 1 45.0278 7.8541 23.1290 0.0000 0.0000 0.0000
# 2 7.8541 51.1252 23.8254 0.0000 0.0000 0.0000
# 3 23.1290 23.8254 105.6540 0.0000 0.0000 0.0000
# 4 0.0000 0.0000 0.0000 22.0689 0.0000 0.0000
# 5 0.0000 0.0000 0.0000 0.0000 37.9744 0.0000
# 6 0.0000 0.0000 0.0000 0.0000 0.0000 8.1525
#
#
#
# Elastic Compliance Matrix: (Units=1/GPa)
#
#
# Indices 1 2 3 4 5 6 
#
# 1 0.025118 -0.001448 -0.005172 0.000000 0.000000 0.000000
# 2 -0.001448 0.021940 -0.004631 0.000000 0.000000 0.000000
# 3 -0.005172 -0.004631 0.011641 0.000000 0.000000 0.000000
# 4 0.000000 0.000000 0.000000 0.045313 0.000000 0.000000
# 5 0.000000 0.000000 0.000000 0.000000 0.026334 0.000000
# 6 0.000000 0.000000 0.000000 0.000000 0.000000 0.122662
#
#
# Mechanical properties :
#
#
# Convention : Reuss Voigt Hill
#
# Bulk Modulus (GPa) = 27.62628 34.60267 31.11448
# Shear Modulus (GPa) = 17.38675 23.43905 20.41290
#
# Velocity S-wave (km/s) = 3.04094 3.53076 3.29496
# Velocity P-wave (km/s) = 5.19837 5.91823 5.56994
#
# Compressibility (1/GPa) = 0.03619742
#
# Stress axis : x y z
#
# Youngs Moduli (GPa) = 39.81238 45.57824 85.90124
#
# Poissons Ratio (x) = 0.06602 0.44428
# Poissons Ratio (y) = 0.05767 0.39777
# Poissons Ratio (z) = 0.20591 0.21105
#
# Static dielectric constant tensor:
#      x y z
#    x 1.656350 0.000000 0.000000 
#    y 0.000000 1.645380 0.000000 
#    z 0.000000 0.000000 1.672510 
# 
# From -- ./inp_files/17701.got.cif
#   From: 2010.05.17/outbox.cif.g08.bks.cpg/sg43_9_cif.got.tgz:17701.got - 2010.06.03 19:21:55.
