data_PCOD9370336
_publ_section_title
;
Structure prediction by ZEFSAII (Michael W. Deem and Ramdas Pophale) SiO2 
 PCOD9370336
Probable space group: F D D 2
;
_chemical_formula_sum "Si O2"
_cell_formula_units_Z 96
_cell_length_a 33.341158
_cell_length_b 9.917674
_cell_length_c 12.966171
_cell_angle_alpha 90.000000
_cell_angle_beta 90.000000
_cell_angle_gamma 90.000000
_cell_volume 4287.481441
_symmetry_space_group_name_H-M "F D D 2"
_symmetry_group_IT_number 43
_symmetry_cell_setting 'orthorhombic'
loop_
_space_group_symop_operation_xyz
x,y,z
-x,-y,z
1/4-x,1/4+y,1/4+z
1/4+x,1/4-y,1/4+z
x,1/2+y,1/2+z
-x,1/2-y,1/2+z
1/4-x,3/4+y,3/4+z
1/4+x,3/4-y,3/4+z
1/2+x,y,1/2+z
1/2-x,-y,1/2+z
3/4-x,1/4+y,3/4+z
3/4+x,1/4-y,3/4+z
1/2+x,1/2+y,z
1/2-x,1/2-y,z
3/4-x,3/4+y,1/4+z
3/4+x,3/4-y,1/4+z
loop_
_atom_site_type_symbol
_atom_site_label
_atom_site_fract_x
_atom_site_fract_y
_atom_site_fract_z
Si Si1 0.416374 0.535239 0.692470
Si Si2 0.168694 0.279575 0.363891
Si Si3 0.250000 0.750000 0.531070
Si Si4 0.502312 0.208176 0.868386
Si Si5 0.336441 0.051529 0.575556
Si Si6 0.000000 0.000000 0.184219
Si Si7 0.669015 0.543098 0.735318
O O1 0.459993 0.473226 0.713517
O O2 0.413241 0.645193 0.786429
O O3 0.375941 0.445691 0.688052
O O4 0.418662 0.618995 0.587997
O O5 0.131246 0.180367 0.365792
O O6 0.166731 0.360909 0.471795
O O7 0.212233 0.216982 0.364235
O O8 0.169668 0.386154 0.270365
O O9 0.246602 0.616795 0.599099
O O10 0.548594 0.173037 0.900873
O O11 0.501624 0.128089 0.760243
O O12 0.460527 0.175725 0.925641
#
# Coordination Sequence:
#
# PCOD9370336 Si02
#       7
#    16  16   8  16  16   8  16
#     4   9  18  33  55  82 112 144 186 232 276 326
#     4   9  18  34  55  76 105 143 184 222 266 325
#     4  10  20  38  58  80 110 150 190 230 274 330
#     4  10  21  37  56  80 115 149 182 230 282 329
#     4   8  17  33  53  78 107 140 180 226 269 319
#     4  10  22  40  54  80 120 148 174 230 290 332
#     4  10  19  34  57  84 110 147 190 230 273 332
#
# _framework density 22.390767
#
# number of rings (size 3 to 8) (size 9 to 14) (size 15 to 20)
#    0.000    2.667    0.000    2.000    0.000    6.667 
#    0.000    8.333    0.000    0.000    0.000    0.000 
#    0.000    0.000    0.000    0.000    0.000    0.000 
#
# Total GULP energy -133606.412244 kJ/mol
# GULP energy per Si atom -5566.933843 kJ/mol
# Density = 2.233980 g / cm^3
# Si number density = 22.390767 Si / 1000 Ang^3
#
#
#
# Elastic Constant Matrix: (Units=GPa)
#
#
# Indices 1 2 3 4 5 6 
#
# 1 239.9039 -23.6380 44.2190 0.0000 0.0000 0.0000
# 2 -23.6380 20.5691 -6.9548 0.0000 0.0000 0.0000
# 3 44.2190 -6.9548 22.9793 0.0000 0.0000 0.0000
# 4 0.0000 0.0000 0.0000 10.0677 0.0000 0.0000
# 5 0.0000 0.0000 0.0000 0.0000 36.2438 0.0000
# 6 0.0000 0.0000 0.0000 0.0000 0.0000 13.7967
#
#
#
# Elastic Compliance Matrix: (Units=1/GPa)
#
#
# Indices 1 2 3 4 5 6 
#
# 1 0.006706 0.003725 -0.011777 0.000000 0.000000 0.000000
# 2 0.003725 0.056227 0.009850 0.000000 0.000000 0.000000
# 3 -0.011777 0.009850 0.069161 0.000000 0.000000 0.000000
# 4 0.000000 0.000000 0.000000 0.099328 0.000000 0.000000
# 5 0.000000 0.000000 0.000000 0.000000 0.027591 0.000000
# 6 0.000000 0.000000 0.000000 0.000000 0.000000 0.072481
#
#
# Mechanical properties :
#
#
# Convention : Reuss Voigt Hill
#
# Bulk Modulus (GPa) = 7.36974 34.52275 20.94625
# Shear Modulus (GPa) = 13.40016 30.01004 21.70510
#
# Velocity S-wave (km/s) = 2.44901 3.66496 3.11686
# Velocity P-wave (km/s) = 3.36087 5.77590 4.72528
#
# Compressibility (1/GPa) = 0.13568993
#
# Stress axis : x y z
#
# Youngs Moduli (GPa) = 149.11803 17.78493 14.45893
#
# Poissons Ratio (x) = -0.06624 0.17029
# Poissons Ratio (y) = -0.55540 -0.14242
# Poissons Ratio (z) = 1.75620 -0.17519
#
# Static dielectric constant tensor:
#      x y z
#    x 2.001970 0.000000 0.000000 
#    y 0.000000 1.848780 0.000000 
#    z 0.000000 0.000000 1.803440 
# 
# From -- ./inp_files/9757.got.cif
#   From: 2010.05.17/outbox.cif.g08.bks.cpg/sg43_5_cif.got.tgz:9757.got - 2010.06.03 19:21:55.
