data_PCOD9370791
_publ_section_title
;
Structure prediction by ZEFSAII (Michael W. Deem and Ramdas Pophale) SiO2 
 PCOD9370791
Probable space group: F D D 2
;
_chemical_formula_sum "Si O2"
_cell_formula_units_Z 80
_cell_length_a 19.909298
_cell_length_b 11.892625
_cell_length_c 19.019601
_cell_angle_alpha 90.000000
_cell_angle_beta 90.000000
_cell_angle_gamma 90.000000
_cell_volume 4503.343491
_symmetry_space_group_name_H-M "F D D 2"
_symmetry_group_IT_number 43
_symmetry_cell_setting 'orthorhombic'
loop_
_space_group_symop_operation_xyz
x,y,z
-x,-y,z
1/4-x,1/4+y,1/4+z
1/4+x,1/4-y,1/4+z
x,1/2+y,1/2+z
-x,1/2-y,1/2+z
1/4-x,3/4+y,3/4+z
1/4+x,3/4-y,3/4+z
1/2+x,y,1/2+z
1/2-x,-y,1/2+z
3/4-x,1/4+y,3/4+z
3/4+x,1/4-y,3/4+z
1/2+x,1/2+y,z
1/2-x,1/2-y,z
3/4-x,3/4+y,1/4+z
3/4+x,3/4-y,1/4+z
loop_
_atom_site_type_symbol
_atom_site_label
_atom_site_fract_x
_atom_site_fract_y
_atom_site_fract_z
Si Si1 0.253663 0.874794 0.034870
Si Si2 0.362280 0.758343 0.285357
Si Si3 0.413452 0.175503 0.234230
Si Si4 0.500000 0.000000 0.920786
Si Si5 0.419261 0.488788 0.846778
Si Si6 0.000000 0.000000 0.648153
O O1 0.250000 0.750000 0.002830
O O2 0.242667 0.854384 0.118041
O O3 0.327285 0.923666 0.023922
O O4 0.198921 0.961443 0.009123
O O5 0.314683 0.767253 0.218349
O O6 0.312530 0.718131 0.347969
O O7 0.394667 0.878320 0.304669
O O8 0.392953 0.096731 0.301132
O O9 0.359401 0.213453 0.175166
O O10 0.470093 0.100032 0.194690
O O11 0.500000 0.500000 0.849500
#
# Coordination Sequence:
#
# PCOD9370791 Si02
#       6
#    16  16  16   8  16   8
#     4  10  23  37  58  87 124 164 197 256 312 376
#     4  10  20  40  63  91 119 155 217 250 310 374
#     4  11  22  40  61  96 124 165 205 263 317 374
#     4   9  24  38  60  88 115 168 196 258 299 374
#     4  11  23  39  69  89 125 163 211 266 311 381
#     4   9  20  36  68  94 113 160 210 262 299 368
#
# _framework density 17.764578
#
# number of rings (size 3 to 8) (size 9 to 14) (size 15 to 20)
#    0.600    1.200    3.000    0.000    8.400    1.600 
#    0.000    3.000    0.000    0.000    0.000    0.000 
#    0.000    0.000    0.000    0.000    0.000    0.000 
#
# Total GULP energy -111415.626135 kJ/mol
# GULP energy per Si atom -5570.781307 kJ/mol
# Density = 1.772415 g / cm^3
# Si number density = 17.764578 Si / 1000 Ang^3
#
#
#
# Elastic Constant Matrix: (Units=GPa)
#
#
# Indices 1 2 3 4 5 6 
#
# 1 119.9012 54.3609 55.8211 0.0000 0.0000 0.0000
# 2 54.3609 115.5684 42.4645 0.0000 0.0000 0.0000
# 3 55.8211 42.4645 103.5457 0.0000 0.0000 0.0000
# 4 0.0000 0.0000 0.0000 28.7558 0.0000 0.0000
# 5 0.0000 0.0000 0.0000 0.0000 13.2700 0.0000
# 6 0.0000 0.0000 0.0000 0.0000 0.0000 16.8213
#
#
#
# Elastic Compliance Matrix: (Units=1/GPa)
#
#
# Indices 1 2 3 4 5 6 
#
# 1 0.012544 -0.004022 -0.005113 0.000000 0.000000 0.000000
# 2 -0.004022 0.011477 -0.002539 0.000000 0.000000 0.000000
# 3 -0.005113 -0.002539 0.013455 0.000000 0.000000 0.000000
# 4 0.000000 0.000000 0.000000 0.034776 0.000000 0.000000
# 5 0.000000 0.000000 0.000000 0.000000 0.075358 0.000000
# 6 0.000000 0.000000 0.000000 0.000000 0.000000 0.059448
#
#
# Mechanical properties :
#
#
# Convention : Reuss Voigt Hill
#
# Bulk Modulus (GPa) = 70.77461 71.58983 71.18222
# Shear Modulus (GPa) = 21.26613 24.19403 22.73008
#
# Velocity S-wave (km/s) = 3.46368 3.69443 3.58091
# Velocity P-wave (km/s) = 7.47816 7.65409 7.56664
#
# Compressibility (1/GPa) = 0.01412936
#
# Stress axis : x y z
#
# Youngs Moduli (GPa) = 79.71937 87.12717 74.32041
#
# Poissons Ratio (x) = 0.35040 0.38001
# Poissons Ratio (y) = 0.32060 0.18869
# Poissons Ratio (z) = 0.40762 0.22121
#
# Static dielectric constant tensor:
#      x y z
#    x 1.585090 0.000000 0.000000 
#    y 0.000000 1.592890 0.000000 
#    z 0.000000 0.000000 1.643650 
# 
# From -- ./inp_files/13253.got.cif
#   From: 2010.05.17/outbox.cif.g08.bks.cpg/sg43_7_cif.got.tgz:13253.got - 2010.06.03 19:21:55.
