data_PCOD9370163
_publ_section_title
;
Structure prediction by ZEFSAII (Michael W. Deem and Ramdas Pophale) SiO2 
 PCOD9370163
Probable space group: F D D 2
;
_chemical_formula_sum "Si O2"
_cell_formula_units_Z 112
_cell_length_a 5.452140
_cell_length_b 29.388153
_cell_length_c 29.628258
_cell_angle_alpha 90.000000
_cell_angle_beta 90.000000
_cell_angle_gamma 90.000000
_cell_volume 4747.286137
_symmetry_space_group_name_H-M "F D D 2"
_symmetry_group_IT_number 43
_symmetry_cell_setting 'orthorhombic'
loop_
_space_group_symop_operation_xyz
x,y,z
-x,-y,z
1/4-x,1/4+y,1/4+z
1/4+x,1/4-y,1/4+z
x,1/2+y,1/2+z
-x,1/2-y,1/2+z
1/4-x,3/4+y,3/4+z
1/4+x,3/4-y,3/4+z
1/2+x,y,1/2+z
1/2-x,-y,1/2+z
3/4-x,1/4+y,3/4+z
3/4+x,1/4-y,3/4+z
1/2+x,1/2+y,z
1/2-x,1/2-y,z
3/4-x,3/4+y,1/4+z
3/4+x,3/4-y,1/4+z
loop_
_atom_site_type_symbol
_atom_site_label
_atom_site_fract_x
_atom_site_fract_y
_atom_site_fract_z
Si Si1 0.791578 0.945943 0.567530
Si Si2 0.709747 0.874791 0.892870
Si Si3 0.898544 0.675264 0.439873
Si Si4 0.000000 0.500000 0.232406
Si Si5 0.500000 0.000000 0.627094
Si Si6 0.021143 0.340202 0.990723
Si Si7 0.504087 0.278224 0.668727
Si Si8 0.775148 0.927659 0.017100
O O1 0.868034 0.905393 0.601585
O O2 0.527134 0.935486 0.544329
O O3 0.017014 0.949100 0.533565
O O4 0.732980 0.991931 0.595507
O O5 0.576383 0.858767 0.939265
O O6 0.698028 0.928541 0.886617
O O7 0.987534 0.861729 0.906894
O O8 0.732891 0.706799 0.408792
O O9 0.772848 0.656745 0.485255
O O10 0.095390 0.713827 0.453647
O O11 0.176213 0.537827 0.254582
O O12 0.192552 0.374530 0.017645
O O13 0.750000 0.250000 0.656182
O O14 0.563632 0.301589 0.717304
O O15 0.250000 0.250000 0.671866
#
# Coordination Sequence:
#
# PCOD9370163 Si02
#       8
#    16  16  16   8   8  16  16  16
#     4  12  26  44  65 100 145 181 223 279 365 437
#     4  10  24  41  69  94 133 183 229 288 344 410
#     4  11  19  38  63 105 134 166 225 288 355 403
#     4  10  18  32  64  96 126 163 220 290 329 406
#     4  12  22  38  66 104 136 175 212 282 353 426
#     4  10  21  39  65  94 132 176 231 281 344 414
#     4  11  26  46  73 100 131 184 248 294 334 407
#     4  11  28  43  65  99 143 187 222 287 362 424
#
# _framework density 23.592424999999999
#
# number of rings (size 3 to 8) (size 9 to 14) (size 15 to 20)
#    0.000    1.143    2.857    2.571   13.000    1.143 
#    0.000    0.000    4.714    0.000    0.000    0.000 
#    0.000    0.000    0.000    0.000    0.000    0.000 
#
# Total GULP energy -156008.772833 kJ/mol
# GULP energy per Si atom -5571.741887 kJ/mol
# Density = 2.353873 g / cm^3
# Si number density = 23.592425 Si / 1000 Ang^3
#
#
#
# Elastic Constant Matrix: (Units=GPa)
#
#
# Indices 1 2 3 4 5 6 
#
# 1 121.6684 28.4558 13.9206 0.0000 0.0000 0.0000
# 2 28.4558 133.5053 -0.2953 0.0000 0.0000 0.0000
# 3 13.9206 -0.2953 17.0575 0.0000 0.0000 0.0000
# 4 0.0000 0.0000 0.0000 13.3078 0.0000 0.0000
# 5 0.0000 0.0000 0.0000 0.0000 3.8893 0.0000
# 6 0.0000 0.0000 0.0000 0.0000 0.0000 35.7146
#
#
#
# Elastic Compliance Matrix: (Units=1/GPa)
#
#
# Indices 1 2 3 4 5 6 
#
# 1 0.009603 -0.002064 -0.007872 0.000000 0.000000 0.000000
# 2 -0.002064 0.007934 0.001822 0.000000 0.000000 0.000000
# 3 -0.007872 0.001822 0.065081 0.000000 0.000000 0.000000
# 4 0.000000 0.000000 0.000000 0.075144 0.000000 0.000000
# 5 0.000000 0.000000 0.000000 0.000000 0.257118 0.000000
# 6 0.000000 0.000000 0.000000 0.000000 0.000000 0.028000
#
#
# Mechanical properties :
#
#
# Convention : Reuss Voigt Hill
#
# Bulk Modulus (GPa) = 15.06272 39.59928 27.33100
# Shear Modulus (GPa) = 10.38985 25.92567 18.15776
#
# Velocity S-wave (km/s) = 2.10082 3.31856 2.77725
# Velocity P-wave (km/s) = 3.50471 5.61293 4.67910
#
# Compressibility (1/GPa) = 0.06638906
#
# Stress axis : x y z
#
# Youngs Moduli (GPa) = 104.13932 126.03468 15.36539
#
# Poissons Ratio (x) = 0.26015 0.12096
# Poissons Ratio (y) = 0.21496 -0.02799
# Poissons Ratio (z) = 0.81982 -0.22962
#
# Static dielectric constant tensor:
#      x y z
#    x 2.288930 0.000000 0.000000 
#    y 0.000000 1.962030 0.000000 
#    z 0.000000 0.000000 1.973670 
# 
# From -- ./inp_files/27443.got.cif
#   From: 2010.05.17/outbox.cif.g08.bks.cpg/sg43_14_cif.got.tgz:27443.got - 2010.06.03 19:21:55.
