data_PCOD9370886
_publ_section_title
;
Structure prediction by ZEFSAII (Michael W. Deem and Ramdas Pophale) SiO2 
 PCOD9370886
Probable space group: F D D 2
;
_chemical_formula_sum "Si O2"
_cell_formula_units_Z 112
_cell_length_a 13.384616
_cell_length_b 12.231785
_cell_length_c 27.928890
_cell_angle_alpha 90.000000
_cell_angle_beta 90.000000
_cell_angle_gamma 90.000000
_cell_volume 4572.454897
_symmetry_space_group_name_H-M "F D D 2"
_symmetry_group_IT_number 43
_symmetry_cell_setting 'orthorhombic'
loop_
_space_group_symop_operation_xyz
x,y,z
-x,-y,z
1/4-x,1/4+y,1/4+z
1/4+x,1/4-y,1/4+z
x,1/2+y,1/2+z
-x,1/2-y,1/2+z
1/4-x,3/4+y,3/4+z
1/4+x,3/4-y,3/4+z
1/2+x,y,1/2+z
1/2-x,-y,1/2+z
3/4-x,1/4+y,3/4+z
3/4+x,1/4-y,3/4+z
1/2+x,1/2+y,z
1/2-x,1/2-y,z
3/4-x,3/4+y,1/4+z
3/4+x,3/4-y,1/4+z
loop_
_atom_site_type_symbol
_atom_site_label
_atom_site_fract_x
_atom_site_fract_y
_atom_site_fract_z
Si Si1 0.000000 0.000000 0.724610
Si Si2 0.890530 0.515555 0.547590
Si Si3 0.327152 0.151729 0.399248
Si Si4 0.073751 0.206377 0.667730
Si Si5 0.634966 0.980844 0.818892
Si Si6 0.571477 0.288256 0.263711
Si Si7 0.863730 0.919323 0.809665
Si Si8 0.500000 0.000000 0.395543
O O1 0.982694 0.899156 0.688392
O O2 0.910458 0.983569 0.763595
O O3 0.892727 0.440800 0.595485
O O4 0.878185 0.639929 0.564756
O O5 0.794374 0.497706 0.514440
O O6 0.000000 0.500000 0.525002
O O7 0.250000 0.250000 0.416913
O O8 0.431901 0.097845 0.419888
O O9 0.253490 0.049299 0.401272
O O10 0.142527 0.187736 0.621877
O O11 0.123085 0.261974 0.713781
O O12 0.577488 0.912174 0.779166
O O13 0.749299 0.948451 0.811240
O O14 0.622870 0.209332 0.301563
O O15 0.922143 0.945831 0.858234
#
# Coordination Sequence:
#
# PCOD9370886 Si02
#       8
#     8  16  16  16  16  16  16   8
#     4   9  24  40  66 106 148 180 252 316 378 450
#     4  11  22  45  71 100 140 196 239 301 385 453
#     4  11  21  41  71 101 146 190 249 323 378 454
#     4  11  24  43  71 107 151 192 249 326 371 469
#     4  12  24  44  75 100 146 198 242 298 399 460
#     4  11  26  44  70 107 145 189 246 310 381 460
#     4  10  20  41  71  97 139 185 243 306 363 462
#     4  11  18  36  72 104 124 192 254 292 386 458
#
# _framework density 24.494499999999999
#
# number of rings (size 3 to 8) (size 9 to 14) (size 15 to 20)
#    0.000    1.143    5.714    0.857    6.000    1.143 
#    1.286    7.143    0.000    0.000    0.000    0.000 
#    0.000    0.000    0.000    0.000    0.000    0.000 
#
# Total GULP energy -156213.307677 kJ/mol
# GULP energy per Si atom -5579.046703 kJ/mol
# Density = 2.443875 g / cm^3
# Si number density = 24.494500 Si / 1000 Ang^3
#
#
#
# Elastic Constant Matrix: (Units=GPa)
#
#
# Indices 1 2 3 4 5 6 
#
# 1 120.9080 12.6349 -0.4171 0.0000 0.0000 0.0000
# 2 12.6349 137.5606 43.5294 0.0000 0.0000 0.0000
# 3 -0.4171 43.5294 75.4448 0.0000 0.0000 0.0000
# 4 0.0000 0.0000 0.0000 3.2215 0.0000 0.0000
# 5 0.0000 0.0000 0.0000 0.0000 2.5336 0.0000
# 6 0.0000 0.0000 0.0000 0.0000 0.0000 44.6679
#
#
#
# Elastic Compliance Matrix: (Units=1/GPa)
#
#
# Indices 1 2 3 4 5 6 
#
# 1 0.008373 -0.000959 0.000599 0.000000 0.000000 0.000000
# 2 -0.000959 0.009003 -0.005200 0.000000 0.000000 0.000000
# 3 0.000599 -0.005200 0.016258 0.000000 0.000000 0.000000
# 4 0.000000 0.000000 0.000000 0.310418 0.000000 0.000000
# 5 0.000000 0.000000 0.000000 0.000000 0.394690 0.000000
# 6 0.000000 0.000000 0.000000 0.000000 0.000000 0.022387
#
#
# Mechanical properties :
#
#
# Convention : Reuss Voigt Hill
#
# Bulk Modulus (GPa) = 44.41277 49.48976 46.95126
# Shear Modulus (GPa) = 6.41229 28.62902 17.52065
#
# Velocity S-wave (km/s) = 1.61973 3.42247 2.67739
# Velocity P-wave (km/s) = 4.65501 5.98883 5.36354
#
# Compressibility (1/GPa) = 0.02251605
#
# Stress axis : x y z
#
# Youngs Moduli (GPa) = 119.43139 111.07433 61.50764
#
# Poissons Ratio (x) = 0.10649 -0.03687
# Poissons Ratio (y) = 0.11450 0.31982
# Poissons Ratio (z) = -0.07159 0.57756
#
# Static dielectric constant tensor:
#      x y z
#    x 1.990760 0.000000 0.000000 
#    y 0.000000 1.970610 0.000000 
#    z 0.000000 0.000000 2.010600 
# 
# From -- ./inp_files/29114.got.cif
#   From: 2010.05.17/outbox.cif.g08.bks.cpg/sg43_15_cif.got.tgz:29114.got - 2010.06.03 19:21:55.
