data_PCOD9370878
_publ_section_title
;
Structure prediction by ZEFSAII (Michael W. Deem and Ramdas Pophale) SiO2 
 PCOD9370878
Probable space group: F D D 2
;
_chemical_formula_sum "Si O2"
_cell_formula_units_Z 88
_cell_length_a 24.284798
_cell_length_b 12.135080
_cell_length_c 12.295077
_cell_angle_alpha 90.000000
_cell_angle_beta 90.000000
_cell_angle_gamma 90.000000
_cell_volume 3623.334190
_symmetry_space_group_name_H-M "F D D 2"
_symmetry_group_IT_number 43
_symmetry_cell_setting 'orthorhombic'
loop_
_space_group_symop_operation_xyz
x,y,z
-x,-y,z
1/4-x,1/4+y,1/4+z
1/4+x,1/4-y,1/4+z
x,1/2+y,1/2+z
-x,1/2-y,1/2+z
1/4-x,3/4+y,3/4+z
1/4+x,3/4-y,3/4+z
1/2+x,y,1/2+z
1/2-x,-y,1/2+z
3/4-x,1/4+y,3/4+z
3/4+x,1/4-y,3/4+z
1/2+x,1/2+y,z
1/2-x,1/2-y,z
3/4-x,3/4+y,1/4+z
3/4+x,3/4-y,1/4+z
loop_
_atom_site_type_symbol
_atom_site_label
_atom_site_fract_x
_atom_site_fract_y
_atom_site_fract_z
Si Si1 0.094882 0.421292 0.084310
Si Si2 0.071397 0.733532 0.934406
Si Si3 0.927886 0.647274 0.632945
Si Si4 0.836151 0.281738 0.572007
Si Si5 0.500000 0.000000 0.478135
Si Si6 0.198951 0.586411 0.122052
O O1 0.108854 0.290159 0.081974
O O2 0.066129 0.450214 0.198511
O O3 0.149156 0.498122 0.096982
O O4 0.066462 0.425748 0.965994
O O5 0.116328 0.649916 0.887967
O O6 0.089785 0.849422 0.878308
O O7 0.008263 0.711163 0.905380
O O8 0.076097 0.737357 0.066955
O O9 0.954384 0.623539 0.749038
O O10 0.969022 0.584740 0.552457
O O11 0.795202 0.207710 0.643905
#
# Coordination Sequence:
#
# PCOD9370878 Si02
#       6
#    16  16  16  16   8  16
#     4  10  22  43  71 101 141 178 229 298 356 432
#     4  11  25  42  72 100 138 187 235 298 352 424
#     4  11  25  45  68 102 143 183 245 285 366 424
#     4  10  20  41  68 101 132 177 239 283 358 416
#     4  10  22  40  66  96 128 184 224 294 330 424
#     4  11  25  45  70 103 143 188 231 294 358 429
#
# _framework density 24.287022
#
# number of rings (size 3 to 8) (size 9 to 14) (size 15 to 20)
#    0.000    1.455    0.000    5.455    5.091    2.909 
#    6.545    0.000    0.000    0.000    0.000    0.000 
#    0.000    0.000    0.000    0.000    0.000    0.000 
#
# Total GULP energy -122622.553887 kJ/mol
# GULP energy per Si atom -5573.752449 kJ/mol
# Density = 2.423174 g / cm^3
# Si number density = 24.287022 Si / 1000 Ang^3
#
#
#
# Elastic Constant Matrix: (Units=GPa)
#
#
# Indices 1 2 3 4 5 6 
#
# 1 75.8535 33.6007 43.9660 0.0000 0.0000 0.0000
# 2 33.6007 59.9062 35.8500 0.0000 0.0000 0.0000
# 3 43.9660 35.8500 231.9012 0.0000 0.0000 0.0000
# 4 0.0000 0.0000 0.0000 114.8921 0.0000 0.0000
# 5 0.0000 0.0000 0.0000 0.0000 5.0433 0.0000
# 6 0.0000 0.0000 0.0000 0.0000 0.0000 16.3248
#
#
#
# Elastic Compliance Matrix: (Units=1/GPa)
#
#
# Indices 1 2 3 4 5 6 
#
# 1 0.018415 -0.009080 -0.002088 0.000000 0.000000 0.000000
# 2 -0.009080 0.022871 -0.001814 0.000000 0.000000 0.000000
# 3 -0.002088 -0.001814 0.004988 0.000000 0.000000 0.000000
# 4 0.000000 0.000000 0.000000 0.008704 0.000000 0.000000
# 5 0.000000 0.000000 0.000000 0.000000 0.198283 0.000000
# 6 0.000000 0.000000 0.000000 0.000000 0.000000 0.061256
#
#
# Mechanical properties :
#
#
# Convention : Reuss Voigt Hill
#
# Bulk Modulus (GPa) = 49.23260 66.05492 57.64376
# Shear Modulus (GPa) = 14.39874 44.20165 29.30020
#
# Velocity S-wave (km/s) = 2.43751 4.27074 3.47711
# Velocity P-wave (km/s) = 5.31386 7.18162 6.31715
#
# Compressibility (1/GPa) = 0.02031174
#
# Stress axis : x y z
#
# Youngs Moduli (GPa) = 54.30242 43.72320 200.46246
#
# Poissons Ratio (x) = 0.39699 0.41851
# Poissons Ratio (y) = 0.49304 0.36370
# Poissons Ratio (z) = 0.11337 0.07933
#
# Static dielectric constant tensor:
#      x y z
#    x 2.122180 0.000000 0.000000 
#    y 0.000000 2.077180 0.000000 
#    z 0.000000 0.000000 2.055040 
# 
# From -- ./inp_files/7490.got.cif
#   From: 2010.05.17/outbox.cif.g08.bks.cpg/sg43_4_cif.got.tgz:7490.got - 2010.06.03 19:21:55.
