data_PCOD9370099
_publ_section_title
;
Structure prediction by ZEFSAII (Michael W. Deem and Ramdas Pophale) SiO2 
 PCOD9370099
Probable space group: F D D 2
;
_chemical_formula_sum "Si O2"
_cell_formula_units_Z 128
_cell_length_a 27.055605
_cell_length_b 8.538718
_cell_length_c 24.029406
_cell_angle_alpha 90.000000
_cell_angle_beta 90.000000
_cell_angle_gamma 90.000000
_cell_volume 5551.277733
_symmetry_space_group_name_H-M "F D D 2"
_symmetry_group_IT_number 43
_symmetry_cell_setting 'orthorhombic'
loop_
_space_group_symop_operation_xyz
x,y,z
-x,-y,z
1/4-x,1/4+y,1/4+z
1/4+x,1/4-y,1/4+z
x,1/2+y,1/2+z
-x,1/2-y,1/2+z
1/4-x,3/4+y,3/4+z
1/4+x,3/4-y,3/4+z
1/2+x,y,1/2+z
1/2-x,-y,1/2+z
3/4-x,1/4+y,3/4+z
3/4+x,1/4-y,3/4+z
1/2+x,1/2+y,z
1/2-x,1/2-y,z
3/4-x,3/4+y,1/4+z
3/4+x,3/4-y,1/4+z
loop_
_atom_site_type_symbol
_atom_site_label
_atom_site_fract_x
_atom_site_fract_y
_atom_site_fract_z
Si Si1 0.562098 0.165729 0.856240
Si Si2 0.031735 0.687784 0.095997
Si Si3 0.337505 0.765516 0.811654
Si Si4 0.860087 0.943241 0.215743
Si Si5 0.888723 0.498308 0.044783
Si Si6 0.779386 0.907770 0.731979
Si Si7 0.461562 0.859439 0.658160
Si Si8 0.297061 0.457359 0.611400
O O1 0.603996 0.235348 0.816819
O O2 0.578155 0.237403 0.915531
O O3 0.507742 0.212031 0.836545
O O4 0.563781 0.976506 0.860137
O O5 0.068178 0.836123 0.097473
O O6 0.068352 0.542481 0.089816
O O7 0.995701 0.707396 0.148354
O O8 0.004310 0.699080 0.035554
O O9 0.329096 0.809975 0.748124
O O10 0.309663 0.632738 0.844908
O O11 0.912600 0.876371 0.194735
O O12 0.869255 0.089493 0.258056
O O13 0.839139 0.544427 0.076566
O O14 0.915882 0.618674 0.004354
O O15 0.750000 0.750000 0.712183
O O16 0.788264 0.003959 0.675746
O O17 0.500000 0.000000 0.672467
#
# Coordination Sequence:
#
# PCOD9370099 Si02
#       8
#    16  16  16  16  16  16  16  16
#     4  10  17  26  43  68  97 117 147 180 232 271
#     4   9  17  32  47  66  94 121 155 188 222 272
#     4   9  17  30  45  68  95 121 148 186 229 270
#     4  10  17  29  45  67  92 121 147 187 229 270
#     4  10  19  29  47  71  97 118 150 188 232 275
#     4  10  18  30  49  68  90 125 152 189 232 267
#     4   9  19  30  47  67  92 124 153 187 228 273
#     4  11  17  27  45  69  97 119 144 189 229 272
#
# _framework density 23.057753999999999
#
# number of rings (size 3 to 8) (size 9 to 14) (size 15 to 20)
#    0.000    2.250    5.000    1.500    0.000    1.000 
#    0.000    1.250    0.000    1.500    0.000    2.625 
#    0.000    0.000    0.000    0.000    0.000    0.000 
#
# Total GULP energy -178318.927315 kJ/mol
# GULP energy per Si atom -5572.466479 kJ/mol
# Density = 2.300527 g / cm^3
# Si number density = 23.057754 Si / 1000 Ang^3
#
#
#
# Elastic Constant Matrix: (Units=GPa)
#
#
# Indices 1 2 3 4 5 6 
#
# 1 125.4409 6.8830 21.2839 0.0000 0.0000 0.0000
# 2 6.8830 7.0439 1.6198 0.0000 0.0000 0.0001
# 3 21.2839 1.6198 32.2904 0.0000 0.0000 0.0000
# 4 0.0000 0.0000 0.0000 15.0375 0.0000 0.0000
# 5 0.0000 0.0000 0.0000 0.0000 30.9740 0.0000
# 6 0.0000 0.0001 0.0000 0.0000 0.0000 16.6873
#
#
#
# Elastic Compliance Matrix: (Units=1/GPa)
#
#
# Indices 1 2 3 4 5 6 
#
# 1 0.009385 -0.007838 -0.005793 0.000000 0.000000 0.000000
# 2 -0.007838 0.150169 -0.002367 0.000000 0.000000 -0.000001
# 3 -0.005793 -0.002367 0.034906 0.000000 0.000000 0.000000
# 4 0.000000 0.000000 0.000000 0.066501 0.000000 0.000000
# 5 0.000000 0.000000 0.000000 0.000000 0.032285 0.000000
# 6 0.000000 -0.000001 0.000000 0.000000 0.000000 0.059926
#
#
# Mechanical properties :
#
#
# Convention : Reuss Voigt Hill
#
# Bulk Modulus (GPa) = 6.15518 24.92764 15.54141
# Shear Modulus (GPa) = 11.38118 21.53899 16.46009
#
# Velocity S-wave (km/s) = 2.22411 3.05967 2.67472
# Velocity P-wave (km/s) = 3.04480 4.82872 4.03654
#
# Compressibility (1/GPa) = 0.16246485
#
# Stress axis : x y z
#
# Youngs Moduli (GPa) = 106.55474 6.65915 28.64845
#
# Poissons Ratio (x) = 0.05220 0.16595
# Poissons Ratio (y) = 0.83521 0.06780
# Poissons Ratio (z) = 0.61724 0.01576
#
# Static dielectric constant tensor:
#      x y z
#    x 1.886830 0.000000 0.000000 
#    y 0.000000 1.951640 0.000000 
#    z 0.000000 0.000000 1.900850 
# 
# From -- ./inp_files/21386.got.cif
#   From: 2010.05.17/outbox.cif.g08.bks.cpg/sg43_11_cif.got.tgz:21386.got - 2010.06.03 19:21:55.
