data_PCOD9370980
_publ_section_title
;
Structure prediction by ZEFSAII (Michael W. Deem and Ramdas Pophale) SiO2 
 PCOD9370980
Probable space group: F D D 2
;
_chemical_formula_sum "Si O2"
_cell_formula_units_Z 96
_cell_length_a 16.875693
_cell_length_b 10.027050
_cell_length_c 22.338193
_cell_angle_alpha 90.000000
_cell_angle_beta 90.000000
_cell_angle_gamma 90.000000
_cell_volume 3779.921978
_symmetry_space_group_name_H-M "F D D 2"
_symmetry_group_IT_number 43
_symmetry_cell_setting 'orthorhombic'
loop_
_space_group_symop_operation_xyz
x,y,z
-x,-y,z
1/4-x,1/4+y,1/4+z
1/4+x,1/4-y,1/4+z
x,1/2+y,1/2+z
-x,1/2-y,1/2+z
1/4-x,3/4+y,3/4+z
1/4+x,3/4-y,3/4+z
1/2+x,y,1/2+z
1/2-x,-y,1/2+z
3/4-x,1/4+y,3/4+z
3/4+x,1/4-y,3/4+z
1/2+x,1/2+y,z
1/2-x,1/2-y,z
3/4-x,3/4+y,1/4+z
3/4+x,3/4-y,1/4+z
loop_
_atom_site_type_symbol
_atom_site_label
_atom_site_fract_x
_atom_site_fract_y
_atom_site_fract_z
Si Si1 0.011480 0.840042 0.575000
Si Si2 0.331741 0.496862 0.952092
Si Si3 0.126827 0.319260 0.607061
Si Si4 0.256603 0.515906 0.559898
Si Si5 0.590979 0.946938 0.980949
Si Si6 0.000000 0.000000 0.905920
Si Si7 0.750000 0.750000 0.420258
O O1 0.930330 0.761489 0.562592
O O2 0.930000 0.184694 0.518907
O O3 0.050123 0.795977 0.637125
O O4 0.000000 0.000000 0.583597
O O5 0.423930 0.514594 0.947152
O O6 0.289858 0.638944 0.960360
O O7 0.298963 0.417861 0.008559
O O8 0.208086 0.388809 0.586645
O O9 0.132001 0.215645 0.663184
O O10 0.070454 0.438799 0.630677
O O11 0.339790 0.493385 0.524354
O O12 0.264357 0.621034 0.613773
O O13 0.500000 0.000000 0.975392
#
# Coordination Sequence:
#
# PCOD9370980 Si02
#       7
#    16  16  16  16  16   8   8
#     4  10  23  46  70 107 153 197 253 320 389 464
#     4  11  24  46  77 109 156 201 260 326 389 482
#     4  11  25  48  77 112 157 208 268 322 406 479
#     4  12  26  49  79 112 154 215 254 338 402 478
#     4  11  25  47  71 113 150 196 262 327 395 468
#     4  12  26  51  72 124 154 201 270 318 416 478
#     4  10  20  45  74 104 154 197 260 318 378 490
#
# _framework density 25.397349999999999
#
# number of rings (size 3 to 8) (size 9 to 14) (size 15 to 20)
#    0.000    1.000    6.667    0.000    1.167    6.000 
#    4.500    0.000    0.000    0.000    0.000    0.000 
#    0.000    0.000    0.000    0.000    0.000    0.000 
#
# Total GULP energy -133899.133725 kJ/mol
# GULP energy per Si atom -5579.130572 kJ/mol
# Density = 2.533954 g / cm^3
# Si number density = 25.397350 Si / 1000 Ang^3
#
#
#
# Elastic Constant Matrix: (Units=GPa)
#
#
# Indices 1 2 3 4 5 6 
#
# 1 197.5430 33.2535 34.5879 0.0000 0.0000 0.0000
# 2 33.2535 70.4849 11.0133 0.0000 0.0000 0.0000
# 3 34.5879 11.0133 96.8698 0.0000 0.0000 0.0000
# 4 0.0000 0.0000 0.0000 19.0531 0.0000 0.0000
# 5 0.0000 0.0000 0.0000 0.0000 78.9729 0.0000
# 6 0.0000 0.0000 0.0000 0.0000 0.0000 48.5386
#
#
#
# Elastic Compliance Matrix: (Units=1/GPa)
#
#
# Indices 1 2 3 4 5 6 
#
# 1 0.005788 -0.002451 -0.001788 0.000000 0.000000 0.000000
# 2 -0.002451 0.015482 -0.000885 0.000000 0.000000 0.000000
# 3 -0.001788 -0.000885 0.011062 0.000000 0.000000 0.000000
# 4 0.000000 0.000000 0.000000 0.052485 0.000000 0.000000
# 5 0.000000 0.000000 0.000000 0.000000 0.012663 0.000000
# 6 0.000000 0.000000 0.000000 0.000000 0.000000 0.020602
#
#
# Mechanical properties :
#
#
# Convention : Reuss Voigt Hill
#
# Bulk Modulus (GPa) = 45.28182 58.06747 51.67465
# Shear Modulus (GPa) = 36.84838 48.38247 42.61543
#
# Velocity S-wave (km/s) = 3.81317 4.36939 4.10072
# Velocity P-wave (km/s) = 6.10369 6.95476 6.54308
#
# Compressibility (1/GPa) = 0.02208392
#
# Stress axis : x y z
#
# Youngs Moduli (GPa) = 172.77526 64.59048 90.39852
#
# Poissons Ratio (x) = 0.15833 0.16162
# Poissons Ratio (y) = 0.42351 0.08000
# Poissons Ratio (z) = 0.30891 0.05716
#
# Static dielectric constant tensor:
#      x y z
#    x 2.059860 0.000000 0.000000 
#    y 0.000000 2.238470 0.000000 
#    z 0.000000 0.000000 2.113260 
# 
# From -- ./inp_files/22093.got.cif
#   From: 2010.05.17/outbox.cif.g08.bks.cpg/sg43_12_cif.got.tgz:22093.got - 2010.06.03 19:21:55.
