data_PCOD9370086
_publ_section_title
;
Structure prediction by ZEFSAII (Michael W. Deem and Ramdas Pophale) SiO2 
 PCOD9370086
Probable space group: F D D 2
;
_chemical_formula_sum "Si O2"
_cell_formula_units_Z 120
_cell_length_a 18.251407
_cell_length_b 11.147929
_cell_length_c 26.126973
_cell_angle_alpha 90.000000
_cell_angle_beta 90.000000
_cell_angle_gamma 90.000000
_cell_volume 5315.934735
_symmetry_space_group_name_H-M "F D D 2"
_symmetry_group_IT_number 43
_symmetry_cell_setting 'orthorhombic'
loop_
_space_group_symop_operation_xyz
x,y,z
-x,-y,z
1/4-x,1/4+y,1/4+z
1/4+x,1/4-y,1/4+z
x,1/2+y,1/2+z
-x,1/2-y,1/2+z
1/4-x,3/4+y,3/4+z
1/4+x,3/4-y,3/4+z
1/2+x,y,1/2+z
1/2-x,-y,1/2+z
3/4-x,1/4+y,3/4+z
3/4+x,1/4-y,3/4+z
1/2+x,1/2+y,z
1/2-x,1/2-y,z
3/4-x,3/4+y,1/4+z
3/4+x,3/4-y,1/4+z
loop_
_atom_site_type_symbol
_atom_site_label
_atom_site_fract_x
_atom_site_fract_y
_atom_site_fract_z
Si Si1 0.631356 0.918587 0.079080
Si Si2 0.126501 0.777921 0.486722
Si Si3 0.250000 0.250000 0.762594
Si Si4 0.356263 0.090729 0.885013
Si Si5 0.304272 0.422482 0.920705
Si Si6 0.286422 0.513154 0.212611
Si Si7 0.560370 0.104876 0.742082
Si Si8 0.302964 0.132730 0.608758
O O1 0.555534 0.930355 0.048206
O O2 0.619694 0.840575 0.129705
O O3 0.642075 0.056846 0.097839
O O4 0.667903 0.839419 0.034763
O O5 0.116851 0.878290 0.442118
O O6 0.176630 0.675121 0.463224
O O7 0.042554 0.723484 0.486071
O O8 0.293260 0.150576 0.731249
O O9 0.269750 0.108748 0.890572
O O10 0.371490 0.955048 0.868757
O O11 0.295803 0.547688 0.948702
O O12 0.356957 0.443023 0.233088
O O13 0.288737 0.529876 0.150737
O O14 0.552024 0.156190 0.799788
O O15 0.500000 0.000000 0.738257
O O16 0.250000 0.250000 0.615814
#
# Coordination Sequence:
#
# PCOD9370086 Si02
#       8
#    16  16   8  16  16  16  16  16
#     4  10  19  35  65  94 125 167 219 263 335 383
#     4  10  22  38  67  99 121 169 217 282 328 393
#     4  10  16  34  66 104 112 162 228 276 306 390
#     4  11  20  40  67  98 130 165 216 284 323 396
#     4  11  24  43  61  96 139 170 221 269 332 401
#     4  11  21  40  64  94 129 165 224 271 332 392
#     4  11  27  42  61  92 134 180 215 270 338 401
#     4  11  21  39  64  96 125 163 220 277 327 380
#
# _framework density 22.573640999999999
#
# number of rings (size 3 to 8) (size 9 to 14) (size 15 to 20)
#    0.000    1.333    3.333    3.600    1.867    3.733 
#    0.000    0.000    5.867    0.000    0.000    0.000 
#    0.000    0.000    0.000    0.000    0.000    0.000 
#
# Total GULP energy -167256.348311 kJ/mol
# GULP energy per Si atom -5575.211610 kJ/mol
# Density = 2.252226 g / cm^3
# Si number density = 22.573641 Si / 1000 Ang^3
#
#
#
# Elastic Constant Matrix: (Units=GPa)
#
#
# Indices 1 2 3 4 5 6 
#
# 1 71.4827 0.9909 -12.3590 0.0000 0.0000 0.0000
# 2 0.9909 44.4873 24.3333 0.0000 0.0000 0.0000
# 3 -12.3590 24.3333 109.3204 0.0000 0.0000 0.0000
# 4 0.0000 0.0000 0.0000 36.8255 0.0000 0.0000
# 5 0.0000 0.0000 0.0000 0.0000 26.2565 0.0000
# 6 0.0000 0.0000 0.0000 0.0000 0.0000 23.4664
#
#
#
# Elastic Compliance Matrix: (Units=1/GPa)
#
#
# Indices 1 2 3 4 5 6 
#
# 1 0.014342 -0.001374 0.001927 0.000000 0.000000 0.000000
# 2 -0.001374 0.025726 -0.005882 0.000000 0.000000 0.000000
# 3 0.001927 -0.005882 0.010674 0.000000 0.000000 0.000000
# 4 0.000000 0.000000 0.000000 0.027155 0.000000 0.000000
# 5 0.000000 0.000000 0.000000 0.000000 0.038086 0.000000
# 6 0.000000 0.000000 0.000000 0.000000 0.000000 0.042614
#
#
# Mechanical properties :
#
#
# Convention : Reuss Voigt Hill
#
# Bulk Modulus (GPa) = 24.94630 27.91342 26.42986
# Shear Modulus (GPa) = 27.38001 31.46470 29.42236
#
# Velocity S-wave (km/s) = 3.48648 3.73751 3.61417
# Velocity P-wave (km/s) = 5.22326 5.56935 5.39908
#
# Compressibility (1/GPa) = 0.04008610
#
# Stress axis : x y z
#
# Youngs Moduli (GPa) = 69.72711 38.87122 93.68170
#
# Poissons Ratio (x) = 0.05339 -0.18053
# Poissons Ratio (y) = 0.09577 0.55099
# Poissons Ratio (z) = -0.13437 0.22862
#
# Static dielectric constant tensor:
#      x y z
#    x 2.027460 0.000000 0.000000 
#    y 0.000000 1.926720 0.000000 
#    z 0.000000 0.000000 1.941620 
# 
# From -- ./inp_files/26450.got.cif
#   From: 2010.05.17/outbox.cif.g08.bks.cpg/sg43_14_cif.got.tgz:26450.got - 2010.06.03 19:21:55.
