data_PCOD9370028
_publ_section_title
;
Structure prediction by ZEFSAII (Michael W. Deem and Ramdas Pophale) SiO2 
 PCOD9370028
Probable space group: F M M 2
;
_chemical_formula_sum "Si O2"
_cell_formula_units_Z 26
_cell_length_a 15.000000
_cell_length_b 21.000000
_cell_length_c 18.000000
_cell_angle_alpha 90.000000
_cell_angle_beta 90.000000
_cell_angle_gamma 90.000000
_cell_volume 5670.000000
_symmetry_space_group_name_H-M "F M M 2"
_symmetry_group_IT_number 42
_symmetry_cell_setting 'orthorhombic'
loop_
_space_group_symop_operation_xyz
x,y,z
-x,-y,z
-x,y,z
x,-y,z
x,1/2+y,1/2+z
-x,1/2-y,1/2+z
-x,1/2+y,1/2+z
x,1/2-y,1/2+z
1/2+x,y,1/2+z
1/2-x,-y,1/2+z
1/2-x,y,1/2+z
1/2+x,-y,1/2+z
1/2+x,1/2+y,z
1/2-x,1/2-y,z
1/2-x,1/2+y,z
1/2+x,1/2-y,z
loop_
_atom_site_type_symbol
_atom_site_label
_atom_site_fract_x
_atom_site_fract_y
_atom_site_fract_z
Si Si1 0.714213 0.630100 0.263220
Si Si2 0.250000 0.750000 0.364291
Si Si3 0.396898 0.799783 0.647630
Si Si4 0.394151 0.736405 0.979415
Si Si5 0.894744 0.126077 0.533019
Si Si6 0.397651 0.500000 0.471526
Si Si7 0.604317 0.500000 0.296070
Si Si8 0.398359 0.153835 0.202602
O O1 0.705132 0.691564 0.318160
O O2 0.673171 0.654712 0.185821
O O3 0.660741 0.564781 0.279334
O O4 0.820815 0.625385 0.253056
O O5 0.328475 0.781755 0.413529
O O6 0.500000 0.817463 0.663607
O O7 0.385678 0.798124 0.558854
O O8 0.384553 0.728925 0.682783
O O9 0.500000 0.735462 0.959903
O O10 0.361757 0.807897 0.000385
O O11 0.852130 0.064152 0.498218
O O12 0.890746 0.122831 0.621280
O O13 0.000000 0.127996 0.513128
O O14 0.500000 0.500000 0.502720
O O15 0.404560 0.500000 0.384360
O O16 0.500000 0.500000 0.266783
O O17 0.500000 0.146508 0.229945
#
# Coordination Sequence:
#
# PCOD9370028 Si02
#       8
#    16   8  16  16  16   8   8  16
#     4  12  23  39  58  92 119 165 209 251 310 369
#     4  12  24  32  60  90 122 162 200 254 308 376
#     4   9  18  36  61  84 116 157 200 253 308 358
#     4   9  20  35  53  84 118 152 197 258 310 357
#     4   8  15  29  52  78 108 148 194 239 300 353
#     4   9  16  31  52  75 107 147 186 239 298 361
#     4  11  26  43  59  83 127 165 203 257 311 373
#     4   9  18  33  56  87 118 150 194 251 303 360
#
# _framework density 4.5855379999999997
#
# number of rings (size 3 to 8) (size 9 to 14) (size 15 to 20)
#    0.000    2.308    1.538    3.231    4.308    3.692 
#    0.000    1.154    0.000    0.000    0.000    0.000 
#    0.000    0.000    0.000    0.000    0.000    0.000 
#
# Total GULP energy -144735.222763 kJ/mol
# GULP energy per Si atom -5566.739337 kJ/mol
# Density = 0.457510 g / cm^3
# Si number density = 4.585538 Si / 1000 Ang^3
#
#
#
# Elastic Constant Matrix: (Units=GPa)
#
#
# Indices 1 2 3 4 5 6 
#
# 1 95.5764 38.9539 33.6437 0.0000 0.0000 0.0000
# 2 38.9539 65.1037 33.9441 0.0000 0.0000 0.0000
# 3 33.6437 33.9441 36.4759 0.0000 0.0000 0.0000
# 4 0.0000 0.0000 0.0000 3.8898 0.0000 0.0000
# 5 0.0000 0.0000 0.0000 0.0000 32.7752 0.0000
# 6 0.0000 0.0000 0.0000 0.0000 0.0000 11.9722
#
#
#
# Elastic Compliance Matrix: (Units=1/GPa)
#
#
# Indices 1 2 3 4 5 6 
#
# 1 0.015923 -0.003632 -0.011307 0.000000 0.000000 0.000000
# 2 -0.003632 0.030665 -0.025187 0.000000 0.000000 0.000000
# 3 -0.011307 -0.025187 0.061283 0.000000 0.000000 0.000000
# 4 0.000000 0.000000 0.000000 0.257086 0.000000 0.000000
# 5 0.000000 0.000000 0.000000 0.000000 0.030511 0.000000
# 6 0.000000 0.000000 0.000000 0.000000 0.000000 0.083527
#
#
# Mechanical properties :
#
#
# Convention : Reuss Voigt Hill
#
# Bulk Modulus (GPa) = 36.20570 45.58214 40.89392
# Shear Modulus (GPa) = 8.79581 15.76839 12.28210
#
# Velocity S-wave (km/s) = 2.19222 2.93521 2.59049
# Velocity P-wave (km/s) = 5.11759 6.03260 5.59383
#
# Compressibility (1/GPa) = 0.02761996
#
# Stress axis : x y z
#
# Youngs Moduli (GPa) = 62.80100 32.61009 16.31787
#
# Poissons Ratio (x) = 0.11845 0.18450
# Poissons Ratio (y) = 0.22811 0.41099
# Poissons Ratio (z) = 0.71007 0.82134
#
# Static dielectric constant tensor:
#      x y z
#    x 1.670710 0.000000 0.000000 
#    y 0.000000 1.693490 0.000000 
#    z 0.000000 0.000000 1.651380 
# 
# From -- ./inp_files/20150.got.cif
#   From: 2010.05.17/outbox.ucp.g08.bks.cvg/sg42_11_cif.got.tgz:20150.got - 2010.06.11 16:29:10.
