data_PCOD9370417
_publ_section_title
;
Structure prediction by ZEFSAII (Michael W. Deem and Ramdas Pophale) SiO2 
 PCOD9370417
Probable space group: F D D 2
;
_chemical_formula_sum "Si O2"
_cell_formula_units_Z 88
_cell_length_a 8.090355
_cell_length_b 23.382057
_cell_length_c 24.297419
_cell_angle_alpha 90.000000
_cell_angle_beta 90.000000
_cell_angle_gamma 90.000000
_cell_volume 4596.321899
_symmetry_space_group_name_H-M "F D D 2"
_symmetry_group_IT_number 43
_symmetry_cell_setting 'orthorhombic'
loop_
_space_group_symop_operation_xyz
x,y,z
-x,-y,z
1/4-x,1/4+y,1/4+z
1/4+x,1/4-y,1/4+z
x,1/2+y,1/2+z
-x,1/2-y,1/2+z
1/4-x,3/4+y,3/4+z
1/4+x,3/4-y,3/4+z
1/2+x,y,1/2+z
1/2-x,-y,1/2+z
3/4-x,1/4+y,3/4+z
3/4+x,1/4-y,3/4+z
1/2+x,1/2+y,z
1/2-x,1/2-y,z
3/4-x,3/4+y,1/4+z
3/4+x,3/4-y,1/4+z
loop_
_atom_site_type_symbol
_atom_site_label
_atom_site_fract_x
_atom_site_fract_y
_atom_site_fract_z
Si Si1 0.591007 0.912725 0.994460
Si Si2 0.652772 0.190886 0.469583
Si Si3 0.775113 0.964181 0.455446
Si Si4 0.645436 0.452862 0.838751
Si Si5 0.750000 0.750000 0.282337
Si Si6 0.999618 0.171646 0.852624
O O1 0.713318 0.860956 0.977304
O O2 0.404271 0.915064 0.972732
O O3 0.664468 0.972588 0.972760
O O4 0.595405 0.917732 0.060692
O O5 0.750000 0.250000 0.465322
O O6 0.546472 0.195940 0.525821
O O7 0.549761 0.185927 0.414135
O O8 0.761386 0.966741 0.389777
O O9 0.605160 0.959534 0.490543
O O10 0.500000 0.500000 0.838523
O O11 0.573874 0.391353 0.853840
O O12 0.871583 0.714079 0.322009
#
# Coordination Sequence:
#
# PCOD9370417 Si02
#       6
#    16  16  16  16   8  16
#     4   9  21  39  60  90 111 158 203 252 288 357
#     4  10  22  37  58  85 122 158 192 241 310 361
#     4  10  19  37  65  86 114 148 214 244 295 351
#     4  10  20  36  59  84 114 157 191 243 295 356
#     4  10  22  36  62  90 120 158 196 258 302 360
#     4  10  22  38  60  84 122 154 199 243 303 363
#
# _framework density 19.145744000000001
#
# number of rings (size 3 to 8) (size 9 to 14) (size 15 to 20)
#    0.000    2.182    0.909    1.091   10.182    1.455 
#    0.000    1.818    0.000    0.000    0.000    0.000 
#    0.000    0.000    0.000    0.000    0.000    0.000 
#
# Total GULP energy -122534.021957 kJ/mol
# GULP energy per Si atom -5569.728271 kJ/mol
# Density = 1.910217 g / cm^3
# Si number density = 19.145744 Si / 1000 Ang^3
#
#
#
# Elastic Constant Matrix: (Units=GPa)
#
#
# Indices 1 2 3 4 5 6 
#
# 1 55.7240 0.5457 43.2349 0.0000 0.0000 0.0000
# 2 0.5457 72.5176 24.5829 0.0000 0.0000 0.0000
# 3 43.2349 24.5829 180.6125 0.0000 0.0000 0.0000
# 4 0.0000 0.0000 0.0000 27.6176 0.0000 0.0000
# 5 0.0000 0.0000 0.0000 0.0000 37.6209 0.0000
# 6 0.0000 0.0000 0.0000 0.0000 0.0000 11.1036
#
#
#
# Elastic Compliance Matrix: (Units=1/GPa)
#
#
# Indices 1 2 3 4 5 6 
#
# 1 0.022241 0.001717 -0.005558 0.000000 0.000000 0.000000
# 2 0.001717 0.014589 -0.002397 0.000000 0.000000 0.000000
# 3 -0.005558 -0.002397 0.007193 0.000000 0.000000 0.000000
# 4 0.000000 0.000000 0.000000 0.036209 0.000000 0.000000
# 5 0.000000 0.000000 0.000000 0.000000 0.026581 0.000000
# 6 0.000000 0.000000 0.000000 0.000000 0.000000 0.090061
#
#
# Mechanical properties :
#
#
# Convention : Reuss Voigt Hill
#
# Bulk Modulus (GPa) = 31.69765 49.50902 40.60334
# Shear Modulus (GPa) = 22.74114 31.30110 27.02112
#
# Velocity S-wave (km/s) = 3.45017 4.04776 3.76085
# Velocity P-wave (km/s) = 5.69768 6.91093 6.33342
#
# Compressibility (1/GPa) = 0.03154808
#
# Stress axis : x y z
#
# Youngs Moduli (GPa) = 44.96238 68.54342 139.01815
#
# Poissons Ratio (x) = -0.11766 0.77261
# Poissons Ratio (y) = -0.07718 0.33318
# Poissons Ratio (z) = 0.24988 0.16427
#
# Static dielectric constant tensor:
#      x y z
#    x 1.737280 0.000000 0.000000 
#    y 0.000000 1.651830 0.000000 
#    z 0.000000 0.000000 1.725780 
# 
# From -- ./inp_files/16379.got.cif
#   From: 2010.05.17/outbox.cif.g08.bks.cpg/sg43_9_cif.got.tgz:16379.got - 2010.06.03 19:21:55.
