data_PCOD9370264
_publ_section_title
;
Structure prediction by ZEFSAII (Michael W. Deem and Ramdas Pophale) SiO2 
 PCOD9370264
Probable space group: F D D 2
;
_chemical_formula_sum "Si O2"
_cell_formula_units_Z 88
_cell_length_a 25.330393
_cell_length_b 12.307837
_cell_length_c 11.643308
_cell_angle_alpha 90.000000
_cell_angle_beta 90.000000
_cell_angle_gamma 90.000000
_cell_volume 3629.945043
_symmetry_space_group_name_H-M "F D D 2"
_symmetry_group_IT_number 43
_symmetry_cell_setting 'orthorhombic'
loop_
_space_group_symop_operation_xyz
x,y,z
-x,-y,z
1/4-x,1/4+y,1/4+z
1/4+x,1/4-y,1/4+z
x,1/2+y,1/2+z
-x,1/2-y,1/2+z
1/4-x,3/4+y,3/4+z
1/4+x,3/4-y,3/4+z
1/2+x,y,1/2+z
1/2-x,-y,1/2+z
3/4-x,1/4+y,3/4+z
3/4+x,1/4-y,3/4+z
1/2+x,1/2+y,z
1/2-x,1/2-y,z
3/4-x,3/4+y,1/4+z
3/4+x,3/4-y,1/4+z
loop_
_atom_site_type_symbol
_atom_site_label
_atom_site_fract_x
_atom_site_fract_y
_atom_site_fract_z
Si Si1 0.096784 0.575293 0.420550
Si Si2 0.876435 0.266600 0.075887
Si Si3 0.818649 0.938446 0.726221
Si Si4 0.172283 0.458361 0.580150
Si Si5 0.000000 0.000000 0.028924
Si Si6 0.760556 0.477948 0.907931
O O1 0.129985 0.560898 0.307620
O O2 0.071104 0.693102 0.421266
O O3 0.136792 0.552780 0.525238
O O4 0.050178 0.492206 0.446461
O O5 0.832528 0.343012 0.136171
O O6 0.847566 0.157718 0.033836
O O7 0.926682 0.245158 0.159026
O O8 0.907709 0.306366 0.962886
O O9 0.769495 0.940512 0.816881
O O10 0.230428 0.479714 0.530194
O O11 0.999898 0.107640 0.106035
#
# Coordination Sequence:
#
# PCOD9370264 Si02
#       6
#    16  16  16  16   8  16
#     4  10  20  41  64  93 131 176 225 292 344 425
#     4  12  24  45  71 105 144 191 233 308 369 425
#     4  10  23  42  63  99 143 172 230 293 352 430
#     4  11  24  43  71  99 140 183 250 292 359 448
#     4  10  18  38  70  96 116 184 238 286 338 428
#     4  10  24  43  68 105 140 184 243 292 369 427
#
# _framework density 24.242792999999999
#
# number of rings (size 3 to 8) (size 9 to 14) (size 15 to 20)
#    0.000    1.455    1.818    4.364    0.000    4.364 
#    3.273    3.636    0.000    0.000    0.000    0.000 
#    0.000    0.000    0.000    0.000    0.000    0.000 
#
# Total GULP energy -122912.291668 kJ/mol
# GULP energy per Si atom -5586.922349 kJ/mol
# Density = 2.418761 g / cm^3
# Si number density = 24.242793 Si / 1000 Ang^3
#
#
#
# Elastic Constant Matrix: (Units=GPa)
#
#
# Indices 1 2 3 4 5 6 
#
# 1 119.7674 27.4633 10.8870 0.0000 0.0000 0.0000
# 2 27.4633 79.6224 24.9621 0.0000 0.0000 0.0000
# 3 10.8870 24.9621 92.5060 0.0000 0.0000 0.0000
# 4 0.0000 0.0000 0.0000 14.6774 0.0000 0.0000
# 5 0.0000 0.0000 0.0000 0.0000 24.9450 0.0000
# 6 0.0000 0.0000 0.0000 0.0000 0.0000 31.4902
#
#
#
# Elastic Compliance Matrix: (Units=1/GPa)
#
#
# Indices 1 2 3 4 5 6 
#
# 1 0.009072 -0.003053 -0.000244 0.000000 0.000000 0.000000
# 2 -0.003053 0.014747 -0.003620 0.000000 0.000000 0.000000
# 3 -0.000244 -0.003620 0.011816 0.000000 0.000000 0.000000
# 4 0.000000 0.000000 0.000000 0.068132 0.000000 0.000000
# 5 0.000000 0.000000 0.000000 0.000000 0.040088 0.000000
# 6 0.000000 0.000000 0.000000 0.000000 0.000000 0.031756
#
#
# Mechanical properties :
#
#
# Convention : Reuss Voigt Hill
#
# Bulk Modulus (GPa) = 45.86900 46.50231 46.18565
# Shear Modulus (GPa) = 25.41803 29.46141 27.43972
#
# Velocity S-wave (km/s) = 3.24153 3.48985 3.36798
# Velocity P-wave (km/s) = 5.74211 5.95502 5.84953
#
# Compressibility (1/GPa) = 0.02180122
#
# Stress axis : x y z
#
# Youngs Moduli (GPa) = 110.23350 67.80999 84.63320
#
# Poissons Ratio (x) = 0.20699 0.02065
# Poissons Ratio (y) = 0.33649 0.30638
# Poissons Ratio (z) = 0.02689 0.24548
#
# Static dielectric constant tensor:
#      x y z
#    x 1.944430 0.000000 0.000000 
#    y 0.000000 1.920770 0.000000 
#    z 0.000000 0.000000 2.031340 
# 
# From -- ./inp_files/6216.got.cif
#   From: 2010.05.17/outbox.cif.g08.bks.cpg/sg43_4_cif.got.tgz:6216.got - 2010.06.03 19:21:55.
