data_PCOD9370166
_publ_section_title
;
Structure prediction by ZEFSAII (Michael W. Deem and Ramdas Pophale) SiO2 
 PCOD9370166
Probable space group: F D D 2
;
_chemical_formula_sum "Si O2"
_cell_formula_units_Z 104
_cell_length_a 15.147839
_cell_length_b 16.428228
_cell_length_c 22.343834
_cell_angle_alpha 90.000000
_cell_angle_beta 90.000000
_cell_angle_gamma 90.000000
_cell_volume 5560.311193
_symmetry_space_group_name_H-M "F D D 2"
_symmetry_group_IT_number 43
_symmetry_cell_setting 'orthorhombic'
loop_
_space_group_symop_operation_xyz
x,y,z
-x,-y,z
1/4-x,1/4+y,1/4+z
1/4+x,1/4-y,1/4+z
x,1/2+y,1/2+z
-x,1/2-y,1/2+z
1/4-x,3/4+y,3/4+z
1/4+x,3/4-y,3/4+z
1/2+x,y,1/2+z
1/2-x,-y,1/2+z
3/4-x,1/4+y,3/4+z
3/4+x,1/4-y,3/4+z
1/2+x,1/2+y,z
1/2-x,1/2-y,z
3/4-x,3/4+y,1/4+z
3/4+x,3/4-y,1/4+z
loop_
_atom_site_type_symbol
_atom_site_label
_atom_site_fract_x
_atom_site_fract_y
_atom_site_fract_z
Si Si1 0.026731 0.913874 0.934810
Si Si2 0.360298 0.479134 0.325567
Si Si3 0.213795 0.902747 0.000376
Si Si4 0.593150 0.154152 0.967114
Si Si5 0.500000 0.000000 0.923200
Si Si6 0.527857 0.591705 0.071443
Si Si7 0.452642 0.224401 0.358605
O O1 0.989125 0.837784 0.897137
O O2 0.131433 0.914846 0.954788
O O3 0.000000 0.000000 0.907308
O O4 0.981848 0.908433 0.000123
O O5 0.430685 0.423100 0.290168
O O6 0.327422 0.544086 0.277224
O O7 0.414353 0.515374 0.380961
O O8 0.282983 0.415793 0.342649
O O9 0.225525 0.976172 0.048487
O O10 0.306608 0.878535 0.971900
O O11 0.580202 0.210634 0.908482
O O12 0.526879 0.078905 0.960487
O O13 0.500000 0.500000 0.091366
O O14 0.628288 0.591058 0.089874
#
# Coordination Sequence:
#
# PCOD9370166 Si02
#       7
#    16  16  16  16   8  16  16
#     4  10  21  35  53  88 117 144 184 235 286 337
#     4  11  20  36  55  90 118 136 193 248 275 358
#     4  11  21  34  59  87 118 140 197 244 281 351
#     4  12  23  35  57  88 114 158 185 235 303 336
#     4  12  24  38  56  84 120 152 196 240 296 334
#     4  10  18  33  54  91 118 133 184 230 292 341
#     4  12  21  35  65  86 118 151 178 247 297 331
#
# _framework density 18.703989
#
# number of rings (size 3 to 8) (size 9 to 14) (size 15 to 20)
#    0.000    0.923   10.769    0.000    4.308    0.000 
#    0.000    1.538    0.000    0.000    0.000    0.000 
#    0.000    0.000    0.000    0.000    0.000    0.000 
#
# Total GULP energy -144857.763135 kJ/mol
# GULP energy per Si atom -5571.452428 kJ/mol
# Density = 1.866142 g / cm^3
# Si number density = 18.703989 Si / 1000 Ang^3
#
#
#
# Elastic Constant Matrix: (Units=GPa)
#
#
# Indices 1 2 3 4 5 6 
#
# 1 39.0347 33.0073 4.4142 0.0000 0.0000 0.0000
# 2 33.0073 122.7487 46.3459 0.0000 0.0000 0.0000
# 3 4.4142 46.3459 46.4547 0.0000 0.0000 0.0000
# 4 0.0000 0.0000 0.0000 34.1089 0.0000 0.0000
# 5 0.0000 0.0000 0.0000 0.0000 9.8363 0.0000
# 6 0.0000 0.0000 0.0000 0.0000 0.0000 32.0687
#
#
#
# Elastic Compliance Matrix: (Units=1/GPa)
#
#
# Indices 1 2 3 4 5 6 
#
# 1 0.035814 -0.013389 0.009954 0.000000 0.000000 0.000000
# 2 -0.013389 0.018075 -0.016761 0.000000 0.000000 0.000000
# 3 0.009954 -0.016761 0.037302 0.000000 0.000000 0.000000
# 4 0.000000 0.000000 0.000000 0.029318 0.000000 0.000000
# 5 0.000000 0.000000 0.000000 0.000000 0.101664 0.000000
# 6 0.000000 0.000000 0.000000 0.000000 0.000000 0.031183
#
#
# Mechanical properties :
#
#
# Convention : Reuss Voigt Hill
#
# Bulk Modulus (GPa) = 19.68467 41.75254 30.71861
# Shear Modulus (GPa) = 16.09371 23.50083 19.79727
#
# Velocity S-wave (km/s) = 2.93651 3.54850 3.25692
# Velocity P-wave (km/s) = 4.69517 6.25783 5.53196
#
# Compressibility (1/GPa) = 0.05080095
#
# Stress axis : x y z
#
# Youngs Moduli (GPa) = 27.92193 55.32393 26.80822
#
# Poissons Ratio (x) = 0.74073 -0.26686
# Poissons Ratio (y) = 0.37385 0.44933
# Poissons Ratio (z) = -0.27795 0.92727
#
# Static dielectric constant tensor:
#      x y z
#    x 1.717930 0.000000 0.000000 
#    y 0.000000 1.712580 0.000000 
#    z 0.000000 0.000000 1.707680 
# 
# From -- ./inp_files/22119.got.cif
#   From: 2010.05.17/outbox.cif.g08.bks.cpg/sg43_12_cif.got.tgz:22119.got - 2010.06.03 19:21:55.
