data_PCOD9370931
_publ_section_title
;
Structure prediction by ZEFSAII (Michael W. Deem and Ramdas Pophale) SiO2 
 PCOD9370931
Probable space group: F D D 2
;
_chemical_formula_sum "Si O2"
_cell_formula_units_Z 72
_cell_length_a 13.059252
_cell_length_b 7.107898
_cell_length_c 33.514898
_cell_angle_alpha 90.000000
_cell_angle_beta 90.000000
_cell_angle_gamma 90.000000
_cell_volume 3110.981234
_symmetry_space_group_name_H-M "F D D 2"
_symmetry_group_IT_number 43
_symmetry_cell_setting 'orthorhombic'
loop_
_space_group_symop_operation_xyz
x,y,z
-x,-y,z
1/4-x,1/4+y,1/4+z
1/4+x,1/4-y,1/4+z
x,1/2+y,1/2+z
-x,1/2-y,1/2+z
1/4-x,3/4+y,3/4+z
1/4+x,3/4-y,3/4+z
1/2+x,y,1/2+z
1/2-x,-y,1/2+z
3/4-x,1/4+y,3/4+z
3/4+x,1/4-y,3/4+z
1/2+x,1/2+y,z
1/2-x,1/2-y,z
3/4-x,3/4+y,1/4+z
3/4+x,3/4-y,1/4+z
loop_
_atom_site_type_symbol
_atom_site_label
_atom_site_fract_x
_atom_site_fract_y
_atom_site_fract_z
Si Si1 0.000000 0.000000 0.176940
Si Si2 0.968124 0.718443 0.108318
Si Si3 0.197460 0.071321 0.224936
Si Si4 0.138189 0.326037 0.027046
Si Si5 0.139634 0.760250 0.050975
O O1 0.035687 0.174709 0.149706
O O2 0.106961 0.964198 0.201020
O O3 0.882773 0.735664 0.073514
O O4 0.000000 0.500000 0.113734
O O5 0.063534 0.808665 0.085404
O O6 0.250000 0.250000 0.203234
O O7 0.295918 0.973311 0.246252
O O8 0.132087 0.143984 0.263604
O O9 0.250000 0.250000 0.014892
O O10 0.129478 0.551716 0.032302
O O11 0.250000 0.750000 0.068952
#
# Coordination Sequence:
#
# PCOD9370931 Si02
#       5
#     8  16  16  16  16
#     4  12  26  46  70 102 158 190 236 300 380 436
#     4   9  23  45  68 105 135 185 242 295 364 426
#     4  11  24  44  66 103 141 186 234 294 364 433
#     4  10  22  41  79 104 132 183 249 302 354 429
#     4  10  20  42  72 103 130 174 243 298 351 425
#
# _framework density 23.143825
#
# number of rings (size 3 to 8) (size 9 to 14) (size 15 to 20)
#    0.000    1.778    1.111    3.333    9.333    0.889 
#   12.000    0.000    0.000    0.000    0.000    0.000 
#    0.000    0.000    0.000    0.000    0.000    0.000 
#
# Total GULP energy -100208.829438 kJ/mol
# GULP energy per Si atom -5567.157191 kJ/mol
# Density = 2.309115 g / cm^3
# Si number density = 23.143825 Si / 1000 Ang^3
#
#
#
# Elastic Constant Matrix: (Units=GPa)
#
#
# Indices 1 2 3 4 5 6 
#
# 1 171.3109 30.4548 37.7520 0.0000 0.0000 0.0000
# 2 30.4548 78.6460 22.3941 0.0000 0.0000 0.0000
# 3 37.7520 22.3941 91.8029 0.0000 0.0000 0.0000
# 4 0.0000 0.0000 0.0000 25.6900 0.0000 0.0000
# 5 0.0000 0.0000 0.0000 0.0000 2.4648 0.0000
# 6 0.0000 0.0000 0.0000 0.0000 0.0000 33.5703
#
#
#
# Elastic Compliance Matrix: (Units=1/GPa)
#
#
# Indices 1 2 3 4 5 6 
#
# 1 0.006684 -0.001940 -0.002275 0.000000 0.000000 0.000000
# 2 -0.001940 0.014228 -0.002673 0.000000 0.000000 0.000000
# 3 -0.002275 -0.002673 0.012481 0.000000 0.000000 0.000000
# 4 0.000000 0.000000 0.000000 0.038926 0.000000 0.000000
# 5 0.000000 0.000000 0.000000 0.000000 0.405708 0.000000
# 6 0.000000 0.000000 0.000000 0.000000 0.000000 0.029788
#
#
# Mechanical properties :
#
#
# Convention : Reuss Voigt Hill
#
# Bulk Modulus (GPa) = 50.98059 58.10682 54.54371
# Shear Modulus (GPa) = 9.46739 29.08895 19.27817
#
# Velocity S-wave (km/s) = 2.02474 3.54909 2.88926
# Velocity P-wave (km/s) = 5.24801 6.47735 5.89482
#
# Compressibility (1/GPa) = 0.01961531
#
# Stress axis : x y z
#
# Youngs Moduli (GPa) = 149.61841 70.28579 80.12496
#
# Poissons Ratio (x) = 0.13638 0.18230
# Poissons Ratio (y) = 0.29031 0.21415
# Poissons Ratio (z) = 0.34041 0.18785
#
# Static dielectric constant tensor:
#      x y z
#    x 1.944170 0.000000 0.000000 
#    y 0.000000 2.017410 0.000000 
#    z 0.000000 0.000000 1.867390 
# 
# From -- ./inp_files/28977.got.cif
#   From: 2010.05.17/outbox.cif.g08.bks.cpg/sg43_15_cif.got.tgz:28977.got - 2010.06.03 19:21:55.
