data_PCOD9370242
_publ_section_title
;
Structure prediction by ZEFSAII (Michael W. Deem and Ramdas Pophale) SiO2 
 PCOD9370242
Probable space group: F D D 2
;
_chemical_formula_sum "Si O2"
_cell_formula_units_Z 96
_cell_length_a 16.993016
_cell_length_b 9.275824
_cell_length_c 25.185751
_cell_angle_alpha 90.000000
_cell_angle_beta 90.000000
_cell_angle_gamma 90.000000
_cell_volume 3969.884499
_symmetry_space_group_name_H-M "F D D 2"
_symmetry_group_IT_number 43
_symmetry_cell_setting 'orthorhombic'
loop_
_space_group_symop_operation_xyz
x,y,z
-x,-y,z
1/4-x,1/4+y,1/4+z
1/4+x,1/4-y,1/4+z
x,1/2+y,1/2+z
-x,1/2-y,1/2+z
1/4-x,3/4+y,3/4+z
1/4+x,3/4-y,3/4+z
1/2+x,y,1/2+z
1/2-x,-y,1/2+z
3/4-x,1/4+y,3/4+z
3/4+x,1/4-y,3/4+z
1/2+x,1/2+y,z
1/2-x,1/2-y,z
3/4-x,3/4+y,1/4+z
3/4+x,3/4-y,1/4+z
loop_
_atom_site_type_symbol
_atom_site_label
_atom_site_fract_x
_atom_site_fract_y
_atom_site_fract_z
Si Si1 0.686775 0.610809 0.581960
Si Si2 0.635950 0.680240 0.914515
Si Si3 0.186894 0.948717 0.842957
Si Si4 0.135667 0.397384 0.002408
Si Si5 0.750000 0.750000 0.209925
Si Si6 0.750000 0.250000 0.178120
Si Si7 0.397289 0.599903 0.056619
O O1 0.613865 0.538896 0.614317
O O2 0.697108 0.498165 0.533934
O O3 0.743542 0.625083 0.633506
O O4 0.663894 0.768189 0.558663
O O5 0.677834 0.534600 0.897169
O O6 0.665591 0.773286 0.963382
O O7 0.548613 0.617804 0.927639
O O8 0.276611 0.904032 0.838350
O O9 0.132360 0.807768 0.832369
O O10 0.164810 0.057434 0.795351
O O11 0.075885 0.491618 0.965788
O O12 0.816025 0.820268 0.248499
#
# Coordination Sequence:
#
# PCOD9370242 Si02
#       7
#    16  16  16  16   8   8  16
#     4  10  23  36  65  96 132 163 224 274 321 399
#     4  10  20  37  62  98 120 169 228 255 335 394
#     4   9  19  35  63  90 128 163 212 273 319 392
#     4  10  18  37  61  95 127 169 220 266 320 401
#     4  10  20  38  70  89 117 178 216 254 328 400
#     4  10  22  38  66  93 127 178 216 262 342 376
#     4  10  19  39  60  95 128 161 207 275 328 372
#
# _framework density 24.182062999999999
#
# number of rings (size 3 to 8) (size 9 to 14) (size 15 to 20)
#    0.000    2.333    3.333    1.000    2.333    4.667 
#    3.000    0.000   11.000    6.000    0.000    0.000 
#    0.000    0.000    0.000    0.000    0.000    0.000 
#
# Total GULP energy -133661.489784 kJ/mol
# GULP energy per Si atom -5569.228741 kJ/mol
# Density = 2.412702 g / cm^3
# Si number density = 24.182063 Si / 1000 Ang^3
#
#
#
# Elastic Constant Matrix: (Units=GPa)
#
#
# Indices 1 2 3 4 5 6 
#
# 1 46.8184 33.6973 18.5344 0.0000 0.0000 0.0000
# 2 33.6973 157.6305 71.6503 0.0000 0.0000 0.0000
# 3 18.5344 71.6503 106.6743 0.0000 0.0000 0.0000
# 4 0.0000 0.0000 0.0000 60.6823 0.0000 0.0000
# 5 0.0000 0.0000 0.0000 0.0000 19.1597 0.0000
# 6 0.0000 0.0000 0.0000 0.0000 0.0000 34.3903
#
#
#
# Elastic Compliance Matrix: (Units=1/GPa)
#
#
# Indices 1 2 3 4 5 6 
#
# 1 0.025332 -0.004915 -0.001100 0.000000 0.000000 0.000000
# 2 -0.004915 0.010086 -0.005920 0.000000 0.000000 0.000000
# 3 -0.001100 -0.005920 0.013542 0.000000 0.000000 0.000000
# 4 0.000000 0.000000 0.000000 0.016479 0.000000 0.000000
# 5 0.000000 0.000000 0.000000 0.000000 0.052193 0.000000
# 6 0.000000 0.000000 0.000000 0.000000 0.000000 0.029078
#
#
# Mechanical properties :
#
#
# Convention : Reuss Voigt Hill
#
# Bulk Modulus (GPa) = 39.85831 62.09860 50.97845
# Shear Modulus (GPa) = 27.94161 35.32919 31.63540
#
# Velocity S-wave (km/s) = 3.40291 3.82641 3.62085
# Velocity P-wave (km/s) = 5.65315 6.72735 6.21350
#
# Compressibility (1/GPa) = 0.02508887
#
# Stress axis : x y z
#
# Youngs Moduli (GPa) = 39.47509 99.14927 73.84466
#
# Poissons Ratio (x) = 0.48737 0.08122
# Poissons Ratio (y) = 0.19404 0.43718
# Poissons Ratio (z) = 0.04342 0.58699
#
# Static dielectric constant tensor:
#      x y z
#    x 2.075410 0.000000 0.000000 
#    y 0.000000 1.973940 0.000000 
#    z 0.000000 0.000000 1.927650 
# 
# From -- ./inp_files/22605.got.cif
#   From: 2010.05.17/outbox.cif.g08.bks.cpg/sg43_12_cif.got.tgz:22605.got - 2010.06.03 19:21:55.
