data_PCOD9370338
_publ_section_title
;
Structure prediction by ZEFSAII (Michael W. Deem and Ramdas Pophale) SiO2 
 PCOD9370338
Probable space group: F D D 2
;
_chemical_formula_sum "Si O2"
_cell_formula_units_Z 112
_cell_length_a 23.163220
_cell_length_b 15.607721
_cell_length_c 12.411145
_cell_angle_alpha 90.000000
_cell_angle_beta 90.000000
_cell_angle_gamma 90.000000
_cell_volume 4486.940130
_symmetry_space_group_name_H-M "F D D 2"
_symmetry_group_IT_number 43
_symmetry_cell_setting 'orthorhombic'
loop_
_space_group_symop_operation_xyz
x,y,z
-x,-y,z
1/4-x,1/4+y,1/4+z
1/4+x,1/4-y,1/4+z
x,1/2+y,1/2+z
-x,1/2-y,1/2+z
1/4-x,3/4+y,3/4+z
1/4+x,3/4-y,3/4+z
1/2+x,y,1/2+z
1/2-x,-y,1/2+z
3/4-x,1/4+y,3/4+z
3/4+x,1/4-y,3/4+z
1/2+x,1/2+y,z
1/2-x,1/2-y,z
3/4-x,3/4+y,1/4+z
3/4+x,3/4-y,1/4+z
loop_
_atom_site_type_symbol
_atom_site_label
_atom_site_fract_x
_atom_site_fract_y
_atom_site_fract_z
Si Si1 0.250000 0.250000 0.843580
Si Si2 0.740268 0.569956 0.878425
Si Si3 0.865243 0.016101 0.371216
Si Si4 0.124876 0.288660 0.855029
Si Si5 0.365243 0.483899 0.133586
Si Si6 0.500000 0.500000 0.911220
Si Si7 0.259732 0.569956 0.626377
Si Si8 0.874876 0.538660 0.399773
O O1 0.252593 0.348172 0.800446
O O2 0.185605 0.250585 0.892306
O O3 0.795703 0.509835 0.864401
O O4 0.680021 0.520285 0.873123
O O5 0.750000 0.601983 0.002401
O O6 0.880232 0.115037 0.397031
O O7 0.881912 0.960178 0.474116
O O8 0.890010 0.000000 0.252401
O O9 0.069979 0.229716 0.881679
O O10 0.295704 0.490165 0.140400
O O11 0.380232 0.384962 0.107772
O O12 0.381912 0.539822 0.030686
O O13 0.502594 0.598172 0.954355
O O14 0.435605 0.500585 0.862494
#
# Coordination Sequence:
#
# PCOD9370338 Si02
#       8
#     8  16  16  16  16   8  16  16
#     4  10  19  34  57  86 116 150 190 240 301 358
#     4   9  19  35  56  81 112 149 192 243 297 354
#     4  10  21  38  58  81 115 156 198 246 298 355
#     4  10  21  36  57  86 116 153 199 245 298 359
#     4  10  21  38  58  81 115 156 198 246 298 355
#     4  10  19  34  57  86 116 150 190 240 301 358
#     4   9  19  35  56  81 112 149 192 243 297 354
#     4  10  21  36  57  86 116 153 199 245 298 359
#
# _framework density 24.961331000000001
#
# number of rings (size 3 to 8) (size 9 to 14) (size 15 to 20)
#    0.000    2.286    0.000    2.143    0.000    4.571 
#    0.000    9.286    0.000    0.000    0.000    0.000 
#    0.000    0.000    0.000    0.000    0.000    0.000 
#
# Total GULP energy -156075.922867 kJ/mol
# GULP energy per Si atom -5574.140102 kJ/mol
# Density = 2.490452 g / cm^3
# Si number density = 24.961331 Si / 1000 Ang^3
#
#
#
# Elastic Constant Matrix: (Units=GPa)
#
#
# Indices 1 2 3 4 5 6 
#
# 1 199.1240 50.2577 8.7694 0.0000 0.0000 0.0000
# 2 50.2577 65.7139 -14.4949 0.0000 0.0000 0.0000
# 3 8.7694 -14.4949 119.1470 0.0000 0.0000 0.0000
# 4 0.0000 0.0000 0.0000 17.8704 0.0000 0.0000
# 5 0.0000 0.0000 0.0000 0.0000 2.9084 0.0000
# 6 0.0000 0.0000 0.0000 0.0000 0.0000 39.3413
#
#
#
# Elastic Compliance Matrix: (Units=1/GPa)
#
#
# Indices 1 2 3 4 5 6 
#
# 1 0.006358 -0.005103 -0.001089 0.000000 0.000000 0.000000
# 2 -0.005103 0.019732 0.002776 0.000000 0.000000 0.000000
# 3 -0.001089 0.002776 0.008811 0.000000 0.000000 0.000000
# 4 0.000000 0.000000 0.000000 0.055958 0.000000 0.000000
# 5 0.000000 0.000000 0.000000 0.000000 0.343830 0.000000
# 6 0.000000 0.000000 0.000000 0.000000 0.000000 0.025419
#
#
# Mechanical properties :
#
#
# Convention : Reuss Voigt Hill
#
# Bulk Modulus (GPa) = 35.62453 52.56105 44.09279
# Shear Modulus (GPa) = 10.49770 34.65422 22.57596
#
# Velocity S-wave (km/s) = 2.05298 3.73005 3.01065
# Velocity P-wave (km/s) = 4.46346 6.29712 5.45785
#
# Compressibility (1/GPa) = 0.02807054
#
# Stress axis : x y z
#
# Youngs Moduli (GPa) = 157.28722 50.67852 113.49648
#
# Poissons Ratio (x) = 0.25859 0.12356
# Poissons Ratio (y) = 0.80257 -0.31508
# Poissons Ratio (z) = 0.17124 -0.14069
#
# Static dielectric constant tensor:
#      x y z
#    x 1.917010 0.000000 0.000000 
#    y 0.000000 2.006300 0.000000 
#    z 0.000000 0.000000 2.181660 
# 
# From -- ./inp_files/10228.got.cif
#   From: 2010.05.17/outbox.cif.g08.bks.cpg/sg43_6_cif.got.tgz:10228.got - 2010.06.03 19:21:55.
