data_PCOD9370045
_publ_section_title
;
Structure prediction by ZEFSAII (Michael W. Deem and Ramdas Pophale) SiO2 
 PCOD9370045
Probable space group: F D D 2
;
_chemical_formula_sum "Si O2"
_cell_formula_units_Z 80
_cell_length_a 26.587169
_cell_length_b 14.589925
_cell_length_c 7.625314
_cell_angle_alpha 90.000000
_cell_angle_beta 90.000000
_cell_angle_gamma 90.000000
_cell_volume 2957.895915
_symmetry_space_group_name_H-M "F D D 2"
_symmetry_group_IT_number 43
_symmetry_cell_setting 'orthorhombic'
loop_
_space_group_symop_operation_xyz
x,y,z
-x,-y,z
1/4-x,1/4+y,1/4+z
1/4+x,1/4-y,1/4+z
x,1/2+y,1/2+z
-x,1/2-y,1/2+z
1/4-x,3/4+y,3/4+z
1/4+x,3/4-y,3/4+z
1/2+x,y,1/2+z
1/2-x,-y,1/2+z
3/4-x,1/4+y,3/4+z
3/4+x,1/4-y,3/4+z
1/2+x,1/2+y,z
1/2-x,1/2-y,z
3/4-x,3/4+y,1/4+z
3/4+x,3/4-y,1/4+z
loop_
_atom_site_type_symbol
_atom_site_label
_atom_site_fract_x
_atom_site_fract_y
_atom_site_fract_z
Si Si1 0.650696 0.899922 0.315340
Si Si2 0.299610 0.811839 0.098859
Si Si3 0.877027 0.199028 0.271087
Si Si4 0.211083 0.333352 0.041383
Si Si5 0.198687 0.067774 0.967602
O O1 0.594154 0.866520 0.332060
O O2 0.645076 0.970852 0.150657
O O3 0.669073 0.341820 0.390307
O O4 0.680435 0.963197 0.449412
O O5 0.250000 0.750000 0.074566
O O6 0.325232 0.887281 0.974494
O O7 0.345731 0.739947 0.112565
O O8 0.297737 0.873168 0.282202
O O9 0.816278 0.179330 0.726958
O O10 0.250000 0.250000 0.011635
O O11 0.246879 0.421414 0.048773
#
# Coordination Sequence:
#
# PCOD9370045 Si02
#       5
#    16  16  16  16  16
#     4  10  18  29  46  78 105 133 169 226 251 310
#     4  10  16  26  43  70 103 123 157 215 249 290
#     4  10  16  26  42  73 102 124 165 212 247 297
#     4  12  17  28  50  81 104 134 169 217 264 302
#     4  10  17  28  46  76 107 130 173 212 266 301
#
# _framework density 27.046254000000001
#
# number of rings (size 3 to 8) (size 9 to 14) (size 15 to 20)
#    0.000    1.600   12.000    0.000    0.000    0.000 
#    0.000    0.000    0.000    0.000   31.200    2.800 
#    0.000    0.000    0.000    0.000    0.000    0.000 
#
# Total GULP energy -111671.777890 kJ/mol
# GULP energy per Si atom -5583.588895 kJ/mol
# Density = 2.698470 g / cm^3
# Si number density = 27.046254 Si / 1000 Ang^3
#
#
#
# Elastic Constant Matrix: (Units=GPa)
#
#
# Indices 1 2 3 4 5 6 
#
# 1 142.7115 21.3712 13.3209 0.0000 0.0000 0.0000
# 2 21.3712 58.6590 -0.5646 0.0000 0.0000 0.0000
# 3 13.3209 -0.5646 64.7515 0.0000 0.0000 0.0000
# 4 0.0000 0.0000 0.0000 17.4370 0.0000 0.0000
# 5 0.0000 0.0000 0.0000 0.0000 19.8420 0.0000
# 6 0.0000 0.0000 0.0000 0.0000 0.0000 44.4369
#
#
#
# Elastic Compliance Matrix: (Units=1/GPa)
#
#
# Indices 1 2 3 4 5 6 
#
# 1 0.007570 -0.002773 -0.001582 0.000000 0.000000 0.000000
# 2 -0.002773 0.018065 0.000728 0.000000 0.000000 0.000000
# 3 -0.001582 0.000728 0.015775 0.000000 0.000000 0.000000
# 4 0.000000 0.000000 0.000000 0.057349 0.000000 0.000000
# 5 0.000000 0.000000 0.000000 0.000000 0.050398 0.000000
# 6 0.000000 0.000000 0.000000 0.000000 0.000000 0.022504
#
#
# Mechanical properties :
#
#
# Convention : Reuss Voigt Hill
#
# Bulk Modulus (GPa) = 29.27652 37.15299 33.21476
# Shear Modulus (GPa) = 26.27421 31.80949 29.04185
#
# Velocity S-wave (km/s) = 3.12020 3.43317 3.28042
# Velocity P-wave (km/s) = 4.88149 5.42975 5.16291
#
# Compressibility (1/GPa) = 0.03415706
#
# Stress axis : x y z
#
# Youngs Moduli (GPa) = 132.09947 55.35549 63.39004
#
# Poissons Ratio (x) = 0.15351 0.10025
# Poissons Ratio (y) = 0.36634 -0.04615
# Poissons Ratio (z) = 0.20892 -0.04030
#
# Static dielectric constant tensor:
#      x y z
#    x 2.121960 0.000000 0.000000 
#    y 0.000000 2.295690 0.000000 
#    z 0.000000 0.000000 2.236280 
# 
# From -- ./inp_files/11222.got.cif
#   From: 2010.05.17/outbox.cif.g08.bks.cpg/sg43_6_cif.got.tgz:11222.got - 2010.06.03 19:21:55.
