data_PCOD9370994
_publ_section_title
;
Structure prediction by ZEFSAII (Michael W. Deem and Ramdas Pophale) SiO2 
 PCOD9370994
Probable space group: F D D 2
;
_chemical_formula_sum "Si O2"
_cell_formula_units_Z 80
_cell_length_a 12.219622
_cell_length_b 16.017350
_cell_length_c 14.597293
_cell_angle_alpha 90.000000
_cell_angle_beta 90.000000
_cell_angle_gamma 90.000000
_cell_volume 2857.069221
_symmetry_space_group_name_H-M "F D D 2"
_symmetry_group_IT_number 43
_symmetry_cell_setting 'orthorhombic'
loop_
_space_group_symop_operation_xyz
x,y,z
-x,-y,z
1/4-x,1/4+y,1/4+z
1/4+x,1/4-y,1/4+z
x,1/2+y,1/2+z
-x,1/2-y,1/2+z
1/4-x,3/4+y,3/4+z
1/4+x,3/4-y,3/4+z
1/2+x,y,1/2+z
1/2-x,-y,1/2+z
3/4-x,1/4+y,3/4+z
3/4+x,1/4-y,3/4+z
1/2+x,1/2+y,z
1/2-x,1/2-y,z
3/4-x,3/4+y,1/4+z
3/4+x,3/4-y,1/4+z
loop_
_atom_site_type_symbol
_atom_site_label
_atom_site_fract_x
_atom_site_fract_y
_atom_site_fract_z
Si Si1 0.930771 0.100104 0.606440
Si Si2 0.832217 0.046821 0.797278
Si Si3 0.658883 0.154030 0.162439
Si Si4 0.145448 0.669505 0.961105
Si Si5 0.383392 0.147801 0.450303
O O1 0.867507 0.066265 0.693634
O O2 0.921928 0.200091 0.579292
O O3 0.888293 0.057135 0.512605
O O4 0.058022 0.091904 0.638075
O O5 0.715073 0.096994 0.785615
O O6 0.916780 0.090270 0.865988
O O7 0.783368 0.124263 0.181337
O O8 0.651486 0.202622 0.067536
O O9 0.258117 0.617808 0.965318
O O10 0.135317 0.758773 0.911858
#
# Coordination Sequence:
#
# PCOD9370994 Si02
#       5
#    16  16  16  16  16
#     4  11  26  47  78 113 155 209 269 336 404 496
#     4  12  26  49  75 114 159 208 268 330 412 492
#     4  10  20  47  74 106 148 199 266 324 396 485
#     4  10  22  43  75 110 148 202 263 323 408 477
#     4  11  24  45  73 108 156 202 258 330 401 487
#
# _framework density 28.000723000000001
#
# number of rings (size 3 to 8) (size 9 to 14) (size 15 to 20)
#    0.000    1.200    4.000    2.400    0.000    8.000 
#    3.600    4.000    0.000    0.000    0.000    0.000 
#    0.000    0.000    0.000    0.000    0.000    0.000 
#
# Total GULP energy -111369.877473 kJ/mol
# GULP energy per Si atom -5568.493874 kJ/mol
# Density = 2.793699 g / cm^3
# Si number density = 28.000723 Si / 1000 Ang^3
#
#
#
# Elastic Constant Matrix: (Units=GPa)
#
#
# Indices 1 2 3 4 5 6 
#
# 1 141.1638 18.4277 29.2082 0.0000 0.0000 0.0000
# 2 18.4277 102.2708 48.9255 0.0000 0.0000 0.0000
# 3 29.2082 48.9255 166.2376 0.0000 0.0000 0.0000
# 4 0.0000 0.0000 0.0000 30.5591 0.0000 0.0000
# 5 0.0000 0.0000 0.0000 0.0000 37.2654 0.0000
# 6 0.0000 0.0000 0.0000 0.0000 0.0000 17.2373
#
#
#
# Elastic Compliance Matrix: (Units=1/GPa)
#
#
# Indices 1 2 3 4 5 6 
#
# 1 0.007411 -0.000829 -0.001058 0.000000 0.000000 0.000000
# 2 -0.000829 0.011473 -0.003231 0.000000 0.000000 0.000000
# 3 -0.001058 -0.003231 0.007152 0.000000 0.000000 0.000000
# 4 0.000000 0.000000 0.000000 0.032723 0.000000 0.000000
# 5 0.000000 0.000000 0.000000 0.000000 0.026835 0.000000
# 6 0.000000 0.000000 0.000000 0.000000 0.000000 0.058014
#
#
# Mechanical properties :
#
#
# Convention : Reuss Voigt Hill
#
# Bulk Modulus (GPa) = 63.29120 66.97724 65.13422
# Shear Modulus (GPa) = 31.42450 37.88640 34.65545
#
# Velocity S-wave (km/s) = 3.35367 3.68237 3.52186
# Velocity P-wave (km/s) = 6.13585 6.48472 6.31269
#
# Compressibility (1/GPa) = 0.01579998
#
# Stress axis : x y z
#
# Youngs Moduli (GPa) = 134.93186 87.16093 139.81516
#
# Poissons Ratio (x) = 0.07227 0.14794
# Poissons Ratio (y) = 0.11188 0.45174
# Poissons Ratio (z) = 0.14277 0.28161
#
# Static dielectric constant tensor:
#      x y z
#    x 2.374480 0.000000 0.000000 
#    y 0.000000 2.196480 0.000000 
#    z 0.000000 0.000000 2.266870 
# 
# From -- ./inp_files/9631.got.cif
#   From: 2010.05.17/outbox.cif.g08.bks.cpg/sg43_5_cif.got.tgz:9631.got - 2010.06.03 19:21:55.
