data_PCOD9370754
_publ_section_title
;
Structure prediction by ZEFSAII (Michael W. Deem and Ramdas Pophale) SiO2 
 PCOD9370754
Probable space group: F D D 2
;
_chemical_formula_sum "Si O2"
_cell_formula_units_Z 88
_cell_length_a 31.739155
_cell_length_b 9.444859
_cell_length_c 10.556078
_cell_angle_alpha 90.000000
_cell_angle_beta 90.000000
_cell_angle_gamma 90.000000
_cell_volume 3164.414965
_symmetry_space_group_name_H-M "F D D 2"
_symmetry_group_IT_number 43
_symmetry_cell_setting 'orthorhombic'
loop_
_space_group_symop_operation_xyz
x,y,z
-x,-y,z
1/4-x,1/4+y,1/4+z
1/4+x,1/4-y,1/4+z
x,1/2+y,1/2+z
-x,1/2-y,1/2+z
1/4-x,3/4+y,3/4+z
1/4+x,3/4-y,3/4+z
1/2+x,y,1/2+z
1/2-x,-y,1/2+z
3/4-x,1/4+y,3/4+z
3/4+x,1/4-y,3/4+z
1/2+x,1/2+y,z
1/2-x,1/2-y,z
3/4-x,3/4+y,1/4+z
3/4+x,3/4-y,1/4+z
loop_
_atom_site_type_symbol
_atom_site_label
_atom_site_fract_x
_atom_site_fract_y
_atom_site_fract_z
Si Si1 0.830003 0.454667 0.777540
Si Si2 0.242426 0.956094 0.836920
Si Si3 0.163231 0.772153 0.435014
Si Si4 0.923275 0.898539 0.283454
Si Si5 0.572736 0.829694 0.939602
Si Si6 0.500000 0.500000 0.732812
O O1 0.786349 0.378516 0.811103
O O2 0.840384 0.562576 0.894772
O O3 0.873860 0.376518 0.750562
O O4 0.820082 0.554400 0.658129
O O5 0.219404 0.989837 0.704443
O O6 0.254870 0.107964 0.898272
O O7 0.207499 0.894591 0.930733
O O8 0.114420 0.735261 0.454934
O O9 0.175744 0.681986 0.311909
O O10 0.201311 0.741037 0.532608
O O11 0.928172 0.063468 0.322063
#
# Coordination Sequence:
#
# PCOD9370754 Si02
#       6
#    16  16  16  16  16   8
#     4   9  20  41  59  97 132 170 233 282 347 418
#     4  10  20  39  66  94 134 176 230 285 341 426
#     4   8  15  31  55  79 120 156 211 271 315 404
#     4  10  21  40  67  96 139 182 227 297 347 420
#     4   9  18  34  57  91 121 171 224 265 346 412
#     4   8  16  32  56  82 112 164 208 260 326 386
#
# _framework density 27.809246999999999
#
# number of rings (size 3 to 8) (size 9 to 14) (size 15 to 20)
#    0.000    2.909    0.000    1.091    0.000    2.909 
#   19.636    0.000    4.000    0.000    0.000    0.000 
#    0.000    0.000    0.000    0.000    0.000    0.000 
#
# Total GULP energy -123036.221914 kJ/mol
# GULP energy per Si atom -5592.555542 kJ/mol
# Density = 2.774595 g / cm^3
# Si number density = 27.809247 Si / 1000 Ang^3
#
#
#
# Elastic Constant Matrix: (Units=GPa)
#
#
# Indices 1 2 3 4 5 6 
#
# 1 400.9347 56.7923 -17.5450 0.0000 0.0000 0.0000
# 2 56.7923 96.1122 22.9749 0.0000 0.0000 0.0000
# 3 -17.5450 22.9749 118.7116 0.0000 0.0000 0.0000
# 4 0.0000 0.0000 0.0000 43.7699 0.0000 0.0000
# 5 0.0000 0.0000 0.0000 0.0000 38.8800 0.0000
# 6 0.0000 0.0000 0.0000 0.0000 0.0000 40.6432
#
#
#
# Elastic Compliance Matrix: (Units=1/GPa)
#
#
# Indices 1 2 3 4 5 6 
#
# 1 0.002787 -0.001830 0.000766 0.000000 0.000000 0.000000
# 2 -0.001830 0.012111 -0.002614 0.000000 0.000000 0.000000
# 3 0.000766 -0.002614 0.009043 0.000000 0.000000 0.000000
# 4 0.000000 0.000000 0.000000 0.022847 0.000000 0.000000
# 5 0.000000 0.000000 0.000000 0.000000 0.025720 0.000000
# 6 0.000000 0.000000 0.000000 0.000000 0.000000 0.024604
#
#
# Mechanical properties :
#
#
# Convention : Reuss Voigt Hill
#
# Bulk Modulus (GPa) = 60.29813 82.24478 71.27145
# Shear Modulus (GPa) = 45.45611 61.56104 53.50857
#
# Velocity S-wave (km/s) = 4.04737 4.71009 4.39125
# Velocity P-wave (km/s) = 6.60086 7.69537 7.16904
#
# Compressibility (1/GPa) = 0.01658426
#
# Stress axis : x y z
#
# Youngs Moduli (GPa) = 358.82215 82.57162 110.58332
#
# Poissons Ratio (x) = 0.15110 -0.08471
# Poissons Ratio (y) = 0.65660 0.28910
# Poissons Ratio (z) = -0.27487 0.21587
#
# Static dielectric constant tensor:
#      x y z
#    x 2.241030 0.000000 0.000000 
#    y 0.000000 2.198830 0.000000 
#    z 0.000000 0.000000 2.158590 
# 
# From -- ./inp_files/11640.got.cif
#   From: 2010.05.17/outbox.cif.g08.bks.cpg/sg43_6_cif.got.tgz:11640.got - 2010.06.03 19:21:55.
