data_PCOD9370978
_publ_section_title
;
Structure prediction by ZEFSAII (Michael W. Deem and Ramdas Pophale) SiO2 
 PCOD9370978
Probable space group: F D D 2
;
_chemical_formula_sum "Si O2"
_cell_formula_units_Z 88
_cell_length_a 10.754201
_cell_length_b 12.724500
_cell_length_c 26.254934
_cell_angle_alpha 90.000000
_cell_angle_beta 90.000000
_cell_angle_gamma 90.000000
_cell_volume 3592.773231
_symmetry_space_group_name_H-M "F D D 2"
_symmetry_group_IT_number 43
_symmetry_cell_setting 'orthorhombic'
loop_
_space_group_symop_operation_xyz
x,y,z
-x,-y,z
1/4-x,1/4+y,1/4+z
1/4+x,1/4-y,1/4+z
x,1/2+y,1/2+z
-x,1/2-y,1/2+z
1/4-x,3/4+y,3/4+z
1/4+x,3/4-y,3/4+z
1/2+x,y,1/2+z
1/2-x,-y,1/2+z
3/4-x,1/4+y,3/4+z
3/4+x,1/4-y,3/4+z
1/2+x,1/2+y,z
1/2-x,1/2-y,z
3/4-x,3/4+y,1/4+z
3/4+x,3/4-y,1/4+z
loop_
_atom_site_type_symbol
_atom_site_label
_atom_site_fract_x
_atom_site_fract_y
_atom_site_fract_z
Si Si1 0.500000 0.500000 0.625000
Si Si2 0.995143 0.262805 0.927670
Si Si3 0.775161 0.526841 0.856249
Si Si4 0.250000 0.250000 0.089270
Si Si5 0.750000 0.750000 0.684646
Si Si6 0.396079 0.914722 0.760475
Si Si7 0.397497 0.223492 0.315293
O O1 0.383850 0.513874 0.661641
O O2 0.470292 0.398961 0.591856
O O3 0.990192 0.378549 0.954310
O O4 0.943852 0.171045 0.962904
O O5 0.923244 0.260182 0.873481
O O6 0.630305 0.510501 0.869093
O O7 0.874727 0.508699 0.900339
O O8 0.820642 0.457795 0.809339
O O9 0.286516 0.359066 0.059861
O O10 0.455917 0.804472 0.775222
O O11 0.500000 0.000000 0.748839
O O12 0.250000 0.250000 0.306605
#
# Coordination Sequence:
#
# PCOD9370978 Si02
#       7
#     8  16  16   8   8  16  16
#     4  10  22  42  70 104 148 194 244 312 370 464
#     4  11  23  43  72 108 144 195 254 308 382 460
#     4  11  21  41  74 102 144 198 245 305 389 444
#     4  12  24  41  76 108 136 208 248 302 401 464
#     4  10  20  45  70 102 152 192 244 318 371 460
#     4  12  25  44  72 105 143 197 252 316 379 460
#     4  12  24  49  72 106 152 197 247 319 392 462
#
# _framework density 24.493614999999998
#
# number of rings (size 3 to 8) (size 9 to 14) (size 15 to 20)
#    0.000    0.727    6.364    1.636    0.000    1.455 
#    1.636    1.818    0.000    0.000    0.000    0.000 
#    0.000    0.000    0.000    0.000    0.000    0.000 
#
# Total GULP energy -122753.278938 kJ/mol
# GULP energy per Si atom -5579.694497 kJ/mol
# Density = 2.443787 g / cm^3
# Si number density = 24.493615 Si / 1000 Ang^3
#
#
#
# Elastic Constant Matrix: (Units=GPa)
#
#
# Indices 1 2 3 4 5 6 
#
# 1 140.1775 -2.5932 -2.7951 0.0000 0.0000 0.0000
# 2 -2.5932 199.6012 25.0739 0.0000 0.0000 0.0000
# 3 -2.7951 25.0739 47.2891 0.0000 0.0000 0.0000
# 4 0.0000 0.0000 0.0000 7.2054 0.0000 0.0000
# 5 0.0000 0.0000 0.0000 0.0000 -1.6389 0.0000
# 6 0.0000 0.0000 0.0000 0.0000 0.0000 -39.0384
#
#
#
# Elastic Compliance Matrix: (Units=1/GPa)
#
#
# Indices 1 2 3 4 5 6 
#
# 1 0.007143 0.000043 0.000400 0.000000 0.000000 0.000000
# 2 0.000043 0.005368 -0.002844 0.000000 0.000000 0.000000
# 3 0.000400 -0.002844 0.022678 0.000000 0.000000 0.000000
# 4 0.000000 0.000000 0.000000 0.138784 0.000000 0.000000
# 5 0.000000 0.000000 0.000000 0.000000 -0.610158 0.000000
# 6 0.000000 0.000000 0.000000 0.000000 0.000000 -0.025616
#
#
# Mechanical properties :
#
#
# Convention : Reuss Voigt Hill
#
# Bulk Modulus (GPa) = 32.91059 47.38210 40.14634
# Shear Modulus (GPa) = -11.18892 17.79778 3.30443
#
# Velocity S-wave (km/s) = -2.13963 2.69853 1.16277
# Velocity P-wave (km/s) = 2.71322 5.39408 4.26952
#
# Compressibility (1/GPa) = 0.03038536
#
# Stress axis : x y z
#
# Youngs Moduli (GPa) = 140.00563 186.29754 44.09586
#
# Poissons Ratio (x) = -0.00794 -0.01762
# Poissons Ratio (y) = -0.00596 0.12539
# Poissons Ratio (z) = -0.05594 0.52976
#
# Static dielectric constant tensor:
#      x y z
#    x 2.072960 0.000000 0.000000 
#    y 0.000000 2.096960 0.000000 
#    z 0.000000 0.000000 1.858360 
# 
# From -- ./inp_files/28477.got.cif
#   From: 2010.05.17/outbox.cif.g08.bks.cpg/sg43_15_cif.got.tgz:28477.got - 2010.06.03 19:21:55.
