data_PCOD9370083
_publ_section_title
;
Structure prediction by ZEFSAII (Michael W. Deem and Ramdas Pophale) SiO2 
 PCOD9370083
Probable space group: F D D 2
;
_chemical_formula_sum "Si O2"
_cell_formula_units_Z 120
_cell_length_a 24.777824
_cell_length_b 9.338426
_cell_length_c 22.117555
_cell_angle_alpha 90.000000
_cell_angle_beta 90.000000
_cell_angle_gamma 90.000000
_cell_volume 5117.689836
_symmetry_space_group_name_H-M "F D D 2"
_symmetry_group_IT_number 43
_symmetry_cell_setting 'orthorhombic'
loop_
_space_group_symop_operation_xyz
x,y,z
-x,-y,z
1/4-x,1/4+y,1/4+z
1/4+x,1/4-y,1/4+z
x,1/2+y,1/2+z
-x,1/2-y,1/2+z
1/4-x,3/4+y,3/4+z
1/4+x,3/4-y,3/4+z
1/2+x,y,1/2+z
1/2-x,-y,1/2+z
3/4-x,1/4+y,3/4+z
3/4+x,1/4-y,3/4+z
1/2+x,1/2+y,z
1/2-x,1/2-y,z
3/4-x,3/4+y,1/4+z
3/4+x,3/4-y,1/4+z
loop_
_atom_site_type_symbol
_atom_site_label
_atom_site_fract_x
_atom_site_fract_y
_atom_site_fract_z
Si Si1 0.846955 0.871235 0.876260
Si Si2 0.403383 0.010204 0.641807
Si Si3 0.477526 0.152486 0.229270
Si Si4 0.500000 0.000000 0.542233
Si Si5 0.503920 0.835131 0.029401
Si Si6 0.144443 0.925839 0.355776
Si Si7 0.298348 0.836976 0.012842
Si Si8 0.693139 0.690127 0.111173
O O1 0.817420 0.949030 0.931448
O O2 0.807527 0.895238 0.819601
O O3 0.855679 0.710112 0.898636
O O4 0.904922 0.923674 0.856620
O O5 0.446281 0.991225 0.586049
O O6 0.385229 0.174538 0.636761
O O7 0.434884 0.997593 0.704218
O O8 0.348256 0.919324 0.642751
O O9 0.524996 0.265052 0.237914
O O10 0.454073 0.126549 0.295666
O O11 0.500000 0.000000 0.207171
O O12 0.502255 0.161157 0.509191
O O13 0.452526 0.829559 0.073749
O O14 0.500000 0.000000 0.998142
O O15 0.099198 0.899981 0.305546
O O16 0.250000 0.750000 0.044581
O O17 0.750000 0.750000 0.135357
#
# Coordination Sequence:
#
# PCOD9370083 Si02
#       8
#    16  16  16   8  16  16  16  16
#     4  11  20  40  64  91 130 172 219 275 330 404
#     4  11  21  39  63  92 128 168 221 274 332 400
#     4  11  22  40  67  97 121 170 231 271 324 408
#     4  10  16  34  62  92 114 166 220 278 322 386
#     4   9  18  33  58  90 124 162 213 274 336 393
#     4  10  22  35  61  97 127 157 210 286 334 383
#     4  12  23  40  66  96 126 171 224 274 325 409
#     4  11  24  40  62  93 135 172 214 274 347 406
#
# _framework density 23.448079
#
# number of rings (size 3 to 8) (size 9 to 14) (size 15 to 20)
#    0.000    1.333    2.000    6.800    0.000    0.000 
#    0.000    1.333    7.333    8.800    0.000    0.000 
#    0.000    0.000    0.000    0.000    0.000    0.000 
#
# Total GULP energy -167232.574573 kJ/mol
# GULP energy per Si atom -5574.419152 kJ/mol
# Density = 2.339471 g / cm^3
# Si number density = 23.448079 Si / 1000 Ang^3
#
#
#
# Elastic Constant Matrix: (Units=GPa)
#
#
# Indices 1 2 3 4 5 6 
#
# 1 169.1608 36.7569 11.9166 0.0000 0.0000 0.0000
# 2 36.7569 145.0452 -1.4807 0.0000 0.0000 0.0000
# 3 11.9166 -1.4807 29.0278 0.0000 0.0000 0.0000
# 4 0.0000 0.0000 0.0000 13.6347 0.0000 0.0000
# 5 0.0000 0.0000 0.0000 0.0000 0.0067 0.0000
# 6 0.0000 0.0000 0.0000 0.0000 0.0000 54.5277
#
#
#
# Elastic Compliance Matrix: (Units=1/GPa)
#
#
# Indices 1 2 3 4 5 6 
#
# 1 0.006467 -0.001667 -0.002740 0.000000 0.000000 0.000000
# 2 -0.001667 0.007328 0.001058 0.000000 -0.000003 0.000000
# 3 -0.002740 0.001058 0.035628 0.000000 -0.000003 0.000000
# 4 0.000000 0.000000 0.000000 0.073342 -0.000001 0.000000
# 5 0.000000 -0.000003 -0.000003 -0.000001148.272013 0.000002
# 6 0.000000 0.000000 0.000000 0.000000 0.000002 0.018339
#
#
# Mechanical properties :
#
#
# Convention : Reuss Voigt Hill
#
# Bulk Modulus (GPa) = 23.40507 48.62436 36.01472
# Shear Modulus (GPa) = 0.03368 33.36991 16.70180
#
# Velocity S-wave (km/s) = 0.11999 3.77655 2.67177
# Velocity P-wave (km/s) = 3.16584 6.30860 4.99104
#
# Compressibility (1/GPa) = 0.04272578
#
# Stress axis : x y z
#
# Youngs Moduli (GPa) = 154.63835 136.47060 28.06747
#
# Poissons Ratio (x) = 0.22746 0.07690
# Poissons Ratio (y) = 0.25774 -0.02970
# Poissons Ratio (z) = 0.42367 -0.14439
#
# Static dielectric constant tensor:
#      x y z
#    x 1.879180 0.000000 0.000000 
#    y 0.000000 2.034830 0.000000 
#    z 0.000000 0.000000 1.829120 
# 
# From -- ./inp_files/22828.got.cif
#   From: 2010.05.17/outbox.cif.g08.bks.cpg/sg43_12_cif.got.tgz:22828.got - 2010.06.03 19:21:55.
