data_PCOD9370267
_publ_section_title
;
Structure prediction by ZEFSAII (Michael W. Deem and Ramdas Pophale) SiO2 
 PCOD9370267
Probable space group: F D D 2
;
_chemical_formula_sum "Si O2"
_cell_formula_units_Z 112
_cell_length_a 10.435770
_cell_length_b 16.543682
_cell_length_c 31.680727
_cell_angle_alpha 90.000000
_cell_angle_beta 90.000000
_cell_angle_gamma 90.000000
_cell_volume 5469.552704
_symmetry_space_group_name_H-M "F D D 2"
_symmetry_group_IT_number 43
_symmetry_cell_setting 'orthorhombic'
loop_
_space_group_symop_operation_xyz
x,y,z
-x,-y,z
1/4-x,1/4+y,1/4+z
1/4+x,1/4-y,1/4+z
x,1/2+y,1/2+z
-x,1/2-y,1/2+z
1/4-x,3/4+y,3/4+z
1/4+x,3/4-y,3/4+z
1/2+x,y,1/2+z
1/2-x,-y,1/2+z
3/4-x,1/4+y,3/4+z
3/4+x,1/4-y,3/4+z
1/2+x,1/2+y,z
1/2-x,1/2-y,z
3/4-x,3/4+y,1/4+z
3/4+x,3/4-y,1/4+z
loop_
_atom_site_type_symbol
_atom_site_label
_atom_site_fract_x
_atom_site_fract_y
_atom_site_fract_z
Si Si1 0.915616 0.654610 0.668760
Si Si2 0.750000 0.750000 0.888335
Si Si3 0.573117 0.583845 0.098050
Si Si4 0.500000 0.500000 0.348696
Si Si5 0.358448 0.535673 0.482068
Si Si6 0.799291 0.954085 0.705427
Si Si7 0.993325 0.756442 0.048004
Si Si8 0.390685 0.847891 0.325093
O O1 0.818740 0.689058 0.632149
O O2 0.964560 0.723851 0.701253
O O3 0.833855 0.586352 0.691997
O O4 0.030125 0.614530 0.643685
O O5 0.873953 0.745545 0.917979
O O6 0.724926 0.677288 0.855852
O O7 0.500000 0.500000 0.088875
O O8 0.533145 0.654359 0.065357
O O9 0.725053 0.580631 0.096778
O O10 0.381187 0.521611 0.317440
O O11 0.500000 0.500000 0.475331
O O12 0.358388 0.627326 0.466182
O O13 0.346680 0.544258 0.532284
O O14 0.770497 0.003844 0.747564
O O15 0.888726 0.690517 0.063397
#
# Coordination Sequence:
#
# PCOD9370267 Si02
#       8
#    16   8  16   8  16  16  16  16
#     4  10  19  41  69  94 125 166 219 283 331 390
#     4  12  24  35  66  98 130 168 224 271 332 396
#     4  11  25  44  64  94 141 181 222 285 346 406
#     4  10  18  39  70 100 120 164 226 271 334 404
#     4   9  18  38  66  94 122 162 215 278 330 387
#     4  10  21  38  62  96 133 162 219 278 326 397
#     4  10  24  42  68  95 130 180 221 277 343 410
#     4  11  23  42  67  98 134 178 224 277 343 417
#
# _framework density 20.476994999999999
#
# number of rings (size 3 to 8) (size 9 to 14) (size 15 to 20)
#    0.000    1.714    2.857    2.143    6.000    1.143 
#    3.857    0.000    0.000    0.000    0.000    0.000 
#    0.000    0.000    0.000    0.000    0.000    0.000 
#
# Total GULP energy -156025.769339 kJ/mol
# GULP energy per Si atom -5572.348905 kJ/mol
# Density = 2.043039 g / cm^3
# Si number density = 20.476995 Si / 1000 Ang^3
#
#
#
# Elastic Constant Matrix: (Units=GPa)
#
#
# Indices 1 2 3 4 5 6 
#
# 1 58.8343 18.5217 29.1953 0.0000 0.0000 0.0000
# 2 18.5217 92.8547 60.5920 0.0000 0.0000 0.0000
# 3 29.1953 60.5920 150.1448 0.0000 0.0000 0.0000
# 4 0.0000 0.0000 0.0000 20.3961 0.0000 0.0000
# 5 0.0000 0.0000 0.0000 0.0000 29.6501 0.0000
# 6 0.0000 0.0000 0.0000 0.0000 0.0000 15.1237
#
#
#
# Elastic Compliance Matrix: (Units=1/GPa)
#
#
# Indices 1 2 3 4 5 6 
#
# 1 0.019050 -0.001877 -0.002947 0.000000 0.000000 0.000000
# 2 -0.001877 0.014804 -0.005609 0.000000 0.000000 0.000000
# 3 -0.002947 -0.005609 0.009497 0.000000 0.000000 0.000000
# 4 0.000000 0.000000 0.000000 0.049029 0.000000 0.000000
# 5 0.000000 0.000000 0.000000 0.000000 0.033727 0.000000
# 6 0.000000 0.000000 0.000000 0.000000 0.000000 0.066122
#
#
# Mechanical properties :
#
#
# Convention : Reuss Voigt Hill
#
# Bulk Modulus (GPa) = 44.47413 57.60575 51.03994
# Shear Modulus (GPa) = 22.66651 25.93565 24.30108
#
# Velocity S-wave (km/s) = 3.33066 3.56276 3.44866
# Velocity P-wave (km/s) = 6.04626 6.71694 6.39041
#
# Compressibility (1/GPa) = 0.02248498
#
# Stress axis : x y z
#
# Youngs Moduli (GPa) = 52.49322 67.54794 105.29711
#
# Poissons Ratio (x) = 0.12679 0.31029
# Poissons Ratio (y) = 0.09853 0.59065
# Poissons Ratio (z) = 0.15469 0.37890
#
# Static dielectric constant tensor:
#      x y z
#    x 1.729890 0.000000 0.000000 
#    y 0.000000 1.762340 0.000000 
#    z 0.000000 0.000000 1.785350 
# 
# From -- ./inp_files/28663.got.cif
#   From: 2010.05.17/outbox.cif.g08.bks.cpg/sg43_15_cif.got.tgz:28663.got - 2010.06.03 19:21:55.
