data_PCOD9370845
_publ_section_title
;
Structure prediction by ZEFSAII (Michael W. Deem and Ramdas Pophale) SiO2 
 PCOD9370845
Probable space group: F D D 2
;
_chemical_formula_sum "Si O2"
_cell_formula_units_Z 88
_cell_length_a 22.014169
_cell_length_b 19.438130
_cell_length_c 8.793915
_cell_angle_alpha 90.000000
_cell_angle_beta 90.000000
_cell_angle_gamma 90.000000
_cell_volume 3763.041796
_symmetry_space_group_name_H-M "F D D 2"
_symmetry_group_IT_number 43
_symmetry_cell_setting 'orthorhombic'
loop_
_space_group_symop_operation_xyz
x,y,z
-x,-y,z
1/4-x,1/4+y,1/4+z
1/4+x,1/4-y,1/4+z
x,1/2+y,1/2+z
-x,1/2-y,1/2+z
1/4-x,3/4+y,3/4+z
1/4+x,3/4-y,3/4+z
1/2+x,y,1/2+z
1/2-x,-y,1/2+z
3/4-x,1/4+y,3/4+z
3/4+x,1/4-y,3/4+z
1/2+x,1/2+y,z
1/2-x,1/2-y,z
3/4-x,3/4+y,1/4+z
3/4+x,3/4-y,1/4+z
loop_
_atom_site_type_symbol
_atom_site_label
_atom_site_fract_x
_atom_site_fract_y
_atom_site_fract_z
Si Si1 0.320822 0.317540 0.540970
Si Si2 0.008642 0.401454 0.493339
Si Si3 0.000000 0.000000 0.556933
Si Si4 0.309311 0.465240 0.626380
Si Si5 0.831403 0.229271 0.574160
Si Si6 0.196099 0.996315 0.288372
O O1 0.269141 0.322670 0.414203
O O2 0.293386 0.292623 0.698393
O O3 0.340754 0.395861 0.566191
O O4 0.377525 0.271126 0.492369
O O5 0.053172 0.450344 0.392977
O O6 0.030422 0.322800 0.493123
O O7 0.940421 0.419271 0.438675
O O8 0.044376 0.039141 0.671087
O O9 0.350425 0.490139 0.767458
O O10 0.243500 0.449322 0.697308
O O11 0.302136 0.510011 0.472663
#
# Coordination Sequence:
#
# PCOD9370845 Si02
#       6
#    16  16   8  16  16  16
#     4  11  24  44  70 102 144 188 239 303 357 436
#     4   9  23  45  69 104 139 184 242 289 369 426
#     4  10  20  40  70  94 136 188 234 288 358 416
#     4  11  27  45  70 104 145 188 241 298 363 427
#     4  10  22  46  70 105 137 189 234 298 363 435
#     4  11  26  47  70 108 141 194 239 304 356 441
#
# _framework density 23.385335999999999
#
# number of rings (size 3 to 8) (size 9 to 14) (size 15 to 20)
#    0.000    1.818    1.818    1.091    7.636    1.455 
#    9.818    0.000    0.000    0.000    0.000    0.000 
#    0.000    0.000    0.000    0.000    0.000    0.000 
#
# Total GULP energy -122798.451049 kJ/mol
# GULP energy per Si atom -5581.747775 kJ/mol
# Density = 2.333211 g / cm^3
# Si number density = 23.385336 Si / 1000 Ang^3
#
#
#
# Elastic Constant Matrix: (Units=GPa)
#
#
# Indices 1 2 3 4 5 6 
#
# 1 68.4025 3.3729 30.6314 -0.0001 0.0001 0.0000
# 2 3.3729 70.8425 7.0794 -0.0001 0.0001 0.0000
# 3 30.6314 7.0794 111.1910 -0.0003 0.0003 0.0001
# 4 -0.0001 -0.0001 -0.0003 18.5417 0.0001 0.0000
# 5 0.0001 0.0001 0.0003 0.0001 25.7265 0.0000
# 6 0.0000 0.0000 0.0001 0.0000 0.0000 23.5016
#
#
#
# Elastic Compliance Matrix: (Units=1/GPa)
#
#
# Indices 1 2 3 4 5 6 
#
# 1 0.016685 -0.000337 -0.004575 0.000000 0.000000 0.000000
# 2 -0.000337 0.014213 -0.000812 0.000000 0.000000 0.000000
# 3 -0.004575 -0.000812 0.010306 0.000000 0.000000 0.000000
# 4 0.000000 0.000000 0.000000 0.053933 0.000000 0.000000
# 5 0.000000 0.000000 0.000000 0.000000 0.038870 0.000000
# 6 0.000000 0.000000 0.000000 0.000000 0.000000 0.042550
#
#
# Mechanical properties :
#
#
# Convention : Reuss Voigt Hill
#
# Bulk Modulus (GPa) = 33.60784 36.95594 35.28189
# Shear Modulus (GPa) = 25.26234 27.51078 26.38656
#
# Velocity S-wave (km/s) = 3.29030 3.43361 3.36272
# Velocity P-wave (km/s) = 5.37004 5.61755 5.49519
#
# Compressibility (1/GPa) = 0.02975497
#
# Stress axis : x y z
#
# Youngs Moduli (GPa) = 59.93524 70.35801 97.03517
#
# Poissons Ratio (x) = 0.02373 0.44393
# Poissons Ratio (y) = 0.02021 0.07880
# Poissons Ratio (z) = 0.27420 0.05713
#
# Static dielectric constant tensor:
#      x y z
#    x 1.893620 0.000000 0.000000 
#    y 0.000000 1.944120 0.000000 
#    z 0.000000 0.000000 1.885970 
# 
# From -- ./inp_files/3684.got.cif
#   From: 2010.05.17/outbox.cif.g08.bks.cpg/sg43_2_cif.got.tgz:3684.got - 2010.06.03 19:21:55.
