data_PCOD9370911
_publ_section_title
;
Structure prediction by ZEFSAII (Michael W. Deem and Ramdas Pophale) SiO2 
 PCOD9370911
Probable space group: F D D 2
;
_chemical_formula_sum "Si O2"
_cell_formula_units_Z 104
_cell_length_a 22.035204
_cell_length_b 25.742484
_cell_length_c 7.988684
_cell_angle_alpha 90.000000
_cell_angle_beta 90.000000
_cell_angle_gamma 90.000000
_cell_volume 4531.508193
_symmetry_space_group_name_H-M "F D D 2"
_symmetry_group_IT_number 43
_symmetry_cell_setting 'orthorhombic'
loop_
_space_group_symop_operation_xyz
x,y,z
-x,-y,z
1/4-x,1/4+y,1/4+z
1/4+x,1/4-y,1/4+z
x,1/2+y,1/2+z
-x,1/2-y,1/2+z
1/4-x,3/4+y,3/4+z
1/4+x,3/4-y,3/4+z
1/2+x,y,1/2+z
1/2-x,-y,1/2+z
3/4-x,1/4+y,3/4+z
3/4+x,1/4-y,3/4+z
1/2+x,1/2+y,z
1/2-x,1/2-y,z
3/4-x,3/4+y,1/4+z
3/4+x,3/4-y,1/4+z
loop_
_atom_site_type_symbol
_atom_site_label
_atom_site_fract_x
_atom_site_fract_y
_atom_site_fract_z
Si Si1 0.921072 0.764970 0.008260
Si Si2 0.500000 0.500000 0.298772
Si Si3 0.712870 0.663879 0.318487
Si Si4 0.031785 0.593524 0.021709
Si Si5 0.915016 0.435332 0.357950
Si Si6 0.997295 0.683760 0.789372
Si Si7 0.407643 0.600670 0.719892
O O1 0.855044 0.743155 0.064577
O O2 0.962161 0.781900 0.164356
O O3 0.954010 0.722607 0.892594
O O4 0.901500 0.817988 0.916150
O O5 0.544131 0.463734 0.187555
O O6 0.537049 0.542432 0.406220
O O7 0.777397 0.675869 0.225298
O O8 0.715320 0.611097 0.426548
O O9 0.667491 0.656445 0.166608
O O10 0.075934 0.591286 0.178290
O O11 0.965374 0.587705 0.107727
O O12 0.034211 0.646814 0.918528
O O13 0.856851 0.410706 0.444399
#
# Coordination Sequence:
#
# PCOD9370911 Si02
#       7
#    16   8  16  16  16  16  16
#     4  12  26  43  67 106 134 185 221 286 348 402
#     4  10  20  42  66  96 136 170 218 286 340 376
#     4  10  23  46  70 100 135 179 231 290 328 415
#     4  10  23  46  70 100 135 179 231 290 328 415
#     4  11  23  44  71  96 132 182 233 276 341 401
#     4  11  26  43  68 100 146 175 228 285 344 404
#     4  11  23  44  71  96 132 182 233 276 341 401
#
# _framework density 22.950417000000002
#
# number of rings (size 3 to 8) (size 9 to 14) (size 15 to 20)
#    0.000    1.231    3.077    1.846    4.308    3.692 
#    5.538    1.538    0.000    0.000    0.000    0.000 
#    0.000    0.000    0.000    0.000    0.000    0.000 
#
# Total GULP energy -145279.656948 kJ/mol
# GULP energy per Si atom -5587.679113 kJ/mol
# Density = 2.289818 g / cm^3
# Si number density = 22.950417 Si / 1000 Ang^3
#
#
#
# Elastic Constant Matrix: (Units=GPa)
#
#
# Indices 1 2 3 4 5 6 
#
# 1 36.2550 5.2748 19.6819 -0.0009 0.0006 0.0003
# 2 5.2748 79.0731 46.8657 -0.0010 0.0011 0.0003
# 3 19.6819 46.8657 116.0431 -0.0014 0.0005 0.0003
# 4 -0.0009 -0.0010 -0.0014 21.8941 0.0008 0.0004
# 5 0.0006 0.0011 0.0005 0.0008 29.8429 -0.0003
# 6 0.0003 0.0003 0.0003 0.0004 -0.0003 22.0516
#
#
#
# Elastic Compliance Matrix: (Units=1/GPa)
#
#
# Indices 1 2 3 4 5 6 
#
# 1 0.030490 0.001356 -0.005719 0.000001 -0.000001 0.000000
# 2 0.001356 0.016687 -0.006969 0.000000 -0.000001 0.000000
# 3 -0.005719 -0.006969 0.012402 0.000000 0.000000 0.000000
# 4 0.000001 0.000000 0.000000 0.045674 -0.000001 -0.000001
# 5 -0.000001 -0.000001 0.000000 -0.000001 0.033509 0.000000
# 6 0.000000 0.000000 0.000000 -0.000001 0.000000 0.045348
#
#
# Mechanical properties :
#
#
# Convention : Reuss Voigt Hill
#
# Bulk Modulus (GPa) = 27.09016 41.66845 34.37931
# Shear Modulus (GPa) = 22.82285 25.39431 24.10858
#
# Velocity S-wave (km/s) = 3.15690 3.33000 3.24460
# Velocity P-wave (km/s) = 5.01173 5.74286 5.38971
#
# Compressibility (1/GPa) = 0.03691377
#
# Stress axis : x y z
#
# Youngs Moduli (GPa) = 32.79795 59.92850 80.63232
#
# Poissons Ratio (x) = -0.08124 0.46112
# Poissons Ratio (y) = -0.04446 0.56193
# Poissons Ratio (z) = 0.18756 0.41764
#
# Static dielectric constant tensor:
#      x y z
#    x 1.880100 0.000000 0.000000 
#    y 0.000000 1.801550 0.000000 
#    z 0.000000 0.000000 1.862250 
# 
# From -- ./inp_files/3831.got.cif
#   From: 2010.05.17/outbox.cif.g08.bks.cpg/sg43_2_cif.got.tgz:3831.got - 2010.06.03 19:21:55.
