data_PCOD9370756
_publ_section_title
;
Structure prediction by ZEFSAII (Michael W. Deem and Ramdas Pophale) SiO2 
 PCOD9370756
Probable space group: F D D 2
;
_chemical_formula_sum "Si O2"
_cell_formula_units_Z 72
_cell_length_a 20.204238
_cell_length_b 9.714899
_cell_length_c 14.405901
_cell_angle_alpha 90.000000
_cell_angle_beta 90.000000
_cell_angle_gamma 90.000000
_cell_volume 2827.620955
_symmetry_space_group_name_H-M "F D D 2"
_symmetry_group_IT_number 43
_symmetry_cell_setting 'orthorhombic'
loop_
_space_group_symop_operation_xyz
x,y,z
-x,-y,z
1/4-x,1/4+y,1/4+z
1/4+x,1/4-y,1/4+z
x,1/2+y,1/2+z
-x,1/2-y,1/2+z
1/4-x,3/4+y,3/4+z
1/4+x,3/4-y,3/4+z
1/2+x,y,1/2+z
1/2-x,-y,1/2+z
3/4-x,1/4+y,3/4+z
3/4+x,1/4-y,3/4+z
1/2+x,1/2+y,z
1/2-x,1/2-y,z
3/4-x,3/4+y,1/4+z
3/4+x,3/4-y,1/4+z
loop_
_atom_site_type_symbol
_atom_site_label
_atom_site_fract_x
_atom_site_fract_y
_atom_site_fract_z
Si Si1 0.749672 0.905333 0.224660
Si Si2 0.750000 0.750000 0.879561
Si Si3 0.816156 0.325011 0.196074
Si Si4 0.643173 0.765275 0.515472
Si Si5 0.249031 0.449864 0.442461
O O1 0.750000 0.750000 0.189010
O O2 0.737898 0.904456 0.335635
O O3 0.695924 0.012344 0.186987
O O4 0.822508 0.973059 0.215964
O O5 0.809868 0.783105 0.804982
O O6 0.757978 0.614092 0.940769
O O7 0.750000 0.250000 0.159296
O O8 0.682530 0.406209 0.997098
O O9 0.692571 0.645505 0.482253
O O10 0.631240 0.731101 0.623528
#
# Coordination Sequence:
#
# PCOD9370756 Si02
#       5
#    16   8  16  16  16
#     4  11  24  43  67 102 133 175 234 278 337 407
#     4   8  18  38  64  92 138 162 226 280 314 420
#     4   9  20  41  62  91 134 171 221 266 345 398
#     4  11  22  40  70  91 134 181 215 283 335 407
#     4  10  20  39  67  97 128 175 227 263 349 399
#
# _framework density 25.463103
#
# number of rings (size 3 to 8) (size 9 to 14) (size 15 to 20)
#    0.667    1.333    4.444    0.000    3.111    0.000 
#   10.000    0.000    0.000    0.000    0.000    0.000 
#    0.000    0.000    0.000    0.000    0.000    0.000 
#
# Total GULP energy -100573.526665 kJ/mol
# GULP energy per Si atom -5587.418148 kJ/mol
# Density = 2.540515 g / cm^3
# Si number density = 25.463103 Si / 1000 Ang^3
#
#
#
# Elastic Constant Matrix: (Units=GPa)
#
#
# Indices 1 2 3 4 5 6 
#
# 1 73.0954 27.6444 27.4433 0.0000 0.0000 0.0000
# 2 27.6444 228.8867 48.5450 0.0000 0.0000 0.0000
# 3 27.4433 48.5450 75.5943 0.0000 0.0000 0.0000
# 4 0.0000 0.0000 0.0000 38.1865 0.0000 0.0000
# 5 0.0000 0.0000 0.0000 0.0000 16.4732 0.0000
# 6 0.0000 0.0000 0.0000 0.0000 0.0000 25.9729
#
#
#
# Elastic Compliance Matrix: (Units=1/GPa)
#
#
# Indices 1 2 3 4 5 6 
#
# 1 0.015968 -0.000809 -0.005277 0.000000 0.000000 0.000000
# 2 -0.000809 0.005099 -0.002981 0.000000 0.000000 0.000000
# 3 -0.005277 -0.002981 0.017058 0.000000 0.000000 0.000000
# 4 0.000000 0.000000 0.000000 0.026187 0.000000 0.000000
# 5 0.000000 0.000000 0.000000 0.000000 0.060705 0.000000
# 6 0.000000 0.000000 0.000000 0.000000 0.000000 0.038502
#
#
# Mechanical properties :
#
#
# Convention : Reuss Voigt Hill
#
# Bulk Modulus (GPa) = 50.02223 64.98244 57.50234
# Shear Modulus (GPa) = 26.55097 34.38943 30.47020
#
# Velocity S-wave (km/s) = 3.23263 3.67898 3.46300
# Velocity P-wave (km/s) = 5.79834 6.60471 6.21462
#
# Compressibility (1/GPa) = 0.01999111
#
# Stress axis : x y z
#
# Youngs Moduli (GPa) = 62.62464 196.12150 58.62218
#
# Poissons Ratio (x) = 0.15873 0.30936
# Poissons Ratio (y) = 0.05068 0.17473
# Poissons Ratio (z) = 0.33049 0.58455
#
# Static dielectric constant tensor:
#      x y z
#    x 2.082520 0.000000 0.000000 
#    y 0.000000 2.040690 0.000000 
#    z 0.000000 0.000000 2.046170 
# 
# From -- ./inp_files/11604.got.cif
#   From: 2010.05.17/outbox.cif.g08.bks.cpg/sg43_6_cif.got.tgz:11604.got - 2010.06.03 19:21:55.
