data_PCOD9370752
_publ_section_title
;
Structure prediction by ZEFSAII (Michael W. Deem and Ramdas Pophale) SiO2 
 PCOD9370752
Probable space group: F D D 2
;
_chemical_formula_sum "Si O2"
_cell_formula_units_Z 104
_cell_length_a 8.486571
_cell_length_b 28.843251
_cell_length_c 19.275701
_cell_angle_alpha 90.000000
_cell_angle_beta 90.000000
_cell_angle_gamma 90.000000
_cell_volume 4718.311825
_symmetry_space_group_name_H-M "F D D 2"
_symmetry_group_IT_number 43
_symmetry_cell_setting 'orthorhombic'
loop_
_space_group_symop_operation_xyz
x,y,z
-x,-y,z
1/4-x,1/4+y,1/4+z
1/4+x,1/4-y,1/4+z
x,1/2+y,1/2+z
-x,1/2-y,1/2+z
1/4-x,3/4+y,3/4+z
1/4+x,3/4-y,3/4+z
1/2+x,y,1/2+z
1/2-x,-y,1/2+z
3/4-x,1/4+y,3/4+z
3/4+x,1/4-y,3/4+z
1/2+x,1/2+y,z
1/2-x,1/2-y,z
3/4-x,3/4+y,1/4+z
3/4+x,3/4-y,1/4+z
loop_
_atom_site_type_symbol
_atom_site_label
_atom_site_fract_x
_atom_site_fract_y
_atom_site_fract_z
Si Si1 0.750000 0.250000 0.758631
Si Si2 0.500000 0.000000 0.730145
Si Si3 0.195329 0.970972 0.455925
Si Si4 0.750000 0.750000 0.832816
Si Si5 0.320305 0.671586 0.550677
Si Si6 0.764734 0.522754 0.329403
Si Si7 0.205058 0.948466 0.120620
Si Si8 0.925232 0.373730 0.147618
O O1 0.633392 0.283498 0.717523
O O2 0.634893 0.218454 0.804241
O O3 0.623197 0.028041 0.776230
O O4 0.407425 0.037123 0.682917
O O5 0.105482 0.971499 0.528450
O O6 0.129486 0.928196 0.415247
O O7 0.193921 0.015769 0.406640
O O8 0.621041 0.774683 0.878543
O O9 0.410417 0.721819 0.557703
O O10 0.145795 0.687264 0.575381
O O11 0.304653 0.650189 0.472498
O O12 0.420563 0.634593 0.598101
O O13 0.274018 0.897572 0.112379
#
# Coordination Sequence:
#
# PCOD9370752 Si02
#       8
#     8   8  16   8  16  16  16  16
#     4   9  20  42  62  98 124 173 218 274 324 425
#     4  11  21  38  64  96 125 167 228 270 320 401
#     4  10  20  39  66  88 128 164 226 268 341 390
#     4  10  21  38  64  90 115 182 218 260 320 418
#     4  10  22  39  66  94 133 176 230 269 344 402
#     4  10  21  40  68  93 125 184 222 270 321 429
#     4  10  22  37  66  93 132 166 221 274 331 397
#     4  11  21  39  63  99 129 174 212 292 336 392
#
# _framework density 22.041784
#
# number of rings (size 3 to 8) (size 9 to 14) (size 15 to 20)
#    0.000    1.846    1.538    3.231    2.154    0.000 
#    2.769    4.615    3.385    0.000    0.000    0.000 
#    0.000    0.000    0.000    0.000    0.000    0.000 
#
# Total GULP energy -144841.979254 kJ/mol
# GULP energy per Si atom -5570.845356 kJ/mol
# Density = 2.199162 g / cm^3
# Si number density = 22.041784 Si / 1000 Ang^3
#
#
#
# Elastic Constant Matrix: (Units=GPa)
#
#
# Indices 1 2 3 4 5 6 
#
# 1 147.6098 57.4566 51.8588 0.0000 0.0000 0.0000
# 2 57.4566 57.7938 36.5825 0.0000 0.0000 0.0000
# 3 51.8588 36.5825 102.4830 0.0000 0.0000 0.0000
# 4 0.0000 0.0000 0.0000 25.1678 0.0000 0.0000
# 5 0.0000 0.0000 0.0000 0.0000 29.3319 0.0000
# 6 0.0000 0.0000 0.0000 0.0000 0.0000 41.9817
#
#
#
# Elastic Compliance Matrix: (Units=1/GPa)
#
#
# Indices 1 2 3 4 5 6 
#
# 1 0.011433 -0.009953 -0.002233 0.000000 0.000000 0.000000
# 2 -0.009953 0.031019 -0.006036 0.000000 0.000000 0.000000
# 3 -0.002233 -0.006036 0.013042 0.000000 0.000000 0.000000
# 4 0.000000 0.000000 0.000000 0.039733 0.000000 0.000000
# 5 0.000000 0.000000 0.000000 0.000000 0.034093 0.000000
# 6 0.000000 0.000000 0.000000 0.000000 0.000000 0.023820
#
#
# Mechanical properties :
#
#
# Convention : Reuss Voigt Hill
#
# Bulk Modulus (GPa) = 52.49210 66.63139 59.56174
# Shear Modulus (GPa) = 25.51881 30.09551 27.80716
#
# Velocity S-wave (km/s) = 3.40626 3.69912 3.55571
# Velocity P-wave (km/s) = 6.27189 6.96706 6.62859
#
# Compressibility (1/GPa) = 0.01905049
#
# Stress axis : x y z
#
# Youngs Moduli (GPa) = 87.46376 32.23842 76.67529
#
# Poissons Ratio (x) = 0.32088 0.17118
# Poissons Ratio (y) = 0.87057 0.46280
# Poissons Ratio (z) = 0.19526 0.19459
#
# Static dielectric constant tensor:
#      x y z
#    x 1.835930 0.000000 0.000000 
#    y 0.000000 1.780570 0.000000 
#    z 0.000000 0.000000 1.861860 
# 
# From -- ./inp_files/16584.got.cif
#   From: 2010.05.17/outbox.cif.g08.bks.cpg/sg43_9_cif.got.tgz:16584.got - 2010.06.03 19:21:55.
