data_PCOD9370659
_publ_section_title
;
Structure prediction by ZEFSAII (Michael W. Deem and Ramdas Pophale) SiO2 
 PCOD9370659
Probable space group: F D D 2
;
_chemical_formula_sum "Si O2"
_cell_formula_units_Z 112
_cell_length_a 11.793962
_cell_length_b 30.655978
_cell_length_c 14.934434
_cell_angle_alpha 90.000000
_cell_angle_beta 90.000000
_cell_angle_gamma 90.000000
_cell_volume 5399.625850
_symmetry_space_group_name_H-M "F D D 2"
_symmetry_group_IT_number 43
_symmetry_cell_setting 'orthorhombic'
loop_
_space_group_symop_operation_xyz
x,y,z
-x,-y,z
1/4-x,1/4+y,1/4+z
1/4+x,1/4-y,1/4+z
x,1/2+y,1/2+z
-x,1/2-y,1/2+z
1/4-x,3/4+y,3/4+z
1/4+x,3/4-y,3/4+z
1/2+x,y,1/2+z
1/2-x,-y,1/2+z
3/4-x,1/4+y,3/4+z
3/4+x,1/4-y,3/4+z
1/2+x,1/2+y,z
1/2-x,1/2-y,z
3/4-x,3/4+y,1/4+z
3/4+x,3/4-y,1/4+z
loop_
_atom_site_type_symbol
_atom_site_label
_atom_site_fract_x
_atom_site_fract_y
_atom_site_fract_z
Si Si1 0.807180 0.869528 0.215310
Si Si2 0.459861 0.663922 0.147720
Si Si3 0.112579 0.245047 0.383774
Si Si4 0.133841 0.498158 0.842128
Si Si5 0.591137 0.329718 0.781507
Si Si6 0.998615 0.650984 0.909461
Si Si7 0.786492 0.099897 0.357157
O O1 0.771112 0.903742 0.292080
O O2 0.803116 0.892282 0.118396
O O3 0.722936 0.831045 0.247304
O O4 0.938084 0.853440 0.209428
O O5 0.440907 0.715277 0.153512
O O6 0.346050 0.635815 0.158649
O O7 0.250000 0.250000 0.376639
O O8 0.089489 0.257561 0.487650
O O9 0.065611 0.280251 0.312901
O O10 0.057590 0.196592 0.380376
O O11 0.164063 0.448754 0.862179
O O12 0.000000 0.500000 0.852686
O O13 0.533719 0.352810 0.697244
O O14 0.887576 0.635153 0.857269
O O15 0.966999 0.651132 0.015077
#
# Coordination Sequence:
#
# PCOD9370659 Si02
#       7
#    16  16  16  16  16  16  16
#     4  10  22  36  65  96 122 164 214 267 330 384
#     4  11  20  38  63  92 124 159 209 276 326 378
#     4  10  21  38  63  92 127 158 217 277 332 375
#     4  10  20  38  59  90 123 158 209 272 321 381
#     4  11  22  41  61  92 130 174 212 264 328 401
#     4  11  23  39  61  94 126 166 213 268 325 393
#     4  11  24  39  61  86 130 174 209 258 324 396
#
# _framework density 20.742179
#
# number of rings (size 3 to 8) (size 9 to 14) (size 15 to 20)
#    0.000    1.429    2.857    3.429    2.000    3.429 
#    0.000    0.000    0.000    0.000    0.000    0.000 
#    0.000    0.000    0.000    0.000    0.000    0.000 
#
# Total GULP energy -155920.187735 kJ/mol
# GULP energy per Si atom -5568.578133 kJ/mol
# Density = 2.069497 g / cm^3
# Si number density = 20.742179 Si / 1000 Ang^3
#
#
#
# Elastic Constant Matrix: (Units=GPa)
#
#
# Indices 1 2 3 4 5 6 
#
# 1 53.4318 11.5324 17.1135 0.0000 0.0000 0.0000
# 2 11.5324 93.5822 11.0793 0.0000 0.0000 0.0000
# 3 17.1135 11.0793 98.3489 0.0000 0.0000 0.0000
# 4 0.0000 0.0000 0.0000 34.3120 0.0000 0.0000
# 5 0.0000 0.0000 0.0000 0.0000 39.3335 0.0000
# 6 0.0000 0.0000 0.0000 0.0000 0.0000 16.2100
#
#
#
# Elastic Compliance Matrix: (Units=1/GPa)
#
#
# Indices 1 2 3 4 5 6 
#
# 1 0.020220 -0.002103 -0.003282 0.000000 0.000000 0.000000
# 2 -0.002103 0.011049 -0.000879 0.000000 0.000000 0.000000
# 3 -0.003282 -0.000879 0.010838 0.000000 0.000000 0.000000
# 4 0.000000 0.000000 0.000000 0.029144 0.000000 0.000000
# 5 0.000000 0.000000 0.000000 0.000000 0.025424 0.000000
# 6 0.000000 0.000000 0.000000 0.000000 0.000000 0.061690
#
#
# Mechanical properties :
#
#
# Convention : Reuss Voigt Hill
#
# Bulk Modulus (GPa) = 33.80645 36.09039 34.94842
# Shear Modulus (GPa) = 27.66210 31.68029 29.67120
#
# Velocity S-wave (km/s) = 3.65583 3.91236 3.78627
# Velocity P-wave (km/s) = 5.84414 6.15191 6.00000
#
# Compressibility (1/GPa) = 0.02958015
#
# Stress axis : x y z
#
# Youngs Moduli (GPa) = 49.45484 90.50576 92.26886
#
# Poissons Ratio (x) = 0.19036 0.30279
# Poissons Ratio (y) = 0.10402 0.08108
# Poissons Ratio (z) = 0.16229 0.07953
#
# Static dielectric constant tensor:
#      x y z
#    x 1.739270 0.000000 0.000000 
#    y 0.000000 1.924830 0.000000 
#    z 0.000000 0.000000 1.827910 
# 
# From -- ./inp_files/9776.got.cif
#   From: 2010.05.17/outbox.cif.g08.bks.cpg/sg43_5_cif.got.tgz:9776.got - 2010.06.03 19:21:55.
