data_PCOD9370458
_publ_section_title
;
Structure prediction by ZEFSAII (Michael W. Deem and Ramdas Pophale) SiO2 
 PCOD9370458
Probable space group: F D D 2
;
_chemical_formula_sum "Si O2"
_cell_formula_units_Z 104
_cell_length_a 14.851961
_cell_length_b 15.807907
_cell_length_c 22.877398
_cell_angle_alpha 90.000000
_cell_angle_beta 90.000000
_cell_angle_gamma 90.000000
_cell_volume 5371.119316
_symmetry_space_group_name_H-M "F D D 2"
_symmetry_group_IT_number 43
_symmetry_cell_setting 'orthorhombic'
loop_
_space_group_symop_operation_xyz
x,y,z
-x,-y,z
1/4-x,1/4+y,1/4+z
1/4+x,1/4-y,1/4+z
x,1/2+y,1/2+z
-x,1/2-y,1/2+z
1/4-x,3/4+y,3/4+z
1/4+x,3/4-y,3/4+z
1/2+x,y,1/2+z
1/2-x,-y,1/2+z
3/4-x,1/4+y,3/4+z
3/4+x,1/4-y,3/4+z
1/2+x,1/2+y,z
1/2-x,1/2-y,z
3/4-x,3/4+y,1/4+z
3/4+x,3/4-y,1/4+z
loop_
_atom_site_type_symbol
_atom_site_label
_atom_site_fract_x
_atom_site_fract_y
_atom_site_fract_z
Si Si1 0.214160 0.468122 0.033360
Si Si2 0.250000 0.750000 0.820862
Si Si3 0.781451 0.347017 0.330484
Si Si4 0.926632 0.425938 0.968910
Si Si5 0.347546 0.951775 0.434909
Si Si6 0.673953 0.982133 0.642682
Si Si7 0.792712 0.860322 0.211793
O O1 0.131537 0.408771 0.052600
O O2 0.250061 0.509099 0.092988
O O3 0.167126 0.533300 0.988677
O O4 0.296972 0.431432 0.995987
O O5 0.165299 0.765209 0.861313
O O6 0.222331 0.673297 0.777497
O O7 0.750000 0.250000 0.347861
O O8 0.715244 0.369140 0.277403
O O9 0.787481 0.412752 0.383321
O O10 0.917111 0.362355 0.915998
O O11 0.000000 0.500000 0.956843
O O12 0.446037 0.908854 0.432197
O O13 0.377725 0.050341 0.436119
O O14 0.689522 0.043234 0.697768
#
# Coordination Sequence:
#
# PCOD9370458 Si02
#       7
#    16   8  16  16  16  16  16
#     4  10  20  40  63  84 124 158 194 259 301 356
#     4  10  24  40  58  94 132 154 204 256 298 376
#     4   9  20  39  60  88 123 156 203 254 303 362
#     4   9  24  42  59  91 121 157 211 254 302 370
#     4  10  19  39  61  88 124 155 196 253 304 358
#     4  12  22  41  67  86 125 166 201 256 310 370
#     4  10  22  38  60  94 122 155 206 250 302 372
#
# _framework density 19.362815999999999
#
# number of rings (size 3 to 8) (size 9 to 14) (size 15 to 20)
#    0.000    2.462    4.615    0.000    2.154    6.154 
#    2.769    0.000    0.000    0.000    0.000    0.000 
#    0.000    0.000    0.000    0.000    0.000    0.000 
#
# Total GULP energy -144766.339841 kJ/mol
# GULP energy per Si atom -5567.936148 kJ/mol
# Density = 1.931875 g / cm^3
# Si number density = 19.362816 Si / 1000 Ang^3
#
#
#
# Elastic Constant Matrix: (Units=GPa)
#
#
# Indices 1 2 3 4 5 6 
#
# 1 63.5658 12.2004 11.7344 0.0000 0.0000 0.0000
# 2 12.2004 64.6785 34.4513 0.0000 0.0000 0.0000
# 3 11.7344 34.4513 80.5073 0.0000 0.0000 0.0000
# 4 0.0000 0.0000 0.0000 30.0212 0.0000 0.0000
# 5 0.0000 0.0000 0.0000 0.0000 22.7290 0.0000
# 6 0.0000 0.0000 0.0000 0.0000 0.0000 7.1383
#
#
#
# Elastic Compliance Matrix: (Units=1/GPa)
#
#
# Indices 1 2 3 4 5 6 
#
# 1 0.016441 -0.002364 -0.001385 0.000000 0.000000 0.000000
# 2 -0.002364 0.020365 -0.008370 0.000000 0.000000 0.000000
# 3 -0.001385 -0.008370 0.016205 0.000000 0.000000 0.000000
# 4 0.000000 0.000000 0.000000 0.033310 0.000000 0.000000
# 5 0.000000 0.000000 0.000000 0.000000 0.043997 0.000000
# 6 0.000000 0.000000 0.000000 0.000000 0.000000 0.140090
#
#
# Mechanical properties :
#
#
# Convention : Reuss Voigt Hill
#
# Bulk Modulus (GPa) = 34.75404 36.16930 35.46167
# Shear Modulus (GPa) = 16.43456 22.00206 19.21831
#
# Velocity S-wave (km/s) = 2.91652 3.37457 3.15387
# Velocity P-wave (km/s) = 5.41565 5.82271 5.62287
#
# Compressibility (1/GPa) = 0.02877363
#
# Stress axis : x y z
#
# Youngs Moduli (GPa) = 60.82340 49.10265 61.70925
#
# Poissons Ratio (x) = 0.11606 0.08546
# Poissons Ratio (y) = 0.14376 0.51653
# Poissons Ratio (z) = 0.08424 0.41101
#
# Static dielectric constant tensor:
#      x y z
#    x 1.712530 0.000000 0.000000 
#    y 0.000000 1.689770 0.000000 
#    z 0.000000 0.000000 1.683500 
# 
# From -- ./inp_files/17639.got.cif
#   From: 2010.05.17/outbox.cif.g08.bks.cpg/sg43_9_cif.got.tgz:17639.got - 2010.06.03 19:21:55.
