data_PCOD9370452
_publ_section_title
;
Structure prediction by ZEFSAII (Michael W. Deem and Ramdas Pophale) SiO2 
 PCOD9370452
Probable space group: F D D 2
;
_chemical_formula_sum "Si O2"
_cell_formula_units_Z 104
_cell_length_a 10.651830
_cell_length_b 17.893256
_cell_length_c 24.444567
_cell_angle_alpha 90.000000
_cell_angle_beta 90.000000
_cell_angle_gamma 90.000000
_cell_volume 4659.034762
_symmetry_space_group_name_H-M "F D D 2"
_symmetry_group_IT_number 43
_symmetry_cell_setting 'orthorhombic'
loop_
_space_group_symop_operation_xyz
x,y,z
-x,-y,z
1/4-x,1/4+y,1/4+z
1/4+x,1/4-y,1/4+z
x,1/2+y,1/2+z
-x,1/2-y,1/2+z
1/4-x,3/4+y,3/4+z
1/4+x,3/4-y,3/4+z
1/2+x,y,1/2+z
1/2-x,-y,1/2+z
3/4-x,1/4+y,3/4+z
3/4+x,1/4-y,3/4+z
1/2+x,1/2+y,z
1/2-x,1/2-y,z
3/4-x,3/4+y,1/4+z
3/4+x,3/4-y,1/4+z
loop_
_atom_site_type_symbol
_atom_site_label
_atom_site_fract_x
_atom_site_fract_y
_atom_site_fract_z
Si Si1 0.500000 0.500000 0.449641
Si Si2 0.566650 0.355417 0.377367
Si Si3 0.710006 0.171592 0.852073
Si Si4 0.136879 0.483733 0.220970
Si Si5 0.504061 0.583750 0.980375
Si Si6 0.720215 0.092583 0.956257
Si Si7 0.131448 0.956963 0.284274
O O1 0.531349 0.426485 0.414969
O O2 0.634510 0.523150 0.475591
O O3 0.440430 0.328607 0.346465
O O4 0.606025 0.288976 0.418204
O O5 0.653096 0.393877 0.330867
O O6 0.750000 0.250000 0.879132
O O7 0.783650 0.169985 0.795061
O O8 0.734592 0.100851 0.890977
O O9 0.160476 0.397381 0.203980
O O10 0.245298 0.497628 0.266734
O O11 0.000000 0.500000 0.244931
O O12 0.500000 0.500000 0.956837
O O13 0.358273 0.603749 0.978391
O O14 0.646599 0.163995 0.978121
O O15 0.000000 0.000000 0.298494
#
# Coordination Sequence:
#
# PCOD9370452 Si02
#       7
#     8  16  16  16  16  16  16
#     4  10  22  36  64 102 136 174 230 300 334 424
#     4  11  22  41  68 102 140 181 241 291 359 428
#     4  10  19  38  68 106 132 178 241 294 347 429
#     4  12  27  47  68 105 150 188 239 315 367 435
#     4  11  25  43  69 100 146 190 236 291 365 438
#     4  11  21  38  67 102 135 183 235 290 343 424
#     4  12  21  42  77 102 134 187 245 289 360 435
#
# _framework density 22.322220999999999
#
# number of rings (size 3 to 8) (size 9 to 14) (size 15 to 20)
#    0.000    0.923    6.923    1.385    4.308    0.000 
#    1.385    5.385    0.000    0.000    0.000    0.000 
#    0.000    0.000    0.000    0.000    0.000    0.000 
#
# Total GULP energy -144818.855335 kJ/mol
# GULP energy per Si atom -5569.955974 kJ/mol
# Density = 2.227141 g / cm^3
# Si number density = 22.322221 Si / 1000 Ang^3
#
#
#
# Elastic Constant Matrix: (Units=GPa)
#
#
# Indices 1 2 3 4 5 6 
#
# 1 100.1592 39.5553 4.7011 0.0000 0.0000 0.0000
# 2 39.5553 140.6743 21.3172 0.0000 0.0000 0.0000
# 3 4.7011 21.3172 61.8136 0.0000 0.0000 0.0000
# 4 0.0000 0.0000 0.0000 20.6384 0.0000 0.0000
# 5 0.0000 0.0000 0.0000 0.0000 11.7929 0.0000
# 6 0.0000 0.0000 0.0000 0.0000 0.0000 38.2361
#
#
#
# Elastic Compliance Matrix: (Units=1/GPa)
#
#
# Indices 1 2 3 4 5 6 
#
# 1 0.011235 -0.003197 0.000248 0.000000 0.000000 0.000000
# 2 -0.003197 0.008410 -0.002657 0.000000 0.000000 0.000000
# 3 0.000248 -0.002657 0.017075 0.000000 0.000000 0.000000
# 4 0.000000 0.000000 0.000000 0.048453 0.000000 0.000000
# 5 0.000000 0.000000 0.000000 0.000000 0.084797 0.000000
# 6 0.000000 0.000000 0.000000 0.000000 0.000000 0.026153
#
#
# Mechanical properties :
#
#
# Convention : Reuss Voigt Hill
#
# Bulk Modulus (GPa) = 39.20281 48.19938 43.70109
# Shear Modulus (GPa) = 23.16547 29.93838 26.55192
#
# Velocity S-wave (km/s) = 3.22495 3.66620 3.45263
# Velocity P-wave (km/s) = 5.60958 6.28974 5.95937
#
# Compressibility (1/GPa) = 0.02550838
#
# Stress axis : x y z
#
# Youngs Moduli (GPa) = 89.00842 118.90432 58.56455
#
# Poissons Ratio (x) = 0.38009 -0.01452
# Poissons Ratio (y) = 0.28453 0.15562
# Poissons Ratio (z) = -0.02207 0.31595
#
# Static dielectric constant tensor:
#      x y z
#    x 1.965310 0.000000 0.000000 
#    y 0.000000 1.967480 0.000000 
#    z 0.000000 0.000000 1.879620 
# 
# From -- ./inp_files/25135.got.cif
#   From: 2010.05.17/outbox.cif.g08.bks.cpg/sg43_13_cif.got.tgz:25135.got - 2010.06.03 19:21:55.
