data_PCOD9370188
_publ_section_title
;
Structure prediction by ZEFSAII (Michael W. Deem and Ramdas Pophale) SiO2 
 PCOD9370188
Probable space group: F D D 2
;
_chemical_formula_sum "Si O2"
_cell_formula_units_Z 104
_cell_length_a 13.706058
_cell_length_b 20.319553
_cell_length_c 18.572462
_cell_angle_alpha 90.000000
_cell_angle_beta 90.000000
_cell_angle_gamma 90.000000
_cell_volume 5172.448719
_symmetry_space_group_name_H-M "F D D 2"
_symmetry_group_IT_number 43
_symmetry_cell_setting 'orthorhombic'
loop_
_space_group_symop_operation_xyz
x,y,z
-x,-y,z
1/4-x,1/4+y,1/4+z
1/4+x,1/4-y,1/4+z
x,1/2+y,1/2+z
-x,1/2-y,1/2+z
1/4-x,3/4+y,3/4+z
1/4+x,3/4-y,3/4+z
1/2+x,y,1/2+z
1/2-x,-y,1/2+z
3/4-x,1/4+y,3/4+z
3/4+x,1/4-y,3/4+z
1/2+x,1/2+y,z
1/2-x,1/2-y,z
3/4-x,3/4+y,1/4+z
3/4+x,3/4-y,1/4+z
loop_
_atom_site_type_symbol
_atom_site_label
_atom_site_fract_x
_atom_site_fract_y
_atom_site_fract_z
Si Si1 0.450811 0.312755 0.572720
Si Si2 0.482311 0.130269 0.745389
Si Si3 0.161221 0.505852 0.202090
Si Si4 0.132573 0.826997 0.117353
Si Si5 0.000000 0.000000 0.474082
Si Si6 0.294175 0.521171 0.543621
Si Si7 0.482815 0.107544 0.204616
O O1 0.361336 0.355840 0.541877
O O2 0.515521 0.285579 0.508701
O O3 0.409767 0.246645 0.609578
O O4 0.515562 0.353071 0.629425
O O5 0.444115 0.126372 0.661502
O O6 0.572822 0.097266 0.789458
O O7 0.500055 0.207866 0.754195
O O8 0.214647 0.493786 0.127119
O O9 0.073465 0.557921 0.196427
O O10 0.111313 0.436250 0.220661
O O11 0.220398 0.812078 0.174015
O O12 0.091344 0.980711 0.522841
O O13 0.251163 0.589091 0.516313
#
# Coordination Sequence:
#
# PCOD9370188 Si02
#       7
#    16  16  16  16   8  16  16
#     4  12  22  41  66  91 134 165 225 277 334 399
#     4  11  21  36  66  98 133 161 221 274 347 393
#     4  11  25  37  61  95 122 171 213 277 329 402
#     4  11  22  38  63  99 129 177 211 283 338 401
#     4  10  18  34  60  92 120 152 208 270 328 366
#     4  11  21  35  60  93 120 162 203 274 322 393
#     4  11  22  41  60  90 128 164 224 264 338 390
#
# _framework density 20.106531
#
# number of rings (size 3 to 8) (size 9 to 14) (size 15 to 20)
#    0.000    0.923    6.154    2.769    6.462    0.000 
#    2.769    0.000    0.000    0.000    0.000    0.000 
#    0.000    0.000    0.000    0.000    0.000    0.000 
#
# Total GULP energy -145078.666571 kJ/mol
# GULP energy per Si atom -5579.948714 kJ/mol
# Density = 2.006077 g / cm^3
# Si number density = 20.106531 Si / 1000 Ang^3
#
#
#
# Elastic Constant Matrix: (Units=GPa)
#
#
# Indices 1 2 3 4 5 6 
#
# 1 28.9845 20.1359 25.5188 0.0000 0.0000 0.0000
# 2 20.1359 99.3583 29.2271 0.0000 0.0000 0.0000
# 3 25.5188 29.2271 91.1363 0.0000 0.0000 0.0000
# 4 0.0000 0.0000 0.0000 21.1497 0.0000 0.0000
# 5 0.0000 0.0000 0.0000 0.0000 20.0845 0.0000
# 6 0.0000 0.0000 0.0000 0.0000 0.0000 15.1709
#
#
#
# Elastic Compliance Matrix: (Units=1/GPa)
#
#
# Indices 1 2 3 4 5 6 
#
# 1 0.049379 -0.006559 -0.011723 0.000000 0.000000 0.000000
# 2 -0.006559 0.011984 -0.002007 0.000000 0.000000 0.000000
# 3 -0.011723 -0.002007 0.014899 0.000000 0.000000 0.000000
# 4 0.000000 0.000000 0.000000 0.047282 0.000000 0.000000
# 5 0.000000 0.000000 0.000000 0.000000 0.049790 0.000000
# 6 0.000000 0.000000 0.000000 0.000000 0.000000 0.065916
#
#
# Mechanical properties :
#
#
# Convention : Reuss Voigt Hill
#
# Bulk Modulus (GPa) = 28.02329 41.02696 34.52512
# Shear Modulus (GPa) = 17.13966 20.92083 19.03024
#
# Velocity S-wave (km/s) = 2.92283 3.22918 3.07981
# Velocity P-wave (km/s) = 5.03570 5.86110 5.46401
#
# Compressibility (1/GPa) = 0.03568461
#
# Stress axis : x y z
#
# Youngs Moduli (GPa) = 20.25156 83.44411 67.11995
#
# Poissons Ratio (x) = 0.54728 0.78686
# Poissons Ratio (y) = 0.13282 0.13470
# Poissons Ratio (z) = 0.23741 0.16745
#
# Static dielectric constant tensor:
#      x y z
#    x 1.730800 0.000000 0.000000 
#    y 0.000000 1.738420 0.000000 
#    z 0.000000 0.000000 1.799380 
# 
# From -- ./inp_files/13888.got.cif
#   From: 2010.05.17/outbox.cif.g08.bks.cpg/sg43_7_cif.got.tgz:13888.got - 2010.06.03 19:21:55.
