data_PCOD9370350
_publ_section_title
;
Structure prediction by ZEFSAII (Michael W. Deem and Ramdas Pophale) SiO2 
 PCOD9370350
Probable space group: F D D 2
;
_chemical_formula_sum "Si O2"
_cell_formula_units_Z 64
_cell_length_a 15.145997
_cell_length_b 7.012845
_cell_length_c 27.375348
_cell_angle_alpha 90.000000
_cell_angle_beta 90.000000
_cell_angle_gamma 90.000000
_cell_volume 2907.714454
_symmetry_space_group_name_H-M "F D D 2"
_symmetry_group_IT_number 43
_symmetry_cell_setting 'orthorhombic'
loop_
_space_group_symop_operation_xyz
x,y,z
-x,-y,z
1/4-x,1/4+y,1/4+z
1/4+x,1/4-y,1/4+z
x,1/2+y,1/2+z
-x,1/2-y,1/2+z
1/4-x,3/4+y,3/4+z
1/4+x,3/4-y,3/4+z
1/2+x,y,1/2+z
1/2-x,-y,1/2+z
3/4-x,1/4+y,3/4+z
3/4+x,1/4-y,3/4+z
1/2+x,1/2+y,z
1/2-x,1/2-y,z
3/4-x,3/4+y,1/4+z
3/4+x,3/4-y,1/4+z
loop_
_atom_site_type_symbol
_atom_site_label
_atom_site_fract_x
_atom_site_fract_y
_atom_site_fract_z
Si Si1 0.591181 0.402556 0.823750
Si Si2 0.602344 0.556418 0.263240
Si Si3 0.269665 0.481691 0.348537
Si Si4 0.161080 0.365419 0.664432
O O1 0.500000 0.500000 0.813535
O O2 0.614308 0.280208 0.775442
O O3 0.669241 0.544663 0.840808
O O4 0.573173 0.251638 0.867603
O O5 0.500000 0.500000 0.271402
O O6 0.668657 0.466294 0.303095
O O7 0.631360 0.490559 0.210130
O O8 0.250000 0.250000 0.348360
O O9 0.327093 0.512720 0.397021
O O10 0.250000 0.250000 0.674392
#
# Coordination Sequence:
#
# PCOD9370350 Si02
#       4
#    16  16  16  16
#     4  10  21  37  58  82 118 157 192 248 308 354
#     4  10  19  35  58  83 113 150 196 244 295 356
#     4   8  17  35  54  77 112 149 183 240 298 339
#     4  10  20  37  59  82 113 158 200 244 302 355
#
# _framework density 22.010414999999998
#
# number of rings (size 3 to 8) (size 9 to 14) (size 15 to 20)
#    0.000    3.000    0.000    5.250    0.000    5.000 
#    0.000    3.750    0.000    0.000    0.000    0.000 
#    0.000    0.000    0.000    0.000    0.000    0.000 
#
# Total GULP energy -89160.397962 kJ/mol
# GULP energy per Si atom -5572.524873 kJ/mol
# Density = 2.196032 g / cm^3
# Si number density = 22.010415 Si / 1000 Ang^3
#
#
#
# Elastic Constant Matrix: (Units=GPa)
#
#
# Indices 1 2 3 4 5 6 
#
# 1 186.5818 31.6339 46.6866 0.0000 0.0000 0.0000
# 2 31.6339 45.3422 30.0825 0.0000 0.0000 0.0000
# 3 46.6866 30.0825 126.1841 0.0000 0.0000 0.0000
# 4 0.0000 0.0000 0.0000 19.3866 0.0000 0.0000
# 5 0.0000 0.0000 0.0000 0.0000 22.7447 0.0000
# 6 0.0000 0.0000 0.0000 0.0000 0.0000 27.7303
#
#
#
# Elastic Compliance Matrix: (Units=1/GPa)
#
#
# Indices 1 2 3 4 5 6 
#
# 1 0.006317 -0.003393 -0.001528 0.000000 0.000000 0.000000
# 2 -0.003393 0.028021 -0.005425 0.000000 0.000000 0.000000
# 3 -0.001528 -0.005425 0.009784 0.000000 0.000000 0.000000
# 4 0.000000 0.000000 0.000000 0.051582 0.000000 0.000000
# 5 0.000000 0.000000 0.000000 0.000000 0.043966 0.000000
# 6 0.000000 0.000000 0.000000 0.000000 0.000000 0.036062
#
#
# Mechanical properties :
#
#
# Convention : Reuss Voigt Hill
#
# Bulk Modulus (GPa) = 42.68204 63.87934 53.28069
# Shear Modulus (GPa) = 24.48163 30.61932 27.55047
#
# Velocity S-wave (km/s) = 3.33870 3.73383 3.54178
# Velocity P-wave (km/s) = 5.85631 6.90463 6.40197
#
# Compressibility (1/GPa) = 0.02342906
#
# Stress axis : x y z
#
# Youngs Moduli (GPa) = 158.29447 35.68743 102.21122
#
# Poissons Ratio (x) = 0.12110 0.15621
# Poissons Ratio (y) = 0.53716 0.55447
# Poissons Ratio (z) = 0.24193 0.19359
#
# Static dielectric constant tensor:
#      x y z
#    x 1.967050 0.000000 0.000000 
#    y 0.000000 1.945170 0.000000 
#    z 0.000000 0.000000 1.761690 
# 
# From -- ./inp_files/19919.got.cif
#   From: 2010.05.17/outbox.cif.g08.bks.cpg/sg43_10_cif.got.tgz:19919.got - 2010.06.03 19:21:55.
