data_PCOD9370240
_publ_section_title
;
Structure prediction by ZEFSAII (Michael W. Deem and Ramdas Pophale) SiO2 
 PCOD9370240
Probable space group: F D D 2
;
_chemical_formula_sum "Si O2"
_cell_formula_units_Z 112
_cell_length_a 12.848933
_cell_length_b 15.757723
_cell_length_c 24.202386
_cell_angle_alpha 90.000000
_cell_angle_beta 90.000000
_cell_angle_gamma 90.000000
_cell_volume 4900.255328
_symmetry_space_group_name_H-M "F D D 2"
_symmetry_group_IT_number 43
_symmetry_cell_setting 'orthorhombic'
loop_
_space_group_symop_operation_xyz
x,y,z
-x,-y,z
1/4-x,1/4+y,1/4+z
1/4+x,1/4-y,1/4+z
x,1/2+y,1/2+z
-x,1/2-y,1/2+z
1/4-x,3/4+y,3/4+z
1/4+x,3/4-y,3/4+z
1/2+x,y,1/2+z
1/2-x,-y,1/2+z
3/4-x,1/4+y,3/4+z
3/4+x,1/4-y,3/4+z
1/2+x,1/2+y,z
1/2-x,1/2-y,z
3/4-x,3/4+y,1/4+z
3/4+x,3/4-y,1/4+z
loop_
_atom_site_type_symbol
_atom_site_label
_atom_site_fract_x
_atom_site_fract_y
_atom_site_fract_z
Si Si1 0.164403 0.818764 0.422640
Si Si2 0.449040 0.412824 0.041643
Si Si3 0.493741 0.090498 0.053505
Si Si4 0.550797 0.084352 0.365583
Si Si5 0.331557 0.144371 0.416311
Si Si6 0.536753 0.783234 0.213354
Si Si7 0.034731 0.247101 0.479323
O O1 0.250000 0.750000 0.443490
O O2 0.186586 0.827840 0.358135
O O3 0.186491 0.910318 0.449347
O O4 0.052834 0.781525 0.435825
O O5 0.500000 0.500000 0.020954
O O6 0.471360 0.404263 0.106746
O O7 0.331494 0.431901 0.021465
O O8 0.492463 0.329240 0.012492
O O9 0.377937 0.115569 0.074996
O O10 0.500000 0.000000 0.023753
O O11 0.539453 0.168265 0.020117
O O12 0.450302 0.123155 0.395426
O O13 0.629046 0.060018 0.415866
O O14 0.500000 0.000000 0.338328
O O15 0.357534 0.227626 0.451232
O O16 0.283750 0.067932 0.452950
#
# Coordination Sequence:
#
# PCOD9370240 Si02
#       7
#    16  16  16  16  16  16  16
#     4  10  19  35  58  94 127 159 209 272 320 385
#     4  12  22  38  64  95 131 171 211 276 341 395
#     4  10  22  37  56  88 132 168 206 261 324 379
#     4   9  16  33  58  90 120 154 201 265 319 379
#     4  11  22  36  62  91 128 169 214 261 329 398
#     4  10  18  37  56  93 133 158 204 269 328 375
#     4  12  22  39  63  92 129 173 217 267 326 389
#
# _framework density 22.855951000000001
#
# number of rings (size 3 to 8) (size 9 to 14) (size 15 to 20)
#    0.000    1.429    4.286    4.714    2.000    0.571 
#    0.000    2.857    0.000    0.000    0.000    0.000 
#    0.000    0.000    0.000    0.000    0.000    0.000 
#
# Total GULP energy -156417.058881 kJ/mol
# GULP energy per Si atom -5586.323531 kJ/mol
# Density = 2.280393 g / cm^3
# Si number density = 22.855951 Si / 1000 Ang^3
#
#
#
# Elastic Constant Matrix: (Units=GPa)
#
#
# Indices 1 2 3 4 5 6 
#
# 1 75.0500 51.8256 16.0308 0.0000 0.0000 0.0000
# 2 51.8256 172.2892 58.1585 0.0000 0.0000 0.0000
# 3 16.0308 58.1585 90.6637 0.0000 0.0000 0.0000
# 4 0.0000 0.0000 0.0000 33.4604 0.0000 0.0000
# 5 0.0000 0.0000 0.0000 0.0000 13.7185 0.0000
# 6 0.0000 0.0000 0.0000 0.0000 0.0000 33.9731
#
#
#
# Elastic Compliance Matrix: (Units=1/GPa)
#
#
# Indices 1 2 3 4 5 6 
#
# 1 0.016826 -0.005179 0.000347 0.000000 0.000000 0.000000
# 2 -0.005179 0.009002 -0.004859 0.000000 0.000000 0.000000
# 3 0.000347 -0.004859 0.014085 0.000000 0.000000 0.000000
# 4 0.000000 0.000000 0.000000 0.029886 0.000000 0.000000
# 5 0.000000 0.000000 0.000000 0.000000 0.072894 0.000000
# 6 0.000000 0.000000 0.000000 0.000000 0.000000 0.029435
#
#
# Mechanical properties :
#
#
# Convention : Reuss Voigt Hill
#
# Bulk Modulus (GPa) = 48.70366 65.55918 57.13142
# Shear Modulus (GPa) = 25.20734 30.36294 27.78514
#
# Velocity S-wave (km/s) = 3.32456 3.64874 3.49042
# Velocity P-wave (km/s) = 6.00768 6.81887 6.42609
#
# Compressibility (1/GPa) = 0.02053234
#
# Stress axis : x y z
#
# Youngs Moduli (GPa) = 59.43036 111.08460 70.99551
#
# Poissons Ratio (x) = 0.57525 -0.02462
# Poissons Ratio (y) = 0.30776 0.34497
# Poissons Ratio (z) = -0.02061 0.53976
#
# Static dielectric constant tensor:
#      x y z
#    x 1.867960 0.000000 0.000000 
#    y 0.000000 1.943940 0.000000 
#    z 0.000000 0.000000 1.894330 
# 
# From -- ./inp_files/25632.got.cif
#   From: 2010.05.17/outbox.cif.g08.bks.cpg/sg43_13_cif.got.tgz:25632.got - 2010.06.03 19:21:55.
