data_PCOD9370052
_publ_section_title
;
Structure prediction by ZEFSAII (Michael W. Deem and Ramdas Pophale) SiO2 
 PCOD9370052
Probable space group: F D D 2
;
_chemical_formula_sum "Si O2"
_cell_formula_units_Z 112
_cell_length_a 23.551590
_cell_length_b 7.460616
_cell_length_c 28.739083
_cell_angle_alpha 90.000000
_cell_angle_beta 90.000000
_cell_angle_gamma 90.000000
_cell_volume 5049.726145
_symmetry_space_group_name_H-M "F D D 2"
_symmetry_group_IT_number 43
_symmetry_cell_setting 'orthorhombic'
loop_
_space_group_symop_operation_xyz
x,y,z
-x,-y,z
1/4-x,1/4+y,1/4+z
1/4+x,1/4-y,1/4+z
x,1/2+y,1/2+z
-x,1/2-y,1/2+z
1/4-x,3/4+y,3/4+z
1/4+x,3/4-y,3/4+z
1/2+x,y,1/2+z
1/2-x,-y,1/2+z
3/4-x,1/4+y,3/4+z
3/4+x,1/4-y,3/4+z
1/2+x,1/2+y,z
1/2-x,1/2-y,z
3/4-x,3/4+y,1/4+z
3/4+x,3/4-y,1/4+z
loop_
_atom_site_type_symbol
_atom_site_label
_atom_site_fract_x
_atom_site_fract_y
_atom_site_fract_z
Si Si1 0.315142 0.369704 0.739590
Si Si2 0.362545 0.258206 0.272841
Si Si3 0.682917 0.244419 0.342563
Si Si4 0.670558 0.902891 0.931928
Si Si5 0.207662 0.990743 0.955518
Si Si6 0.462994 0.176984 0.445947
Si Si7 0.113135 0.610615 0.624470
O O1 0.340024 0.562615 0.756506
O O2 0.314427 0.255170 0.786943
O O3 0.362647 0.290641 0.705863
O O4 0.258384 0.424092 0.711575
O O5 0.426662 0.291677 0.254591
O O6 0.324103 0.388558 0.242081
O O7 0.355848 0.254905 0.328020
O O8 0.750000 0.250000 0.355888
O O9 0.661615 0.401344 0.376403
O O10 0.646177 0.066882 0.355928
O O11 0.724912 0.003703 0.952580
O O12 0.685205 0.692479 0.942787
O O13 0.183612 0.860171 0.915483
O O14 0.421191 0.185655 0.401565
O O15 0.500000 0.000000 0.436787
#
# Coordination Sequence:
#
# PCOD9370052 Si02
#       7
#    16  16  16  16  16  16  16
#     4   9  18  27  43  70  95 126 155 203 256 293
#     4   8  15  25  41  64  92 121 158 188 242 297
#     4  10  16  28  48  68  93 126 167 202 254 310
#     4   9  14  27  42  62 100 119 155 199 242 294
#     4   8  13  24  40  62  94 121 147 198 237 283
#     4   9  16  29  42  63 100 122 152 203 250 291
#     4   9  15  26  43  68  90 127 160 195 253 293
#
# _framework density 22.179421000000001
#
# number of rings (size 3 to 8) (size 9 to 14) (size 15 to 20)
#    0.000    3.143    2.857    2.571    0.000    0.000 
#   10.286    0.000    0.000    1.714    3.714    0.000 
#    0.000    0.000    0.000    0.000    0.000    0.000 
#
# Total GULP energy -155986.881317 kJ/mol
# GULP energy per Si atom -5570.960047 kJ/mol
# Density = 2.212894 g / cm^3
# Si number density = 22.179421 Si / 1000 Ang^3
#
#
#
# Elastic Constant Matrix: (Units=GPa)
#
#
# Indices 1 2 3 4 5 6 
#
# 1 132.1959 19.4911 69.1756 0.0001 0.0000 0.0004
# 2 19.4911 52.2875 25.9569 0.0004 0.0000 0.0008
# 3 69.1756 25.9569 128.9360 0.0000 0.0000 -0.0001
# 4 0.0001 0.0004 0.0000 21.9546 0.0000 -0.0001
# 5 0.0000 0.0000 0.0000 0.0000 28.9682 0.0000
# 6 0.0004 0.0008 -0.0001 -0.0001 0.0000 5.9735
#
#
#
# Elastic Compliance Matrix: (Units=1/GPa)
#
#
# Indices 1 2 3 4 5 6 
#
# 1 0.010590 -0.001252 -0.005430 0.000000 0.000000 -0.000001
# 2 -0.001252 0.021397 -0.003636 0.000000 0.000000 -0.000003
# 3 -0.005430 -0.003636 0.011401 0.000000 0.000000 0.000001
# 4 0.000000 0.000000 0.000000 0.045549 0.000000 0.000001
# 5 0.000000 0.000000 0.000000 0.000000 0.034521 0.000000
# 6 -0.000001 -0.000003 0.000001 0.000001 0.000000 0.167406
#
#
# Mechanical properties :
#
#
# Convention : Reuss Voigt Hill
#
# Bulk Modulus (GPa) = 43.95112 60.29628 52.12370
# Shear Modulus (GPa) = 15.66989 24.63231 20.15110
#
# Velocity S-wave (km/s) = 2.66090 3.33617 3.01749
# Velocity P-wave (km/s) = 5.41292 6.48728 5.97430
#
# Compressibility (1/GPa) = 0.02275255
#
# Stress axis : x y z
#
# Youngs Moduli (GPa) = 94.42439 46.73626 87.71283
#
# Poissons Ratio (x) = 0.05853 0.47626
# Poissons Ratio (y) = 0.11825 0.31889
# Poissons Ratio (z) = 0.51271 0.16992
#
# Static dielectric constant tensor:
#      x y z
#    x 1.810320 0.000000 0.000000 
#    y 0.000000 1.909480 0.000000 
#    z 0.000000 0.000000 1.809700 
# 
# From -- ./inp_files/26422.got.cif
#   From: 2010.05.17/outbox.cif.g08.bks.cpg/sg43_14_cif.got.tgz:26422.got - 2010.06.03 19:21:55.
