data_PCOD9370026
_publ_section_title
;
Structure prediction by ZEFSAII (Michael W. Deem and Ramdas Pophale) SiO2 
 PCOD9370026
Probable space group: F M M 2
;
_chemical_formula_sum "Si O2"
_cell_formula_units_Z 20
_cell_length_a 18.000000
_cell_length_b 9.000000
_cell_length_c 27.000000
_cell_angle_alpha 90.000000
_cell_angle_beta 90.000000
_cell_angle_gamma 90.000000
_cell_volume 4374.000000
_symmetry_space_group_name_H-M "F M M 2"
_symmetry_group_IT_number 42
_symmetry_cell_setting 'orthorhombic'
loop_
_space_group_symop_operation_xyz
x,y,z
-x,-y,z
-x,y,z
x,-y,z
x,1/2+y,1/2+z
-x,1/2-y,1/2+z
-x,1/2+y,1/2+z
x,1/2-y,1/2+z
1/2+x,y,1/2+z
1/2-x,-y,1/2+z
1/2-x,y,1/2+z
1/2+x,-y,1/2+z
1/2+x,1/2+y,z
1/2-x,1/2-y,z
1/2-x,1/2+y,z
1/2+x,1/2-y,z
loop_
_atom_site_type_symbol
_atom_site_label
_atom_site_fract_x
_atom_site_fract_y
_atom_site_fract_z
Si Si1 0.410743 0.176796 0.922000
Si Si2 0.668755 0.821537 0.629310
Si Si3 0.588754 0.322587 0.535026
Si Si4 0.668366 0.678229 0.827658
Si Si5 0.588176 0.177521 0.733146
O O1 0.500000 0.195391 0.918325
O O2 0.371526 0.265323 0.877958
O O3 0.395448 0.000000 0.916355
O O4 0.388840 0.220064 0.978523
O O5 0.750000 0.750000 0.632601
O O6 0.629159 0.760949 0.579689
O O7 0.624018 0.783605 0.679841
O O8 0.673650 0.000000 0.626600
O O9 0.500000 0.298141 0.538825
O O10 0.601693 0.500000 0.539693
O O11 0.672451 0.500000 0.827230
O O12 0.750000 0.750000 0.826177
O O13 0.624605 0.736175 0.779066
O O14 0.500000 0.205002 0.731683
O O15 0.599634 0.000000 0.740818
#
# Coordination Sequence:
#
# PCOD9370026 Si02
#       5
#    16  16  16  16  16
#     4   9  19  38  62  86 115 151 189 232 284 339
#     4  11  23  38  58  85 117 153 191 233 283 336
#     4   9  19  37  61  87 115 150 191 234 282 336
#     4  12  25  39  58  85 116 151 191 235 284 336
#     4  10  22  41  63  86 114 148 186 231 285 342
#
# _framework density 4.5724739999999997
#
# number of rings (size 3 to 8) (size 9 to 14) (size 15 to 20)
#    0.000    1.800    0.000    5.400    0.000    9.200 
#    0.000    2.000    0.000    0.000    0.000    0.000 
#    0.000    0.000    0.000    0.000    0.000    0.000 
#
# Total GULP energy -111752.551178 kJ/mol
# GULP energy per Si atom -5587.627559 kJ/mol
# Density = 0.456207 g / cm^3
# Si number density = 4.572474 Si / 1000 Ang^3
#
#
#
# Elastic Constant Matrix: (Units=GPa)
#
#
# Indices 1 2 3 4 5 6 
#
# 1 114.6982 74.3404 104.6879 0.0000 0.0000 0.0000
# 2 74.3404 104.4792 103.8723 0.0000 0.0000 0.0000
# 3 104.6879 103.8723 222.3333 0.0000 0.0000 0.0000
# 4 0.0000 0.0000 0.0000 40.8827 0.0000 0.0000
# 5 0.0000 0.0000 0.0000 0.0000 23.5629 0.0000
# 6 0.0000 0.0000 0.0000 0.0000 0.0000 27.8482
#
#
#
# Elastic Compliance Matrix: (Units=1/GPa)
#
#
# Indices 1 2 3 4 5 6 
#
# 1 0.018572 -0.008441 -0.004801 0.000000 0.000000 0.000000
# 2 -0.008441 0.021710 -0.006168 0.000000 0.000000 0.000000
# 3 -0.004801 -0.006168 0.009640 0.000000 0.000000 0.000000
# 4 0.000000 0.000000 0.000000 0.024460 0.000000 0.000000
# 5 0.000000 0.000000 0.000000 0.000000 0.042440 0.000000
# 6 0.000000 0.000000 0.000000 0.000000 0.000000 0.035909
#
#
# Mechanical properties :
#
#
# Convention : Reuss Voigt Hill
#
# Bulk Modulus (GPa) = 90.08266 111.92354 101.00310
# Shear Modulus (GPa) = 25.60818 29.03277 27.32047
#
# Velocity S-wave (km/s) = 3.74589 3.98850 3.86910
# Velocity P-wave (km/s) = 8.25036 9.08504 8.67774
#
# Compressibility (1/GPa) = 0.01110092
#
# Stress axis : x y z
#
# Youngs Moduli (GPa) = 53.84579 46.06268 103.73541
#
# Poissons Ratio (x) = 0.38883 0.49803
# Poissons Ratio (y) = 0.45452 0.63983
# Poissons Ratio (z) = 0.25851 0.28411
#
# Static dielectric constant tensor:
#      x y z
#    x 1.614440 0.000000 0.000000 
#    y 0.000000 1.611860 0.000000 
#    z 0.000000 0.000000 1.609260 
# 
# From -- ./inp_files/31256.got.cif
#   From: 2010.05.17/outbox.ucp.g08.bks.cvg/sg42_16_cif.got.tgz:31256.got - 2010.06.11 16:29:10.
