data_PCOD9370965
_publ_section_title
;
Structure prediction by ZEFSAII (Michael W. Deem and Ramdas Pophale) SiO2 
 PCOD9370965
Probable space group: F D D 2
;
_chemical_formula_sum "Si O2"
_cell_formula_units_Z 120
_cell_length_a 25.157360
_cell_length_b 27.179579
_cell_length_c 8.246571
_cell_angle_alpha 90.000000
_cell_angle_beta 90.000000
_cell_angle_gamma 90.000000
_cell_volume 5638.728607
_symmetry_space_group_name_H-M "F D D 2"
_symmetry_group_IT_number 43
_symmetry_cell_setting 'orthorhombic'
loop_
_space_group_symop_operation_xyz
x,y,z
-x,-y,z
1/4-x,1/4+y,1/4+z
1/4+x,1/4-y,1/4+z
x,1/2+y,1/2+z
-x,1/2-y,1/2+z
1/4-x,3/4+y,3/4+z
1/4+x,3/4-y,3/4+z
1/2+x,y,1/2+z
1/2-x,-y,1/2+z
3/4-x,1/4+y,3/4+z
3/4+x,1/4-y,3/4+z
1/2+x,1/2+y,z
1/2-x,1/2-y,z
3/4-x,3/4+y,1/4+z
3/4+x,3/4-y,1/4+z
loop_
_atom_site_type_symbol
_atom_site_label
_atom_site_fract_x
_atom_site_fract_y
_atom_site_fract_z
Si Si1 0.043398 0.600354 0.166790
Si Si2 0.347681 0.414748 0.555083
Si Si3 0.191950 0.584633 0.424377
Si Si4 0.750000 0.250000 0.269034
Si Si5 0.247272 0.431066 0.404363
Si Si6 0.118087 0.978080 0.437114
Si Si7 0.651707 0.393295 0.694530
Si Si8 0.053257 0.744817 0.910830
O O1 0.093957 0.609427 0.048567
O O2 0.069601 0.599692 0.344113
O O3 0.001402 0.644487 0.175553
O O4 0.016707 0.548761 0.119546
O O5 0.327114 0.412776 0.739005
O O6 0.299649 0.398060 0.438723
O O7 0.359716 0.471321 0.512861
O O8 0.153059 0.622990 0.515599
O O9 0.184872 0.533098 0.514901
O O10 0.695871 0.233353 0.177552
O O11 0.194981 0.409655 0.323178
O O12 0.267056 0.474607 0.286300
O O13 0.230235 0.452388 0.577166
O O14 0.136125 0.935446 0.562561
O O15 0.146444 0.975901 0.262540
#
# Coordination Sequence:
#
# PCOD9370965 Si02
#       8
#    16  16  16   8  16  16  16  16
#     4  10  21  39  65  88 123 166 217 257 310 392
#     4   9  22  37  60  91 119 165 206 251 318 376
#     4  11  21  40  62  90 124 167 209 264 311 387
#     4  10  20  44  68  88 128 176 218 260 328 396
#     4  11  21  39  62  94 125 161 203 264 320 373
#     4  10  21  40  65  94 126 168 213 263 323 392
#     4  11  22  39  65  95 128 163 217 262 321 385
#     4  11  22  37  65  93 128 158 209 266 326 374
#
# _framework density 21.281393000000001
#
# number of rings (size 3 to 8) (size 9 to 14) (size 15 to 20)
#    0.000    1.600    2.667    3.200    1.867    0.000 
#    7.200    0.000    5.867    0.000    0.000    0.000 
#    0.000    0.000    0.000    0.000    0.000    0.000 
#
# Total GULP energy -167375.193671 kJ/mol
# GULP energy per Si atom -5579.173122 kJ/mol
# Density = 2.123296 g / cm^3
# Si number density = 21.281393 Si / 1000 Ang^3
#
#
#
# Elastic Constant Matrix: (Units=GPa)
#
#
# Indices 1 2 3 4 5 6 
#
# 1 167.3380 22.8704 36.1038 -0.0003 0.0008 0.0003
# 2 22.8704 46.3221 -3.7320 0.0003 -0.0001 0.0002
# 3 36.1038 -3.7320 46.6799 0.0020 -0.0018 -0.0004
# 4 -0.0003 0.0003 0.0020 17.7184 -0.0010 0.0001
# 5 0.0008 -0.0001 -0.0018 -0.0010 33.8436 -0.0002
# 6 0.0003 0.0002 -0.0004 0.0001 -0.0002 26.1260
#
#
#
# Elastic Compliance Matrix: (Units=1/GPa)
#
#
# Indices 1 2 3 4 5 6 
#
# 1 0.008000 -0.004477 -0.006545 0.000001 -0.000001 0.000000
# 2 -0.004477 0.024234 0.005400 -0.000001 0.000000 0.000000
# 3 -0.006545 0.005400 0.026917 -0.000003 0.000002 0.000000
# 4 0.000001 -0.000001 -0.000003 0.056438 0.000002 0.000000
# 5 -0.000001 0.000000 0.000002 0.000002 0.029548 0.000000
# 6 0.000000 0.000000 0.000000 0.000000 0.000000 0.038276
#
#
# Mechanical properties :
#
#
# Convention : Reuss Voigt Hill
#
# Bulk Modulus (GPa) = 20.87444 41.20272 31.03858
# Shear Modulus (GPa) = 23.73881 29.21081 26.47481
#
# Velocity S-wave (km/s) = 3.34349 3.70888 3.53092
# Velocity P-wave (km/s) = 4.97346 6.14361 5.58924
#
# Compressibility (1/GPa) = 0.04790549
#
# Stress axis : x y z
#
# Youngs Moduli (GPa) = 124.99955 41.26518 37.15167
#
# Poissons Ratio (x) = 0.18475 0.24317
# Poissons Ratio (y) = 0.55964 -0.20063
# Poissons Ratio (z) = 0.81818 -0.22284
#
# Static dielectric constant tensor:
#      x y z
#    x 1.844530 0.000000 0.000000 
#    y 0.000000 1.787110 0.000000 
#    z 0.000000 0.000000 1.766080 
# 
# From -- ./inp_files/3884.got.cif
#   From: 2010.05.17/outbox.cif.g08.bks.cpg/sg43_2_cif.got.tgz:3884.got - 2010.06.03 19:21:55.
