data_PCOD9370125
_publ_section_title
;
Structure prediction by ZEFSAII (Michael W. Deem and Ramdas Pophale) SiO2 
 PCOD9370125
Probable space group: F D D 2
;
_chemical_formula_sum "Si O2"
_cell_formula_units_Z 120
_cell_length_a 22.722198
_cell_length_b 9.139965
_cell_length_c 32.693932
_cell_angle_alpha 90.000000
_cell_angle_beta 90.000000
_cell_angle_gamma 90.000000
_cell_volume 6789.878885
_symmetry_space_group_name_H-M "F D D 2"
_symmetry_group_IT_number 43
_symmetry_cell_setting 'orthorhombic'
loop_
_space_group_symop_operation_xyz
x,y,z
-x,-y,z
1/4-x,1/4+y,1/4+z
1/4+x,1/4-y,1/4+z
x,1/2+y,1/2+z
-x,1/2-y,1/2+z
1/4-x,3/4+y,3/4+z
1/4+x,3/4-y,3/4+z
1/2+x,y,1/2+z
1/2-x,-y,1/2+z
3/4-x,1/4+y,3/4+z
3/4+x,1/4-y,3/4+z
1/2+x,1/2+y,z
1/2-x,1/2-y,z
3/4-x,3/4+y,1/4+z
3/4+x,3/4-y,1/4+z
loop_
_atom_site_type_symbol
_atom_site_label
_atom_site_fract_x
_atom_site_fract_y
_atom_site_fract_z
Si Si1 0.565792 0.234962 0.882230
Si Si2 0.142243 0.510257 0.839143
Si Si3 0.347727 0.055188 0.509583
Si Si4 0.049724 0.278822 0.826846
Si Si5 0.961166 0.128800 0.964521
Si Si6 0.898596 0.538949 0.315906
Si Si7 0.760307 0.075102 0.802539
Si Si8 0.250000 0.250000 0.509318
O O1 0.615042 0.111909 0.874345
O O2 0.503733 0.204292 0.859108
O O3 0.554557 0.257962 0.929705
O O4 0.588841 0.379817 0.858841
O O5 0.118815 0.597623 0.798646
O O6 0.109180 0.356912 0.842006
O O7 0.211814 0.500527 0.831800
O O8 0.403728 0.045790 0.481113
O O9 0.299031 0.153923 0.487212
O O10 0.330365 0.901386 0.530047
O O11 0.028821 0.375888 0.788327
O O12 0.066614 0.113167 0.815881
O O13 0.000000 0.000000 0.945564
O O14 0.992630 0.195826 0.004743
O O15 0.827693 0.530660 0.310203
O O16 0.750000 0.250000 0.809175
#
# Coordination Sequence:
#
# PCOD9370125 Si02
#       8
#    16  16  16  16  16  16  16   8
#     4  11  19  32  55  88 105 141 187 235 285 339
#     4   9  18  34  55  72 107 146 184 225 276 331
#     4   9  17  32  51  76 105 147 182 225 276 336
#     4  11  19  31  54  82 110 137 183 241 280 320
#     4  10  18  31  54  80 115 142 180 236 296 330
#     4  11  19  31  56  84 106 140 200 224 271 350
#     4  10  17  36  56  78 108 149 186 231 280 345
#     4  10  18  34  54  72 110 142 184 234 274 326
#
# _framework density 17.673362999999998
#
# number of rings (size 3 to 8) (size 9 to 14) (size 15 to 20)
#    0.000    1.867    9.333    1.200    0.000    0.533 
#    0.000    1.333   17.600    0.000    0.000    1.867 
#    0.000    0.000    0.000    0.000    0.000    0.000 
#
# Total GULP energy -167001.426458 kJ/mol
# GULP energy per Si atom -5566.714215 kJ/mol
# Density = 1.763314 g / cm^3
# Si number density = 17.673363 Si / 1000 Ang^3
#
#
#
# Elastic Constant Matrix: (Units=GPa)
#
#
# Indices 1 2 3 4 5 6 
#
# 1 90.1287 22.2408 19.1315 0.0000 0.0000 0.0000
# 2 22.2408 75.5268 3.8701 0.0000 0.0000 -0.0001
# 3 19.1315 3.8701 38.5108 0.0000 0.0000 0.0000
# 4 0.0000 0.0000 0.0000 7.8487 0.0000 0.0000
# 5 0.0000 0.0000 0.0000 0.0000 13.6056 0.0000
# 6 0.0000 -0.0001 0.0000 0.0000 0.0000 26.2986
#
#
#
# Elastic Compliance Matrix: (Units=1/GPa)
#
#
# Indices 1 2 3 4 5 6 
#
# 1 0.013310 -0.003599 -0.006251 0.000000 0.000000 0.000000
# 2 -0.003599 0.014282 0.000353 0.000000 0.000000 0.000000
# 3 -0.006251 0.000353 0.029036 0.000000 0.000000 0.000000
# 4 0.000000 0.000000 0.000000 0.127410 0.000000 0.000000
# 5 0.000000 0.000000 0.000000 0.000000 0.073499 0.000000
# 6 0.000000 0.000000 0.000000 0.000000 0.000000 0.038025
#
#
# Mechanical properties :
#
#
# Convention : Reuss Voigt Hill
#
# Bulk Modulus (GPa) = 26.57121 32.73900 29.65511
# Shear Modulus (GPa) = 15.28576 20.14550 17.71563
#
# Velocity S-wave (km/s) = 2.94412 3.37987 3.16949
# Velocity P-wave (km/s) = 5.15988 5.81344 5.49638
#
# Compressibility (1/GPa) = 0.03763472
#
# Stress axis : x y z
#
# Youngs Moduli (GPa) = 75.13028 70.01748 34.43950
#
# Poissons Ratio (x) = 0.25201 0.21527
# Poissons Ratio (y) = 0.27041 -0.01215
# Poissons Ratio (z) = 0.46961 -0.02470
#
# Static dielectric constant tensor:
#      x y z
#    x 1.684660 0.000000 0.000000 
#    y 0.000000 1.627490 0.000000 
#    z 0.000000 0.000000 1.588190 
# 
# From -- ./inp_files/29880.got.cif
#   From: 2010.05.17/outbox.cif.g08.bks.cpg/sg43_15_cif.got.tgz:29880.got - 2010.06.03 19:21:55.
