data_PCOD9370998
_publ_section_title
;
Structure prediction by ZEFSAII (Michael W. Deem and Ramdas Pophale) SiO2 
 PCOD9370998
Probable space group: F D D 2
;
_chemical_formula_sum "Si O2"
_cell_formula_units_Z 80
_cell_length_a 22.730202
_cell_length_b 16.470646
_cell_length_c 8.372834
_cell_angle_alpha 90.000000
_cell_angle_beta 90.000000
_cell_angle_gamma 90.000000
_cell_volume 3134.630892
_symmetry_space_group_name_H-M "F D D 2"
_symmetry_group_IT_number 43
_symmetry_cell_setting 'orthorhombic'
loop_
_space_group_symop_operation_xyz
x,y,z
-x,-y,z
1/4-x,1/4+y,1/4+z
1/4+x,1/4-y,1/4+z
x,1/2+y,1/2+z
-x,1/2-y,1/2+z
1/4-x,3/4+y,3/4+z
1/4+x,3/4-y,3/4+z
1/2+x,y,1/2+z
1/2-x,-y,1/2+z
3/4-x,1/4+y,3/4+z
3/4+x,1/4-y,3/4+z
1/2+x,1/2+y,z
1/2-x,1/2-y,z
3/4-x,3/4+y,1/4+z
3/4+x,3/4-y,1/4+z
loop_
_atom_site_type_symbol
_atom_site_label
_atom_site_fract_x
_atom_site_fract_y
_atom_site_fract_z
Si Si1 0.661154 0.750983 0.600240
Si Si2 0.065501 0.894270 0.843225
Si Si3 0.436944 0.272409 0.158512
Si Si4 0.250000 0.250000 0.839282
Si Si5 0.057727 0.313647 0.812099
Si Si6 0.750000 0.750000 0.325990
O O1 0.706042 0.796318 0.722262
O O2 0.668182 0.652797 0.608718
O O3 0.598601 0.776499 0.670151
O O4 0.692226 0.766102 0.431126
O O5 0.069827 0.804360 0.777552
O O6 0.127615 0.925281 0.908253
O O7 0.043659 0.947272 0.693326
O O8 0.943229 0.739323 0.975599
O O9 0.493627 0.315150 0.233534
O O10 0.515630 0.422121 0.968166
#
# Coordination Sequence:
#
# PCOD9370998 Si02
#       6
#    16  16  16   8  16   8
#     4  11  26  49  79 118 165 220 271 349 411 505
#     4  11  26  49  81 116 162 220 271 350 406 505
#     4  12  28  49  80 119 164 219 285 335 427 492
#     4  10  20  48  78 106 152 212 270 322 420 468
#     4  12  28  48  81 120 166 217 285 336 424 495
#     4  10  28  46  80 116 162 216 270 334 424 486
#
# _framework density 25.521343999999999
#
# number of rings (size 3 to 8) (size 9 to 14) (size 15 to 20)
#    0.000    0.800    4.000    0.000   11.200    1.600 
#    0.000    0.000    0.000    0.000    0.000    0.000 
#    0.000    0.000    0.000    0.000    0.000    0.000 
#
# Total GULP energy -111959.470568 kJ/mol
# GULP energy per Si atom -5597.973528 kJ/mol
# Density = 2.546326 g / cm^3
# Si number density = 25.521344 Si / 1000 Ang^3
#
#
#
# Elastic Constant Matrix: (Units=GPa)
#
#
# Indices 1 2 3 4 5 6 
#
# 1 122.8864 54.1556 46.8040 0.0000 0.0000 0.0000
# 2 54.1556 133.1045 50.1369 0.0000 0.0000 0.0000
# 3 46.8040 50.1369 166.1325 -0.0001 0.0000 0.0000
# 4 0.0000 0.0000 -0.0001 49.9279 0.0000 0.0000
# 5 0.0000 0.0000 0.0000 0.0000 63.6329 0.0000
# 6 0.0000 0.0000 0.0000 0.0000 0.0000 34.4058
#
#
#
# Elastic Compliance Matrix: (Units=1/GPa)
#
#
# Indices 1 2 3 4 5 6 
#
# 1 0.010404 -0.003530 -0.001866 0.000000 0.000000 0.000000
# 2 -0.003530 0.009674 -0.001925 0.000000 0.000000 0.000000
# 3 -0.001866 -0.001925 0.007126 0.000000 0.000000 0.000000
# 4 0.000000 0.000000 0.000000 0.020029 0.000000 0.000000
# 5 0.000000 0.000000 0.000000 0.000000 0.015715 0.000000
# 6 0.000000 0.000000 0.000000 0.000000 0.000000 0.029065
#
#
# Mechanical properties :
#
#
# Convention : Reuss Voigt Hill
#
# Bulk Modulus (GPa) = 79.60389 80.47962 80.04176
# Shear Modulus (GPa) = 45.10908 47.66178 46.38543
#
# Velocity S-wave (km/s) = 4.20873 4.32618 4.26786
# Velocity P-wave (km/s) = 7.40788 7.52045 7.46438
#
# Compressibility (1/GPa) = 0.01256220
#
# Stress axis : x y z
#
# Youngs Moduli (GPa) = 96.11726 103.36613 140.33390
#
# Poissons Ratio (x) = 0.36491 0.26182
# Poissons Ratio (y) = 0.33932 0.27015
# Poissons Ratio (z) = 0.17932 0.19898
#
# Static dielectric constant tensor:
#      x y z
#    x 1.984350 0.000000 0.000000 
#    y 0.000000 2.097260 0.000000 
#    z 0.000000 0.000000 2.076410 
# 
# From -- ./inp_files/7509.got.cif
#   From: 2010.05.17/outbox.cif.g08.bks.cpg/sg43_4_cif.got.tgz:7509.got - 2010.06.03 19:21:55.
