data_PCOD9370017
_publ_section_title
;
Structure prediction by ZEFSAII (Michael W. Deem and Ramdas Pophale) SiO2 
 PCOD9370017
Probable space group: F M M 2
;
_chemical_formula_sum "Si O2"
_cell_formula_units_Z 20
_cell_length_a 27.000000
_cell_length_b 9.000000
_cell_length_c 18.000000
_cell_angle_alpha 90.000000
_cell_angle_beta 90.000000
_cell_angle_gamma 90.000000
_cell_volume 4374.000000
_symmetry_space_group_name_H-M "F M M 2"
_symmetry_group_IT_number 42
_symmetry_cell_setting 'orthorhombic'
loop_
_space_group_symop_operation_xyz
x,y,z
-x,-y,z
-x,y,z
x,-y,z
x,1/2+y,1/2+z
-x,1/2-y,1/2+z
-x,1/2+y,1/2+z
x,1/2-y,1/2+z
1/2+x,y,1/2+z
1/2-x,-y,1/2+z
1/2-x,y,1/2+z
1/2+x,-y,1/2+z
1/2+x,1/2+y,z
1/2-x,1/2-y,z
1/2-x,1/2+y,z
1/2+x,1/2-y,z
loop_
_atom_site_type_symbol
_atom_site_label
_atom_site_fract_x
_atom_site_fract_y
_atom_site_fract_z
Si Si1 0.803037 0.319236 0.865330
Si Si2 0.000000 0.677170 0.372547
Si Si3 0.198540 0.820845 0.029740
Si Si4 0.000000 0.320617 0.034509
Si Si5 0.404743 0.178950 0.617686
Si Si6 0.602032 0.820599 0.281267
O O1 0.801531 0.500000 0.863314
O O2 0.750000 0.250000 0.838986
O O3 0.850258 0.255806 0.820248
O O4 0.808484 0.258307 0.949781
O O5 0.050518 0.707123 0.326167
O O6 0.000000 0.500000 0.390208
O O7 0.000000 0.769932 0.448519
O O8 0.250000 0.750000 0.060704
O O9 0.148728 0.796010 0.077797
O O10 0.204645 0.000000 0.020524
O O11 0.950561 0.252088 0.072779
O O12 0.000000 0.500000 0.041413
O O13 0.403299 0.252153 0.699139
O O14 0.411943 0.000000 0.621991
O O15 0.608877 0.000000 0.278520
#
# Coordination Sequence:
#
# PCOD9370017 Si02
#       6
#    16   8  16   8  16  16
#     4  11  22  38  61  88 119 157 201 247 296 350
#     4  10  23  42  63  87 117 155 195 240 295 354
#     4  10  21  38  61  88 118 155 198 245 296 350
#     4  12  25  40  63  91 117 153 199 246 295 348
#     4  11  24  41  61  87 122 160 197 241 296 356
#     4  11  23  40  62  89 122 157 197 244 296 355
#
# _framework density 4.5724739999999997
#
# number of rings (size 3 to 8) (size 9 to 14) (size 15 to 20)
#    0.000    1.200    0.000    7.500    0.000   11.200 
#    0.000    2.000    0.000    0.000    0.000    0.000 
#    0.000    0.000    0.000    0.000    0.000    0.000 
#
# Total GULP energy -111801.152426 kJ/mol
# GULP energy per Si atom -5590.057621 kJ/mol
# Density = 0.456207 g / cm^3
# Si number density = 4.572474 Si / 1000 Ang^3
#
#
#
# Elastic Constant Matrix: (Units=GPa)
#
#
# Indices 1 2 3 4 5 6 
#
# 1 208.6815 103.2498 95.2812 0.0000 0.0000 0.0000
# 2 103.2498 180.3564 77.4705 0.0000 0.0000 0.0000
# 3 95.2812 77.4705 129.2678 0.0000 0.0000 0.0000
# 4 0.0000 0.0000 0.0000 37.8801 0.0000 0.0000
# 5 0.0000 0.0000 0.0000 0.0000 35.8951 0.0000
# 6 0.0000 0.0000 0.0000 0.0000 0.0000 42.8059
#
#
#
# Elastic Compliance Matrix: (Units=1/GPa)
#
#
# Indices 1 2 3 4 5 6 
#
# 1 0.008160 -0.002812 -0.004330 0.000000 0.000000 0.000000
# 2 -0.002812 0.008436 -0.002983 0.000000 0.000000 0.000000
# 3 -0.004330 -0.002983 0.012715 0.000000 0.000000 0.000000
# 4 0.000000 0.000000 0.000000 0.026399 0.000000 0.000000
# 5 0.000000 0.000000 0.000000 0.000000 0.027859 0.000000
# 6 0.000000 0.000000 0.000000 0.000000 0.000000 0.023361
#
#
# Mechanical properties :
#
#
# Convention : Reuss Voigt Hill
#
# Bulk Modulus (GPa) = 110.35203 118.92319 114.63761
# Shear Modulus (GPa) = 38.40290 39.46982 38.93636
#
# Velocity S-wave (km/s) = 4.58720 4.65048 4.61895
# Velocity P-wave (km/s) = 9.40864 9.69528 9.55303
#
# Compressibility (1/GPa) = 0.00906191
#
# Stress axis : x y z
#
# Youngs Moduli (GPa) = 122.55015 118.54660 78.64849
#
# Poissons Ratio (x) = 0.33331 0.34051
# Poissons Ratio (y) = 0.34457 0.23461
# Poissons Ratio (z) = 0.53058 0.35362
#
# Static dielectric constant tensor:
#      x y z
#    x 1.625120 0.000000 0.000000 
#    y 0.000000 1.612920 0.000000 
#    z 0.000000 0.000000 1.619240 
# 
# From -- ./inp_files/22452.got.cif
#   From: 2010.05.17/outbox.ucp.g08.bks.cvg/sg42_12_cif.got.tgz:22452.got - 2010.06.11 16:29:10.
