data_PCOD9370168
_publ_section_title
;
Structure prediction by ZEFSAII (Michael W. Deem and Ramdas Pophale) SiO2 
 PCOD9370168
Probable space group: F D D 2
;
_chemical_formula_sum "Si O2"
_cell_formula_units_Z 96
_cell_length_a 32.578632
_cell_length_b 8.869215
_cell_length_c 17.490844
_cell_angle_alpha 90.000000
_cell_angle_beta 90.000000
_cell_angle_gamma 90.000000
_cell_volume 5053.925006
_symmetry_space_group_name_H-M "F D D 2"
_symmetry_group_IT_number 43
_symmetry_cell_setting 'orthorhombic'
loop_
_space_group_symop_operation_xyz
x,y,z
-x,-y,z
1/4-x,1/4+y,1/4+z
1/4+x,1/4-y,1/4+z
x,1/2+y,1/2+z
-x,1/2-y,1/2+z
1/4-x,3/4+y,3/4+z
1/4+x,3/4-y,3/4+z
1/2+x,y,1/2+z
1/2-x,-y,1/2+z
3/4-x,1/4+y,3/4+z
3/4+x,1/4-y,3/4+z
1/2+x,1/2+y,z
1/2-x,1/2-y,z
3/4-x,3/4+y,1/4+z
3/4+x,3/4-y,1/4+z
loop_
_atom_site_type_symbol
_atom_site_label
_atom_site_fract_x
_atom_site_fract_y
_atom_site_fract_z
Si Si1 0.659146 0.674293 0.957880
Si Si2 0.250000 0.250000 0.697630
Si Si3 0.037965 0.238821 0.846493
Si Si4 0.158865 0.224559 0.140281
Si Si5 0.885206 0.575073 0.856871
Si Si6 0.423219 0.329198 0.467695
Si Si7 0.750000 0.750000 0.981026
O O1 0.634576 0.526851 0.927282
O O2 0.636122 0.811434 0.916204
O O3 0.707945 0.692707 0.941103
O O4 0.654139 0.693429 0.049459
O O5 0.262253 0.390547 0.643937
O O6 0.288377 0.182521 0.742547
O O7 0.076507 0.337838 0.817574
O O8 0.014035 0.142487 0.783469
O O9 0.059686 0.113402 0.899201
O O10 0.179981 0.079962 0.177300
O O11 0.853737 0.541351 0.790608
O O12 0.900668 0.432627 0.904460
#
# Coordination Sequence:
#
# PCOD9370168 Si02
#       7
#    16   8  16  16  16  16   8
#     4  10  20  36  57  80 109 146 184 224 270 326
#     4  10  20  33  54  82 112 141 178 230 278 315
#     4   9  19  34  54  79 109 143 180 219 270 332
#     4  10  20  36  58  81 107 145 186 222 266 330
#     4  10  21  37  54  78 110 145 181 220 271 332
#     4  11  21  35  56  82 109 142 183 228 272 322
#     4  10  18  33  56  82 108 141 182 230 272 317
#
# _framework density 18.995138000000001
#
# number of rings (size 3 to 8) (size 9 to 14) (size 15 to 20)
#    0.000    2.000    0.000    6.000    0.000    2.000 
#    0.000    0.000    0.000    2.000    0.000    0.000 
#    0.000    0.000    0.000    0.000    0.000    0.000 
#
# Total GULP energy -133748.722753 kJ/mol
# GULP energy per Si atom -5572.863448 kJ/mol
# Density = 1.895190 g / cm^3
# Si number density = 18.995138 Si / 1000 Ang^3
#
#
#
# Elastic Constant Matrix: (Units=GPa)
#
#
# Indices 1 2 3 4 5 6 
#
# 1 98.9258 29.0151 11.2500 0.0000 0.0000 0.0000
# 2 29.0151 72.8351 18.4820 0.0000 0.0000 0.0000
# 3 11.2500 18.4820 52.3635 0.0000 0.0000 0.0000
# 4 0.0000 0.0000 0.0000 -87.4692 0.0000 0.0000
# 5 0.0000 0.0000 0.0000 0.0000 37.8471 0.0000
# 6 0.0000 0.0000 0.0000 0.0000 0.0000 26.1395
#
#
#
# Elastic Compliance Matrix: (Units=1/GPa)
#
#
# Indices 1 2 3 4 5 6 
#
# 1 0.011488 -0.004339 -0.000937 0.000000 0.000000 0.000000
# 2 -0.004339 0.016719 -0.004969 0.000000 0.000000 0.000000
# 3 -0.000937 -0.004969 0.021052 0.000000 0.000000 0.000000
# 4 0.000000 0.000000 0.000000 -0.011433 0.000000 0.000000
# 5 0.000000 0.000000 0.000000 0.000000 0.026422 0.000000
# 6 0.000000 0.000000 0.000000 0.000000 0.000000 0.038256
#
#
# Mechanical properties :
#
#
# Convention : Reuss Voigt Hill
#
# Bulk Modulus (GPa) = 34.75797 37.95762 36.35780
# Shear Modulus (GPa) = 37.71217 6.32863 22.02040
#
# Velocity S-wave (km/s) = 4.46057 1.82728 3.40849
# Velocity P-wave (km/s) = 6.69828 4.94754 5.88834
#
# Compressibility (1/GPa) = 0.02877038
#
# Stress axis : x y z
#
# Youngs Moduli (GPa) = 87.05014 59.81264 47.50068
#
# Poissons Ratio (x) = 0.25950 0.04449
# Poissons Ratio (y) = 0.37768 0.23603
# Poissons Ratio (z) = 0.08154 0.29720
#
# Static dielectric constant tensor:
#      x y z
#    x 1.753310 0.000000 0.000000 
#    y 0.000000 1.678080 0.000000 
#    z 0.000000 0.000000 1.655680 
# 
# From -- ./inp_files/18830.got.cif
#   From: 2010.05.17/outbox.cif.g08.bks.cpg/sg43_10_cif.got.tgz:18830.got - 2010.06.03 19:21:55.
