data_PCOD9370298
_publ_section_title
;
Structure prediction by ZEFSAII (Michael W. Deem and Ramdas Pophale) SiO2 
 PCOD9370298
Probable space group: F D D 2
;
_chemical_formula_sum "Si O2"
_cell_formula_units_Z 72
_cell_length_a 18.531726
_cell_length_b 23.801368
_cell_length_c 6.483405
_cell_angle_alpha 90.000000
_cell_angle_beta 90.000000
_cell_angle_gamma 90.000000
_cell_volume 2859.703067
_symmetry_space_group_name_H-M "F D D 2"
_symmetry_group_IT_number 43
_symmetry_cell_setting 'orthorhombic'
loop_
_space_group_symop_operation_xyz
x,y,z
-x,-y,z
1/4-x,1/4+y,1/4+z
1/4+x,1/4-y,1/4+z
x,1/2+y,1/2+z
-x,1/2-y,1/2+z
1/4-x,3/4+y,3/4+z
1/4+x,3/4-y,3/4+z
1/2+x,y,1/2+z
1/2-x,-y,1/2+z
3/4-x,1/4+y,3/4+z
3/4+x,1/4-y,3/4+z
1/2+x,1/2+y,z
1/2-x,1/2-y,z
3/4-x,3/4+y,1/4+z
3/4+x,3/4-y,1/4+z
loop_
_atom_site_type_symbol
_atom_site_label
_atom_site_fract_x
_atom_site_fract_y
_atom_site_fract_z
Si Si1 0.919099 0.591706 0.314340
Si Si2 0.250000 0.750000 0.834636
Si Si3 0.037859 0.170684 0.338394
Si Si4 0.632645 0.110405 0.177272
Si Si5 0.604814 0.791033 0.329170
O O1 0.837374 0.594314 0.395645
O O2 0.944420 0.654665 0.365294
O O3 0.961200 0.546451 0.443248
O O4 0.911504 0.587967 0.070037
O O5 0.318989 0.721226 0.944820
O O6 0.071057 0.134081 0.528976
O O7 0.056432 0.236509 0.364009
O O8 0.954049 0.159837 0.311617
O O9 0.619046 0.059750 0.343657
#
# Coordination Sequence:
#
# PCOD9370298 Si02
#       5
#    16   8  16  16  16
#     4   9  23  42  67  97 142 180 244 305 352 460
#     4  10  18  44  68  90 136 190 214 304 378 396
#     4  11  23  44  71  98 141 199 230 308 391 425
#     4  10  24  45  66 106 140 184 251 298 371 459
#     4   9  23  42  66 101 139 175 246 303 351 455
#
# _framework density 25.177441000000002
#
# number of rings (size 3 to 8) (size 9 to 14) (size 15 to 20)
#    1.333    0.889    0.000    1.333    6.222    1.778 
#   24.000    0.000    0.000    0.000    0.000    0.000 
#    0.000    0.000    0.000    0.000    0.000    0.000 
#
# Total GULP energy -100307.427167 kJ/mol
# GULP energy per Si atom -5572.634843 kJ/mol
# Density = 2.512014 g / cm^3
# Si number density = 25.177441 Si / 1000 Ang^3
#
#
#
# Elastic Constant Matrix: (Units=GPa)
#
#
# Indices 1 2 3 4 5 6 
#
# 1 89.6303 21.1805 13.0567 -0.0005 -0.0026 -0.0015
# 2 21.1805 132.0712 20.9974 0.0007 -0.0009 -0.0006
# 3 13.0567 20.9974 38.0579 -0.0008 -0.0011 -0.0017
# 4 -0.0005 0.0007 -0.0008 28.3379 0.0002 -0.0004
# 5 -0.0026 -0.0009 -0.0011 0.0002 30.4044 0.0019
# 6 -0.0015 -0.0006 -0.0017 -0.0004 0.0019 19.2243
#
#
#
# Elastic Compliance Matrix: (Units=1/GPa)
#
#
# Indices 1 2 3 4 5 6 
#
# 1 0.011972 -0.001389 -0.003341 0.000000 0.000001 0.000001
# 2 -0.001389 0.008461 -0.004192 0.000000 0.000000 0.000000
# 3 -0.003341 -0.004192 0.029735 0.000001 0.000001 0.000002
# 4 0.000000 0.000000 0.000001 0.035288 0.000000 0.000001
# 5 0.000001 0.000000 0.000001 0.000000 0.032890 -0.000003
# 6 0.000001 0.000000 0.000002 0.000001 -0.000003 0.052018
#
#
# Mechanical properties :
#
#
# Convention : Reuss Voigt Hill
#
# Bulk Modulus (GPa) = 30.93634 41.13653 36.03643
# Shear Modulus (GPa) = 25.12807 29.22829 27.17818
#
# Velocity S-wave (km/s) = 3.16260 3.41088 3.28909
# Velocity P-wave (km/s) = 5.06459 5.64679 5.36360
#
# Compressibility (1/GPa) = 0.03232445
#
# Stress axis : x y z
#
# Youngs Moduli (GPa) = 83.52947 118.19221 33.63091
#
# Poissons Ratio (x) = 0.16414 0.11236
# Poissons Ratio (y) = 0.11600 0.14097
# Poissons Ratio (z) = 0.27907 0.49541
#
# Static dielectric constant tensor:
#      x y z
#    x 1.979790 0.000000 0.000000 
#    y 0.000000 2.122240 0.000000 
#    z 0.000000 0.000000 2.114540 
# 
# From -- ./inp_files/3263.got.cif
#   From: 2010.05.17/outbox.cif.g08.bks.cpg/sg43_2_cif.got.tgz:3263.got - 2010.06.03 19:21:55.
