data_PCOD9370078
_publ_section_title
;
Structure prediction by ZEFSAII (Michael W. Deem and Ramdas Pophale) SiO2 
 PCOD9370078
Probable space group: F D D 2
;
_chemical_formula_sum "Si O2"
_cell_formula_units_Z 88
_cell_length_a 29.341816
_cell_length_b 6.087712
_cell_length_c 25.771870
_cell_angle_alpha 90.000000
_cell_angle_beta 90.000000
_cell_angle_gamma 90.000000
_cell_volume 4603.488047
_symmetry_space_group_name_H-M "F D D 2"
_symmetry_group_IT_number 43
_symmetry_cell_setting 'orthorhombic'
loop_
_space_group_symop_operation_xyz
x,y,z
-x,-y,z
1/4-x,1/4+y,1/4+z
1/4+x,1/4-y,1/4+z
x,1/2+y,1/2+z
-x,1/2-y,1/2+z
1/4-x,3/4+y,3/4+z
1/4+x,3/4-y,3/4+z
1/2+x,y,1/2+z
1/2-x,-y,1/2+z
3/4-x,1/4+y,3/4+z
3/4+x,1/4-y,3/4+z
1/2+x,1/2+y,z
1/2-x,1/2-y,z
3/4-x,3/4+y,1/4+z
3/4+x,3/4-y,1/4+z
loop_
_atom_site_type_symbol
_atom_site_label
_atom_site_fract_x
_atom_site_fract_y
_atom_site_fract_z
Si Si1 0.853396 0.281470 0.814740
Si Si2 0.172672 0.464774 0.720198
Si Si3 0.327656 0.916279 0.084752
Si Si4 0.250000 0.250000 0.656161
Si Si5 0.107830 0.774167 0.652562
Si Si6 0.601841 0.079262 0.240366
O O1 0.822563 0.437689 0.778370
O O2 0.896737 0.432923 0.829550
O O3 0.833983 0.156498 0.865329
O O4 0.872829 0.094352 0.777162
O O5 0.219291 0.403583 0.692498
O O6 0.144288 0.638747 0.686498
O O7 0.140680 0.248616 0.721397
O O8 0.283038 0.887799 0.118876
O O9 0.363360 0.068124 0.115181
O O10 0.320039 0.025585 0.028228
O O11 0.082073 0.936255 0.692694
#
# Coordination Sequence:
#
# PCOD9370078 Si02
#       6
#    16  16  16   8  16  16
#     4   9  18  33  50  75 114 145 194 230 275 354
#     4  10  20  32  50  81 119 144 183 234 300 355
#     4  10  20  32  50  81 119 144 183 234 300 355
#     4  12  20  34  52  84 126 146 180 252 324 338
#     4  10  16  33  54  76 110 151 190 239 276 344
#     4   9  18  33  50  75 114 145 194 230 275 354
#
# _framework density 19.115940999999999
#
# number of rings (size 3 to 8) (size 9 to 14) (size 15 to 20)
#    0.000    2.182    3.636    0.000    0.000    0.727 
#    0.000    0.000    0.000    0.000    0.000    0.000 
#  392.727    0.000    0.000    0.000    0.000    0.000 
#
# Total GULP energy -122514.404107 kJ/mol
# GULP energy per Si atom -5568.836550 kJ/mol
# Density = 1.907243 g / cm^3
# Si number density = 19.115941 Si / 1000 Ang^3
#
#
#
# Elastic Constant Matrix: (Units=GPa)
#
#
# Indices 1 2 3 4 5 6 
#
# 1 31.9706 -4.0658 22.0612 0.0016 0.0004 0.0026
# 2 -4.0658 69.3626 30.5218 0.0040 0.0009 0.0027
# 3 22.0612 30.5218 123.6591 0.0019 0.0001 0.0013
# 4 0.0016 0.0040 0.0019 61.0948 0.0002 -0.0006
# 5 0.0004 0.0009 0.0001 0.0002 36.2480 -0.0001
# 6 0.0026 0.0027 0.0013 -0.0006 -0.0001 6.2884
#
#
#
# Elastic Compliance Matrix: (Units=1/GPa)
#
#
# Indices 1 2 3 4 5 6 
#
# 1 0.037634 0.005789 -0.008143 -0.000001 -0.000001 -0.000016
# 2 0.005789 0.017064 -0.005245 -0.000001 0.000000 -0.000009
# 3 -0.008143 -0.005245 0.010834 0.000000 0.000000 0.000003
# 4 -0.000001 -0.000001 0.000000 0.016368 0.000000 0.000002
# 5 -0.000001 0.000000 0.000000 0.000000 0.027588 0.000000
# 6 -0.000016 -0.000009 0.000003 0.000002 0.000000 0.159024
#
#
# Mechanical properties :
#
#
# Convention : Reuss Voigt Hill
#
# Bulk Modulus (GPa) = 19.86676 35.78075 27.82376
# Shear Modulus (GPa) = 16.63966 32.49125 24.56546
#
# Velocity S-wave (km/s) = 2.95356 4.12721 3.58869
# Velocity P-wave (km/s) = 4.69539 6.43973 5.63546
#
# Compressibility (1/GPa) = 0.05033533
#
# Stress axis : x y z
#
# Youngs Moduli (GPa) = 26.57169 58.60249 92.30236
#
# Poissons Ratio (x) = -0.33926 0.75161
# Poissons Ratio (y) = -0.15383 0.48409
# Poissons Ratio (z) = 0.21637 0.30735
#
# Static dielectric constant tensor:
#      x y z
#    x 1.607360 0.000000 0.000000 
#    y 0.000000 1.712850 0.000000 
#    z 0.000000 0.000000 1.771680 
# 
# From -- ./inp_files/1008.got.cif
#   From: 2010.05.17/outbox.cif.g08.bks.cpg/sg43_1_cif.got.tgz:1008.got - 2010.06.03 19:21:55.
