data_PCOD9370444
_publ_section_title
;
Structure prediction by ZEFSAII (Michael W. Deem and Ramdas Pophale) SiO2 
 PCOD9370444
Probable space group: F D D 2
;
_chemical_formula_sum "Si O2"
_cell_formula_units_Z 112
_cell_length_a 31.690647
_cell_length_b 29.811920
_cell_length_c 5.477572
_cell_angle_alpha 90.000000
_cell_angle_beta 90.000000
_cell_angle_gamma 90.000000
_cell_volume 5174.985627
_symmetry_space_group_name_H-M "F D D 2"
_symmetry_group_IT_number 43
_symmetry_cell_setting 'orthorhombic'
loop_
_space_group_symop_operation_xyz
x,y,z
-x,-y,z
1/4-x,1/4+y,1/4+z
1/4+x,1/4-y,1/4+z
x,1/2+y,1/2+z
-x,1/2-y,1/2+z
1/4-x,3/4+y,3/4+z
1/4+x,3/4-y,3/4+z
1/2+x,y,1/2+z
1/2-x,-y,1/2+z
3/4-x,1/4+y,3/4+z
3/4+x,1/4-y,3/4+z
1/2+x,1/2+y,z
1/2-x,1/2-y,z
3/4-x,3/4+y,1/4+z
3/4+x,3/4-y,1/4+z
loop_
_atom_site_type_symbol
_atom_site_label
_atom_site_fract_x
_atom_site_fract_y
_atom_site_fract_z
Si Si1 0.513674 0.929942 0.896200
Si Si2 0.290163 0.862849 0.641216
Si Si3 0.799847 0.033886 0.125348
Si Si4 0.033554 0.302945 0.099608
Si Si5 0.364496 0.297647 0.144758
Si Si6 0.651109 0.021440 0.016339
Si Si7 0.432306 0.986565 0.778218
O O1 0.527882 0.898785 0.668907
O O2 0.470632 0.951971 0.794764
O O3 0.547934 0.970326 0.918321
O O4 0.512417 0.908847 0.167621
O O5 0.288427 0.915102 0.580469
O O6 0.336238 0.840942 0.601669
O O7 0.760478 0.062346 0.215795
O O8 0.815265 0.000317 0.336138
O O9 0.843075 0.058260 0.048829
O O10 0.784118 0.999889 0.915461
O O11 0.075035 0.307228 0.932610
O O12 0.334445 0.260980 0.282346
O O13 0.383009 0.270757 0.917845
O O14 0.609353 0.037448 0.879974
#
# Coordination Sequence:
#
# PCOD9370444 Si02
#       7
#    16  16  16  16  16  16  16
#     4  10  22  38  65  96 134 171 212 266 336 403
#     4  11  24  41  64  99 139 169 209 285 341 375
#     4  10  21  40  66  90 119 179 228 266 312 414
#     4  11  23  39  67  93 128 174 231 271 325 389
#     4   9  20  39  64  94 126 171 218 272 336 389
#     4  10  19  38  65  87 122 166 228 269 316 397
#     4   9  19  36  67  92 124 172 222 255 325 415
#
# _framework density 21.642572000000001
#
# number of rings (size 3 to 8) (size 9 to 14) (size 15 to 20)
#    0.000    2.000    2.857    0.000    4.000    1.143 
#    0.000    5.714    0.000    0.000    0.000    0.000 
#    0.000    0.000    0.000    0.000    0.000    0.000 
#
# Total GULP energy -156068.451209 kJ/mol
# GULP energy per Si atom -5573.873257 kJ/mol
# Density = 2.159331 g / cm^3
# Si number density = 21.642572 Si / 1000 Ang^3
#
#
#
# Elastic Constant Matrix: (Units=GPa)
#
#
# Indices 1 2 3 4 5 6 
#
# 1 132.0825 40.1685 24.0852 0.1464 -0.0705 -0.0931
# 2 40.1685 58.1873 6.9677 0.2612 -0.3228 -0.1175
# 3 24.0852 6.9677 48.6419 0.5346 -0.4117 -0.1867
# 4 0.1464 0.2612 0.5346 22.6295 -0.2538 -0.0340
# 5 -0.0705 -0.3228 -0.4117 -0.2538 18.4409 0.1610
# 6 -0.0931 -0.1175 -0.1867 -0.0340 0.1610 18.0529
#
#
#
# Elastic Compliance Matrix: (Units=1/GPa)
#
#
# Indices 1 2 3 4 5 6 
#
# 1 0.010355 -0.006649 -0.004177 0.000107 -0.000168 -0.000031
# 2 -0.006649 0.021758 0.000182 -0.000208 0.000356 0.000106
# 3 -0.004177 0.000182 0.022611 -0.000504 0.000483 0.000208
# 4 0.000107 -0.000208 -0.000504 0.044210 0.000593 0.000072
# 5 -0.000168 0.000356 0.000483 0.000593 0.054256 -0.000476
# 6 -0.000031 0.000106 0.000208 0.000072 -0.000476 0.055400
#
#
# Mechanical properties :
#
#
# Convention : Reuss Voigt Hill
#
# Bulk Modulus (GPa) = 29.91059 42.37273 36.14166
# Shear Modulus (GPa) = 20.74474 23.00401 21.87437
#
# Velocity S-wave (km/s) = 3.09935 3.26376 3.18262
# Velocity P-wave (km/s) = 5.16316 5.81582 5.49918
#
# Compressibility (1/GPa) = 0.03343297
#
# Stress axis : x y z
#
# Youngs Moduli (GPa) = 96.57395 45.96096 44.22574
#
# Poissons Ratio (x) = 0.30562 0.18475
# Poissons Ratio (y) = 0.64216 -0.00803
# Poissons Ratio (z) = 0.40343 -0.00834
#
# Static dielectric constant tensor:
#      x y z
#    x 1.813160 0.000070 0.000070 
#    y 0.000070 1.785880 -0.000140 
#    z 0.000070 -0.000140 1.855610 
# 
# From -- ./inp_files/1509.got.cif
#   From: 2010.05.17/outbox.cif.g08.bks.cpg/sg43_1_cif.got.tgz:1509.got - 2010.06.03 19:21:55.
