data_PCOD9370423
_publ_section_title
;
Structure prediction by ZEFSAII (Michael W. Deem and Ramdas Pophale) SiO2 
 PCOD9370423
Probable space group: F D D 2
;
_chemical_formula_sum "Si O2"
_cell_formula_units_Z 96
_cell_length_a 15.046055
_cell_length_b 11.410742
_cell_length_c 25.704630
_cell_angle_alpha 90.000000
_cell_angle_beta 90.000000
_cell_angle_gamma 90.000000
_cell_volume 4413.141858
_symmetry_space_group_name_H-M "F D D 2"
_symmetry_group_IT_number 43
_symmetry_cell_setting 'orthorhombic'
loop_
_space_group_symop_operation_xyz
x,y,z
-x,-y,z
1/4-x,1/4+y,1/4+z
1/4+x,1/4-y,1/4+z
x,1/2+y,1/2+z
-x,1/2-y,1/2+z
1/4-x,3/4+y,3/4+z
1/4+x,3/4-y,3/4+z
1/2+x,y,1/2+z
1/2-x,-y,1/2+z
3/4-x,1/4+y,3/4+z
3/4+x,1/4-y,3/4+z
1/2+x,1/2+y,z
1/2-x,1/2-y,z
3/4-x,3/4+y,1/4+z
3/4+x,3/4-y,1/4+z
loop_
_atom_site_type_symbol
_atom_site_label
_atom_site_fract_x
_atom_site_fract_y
_atom_site_fract_z
Si Si1 0.792610 0.133367 0.742990
Si Si2 0.210777 0.122170 0.062384
Si Si3 0.307874 0.901771 0.076022
Si Si4 0.150047 0.777759 0.908110
Si Si5 0.377679 0.438961 0.276981
Si Si6 0.757592 0.380376 0.188479
O O1 0.750000 0.250000 0.715063
O O2 0.890302 0.152566 0.765916
O O3 0.717376 0.116528 0.787562
O O4 0.786936 0.003812 0.716037
O O5 0.250000 0.250000 0.057949
O O6 0.154272 0.100774 0.115268
O O7 0.296926 0.037883 0.064755
O O8 0.373467 0.826607 0.040737
O O9 0.208366 0.860454 0.059886
O O10 0.318588 0.873750 0.136654
O O11 0.250000 0.750000 0.893403
O O12 0.090964 0.662204 0.917887
O O13 0.151458 0.831276 0.966510
O O14 0.750000 0.250000 0.212701
#
# Coordination Sequence:
#
# PCOD9370423 Si02
#       6
#    16  16  16  16  16  16
#     4  11  23  41  66  93 130 176 226 269 330 402
#     4  11  25  41  61  93 141 174 212 281 340 387
#     4  10  19  38  63  93 127 162 213 271 326 383
#     4  10  21  37  64  97 122 168 225 266 319 404
#     4  10  19  37  67  93 118 164 221 270 309 387
#     4  10  22  37  62  96 131 164 216 273 330 381
#
# _framework density 21.753208999999998
#
# number of rings (size 3 to 8) (size 9 to 14) (size 15 to 20)
#    0.000    1.667    5.000    0.500    2.333    8.667 
#    0.000    0.000    0.000    0.000    0.000    0.000 
#    0.000    0.000    0.000    0.000    0.000    0.000 
#
# Total GULP energy -133627.348285 kJ/mol
# GULP energy per Si atom -5567.806179 kJ/mol
# Density = 2.170370 g / cm^3
# Si number density = 21.753209 Si / 1000 Ang^3
#
#
#
# Elastic Constant Matrix: (Units=GPa)
#
#
# Indices 1 2 3 4 5 6 
#
# 1 51.4843 8.6344 -3.8728 0.0000 0.0000 0.0000
# 2 8.6344 157.0951 29.9401 0.0000 0.0000 0.0000
# 3 -3.8728 29.9401 83.9384 0.0000 0.0000 0.0000
# 4 0.0000 0.0000 0.0000 32.9130 0.0000 0.0000
# 5 0.0000 0.0000 0.0000 0.0000 15.3979 0.0000
# 6 0.0000 0.0000 0.0000 0.0000 0.0000 34.0457
#
#
#
# Elastic Compliance Matrix: (Units=1/GPa)
#
#
# Indices 1 2 3 4 5 6 
#
# 1 0.019755 -0.001351 0.001393 0.000000 0.000000 0.000000
# 2 -0.001351 0.006922 -0.002531 0.000000 0.000000 0.000000
# 3 0.001393 -0.002531 0.012881 0.000000 0.000000 0.000000
# 4 0.000000 0.000000 0.000000 0.030383 0.000000 0.000000
# 5 0.000000 0.000000 0.000000 0.000000 0.064944 0.000000
# 6 0.000000 0.000000 0.000000 0.000000 0.000000 0.029372
#
#
# Mechanical properties :
#
#
# Convention : Reuss Voigt Hill
#
# Bulk Modulus (GPa) = 28.91913 40.21347 34.56630
# Shear Modulus (GPa) = 27.66060 33.65905 30.65982
#
# Velocity S-wave (km/s) = 3.56977 3.93786 3.75832
# Velocity P-wave (km/s) = 5.50582 6.26115 5.89559
#
# Compressibility (1/GPa) = 0.03457919
#
# Stress axis : x y z
#
# Youngs Moduli (GPa) = 50.62045 144.46040 77.63521
#
# Poissons Ratio (x) = 0.19522 -0.10818
# Poissons Ratio (y) = 0.06841 0.19653
# Poissons Ratio (z) = -0.07054 0.36570
#
# Static dielectric constant tensor:
#      x y z
#    x 1.793650 0.000000 0.000000 
#    y 0.000000 1.985700 0.000000 
#    z 0.000000 0.000000 1.848220 
# 
# From -- ./inp_files/25969.got.cif
#   From: 2010.05.17/outbox.cif.g08.bks.cpg/sg43_13_cif.got.tgz:25969.got - 2010.06.03 19:21:55.
