data_PCOD9370619
_publ_section_title
;
Structure prediction by ZEFSAII (Michael W. Deem and Ramdas Pophale) SiO2 
 PCOD9370619
Probable space group: F D D 2
;
_chemical_formula_sum "Si O2"
_cell_formula_units_Z 104
_cell_length_a 12.246094
_cell_length_b 16.922371
_cell_length_c 23.778199
_cell_angle_alpha 90.000000
_cell_angle_beta 90.000000
_cell_angle_gamma 90.000000
_cell_volume 4927.626229
_symmetry_space_group_name_H-M "F D D 2"
_symmetry_group_IT_number 43
_symmetry_cell_setting 'orthorhombic'
loop_
_space_group_symop_operation_xyz
x,y,z
-x,-y,z
1/4-x,1/4+y,1/4+z
1/4+x,1/4-y,1/4+z
x,1/2+y,1/2+z
-x,1/2-y,1/2+z
1/4-x,3/4+y,3/4+z
1/4+x,3/4-y,3/4+z
1/2+x,y,1/2+z
1/2-x,-y,1/2+z
3/4-x,1/4+y,3/4+z
3/4+x,1/4-y,3/4+z
1/2+x,1/2+y,z
1/2-x,1/2-y,z
3/4-x,3/4+y,1/4+z
3/4+x,3/4-y,1/4+z
loop_
_atom_site_type_symbol
_atom_site_label
_atom_site_fract_x
_atom_site_fract_y
_atom_site_fract_z
Si Si1 0.750000 0.750000 0.464440
Si Si2 0.764259 0.563848 0.999308
Si Si3 0.239343 0.109270 0.767889
Si Si4 0.177522 0.528750 0.380806
Si Si5 0.048213 0.884066 0.859094
Si Si6 0.742745 0.107784 0.037051
Si Si7 0.956859 0.293881 0.903231
O O1 0.796743 0.682427 0.505940
O O2 0.833099 0.795821 0.424774
O O3 0.891388 0.576898 0.016308
O O4 0.744624 0.564971 0.932706
O O5 0.703673 0.625943 0.040800
O O6 0.719351 0.477109 0.014892
O O7 0.227551 0.052448 0.821176
O O8 0.363011 0.140145 0.773528
O O9 0.226036 0.062856 0.709260
O O10 0.150411 0.435171 0.380886
O O11 0.059877 0.571108 0.379398
O O12 0.033974 0.795577 0.881646
O O13 0.764426 0.104025 0.103575
#
# Coordination Sequence:
#
# PCOD9370619 Si02
#       7
#     8  16  16  16  16  16  16
#     4  10  22  42  58  92 120 158 210 248 310 372
#     4  10  20  37  62  88 123 162 205 258 308 365
#     4  10  21  37  60  93 120 160 208 252 310 368
#     4  10  20  37  60  89 121 162 208 256 305 369
#     4   9  21  37  57  88 122 160 209 252 312 362
#     4  10  21  41  60  87 126 160 202 257 307 366
#     4  10  21  41  59  86 126 160 204 260 304 368
#
# _framework density 21.105497
#
# number of rings (size 3 to 8) (size 9 to 14) (size 15 to 20)
#    0.000    2.154    0.000    2.308    2.154    0.000 
#   22.154    7.692    0.000    0.000    0.000    0.000 
#    0.000    0.000    0.000    0.000    0.000    0.000 
#
# Total GULP energy -144874.555968 kJ/mol
# GULP energy per Si atom -5572.098306 kJ/mol
# Density = 2.105746 g / cm^3
# Si number density = 21.105497 Si / 1000 Ang^3
#
#
#
# Elastic Constant Matrix: (Units=GPa)
#
#
# Indices 1 2 3 4 5 6 
#
# 1 36.3429 7.6358 18.8678 0.0000 0.0000 0.0000
# 2 7.6358 63.6533 25.2632 0.0000 0.0000 0.0000
# 3 18.8678 25.2632 152.7115 0.0000 0.0000 0.0000
# 4 0.0000 0.0000 0.0000 24.2085 0.0000 0.0000
# 5 0.0000 0.0000 0.0000 0.0000 23.0348 0.0000
# 6 0.0000 0.0000 0.0000 0.0000 0.0000 18.8860
#
#
#
# Elastic Compliance Matrix: (Units=1/GPa)
#
#
# Indices 1 2 3 4 5 6 
#
# 1 0.029701 -0.002254 -0.003297 0.000000 0.000000 0.000000
# 2 -0.002254 0.016985 -0.002531 0.000000 0.000000 0.000000
# 3 -0.003297 -0.002531 0.007374 0.000000 0.000000 0.000000
# 4 0.000000 0.000000 0.000000 0.041308 0.000000 0.000000
# 5 0.000000 0.000000 0.000000 0.000000 0.043413 0.000000
# 6 0.000000 0.000000 0.000000 0.000000 0.000000 0.052949
#
#
# Mechanical properties :
#
#
# Convention : Reuss Voigt Hill
#
# Bulk Modulus (GPa) = 26.38834 39.58236 32.98535
# Shear Modulus (GPa) = 22.67297 26.62192 24.64744
#
# Velocity S-wave (km/s) = 3.28116 3.55544 3.42105
# Velocity P-wave (km/s) = 5.18506 5.97077 5.59173
#
# Compressibility (1/GPa) = 0.03789552
#
# Stress axis : x y z
#
# Youngs Moduli (GPa) = 33.66904 58.87483 135.60501
#
# Poissons Ratio (x) = 0.13273 0.44704
# Poissons Ratio (y) = 0.07591 0.34326
# Poissons Ratio (z) = 0.11099 0.14903
#
# Static dielectric constant tensor:
#      x y z
#    x 1.789580 0.000000 0.000000 
#    y 0.000000 1.814590 0.000000 
#    z 0.000000 0.000000 1.804100 
# 
# From -- ./inp_files/17631.got.cif
#   From: 2010.05.17/outbox.cif.g08.bks.cpg/sg43_9_cif.got.tgz:17631.got - 2010.06.03 19:21:55.
