data_PCOD9370434
_publ_section_title
;
Structure prediction by ZEFSAII (Michael W. Deem and Ramdas Pophale) SiO2 
 PCOD9370434
Probable space group: F D D 2
;
_chemical_formula_sum "Si O2"
_cell_formula_units_Z 112
_cell_length_a 30.782937
_cell_length_b 10.228304
_cell_length_c 17.035691
_cell_angle_alpha 90.000000
_cell_angle_beta 90.000000
_cell_angle_gamma 90.000000
_cell_volume 5363.810610
_symmetry_space_group_name_H-M "F D D 2"
_symmetry_group_IT_number 43
_symmetry_cell_setting 'orthorhombic'
loop_
_space_group_symop_operation_xyz
x,y,z
-x,-y,z
1/4-x,1/4+y,1/4+z
1/4+x,1/4-y,1/4+z
x,1/2+y,1/2+z
-x,1/2-y,1/2+z
1/4-x,3/4+y,3/4+z
1/4+x,3/4-y,3/4+z
1/2+x,y,1/2+z
1/2-x,-y,1/2+z
3/4-x,1/4+y,3/4+z
3/4+x,1/4-y,3/4+z
1/2+x,1/2+y,z
1/2-x,1/2-y,z
3/4-x,3/4+y,1/4+z
3/4+x,3/4-y,1/4+z
loop_
_atom_site_type_symbol
_atom_site_label
_atom_site_fract_x
_atom_site_fract_y
_atom_site_fract_z
Si Si1 0.814392 0.299328 0.056300
Si Si2 0.223493 0.614679 0.207724
Si Si3 0.483308 0.639561 0.146561
Si Si4 0.592965 0.298305 0.027256
Si Si5 0.201456 0.982200 0.124174
Si Si6 0.678239 0.533973 0.861796
Si Si7 0.384936 0.661207 0.767062
O O1 0.807431 0.382092 0.133669
O O2 0.865372 0.280472 0.053654
O O3 0.795154 0.154145 0.076478
O O4 0.791665 0.357797 0.978668
O O5 0.250000 0.750000 0.209936
O O6 0.256021 0.500387 0.178082
O O7 0.199307 0.609261 0.289271
O O8 0.500000 0.500000 0.114470
O O9 0.447834 0.700366 0.086735
O O10 0.528569 0.719905 0.152377
O O11 0.610988 0.446799 0.017833
O O12 0.583455 0.232201 0.943594
O O13 0.180921 0.083112 0.063671
O O14 0.646982 0.431227 0.816405
O O15 0.649584 0.608797 0.926827
#
# Coordination Sequence:
#
# PCOD9370434 Si02
#       7
#    16  16  16  16  16  16  16
#     4  10  21  37  62  93 119 161 212 270 317 379
#     4  10  22  43  64  87 125 166 214 264 324 390
#     4  12  21  37  66 100 124 162 222 269 316 381
#     4  11  20  36  62  95 130 155 207 273 324 373
#     4  10  19  38  62  89 126 160 202 270 323 359
#     4  12  24  41  65  91 133 175 212 268 325 385
#     4  11  22  39  62  93 128 168 213 266 323 382
#
# _framework density 20.880676999999999
#
# number of rings (size 3 to 8) (size 9 to 14) (size 15 to 20)
#    0.000    1.143    4.286    5.571    0.000    0.000 
#    7.714    0.000    3.143    0.000    0.000    0.000 
#    0.000    0.000    0.000    0.000    0.000    0.000 
#
# Total GULP energy -155899.984734 kJ/mol
# GULP energy per Si atom -5567.856598 kJ/mol
# Density = 2.083315 g / cm^3
# Si number density = 20.880677 Si / 1000 Ang^3
#
#
#
# Elastic Constant Matrix: (Units=GPa)
#
#
# Indices 1 2 3 4 5 6 
#
# 1 109.3893 19.1699 71.9359 0.0000 0.0000 0.0000
# 2 19.1699 12.7204 27.5650 0.0000 0.0000 0.0000
# 3 71.9359 27.5650 166.1388 0.0000 0.0000 0.0000
# 4 0.0000 0.0000 0.0000 29.4570 0.0000 0.0000
# 5 0.0000 0.0000 0.0000 0.0000 38.9760 0.0000
# 6 0.0000 0.0000 0.0000 0.0000 0.0000 12.0983
#
#
#
# Elastic Compliance Matrix: (Units=1/GPa)
#
#
# Indices 1 2 3 4 5 6 
#
# 1 0.013924 -0.012365 -0.003977 0.000000 0.000000 0.000000
# 2 -0.012365 0.133726 -0.016833 0.000000 0.000000 0.000000
# 3 -0.003977 -0.016833 0.010534 0.000000 0.000000 0.000000
# 4 0.000000 0.000000 0.000000 0.033948 0.000000 0.000000
# 5 0.000000 0.000000 0.000000 0.000000 0.025657 0.000000
# 6 0.000000 0.000000 0.000000 0.000000 0.000000 0.082656
#
#
# Mechanical properties :
#
#
# Convention : Reuss Voigt Hill
#
# Bulk Modulus (GPa) = 10.88937 58.39888 34.64412
# Shear Modulus (GPa) = 12.58156 27.41144 19.99650
#
# Velocity S-wave (km/s) = 2.45734 3.62714 3.09796
# Velocity P-wave (km/s) = 3.64386 6.75057 5.42439
#
# Compressibility (1/GPa) = 0.09183271
#
# Stress axis : x y z
#
# Youngs Moduli (GPa) = 71.81754 7.47800 94.92930
#
# Poissons Ratio (x) = 0.09246 0.37758
# Poissons Ratio (y) = 0.88802 1.59797
# Poissons Ratio (z) = 0.28565 0.12588
#
# Static dielectric constant tensor:
#      x y z
#    x 1.872480 0.000000 0.000000 
#    y 0.000000 1.711220 0.000000 
#    z 0.000000 0.000000 1.785530 
# 
# From -- ./inp_files/9787.got.cif
#   From: 2010.05.17/outbox.cif.g08.bks.cpg/sg43_5_cif.got.tgz:9787.got - 2010.06.03 19:21:55.
