data_PCOD9370394
_publ_section_title
;
Structure prediction by ZEFSAII (Michael W. Deem and Ramdas Pophale) SiO2 
 PCOD9370394
Probable space group: F D D 2
;
_chemical_formula_sum "Si O2"
_cell_formula_units_Z 112
_cell_length_a 32.204635
_cell_length_b 12.738625
_cell_length_c 13.185230
_cell_angle_alpha 90.000000
_cell_angle_beta 90.000000
_cell_angle_gamma 90.000000
_cell_volume 5409.145259
_symmetry_space_group_name_H-M "F D D 2"
_symmetry_group_IT_number 43
_symmetry_cell_setting 'orthorhombic'
loop_
_space_group_symop_operation_xyz
x,y,z
-x,-y,z
1/4-x,1/4+y,1/4+z
1/4+x,1/4-y,1/4+z
x,1/2+y,1/2+z
-x,1/2-y,1/2+z
1/4-x,3/4+y,3/4+z
1/4+x,3/4-y,3/4+z
1/2+x,y,1/2+z
1/2-x,-y,1/2+z
3/4-x,1/4+y,3/4+z
3/4+x,1/4-y,3/4+z
1/2+x,1/2+y,z
1/2-x,1/2-y,z
3/4-x,3/4+y,1/4+z
3/4+x,3/4-y,1/4+z
loop_
_atom_site_type_symbol
_atom_site_label
_atom_site_fract_x
_atom_site_fract_y
_atom_site_fract_z
Si Si1 0.750000 0.250000 0.682500
Si Si2 0.828632 0.377344 0.090374
Si Si3 0.250000 0.250000 0.542793
Si Si4 0.078632 0.627344 0.384920
Si Si5 0.810252 0.074346 0.024042
Si Si6 0.189748 0.074346 0.201252
Si Si7 0.885359 0.300599 0.592987
Si Si8 0.135359 0.050599 0.382307
O O1 0.715224 0.318008 0.624342
O O2 0.777696 0.337698 0.736800
O O3 0.845487 0.382446 0.974069
O O4 0.784776 0.318008 0.100952
O O5 0.825135 0.500000 0.112647
O O6 0.861190 0.307569 0.153742
O O7 0.222304 0.337698 0.488494
O O8 0.095487 0.632446 0.501225
O O9 0.111190 0.557569 0.321552
O O10 0.828829 0.022839 0.923763
O O11 0.849540 0.129946 0.078874
O O12 0.792465 1.000000 0.112647
O O13 0.150460 0.129946 0.146419
O O14 0.171171 0.022839 0.301531
#
# Coordination Sequence:
#
# PCOD9370394 Si02
#       8
#     8  16   8  16  16  16  16  16
#     4  10  24  35  60  85 122 156 196 241 310 345
#     4  11  22  40  59  89 120 159 199 244 296 360
#     4  10  24  35  60  85 122 156 196 241 310 345
#     4  11  22  40  59  89 120 159 199 244 296 360
#     4  10  19  37  58  85 118 148 194 248 298 347
#     4  10  19  37  58  85 118 148 194 248 298 347
#     4  10  21  35  63  87 111 153 199 248 292 348
#     4  10  21  35  63  87 111 153 199 248 292 348
#
# _framework density 20.705673999999998
#
# number of rings (size 3 to 8) (size 9 to 14) (size 15 to 20)
#    0.000    1.714    2.857    1.714    0.000    2.286 
#    0.000    0.000    0.000    1.714    0.000    0.000 
#    0.000    0.000    0.000    0.000    0.000    0.000 
#
# Total GULP energy -155939.330440 kJ/mol
# GULP energy per Si atom -5569.261801 kJ/mol
# Density = 2.065855 g / cm^3
# Si number density = 20.705674 Si / 1000 Ang^3
#
#
#
# Elastic Constant Matrix: (Units=GPa)
#
#
# Indices 1 2 3 4 5 6 
#
# 1 97.1975 39.7590 22.2214 0.0000 0.0000 0.0000
# 2 39.7590 104.8749 -1.8509 0.0000 0.0000 0.0000
# 3 22.2214 -1.8509 37.9921 0.0000 0.0000 0.0000
# 4 0.0000 0.0000 0.0000 22.6220 0.0000 0.0000
# 5 0.0000 0.0000 0.0000 0.0000 3.1793 0.0000
# 6 0.0000 0.0000 0.0000 0.0000 0.0000 36.7239
#
#
#
# Elastic Compliance Matrix: (Units=1/GPa)
#
#
# Indices 1 2 3 4 5 6 
#
# 1 0.014645 -0.005708 -0.008844 0.000000 0.000000 0.000000
# 2 -0.005708 0.011768 0.003912 0.000000 0.000000 0.000000
# 3 -0.008844 0.003912 0.031685 0.000000 0.000000 0.000000
# 4 0.000000 0.000000 0.000000 0.044205 0.000000 0.000000
# 5 0.000000 0.000000 0.000000 0.000000 0.314530 0.000000
# 6 0.000000 0.000000 0.000000 0.000000 0.000000 0.027230
#
#
# Mechanical properties :
#
#
# Convention : Reuss Voigt Hill
#
# Bulk Modulus (GPa) = 27.16078 40.03595 33.59836
# Shear Modulus (GPa) = 10.46865 24.50070 17.48468
#
# Velocity S-wave (km/s) = 2.25098 3.44362 2.90908
# Velocity P-wave (km/s) = 4.46116 5.93204 5.24838
#
# Compressibility (1/GPa) = 0.03681780
#
# Stress axis : x y z
#
# Youngs Moduli (GPa) = 68.28154 84.97429 31.56093
#
# Poissons Ratio (x) = 0.48505 0.27913
# Poissons Ratio (y) = 0.38977 -0.12347
# Poissons Ratio (z) = 0.60389 -0.33243
#
# Static dielectric constant tensor:
#      x y z
#    x 1.744480 0.000000 0.000000 
#    y 0.000000 1.800670 0.000000 
#    z 0.000000 0.000000 1.771230 
# 
# From -- ./inp_files/9805.got.cif
#   From: 2010.05.17/outbox.cif.g08.bks.cpg/sg43_5_cif.got.tgz:9805.got - 2010.06.03 19:21:55.
