data_PCOD9370292
_publ_section_title
;
Structure prediction by ZEFSAII (Michael W. Deem and Ramdas Pophale) SiO2 
 PCOD9370292
Probable space group: F D D 2
;
_chemical_formula_sum "Si O2"
_cell_formula_units_Z 104
_cell_length_a 14.259501
_cell_length_b 17.738485
_cell_length_c 20.025355
_cell_angle_alpha 90.000000
_cell_angle_beta 90.000000
_cell_angle_gamma 90.000000
_cell_volume 5065.252235
_symmetry_space_group_name_H-M "F D D 2"
_symmetry_group_IT_number 43
_symmetry_cell_setting 'orthorhombic'
loop_
_space_group_symop_operation_xyz
x,y,z
-x,-y,z
1/4-x,1/4+y,1/4+z
1/4+x,1/4-y,1/4+z
x,1/2+y,1/2+z
-x,1/2-y,1/2+z
1/4-x,3/4+y,3/4+z
1/4+x,3/4-y,3/4+z
1/2+x,y,1/2+z
1/2-x,-y,1/2+z
3/4-x,1/4+y,3/4+z
3/4+x,1/4-y,3/4+z
1/2+x,1/2+y,z
1/2-x,1/2-y,z
3/4-x,3/4+y,1/4+z
3/4+x,3/4-y,1/4+z
loop_
_atom_site_type_symbol
_atom_site_label
_atom_site_fract_x
_atom_site_fract_y
_atom_site_fract_z
Si Si1 0.101041 0.026603 0.524900
Si Si2 0.731776 0.040114 0.904361
Si Si3 0.191934 0.172766 0.190993
Si Si4 0.555570 0.201353 0.018313
Si Si5 0.474793 0.766883 0.391928
Si Si6 0.500000 0.000000 0.783184
Si Si7 0.646901 0.393577 0.082541
O O1 0.182961 0.008763 0.471344
O O2 0.081862 0.115365 0.530016
O O3 0.132431 0.991981 0.596177
O O4 0.000000 0.000000 0.499981
O O5 0.839568 0.061058 0.910861
O O6 0.671307 0.114695 0.889795
O O7 0.717278 0.987665 0.839957
O O8 0.250000 0.250000 0.188214
O O9 0.245575 0.102698 0.156854
O O10 0.166641 0.150975 0.267047
O O11 0.478142 0.222135 0.962925
O O12 0.653676 0.238738 0.994305
O O13 0.552466 0.720980 0.349431
O O14 0.475081 0.923258 0.823837
#
# Coordination Sequence:
#
# PCOD9370292 Si02
#       7
#    16  16  16  16  16   8  16
#     4  12  28  45  73 110 150 194 239 302 374 447
#     4  11  25  45  71 107 140 189 237 306 364 425
#     4  12  28  47  67 102 149 190 240 298 365 453
#     4  11  24  41  73 102 146 179 239 303 364 428
#     4  12  25  45  72 107 143 189 243 297 376 435
#     4  10  18  42  66 112 134 166 234 308 360 410
#     4  11  23  41  75 107 138 176 240 310 365 422
#
# _framework density 20.532048
#
# number of rings (size 3 to 8) (size 9 to 14) (size 15 to 20)
#    0.000    0.615    7.692    0.000   10.769    0.000 
#    0.000    0.769    0.000    0.000    0.000    0.000 
#    0.000    0.000    0.000    0.000    0.000    0.000 
#
# Total GULP energy -145105.456661 kJ/mol
# GULP energy per Si atom -5580.979102 kJ/mol
# Density = 2.048532 g / cm^3
# Si number density = 20.532048 Si / 1000 Ang^3
#
#
#
# Elastic Constant Matrix: (Units=GPa)
#
#
# Indices 1 2 3 4 5 6 
#
# 1 61.5442 28.7335 16.9927 0.0000 0.0000 0.0000
# 2 28.7335 130.5956 37.7912 0.0000 0.0000 0.0000
# 3 16.9927 37.7912 118.9202 0.0000 0.0000 0.0000
# 4 0.0000 0.0000 0.0000 73.1465 0.0000 0.0000
# 5 0.0000 0.0000 0.0000 0.0000 24.4825 0.0000
# 6 0.0000 0.0000 0.0000 0.0000 0.0000 26.5852
#
#
#
# Elastic Compliance Matrix: (Units=1/GPa)
#
#
# Indices 1 2 3 4 5 6 
#
# 1 0.018340 -0.003609 -0.001474 0.000000 0.000000 0.000000
# 2 -0.003609 0.009143 -0.002390 0.000000 0.000000 0.000000
# 3 -0.001474 -0.002390 0.009379 0.000000 0.000000 0.000000
# 4 0.000000 0.000000 0.000000 0.013671 0.000000 0.000000
# 5 0.000000 0.000000 0.000000 0.000000 0.040846 0.000000
# 6 0.000000 0.000000 0.000000 0.000000 0.000000 0.037615
#
#
# Mechanical properties :
#
#
# Convention : Reuss Voigt Hill
#
# Bulk Modulus (GPa) = 45.62601 53.12165 49.37383
# Shear Modulus (GPa) = 33.05911 40.01233 36.53572
#
# Velocity S-wave (km/s) = 4.01699 4.41928 4.22293
# Velocity P-wave (km/s) = 6.61702 7.20894 6.91931
#
# Compressibility (1/GPa) = 0.02191732
#
# Stress axis : x y z
#
# Youngs Moduli (GPa) = 54.52490 109.37623 106.62062
#
# Poissons Ratio (x) = 0.39471 0.15715
# Poissons Ratio (y) = 0.19676 0.25480
# Poissons Ratio (z) = 0.08036 0.26139
#
# Static dielectric constant tensor:
#      x y z
#    x 1.749230 0.000000 0.000000 
#    y 0.000000 1.714840 0.000000 
#    z 0.000000 0.000000 1.787630 
# 
# From -- ./inp_files/17629.got.cif
#   From: 2010.05.17/outbox.cif.g08.bks.cpg/sg43_9_cif.got.tgz:17629.got - 2010.06.03 19:21:55.
