data_PCOD9370725
_publ_section_title
;
Structure prediction by ZEFSAII (Michael W. Deem and Ramdas Pophale) SiO2 
 PCOD9370725
Probable space group: F D D 2
;
_chemical_formula_sum "Si O2"
_cell_formula_units_Z 104
_cell_length_a 18.120708
_cell_length_b 32.606038
_cell_length_c 7.864336
_cell_angle_alpha 90.000000
_cell_angle_beta 90.000000
_cell_angle_gamma 90.000000
_cell_volume 4646.599622
_symmetry_space_group_name_H-M "F D D 2"
_symmetry_group_IT_number 43
_symmetry_cell_setting 'orthorhombic'
loop_
_space_group_symop_operation_xyz
x,y,z
-x,-y,z
1/4-x,1/4+y,1/4+z
1/4+x,1/4-y,1/4+z
x,1/2+y,1/2+z
-x,1/2-y,1/2+z
1/4-x,3/4+y,3/4+z
1/4+x,3/4-y,3/4+z
1/2+x,y,1/2+z
1/2-x,-y,1/2+z
3/4-x,1/4+y,3/4+z
3/4+x,1/4-y,3/4+z
1/2+x,1/2+y,z
1/2-x,1/2-y,z
3/4-x,3/4+y,1/4+z
3/4+x,3/4-y,1/4+z
loop_
_atom_site_type_symbol
_atom_site_label
_atom_site_fract_x
_atom_site_fract_y
_atom_site_fract_z
Si Si1 0.712163 0.540045 0.144530
Si Si2 0.469353 0.127101 0.000327
Si Si3 0.408715 0.924338 0.394486
Si Si4 0.133295 0.958164 0.094174
Si Si5 0.750000 0.250000 0.654533
Si Si6 0.723890 0.396073 0.885343
Si Si7 0.406079 0.327357 0.698394
O O1 0.697012 0.491694 0.135759
O O2 0.722286 0.568584 0.310362
O O3 0.641520 0.558495 0.048546
O O4 0.789172 0.547837 0.047254
O O5 0.495353 0.124801 0.805897
O O6 0.415546 0.090339 0.055338
O O7 0.406873 0.162551 0.014409
O O8 0.537087 0.137639 0.124153
O O9 0.459684 0.960657 0.320979
O O10 0.452720 0.886401 0.486395
O O11 0.121093 0.939737 0.277829
O O12 0.062498 0.979819 0.020283
O O13 0.156985 0.923072 0.961744
#
# Coordination Sequence:
#
# PCOD9370725 Si02
#       7
#    16  16  16  16   8  16  16
#     4  10  21  38  62  87 123 160 214 258 319 393
#     4  10  22  36  60  91 121 161 215 263 320 397
#     4  10  22  39  61  93 121 171 215 267 331 392
#     4  10  22  38  61  91 120 171 205 266 328 389
#     4  10  22  40  62  86 132 162 216 268 330 388
#     4  11  22  37  67  89 127 173 213 262 333 394
#     4  10  20  39  60  88 125 157 209 271 310 391
#
# _framework density 22.381958000000001
#
# number of rings (size 3 to 8) (size 9 to 14) (size 15 to 20)
#    0.000    1.846    1.538    1.846    6.462    1.231 
#    0.000    0.000    0.000    0.923    0.000    0.000 
#    0.000    0.000    0.000    0.000    0.000    0.000 
#
# Total GULP energy -144787.213073 kJ/mol
# GULP energy per Si atom -5568.738964 kJ/mol
# Density = 2.233102 g / cm^3
# Si number density = 22.381958 Si / 1000 Ang^3
#
#
#
# Elastic Constant Matrix: (Units=GPa)
#
#
# Indices 1 2 3 4 5 6 
#
# 1 56.6319 23.8325 -2.1969 0.0001 -0.0003 0.0000
# 2 23.8325 74.7915 -4.2698 0.0000 -0.0001 0.0000
# 3 -2.1969 -4.2698 47.5641 0.0001 0.0001 0.0000
# 4 0.0001 0.0000 0.0001 16.9249 -0.0002 0.0000
# 5 -0.0003 -0.0001 0.0001 -0.0002 -14.8736 -0.0001
# 6 0.0000 0.0000 0.0000 0.0000 -0.0001 43.7290
#
#
#
# Elastic Compliance Matrix: (Units=1/GPa)
#
#
# Indices 1 2 3 4 5 6 
#
# 1 0.020399 -0.006479 0.000361 0.000000 0.000000 0.000000
# 2 -0.006479 0.015498 0.001092 0.000000 0.000000 0.000000
# 3 0.000361 0.001092 0.021139 0.000000 0.000000 0.000000
# 4 0.000000 0.000000 0.000000 0.059084 -0.000001 0.000000
# 5 0.000000 0.000000 0.000000 -0.000001 -0.067233 0.000000
# 6 0.000000 0.000000 0.000000 0.000000 0.000000 0.022868
#
#
# Mechanical properties :
#
#
# Convention : Reuss Voigt Hill
#
# Bulk Modulus (GPa) = 21.28519 23.74657 22.51588
# Shear Modulus (GPa) = 51.29839 19.93084 35.61461
#
# Velocity S-wave (km/s) = 4.79263 2.98734 3.99334
# Velocity P-wave (km/s) = 6.33690 4.74675 5.59857
#
# Compressibility (1/GPa) = 0.04698101
#
# Stress axis : x y z
#
# Youngs Moduli (GPa) = 49.02282 64.52639 47.30612
#
# Poissons Ratio (x) = 0.41810 -0.01705
# Poissons Ratio (y) = 0.31764 -0.05165
# Poissons Ratio (z) = -0.01767 -0.07046
#
# Static dielectric constant tensor:
#      x y z
#    x 1.913540 0.000000 0.000000 
#    y 0.000000 1.960470 0.000000 
#    z 0.000000 0.000000 1.824560 
# 
# From -- ./inp_files/3454.got.cif
#   From: 2010.05.17/outbox.cif.g08.bks.cpg/sg43_2_cif.got.tgz:3454.got - 2010.06.03 19:21:55.
