data_PCOD9370479
_publ_section_title
;
Structure prediction by ZEFSAII (Michael W. Deem and Ramdas Pophale) SiO2 
 PCOD9370479
Probable space group: F D D 2
;
_chemical_formula_sum "Si O2"
_cell_formula_units_Z 64
_cell_length_a 8.316994
_cell_length_b 18.278636
_cell_length_c 18.669615
_cell_angle_alpha 90.000000
_cell_angle_beta 90.000000
_cell_angle_gamma 90.000000
_cell_volume 2838.216593
_symmetry_space_group_name_H-M "F D D 2"
_symmetry_group_IT_number 43
_symmetry_cell_setting 'orthorhombic'
loop_
_space_group_symop_operation_xyz
x,y,z
-x,-y,z
1/4-x,1/4+y,1/4+z
1/4+x,1/4-y,1/4+z
x,1/2+y,1/2+z
-x,1/2-y,1/2+z
1/4-x,3/4+y,3/4+z
1/4+x,3/4-y,3/4+z
1/2+x,y,1/2+z
1/2-x,-y,1/2+z
3/4-x,1/4+y,3/4+z
3/4+x,1/4-y,3/4+z
1/2+x,1/2+y,z
1/2-x,1/2-y,z
3/4-x,3/4+y,1/4+z
3/4+x,3/4-y,1/4+z
loop_
_atom_site_type_symbol
_atom_site_label
_atom_site_fract_x
_atom_site_fract_y
_atom_site_fract_z
Si Si1 0.605045 0.197769 0.216820
Si Si2 0.190137 0.581558 0.798098
Si Si3 0.388182 0.560911 0.934649
Si Si4 0.943019 0.838063 0.561502
O O1 0.750000 0.250000 0.189069
O O2 0.471089 0.258237 0.235819
O O3 0.544274 0.155850 0.146927
O O4 0.686742 0.144364 0.273625
O O5 0.277931 0.598291 0.873703
O O6 0.238294 0.632542 0.732072
O O7 0.223754 0.495652 0.787238
O O8 0.998262 0.596197 0.798253
O O9 0.500000 0.500000 0.897401
#
# Coordination Sequence:
#
# PCOD9370479 Si02
#       4
#    16  16  16  16
#     4  11  20  40  68  99 131 178 233 284 337 415
#     4  10  20  42  66  95 135 182 225 286 349 414
#     4  11  24  42  67 102 143 180 229 292 351 417
#     4  10  19  39  71  96 131 176 236 285 347 409
#
# _framework density 22.549371000000001
#
# number of rings (size 3 to 8) (size 9 to 14) (size 15 to 20)
#    0.000    1.500    7.500    0.000    0.000    4.000 
#    9.000    5.000    0.000    0.000    0.000    0.000 
#    0.000    0.000    0.000    0.000    0.000    0.000 
#
# Total GULP energy -89199.923136 kJ/mol
# GULP energy per Si atom -5574.995196 kJ/mol
# Density = 2.249805 g / cm^3
# Si number density = 22.549371 Si / 1000 Ang^3
#
#
#
# Elastic Constant Matrix: (Units=GPa)
#
#
# Indices 1 2 3 4 5 6 
#
# 1 74.2453 47.9259 40.0596 0.0000 0.0000 0.0000
# 2 47.9259 104.7817 96.4323 0.0000 0.0000 0.0000
# 3 40.0596 96.4323 134.6122 0.0000 0.0000 0.0000
# 4 0.0000 0.0000 0.0000 40.1642 0.0000 0.0000
# 5 0.0000 0.0000 0.0000 0.0000 463.7010 0.0000
# 6 0.0000 0.0000 0.0000 0.0000 0.0000 44.4985
#
#
#
# Elastic Compliance Matrix: (Units=1/GPa)
#
#
# Indices 1 2 3 4 5 6 
#
# 1 0.019243 -0.010364 0.001698 0.000000 0.000000 0.000000
# 2 -0.010364 0.033593 -0.020981 0.000000 0.000000 0.000000
# 3 0.001698 -0.020981 0.021953 0.000000 0.000000 0.000000
# 4 0.000000 0.000000 0.000000 0.024898 0.000000 0.000000
# 5 0.000000 0.000000 0.000000 0.000000 0.002157 0.000000
# 6 0.000000 0.000000 0.000000 0.000000 0.000000 0.022473
#
#
# Mechanical properties :
#
#
# Convention : Reuss Voigt Hill
#
# Bulk Modulus (GPa) = 64.53479 75.83052 70.18265
# Shear Modulus (GPa) = 26.48648 118.28748 72.38698
#
# Velocity S-wave (km/s) = 3.43096 7.25059 5.67197
# Velocity P-wave (km/s) = 6.66159 10.18805 8.60735
#
# Compressibility (1/GPa) = 0.01549552
#
# Stress axis : x y z
#
# Youngs Moduli (GPa) = 51.96735 29.76800 45.55094
#
# Poissons Ratio (x) = 0.30852 -0.07735
# Poissons Ratio (y) = 0.53860 0.95570
# Poissons Ratio (z) = -0.08825 0.62456
#
# Static dielectric constant tensor:
#      x y z
#    x 1.222650 0.000000 0.000000 
#    y 0.000000 1.847400 0.000000 
#    z 0.000000 0.000000 1.848580 
# 
# From -- ./inp_files/12489.got.cif
#   From: 2010.05.17/outbox.cif.g08.bks.cpg/sg43_7_cif.got.tgz:12489.got - 2010.06.03 19:21:55.
