data_PCOD9370157
_publ_section_title
;
Structure prediction by ZEFSAII (Michael W. Deem and Ramdas Pophale) SiO2 
 PCOD9370157
Probable space group: F D D 2
;
_chemical_formula_sum "Si O2"
_cell_formula_units_Z 80
_cell_length_a 27.313089
_cell_length_b 16.809276
_cell_length_c 7.424135
_cell_angle_alpha 90.000000
_cell_angle_beta 90.000000
_cell_angle_gamma 90.000000
_cell_volume 3408.518759
_symmetry_space_group_name_H-M "F D D 2"
_symmetry_group_IT_number 43
_symmetry_cell_setting 'orthorhombic'
loop_
_space_group_symop_operation_xyz
x,y,z
-x,-y,z
1/4-x,1/4+y,1/4+z
1/4+x,1/4-y,1/4+z
x,1/2+y,1/2+z
-x,1/2-y,1/2+z
1/4-x,3/4+y,3/4+z
1/4+x,3/4-y,3/4+z
1/2+x,y,1/2+z
1/2-x,-y,1/2+z
3/4-x,1/4+y,3/4+z
3/4+x,1/4-y,3/4+z
1/2+x,1/2+y,z
1/2-x,1/2-y,z
3/4-x,3/4+y,1/4+z
3/4+x,3/4-y,1/4+z
loop_
_atom_site_type_symbol
_atom_site_label
_atom_site_fract_x
_atom_site_fract_y
_atom_site_fract_z
Si Si1 0.066191 0.275126 0.644150
Si Si2 0.183790 0.509691 0.307611
Si Si3 0.765789 0.879763 0.084665
Si Si4 0.672257 0.772272 0.138804
Si Si5 0.387535 0.330678 0.364664
O O1 0.028274 0.324104 0.520164
O O2 0.080838 0.197542 0.532094
O O3 0.112567 0.335378 0.641337
O O4 0.053044 0.256015 0.848982
O O5 0.222211 0.561653 0.419856
O O6 0.129562 0.550635 0.310753
O O7 0.169556 0.432705 0.431452
O O8 0.714611 0.835668 0.113342
O O9 0.805618 0.808836 0.054650
O O10 0.655274 0.736496 0.332835
#
# Coordination Sequence:
#
# PCOD9370157 Si02
#       5
#    16  16  16  16  16
#     4  10  18  32  55  77 104 143 181 218 280 329
#     4   9  19  31  53  76 107 142 170 225 276 323
#     4   9  17  35  50  81 107 137 184 232 267 317
#     4   8  17  34  53  75 112 136 179 238 264 310
#     4   8  19  32  51  79 104 138 178 227 267 325
#
# _framework density 23.470606
#
# number of rings (size 3 to 8) (size 9 to 14) (size 15 to 20)
#    1.200    2.000    0.000    0.000    2.800    0.000 
#    3.600    2.000    0.000   14.400    0.000    0.000 
#    0.000    0.000    0.000    0.000    0.000    0.000 
#
# Total GULP energy -111564.060207 kJ/mol
# GULP energy per Si atom -5578.203010 kJ/mol
# Density = 2.341719 g / cm^3
# Si number density = 23.470606 Si / 1000 Ang^3
#
#
#
# Elastic Constant Matrix: (Units=GPa)
#
#
# Indices 1 2 3 4 5 6 
#
# 1 121.7766 23.1491 48.7835 0.0000 0.0000 0.0000
# 2 23.1491 87.5008 48.1275 0.0000 0.0000 0.0000
# 3 48.7835 48.1275 193.5314 0.0000 0.0000 0.0000
# 4 0.0000 0.0000 0.0000 16.2543 0.0000 0.0000
# 5 0.0000 0.0000 0.0000 0.0000 23.9098 0.0000
# 6 0.0000 0.0000 0.0000 0.0000 0.0000 43.7452
#
#
#
# Elastic Compliance Matrix: (Units=1/GPa)
#
#
# Indices 1 2 3 4 5 6 
#
# 1 0.009270 -0.001352 -0.002000 0.000000 0.000000 0.000000
# 2 -0.001352 0.013437 -0.003001 0.000000 0.000000 0.000000
# 3 -0.002000 -0.003001 0.006418 0.000000 0.000000 0.000000
# 4 0.000000 0.000000 0.000000 0.061522 0.000000 0.000000
# 5 0.000000 0.000000 0.000000 0.000000 0.041824 0.000000
# 6 0.000000 0.000000 0.000000 0.000000 0.000000 0.022860
#
#
# Mechanical properties :
#
#
# Convention : Reuss Voigt Hill
#
# Bulk Modulus (GPa) = 60.90929 71.43656 66.17292
# Shear Modulus (GPa) = 28.81694 35.63177 32.22436
#
# Velocity S-wave (km/s) = 3.50778 3.90056 3.70938
# Velocity P-wave (km/s) = 6.51258 7.12661 6.82650
#
# Compressibility (1/GPa) = 0.01641786
#
# Stress axis : x y z
#
# Youngs Moduli (GPa) = 107.87261 74.42362 155.82234
#
# Poissons Ratio (x) = 0.10064 0.31172
# Poissons Ratio (y) = 0.14587 0.46756
# Poissons Ratio (z) = 0.21580 0.22331
#
# Static dielectric constant tensor:
#      x y z
#    x 1.982570 0.000000 0.000000 
#    y 0.000000 1.882730 0.000000 
#    z 0.000000 0.000000 1.854260 
# 
# From -- ./inp_files/4720.got.cif
#   From: 2010.05.17/outbox.cif.g08.bks.cpg/sg43_3_cif.got.tgz:4720.got - 2010.06.03 19:21:55.
