data_PCOD9370519
_publ_section_title
;
Structure prediction by ZEFSAII (Michael W. Deem and Ramdas Pophale) SiO2 
 PCOD9370519
Probable space group: F D D 2
;
_chemical_formula_sum "Si O2"
_cell_formula_units_Z 120
_cell_length_a 11.874370
_cell_length_b 21.047463
_cell_length_c 17.794304
_cell_angle_alpha 90.000000
_cell_angle_beta 90.000000
_cell_angle_gamma 90.000000
_cell_volume 4447.247891
_symmetry_space_group_name_H-M "F D D 2"
_symmetry_group_IT_number 43
_symmetry_cell_setting 'orthorhombic'
loop_
_space_group_symop_operation_xyz
x,y,z
-x,-y,z
1/4-x,1/4+y,1/4+z
1/4+x,1/4-y,1/4+z
x,1/2+y,1/2+z
-x,1/2-y,1/2+z
1/4-x,3/4+y,3/4+z
1/4+x,3/4-y,3/4+z
1/2+x,y,1/2+z
1/2-x,-y,1/2+z
3/4-x,1/4+y,3/4+z
3/4+x,1/4-y,3/4+z
1/2+x,1/2+y,z
1/2-x,1/2-y,z
3/4-x,3/4+y,1/4+z
3/4+x,3/4-y,1/4+z
loop_
_atom_site_type_symbol
_atom_site_label
_atom_site_fract_x
_atom_site_fract_y
_atom_site_fract_z
Si Si1 0.345585 0.507560 0.881460
Si Si2 0.488439 0.199592 0.992900
Si Si3 0.287898 0.678210 0.315410
Si Si4 0.390602 0.971789 0.843023
Si Si5 0.750000 0.750000 0.348012
Si Si6 0.207770 0.921371 0.071716
Si Si7 0.595893 0.379297 0.700017
Si Si8 0.424145 0.144657 0.377851
O O1 0.350931 0.492090 0.790794
O O2 0.215168 0.521407 0.895759
O O3 0.368483 0.441505 0.919454
O O4 0.400322 0.573041 0.903021
O O5 0.473103 0.127273 0.021034
O O6 0.604371 0.230033 0.026559
O O7 0.508047 0.194510 0.905576
O O8 0.250000 0.750000 0.305120
O O9 0.416840 0.670941 0.289403
O O10 0.257027 0.659551 0.402364
O O11 0.409147 0.899683 0.819738
O O12 0.500000 0.000000 0.880037
O O13 0.646444 0.717567 0.303370
O O14 0.682703 0.808073 0.388774
O O15 0.711634 0.414848 0.671762
O O16 0.569063 0.367116 0.787420
#
# Coordination Sequence:
#
# PCOD9370519 Si02
#       8
#    16  16  16  16   8  16  16  16
#     4   9  22  46  68 103 141 198 256 318 396 471
#     4   9  23  41  68 101 136 190 245 301 389 463
#     4  11  25  45  67 109 142 187 251 322 389 467
#     4  10  19  43  66  96 135 185 241 301 380 468
#     4  12  28  46  64 116 152 196 268 316 406 476
#     4  12  24  45  72 101 147 194 249 316 391 474
#     4  11  27  48  77 110 152 205 271 329 415 488
#     4  12  27  48  76 111 155 209 263 331 411 489
#
# _framework density 26.982979
#
# number of rings (size 3 to 8) (size 9 to 14) (size 15 to 20)
#    0.800    0.533    2.667    1.200   10.267    0.533 
#    7.200    0.000    0.000    0.000    0.000    0.000 
#    0.000    0.000    0.000    0.000    0.000    0.000 
#
# Total GULP energy -167688.803736 kJ/mol
# GULP energy per Si atom -5589.626791 kJ/mol
# Density = 2.692156 g / cm^3
# Si number density = 26.982979 Si / 1000 Ang^3
#
#
#
# Elastic Constant Matrix: (Units=GPa)
#
#
# Indices 1 2 3 4 5 6 
#
# 1 169.1861 39.0456 -6.7407 0.0000 0.0000 0.0000
# 2 39.0456 197.1450 -3.2405 0.0000 0.0000 0.0000
# 3 -6.7407 -3.2405 117.7571 0.0000 0.0000 0.0000
# 4 0.0000 0.0000 0.0000 8.0930 0.0000 0.0000
# 5 0.0000 0.0000 0.0000 0.0000 -9.0684 0.0000
# 6 0.0000 0.0000 0.0000 0.0000 0.0000 47.4058
#
#
#
# Elastic Compliance Matrix: (Units=1/GPa)
#
#
# Indices 1 2 3 4 5 6 
#
# 1 0.006206 -0.001224 0.000322 0.000000 0.000000 0.000000
# 2 -0.001224 0.005316 0.000076 0.000000 0.000000 0.000000
# 3 0.000322 0.000076 0.008513 0.000000 0.000000 0.000000
# 4 0.000000 0.000000 0.000000 0.123564 0.000000 0.000000
# 5 0.000000 0.000000 0.000000 0.000000 -0.110273 0.000000
# 6 0.000000 0.000000 0.000000 0.000000 0.000000 0.021094
#
#
# Mechanical properties :
#
#
# Convention : Reuss Voigt Hill
#
# Bulk Modulus (GPa) = 54.39971 60.24636 57.32303
# Shear Modulus (GPa) = 80.38566 39.62099 60.00332
#
# Velocity S-wave (km/s) = 5.46406 3.83609 4.72078
# Velocity P-wave (km/s) = 7.74677 6.48049 7.14175
#
# Compressibility (1/GPa) = 0.01838245
#
# Stress axis : x y z
#
# Youngs Moduli (GPa) = 161.13691 188.10973 117.47343
#
# Poissons Ratio (x) = 0.23021 -0.03778
# Poissons Ratio (y) = 0.19720 -0.00896
# Poissons Ratio (z) = -0.05182 -0.01434
#
# Static dielectric constant tensor:
#      x y z
#    x 3.326860 0.000000 0.000000 
#    y 0.000000 2.047970 0.000000 
#    z 0.000000 0.000000 2.223020 
# 
# From -- ./inp_files/21248.got.cif
#   From: 2010.05.17/outbox.cif.g08.bks.cpg/sg43_11_cif.got.tgz:21248.got - 2010.06.03 19:21:55.
