data_PCOD9370425
_publ_section_title
;
Structure prediction by ZEFSAII (Michael W. Deem and Ramdas Pophale) SiO2 
 PCOD9370425
Probable space group: F D D 2
;
_chemical_formula_sum "Si O2"
_cell_formula_units_Z 104
_cell_length_a 16.301114
_cell_length_b 9.885742
_cell_length_c 24.778579
_cell_angle_alpha 90.000000
_cell_angle_beta 90.000000
_cell_angle_gamma 90.000000
_cell_volume 3993.033497
_symmetry_space_group_name_H-M "F D D 2"
_symmetry_group_IT_number 43
_symmetry_cell_setting 'orthorhombic'
loop_
_space_group_symop_operation_xyz
x,y,z
-x,-y,z
1/4-x,1/4+y,1/4+z
1/4+x,1/4-y,1/4+z
x,1/2+y,1/2+z
-x,1/2-y,1/2+z
1/4-x,3/4+y,3/4+z
1/4+x,3/4-y,3/4+z
1/2+x,y,1/2+z
1/2-x,-y,1/2+z
3/4-x,1/4+y,3/4+z
3/4+x,1/4-y,3/4+z
1/2+x,1/2+y,z
1/2-x,1/2-y,z
3/4-x,3/4+y,1/4+z
3/4+x,3/4-y,1/4+z
loop_
_atom_site_type_symbol
_atom_site_label
_atom_site_fract_x
_atom_site_fract_y
_atom_site_fract_z
Si Si1 0.893666 0.734384 0.838490
Si Si2 0.062581 0.168028 0.312544
Si Si3 0.921824 0.409456 0.968371
Si Si4 0.775059 0.403785 0.766255
Si Si5 0.250000 0.250000 0.922283
Si Si6 0.119439 0.708115 0.590481
Si Si7 0.991985 0.792149 0.194835
O O1 0.854823 0.702226 0.779739
O O2 0.825521 0.711078 0.883719
O O3 0.976678 0.647151 0.843307
O O4 0.911344 0.895706 0.843882
O O5 0.152460 0.101223 0.311176
O O6 0.081769 0.324127 0.326123
O O7 0.037736 0.142730 0.250117
O O8 0.947773 0.252546 0.968812
O O9 0.000000 0.500000 0.954026
O O10 0.837450 0.425549 0.935833
O O11 0.750000 0.250000 0.751410
O O12 0.696978 0.473164 0.792896
O O13 0.267578 0.381966 0.956118
O O14 0.066245 0.680533 0.644427
#
# Coordination Sequence:
#
# PCOD9370425 Si02
#       7
#    16  16  16  16   8  16  16
#     4  10  19  37  70  93 133 182 226 281 344 428
#     4  10  23  40  66  99 133 188 233 276 362 424
#     4  11  20  40  67 100 133 185 228 281 353 426
#     4  10  22  42  67  94 138 183 226 287 354 421
#     4  10  20  40  60 100 140 174 228 302 342 414
#     4  10  20  44  65  97 141 184 226 296 351 413
#     4  10  24  37  66 100 138 181 237 293 344 424
#
# _framework density 26.045362000000001
#
# number of rings (size 3 to 8) (size 9 to 14) (size 15 to 20)
#    0.000    1.846    2.308    1.385    4.308    2.462 
#   11.077    9.231    0.000    0.000    0.000    0.000 
#    0.000    0.000    0.000    0.000    0.000    0.000 
#
# Total GULP energy -145535.733117 kJ/mol
# GULP energy per Si atom -5597.528197 kJ/mol
# Density = 2.598608 g / cm^3
# Si number density = 26.045362 Si / 1000 Ang^3
#
#
#
# Elastic Constant Matrix: (Units=GPa)
#
#
# Indices 1 2 3 4 5 6 
#
# 1 159.3679 40.5423 15.5198 0.0000 0.0000 0.0000
# 2 40.5423 123.4024 39.4203 0.0000 0.0000 0.0000
# 3 15.5198 39.4203 70.8775 0.0000 0.0000 0.0000
# 4 0.0000 0.0000 0.0000 17.4128 0.0000 0.0000
# 5 0.0000 0.0000 0.0000 0.0000 -9.5898 0.0000
# 6 0.0000 0.0000 0.0000 0.0000 0.0000 36.2837
#
#
#
# Elastic Compliance Matrix: (Units=1/GPa)
#
#
# Indices 1 2 3 4 5 6 
#
# 1 0.006852 -0.002155 -0.000302 0.000000 0.000000 0.000000
# 2 -0.002155 0.010532 -0.005386 0.000000 0.000000 0.000000
# 3 -0.000302 -0.005386 0.017170 0.000000 0.000000 0.000000
# 4 0.000000 0.000000 0.000000 0.057429 0.000000 0.000000
# 5 0.000000 0.000000 0.000000 0.000000 -0.104277 0.000000
# 6 0.000000 0.000000 0.000000 0.000000 0.000000 0.027561
#
#
# Mechanical properties :
#
#
# Convention : Reuss Voigt Hill
#
# Bulk Modulus (GPa) = 52.99531 60.51250 56.75391
# Shear Modulus (GPa) = 134.25587 26.03236 80.14412
#
# Velocity S-wave (km/s) = 7.18741 3.16492 5.55318
# Velocity P-wave (km/s) = 9.44828 6.05306 7.93440
#
# Compressibility (1/GPa) = 0.01886959
#
# Stress axis : x y z
#
# Youngs Moduli (GPa) = 145.93500 94.94902 58.23968
#
# Poissons Ratio (x) = 0.20459 0.01759
# Poissons Ratio (y) = 0.31446 0.31367
# Poissons Ratio (z) = 0.04407 0.51138
#
# Static dielectric constant tensor:
#      x y z
#    x 2.062230 0.000000 0.000000 
#    y 0.000000 2.041580 0.000000 
#    z 0.000000 0.000000 1.994790 
# 
# From -- ./inp_files/29473.got.cif
#   From: 2010.05.17/outbox.cif.g08.bks.cpg/sg43_15_cif.got.tgz:29473.got - 2010.06.03 19:21:55.
