data_PCOD9370711
_publ_section_title
;
Structure prediction by ZEFSAII (Michael W. Deem and Ramdas Pophale) SiO2 
 PCOD9370711
Probable space group: F D D 2
;
_chemical_formula_sum "Si O2"
_cell_formula_units_Z 112
_cell_length_a 11.992639
_cell_length_b 25.793573
_cell_length_c 15.277541
_cell_angle_alpha 90.000000
_cell_angle_beta 90.000000
_cell_angle_gamma 90.000000
_cell_volume 4725.847735
_symmetry_space_group_name_H-M "F D D 2"
_symmetry_group_IT_number 43
_symmetry_cell_setting 'orthorhombic'
loop_
_space_group_symop_operation_xyz
x,y,z
-x,-y,z
1/4-x,1/4+y,1/4+z
1/4+x,1/4-y,1/4+z
x,1/2+y,1/2+z
-x,1/2-y,1/2+z
1/4-x,3/4+y,3/4+z
1/4+x,3/4-y,3/4+z
1/2+x,y,1/2+z
1/2-x,-y,1/2+z
3/4-x,1/4+y,3/4+z
3/4+x,1/4-y,3/4+z
1/2+x,1/2+y,z
1/2-x,1/2-y,z
3/4-x,3/4+y,1/4+z
3/4+x,3/4-y,1/4+z
loop_
_atom_site_type_symbol
_atom_site_label
_atom_site_fract_x
_atom_site_fract_y
_atom_site_fract_z
Si Si1 0.135789 0.182894 0.800860
Si Si2 0.002592 0.757913 0.939434
Si Si3 0.900574 0.550809 0.334853
Si Si4 0.500000 0.000000 0.493787
Si Si5 0.750000 0.750000 0.672500
Si Si6 0.562933 0.570828 0.267896
Si Si7 0.001794 0.395649 0.596802
Si Si8 0.082282 0.079762 0.694971
O O1 0.040306 0.200753 0.867890
O O2 0.154357 0.232208 0.738381
O O3 0.111232 0.135093 0.736897
O O4 0.244421 0.171428 0.863443
O O5 0.944275 0.702518 0.919469
O O6 0.941754 0.772519 0.028959
O O7 0.127575 0.772994 0.965389
O O8 0.856300 0.608953 0.346143
O O9 0.908796 0.521313 0.426068
O O10 0.012455 0.553997 0.276065
O O11 0.474729 0.949364 0.549250
O O12 0.728148 0.797735 0.608597
O O13 0.474527 0.593902 0.199288
O O14 0.652024 0.615050 0.295138
#
# Coordination Sequence:
#
# PCOD9370711 Si02
#       8
#    16  16  16   8   8  16  16  16
#     4  11  24  44  69  99 138 186 230 289 345 422
#     4  10  21  44  67 101 139 178 228 293 344 404
#     4  10  20  38  68 106 142 176 234 294 341 416
#     4  12  21  39  72  98 142 192 228 291 357 400
#     4  12  27  51  64  96 148 186 222 291 361 426
#     4  11  26  47  73  98 145 179 242 290 351 426
#     4  11  24  46  68 107 138 188 238 297 347 427
#     4  11  22  39  69 102 142 178 238 285 356 414
#
# _framework density 23.699451
#
# number of rings (size 3 to 8) (size 9 to 14) (size 15 to 20)
#    0.000    1.143    4.286    2.143    6.000    1.143 
#   10.286    0.000    0.000    0.000    0.000    0.000 
#    0.000    0.000    0.000    0.000    0.000    0.000 
#
# Total GULP energy -156327.998979 kJ/mol
# GULP energy per Si atom -5583.142821 kJ/mol
# Density = 2.364551 g / cm^3
# Si number density = 23.699451 Si / 1000 Ang^3
#
#
#
# Elastic Constant Matrix: (Units=GPa)
#
#
# Indices 1 2 3 4 5 6 
#
# 1 40.6904 3.8632 27.5440 0.0000 0.0000 0.0000
# 2 3.8632 111.9103 39.1850 0.0000 0.0000 0.0000
# 3 27.5440 39.1850 146.0252 0.0000 0.0000 0.0000
# 4 0.0000 0.0000 0.0000 3.6974 0.0000 0.0000
# 5 0.0000 0.0000 0.0000 0.0000 21.5802 0.0000
# 6 0.0000 0.0000 0.0000 0.0000 0.0000 33.5999
#
#
#
# Elastic Compliance Matrix: (Units=1/GPa)
#
#
# Indices 1 2 3 4 5 6 
#
# 1 0.028271 0.000984 -0.005597 0.000000 0.000000 0.000000
# 2 0.000984 0.009897 -0.002841 0.000000 0.000000 0.000000
# 3 -0.005597 -0.002841 0.008666 0.000000 0.000000 0.000000
# 4 0.000000 0.000000 0.000000 0.270461 0.000000 0.000000
# 5 0.000000 0.000000 0.000000 0.000000 0.046339 0.000000
# 6 0.000000 0.000000 0.000000 0.000000 0.000000 0.029762
#
#
# Mechanical properties :
#
#
# Convention : Reuss Voigt Hill
#
# Bulk Modulus (GPa) = 31.32298 48.86782 40.09540
# Shear Modulus (GPa) = 11.93472 26.97774 19.45623
#
# Velocity S-wave (km/s) = 2.24651 3.37757 2.86834
# Velocity P-wave (km/s) = 4.46928 5.98959 5.28440
#
# Compressibility (1/GPa) = 0.03192544
#
# Stress axis : x y z
#
# Youngs Moduli (GPa) = 35.37214 101.04458 115.39070
#
# Poissons Ratio (x) = -0.09940 0.64579
# Poissons Ratio (y) = -0.03479 0.32785
# Poissons Ratio (z) = 0.19796 0.28709
#
# Static dielectric constant tensor:
#      x y z
#    x 1.937790 0.000000 0.000000 
#    y 0.000000 1.964460 0.000000 
#    z 0.000000 0.000000 1.854020 
# 
# From -- ./inp_files/10226.got.cif
#   From: 2010.05.17/outbox.cif.g08.bks.cpg/sg43_6_cif.got.tgz:10226.got - 2010.06.03 19:21:55.
