data_PCOD9370529
_publ_section_title
;
Structure prediction by ZEFSAII (Michael W. Deem and Ramdas Pophale) SiO2 
 PCOD9370529
Probable space group: F D D 2
;
_chemical_formula_sum "Si O2"
_cell_formula_units_Z 112
_cell_length_a 32.204455
_cell_length_b 11.730419
_cell_length_c 15.454659
_cell_angle_alpha 90.000000
_cell_angle_beta 90.000000
_cell_angle_gamma 90.000000
_cell_volume 5838.333589
_symmetry_space_group_name_H-M "F D D 2"
_symmetry_group_IT_number 43
_symmetry_cell_setting 'orthorhombic'
loop_
_space_group_symop_operation_xyz
x,y,z
-x,-y,z
1/4-x,1/4+y,1/4+z
1/4+x,1/4-y,1/4+z
x,1/2+y,1/2+z
-x,1/2-y,1/2+z
1/4-x,3/4+y,3/4+z
1/4+x,3/4-y,3/4+z
1/2+x,y,1/2+z
1/2-x,-y,1/2+z
3/4-x,1/4+y,3/4+z
3/4+x,1/4-y,3/4+z
1/2+x,1/2+y,z
1/2-x,1/2-y,z
3/4-x,3/4+y,1/4+z
3/4+x,3/4-y,1/4+z
loop_
_atom_site_type_symbol
_atom_site_label
_atom_site_fract_x
_atom_site_fract_y
_atom_site_fract_z
Si Si1 0.576919 0.750672 0.591610
Si Si2 0.250651 0.382495 0.261100
Si Si3 0.837232 0.236267 0.609937
Si Si4 0.137334 0.427204 0.657790
Si Si5 0.340480 0.130406 0.301494
Si Si6 0.775592 0.633798 0.975027
Si Si7 0.284875 0.972108 0.596309
O O1 0.541976 0.843464 0.565114
O O2 0.598194 0.706099 0.504263
O O3 0.611982 0.811492 0.648405
O O4 0.551284 0.656009 0.642764
O O5 0.250000 0.250000 0.232181
O O6 0.207795 0.399387 0.311281
O O7 0.254624 0.467225 0.179347
O O8 0.880385 0.270774 0.565014
O O9 0.844483 0.185088 0.705177
O O10 0.808759 0.155568 0.551544
O O11 0.811510 0.355408 0.611012
O O12 0.107782 0.526533 0.619186
O O13 0.180101 0.431522 0.601700
O O14 0.750000 0.750000 0.960561
O O15 0.742302 0.542173 0.010868
#
# Coordination Sequence:
#
# PCOD9370529 Si02
#       7
#    16  16  16  16  16  16  16
#     4  11  24  38  59  87 129 170 196 251 314 381
#     4  11  17  34  59  86 113 152 205 256 303 349
#     4  10  20  32  57  90 116 154 192 265 302 358
#     4  10  21  37  58  90 121 161 198 257 312 364
#     4  11  19  33  59  89 118 146 210 259 311 352
#     4  10  21  40  62  86 120 161 206 247 308 368
#     4   9  17  35  61  81 114 148 203 258 304 341
#
# _framework density 19.183557
#
# number of rings (size 3 to 8) (size 9 to 14) (size 15 to 20)
#    0.000    1.714    4.286    2.143    0.000    5.714 
#    0.000    0.000    3.143    0.000    0.000    0.000 
#    0.000    0.000    0.000    0.000    0.000    0.000 
#
# Total GULP energy -156160.126093 kJ/mol
# GULP energy per Si atom -5577.147360 kJ/mol
# Density = 1.913989 g / cm^3
# Si number density = 19.183557 Si / 1000 Ang^3
#
#
#
# Elastic Constant Matrix: (Units=GPa)
#
#
# Indices 1 2 3 4 5 6 
#
# 1 143.1544 36.8007 66.5264 0.0000 0.0000 0.0000
# 2 36.8007 28.5499 23.8195 0.0000 0.0000 0.0000
# 3 66.5264 23.8195 97.1602 0.0000 0.0000 0.0000
# 4 0.0000 0.0000 0.0000 7.9256 0.0000 0.0000
# 5 0.0000 0.0000 0.0000 0.0000 43.9186 0.0000
# 6 0.0000 0.0000 0.0000 0.0000 0.0000 29.0337
#
#
#
# Elastic Compliance Matrix: (Units=1/GPa)
#
#
# Indices 1 2 3 4 5 6 
#
# 1 0.012640 -0.011405 -0.005859 0.000000 0.000000 0.000000
# 2 -0.011405 0.054323 -0.005509 0.000000 0.000000 0.000000
# 3 -0.005859 -0.005509 0.015654 0.000000 0.000000 0.000000
# 4 0.000000 0.000000 0.000000 0.126173 0.000000 0.000000
# 5 0.000000 0.000000 0.000000 0.000000 0.022769 0.000000
# 6 0.000000 0.000000 0.000000 0.000000 0.000000 0.034443
#
#
# Mechanical properties :
#
#
# Convention : Reuss Voigt Hill
#
# Bulk Modulus (GPa) = 26.97391 58.12864 42.55128
# Shear Modulus (GPa) = 15.43664 25.62345 20.53004
#
# Velocity S-wave (km/s) = 2.83977 3.65869 3.27492
# Velocity P-wave (km/s) = 4.98436 6.94371 6.04396
#
# Compressibility (1/GPa) = 0.03707286
#
# Stress axis : x y z
#
# Youngs Moduli (GPa) = 79.11419 18.40835 63.88034
#
# Poissons Ratio (x) = 0.20994 0.37426
# Poissons Ratio (y) = 0.90229 0.35190
# Poissons Ratio (z) = 0.46351 0.10141
#
# Static dielectric constant tensor:
#      x y z
#    x 1.706350 0.000000 0.000000 
#    y 0.000000 1.686510 0.000000 
#    z 0.000000 0.000000 1.691390 
# 
# From -- ./inp_files/10341.got.cif
#   From: 2010.05.17/outbox.cif.g08.bks.cpg/sg43_6_cif.got.tgz:10341.got - 2010.06.03 19:21:55.
