data_PCOD9370742
_publ_section_title
;
Structure prediction by ZEFSAII (Michael W. Deem and Ramdas Pophale) SiO2 
 PCOD9370742
Probable space group: F D D 2
;
_chemical_formula_sum "Si O2"
_cell_formula_units_Z 72
_cell_length_a 8.578285
_cell_length_b 12.826135
_cell_length_c 27.545466
_cell_angle_alpha 90.000000
_cell_angle_beta 90.000000
_cell_angle_gamma 90.000000
_cell_volume 3030.724094
_symmetry_space_group_name_H-M "F D D 2"
_symmetry_group_IT_number 43
_symmetry_cell_setting 'orthorhombic'
loop_
_space_group_symop_operation_xyz
x,y,z
-x,-y,z
1/4-x,1/4+y,1/4+z
1/4+x,1/4-y,1/4+z
x,1/2+y,1/2+z
-x,1/2-y,1/2+z
1/4-x,3/4+y,3/4+z
1/4+x,3/4-y,3/4+z
1/2+x,y,1/2+z
1/2-x,-y,1/2+z
3/4-x,1/4+y,3/4+z
3/4+x,1/4-y,3/4+z
1/2+x,1/2+y,z
1/2-x,1/2-y,z
3/4-x,3/4+y,1/4+z
3/4+x,3/4-y,1/4+z
loop_
_atom_site_type_symbol
_atom_site_label
_atom_site_fract_x
_atom_site_fract_y
_atom_site_fract_z
Si Si1 0.966641 0.376709 0.254850
Si Si2 0.420637 0.623430 0.112764
Si Si3 0.500000 0.500000 0.020846
Si Si4 0.397676 0.857625 0.153507
Si Si5 0.728193 0.376045 0.618144
O O1 0.113332 0.303111 0.241700
O O2 0.000000 0.500000 0.254119
O O3 0.852372 0.354355 0.210394
O O4 0.937201 0.350445 0.311262
O O5 0.437831 0.592219 0.056236
O O6 0.411748 0.744731 0.127747
O O7 0.247827 0.586242 0.128055
O O8 0.593665 0.589026 0.131346
O O9 0.572648 0.902101 0.147997
O O10 0.750000 0.250000 0.620064
#
# Coordination Sequence:
#
# PCOD9370742 Si02
#       5
#    16  16   8  16  16
#     4  10  22  39  63 100 131 175 242 282 347 440
#     4   9  20  39  61  90 126 169 221 269 341 416
#     4  10  22  44  68  92 144 188 224 294 362 428
#     4  10  20  39  64  92 130 168 225 286 337 415
#     4   8  17  37  61  83 125 175 209 271 343 400
#
# _framework density 23.756699999999999
#
# number of rings (size 3 to 8) (size 9 to 14) (size 15 to 20)
#    0.000    2.667    0.000    1.333    4.667    3.556 
#    8.000    0.000    0.000    0.000    0.000    0.000 
#    0.000    0.000    0.000    0.000    0.000    0.000 
#
# Total GULP energy -100232.769225 kJ/mol
# GULP energy per Si atom -5568.487179 kJ/mol
# Density = 2.370263 g / cm^3
# Si number density = 23.756700 Si / 1000 Ang^3
#
#
#
# Elastic Constant Matrix: (Units=GPa)
#
#
# Indices 1 2 3 4 5 6 
#
# 1 167.4072 16.6026 27.3792 0.0000 0.0000 0.0000
# 2 16.6026 78.0513 16.2636 0.0000 0.0000 0.0000
# 3 27.3792 16.2636 107.8355 0.0000 0.0000 0.0000
# 4 0.0000 0.0000 0.0000 -218.1983 0.0000 0.0000
# 5 0.0000 0.0000 0.0000 0.0000 16.0752 0.0000
# 6 0.0000 0.0000 0.0000 0.0000 0.0000 66.1002
#
#
#
# Elastic Compliance Matrix: (Units=1/GPa)
#
#
# Indices 1 2 3 4 5 6 
#
# 1 0.006313 -0.001042 -0.001446 0.000000 0.000000 0.000000
# 2 -0.001042 0.013400 -0.001756 0.000000 0.000000 0.000000
# 3 -0.001446 -0.001756 0.009905 0.000000 0.000000 0.000000
# 4 0.000000 0.000000 0.000000 -0.004583 0.000000 0.000000
# 5 0.000000 0.000000 0.000000 0.000000 0.062208 0.000000
# 6 0.000000 0.000000 0.000000 0.000000 0.000000 0.015129
#
#
# Mechanical properties :
#
#
# Convention : Reuss Voigt Hill
#
# Bulk Modulus (GPa) = 47.32508 52.64275 49.98392
# Shear Modulus (GPa) = 42.40786 -7.66799 17.36993
#
# Velocity S-wave (km/s) = 4.22962 -1.79853 2.70693
# Velocity P-wave (km/s) = 6.61943 4.23016 5.55478
#
# Compressibility (1/GPa) = 0.02113044
#
# Stress axis : x y z
#
# Youngs Moduli (GPa) = 158.39774 74.62878 100.95525
#
# Poissons Ratio (x) = 0.07774 0.14596
# Poissons Ratio (y) = 0.16499 0.17732
# Poissons Ratio (z) = 0.22901 0.13108
#
# Static dielectric constant tensor:
#      x y z
#    x 1.717260 0.000000 0.000000 
#    y 0.000000 2.487440 0.000000 
#    z 0.000000 0.000000 1.839600 
# 
# From -- ./inp_files/23958.got.cif
#   From: 2010.05.17/outbox.cif.g08.bks.cpg/sg43_12_cif.got.tgz:23958.got - 2010.06.03 19:21:55.
