data_PCOD9370818
_publ_section_title
;
Structure prediction by ZEFSAII (Michael W. Deem and Ramdas Pophale) SiO2 
 PCOD9370818
Probable space group: F D D 2
;
_chemical_formula_sum "Si O2"
_cell_formula_units_Z 112
_cell_length_a 26.232346
_cell_length_b 13.737377
_cell_length_c 13.431580
_cell_angle_alpha 90.000000
_cell_angle_beta 90.000000
_cell_angle_gamma 90.000000
_cell_volume 4840.252880
_symmetry_space_group_name_H-M "F D D 2"
_symmetry_group_IT_number 43
_symmetry_cell_setting 'orthorhombic'
loop_
_space_group_symop_operation_xyz
x,y,z
-x,-y,z
1/4-x,1/4+y,1/4+z
1/4+x,1/4-y,1/4+z
x,1/2+y,1/2+z
-x,1/2-y,1/2+z
1/4-x,3/4+y,3/4+z
1/4+x,3/4-y,3/4+z
1/2+x,y,1/2+z
1/2-x,-y,1/2+z
3/4-x,1/4+y,3/4+z
3/4+x,1/4-y,3/4+z
1/2+x,1/2+y,z
1/2-x,1/2-y,z
3/4-x,3/4+y,1/4+z
3/4+x,3/4-y,1/4+z
loop_
_atom_site_type_symbol
_atom_site_label
_atom_site_fract_x
_atom_site_fract_y
_atom_site_fract_z
Si Si1 0.800455 0.059362 0.504800
Si Si2 0.750763 0.453355 0.694446
Si Si3 0.500000 0.000000 0.518301
Si Si4 0.094693 0.483814 0.648249
Si Si5 0.851476 0.459364 0.815657
Si Si6 0.341399 0.040164 0.335519
Si Si7 0.250000 0.250000 0.910176
Si Si8 0.852162 0.837689 0.893801
O O1 0.763238 0.007830 0.585644
O O2 0.771190 0.156865 0.470609
O O3 0.852012 0.074842 0.567530
O O4 0.820268 0.002477 0.408089
O O5 0.735423 0.338434 0.697411
O O6 0.809485 0.459659 0.725585
O O7 0.712304 0.486564 0.781710
O O8 0.541449 0.959274 0.594498
O O9 0.104110 0.476048 0.766012
O O10 0.124890 0.394736 0.597015
O O11 0.096029 0.600065 0.625552
O O12 0.382716 0.036874 0.246972
O O13 0.349315 0.953619 0.412672
O O14 0.200221 0.208365 0.854846
#
# Coordination Sequence:
#
# PCOD9370818 Si02
#       8
#    16  16   8  16  16  16   8  16
#     4  11  25  43  70 102 150 188 243 311 372 451
#     4   9  20  39  64  93 130 177 236 297 353 420
#     4   8  17  40  65  92 128 178 231 298 357 424
#     4  10  22  40  67  97 144 184 242 295 371 444
#     4  11  24  42  65 103 142 196 238 298 373 451
#     4  10  20  40  66  98 133 181 242 302 358 425
#     4  12  25  42  73 106 140 200 245 296 387 428
#     4  11  23  41  68 105 140 188 242 314 363 441
#
# _framework density 23.139288000000001
#
# number of rings (size 3 to 8) (size 9 to 14) (size 15 to 20)
#    0.000    1.714    1.429    2.143    4.000    2.286 
#    7.714    0.714    0.000    0.000    0.000    0.000 
#    0.000    0.000    0.000    0.000    0.000    0.000 
#
# Total GULP energy -155974.783011 kJ/mol
# GULP energy per Si atom -5570.527965 kJ/mol
# Density = 2.308662 g / cm^3
# Si number density = 23.139288 Si / 1000 Ang^3
#
#
#
# Elastic Constant Matrix: (Units=GPa)
#
#
# Indices 1 2 3 4 5 6 
#
# 1 54.2807 15.6280 8.5803 0.0000 0.0000 0.0000
# 2 15.6280 67.1670 27.9276 0.0000 0.0000 0.0000
# 3 8.5803 27.9276 88.0756 0.0000 0.0000 0.0000
# 4 0.0000 0.0000 0.0000 31.3647 0.0000 0.0000
# 5 0.0000 0.0000 0.0000 0.0000 20.1694 0.0000
# 6 0.0000 0.0000 0.0000 0.0000 0.0000 29.0185
#
#
#
# Elastic Compliance Matrix: (Units=1/GPa)
#
#
# Indices 1 2 3 4 5 6 
#
# 1 0.019768 -0.004376 -0.000538 0.000000 0.000000 0.000000
# 2 -0.004376 0.018118 -0.005319 0.000000 0.000000 0.000000
# 3 -0.000538 -0.005319 0.013093 0.000000 0.000000 0.000000
# 4 0.000000 0.000000 0.000000 0.031883 0.000000 0.000000
# 5 0.000000 0.000000 0.000000 0.000000 0.049580 0.000000
# 6 0.000000 0.000000 0.000000 0.000000 0.000000 0.034461
#
#
# Mechanical properties :
#
#
# Convention : Reuss Voigt Hill
#
# Bulk Modulus (GPa) = 32.77275 34.86611 33.81943
# Shear Modulus (GPa) = 25.31158 26.60303 25.95731
#
# Velocity S-wave (km/s) = 3.31097 3.39439 3.35294
# Velocity P-wave (km/s) = 5.36756 5.51934 5.44398
#
# Compressibility (1/GPa) = 0.03051316
#
# Stress axis : x y z
#
# Youngs Moduli (GPa) = 50.58775 55.19442 76.37791
#
# Poissons Ratio (x) = 0.24151 0.04112
# Poissons Ratio (y) = 0.22135 0.40623
# Poissons Ratio (z) = 0.02723 0.29356
#
# Static dielectric constant tensor:
#      x y z
#    x 1.931550 0.000000 0.000000 
#    y 0.000000 2.162500 0.000000 
#    z 0.000000 0.000000 1.871860 
# 
# From -- ./inp_files/8319.got.cif
#   From: 2010.05.17/outbox.cif.g08.bks.cpg/sg43_5_cif.got.tgz:8319.got - 2010.06.03 19:21:55.
