data_PCOD9370657
_publ_section_title
;
Structure prediction by ZEFSAII (Michael W. Deem and Ramdas Pophale) SiO2 
 PCOD9370657
Probable space group: F D D 2
;
_chemical_formula_sum "Si O2"
_cell_formula_units_Z 80
_cell_length_a 11.453818
_cell_length_b 23.984985
_cell_length_c 12.237562
_cell_angle_alpha 90.000000
_cell_angle_beta 90.000000
_cell_angle_gamma 90.000000
_cell_volume 3361.898785
_symmetry_space_group_name_H-M "F D D 2"
_symmetry_group_IT_number 43
_symmetry_cell_setting 'orthorhombic'
loop_
_space_group_symop_operation_xyz
x,y,z
-x,-y,z
1/4-x,1/4+y,1/4+z
1/4+x,1/4-y,1/4+z
x,1/2+y,1/2+z
-x,1/2-y,1/2+z
1/4-x,3/4+y,3/4+z
1/4+x,3/4-y,3/4+z
1/2+x,y,1/2+z
1/2-x,-y,1/2+z
3/4-x,1/4+y,3/4+z
3/4+x,1/4-y,3/4+z
1/2+x,1/2+y,z
1/2-x,1/2-y,z
3/4-x,3/4+y,1/4+z
3/4+x,3/4-y,1/4+z
loop_
_atom_site_type_symbol
_atom_site_label
_atom_site_fract_x
_atom_site_fract_y
_atom_site_fract_z
Si Si1 0.250000 0.250000 0.853991
Si Si2 0.335377 0.075260 0.241685
Si Si3 0.628359 0.143190 0.739552
Si Si4 0.871641 0.643190 0.837510
Si Si5 0.085378 0.325260 0.085378
Si Si6 0.000000 0.000000 0.973073
O O1 0.356749 0.273046 0.930265
O O2 0.200718 0.303621 0.788563
O O3 0.196526 0.084759 0.250281
O O4 0.379176 0.090325 0.361918
O O5 0.374999 0.125000 0.163531
O O6 0.500000 0.141456 0.788531
O O7 0.700718 0.196378 0.788500
O O8 0.803473 0.584759 0.826783
O O9 0.870824 0.659675 0.965145
O O10 0.143252 0.273046 0.146799
#
# Coordination Sequence:
#
# PCOD9370657 Si02
#       6
#     8  16  16  16  16   8
#     4  10  21  38  60  82 113 164 209 232 290 386
#     4  10  20  38  59  83 116 158 202 243 296 370
#     4  11  22  36  58  89 120 153 198 257 306 346
#     4  11  22  36  58  89 120 153 198 257 306 346
#     4  10  20  38  59  83 116 158 202 243 296 370
#     4  10  21  38  60  82 113 164 209 232 290 386
#
# _framework density 23.796077
#
# number of rings (size 3 to 8) (size 9 to 14) (size 15 to 20)
#    0.000    1.600    0.000    8.400    0.000    6.400 
#    0.000    0.000    0.000    2.400    0.000    2.800 
#    0.000    0.000    0.000    0.000    0.000    0.000 
#
# Total GULP energy -111556.270972 kJ/mol
# GULP energy per Si atom -5577.813549 kJ/mol
# Density = 2.374192 g / cm^3
# Si number density = 23.796077 Si / 1000 Ang^3
#
#
#
# Elastic Constant Matrix: (Units=GPa)
#
#
# Indices 1 2 3 4 5 6 
#
# 1 184.3892 55.6838 -1.2726 0.0000 0.0000 0.0000
# 2 55.6838 97.2845 3.3301 0.0000 0.0000 0.0000
# 3 -1.2726 3.3301 46.2797 0.0000 0.0000 0.0000
# 4 0.0000 0.0000 0.0000 14.2265 0.0000 0.0000
# 5 0.0000 0.0000 0.0000 0.0000 26.8367 0.0000
# 6 0.0000 0.0000 0.0000 0.0000 0.0000 47.2679
#
#
#
# Elastic Compliance Matrix: (Units=1/GPa)
#
#
# Indices 1 2 3 4 5 6 
#
# 1 0.006566 -0.003774 0.000452 0.000000 0.000000 0.000000
# 2 -0.003774 0.012473 -0.001001 0.000000 0.000000 0.000000
# 3 0.000452 -0.001001 0.021692 0.000000 0.000000 0.000000
# 4 0.000000 0.000000 0.000000 0.070291 0.000000 0.000000
# 5 0.000000 0.000000 0.000000 0.000000 0.037262 0.000000
# 6 0.000000 0.000000 0.000000 0.000000 0.000000 0.021156
#
#
# Mechanical properties :
#
#
# Convention : Reuss Voigt Hill
#
# Bulk Modulus (GPa) = 31.16643 49.27065 40.21854
# Shear Modulus (GPa) = 26.48550 35.68037 31.08294
#
# Velocity S-wave (km/s) = 3.33981 3.87644 3.61809
# Velocity P-wave (km/s) = 5.29133 6.38639 5.86448
#
# Compressibility (1/GPa) = 0.03208581
#
# Stress axis : x y z
#
# Youngs Moduli (GPa) = 152.29795 80.17036 46.09943
#
# Poissons Ratio (x) = 0.30254 -0.02084
# Poissons Ratio (y) = 0.57474 0.04616
# Poissons Ratio (z) = -0.06885 0.08027
#
# Static dielectric constant tensor:
#      x y z
#    x 2.074340 0.000000 0.000000 
#    y 0.000000 1.990200 0.000000 
#    z 0.000000 0.000000 1.930750 
# 
# From -- ./inp_files/9563.got.cif
#   From: 2010.05.17/outbox.cif.g08.bks.cpg/sg43_5_cif.got.tgz:9563.got - 2010.06.03 19:21:55.
