data_PCOD9370573
_publ_section_title
;
Structure prediction by ZEFSAII (Michael W. Deem and Ramdas Pophale) SiO2 
 PCOD9370573
Probable space group: F D D 2
;
_chemical_formula_sum "Si O2"
_cell_formula_units_Z 120
_cell_length_a 13.693999
_cell_length_b 19.037847
_cell_length_c 23.775343
_cell_angle_alpha 90.000000
_cell_angle_beta 90.000000
_cell_angle_gamma 90.000000
_cell_volume 6198.333150
_symmetry_space_group_name_H-M "F D D 2"
_symmetry_group_IT_number 43
_symmetry_cell_setting 'orthorhombic'
loop_
_space_group_symop_operation_xyz
x,y,z
-x,-y,z
1/4-x,1/4+y,1/4+z
1/4+x,1/4-y,1/4+z
x,1/2+y,1/2+z
-x,1/2-y,1/2+z
1/4-x,3/4+y,3/4+z
1/4+x,3/4-y,3/4+z
1/2+x,y,1/2+z
1/2-x,-y,1/2+z
3/4-x,1/4+y,3/4+z
3/4+x,1/4-y,3/4+z
1/2+x,1/2+y,z
1/2-x,1/2-y,z
3/4-x,3/4+y,1/4+z
3/4+x,3/4-y,1/4+z
loop_
_atom_site_type_symbol
_atom_site_label
_atom_site_fract_x
_atom_site_fract_y
_atom_site_fract_z
Si Si1 0.941167 0.277101 0.696060
Si Si2 0.750000 0.250000 0.775331
Si Si3 0.389086 0.524070 0.484267
Si Si4 0.812671 0.889238 0.872704
Si Si5 0.389969 0.491437 0.780492
Si Si6 0.335800 0.628111 0.839680
Si Si7 0.870309 0.916282 0.663494
Si Si8 0.215174 0.462082 0.102744
O O1 0.847759 0.267672 0.737889
O O2 0.944960 0.200748 0.667729
O O3 0.925569 0.336813 0.648699
O O4 0.054396 0.282243 0.716779
O O5 0.741981 0.317273 0.816187
O O6 0.500000 0.500000 0.491128
O O7 0.398107 0.589568 0.440525
O O8 0.344477 0.544280 0.544594
O O9 0.833300 0.932493 0.815942
O O10 0.714266 0.844169 0.873771
O O11 0.901792 0.840226 0.890857
O O12 0.500000 0.500000 0.803661
O O13 0.344516 0.566951 0.792909
O O14 0.394942 0.464548 0.717213
O O15 0.431464 0.676703 0.843990
O O16 0.789951 0.959725 0.628153
#
# Coordination Sequence:
#
# PCOD9370573 Si02
#       8
#    16   8  16  16  16  16  16  16
#     4  10  24  42  65  93 130 174 216 269 337 386
#     4  12  24  44  68  92 134 170 220 274 330 400
#     4  11  23  44  65  92 134 175 218 275 332 392
#     4  10  20  36  58  91 126 160 208 271 330 387
#     4  11  20  37  58  91 130 157 213 279 330 387
#     4  11  25  40  65  97 132 173 221 269 326 399
#     4  11  24  35  63  94 126 172 216 268 341 382
#     4  12  21  37  62  98 127 164 223 269 326 389
#
# _framework density 19.360043000000001
#
# number of rings (size 3 to 8) (size 9 to 14) (size 15 to 20)
#    0.000    1.067    4.000    2.800    7.467    1.067 
#    0.000    0.000    0.000    0.000    0.000    0.000 
#    0.000    0.000    0.000    0.000    0.000    0.000 
#
# Total GULP energy -167091.815601 kJ/mol
# GULP energy per Si atom -5569.727187 kJ/mol
# Density = 1.931598 g / cm^3
# Si number density = 19.360043 Si / 1000 Ang^3
#
#
#
# Elastic Constant Matrix: (Units=GPa)
#
#
# Indices 1 2 3 4 5 6 
#
# 1 104.2378 33.0531 33.2263 0.0000 0.0000 0.0000
# 2 33.0531 95.7713 27.6356 0.0000 0.0000 0.0000
# 3 33.2263 27.6356 40.1348 0.0000 0.0000 0.0000
# 4 0.0000 0.0000 0.0000 22.8828 0.0000 0.0000
# 5 0.0000 0.0000 0.0000 0.0000 -309.9084 0.0000
# 6 0.0000 0.0000 0.0000 0.0000 0.0000 37.3177
#
#
#
# Elastic Compliance Matrix: (Units=1/GPa)
#
#
# Indices 1 2 3 4 5 6 
#
# 1 0.013266 -0.001759 -0.009771 0.000000 0.000000 0.000000
# 2 -0.001759 0.013264 -0.007677 0.000000 0.000000 0.000000
# 3 -0.009771 -0.007677 0.038292 0.000000 0.000000 0.000000
# 4 0.000000 0.000000 0.000000 0.043701 0.000000 0.000000
# 5 0.000000 0.000000 0.000000 0.000000 -0.003227 0.000000
# 6 0.000000 0.000000 0.000000 0.000000 0.000000 0.026797
#
#
# Mechanical properties :
#
#
# Convention : Reuss Voigt Hill
#
# Bulk Modulus (GPa) = 37.86879 47.55265 42.71072
# Shear Modulus (GPa) = 27.88488 -40.19298 -6.15405
#
# Velocity S-wave (km/s) = 3.79929 -4.56134 -1.78484
# Velocity P-wave (km/s) = 6.23289 1.76793 4.22630
#
# Compressibility (1/GPa) = 0.02640697
#
# Stress axis : x y z
#
# Youngs Moduli (GPa) = 75.38180 75.39317 26.11544
#
# Poissons Ratio (x) = 0.13260 0.25518
# Poissons Ratio (y) = 0.13258 0.20049
# Poissons Ratio (z) = 0.73658 0.57879
#
# Static dielectric constant tensor:
#      x y z
#    x 1.746710 0.000000 0.000000 
#    y 0.000000 1.675110 0.000000 
#    z 0.000000 0.000000 1.751010 
# 
# From -- ./inp_files/21836.got.cif
#   From: 2010.05.17/outbox.cif.g08.bks.cpg/sg43_11_cif.got.tgz:21836.got - 2010.06.03 19:21:55.
