data_PCOD9370863
_publ_section_title
;
Structure prediction by ZEFSAII (Michael W. Deem and Ramdas Pophale) SiO2 
 PCOD9370863
Probable space group: F D D 2
;
_chemical_formula_sum "Si O2"
_cell_formula_units_Z 88
_cell_length_a 20.666183
_cell_length_b 18.882182
_cell_length_c 9.573522
_cell_angle_alpha 90.000000
_cell_angle_beta 90.000000
_cell_angle_gamma 90.000000
_cell_volume 3735.804920
_symmetry_space_group_name_H-M "F D D 2"
_symmetry_group_IT_number 43
_symmetry_cell_setting 'orthorhombic'
loop_
_space_group_symop_operation_xyz
x,y,z
-x,-y,z
1/4-x,1/4+y,1/4+z
1/4+x,1/4-y,1/4+z
x,1/2+y,1/2+z
-x,1/2-y,1/2+z
1/4-x,3/4+y,3/4+z
1/4+x,3/4-y,3/4+z
1/2+x,y,1/2+z
1/2-x,-y,1/2+z
3/4-x,1/4+y,3/4+z
3/4+x,1/4-y,3/4+z
1/2+x,1/2+y,z
1/2-x,1/2-y,z
3/4-x,3/4+y,1/4+z
3/4+x,3/4-y,1/4+z
loop_
_atom_site_type_symbol
_atom_site_label
_atom_site_fract_x
_atom_site_fract_y
_atom_site_fract_z
Si Si1 0.872390 0.516509 0.226020
Si Si2 0.134902 0.982557 0.118652
Si Si3 0.221861 0.399859 0.424812
Si Si4 0.323310 0.012848 0.913700
Si Si5 0.059968 0.346739 0.182657
Si Si6 0.250000 0.250000 0.345376
O O1 0.811954 0.571812 0.563223
O O2 0.821876 0.570408 0.299441
O O3 0.856110 0.442405 0.311642
O O4 0.853540 0.509156 0.065292
O O5 0.129777 0.973661 0.283736
O O6 0.165518 0.057229 0.072731
O O7 0.068044 0.975169 0.030878
O O8 0.290173 0.436182 0.398564
O O9 0.065178 0.430825 0.209204
O O10 0.226563 0.317100 0.429368
O O11 0.262912 0.068309 0.907639
#
# Coordination Sequence:
#
# PCOD9370863 Si02
#       6
#    16  16  16  16  16   8
#     4  10  21  40  66  96 128 170 219 273 330 400
#     4  10  23  41  63  97 128 170 219 268 326 396
#     4  10  22  41  66  96 128 174 225 270 326 395
#     4  10  22  40  69  88 136 171 207 280 339 385
#     4  10  20  41  64  96 126 176 223 268 327 399
#     4  12  24  38  70  96 130 176 224 270 318 406
#
# _framework density 23.555834000000001
#
# number of rings (size 3 to 8) (size 9 to 14) (size 15 to 20)
#    0.000    2.182    1.818    4.364    2.545    5.818 
#    0.000    0.000    0.000    0.000    0.000    0.000 
#    0.000    0.000    0.000    0.000    0.000    0.000 
#
# Total GULP energy -122526.012914 kJ/mol
# GULP energy per Si atom -5569.364223 kJ/mol
# Density = 2.350222 g / cm^3
# Si number density = 23.555834 Si / 1000 Ang^3
#
#
#
# Elastic Constant Matrix: (Units=GPa)
#
#
# Indices 1 2 3 4 5 6 
#
# 1 40.5149 -12.7177 -11.3121 0.0000 0.0000 0.0000
# 2 -12.7177 64.5647 -6.1909 0.0000 0.0000 0.0000
# 3 -11.3121 -6.1909 134.0598 0.0001 0.0000 0.0000
# 4 0.0000 0.0000 0.0001 6.9634 0.0000 0.0000
# 5 0.0000 0.0000 0.0000 0.0000 15.3672 0.0000
# 6 0.0000 0.0000 0.0000 0.0000 0.0000 24.2432
#
#
#
# Elastic Compliance Matrix: (Units=1/GPa)
#
#
# Indices 1 2 3 4 5 6 
#
# 1 0.027149 0.005592 0.002549 0.000000 0.000000 0.000000
# 2 0.005592 0.016709 0.001244 0.000000 0.000000 0.000000
# 3 0.002549 0.001244 0.007732 0.000000 0.000000 0.000000
# 4 0.000000 0.000000 0.000000 0.143608 0.000000 0.000000
# 5 0.000000 0.000000 0.000000 0.000000 0.065074 0.000000
# 6 0.000000 0.000000 0.000000 0.000000 0.000000 0.041249
#
#
# Mechanical properties :
#
#
# Convention : Reuss Voigt Hill
#
# Bulk Modulus (GPa) = 14.21259 19.85533 17.03396
# Shear Modulus (GPa) = 16.32898 27.27211 21.80054
#
# Velocity S-wave (km/s) = 2.63573 3.40629 3.04548
# Velocity P-wave (km/s) = 3.91273 4.89058 4.42872
#
# Compressibility (1/GPa) = 0.07036017
#
# Stress axis : x y z
#
# Youngs Moduli (GPa) = 36.83317 59.84761 129.33464
#
# Poissons Ratio (x) = -0.33468 -0.32969
# Poissons Ratio (y) = -0.20598 -0.16083
# Poissons Ratio (z) = -0.09389 -0.07442
#
# Static dielectric constant tensor:
#      x y z
#    x 2.050850 0.000000 0.000000 
#    y 0.000000 1.931750 0.000000 
#    z 0.000000 0.000000 1.884700 
# 
# From -- ./inp_files/3690.got.cif
#   From: 2010.05.17/outbox.cif.g08.bks.cpg/sg43_2_cif.got.tgz:3690.got - 2010.06.03 19:21:55.
