data_PCOD9370386
_publ_section_title
;
Structure prediction by ZEFSAII (Michael W. Deem and Ramdas Pophale) SiO2 
 PCOD9370386
Probable space group: F D D 2
;
_chemical_formula_sum "Si O2"
_cell_formula_units_Z 96
_cell_length_a 28.661951
_cell_length_b 8.031107
_cell_length_c 17.347591
_cell_angle_alpha 90.000000
_cell_angle_beta 90.000000
_cell_angle_gamma 90.000000
_cell_volume 3993.193318
_symmetry_space_group_name_H-M "F D D 2"
_symmetry_group_IT_number 43
_symmetry_cell_setting 'orthorhombic'
loop_
_space_group_symop_operation_xyz
x,y,z
-x,-y,z
1/4-x,1/4+y,1/4+z
1/4+x,1/4-y,1/4+z
x,1/2+y,1/2+z
-x,1/2-y,1/2+z
1/4-x,3/4+y,3/4+z
1/4+x,3/4-y,3/4+z
1/2+x,y,1/2+z
1/2-x,-y,1/2+z
3/4-x,1/4+y,3/4+z
3/4+x,1/4-y,3/4+z
1/2+x,1/2+y,z
1/2-x,1/2-y,z
3/4-x,3/4+y,1/4+z
3/4+x,3/4-y,1/4+z
loop_
_atom_site_type_symbol
_atom_site_label
_atom_site_fract_x
_atom_site_fract_y
_atom_site_fract_z
Si Si1 0.886386 0.013495 0.576350
Si Si2 0.862659 0.403692 0.758842
Si Si3 0.202264 0.310279 0.144352
Si Si4 0.962144 0.865796 0.664405
Si Si5 0.721746 0.502904 0.790745
Si Si6 0.316664 0.760350 0.905833
O O1 0.837293 0.102488 0.592674
O O2 0.924751 0.141566 0.546726
O O3 0.885749 0.853020 0.521292
O O4 0.911102 0.946936 0.655699
O O5 0.825180 0.323612 0.699435
O O6 0.912358 0.382193 0.717589
O O7 0.855309 0.327293 0.843681
O O8 0.250000 0.250000 0.104766
O O9 0.223717 0.442417 0.204506
O O10 0.956372 0.675897 0.692861
O O11 0.982016 0.833901 0.576463
O O12 0.000000 0.000000 0.693281
O O13 0.713364 0.350507 0.848489
#
# Coordination Sequence:
#
# PCOD9370386 Si02
#       6
#    16  16  16  16  16  16
#     4  10  21  36  62  93 126 163 212 276 329 384
#     4  10  22  38  63  91 126 170 215 263 335 396
#     4  11  22  40  65  93 128 174 220 270 328 408
#     4   9  19  35  59  94 115 159 220 268 316 387
#     4  10  19  36  65  93 123 167 222 271 321 402
#     4  10  19  37  62  89 127 160 212 265 327 393
#
# _framework density 24.04091
#
# number of rings (size 3 to 8) (size 9 to 14) (size 15 to 20)
#    0.000    2.000    1.667    3.500    4.667    0.000 
#    0.000    0.833    7.333    0.000    0.000    0.000 
#    0.000    0.000    0.000    0.000    0.000    0.000 
#
# Total GULP energy -133781.569141 kJ/mol
# GULP energy per Si atom -5574.232048 kJ/mol
# Density = 2.398619 g / cm^3
# Si number density = 24.040910 Si / 1000 Ang^3
#
#
#
# Elastic Constant Matrix: (Units=GPa)
#
#
# Indices 1 2 3 4 5 6 
#
# 1 105.3818 12.7769 23.3707 0.0000 0.0000 0.0000
# 2 12.7769 78.5294 17.6553 0.0000 0.0000 0.0000
# 3 23.3707 17.6553 78.9817 0.0000 0.0000 0.0000
# 4 0.0000 0.0000 0.0000 44.9482 0.0000 0.0000
# 5 0.0000 0.0000 0.0000 0.0000 8.4311 0.0000
# 6 0.0000 0.0000 0.0000 0.0000 0.0000 39.8543
#
#
#
# Elastic Compliance Matrix: (Units=1/GPa)
#
#
# Indices 1 2 3 4 5 6 
#
# 1 0.010235 -0.001036 -0.002797 0.000000 0.000000 0.000000
# 2 -0.001036 0.013513 -0.002714 0.000000 0.000000 0.000000
# 3 -0.002797 -0.002714 0.014095 0.000000 0.000000 0.000000
# 4 0.000000 0.000000 0.000000 0.022248 0.000000 0.000000
# 5 0.000000 0.000000 0.000000 0.000000 0.118609 0.000000
# 6 0.000000 0.000000 0.000000 0.000000 0.000000 0.025091
#
#
# Mechanical properties :
#
#
# Convention : Reuss Voigt Hill
#
# Bulk Modulus (GPa) = 40.40584 41.16652 40.78618
# Shear Modulus (GPa) = 22.20883 32.58605 27.39744
#
# Velocity S-wave (km/s) = 3.04269 3.68563 3.37948
# Velocity P-wave (km/s) = 5.40255 5.93906 5.67715
#
# Compressibility (1/GPa) = 0.02474890
#
# Stress axis : x y z
#
# Youngs Moduli (GPa) = 97.70160 74.00345 70.94494
#
# Poissons Ratio (x) = 0.07670 0.19843
# Poissons Ratio (y) = 0.10127 0.19254
# Poissons Ratio (z) = 0.27326 0.20084
#
# Static dielectric constant tensor:
#      x y z
#    x 2.048710 0.000000 0.000000 
#    y 0.000000 2.011340 0.000000 
#    z 0.000000 0.000000 1.942090 
# 
# From -- ./inp_files/18811.got.cif
#   From: 2010.05.17/outbox.cif.g08.bks.cpg/sg43_10_cif.got.tgz:18811.got - 2010.06.03 19:21:55.
