data_PCOD9370666
_publ_section_title
;
Structure prediction by ZEFSAII (Michael W. Deem and Ramdas Pophale) SiO2 
 PCOD9370666
Probable space group: F D D 2
;
_chemical_formula_sum "Si O2"
_cell_formula_units_Z 104
_cell_length_a 15.273039
_cell_length_b 14.444535
_cell_length_c 22.791639
_cell_angle_alpha 90.000000
_cell_angle_beta 90.000000
_cell_angle_gamma 90.000000
_cell_volume 5028.107841
_symmetry_space_group_name_H-M "F D D 2"
_symmetry_group_IT_number 43
_symmetry_cell_setting 'orthorhombic'
loop_
_space_group_symop_operation_xyz
x,y,z
-x,-y,z
1/4-x,1/4+y,1/4+z
1/4+x,1/4-y,1/4+z
x,1/2+y,1/2+z
-x,1/2-y,1/2+z
1/4-x,3/4+y,3/4+z
1/4+x,3/4-y,3/4+z
1/2+x,y,1/2+z
1/2-x,-y,1/2+z
3/4-x,1/4+y,3/4+z
3/4+x,1/4-y,3/4+z
1/2+x,1/2+y,z
1/2-x,1/2-y,z
3/4-x,3/4+y,1/4+z
3/4+x,3/4-y,1/4+z
loop_
_atom_site_type_symbol
_atom_site_label
_atom_site_fract_x
_atom_site_fract_y
_atom_site_fract_z
Si Si1 0.828149 0.680565 0.201200
Si Si2 0.737431 0.501746 0.028882
Si Si3 0.500000 0.000000 0.709773
Si Si4 0.884612 0.921929 0.316376
Si Si5 0.262301 0.490095 0.747555
Si Si6 0.627714 0.099276 0.941581
Si Si7 0.175786 0.320400 0.067643
O O1 0.750000 0.750000 0.221166
O O2 0.795503 0.574797 0.207128
O O3 0.847411 0.705645 0.133945
O O4 0.916091 0.699556 0.237128
O O5 0.679380 0.428980 0.065560
O O6 0.782498 0.578605 0.068088
O O7 0.816694 0.455445 0.991050
O O8 0.431220 0.960209 0.756966
O O9 0.548285 0.923876 0.671446
O O10 0.787071 0.952973 0.299604
O O11 0.899525 0.956059 0.383165
O O12 0.200584 0.411575 0.718129
O O13 0.343874 0.437315 0.775385
O O14 0.250000 0.250000 0.046332
#
# Coordination Sequence:
#
# PCOD9370666 Si02
#       7
#    16  16   8  16  16  16  16
#     4  11  22  40  63  92 120 163 208 254 305 369
#     4  11  22  41  61  93 121 158 203 251 301 368
#     4   8  20  36  54  84 120 138 196 252 278 346
#     4  10  20  38  61  87 116 157 195 243 299 350
#     4  11  22  41  61  93 121 158 203 251 301 368
#     4  10  22  38  61  87 120 155 197 247 304 356
#     4  11  24  40  62  88 128 160 200 258 311 359
#
# _framework density 20.683724999999999
#
# number of rings (size 3 to 8) (size 9 to 14) (size 15 to 20)
#    0.000    1.538    3.077    1.846    0.000    3.077 
#    0.000    6.154    0.000    0.000    0.000    0.000 
#    0.000    0.000    0.000    0.000    0.000    0.000 
#
# Total GULP energy -144791.749729 kJ/mol
# GULP energy per Si atom -5568.913451 kJ/mol
# Density = 2.063665 g / cm^3
# Si number density = 20.683725 Si / 1000 Ang^3
#
#
#
# Elastic Constant Matrix: (Units=GPa)
#
#
# Indices 1 2 3 4 5 6 
#
# 1 80.6382 7.2480 32.1592 0.0000 0.0000 0.0000
# 2 7.2480 39.4669 -0.8834 0.0000 0.0000 0.0000
# 3 32.1592 -0.8834 67.4137 0.0000 0.0000 0.0000
# 4 0.0000 0.0000 0.0000 86.6468 0.0000 0.0000
# 5 0.0000 0.0000 0.0000 0.0000 15.2645 0.0000
# 6 0.0000 0.0000 0.0000 0.0000 0.0000 38.8887
#
#
#
# Elastic Compliance Matrix: (Units=1/GPa)
#
#
# Indices 1 2 3 4 5 6 
#
# 1 0.015672 -0.003046 -0.007516 0.000000 0.000000 0.000000
# 2 -0.003046 0.025937 0.001793 0.000000 0.000000 0.000000
# 3 -0.007516 0.001793 0.018443 0.000000 0.000000 0.000000
# 4 0.000000 0.000000 0.000000 0.011541 0.000000 0.000000
# 5 0.000000 0.000000 0.000000 0.000000 0.065511 0.000000
# 6 0.000000 0.000000 0.000000 0.000000 0.000000 0.025714
#
#
# Mechanical properties :
#
#
# Convention : Reuss Voigt Hill
#
# Bulk Modulus (GPa) = 23.52201 29.39629 26.45915
# Shear Modulus (GPa) = 25.70298 38.09301 31.89799
#
# Velocity S-wave (km/s) = 3.52897 4.29615 3.93132
# Velocity P-wave (km/s) = 5.29167 6.23316 5.78161
#
# Compressibility (1/GPa) = 0.04251337
#
# Stress axis : x y z
#
# Youngs Moduli (GPa) = 63.80608 38.55452 54.22140
#
# Poissons Ratio (x) = 0.11746 0.40755
# Poissons Ratio (y) = 0.19438 -0.09723
# Poissons Ratio (z) = 0.47959 -0.06914
#
# Static dielectric constant tensor:
#      x y z
#    x 1.695880 0.000000 0.000000 
#    y 0.000000 1.753820 0.000000 
#    z 0.000000 0.000000 1.716440 
# 
# From -- ./inp_files/17632.got.cif
#   From: 2010.05.17/outbox.cif.g08.bks.cpg/sg43_9_cif.got.tgz:17632.got - 2010.06.03 19:21:55.
