data_PCOD9370646
_publ_section_title
;
Structure prediction by ZEFSAII (Michael W. Deem and Ramdas Pophale) SiO2 
 PCOD9370646
Probable space group: F D D 2
;
_chemical_formula_sum "Si O2"
_cell_formula_units_Z 104
_cell_length_a 17.889971
_cell_length_b 17.400256
_cell_length_c 13.820859
_cell_angle_alpha 90.000000
_cell_angle_beta 90.000000
_cell_angle_gamma 90.000000
_cell_volume 4302.296238
_symmetry_space_group_name_H-M "F D D 2"
_symmetry_group_IT_number 43
_symmetry_cell_setting 'orthorhombic'
loop_
_space_group_symop_operation_xyz
x,y,z
-x,-y,z
1/4-x,1/4+y,1/4+z
1/4+x,1/4-y,1/4+z
x,1/2+y,1/2+z
-x,1/2-y,1/2+z
1/4-x,3/4+y,3/4+z
1/4+x,3/4-y,3/4+z
1/2+x,y,1/2+z
1/2-x,-y,1/2+z
3/4-x,1/4+y,3/4+z
3/4+x,1/4-y,3/4+z
1/2+x,1/2+y,z
1/2-x,1/2-y,z
3/4-x,3/4+y,1/4+z
3/4+x,3/4-y,1/4+z
loop_
_atom_site_type_symbol
_atom_site_label
_atom_site_fract_x
_atom_site_fract_y
_atom_site_fract_z
Si Si1 0.863189 0.835093 0.476980
Si Si2 0.646746 0.381117 0.820229
Si Si3 0.614163 0.913623 0.127136
Si Si4 0.250000 0.250000 0.332672
Si Si5 0.284772 0.982217 0.417378
Si Si6 0.283970 0.971382 0.640256
Si Si7 0.634373 0.733129 0.680836
O O1 0.805221 0.798498 0.401379
O O2 0.941558 0.789702 0.459832
O O3 0.833154 0.807069 0.583561
O O4 0.875713 0.924610 0.448605
O O5 0.591935 0.419436 0.740709
O O6 0.697450 0.311096 0.778810
O O7 0.706039 0.439445 0.861494
O O8 0.593475 0.347527 0.903918
O O9 0.591647 0.825217 0.115024
O O10 0.699622 0.942271 0.138365
O O11 0.582194 0.954626 0.032810
O O12 0.301146 0.997317 0.530200
O O13 0.200730 0.951748 0.422203
#
# Coordination Sequence:
#
# PCOD9370646 Si02
#       7
#    16  16  16   8  16  16  16
#     4  11  24  42  69 103 144 180 235 291 356 428
#     4  10  20  37  66  94 132 171 228 289 337 410
#     4  10  23  41  64  95 132 183 226 284 339 414
#     4  10  22  40  68 106 134 180 234 294 356 402
#     4  10  21  42  65  93 135 175 231 282 345 417
#     4   9  22  36  63  98 129 173 229 285 345 406
#     4  11  25  44  67 100 139 189 227 284 356 432
#
# _framework density 24.173138000000002
#
# number of rings (size 3 to 8) (size 9 to 14) (size 15 to 20)
#    0.000    1.846    1.538    0.923    6.462    3.077 
#    2.769    0.000    0.000    0.000    0.000    0.000 
#    0.000    0.000    0.000    0.000    0.000    0.000 
#
# Total GULP energy -144777.383819 kJ/mol
# GULP energy per Si atom -5568.360916 kJ/mol
# Density = 2.411812 g / cm^3
# Si number density = 24.173138 Si / 1000 Ang^3
#
#
#
# Elastic Constant Matrix: (Units=GPa)
#
#
# Indices 1 2 3 4 5 6 
#
# 1 53.0101 11.6754 -5.3065 0.0000 0.0000 0.0000
# 2 11.6754 110.7006 46.5335 0.0000 0.0000 0.0000
# 3 -5.3065 46.5335 109.1743 0.0000 0.0000 0.0000
# 4 0.0000 0.0000 0.0000 30.8856 0.0000 0.0000
# 5 0.0000 0.0000 0.0000 0.0000 23.2066 0.0000
# 6 0.0000 0.0000 0.0000 0.0000 0.0000 28.9268
#
#
#
# Elastic Compliance Matrix: (Units=1/GPa)
#
#
# Indices 1 2 3 4 5 6 
#
# 1 0.019757 -0.003030 0.002252 0.000000 0.000000 0.000000
# 2 -0.003030 0.011470 -0.005036 0.000000 0.000000 0.000000
# 3 0.002252 -0.005036 0.011416 0.000000 0.000000 0.000000
# 4 0.000000 0.000000 0.000000 0.032378 0.000000 0.000000
# 5 0.000000 0.000000 0.000000 0.000000 0.043091 0.000000
# 6 0.000000 0.000000 0.000000 0.000000 0.000000 0.034570
#
#
# Mechanical properties :
#
#
# Convention : Reuss Voigt Hill
#
# Bulk Modulus (GPa) = 32.24382 42.07665 37.16023
# Shear Modulus (GPa) = 28.62891 31.26930 29.94910
#
# Velocity S-wave (km/s) = 3.44514 3.60051 3.52368
# Velocity P-wave (km/s) = 5.40305 5.89313 5.65340
#
# Compressibility (1/GPa) = 0.03101370
#
# Stress axis : x y z
#
# Youngs Moduli (GPa) = 50.61445 87.18425 87.59870
#
# Poissons Ratio (x) = 0.26420 -0.19727
# Poissons Ratio (y) = 0.15338 0.44116
# Poissons Ratio (z) = -0.11398 0.43907
#
# Static dielectric constant tensor:
#      x y z
#    x 1.996550 0.000000 0.000000 
#    y 0.000000 1.990000 0.000000 
#    z 0.000000 0.000000 2.017840 
# 
# From -- ./inp_files/10964.got.cif
#   From: 2010.05.17/outbox.cif.g08.bks.cpg/sg43_6_cif.got.tgz:10964.got - 2010.06.03 19:21:55.
