data_PCOD9370396
_publ_section_title
;
Structure prediction by ZEFSAII (Michael W. Deem and Ramdas Pophale) SiO2 
 PCOD9370396
Probable space group: F D D 2
;
_chemical_formula_sum "Si O2"
_cell_formula_units_Z 96
_cell_length_a 8.195071
_cell_length_b 18.074415
_cell_length_c 27.388353
_cell_angle_alpha 90.000000
_cell_angle_beta 90.000000
_cell_angle_gamma 90.000000
_cell_volume 4056.793363
_symmetry_space_group_name_H-M "F D D 2"
_symmetry_group_IT_number 43
_symmetry_cell_setting 'orthorhombic'
loop_
_space_group_symop_operation_xyz
x,y,z
-x,-y,z
1/4-x,1/4+y,1/4+z
1/4+x,1/4-y,1/4+z
x,1/2+y,1/2+z
-x,1/2-y,1/2+z
1/4-x,3/4+y,3/4+z
1/4+x,3/4-y,3/4+z
1/2+x,y,1/2+z
1/2-x,-y,1/2+z
3/4-x,1/4+y,3/4+z
3/4+x,1/4-y,3/4+z
1/2+x,1/2+y,z
1/2-x,1/2-y,z
3/4-x,3/4+y,1/4+z
3/4+x,3/4-y,1/4+z
loop_
_atom_site_type_symbol
_atom_site_label
_atom_site_fract_x
_atom_site_fract_y
_atom_site_fract_z
Si Si1 0.147714 0.344883 0.996050
Si Si2 0.495727 0.223356 0.190683
Si Si3 0.456695 0.304682 0.582199
Si Si4 0.756098 0.115439 0.722852
Si Si5 0.122676 0.118920 0.322689
Si Si6 0.673388 0.147453 0.933180
O O1 0.172589 0.432953 0.986701
O O2 0.986723 0.328862 0.963440
O O3 0.328241 0.318216 0.979182
O O4 0.116651 0.325669 0.052263
O O5 0.563102 0.189655 0.140123
O O6 0.317433 0.183714 0.190164
O O7 0.540612 0.308939 0.190511
O O8 0.318431 0.359378 0.561938
O O9 0.428227 0.217530 0.573660
O O10 0.710919 0.149930 0.775395
O O11 0.598563 0.073273 0.702398
O O12 0.153596 0.156188 0.374814
#
# Coordination Sequence:
#
# PCOD9370396 Si02
#       6
#    16  16  16  16  16  16
#     4  10  21  33  55  85 113 139 177 229 277 317
#     4   9  21  36  57  85 106 142 187 221 271 324
#     4  10  19  37  59  82 110 145 184 227 274 322
#     4  10  22  32  54  90 108 140 179 229 275 316
#     4  10  20  35  60  84 106 146 187 225 273 323
#     4  11  19  39  59  78 113 142 182 231 264 324
#
# _framework density 23.664010000000001
#
# number of rings (size 3 to 8) (size 9 to 14) (size 15 to 20)
#    1.000    1.000    3.333    1.000    2.333    0.667 
#    0.000    0.000    0.000   12.000    0.000    0.000 
#    0.000    0.000    0.000    0.000    0.000    0.000 
#
# Total GULP energy -133697.370976 kJ/mol
# GULP energy per Si atom -5570.723791 kJ/mol
# Density = 2.361015 g / cm^3
# Si number density = 23.664010 Si / 1000 Ang^3
#
#
#
# Elastic Constant Matrix: (Units=GPa)
#
#
# Indices 1 2 3 4 5 6 
#
# 1 158.3607 12.8437 20.6078 0.0000 0.0000 0.0000
# 2 12.8437 35.2466 1.7028 0.0000 0.0000 0.0000
# 3 20.6078 1.7028 80.9324 0.0000 0.0000 0.0000
# 4 0.0000 0.0000 0.0000 -9.7028 0.0000 0.0000
# 5 0.0000 0.0000 0.0000 0.0000 44.7207 0.0000
# 6 0.0000 0.0000 0.0000 0.0000 0.0000 28.5714
#
#
#
# Elastic Compliance Matrix: (Units=1/GPa)
#
#
# Indices 1 2 3 4 5 6 
#
# 1 0.006723 -0.002370 -0.001662 0.000000 0.000000 0.000000
# 2 -0.002370 0.029236 -0.000012 0.000000 0.000000 0.000000
# 3 -0.001662 -0.000012 0.012779 0.000000 0.000000 0.000000
# 4 0.000000 0.000000 0.000000 -0.103063 0.000000 0.000000
# 5 0.000000 0.000000 0.000000 0.000000 0.022361 0.000000
# 6 0.000000 0.000000 0.000000 0.000000 0.000000 0.035000
#
#
# Mechanical properties :
#
#
# Convention : Reuss Voigt Hill
#
# Bulk Modulus (GPa) = 24.59944 38.31649 31.45796
# Shear Modulus (GPa) = 202.64934 28.67689 115.66312
#
# Velocity S-wave (km/s) = 9.26402 3.48492 6.99881
# Velocity P-wave (km/s) = 11.17350 5.69385 8.86756
#
# Compressibility (1/GPa) = 0.04065134
#
# Stress axis : x y z
#
# Youngs Moduli (GPa) = 148.73935 34.20495 78.25062
#
# Poissons Ratio (x) = 0.08105 0.13006
# Poissons Ratio (y) = 0.35245 0.00092
# Poissons Ratio (z) = 0.24721 0.00040
#
# Static dielectric constant tensor:
#      x y z
#    x 2.034130 0.000000 0.000000 
#    y 0.000000 1.992920 0.000000 
#    z 0.000000 0.000000 1.847190 
# 
# From -- ./inp_files/20357.got.cif
#   From: 2010.05.17/outbox.cif.g08.bks.cpg/sg43_11_cif.got.tgz:20357.got - 2010.06.03 19:21:55.
