data_PCOD9370576
_publ_section_title
;
Structure prediction by ZEFSAII (Michael W. Deem and Ramdas Pophale) SiO2 
 PCOD9370576
Probable space group: F D D 2
;
_chemical_formula_sum "Si O2"
_cell_formula_units_Z 120
_cell_length_a 13.181952
_cell_length_b 29.521265
_cell_length_c 15.351138
_cell_angle_alpha 90.000000
_cell_angle_beta 90.000000
_cell_angle_gamma 90.000000
_cell_volume 5973.863088
_symmetry_space_group_name_H-M "F D D 2"
_symmetry_group_IT_number 43
_symmetry_cell_setting 'orthorhombic'
loop_
_space_group_symop_operation_xyz
x,y,z
-x,-y,z
1/4-x,1/4+y,1/4+z
1/4+x,1/4-y,1/4+z
x,1/2+y,1/2+z
-x,1/2-y,1/2+z
1/4-x,3/4+y,3/4+z
1/4+x,3/4-y,3/4+z
1/2+x,y,1/2+z
1/2-x,-y,1/2+z
3/4-x,1/4+y,3/4+z
3/4+x,1/4-y,3/4+z
1/2+x,1/2+y,z
1/2-x,1/2-y,z
3/4-x,3/4+y,1/4+z
3/4+x,3/4-y,1/4+z
loop_
_atom_site_type_symbol
_atom_site_label
_atom_site_fract_x
_atom_site_fract_y
_atom_site_fract_z
Si Si1 0.944956 0.430576 0.676230
Si Si2 0.235764 0.602763 0.190646
Si Si3 0.599331 0.232789 0.929109
Si Si4 0.300595 0.653547 0.555049
Si Si5 0.250000 0.250000 0.094485
Si Si6 0.383427 0.663079 0.741103
Si Si7 0.943965 0.152525 0.237566
Si Si8 0.814024 0.011006 0.972390
O O1 0.854559 0.464421 0.704977
O O2 0.936286 0.427659 0.571923
O O3 0.046151 0.457613 0.702001
O O4 0.962498 0.380379 0.710463
O O5 0.264896 0.550783 0.214723
O O6 0.147808 0.616630 0.256016
O O7 0.193138 0.601367 0.092429
O O8 0.338166 0.632962 0.199305
O O9 0.592154 0.230896 0.823842
O O10 0.286881 0.707154 0.539617
O O11 0.319115 0.649445 0.657828
O O12 0.203008 0.627070 0.523821
O O13 0.340892 0.267264 0.157616
O O14 0.452795 0.706827 0.716638
O O15 0.974158 0.203066 0.206792
#
# Coordination Sequence:
#
# PCOD9370576 Si02
#       8
#    16  16  16  16   8  16  16  16
#     4   9  16  31  56  87 107 138 186 241 289 337
#     4  10  21  37  56  77 120 159 189 235 291 356
#     4   8  15  30  53  79 110 142 173 229 292 335
#     4  11  22  40  56  83 116 162 192 241 296 358
#     4  10  20  36  60  86 114 148 198 254 294 352
#     4  10  21  36  59  83 115 149 194 243 297 350
#     4  10  20  36  59  85 113 153 194 240 294 356
#     4   9  17  34  56  83 113 145 184 240 302 338
#
# _framework density 20.087505
#
# number of rings (size 3 to 8) (size 9 to 14) (size 15 to 20)
#    0.000    2.400    0.000    4.000    0.000    2.133 
#   12.000    0.667    2.933    0.000    0.000    0.000 
#    0.000    0.000    0.000    0.000    0.000    0.000 
#
# Total GULP energy -167146.686780 kJ/mol
# GULP energy per Si atom -5571.556226 kJ/mol
# Density = 2.004178 g / cm^3
# Si number density = 20.087505 Si / 1000 Ang^3
#
#
#
# Elastic Constant Matrix: (Units=GPa)
#
#
# Indices 1 2 3 4 5 6 
#
# 1 48.7738 17.1894 4.4809 0.0000 0.0000 0.0000
# 2 17.1894 75.4226 10.1596 0.0000 0.0000 0.0000
# 3 4.4809 10.1596 33.8324 0.0000 0.0000 0.0000
# 4 0.0000 0.0000 0.0000 25.9673 0.0000 0.0000
# 5 0.0000 0.0000 0.0000 0.0000 13.2198 0.0000
# 6 0.0000 0.0000 0.0000 0.0000 0.0000 20.8090
#
#
#
# Elastic Compliance Matrix: (Units=1/GPa)
#
#
# Indices 1 2 3 4 5 6 
#
# 1 0.022365 -0.004896 -0.001492 0.000000 0.000000 0.000000
# 2 -0.004896 0.014889 -0.003823 0.000000 0.000000 0.000000
# 3 -0.001492 -0.003823 0.030903 0.000000 0.000000 0.000000
# 4 0.000000 0.000000 0.000000 0.038510 0.000000 0.000000
# 5 0.000000 0.000000 0.000000 0.000000 0.075644 0.000000
# 6 0.000000 0.000000 0.000000 0.000000 0.000000 0.048056
#
#
# Mechanical properties :
#
#
# Convention : Reuss Voigt Hill
#
# Bulk Modulus (GPa) = 20.94847 24.63206 22.79026
# Shear Modulus (GPa) = 18.74751 20.41248 19.57999
#
# Velocity S-wave (km/s) = 3.05830 3.19121 3.12546
# Velocity P-wave (km/s) = 4.78771 5.08601 4.93911
#
# Compressibility (1/GPa) = 0.04773619
#
# Stress axis : x y z
#
# Youngs Moduli (GPa) = 44.71181 67.16162 32.35937
#
# Poissons Ratio (x) = 0.32884 0.04828
# Poissons Ratio (y) = 0.21892 0.12370
# Poissons Ratio (z) = 0.06670 0.25674
#
# Static dielectric constant tensor:
#      x y z
#    x 1.722430 0.000000 0.000000 
#    y 0.000000 1.765900 0.000000 
#    z 0.000000 0.000000 1.694330 
# 
# From -- ./inp_files/10370.got.cif
#   From: 2010.05.17/outbox.cif.g08.bks.cpg/sg43_6_cif.got.tgz:10370.got - 2010.06.03 19:21:55.
