data_PCOD9370044
_publ_section_title
;
Structure prediction by ZEFSAII (Michael W. Deem and Ramdas Pophale) SiO2 
 PCOD9370044
Probable space group: F D D 2
;
_chemical_formula_sum "Si O2"
_cell_formula_units_Z 96
_cell_length_a 28.232275
_cell_length_b 17.772959
_cell_length_c 6.833947
_cell_angle_alpha 90.000000
_cell_angle_beta 90.000000
_cell_angle_gamma 90.000000
_cell_volume 3429.076872
_symmetry_space_group_name_H-M "F D D 2"
_symmetry_group_IT_number 43
_symmetry_cell_setting 'orthorhombic'
loop_
_space_group_symop_operation_xyz
x,y,z
-x,-y,z
1/4-x,1/4+y,1/4+z
1/4+x,1/4-y,1/4+z
x,1/2+y,1/2+z
-x,1/2-y,1/2+z
1/4-x,3/4+y,3/4+z
1/4+x,3/4-y,3/4+z
1/2+x,y,1/2+z
1/2-x,-y,1/2+z
3/4-x,1/4+y,3/4+z
3/4+x,1/4-y,3/4+z
1/2+x,1/2+y,z
1/2-x,1/2-y,z
3/4-x,3/4+y,1/4+z
3/4+x,3/4-y,1/4+z
loop_
_atom_site_type_symbol
_atom_site_label
_atom_site_fract_x
_atom_site_fract_y
_atom_site_fract_z
Si Si1 0.276528 0.628133 0.935250
Si Si2 0.089231 0.248310 0.294929
Si Si3 0.559638 0.460112 0.141362
Si Si4 0.056172 0.645324 0.225667
Si Si5 0.298058 0.847755 0.484501
Si Si6 0.123093 0.508877 0.102796
O O1 0.220646 0.639591 0.960535
O O2 0.295754 0.710782 0.987939
O O3 0.296222 0.617905 0.711639
O O4 0.295920 0.558519 0.055040
O O5 0.134691 0.211192 0.390926
O O6 0.075078 0.333047 0.340106
O O7 0.104649 0.255262 0.068794
O O8 0.543807 0.461599 0.911737
O O9 0.091786 0.585287 0.122731
O O10 0.082183 0.727597 0.223275
O O11 0.002026 0.628033 0.157014
O O12 0.333345 0.807346 0.334743
#
# Coordination Sequence:
#
# PCOD9370044 Si02
#       6
#    16  16  16  16  16  16
#     4   9  16  24  39  65  92 117 150 187 231 283
#     4  10  16  25  40  64  95 121 147 189 247 275
#     4   9  15  25  40  62  92 116 143 191 235 276
#     4  10  17  26  42  66  95 120 154 191 240 284
#     4  10  17  25  41  68  96 118 149 195 244 277
#     4  10  16  27  41  66  96 126 148 195 243 283
#
# _framework density 27.995873
#
# number of rings (size 3 to 8) (size 9 to 14) (size 15 to 20)
#    0.000    2.333    5.000    2.500    0.000    0.000 
#    0.000    0.000    0.000    0.000   21.667    0.000 
#    0.000    0.000    0.000    0.000    0.000    0.000 
#
# Total GULP energy -134080.722505 kJ/mol
# GULP energy per Si atom -5586.696771 kJ/mol
# Density = 2.793215 g / cm^3
# Si number density = 27.995873 Si / 1000 Ang^3
#
#
#
# Elastic Constant Matrix: (Units=GPa)
#
#
# Indices 1 2 3 4 5 6 
#
# 1 94.0675 67.8611 16.8188 0.0000 0.0000 0.0000
# 2 67.8611 147.1718 18.5446 0.0000 0.0000 0.0000
# 3 16.8188 18.5446 76.1978 0.0000 0.0000 0.0000
# 4 0.0000 0.0000 0.0000 25.9054 0.0000 0.0000
# 5 0.0000 0.0000 0.0000 0.0000 37.6213 0.0000
# 6 0.0000 0.0000 0.0000 0.0000 0.0000 44.7496
#
#
#
# Elastic Compliance Matrix: (Units=1/GPa)
#
#
# Indices 1 2 3 4 5 6 
#
# 1 0.016168 -0.007227 -0.001810 0.000000 0.000000 0.000000
# 2 -0.007227 0.010240 -0.000897 0.000000 0.000000 0.000000
# 3 -0.001810 -0.000897 0.013742 0.000000 0.000000 0.000000
# 4 0.000000 0.000000 0.000000 0.038602 0.000000 0.000000
# 5 0.000000 0.000000 0.000000 0.000000 0.026581 0.000000
# 6 0.000000 0.000000 0.000000 0.000000 0.000000 0.022347
#
#
# Mechanical properties :
#
#
# Convention : Reuss Voigt Hill
#
# Bulk Modulus (GPa) = 49.30487 58.20957 53.75722
# Shear Modulus (GPa) = 32.40291 35.93608 34.16950
#
# Velocity S-wave (km/s) = 3.40577 3.58665 3.49738
# Velocity P-wave (km/s) = 5.75460 6.16356 5.96259
#
# Compressibility (1/GPa) = 0.02028197
#
# Stress axis : x y z
#
# Youngs Moduli (GPa) = 61.85112 97.65455 72.77212
#
# Poissons Ratio (x) = 0.70575 0.13170
# Poissons Ratio (y) = 0.44700 0.06528
# Poissons Ratio (z) = 0.11194 0.08760
#
# Static dielectric constant tensor:
#      x y z
#    x 2.226720 0.000000 0.000000 
#    y 0.000000 2.138520 0.000000 
#    z 0.000000 0.000000 2.320080 
# 
# From -- ./inp_files/6748.got.cif
#   From: 2010.05.17/outbox.cif.g08.bks.cpg/sg43_4_cif.got.tgz:6748.got - 2010.06.03 19:21:55.
