data_PCOD9370073
_publ_section_title
;
Structure prediction by ZEFSAII (Michael W. Deem and Ramdas Pophale) SiO2 
 PCOD9370073
Probable space group: F D D 2
;
_chemical_formula_sum "Si O2"
_cell_formula_units_Z 96
_cell_length_a 18.072726
_cell_length_b 27.358900
_cell_length_c 7.547448
_cell_angle_alpha 90.000000
_cell_angle_beta 90.000000
_cell_angle_gamma 90.000000
_cell_volume 3731.834934
_symmetry_space_group_name_H-M "F D D 2"
_symmetry_group_IT_number 43
_symmetry_cell_setting 'orthorhombic'
loop_
_space_group_symop_operation_xyz
x,y,z
-x,-y,z
1/4-x,1/4+y,1/4+z
1/4+x,1/4-y,1/4+z
x,1/2+y,1/2+z
-x,1/2-y,1/2+z
1/4-x,3/4+y,3/4+z
1/4+x,3/4-y,3/4+z
1/2+x,y,1/2+z
1/2-x,-y,1/2+z
3/4-x,1/4+y,3/4+z
3/4+x,1/4-y,3/4+z
1/2+x,1/2+y,z
1/2-x,1/2-y,z
3/4-x,3/4+y,1/4+z
3/4+x,3/4-y,1/4+z
loop_
_atom_site_type_symbol
_atom_site_label
_atom_site_fract_x
_atom_site_fract_y
_atom_site_fract_z
Si Si1 0.533946 0.626306 0.603220
Si Si2 0.044902 0.860664 0.084765
Si Si3 0.852574 0.026702 0.237121
Si Si4 0.151897 0.570496 0.221570
Si Si5 0.296664 0.025569 0.336861
Si Si6 0.446222 0.432259 0.251109
O O1 0.595628 0.668131 0.558429
O O2 0.457820 0.655182 0.611927
O O3 0.571483 0.592828 0.748994
O O4 0.527069 0.587556 0.441734
O O5 0.976887 0.827800 0.012196
O O6 0.010858 0.914137 0.119364
O O7 0.063892 0.836553 0.280153
O O8 0.119836 0.849635 0.977777
O O9 0.919565 0.988362 0.255079
O O10 0.782836 0.001265 0.333592
O O11 0.830715 0.029647 0.030837
O O12 0.152433 0.512176 0.231230
#
# Coordination Sequence:
#
# PCOD9370073 Si02
#       6
#    16  16  16  16  16  16
#     4   9  17  34  52  82 108 146 183 243 276 354
#     4   9  16  31  51  79 108 139 187 233 280 339
#     4  10  19  31  57  82 107 142 196 230 295 341
#     4   9  17  30  55  78 112 143 190 234 288 339
#     4  10  16  32  52  83 104 145 184 244 273 351
#     4   9  17  30  52  78 103 140 184 230 280 340
#
# _framework density 25.724609999999998
#
# number of rings (size 3 to 8) (size 9 to 14) (size 15 to 20)
#    0.000    2.667    5.000    0.000    0.000    0.000 
#    0.000   14.167    0.000    0.000    0.000    0.000 
#    0.000    0.000    0.000    0.000    0.000    0.000 
#
# Total GULP energy -133907.918526 kJ/mol
# GULP energy per Si atom -5579.496605 kJ/mol
# Density = 2.566606 g / cm^3
# Si number density = 25.724610 Si / 1000 Ang^3
#
#
#
# Elastic Constant Matrix: (Units=GPa)
#
#
# Indices 1 2 3 4 5 6 
#
# 1 65.3934 -17.1617 20.0795 0.0000 -0.0002 0.0000
# 2 -17.1617 74.6264 4.0315 0.0000 -0.0001 0.0000
# 3 20.0795 4.0315 45.5926 0.0001 -0.0006 0.0000
# 4 0.0000 0.0000 0.0001 27.2691 -0.0001 -0.0001
# 5 -0.0002 -0.0001 -0.0006 -0.0001 24.1809 0.0000
# 6 0.0000 0.0000 0.0000 -0.0001 0.0000 21.6199
#
#
#
# Elastic Compliance Matrix: (Units=1/GPa)
#
#
# Indices 1 2 3 4 5 6 
#
# 1 0.019334 0.004930 -0.008951 0.000000 0.000000 0.000000
# 2 0.004930 0.014721 -0.003473 0.000000 0.000000 0.000000
# 3 -0.008951 -0.003473 0.026183 0.000000 0.000001 0.000000
# 4 0.000000 0.000000 0.000000 0.036672 0.000000 0.000000
# 5 0.000000 0.000000 0.000001 0.000000 0.041355 0.000000
# 6 0.000000 0.000000 0.000000 0.000000 0.000000 0.046254
#
#
# Mechanical properties :
#
#
# Convention : Reuss Voigt Hill
#
# Bulk Modulus (GPa) = 22.09931 22.16787 22.13359
# Shear Modulus (GPa) = 23.30025 26.52484 24.91254
#
# Velocity S-wave (km/s) = 3.01284 3.21457 3.11534
# Velocity P-wave (km/s) = 4.55108 4.73435 4.64362
#
# Compressibility (1/GPa) = 0.04525027
#
# Stress axis : x y z
#
# Youngs Moduli (GPa) = 51.72159 67.92830 38.19335
#
# Poissons Ratio (x) = -0.33487 0.34187
# Poissons Ratio (y) = -0.25498 0.13264
# Poissons Ratio (z) = 0.46296 0.23591
#
# Static dielectric constant tensor:
#      x y z
#    x 2.088040 0.000000 0.000000 
#    y 0.000000 2.062610 0.000000 
#    z 0.000000 0.000000 2.129840 
# 
# From -- ./inp_files/7232.got.cif
#   From: 2010.05.17/outbox.cif.g08.bks.cpg/sg43_4_cif.got.tgz:7232.got - 2010.06.03 19:21:55.
