data_PCOD9370797
_publ_section_title
;
Structure prediction by ZEFSAII (Michael W. Deem and Ramdas Pophale) SiO2 
 PCOD9370797
Probable space group: F D D 2
;
_chemical_formula_sum "Si O2"
_cell_formula_units_Z 104
_cell_length_a 20.459763
_cell_length_b 12.247144
_cell_length_c 19.232926
_cell_angle_alpha 90.000000
_cell_angle_beta 90.000000
_cell_angle_gamma 90.000000
_cell_volume 4819.264731
_symmetry_space_group_name_H-M "F D D 2"
_symmetry_group_IT_number 43
_symmetry_cell_setting 'orthorhombic'
loop_
_space_group_symop_operation_xyz
x,y,z
-x,-y,z
1/4-x,1/4+y,1/4+z
1/4+x,1/4-y,1/4+z
x,1/2+y,1/2+z
-x,1/2-y,1/2+z
1/4-x,3/4+y,3/4+z
1/4+x,3/4-y,3/4+z
1/2+x,y,1/2+z
1/2-x,-y,1/2+z
3/4-x,1/4+y,3/4+z
3/4+x,1/4-y,3/4+z
1/2+x,1/2+y,z
1/2-x,1/2-y,z
3/4-x,3/4+y,1/4+z
3/4+x,3/4-y,1/4+z
loop_
_atom_site_type_symbol
_atom_site_label
_atom_site_fract_x
_atom_site_fract_y
_atom_site_fract_z
Si Si1 0.450729 0.656726 0.806750
Si Si2 0.706939 0.619166 0.905657
Si Si3 0.500000 0.500000 0.041293
Si Si4 0.850490 0.532537 0.055263
Si Si5 0.911915 0.870143 0.147362
Si Si6 0.878232 0.630839 0.536070
Si Si7 0.604694 0.672429 0.640063
O O1 0.439175 0.593753 0.733606
O O2 0.527836 0.669511 0.816095
O O3 0.408385 0.595732 0.864089
O O4 0.418060 0.779060 0.807641
O O5 0.656513 0.653725 0.847172
O O6 0.699137 0.489662 0.915094
O O7 0.782737 0.633993 0.888052
O O8 0.454619 0.427840 0.090153
O O9 0.446576 0.579223 0.008037
O O10 0.851918 0.413752 0.094822
O O11 0.865718 0.546511 0.971975
O O12 0.903773 0.936584 0.218556
O O13 0.892301 0.714681 0.597237
#
# Coordination Sequence:
#
# PCOD9370797 Si02
#       7
#    16  16   8  16  16  16  16
#     4   9  23  40  63  99 124 168 227 275 338 397
#     4  10  22  44  64  91 130 177 219 275 337 398
#     4  10  20  40  64  92 126 162 212 282 330 386
#     4  11  26  44  66  94 139 180 220 277 336 406
#     4  10  21  37  68  93 124 169 218 275 335 394
#     4  10  22  39  65  95 127 167 222 276 336 395
#     4  11  25  45  67  96 135 180 224 275 339 403
#
# _framework density 21.580055000000002
#
# number of rings (size 3 to 8) (size 9 to 14) (size 15 to 20)
#    0.000    1.846    1.538    0.462    6.462    6.154 
#    2.769    0.000    0.000    0.000    0.000    0.000 
#    0.000    0.000    0.000    0.000    0.000    0.000 
#
# Total GULP energy -144859.107439 kJ/mol
# GULP energy per Si atom -5571.504132 kJ/mol
# Density = 2.153094 g / cm^3
# Si number density = 21.580055 Si / 1000 Ang^3
#
#
#
# Elastic Constant Matrix: (Units=GPa)
#
#
# Indices 1 2 3 4 5 6 
#
# 1 94.8420 4.3340 45.0616 0.0000 0.0000 0.0000
# 2 4.3340 29.0806 4.9217 0.0000 0.0000 0.0000
# 3 45.0616 4.9217 103.0083 0.0000 0.0000 0.0000
# 4 0.0000 0.0000 0.0000 29.8464 0.0000 0.0000
# 5 0.0000 0.0000 0.0000 0.0000 31.7343 0.0000
# 6 0.0000 0.0000 0.0000 0.0000 0.0000 32.3688
#
#
#
# Elastic Compliance Matrix: (Units=1/GPa)
#
#
# Indices 1 2 3 4 5 6 
#
# 1 0.013340 -0.001009 -0.005787 0.000000 0.000000 0.000000
# 2 -0.001009 0.034744 -0.001219 0.000000 0.000000 0.000000
# 3 -0.005787 -0.001219 0.012298 0.000000 0.000000 0.000000
# 4 0.000000 0.000000 0.000000 0.033505 0.000000 0.000000
# 5 0.000000 0.000000 0.000000 0.000000 0.031512 0.000000
# 6 0.000000 0.000000 0.000000 0.000000 0.000000 0.030894
#
#
# Mechanical properties :
#
#
# Convention : Reuss Voigt Hill
#
# Bulk Modulus (GPa) = 22.54695 37.28504 29.91600
# Shear Modulus (GPa) = 26.72294 30.29748 28.51021
#
# Velocity S-wave (km/s) = 3.52279 3.75101 3.63869
# Velocity P-wave (km/s) = 5.19783 6.00626 5.61661
#
# Compressibility (1/GPa) = 0.04435189
#
# Stress axis : x y z
#
# Youngs Moduli (GPa) = 74.96459 28.78210 81.31480
#
# Poissons Ratio (x) = 0.02903 0.47059
# Poissons Ratio (y) = 0.07561 0.09911
# Poissons Ratio (z) = 0.43384 0.03508
#
# Static dielectric constant tensor:
#      x y z
#    x 1.784230 0.000000 0.000000 
#    y 0.000000 1.862670 0.000000 
#    z 0.000000 0.000000 1.816880 
# 
# From -- ./inp_files/13885.got.cif
#   From: 2010.05.17/outbox.cif.g08.bks.cpg/sg43_7_cif.got.tgz:13885.got - 2010.06.03 19:21:55.
