data_PCOD9370775
_publ_section_title
;
Structure prediction by ZEFSAII (Michael W. Deem and Ramdas Pophale) SiO2 
 PCOD9370775
Probable space group: F D D 2
;
_chemical_formula_sum "Si O2"
_cell_formula_units_Z 88
_cell_length_a 10.798807
_cell_length_b 14.713659
_cell_length_c 23.659624
_cell_angle_alpha 90.000000
_cell_angle_beta 90.000000
_cell_angle_gamma 90.000000
_cell_volume 3759.276801
_symmetry_space_group_name_H-M "F D D 2"
_symmetry_group_IT_number 43
_symmetry_cell_setting 'orthorhombic'
loop_
_space_group_symop_operation_xyz
x,y,z
-x,-y,z
1/4-x,1/4+y,1/4+z
1/4+x,1/4-y,1/4+z
x,1/2+y,1/2+z
-x,1/2-y,1/2+z
1/4-x,3/4+y,3/4+z
1/4+x,3/4-y,3/4+z
1/2+x,y,1/2+z
1/2-x,-y,1/2+z
3/4-x,1/4+y,3/4+z
3/4+x,1/4-y,3/4+z
1/2+x,1/2+y,z
1/2-x,1/2-y,z
3/4-x,3/4+y,1/4+z
3/4+x,3/4-y,1/4+z
loop_
_atom_site_type_symbol
_atom_site_label
_atom_site_fract_x
_atom_site_fract_y
_atom_site_fract_z
Si Si1 0.250000 0.250000 0.454280
Si Si2 0.328422 0.472527 0.989380
Si Si3 0.555772 0.221524 0.865933
Si Si4 0.355313 0.674470 0.445894
Si Si5 0.641754 0.183599 0.623520
Si Si6 0.013373 0.309158 0.517340
O O1 0.333164 0.306135 0.408726
O O2 0.347685 0.201461 0.495313
O O3 0.206544 0.413716 0.973634
O O4 0.355841 0.530319 0.934397
O O5 0.323112 0.527374 0.048505
O O6 0.437038 0.397510 0.996367
O O7 0.435665 0.168912 0.888461
O O8 0.552664 0.331700 0.876434
O O9 0.250000 0.750000 0.435021
O O10 0.446701 0.721424 0.490409
O O11 0.750000 0.250000 0.600441
O O12 0.523399 0.190689 0.582767
#
# Coordination Sequence:
#
# PCOD9370775 Si02
#       6
#     8  16  16  16  16  16
#     4  10  20  40  56  86 128 178 206 258 338 390
#     4  10  21  38  65  97 125 163 229 269 322 397
#     4  10  22  39  63  90 132 171 213 269 329 399
#     4   9  17  35  60  90 121 163 208 271 336 383
#     4  11  20  36  64  95 118 161 220 277 316 388
#     4   9  19  36  60  85 124 166 209 265 324 391
#
# _framework density 23.408759
#
# number of rings (size 3 to 8) (size 9 to 14) (size 15 to 20)
#    0.000    2.182    0.000    6.000    1.273    0.000 
#    3.273    3.636    2.000    4.364    0.000    0.000 
#    0.000    0.000    0.000    0.000    0.000    0.000 
#
# Total GULP energy -122914.043201 kJ/mol
# GULP energy per Si atom -5587.001964 kJ/mol
# Density = 2.335548 g / cm^3
# Si number density = 23.408759 Si / 1000 Ang^3
#
#
#
# Elastic Constant Matrix: (Units=GPa)
#
#
# Indices 1 2 3 4 5 6 
#
# 1 143.3325 43.2136 79.9403 0.0000 0.0000 0.0000
# 2 43.2136 77.4756 58.8515 0.0000 0.0000 0.0000
# 3 79.9403 58.8515 215.4780 0.0000 0.0000 0.0000
# 4 0.0000 0.0000 0.0000 45.7689 0.0000 0.0000
# 5 0.0000 0.0000 0.0000 0.0000 44.6450 0.0000
# 6 0.0000 0.0000 0.0000 0.0000 0.0000 21.1522
#
#
#
# Elastic Compliance Matrix: (Units=1/GPa)
#
#
# Indices 1 2 3 4 5 6 
#
# 1 0.009413 -0.003278 -0.002597 0.000000 0.000000 0.000000
# 2 -0.003278 0.017427 -0.003544 0.000000 0.000000 0.000000
# 3 -0.002597 -0.003544 0.006572 0.000000 0.000000 0.000000
# 4 0.000000 0.000000 0.000000 0.021849 0.000000 0.000000
# 5 0.000000 0.000000 0.000000 0.000000 0.022399 0.000000
# 6 0.000000 0.000000 0.000000 0.000000 0.000000 0.047276
#
#
# Mechanical properties :
#
#
# Convention : Reuss Voigt Hill
#
# Bulk Modulus (GPa) = 68.60655 88.92187 78.76421
# Shear Modulus (GPa) = 33.63988 39.26528 36.45258
#
# Velocity S-wave (km/s) = 3.79498 4.10002 3.95044
# Velocity P-wave (km/s) = 6.96952 7.77706 7.38433
#
# Compressibility (1/GPa) = 0.01457587
#
# Stress axis : x y z
#
# Youngs Moduli (GPa) = 106.23083 57.38079 152.15572
#
# Poissons Ratio (x) = 0.18808 0.39516
# Poissons Ratio (y) = 0.34820 0.53921
# Poissons Ratio (z) = 0.27589 0.20334
#
# Static dielectric constant tensor:
#      x y z
#    x 1.937630 0.000000 0.000000 
#    y 0.000000 1.917720 0.000000 
#    z 0.000000 0.000000 1.913390 
# 
# From -- ./inp_files/17060.got.cif
#   From: 2010.05.17/outbox.cif.g08.bks.cpg/sg43_9_cif.got.tgz:17060.got - 2010.06.03 19:21:55.
