data_PCOD9370523
_publ_section_title
;
Structure prediction by ZEFSAII (Michael W. Deem and Ramdas Pophale) SiO2 
 PCOD9370523
Probable space group: F D D 2
;
_chemical_formula_sum "Si O2"
_cell_formula_units_Z 80
_cell_length_a 11.061631
_cell_length_b 16.740082
_cell_length_c 20.177218
_cell_angle_alpha 90.000000
_cell_angle_beta 90.000000
_cell_angle_gamma 90.000000
_cell_volume 3736.268119
_symmetry_space_group_name_H-M "F D D 2"
_symmetry_group_IT_number 43
_symmetry_cell_setting 'orthorhombic'
loop_
_space_group_symop_operation_xyz
x,y,z
-x,-y,z
1/4-x,1/4+y,1/4+z
1/4+x,1/4-y,1/4+z
x,1/2+y,1/2+z
-x,1/2-y,1/2+z
1/4-x,3/4+y,3/4+z
1/4+x,3/4-y,3/4+z
1/2+x,y,1/2+z
1/2-x,-y,1/2+z
3/4-x,1/4+y,3/4+z
3/4+x,1/4-y,3/4+z
1/2+x,1/2+y,z
1/2-x,1/2-y,z
3/4-x,3/4+y,1/4+z
3/4+x,3/4-y,1/4+z
loop_
_atom_site_type_symbol
_atom_site_label
_atom_site_fract_x
_atom_site_fract_y
_atom_site_fract_z
Si Si1 0.000000 0.000000 0.902791
Si Si2 0.380980 0.335136 0.452370
Si Si3 0.747553 0.922400 0.221501
Si Si4 0.505139 0.800541 0.618601
Si Si5 0.000000 0.500000 0.175575
Si Si6 0.357917 0.357133 0.612583
O O1 0.990283 0.916122 0.941808
O O2 0.123117 0.988084 0.863409
O O3 0.413313 0.241750 0.443648
O O4 0.265910 0.379152 0.421220
O O5 0.364962 0.349710 0.531857
O O6 0.488071 0.374827 0.406534
O O7 0.786013 0.914501 0.297440
O O8 0.613721 0.962432 0.214761
O O9 0.591265 0.727388 0.637132
O O10 0.052992 0.571050 0.131316
#
# Coordination Sequence:
#
# PCOD9370523 Si02
#       6
#     8  16  16  16   8  16
#     4  12  25  44  66 102 135 186 220 286 362 423
#     4  10  24  43  71 101 140 181 240 290 352 417
#     4  10  24  44  68 100 134 182 227 286 349 421
#     4  11  24  44  67 101 142 181 231 288 357 425
#     4  10  19  44  68  96 131 176 236 280 334 425
#     4  10  22  42  70 103 135 186 235 296 346 427
#
# _framework density 21.411740999999999
#
# number of rings (size 3 to 8) (size 9 to 14) (size 15 to 20)
#    0.000    1.600    2.000    1.200    5.600    2.400 
#    3.600    0.000    0.000    0.000    0.000    0.000 
#    0.000    0.000    0.000    0.000    0.000    0.000 
#
# Total GULP energy -111424.865472 kJ/mol
# GULP energy per Si atom -5571.243274 kJ/mol
# Density = 2.136301 g / cm^3
# Si number density = 21.411741 Si / 1000 Ang^3
#
#
#
# Elastic Constant Matrix: (Units=GPa)
#
#
# Indices 1 2 3 4 5 6 
#
# 1 72.1745 50.8046 35.4326 0.0000 0.0000 0.0000
# 2 50.8046 174.3761 74.1515 0.0000 0.0000 0.0000
# 3 35.4326 74.1515 77.5564 0.0000 0.0000 0.0000
# 4 0.0000 0.0000 0.0000 19.0348 0.0000 0.0000
# 5 0.0000 0.0000 0.0000 0.0000 15.1883 0.0000
# 6 0.0000 0.0000 0.0000 0.0000 0.0000 52.1037
#
#
#
# Elastic Compliance Matrix: (Units=1/GPa)
#
#
# Indices 1 2 3 4 5 6 
#
# 1 0.018791 -0.003074 -0.005646 0.000000 0.000000 0.000000
# 2 -0.003074 0.010167 -0.008316 0.000000 0.000000 0.000000
# 3 -0.005646 -0.008316 0.023424 0.000000 0.000000 0.000000
# 4 0.000000 0.000000 0.000000 0.052535 0.000000 0.000000
# 5 0.000000 0.000000 0.000000 0.000000 0.065840 0.000000
# 6 0.000000 0.000000 0.000000 0.000000 0.000000 0.019192
#
#
# Mechanical properties :
#
#
# Convention : Reuss Voigt Hill
#
# Bulk Modulus (GPa) = 54.61471 71.65383 63.13427
# Shear Modulus (GPa) = 21.72745 28.17993 24.95369
#
# Velocity S-wave (km/s) = 3.18896 3.63174 3.41753
# Velocity P-wave (km/s) = 6.25472 7.15007 6.71733
#
# Compressibility (1/GPa) = 0.01831009
#
# Stress axis : x y z
#
# Youngs Moduli (GPa) = 53.21755 98.36207 42.69122
#
# Poissons Ratio (x) = 0.30235 0.24103
# Poissons Ratio (y) = 0.16358 0.35501
# Poissons Ratio (z) = 0.30046 0.81796
#
# Static dielectric constant tensor:
#      x y z
#    x 1.877320 0.000000 0.000000 
#    y 0.000000 1.776790 0.000000 
#    z 0.000000 0.000000 1.742810 
# 
# From -- ./inp_files/13247.got.cif
#   From: 2010.05.17/outbox.cif.g08.bks.cpg/sg43_7_cif.got.tgz:13247.got - 2010.06.03 19:21:55.
