data_PCOD9370539
_publ_section_title
;
Structure prediction by ZEFSAII (Michael W. Deem and Ramdas Pophale) SiO2 
 PCOD9370539
Probable space group: F D D 2
;
_chemical_formula_sum "Si O2"
_cell_formula_units_Z 56
_cell_length_a 21.221304
_cell_length_b 9.318204
_cell_length_c 17.778833
_cell_angle_alpha 90.000000
_cell_angle_beta 90.000000
_cell_angle_gamma 90.000000
_cell_volume 3515.665372
_symmetry_space_group_name_H-M "F D D 2"
_symmetry_group_IT_number 43
_symmetry_cell_setting 'orthorhombic'
loop_
_space_group_symop_operation_xyz
x,y,z
-x,-y,z
1/4-x,1/4+y,1/4+z
1/4+x,1/4-y,1/4+z
x,1/2+y,1/2+z
-x,1/2-y,1/2+z
1/4-x,3/4+y,3/4+z
1/4+x,3/4-y,3/4+z
1/2+x,y,1/2+z
1/2-x,-y,1/2+z
3/4-x,1/4+y,3/4+z
3/4+x,1/4-y,3/4+z
1/2+x,1/2+y,z
1/2-x,1/2-y,z
3/4-x,3/4+y,1/4+z
3/4+x,3/4-y,1/4+z
loop_
_atom_site_type_symbol
_atom_site_label
_atom_site_fract_x
_atom_site_fract_y
_atom_site_fract_z
Si Si1 0.500000 0.500000 0.008721
Si Si2 0.631998 0.840269 0.158341
Si Si3 0.746384 0.411012 0.905739
Si Si4 0.436144 0.409254 0.743321
O O1 0.488967 0.631423 0.067447
O O2 0.560388 0.529786 0.957586
O O3 0.676815 0.979861 0.410158
O O4 0.654230 0.866489 0.073414
O O5 0.608231 0.988281 0.194274
O O6 0.750000 0.250000 0.939192
O O7 0.793490 0.518001 0.947749
O O8 0.500000 0.500000 0.756975
#
# Coordination Sequence:
#
# PCOD9370539 Si02
#       4
#     8  16  16  16
#     4  10  20  36  58  80 110 152 180 222 278 332
#     4  11  19  36  60  82 108 150 183 228 274 331
#     4   9  21  38  55  80 112 145 183 229 269 331
#     4  10  20  34  58  80 110 143 188 225 273 324
#
# _framework density 15.928706999999999
#
# number of rings (size 3 to 8) (size 9 to 14) (size 15 to 20)
#    0.857    1.143    4.286    0.000    0.000    2.286 
#    0.000    0.000    6.286    0.000    0.000    0.000 
#    0.000    0.000    0.000    0.000    0.000    0.000 
#
# Total GULP energy -77954.996606 kJ/mol
# GULP energy per Si atom -5568.214043 kJ/mol
# Density = 1.589245 g / cm^3
# Si number density = 15.928707 Si / 1000 Ang^3
#
#
#
# Elastic Constant Matrix: (Units=GPa)
#
#
# Indices 1 2 3 4 5 6 
#
# 1 117.3956 80.6111 83.5120 0.0000 0.0000 0.0000
# 2 80.6111 120.5516 85.8519 0.0000 0.0000 0.0000
# 3 83.5120 85.8519 157.8515 0.0000 0.0000 0.0000
# 4 0.0000 0.0000 0.0000 18.3433 0.0000 0.0000
# 5 0.0000 0.0000 0.0000 0.0000 14.1976 0.0000
# 6 0.0000 0.0000 0.0000 0.0000 0.0000 16.7139
#
#
#
# Elastic Compliance Matrix: (Units=1/GPa)
#
#
# Indices 1 2 3 4 5 6 
#
# 1 0.017716 -0.008441 -0.004782 0.000000 0.000000 0.000000
# 2 -0.008441 0.017561 -0.005085 0.000000 0.000000 0.000000
# 3 -0.004782 -0.005085 0.011631 0.000000 0.000000 0.000000
# 4 0.000000 0.000000 0.000000 0.054516 0.000000 0.000000
# 5 0.000000 0.000000 0.000000 0.000000 0.070434 0.000000
# 6 0.000000 0.000000 0.000000 0.000000 0.000000 0.059830
#
#
# Mechanical properties :
#
#
# Convention : Reuss Voigt Hill
#
# Bulk Modulus (GPa) = 97.16794 99.52763 98.34778
# Shear Modulus (GPa) = 18.40026 19.57256 18.98641
#
# Velocity S-wave (km/s) = 3.40246 3.50917 3.45623
# Velocity P-wave (km/s) = 8.75042 8.89032 8.82065
#
# Compressibility (1/GPa) = 0.01029146
#
# Stress axis : x y z
#
# Youngs Moduli (GPa) = 56.44616 56.94387 85.97895
#
# Poissons Ratio (x) = 0.48066 0.41114
# Poissons Ratio (y) = 0.47646 0.43724
# Poissons Ratio (z) = 0.26992 0.28958
#
# Static dielectric constant tensor:
#      x y z
#    x 1.514640 0.000000 0.000000 
#    y 0.000000 1.519310 0.000000 
#    z 0.000000 0.000000 1.517750 
# 
# From -- ./inp_files/4059.got.cif
#   From: 2010.05.17/outbox.cif.g08.bks.cpg/sg43_3_cif.got.tgz:4059.got - 2010.06.03 19:21:55.
