data_PCOD9370747
_publ_section_title
;
Structure prediction by ZEFSAII (Michael W. Deem and Ramdas Pophale) SiO2 
 PCOD9370747
Probable space group: F D D 2
;
_chemical_formula_sum "Si O2"
_cell_formula_units_Z 96
_cell_length_a 15.169323
_cell_length_b 29.501745
_cell_length_c 9.417188
_cell_angle_alpha 90.000000
_cell_angle_beta 90.000000
_cell_angle_gamma 90.000000
_cell_volume 4214.394090
_symmetry_space_group_name_H-M "F D D 2"
_symmetry_group_IT_number 43
_symmetry_cell_setting 'orthorhombic'
loop_
_space_group_symop_operation_xyz
x,y,z
-x,-y,z
1/4-x,1/4+y,1/4+z
1/4+x,1/4-y,1/4+z
x,1/2+y,1/2+z
-x,1/2-y,1/2+z
1/4-x,3/4+y,3/4+z
1/4+x,3/4-y,3/4+z
1/2+x,y,1/2+z
1/2-x,-y,1/2+z
3/4-x,1/4+y,3/4+z
3/4+x,1/4-y,3/4+z
1/2+x,1/2+y,z
1/2-x,1/2-y,z
3/4-x,3/4+y,1/4+z
3/4+x,3/4-y,1/4+z
loop_
_atom_site_type_symbol
_atom_site_label
_atom_site_fract_x
_atom_site_fract_y
_atom_site_fract_z
Si Si1 0.409969 0.236219 0.491550
Si Si2 0.904433 0.265279 0.317225
Si Si3 0.320841 0.384550 0.204517
Si Si4 0.623612 0.633873 0.909558
Si Si5 0.338984 0.787938 0.745079
Si Si6 0.090932 0.039719 0.807406
O O1 0.412552 0.253683 0.652083
O O2 0.501809 0.239288 0.401179
O O3 0.387151 0.182736 0.488045
O O4 0.342035 0.265569 0.398396
O O5 0.869741 0.316666 0.342102
O O6 0.841059 0.229941 0.399961
O O7 0.218488 0.385285 0.249405
O O8 0.368940 0.339681 0.259910
O O9 0.309121 0.378222 0.034579
O O10 0.501750 0.543748 0.903362
O O11 0.629127 0.590009 0.810023
O O12 0.388047 0.750954 0.646222
#
# Coordination Sequence:
#
# PCOD9370747 Si02
#       6
#    16  16  16  16  16  16
#     4  11  24  40  65  99 130 168 220 272 324 385
#     4  11  24  40  65  99 130 168 220 272 324 385
#     4  10  21  37  66  93 124 172 215 260 329 390
#     4  10  21  37  66  93 124 172 215 260 329 390
#     4  10  20  39  65  87 126 171 208 261 324 384
#     4  10  20  39  65  87 126 171 208 261 324 384
#
# _framework density 22.779074999999999
#
# number of rings (size 3 to 8) (size 9 to 14) (size 15 to 20)
#    0.000    1.667    3.333    1.000    4.667    1.333 
#    0.000    3.333    0.000    0.000    0.000    0.000 
#    0.000    0.000    0.000    0.000    0.000    0.000 
#
# Total GULP energy -133685.516872 kJ/mol
# GULP energy per Si atom -5570.229870 kJ/mol
# Density = 2.272723 g / cm^3
# Si number density = 22.779075 Si / 1000 Ang^3
#
#
#
# Elastic Constant Matrix: (Units=GPa)
#
#
# Indices 1 2 3 4 5 6 
#
# 1 51.1405 18.6267 37.1751 0.0000 0.0000 0.0000
# 2 18.6267 225.4905 70.9317 0.0000 0.0000 0.0000
# 3 37.1751 70.9317 170.0997 0.0000 0.0000 0.0000
# 4 0.0000 0.0000 0.0000 22.4275 0.0000 0.0000
# 5 0.0000 0.0000 0.0000 0.0000 20.1605 0.0000
# 6 0.0000 0.0000 0.0000 0.0000 0.0000 4.8605
#
#
#
# Elastic Compliance Matrix: (Units=1/GPa)
#
#
# Indices 1 2 3 4 5 6 
#
# 1 0.023274 -0.000371 -0.004932 0.000000 0.000000 0.000000
# 2 -0.000371 0.005110 -0.002050 0.000000 0.000000 0.000000
# 3 -0.004932 -0.002050 0.007812 0.000000 0.000000 0.000000
# 4 0.000000 0.000000 0.000000 0.044588 0.000000 0.000000
# 5 0.000000 0.000000 0.000000 0.000000 0.049602 0.000000
# 6 0.000000 0.000000 0.000000 0.000000 0.000000 0.205741
#
#
# Mechanical properties :
#
#
# Convention : Reuss Voigt Hill
#
# Bulk Modulus (GPa) = 46.53258 77.79973 62.16616
# Shear Modulus (GPa) = 13.96666 30.82286 22.39476
#
# Velocity S-wave (km/s) = 2.47884 3.68247 3.13889
# Velocity P-wave (km/s) = 5.35397 7.23249 6.36294
#
# Compressibility (1/GPa) = 0.02149032
#
# Stress axis : x y z
#
# Youngs Moduli (GPa) = 42.96611 195.68495 128.01594
#
# Poissons Ratio (x) = 0.07264 0.63134
# Poissons Ratio (y) = 0.01595 0.26241
# Poissons Ratio (z) = 0.21190 0.40113
#
# Static dielectric constant tensor:
#      x y z
#    x 2.043020 0.000000 0.000000 
#    y 0.000000 1.919980 0.000000 
#    z 0.000000 0.000000 1.820940 
# 
# From -- ./inp_files/3789.got.cif
#   From: 2010.05.17/outbox.cif.g08.bks.cpg/sg43_2_cif.got.tgz:3789.got - 2010.06.03 19:21:55.
