data_PCOD9370952
_publ_section_title
;
Structure prediction by ZEFSAII (Michael W. Deem and Ramdas Pophale) SiO2 
 PCOD9370952
Probable space group: F D D 2
;
_chemical_formula_sum "Si O2"
_cell_formula_units_Z 64
_cell_length_a 11.961789
_cell_length_b 9.003064
_cell_length_c 24.464348
_cell_angle_alpha 90.000000
_cell_angle_beta 90.000000
_cell_angle_gamma 90.000000
_cell_volume 2634.632960
_symmetry_space_group_name_H-M "F D D 2"
_symmetry_group_IT_number 43
_symmetry_cell_setting 'orthorhombic'
loop_
_space_group_symop_operation_xyz
x,y,z
-x,-y,z
1/4-x,1/4+y,1/4+z
1/4+x,1/4-y,1/4+z
x,1/2+y,1/2+z
-x,1/2-y,1/2+z
1/4-x,3/4+y,3/4+z
1/4+x,3/4-y,3/4+z
1/2+x,y,1/2+z
1/2-x,-y,1/2+z
3/4-x,1/4+y,3/4+z
3/4+x,1/4-y,3/4+z
1/2+x,1/2+y,z
1/2-x,1/2-y,z
3/4-x,3/4+y,1/4+z
3/4+x,3/4-y,1/4+z
loop_
_atom_site_type_symbol
_atom_site_label
_atom_site_fract_x
_atom_site_fract_y
_atom_site_fract_z
Si Si1 0.732775 0.923900 0.348110
Si Si2 0.271389 0.397056 0.154402
Si Si3 0.122078 0.574542 0.955610
Si Si4 0.588522 0.365068 0.322320
O O1 0.750000 0.750000 0.332838
O O2 0.602219 0.925185 0.358428
O O3 0.796160 0.961424 0.405414
O O4 0.790983 0.054058 0.314029
O O5 0.250000 0.250000 0.189321
O O6 0.344924 0.504296 0.192063
O O7 0.182202 0.500476 0.122118
O O8 0.000000 0.500000 0.953748
O O9 0.180301 0.543581 0.013140
O O10 0.500000 0.500000 0.329817
#
# Coordination Sequence:
#
# PCOD9370952 Si02
#       4
#    16  16  16  16
#     4  10  20  43  68  92 135 177 225 284 340 423
#     4  11  24  43  66 103 137 178 234 294 353 427
#     4  11  23  45  68  97 133 186 228 281 365 418
#     4  12  22  42  72  97 138 186 230 294 353 420
#
# _framework density 24.291810000000002
#
# number of rings (size 3 to 8) (size 9 to 14) (size 15 to 20)
#    0.000    1.000    7.500    2.250    3.500    1.000 
#    4.500    0.000    0.000    0.000    0.000    0.000 
#    0.000    0.000    0.000    0.000    0.000    0.000 
#
# Total GULP energy -89161.475500 kJ/mol
# GULP energy per Si atom -5572.592219 kJ/mol
# Density = 2.423652 g / cm^3
# Si number density = 24.291810 Si / 1000 Ang^3
#
#
#
# Elastic Constant Matrix: (Units=GPa)
#
#
# Indices 1 2 3 4 5 6 
#
# 1 96.2310 29.4462 -15.4159 0.0000 0.0000 0.0000
# 2 29.4462 99.6799 0.7908 0.0000 0.0000 0.0000
# 3 -15.4159 0.7908 91.3414 0.0000 0.0000 0.0000
# 4 0.0000 0.0000 0.0000 12.9317 0.0000 0.0000
# 5 0.0000 0.0000 0.0000 0.0000 26.4839 0.0000
# 6 0.0000 0.0000 0.0000 0.0000 0.0000 49.4193
#
#
#
# Elastic Compliance Matrix: (Units=1/GPa)
#
#
# Indices 1 2 3 4 5 6 
#
# 1 0.011785 -0.003498 0.002019 0.000000 0.000000 0.000000
# 2 -0.003498 0.011071 -0.000686 0.000000 0.000000 0.000000
# 3 0.002019 -0.000686 0.011295 0.000000 0.000000 0.000000
# 4 0.000000 0.000000 0.000000 0.077329 0.000000 0.000000
# 5 0.000000 0.000000 0.000000 0.000000 0.037759 0.000000
# 6 0.000000 0.000000 0.000000 0.000000 0.000000 0.020235
#
#
# Mechanical properties :
#
#
# Convention : Reuss Voigt Hill
#
# Bulk Modulus (GPa) = 33.53210 35.21051 34.37131
# Shear Modulus (GPa) = 27.21192 35.92907 31.57050
#
# Velocity S-wave (km/s) = 3.35058 3.85003 3.60896
# Velocity P-wave (km/s) = 5.36679 5.85576 5.61660
#
# Compressibility (1/GPa) = 0.02982217
#
# Stress axis : x y z
#
# Youngs Moduli (GPa) = 84.85089 90.32811 88.53721
#
# Poissons Ratio (x) = 0.31592 -0.17879
# Poissons Ratio (y) = 0.29677 0.06075
# Poissons Ratio (z) = -0.17134 0.06198
#
# Static dielectric constant tensor:
#      x y z
#    x 2.277600 0.000000 0.000000 
#    y 0.000000 2.535530 0.000000 
#    z 0.000000 0.000000 1.963280 
# 
# From -- ./inp_files/19925.got.cif
#   From: 2010.05.17/outbox.cif.g08.bks.cpg/sg43_10_cif.got.tgz:19925.got - 2010.06.03 19:21:55.
