data_PCOD9370755
_publ_section_title
;
Structure prediction by ZEFSAII (Michael W. Deem and Ramdas Pophale) SiO2 
 PCOD9370755
Probable space group: F D D 2
;
_chemical_formula_sum "Si O2"
_cell_formula_units_Z 96
_cell_length_a 9.876244
_cell_length_b 23.952142
_cell_length_c 15.206102
_cell_angle_alpha 90.000000
_cell_angle_beta 90.000000
_cell_angle_gamma 90.000000
_cell_volume 3597.112892
_symmetry_space_group_name_H-M "F D D 2"
_symmetry_group_IT_number 43
_symmetry_cell_setting 'orthorhombic'
loop_
_space_group_symop_operation_xyz
x,y,z
-x,-y,z
1/4-x,1/4+y,1/4+z
1/4+x,1/4-y,1/4+z
x,1/2+y,1/2+z
-x,1/2-y,1/2+z
1/4-x,3/4+y,3/4+z
1/4+x,3/4-y,3/4+z
1/2+x,y,1/2+z
1/2-x,-y,1/2+z
3/4-x,1/4+y,3/4+z
3/4+x,1/4-y,3/4+z
1/2+x,1/2+y,z
1/2-x,1/2-y,z
3/4-x,3/4+y,1/4+z
3/4+x,3/4-y,1/4+z
loop_
_atom_site_type_symbol
_atom_site_label
_atom_site_fract_x
_atom_site_fract_y
_atom_site_fract_z
Si Si1 0.687130 0.078574 0.371760
Si Si2 0.533485 0.164499 0.609593
Si Si3 0.239610 0.661864 0.143988
Si Si4 0.019421 0.441741 0.220350
Si Si5 0.812415 0.947377 0.541783
Si Si6 0.367340 0.709479 0.806605
O O1 0.606395 0.075840 0.282103
O O2 0.687495 0.141451 0.409307
O O3 0.613111 0.047340 0.451092
O O4 0.845872 0.060535 0.370415
O O5 0.374672 0.171978 0.587154
O O6 0.615789 0.202424 0.543429
O O7 0.539732 0.180001 0.711909
O O8 0.591651 0.101954 0.595952
O O9 0.296859 0.682527 0.239303
O O10 0.212014 0.596704 0.119897
O O11 0.000000 0.500000 0.171987
O O12 0.759398 0.008154 0.570164
O O13 0.250000 0.750000 0.839844
#
# Coordination Sequence:
#
# PCOD9370755 Si02
#       6
#    16  16  16  16  16  16
#     4  11  24  42  67  96 139 176 228 287 345 411
#     4   9  22  38  69  94 126 177 233 273 335 416
#     4  10  22  40  64  97 137 177 221 297 335 410
#     4  11  24  45  69  97 138 185 229 282 347 422
#     4  10  20  39  67  92 135 170 230 275 345 401
#     4  11  19  39  68  95 122 184 228 271 342 417
#
# _framework density 26.688068000000001
#
# number of rings (size 3 to 8) (size 9 to 14) (size 15 to 20)
#    1.000    0.667    1.667    3.500    2.333    0.667 
#    6.000    0.000   11.000    0.000    0.000    0.000 
#    0.000    0.000    0.000    0.000    0.000    0.000 
#
# Total GULP energy -134129.725200 kJ/mol
# GULP energy per Si atom -5588.738550 kJ/mol
# Density = 2.662733 g / cm^3
# Si number density = 26.688068 Si / 1000 Ang^3
#
#
#
# Elastic Constant Matrix: (Units=GPa)
#
#
# Indices 1 2 3 4 5 6 
#
# 1 173.5466 7.1624 36.4594 0.0000 0.0000 0.0000
# 2 7.1624 134.8139 2.0528 0.0000 0.0000 0.0000
# 3 36.4594 2.0528 82.1612 0.0000 0.0000 0.0000
# 4 0.0000 0.0000 0.0000 18.2055 0.0000 0.0000
# 5 0.0000 0.0000 0.0000 0.0000 39.6354 0.0000
# 6 0.0000 0.0000 0.0000 0.0000 0.0000 21.4835
#
#
#
# Elastic Compliance Matrix: (Units=1/GPa)
#
#
# Indices 1 2 3 4 5 6 
#
# 1 0.006366 -0.000295 -0.002818 0.000000 0.000000 0.000000
# 2 -0.000295 0.007434 -0.000055 0.000000 0.000000 0.000000
# 3 -0.002818 -0.000055 0.013423 0.000000 0.000000 0.000000
# 4 0.000000 0.000000 0.000000 0.054928 0.000000 0.000000
# 5 0.000000 0.000000 0.000000 0.000000 0.025230 0.000000
# 6 0.000000 0.000000 0.000000 0.000000 0.000000 0.046547
#
#
# Mechanical properties :
#
#
# Convention : Reuss Voigt Hill
#
# Bulk Modulus (GPa) = 47.87449 53.54123 50.70786
# Shear Modulus (GPa) = 29.89946 38.85469 34.37708
#
# Velocity S-wave (km/s) = 3.35077 3.81974 3.59291
# Velocity P-wave (km/s) = 5.74000 6.28962 6.02109
#
# Compressibility (1/GPa) = 0.02088795
#
# Stress axis : x y z
#
# Youngs Moduli (GPa) = 157.07763 134.51431 74.49945
#
# Poissons Ratio (x) = 0.03973 0.20992
# Poissons Ratio (y) = 0.04639 0.00407
# Poissons Ratio (z) = 0.44260 0.00736
#
# Static dielectric constant tensor:
#      x y z
#    x 2.167040 0.000000 0.000000 
#    y 0.000000 2.077470 0.000000 
#    z 0.000000 0.000000 2.049750 
# 
# From -- ./inp_files/13311.got.cif
#   From: 2010.05.17/outbox.cif.g08.bks.cpg/sg43_7_cif.got.tgz:13311.got - 2010.06.03 19:21:55.
