data_PCOD9370324
_publ_section_title
;
Structure prediction by ZEFSAII (Michael W. Deem and Ramdas Pophale) SiO2 
 PCOD9370324
Probable space group: F D D 2
;
_chemical_formula_sum "Si O2"
_cell_formula_units_Z 128
_cell_length_a 22.259857
_cell_length_b 23.841694
_cell_length_c 12.288265
_cell_angle_alpha 90.000000
_cell_angle_beta 90.000000
_cell_angle_gamma 90.000000
_cell_volume 6521.538285
_symmetry_space_group_name_H-M "F D D 2"
_symmetry_group_IT_number 43
_symmetry_cell_setting 'orthorhombic'
loop_
_space_group_symop_operation_xyz
x,y,z
-x,-y,z
1/4-x,1/4+y,1/4+z
1/4+x,1/4-y,1/4+z
x,1/2+y,1/2+z
-x,1/2-y,1/2+z
1/4-x,3/4+y,3/4+z
1/4+x,3/4-y,3/4+z
1/2+x,y,1/2+z
1/2-x,-y,1/2+z
3/4-x,1/4+y,3/4+z
3/4+x,1/4-y,3/4+z
1/2+x,1/2+y,z
1/2-x,1/2-y,z
3/4-x,3/4+y,1/4+z
3/4+x,3/4-y,1/4+z
loop_
_atom_site_type_symbol
_atom_site_label
_atom_site_fract_x
_atom_site_fract_y
_atom_site_fract_z
Si Si1 0.808466 0.441317 0.979330
Si Si2 0.802350 0.019117 0.099282
Si Si3 0.736686 0.940155 0.256656
Si Si4 0.545730 0.603120 0.853693
Si Si5 0.096653 0.773816 0.622619
Si Si6 0.641673 0.407456 0.283493
Si Si7 0.864786 0.800571 0.765158
Si Si8 0.265515 0.863097 0.383009
O O1 0.779636 0.449862 0.860452
O O2 0.751768 0.440761 0.060133
O O3 0.846103 0.385576 0.981261
O O4 0.852840 0.490761 0.018193
O O5 0.839110 0.047981 0.194047
O O6 0.769797 0.965762 0.152122
O O7 0.839082 0.002117 0.992641
O O8 0.724236 0.875906 0.222331
O O9 0.678019 0.977456 0.287565
O O10 0.586901 0.547823 0.854524
O O11 0.589242 0.653827 0.814694
O O12 0.495474 0.599951 0.760244
O O13 0.052519 0.828400 0.618876
O O14 0.610519 0.434936 0.387948
O O15 0.701189 0.375383 0.327646
O O16 0.802750 0.813477 0.825893
#
# Coordination Sequence:
#
# PCOD9370324 Si02
#       8
#    16  16  16  16  16  16  16  16
#     4  11  23  37  60  87 115 161 202 248 302 360
#     4  11  19  39  62  85 116 159 207 246 289 372
#     4  11  19  39  62  85 119 157 209 243 301 375
#     4  10  20  35  62  91 121 157 196 252 307 367
#     4  10  21  36  60  91 118 160 203 251 304 362
#     4  11  21  36  59  85 119 156 197 248 300 358
#     4  10  20  35  58  89 117 149 195 248 306 359
#     4  10  19  33  57  92 121 146 195 258 303 358
#
# _framework density 19.627271
#
# number of rings (size 3 to 8) (size 9 to 14) (size 15 to 20)
#    0.000    1.500    5.000    2.250    3.500    0.500 
#    4.500    1.250    0.000    5.250    0.000    0.000 
#    0.000    0.000    0.000    0.000    0.000    0.000 
#
# Total GULP energy -178633.425400 kJ/mol
# GULP energy per Si atom -5582.294544 kJ/mol
# Density = 1.958260 g / cm^3
# Si number density = 19.627271 Si / 1000 Ang^3
#
#
#
# Elastic Constant Matrix: (Units=GPa)
#
#
# Indices 1 2 3 4 5 6 
#
# 1 56.9967 28.6711 29.3926 0.0000 0.0000 0.0000
# 2 28.6711 54.4034 25.8880 0.0000 0.0000 0.0000
# 3 29.3926 25.8880 98.0485 0.0000 0.0000 0.0000
# 4 0.0000 0.0000 0.0000 22.2171 0.0000 0.0000
# 5 0.0000 0.0000 0.0000 0.0000 21.9238 0.0000
# 6 0.0000 0.0000 0.0000 0.0000 0.0000 31.3918
#
#
#
# Elastic Compliance Matrix: (Units=1/GPa)
#
#
# Indices 1 2 3 4 5 6 
#
# 1 0.025645 -0.011273 -0.004711 0.000000 0.000000 0.000000
# 2 -0.011273 0.025978 -0.003480 0.000000 0.000000 0.000000
# 3 -0.004711 -0.003480 0.012530 0.000000 0.000000 0.000000
# 4 0.000000 0.000000 0.000000 0.045010 0.000000 0.000000
# 5 0.000000 0.000000 0.000000 0.000000 0.045612 0.000000
# 6 0.000000 0.000000 0.000000 0.000000 0.000000 0.031855
#
#
# Mechanical properties :
#
#
# Convention : Reuss Voigt Hill
#
# Bulk Modulus (GPa) = 39.64329 41.92802 40.78565
# Shear Modulus (GPa) = 21.37037 23.47301 22.42169
#
# Velocity S-wave (km/s) = 3.30329 3.46199 3.38357
# Velocity P-wave (km/s) = 5.89838 6.11465 6.00749
#
# Compressibility (1/GPa) = 0.02522495
#
# Stress axis : x y z
#
# Youngs Moduli (GPa) = 38.99350 38.49387 79.80786
#
# Poissons Ratio (x) = 0.43396 0.37600
# Poissons Ratio (y) = 0.43959 0.27770
# Poissons Ratio (z) = 0.18371 0.13394
#
# Static dielectric constant tensor:
#      x y z
#    x 1.702550 0.000000 0.000000 
#    y 0.000000 1.682170 0.000000 
#    z 0.000000 0.000000 1.699230 
# 
# From -- ./inp_files/7667.got.cif
#   From: 2010.05.17/outbox.cif.g08.bks.cpg/sg43_4_cif.got.tgz:7667.got - 2010.06.03 19:21:55.
