data_PCOD9370528
_publ_section_title
;
Structure prediction by ZEFSAII (Michael W. Deem and Ramdas Pophale) SiO2 
 PCOD9370528
Probable space group: F D D 2
;
_chemical_formula_sum "Si O2"
_cell_formula_units_Z 88
_cell_length_a 30.986087
_cell_length_b 5.083498
_cell_length_c 24.478258
_cell_angle_alpha 90.000000
_cell_angle_beta 90.000000
_cell_angle_gamma 90.000000
_cell_volume 3855.759177
_symmetry_space_group_name_H-M "F D D 2"
_symmetry_group_IT_number 43
_symmetry_cell_setting 'orthorhombic'
loop_
_space_group_symop_operation_xyz
x,y,z
-x,-y,z
1/4-x,1/4+y,1/4+z
1/4+x,1/4-y,1/4+z
x,1/2+y,1/2+z
-x,1/2-y,1/2+z
1/4-x,3/4+y,3/4+z
1/4+x,3/4-y,3/4+z
1/2+x,y,1/2+z
1/2-x,-y,1/2+z
3/4-x,1/4+y,3/4+z
3/4+x,1/4-y,3/4+z
1/2+x,1/2+y,z
1/2-x,1/2-y,z
3/4-x,3/4+y,1/4+z
3/4+x,3/4-y,1/4+z
loop_
_atom_site_type_symbol
_atom_site_label
_atom_site_fract_x
_atom_site_fract_y
_atom_site_fract_z
Si Si1 0.000000 0.000000 0.205220
Si Si2 0.594447 0.422147 0.182350
Si Si3 0.299670 0.751742 0.721134
Si Si4 0.384006 0.072222 0.253243
Si Si5 0.466912 0.205139 0.308391
Si Si6 0.678574 0.244570 0.148256
O O1 0.042987 0.911015 0.173407
O O2 0.984714 0.779377 0.248671
O O3 0.604046 0.715093 0.205189
O O4 0.628096 0.313404 0.137609
O O5 0.608453 0.219662 0.230409
O O6 0.250000 0.750000 0.738677
O O7 0.335164 0.661562 0.766072
O O8 0.310428 0.532623 0.674968
O O9 0.307913 0.032975 0.692804
O O10 0.419311 0.089175 0.300082
O O11 0.456272 0.457314 0.344567
O O12 0.500000 0.000000 0.333654
#
# Coordination Sequence:
#
# PCOD9370528 Si02
#       6
#     8  16  16  16  16  16
#     4  10  20  32  56  76 106 142 188 216 280 340
#     4   9  18  35  49  74 104 145 175 219 268 348
#     4  10  20  35  53  73 106 147 178 213 274 350
#     4   9  19  34  50  74 104 140 180 219 270 332
#     4  11  21  32  53  83 111 136 179 243 285 327
#     4  10  22  32  51  79 113 133 175 230 288 322
#
# _framework density 22.823004000000001
#
# number of rings (size 3 to 8) (size 9 to 14) (size 15 to 20)
#    0.000    2.182    1.818    1.091    5.091    0.000 
#    0.000    0.000    2.000    0.000    0.000    0.000 
#    5.455    0.000    0.000    0.000    0.000    0.000 
#
# Total GULP energy -122656.719863 kJ/mol
# GULP energy per Si atom -5575.305448 kJ/mol
# Density = 2.277106 g / cm^3
# Si number density = 22.823004 Si / 1000 Ang^3
#
#
#
# Elastic Constant Matrix: (Units=GPa)
#
#
# Indices 1 2 3 4 5 6 
#
# 1 241.7543 16.4502 23.1028 -0.0028 -0.0070 -0.0032
# 2 16.4502 105.6331 8.3155 -0.0040 0.0288 0.0176
# 3 23.1028 8.3155 16.5907 -0.0026 0.0052 0.0012
# 4 -0.0028 -0.0040 -0.0026 20.9015 0.0154 0.0072
# 5 -0.0070 0.0288 0.0052 0.0154 7.1471 -0.0094
# 6 -0.0032 0.0176 0.0012 0.0072 -0.0094 32.7148
#
#
#
# Elastic Compliance Matrix: (Units=1/GPa)
#
#
# Indices 1 2 3 4 5 6 
#
# 1 0.004777 -0.000229 -0.006537 0.000000 0.000010 0.000001
# 2 -0.000229 0.009867 -0.004626 0.000001 -0.000037 -0.000005
# 3 -0.006537 -0.004626 0.071696 0.000007 -0.000040 -0.000001
# 4 0.000000 0.000001 0.000007 0.047844 -0.000103 -0.000011
# 5 0.000010 -0.000037 -0.000040 -0.000103 0.139917 0.000040
# 6 0.000001 -0.000005 -0.000001 -0.000011 0.000040 0.030567
#
#
# Mechanical properties :
#
#
# Convention : Reuss Voigt Hill
#
# Bulk Modulus (GPa) = 15.73434 51.07943 33.40688
# Shear Modulus (GPa) = 14.34160 33.22665 23.78413
#
# Velocity S-wave (km/s) = 2.50948 3.81969 3.23168
# Velocity P-wave (km/s) = 3.91225 6.47168 5.34735
#
# Compressibility (1/GPa) = 0.06355527
#
# Stress axis : x y z
#
# Youngs Moduli (GPa) = 209.34945 101.35190 13.94779
#
# Poissons Ratio (x) = 0.02324 0.09117
# Poissons Ratio (y) = 0.04800 0.06452
# Poissons Ratio (z) = 1.36846 0.46885
#
# Static dielectric constant tensor:
#      x y z
#    x 1.996300 -0.000010 0.000000 
#    y -0.000010 1.855390 -0.000010 
#    z 0.000000 -0.000010 1.838100 
# 
# From -- ./inp_files/23619.got.cif
#   From: 2010.05.17/outbox.cif.g08.bks.cpg/sg43_12_cif.got.tgz:23619.got - 2010.06.03 19:21:55.
