data_PCOD9370641
_publ_section_title
;
Structure prediction by ZEFSAII (Michael W. Deem and Ramdas Pophale) SiO2 
 PCOD9370641
Probable space group: F D D 2
;
_chemical_formula_sum "Si O2"
_cell_formula_units_Z 120
_cell_length_a 29.151295
_cell_length_b 8.705084
_cell_length_c 23.058898
_cell_angle_alpha 90.000000
_cell_angle_beta 90.000000
_cell_angle_gamma 90.000000
_cell_volume 5851.529069
_symmetry_space_group_name_H-M "F D D 2"
_symmetry_group_IT_number 43
_symmetry_cell_setting 'orthorhombic'
loop_
_space_group_symop_operation_xyz
x,y,z
-x,-y,z
1/4-x,1/4+y,1/4+z
1/4+x,1/4-y,1/4+z
x,1/2+y,1/2+z
-x,1/2-y,1/2+z
1/4-x,3/4+y,3/4+z
1/4+x,3/4-y,3/4+z
1/2+x,y,1/2+z
1/2-x,-y,1/2+z
3/4-x,1/4+y,3/4+z
3/4+x,1/4-y,3/4+z
1/2+x,1/2+y,z
1/2-x,1/2-y,z
3/4-x,3/4+y,1/4+z
3/4+x,3/4-y,1/4+z
loop_
_atom_site_type_symbol
_atom_site_label
_atom_site_fract_x
_atom_site_fract_y
_atom_site_fract_z
Si Si1 0.675732 0.802029 0.838110
Si Si2 0.073331 0.884263 0.326535
Si Si3 0.985290 0.164762 0.818329
Si Si4 0.750000 0.750000 0.750025
Si Si5 0.698976 0.581271 0.938582
Si Si6 0.061449 0.650214 0.914951
Si Si7 0.405194 0.471915 0.207455
Si Si8 0.276899 0.893871 0.869131
O O1 0.621725 0.795476 0.826856
O O2 0.707154 0.711691 0.791723
O O3 0.686350 0.730324 0.901241
O O4 0.693814 0.978339 0.834957
O O5 0.075982 0.999173 0.271828
O O6 0.029219 0.777613 0.317928
O O7 0.069802 0.984686 0.384909
O O8 0.965606 0.140661 0.753794
O O9 0.949025 0.237382 0.862134
O O10 0.000000 0.000000 0.841261
O O11 0.731456 0.882428 0.707898
O O12 0.658017 0.457372 0.942094
O O13 0.739444 0.492461 0.904511
O O14 0.105302 0.707002 0.949796
O O15 0.438486 0.563713 0.164022
O O16 0.250000 0.750000 0.839527
#
# Coordination Sequence:
#
# PCOD9370641 Si02
#       8
#    16  16  16   8  16  16  16  16
#     4  12  24  42  68 105 137 182 228 296 354 413
#     4  12  24  43  70  97 134 185 238 278 348 421
#     4  12  26  43  70 102 136 181 231 298 343 416
#     4  12  24  42  68  94 144 186 220 280 364 434
#     4  11  23  41  70 100 138 168 239 291 345 396
#     4  12  25  45  67  96 137 185 233 278 355 425
#     4  11  23  40  68 101 131 182 232 290 333 418
#     4  10  20  37  65  97 133 172 229 280 331 403
#
# _framework density 20.507460999999999
#
# number of rings (size 3 to 8) (size 9 to 14) (size 15 to 20)
#    0.000    0.533    8.000    0.800    1.867    0.000 
#    0.000    0.667    5.867    0.000    0.000    0.000 
#    0.000    0.000    0.000    0.000    0.000    0.000 
#
# Total GULP energy -167620.037236 kJ/mol
# GULP energy per Si atom -5587.334575 kJ/mol
# Density = 2.046079 g / cm^3
# Si number density = 20.507461 Si / 1000 Ang^3
#
#
#
# Elastic Constant Matrix: (Units=GPa)
#
#
# Indices 1 2 3 4 5 6 
#
# 1 43.2289 8.3491 8.0031 0.0000 0.0000 0.0000
# 2 8.3491 75.3413 17.2114 0.0000 0.0000 0.0000
# 3 8.0031 17.2114 75.2438 0.0000 0.0000 0.0000
# 4 0.0000 0.0000 0.0000 25.7677 0.0000 0.0000
# 5 0.0000 0.0000 0.0000 0.0000 20.2969 0.0000
# 6 0.0000 0.0000 0.0000 0.0000 0.0000 29.7677
#
#
#
# Elastic Compliance Matrix: (Units=1/GPa)
#
#
# Indices 1 2 3 4 5 6 
#
# 1 0.023933 -0.002185 -0.002046 0.000000 0.000000 0.000000
# 2 -0.002185 0.014204 -0.003017 0.000000 0.000000 0.000000
# 3 -0.002046 -0.003017 0.014198 0.000000 0.000000 0.000000
# 4 0.000000 0.000000 0.000000 0.038808 0.000000 0.000000
# 5 0.000000 0.000000 0.000000 0.000000 0.049269 0.000000
# 6 0.000000 0.000000 0.000000 0.000000 0.000000 0.033593
#
#
# Mechanical properties :
#
#
# Convention : Reuss Voigt Hill
#
# Bulk Modulus (GPa) = 26.42665 28.99346 27.71006
# Shear Modulus (GPa) = 24.86153 25.84983 25.35568
#
# Velocity S-wave (km/s) = 3.48561 3.55422 3.52008
# Velocity P-wave (km/s) = 5.39571 5.56884 5.48296
#
# Compressibility (1/GPa) = 0.03784058
#
# Stress axis : x y z
#
# Youngs Moduli (GPa) = 41.78261 70.40168 70.43354
#
# Poissons Ratio (x) = 0.15382 0.14410
# Poissons Ratio (y) = 0.09129 0.21248
# Poissons Ratio (z) = 0.08548 0.21238
#
# Static dielectric constant tensor:
#      x y z
#    x 1.728910 0.000000 0.000000 
#    y 0.000000 1.734920 0.000000 
#    z 0.000000 0.000000 1.727620 
# 
# From -- ./inp_files/22839.got.cif
#   From: 2010.05.17/outbox.cif.g08.bks.cpg/sg43_12_cif.got.tgz:22839.got - 2010.06.03 19:21:55.
