data_PCOD9370104
_publ_section_title
;
Structure prediction by ZEFSAII (Michael W. Deem and Ramdas Pophale) SiO2 
 PCOD9370104
Probable space group: F D D 2
;
_chemical_formula_sum "Si O2"
_cell_formula_units_Z 96
_cell_length_a 17.654154
_cell_length_b 29.670422
_cell_length_c 7.434092
_cell_angle_alpha 90.000000
_cell_angle_beta 90.000000
_cell_angle_gamma 90.000000
_cell_volume 3894.023475
_symmetry_space_group_name_H-M "F D D 2"
_symmetry_group_IT_number 43
_symmetry_cell_setting 'orthorhombic'
loop_
_space_group_symop_operation_xyz
x,y,z
-x,-y,z
1/4-x,1/4+y,1/4+z
1/4+x,1/4-y,1/4+z
x,1/2+y,1/2+z
-x,1/2-y,1/2+z
1/4-x,3/4+y,3/4+z
1/4+x,3/4-y,3/4+z
1/2+x,y,1/2+z
1/2-x,-y,1/2+z
3/4-x,1/4+y,3/4+z
3/4+x,1/4-y,3/4+z
1/2+x,1/2+y,z
1/2-x,1/2-y,z
3/4-x,3/4+y,1/4+z
3/4+x,3/4-y,1/4+z
loop_
_atom_site_type_symbol
_atom_site_label
_atom_site_fract_x
_atom_site_fract_y
_atom_site_fract_z
Si Si1 0.216872 0.644970 0.601970
Si Si2 0.672606 0.529284 0.303433
Si Si3 0.407399 0.282409 0.084058
Si Si4 0.817415 0.387951 0.012162
Si Si5 0.124528 0.814521 0.693769
Si Si6 0.686626 0.431179 0.236326
O O1 0.162289 0.685568 0.533871
O O2 0.202794 0.632395 0.813900
O O3 0.189821 0.601621 0.487983
O O4 0.302566 0.661838 0.610756
O O5 0.760022 0.542610 0.252861
O O6 0.650667 0.562747 0.463198
O O7 0.684500 0.477085 0.354130
O O8 0.615388 0.542333 0.142930
O O9 0.395752 0.228952 0.075700
O O10 0.415672 0.294800 0.295787
O O11 0.877149 0.351842 0.077712
O O12 0.750603 0.398105 0.150821
#
# Coordination Sequence:
#
# PCOD9370104 Si02
#       6
#    16  16  16  16  16  16
#     4  10  17  29  49  76 106 135 173 224 267 312
#     4   9  17  31  48  71 102 139 174 215 265 317
#     4   9  18  31  48  72 103 138 177 217 263 316
#     4   9  16  29  47  73 101 130 171 216 261 317
#     4  10  18  29  49  75 102 136 176 220 267 315
#     4   9  17  29  49  71  98 134 172 218 267 311
#
# _framework density 24.653165000000001
#
# number of rings (size 3 to 8) (size 9 to 14) (size 15 to 20)
#    0.000    2.667    0.000    5.500    0.000    0.000 
#    0.000    4.167    0.000    0.000    0.000    0.000 
#    0.000    0.000    0.000    0.000    0.000    0.000 
#
# Total GULP energy -133721.764592 kJ/mol
# GULP energy per Si atom -5571.740191 kJ/mol
# Density = 2.459705 g / cm^3
# Si number density = 24.653165 Si / 1000 Ang^3
#
#
#
# Elastic Constant Matrix: (Units=GPa)
#
#
# Indices 1 2 3 4 5 6 
#
# 1 85.1150 107.6747 9.3760 0.0000 0.0001 0.0000
# 2 107.6747 209.0948 24.9622 0.0000 0.0000 0.0000
# 3 9.3760 24.9622 30.2600 0.0000 0.0008 0.0000
# 4 0.0000 0.0000 0.0000 20.6287 0.0000 0.0000
# 5 0.0001 0.0000 0.0008 0.0000 17.6310 0.0000
# 6 0.0000 0.0000 0.0000 0.0000 0.0000 23.5997
#
#
#
# Elastic Compliance Matrix: (Units=1/GPa)
#
#
# Indices 1 2 3 4 5 6 
#
# 1 0.034219 -0.018142 0.004363 0.000000 0.000000 0.000000
# 2 -0.018142 0.014923 -0.006689 0.000000 0.000000 0.000000
# 3 0.004363 -0.006689 0.037213 0.000000 -0.000002 0.000000
# 4 0.000000 0.000000 0.000000 0.048476 0.000000 0.000000
# 5 0.000000 0.000000 -0.000002 0.000000 0.056718 0.000000
# 6 0.000000 0.000000 0.000000 0.000000 0.000000 0.042373
#
#
# Mechanical properties :
#
#
# Convention : Reuss Voigt Hill
#
# Bulk Modulus (GPa) = 22.01726 67.61062 44.81394
# Shear Modulus (GPa) = 17.24141 24.53569 20.88855
#
# Velocity S-wave (km/s) = 2.64741 3.15816 2.91399
# Velocity P-wave (km/s) = 4.27729 6.38615 5.43498
#
# Compressibility (1/GPa) = 0.04541890
#
# Stress axis : x y z
#
# Youngs Moduli (GPa) = 29.22378 67.00856 26.87213
#
# Poissons Ratio (x) = 1.21567 -0.11725
# Poissons Ratio (y) = 0.53018 0.17976
# Poissons Ratio (z) = -0.12751 0.44825
#
# Static dielectric constant tensor:
#      x y z
#    x 2.020410 0.000000 0.000000 
#    y 0.000000 2.050300 0.000000 
#    z 0.000000 0.000000 1.995660 
# 
# From -- ./inp_files/6744.got.cif
#   From: 2010.05.17/outbox.cif.g08.bks.cpg/sg43_4_cif.got.tgz:6744.got - 2010.06.03 19:21:55.
