data_PCOD9370021
_publ_section_title
;
Structure prediction by ZEFSAII (Michael W. Deem and Ramdas Pophale) SiO2 
 PCOD9370021
Probable space group: F M M 2
;
_chemical_formula_sum "Si O2"
_cell_formula_units_Z 28
_cell_length_a 15.000000
_cell_length_b 24.000000
_cell_length_c 15.000000
_cell_angle_alpha 90.000000
_cell_angle_beta 90.000000
_cell_angle_gamma 90.000000
_cell_volume 5400.000000
_symmetry_space_group_name_H-M "F M M 2"
_symmetry_group_IT_number 42
_symmetry_cell_setting 'orthorhombic'
loop_
_space_group_symop_operation_xyz
x,y,z
-x,-y,z
-x,y,z
x,-y,z
x,1/2+y,1/2+z
-x,1/2-y,1/2+z
-x,1/2+y,1/2+z
x,1/2-y,1/2+z
1/2+x,y,1/2+z
1/2-x,-y,1/2+z
1/2-x,y,1/2+z
1/2+x,-y,1/2+z
1/2+x,1/2+y,z
1/2-x,1/2-y,z
1/2-x,1/2+y,z
1/2+x,1/2-y,z
loop_
_atom_site_type_symbol
_atom_site_label
_atom_site_fract_x
_atom_site_fract_y
_atom_site_fract_z
Si Si1 0.177357 0.672720 0.743050
Si Si2 0.136747 0.348143 0.164873
Si Si3 0.894038 0.563098 0.026984
Si Si4 0.288455 0.563118 0.343932
Si Si5 0.904506 0.734574 0.582625
Si Si6 0.604500 0.244939 0.391536
Si Si7 0.403238 0.613645 0.848209
O O1 0.277611 0.678385 0.710509
O O2 0.173304 0.609209 0.776353
O O3 0.125133 0.690185 0.654872
O O4 0.153187 0.714393 0.822803
O O5 0.154075 0.389835 0.084368
O O6 0.087940 0.293585 0.131380
O O7 0.093339 0.385846 0.240770
O O8 0.882459 0.500000 0.062224
O O9 0.000000 0.575506 0.025768
O O10 0.852495 0.564192 0.929131
O O11 0.285120 0.500000 0.308603
O O12 0.187758 0.581728 0.371706
O O13 0.855150 0.748091 0.490804
O O14 0.000000 0.714263 0.549717
O O15 0.500000 0.263183 0.387319
O O16 0.606709 0.179352 0.369635
O O17 0.500000 0.594132 0.883048
#
# Coordination Sequence:
#
# PCOD9370021 Si02
#       7
#    16  16  16  16  16  16  16
#     4  11  23  39  60  93 132 169 213 272 331 392
#     4  11  22  36  58  93 125 166 210 266 325 390
#     4  10  22  42  67  95 128 171 226 283 333 388
#     4  10  24  42  63  93 130 174 225 273 329 398
#     4  11  22  37  60  90 124 165 214 264 329 396
#     4  10  22  40  64  93 128 171 215 269 331 400
#     4  10  21  39  64  90 126 165 210 269 328 392
#
# _framework density 5.1851849999999997
#
# number of rings (size 3 to 8) (size 9 to 14) (size 15 to 20)
#    0.000    1.571    1.429    3.000    4.000    4.857 
#    5.143    0.000    0.000    0.000    0.000    0.000 
#    0.000    0.000    0.000    0.000    0.000    0.000 
#
# Total GULP energy -156015.345579 kJ/mol
# GULP energy per Si atom -5571.976628 kJ/mol
# Density = 0.517338 g / cm^3
# Si number density = 5.185185 Si / 1000 Ang^3
#
#
#
# Elastic Constant Matrix: (Units=GPa)
#
#
# Indices 1 2 3 4 5 6 
#
# 1 71.8858 42.3407 57.3404 0.0000 0.0000 0.0000
# 2 42.3407 117.6130 50.5474 0.0000 0.0000 0.0000
# 3 57.3404 50.5474 92.7761 0.0000 0.0000 0.0000
# 4 0.0000 0.0000 0.0000 37.7103 0.0000 0.0000
# 5 0.0000 0.0000 0.0000 0.0000 23.7360 0.0000
# 6 0.0000 0.0000 0.0000 0.0000 0.0000 26.2566
#
#
#
# Elastic Compliance Matrix: (Units=1/GPa)
#
#
# Indices 1 2 3 4 5 6 
#
# 1 0.028507 -0.003513 -0.015705 0.000000 0.000000 0.000000
# 2 -0.003513 0.011535 -0.004113 0.000000 0.000000 0.000000
# 3 -0.015705 -0.004113 0.022726 0.000000 0.000000 0.000000
# 4 0.000000 0.000000 0.000000 0.026518 0.000000 0.000000
# 5 0.000000 0.000000 0.000000 0.000000 0.042130 0.000000
# 6 0.000000 0.000000 0.000000 0.000000 0.000000 0.038086
#
#
# Mechanical properties :
#
#
# Convention : Reuss Voigt Hill
#
# Bulk Modulus (GPa) = 62.08963 64.74799 63.41881
# Shear Modulus (GPa) = 22.56990 26.34366 24.45678
#
# Velocity S-wave (km/s) = 3.30235 3.56777 3.43762
# Velocity P-wave (km/s) = 6.67396 6.94676 6.81173
#
# Compressibility (1/GPa) = 0.01610575
#
# Stress axis : x y z
#
# Youngs Moduli (GPa) = 35.07862 86.69275 44.00194
#
# Poissons Ratio (x) = 0.30455 0.69105
# Poissons Ratio (y) = 0.12323 0.18100
# Poissons Ratio (z) = 0.55091 0.35660
#
# Static dielectric constant tensor:
#      x y z
#    x 1.678330 0.000000 0.000000 
#    y 0.000000 1.732940 0.000000 
#    z 0.000000 0.000000 1.836010 
# 
# From -- ./inp_files/14284.got.cif
#   From: 2010.05.17/outbox.ucp.g08.bks.cvg/sg42_8_cif.got.tgz:14284.got - 2010.06.11 16:29:10.
