data_PCOD9370207
_publ_section_title
;
Structure prediction by ZEFSAII (Michael W. Deem and Ramdas Pophale) SiO2 
 PCOD9370207
Probable space group: F D D 2
;
_chemical_formula_sum "Si O2"
_cell_formula_units_Z 120
_cell_length_a 26.694579
_cell_length_b 8.655990
_cell_length_c 22.146796
_cell_angle_alpha 90.000000
_cell_angle_beta 90.000000
_cell_angle_gamma 90.000000
_cell_volume 5117.416055
_symmetry_space_group_name_H-M "F D D 2"
_symmetry_group_IT_number 43
_symmetry_cell_setting 'orthorhombic'
loop_
_space_group_symop_operation_xyz
x,y,z
-x,-y,z
1/4-x,1/4+y,1/4+z
1/4+x,1/4-y,1/4+z
x,1/2+y,1/2+z
-x,1/2-y,1/2+z
1/4-x,3/4+y,3/4+z
1/4+x,3/4-y,3/4+z
1/2+x,y,1/2+z
1/2-x,-y,1/2+z
3/4-x,1/4+y,3/4+z
3/4+x,1/4-y,3/4+z
1/2+x,1/2+y,z
1/2-x,1/2-y,z
3/4-x,3/4+y,1/4+z
3/4+x,3/4-y,1/4+z
loop_
_atom_site_type_symbol
_atom_site_label
_atom_site_fract_x
_atom_site_fract_y
_atom_site_fract_z
Si Si1 0.558520 0.442933 0.179120
Si Si2 0.173583 0.429058 0.018159
Si Si3 0.985545 0.318057 0.820215
Si Si4 0.000000 0.000000 0.681475
Si Si5 0.656142 0.444712 0.742090
Si Si6 0.236664 0.929171 0.205662
Si Si7 0.447675 0.595762 0.050557
Si Si8 0.428319 0.727106 0.693682
O O1 0.500000 0.500000 0.186376
O O2 0.580089 0.341225 0.232824
O O3 0.563573 0.348668 0.117649
O O4 0.586010 0.604607 0.172189
O O5 0.212511 0.470321 0.070693
O O6 0.207436 0.322797 0.973984
O O7 0.122216 0.336346 0.025337
O O8 0.964850 0.302474 0.887945
O O9 0.952868 0.258447 0.762086
O O10 0.000000 0.500000 0.813383
O O11 0.028244 0.854083 0.653295
O O12 0.709507 0.489453 0.715808
O O13 0.660214 0.289644 0.781613
O O14 0.618799 0.384187 0.690848
O O15 0.250000 0.750000 0.216158
O O16 0.201612 0.014895 0.253851
O O17 0.500000 0.500000 0.052974
#
# Coordination Sequence:
#
# PCOD9370207 Si02
#       8
#    16  16  16   8  16  16  16  16
#     4  11  18  36  67  89 124 168 209 256 331 387
#     4  10  18  35  61  98 130 152 208 275 327 373
#     4  10  18  38  68  98 124 170 214 268 335 391
#     4   8  16  30  50  88 128 154 182 242 326 376
#     4  10  23  42  57  95 133 162 224 266 323 394
#     4  10  23  46  67  84 129 182 223 257 328 412
#     4   9  22  44  60  83 123 175 212 250 321 402
#     4  10  18  35  62  96 129 156 211 275 323 377
#
# _framework density 23.449335999999999
#
# number of rings (size 3 to 8) (size 9 to 14) (size 15 to 20)
#    0.000    2.133    4.000    0.000    0.000    2.133 
#   30.000    1.333    0.000    0.000    0.000    0.000 
#    0.000    0.000    0.000    0.000    0.000    0.000 
#
# Total GULP energy -167174.965179 kJ/mol
# GULP energy per Si atom -5572.498839 kJ/mol
# Density = 2.339596 g / cm^3
# Si number density = 23.449336 Si / 1000 Ang^3
#
#
#
# Elastic Constant Matrix: (Units=GPa)
#
#
# Indices 1 2 3 4 5 6 
#
# 1 63.1500 14.3912 -1.2187 0.0000 0.0000 0.0000
# 2 14.3912 110.9063 19.1130 0.0000 0.0000 0.0000
# 3 -1.2187 19.1130 95.8713 0.0000 0.0000 0.0000
# 4 0.0000 0.0000 0.0000 19.5181 0.0000 0.0000
# 5 0.0000 0.0000 0.0000 0.0000 6.6948 0.0000
# 6 0.0000 0.0000 0.0000 0.0000 0.0000 41.1246
#
#
#
# Elastic Compliance Matrix: (Units=1/GPa)
#
#
# Indices 1 2 3 4 5 6 
#
# 1 0.016357 -0.002235 0.000654 0.000000 0.000000 0.000000
# 2 -0.002235 0.009643 -0.001951 0.000000 0.000000 0.000000
# 3 0.000654 -0.001951 0.010828 0.000000 0.000000 0.000000
# 4 0.000000 0.000000 0.000000 0.051234 0.000000 0.000000
# 5 0.000000 0.000000 0.000000 0.000000 0.149370 0.000000
# 6 0.000000 0.000000 0.000000 0.000000 0.000000 0.024316
#
#
# Mechanical properties :
#
#
# Convention : Reuss Voigt Hill
#
# Bulk Modulus (GPa) = 33.59860 37.16652 35.38256
# Shear Modulus (GPa) = 17.93819 29.31031 23.62425
#
# Velocity S-wave (km/s) = 2.76882 3.53929 3.17749
# Velocity P-wave (km/s) = 4.95793 5.70843 5.34637
#
# Compressibility (1/GPa) = 0.02976315
#
# Stress axis : x y z
#
# Youngs Moduli (GPa) = 61.13476 103.70378 92.35423
#
# Poissons Ratio (x) = 0.23179 -0.06036
# Poissons Ratio (y) = 0.13665 0.18017
# Poissons Ratio (z) = -0.03995 0.20231
#
# Static dielectric constant tensor:
#      x y z
#    x 1.971510 0.000000 0.000000 
#    y 0.000000 1.998680 0.000000 
#    z 0.000000 0.000000 1.929030 
# 
# From -- ./inp_files/20437.got.cif
#   From: 2010.05.17/outbox.cif.g08.bks.cpg/sg43_11_cif.got.tgz:20437.got - 2010.06.03 19:21:55.
