data_PCOD9370667
_publ_section_title
;
Structure prediction by ZEFSAII (Michael W. Deem and Ramdas Pophale) SiO2 
 PCOD9370667
Probable space group: F D D 2
;
_chemical_formula_sum "Si O2"
_cell_formula_units_Z 72
_cell_length_a 9.523994
_cell_length_b 13.152812
_cell_length_c 27.460424
_cell_angle_alpha 90.000000
_cell_angle_beta 90.000000
_cell_angle_gamma 90.000000
_cell_volume 3439.893242
_symmetry_space_group_name_H-M "F D D 2"
_symmetry_group_IT_number 43
_symmetry_cell_setting 'orthorhombic'
loop_
_space_group_symop_operation_xyz
x,y,z
-x,-y,z
1/4-x,1/4+y,1/4+z
1/4+x,1/4-y,1/4+z
x,1/2+y,1/2+z
-x,1/2-y,1/2+z
1/4-x,3/4+y,3/4+z
1/4+x,3/4-y,3/4+z
1/2+x,y,1/2+z
1/2-x,-y,1/2+z
3/4-x,1/4+y,3/4+z
3/4+x,1/4-y,3/4+z
1/2+x,1/2+y,z
1/2-x,1/2-y,z
3/4-x,3/4+y,1/4+z
3/4+x,3/4-y,1/4+z
loop_
_atom_site_type_symbol
_atom_site_label
_atom_site_fract_x
_atom_site_fract_y
_atom_site_fract_z
Si Si1 0.882288 0.827599 0.744930
Si Si2 0.314168 0.532243 0.290307
Si Si3 0.431358 0.343927 0.253811
Si Si4 0.492919 0.378818 0.638119
Si Si5 0.000000 0.000000 0.919279
O O1 0.750000 0.750000 0.746351
O O2 0.835154 0.927988 0.772530
O O3 0.010738 0.766149 0.768967
O O4 0.921849 0.854468 0.689828
O O5 0.332207 0.412013 0.287472
O O6 0.427440 0.586322 0.253974
O O7 0.339593 0.577917 0.343448
O O8 0.348000 0.320951 0.204107
O O9 0.500000 0.500000 0.630829
O O10 0.644783 0.323667 0.640432
#
# Coordination Sequence:
#
# PCOD9370667 Si02
#       5
#    16  16  16  16   8
#     4   9  19  36  59  84 117 163 201 250 323 375
#     4  10  20  38  61  88 120 165 209 257 314 387
#     4   9  19  37  61  81 124 158 202 253 311 381
#     4  11  22  38  61  90 127 159 212 269 315 388
#     4  10  22  42  60  96 128 166 212 264 326 390
#
# _framework density 20.930880999999999
#
# number of rings (size 3 to 8) (size 9 to 14) (size 15 to 20)
#    0.000    2.222    0.000    3.333    3.111    0.000 
#   14.000    0.000    0.000    0.000    0.000    0.000 
#    0.000    0.000    0.000    0.000    0.000    0.000 
#
# Total GULP energy -100239.541745 kJ/mol
# GULP energy per Si atom -5568.863430 kJ/mol
# Density = 2.088324 g / cm^3
# Si number density = 20.930881 Si / 1000 Ang^3
#
#
#
# Elastic Constant Matrix: (Units=GPa)
#
#
# Indices 1 2 3 4 5 6 
#
# 1 66.6889 52.4703 19.8755 0.0000 0.0000 0.0000
# 2 52.4703 139.6151 51.1965 0.0000 0.0000 0.0000
# 3 19.8755 51.1965 76.4342 0.0000 0.0000 0.0000
# 4 0.0000 0.0000 0.0000 -38.8779 0.0000 0.0000
# 5 0.0000 0.0000 0.0000 0.0000 15.3536 0.0000
# 6 0.0000 0.0000 0.0000 0.0000 0.0000 50.8573
#
#
#
# Elastic Compliance Matrix: (Units=1/GPa)
#
#
# Indices 1 2 3 4 5 6 
#
# 1 0.021294 -0.007917 -0.000234 0.000000 0.000000 0.000000
# 2 -0.007917 0.012438 -0.006272 0.000000 0.000000 0.000000
# 3 -0.000234 -0.006272 0.017345 0.000000 0.000000 0.000000
# 4 0.000000 0.000000 0.000000 -0.025722 0.000000 0.000000
# 5 0.000000 0.000000 0.000000 0.000000 0.065131 0.000000
# 6 0.000000 0.000000 0.000000 0.000000 0.000000 0.019663
#
#
# Mechanical properties :
#
#
# Convention : Reuss Voigt Hill
#
# Bulk Modulus (GPa) = 44.98432 58.86921 51.92677
# Shear Modulus (GPa) = 34.15149 16.07965 25.11557
#
# Velocity S-wave (km/s) = 4.04373 2.77470 3.46776
# Velocity P-wave (km/s) = 6.58337 6.20095 6.39502
#
# Compressibility (1/GPa) = 0.02222997
#
# Stress axis : x y z
#
# Youngs Moduli (GPa) = 46.96248 80.39957 57.65203
#
# Poissons Ratio (x) = 0.63649 0.01351
# Poissons Ratio (y) = 0.37178 0.36162
# Poissons Ratio (z) = 0.01101 0.50430
#
# Static dielectric constant tensor:
#      x y z
#    x 1.857530 0.000000 0.000000 
#    y 0.000000 1.777010 0.000000 
#    z 0.000000 0.000000 1.707340 
# 
# From -- ./inp_files/23959.got.cif
#   From: 2010.05.17/outbox.cif.g08.bks.cpg/sg43_12_cif.got.tgz:23959.got - 2010.06.03 19:21:55.
