data_PCOD9370643
_publ_section_title
;
Structure prediction by ZEFSAII (Michael W. Deem and Ramdas Pophale) SiO2 
 PCOD9370643
Probable space group: F D D 2
;
_chemical_formula_sum "Si O2"
_cell_formula_units_Z 96
_cell_length_a 16.091090
_cell_length_b 19.019300
_cell_length_c 11.392957
_cell_angle_alpha 90.000000
_cell_angle_beta 90.000000
_cell_angle_gamma 90.000000
_cell_volume 3486.715007
_symmetry_space_group_name_H-M "F D D 2"
_symmetry_group_IT_number 43
_symmetry_cell_setting 'orthorhombic'
loop_
_space_group_symop_operation_xyz
x,y,z
-x,-y,z
1/4-x,1/4+y,1/4+z
1/4+x,1/4-y,1/4+z
x,1/2+y,1/2+z
-x,1/2-y,1/2+z
1/4-x,3/4+y,3/4+z
1/4+x,3/4-y,3/4+z
1/2+x,y,1/2+z
1/2-x,-y,1/2+z
3/4-x,1/4+y,3/4+z
3/4+x,1/4-y,3/4+z
1/2+x,1/2+y,z
1/2-x,1/2-y,z
3/4-x,3/4+y,1/4+z
3/4+x,3/4-y,1/4+z
loop_
_atom_site_type_symbol
_atom_site_label
_atom_site_fract_x
_atom_site_fract_y
_atom_site_fract_z
Si Si1 0.044895 0.602874 0.135100
Si Si2 0.882579 0.186303 0.604124
Si Si3 0.126082 0.216296 0.324884
Si Si4 0.264894 0.039785 0.197271
Si Si5 0.991607 0.366140 0.658538
Si Si6 0.135522 0.493021 0.967239
O O1 0.057433 0.572896 0.265057
O O2 0.110622 0.670970 0.136191
O O3 0.948037 0.623850 0.132105
O O4 0.068650 0.546109 0.032642
O O5 0.859243 0.238783 0.708133
O O6 0.946925 0.226100 0.517672
O O7 0.078107 0.270509 0.409453
O O8 0.202374 0.184532 0.396655
O O9 0.067942 0.152779 0.268361
O O10 0.291237 0.106728 0.274488
O O11 0.310738 0.036861 0.074135
O O12 0.056036 0.300817 0.657198
#
# Coordination Sequence:
#
# PCOD9370643 Si02
#       6
#    16  16  16  16  16  16
#     4  11  21  42  65 101 132 188 230 292 351 434
#     4  10  21  39  66  93 141 178 234 287 363 410
#     4  10  20  40  63  96 132 186 223 291 354 427
#     4   9  17  38  61  88 129 179 218 284 355 411
#     4  10  20  37  66  92 131 183 226 284 360 423
#     4  10  21  38  70  96 135 178 233 289 359 412
#
# _framework density 27.533078
#
# number of rings (size 3 to 8) (size 9 to 14) (size 15 to 20)
#    0.000    2.000    5.000    1.000    0.000    0.667 
#    9.000    2.500    0.000    0.000    0.000    0.000 
#    0.000    0.000    0.000    0.000    0.000    0.000 
#
# Total GULP energy -133783.365682 kJ/mol
# GULP energy per Si atom -5574.306903 kJ/mol
# Density = 2.747041 g / cm^3
# Si number density = 27.533078 Si / 1000 Ang^3
#
#
#
# Elastic Constant Matrix: (Units=GPa)
#
#
# Indices 1 2 3 4 5 6 
#
# 1 81.4342 61.3861 15.4515 0.0000 0.0000 0.0000
# 2 61.3861 109.3718 16.6359 0.0000 0.0000 0.0000
# 3 15.4515 16.6359 75.2928 0.0000 0.0000 0.0000
# 4 0.0000 0.0000 0.0000 32.3228 0.0000 0.0000
# 5 0.0000 0.0000 0.0000 0.0000 1737.8356 0.0000
# 6 0.0000 0.0000 0.0000 0.0000 0.0000 22.8285
#
#
#
# Elastic Compliance Matrix: (Units=1/GPa)
#
#
# Indices 1 2 3 4 5 6 
#
# 1 0.021521 -0.011804 -0.001808 0.000000 0.000000 0.000000
# 2 -0.011804 0.015935 -0.001099 0.000000 0.000000 0.000000
# 3 -0.001808 -0.001099 0.013895 0.000000 0.000000 0.000000
# 4 0.000000 0.000000 0.000000 0.030938 0.000000 0.000000
# 5 0.000000 0.000000 0.000000 0.000000 0.000575 0.000000
# 6 0.000000 0.000000 0.000000 0.000000 0.000000 0.043805
#
#
# Mechanical properties :
#
#
# Convention : Reuss Voigt Hill
#
# Bulk Modulus (GPa) = 45.59979 50.33843 47.96911
# Shear Modulus (GPa) = 30.59962 370.10574 200.35268
#
# Velocity S-wave (km/s) = 3.33735 11.60664 8.53967
# Velocity P-wave (km/s) = 5.60788 14.06916 10.70957
#
# Compressibility (1/GPa) = 0.02192992
#
# Stress axis : x y z
#
# Youngs Moduli (GPa) = 46.46675 62.75429 71.96662
#
# Poissons Ratio (x) = 0.74073 0.13015
# Poissons Ratio (y) = 0.54848 0.07906
# Poissons Ratio (z) = 0.08403 0.06894
#
# Static dielectric constant tensor:
#      x y z
#    x -5.787730 0.000000 0.000000 
#    y 0.000000 2.324580 0.000000 
#    z 0.000000 0.000000 2.265250 
# 
# From -- ./inp_files/7096.got.cif
#   From: 2010.05.17/outbox.cif.g08.bks.cpg/sg43_4_cif.got.tgz:7096.got - 2010.06.03 19:21:55.
