data_PCOD9370289
_publ_section_title
;
Structure prediction by ZEFSAII (Michael W. Deem and Ramdas Pophale) SiO2 
 PCOD9370289
Probable space group: F D D 2
;
_chemical_formula_sum "Si O2"
_cell_formula_units_Z 88
_cell_length_a 16.945458
_cell_length_b 27.069331
_cell_length_c 8.162258
_cell_angle_alpha 90.000000
_cell_angle_beta 90.000000
_cell_angle_gamma 90.000000
_cell_volume 3744.045796
_symmetry_space_group_name_H-M "F D D 2"
_symmetry_group_IT_number 43
_symmetry_cell_setting 'orthorhombic'
loop_
_space_group_symop_operation_xyz
x,y,z
-x,-y,z
1/4-x,1/4+y,1/4+z
1/4+x,1/4-y,1/4+z
x,1/2+y,1/2+z
-x,1/2-y,1/2+z
1/4-x,3/4+y,3/4+z
1/4+x,3/4-y,3/4+z
1/2+x,y,1/2+z
1/2-x,-y,1/2+z
3/4-x,1/4+y,3/4+z
3/4+x,1/4-y,3/4+z
1/2+x,1/2+y,z
1/2-x,1/2-y,z
3/4-x,3/4+y,1/4+z
3/4+x,3/4-y,1/4+z
loop_
_atom_site_type_symbol
_atom_site_label
_atom_site_fract_x
_atom_site_fract_y
_atom_site_fract_z
Si Si1 0.633871 0.684462 0.235730
Si Si2 0.818142 0.408327 0.538145
Si Si3 0.043660 0.304327 0.789379
Si Si4 0.329318 0.149682 0.965267
Si Si5 0.500000 0.500000 0.774825
Si Si6 0.177027 0.992446 0.246516
O O1 0.668534 0.632528 0.180335
O O2 0.539392 0.682615 0.202896
O O3 0.680592 0.725616 0.133010
O O4 0.634534 0.703137 0.423548
O O5 0.882463 0.400968 0.395997
O O6 0.732853 0.394397 0.463087
O O7 0.825106 0.461072 0.622177
O O8 0.083551 0.263264 0.675889
O O9 0.013564 0.280361 0.959904
O O10 0.100643 0.348860 0.833914
O O11 0.284795 0.202003 0.934668
#
# Coordination Sequence:
#
# PCOD9370289 Si02
#       6
#    16  16  16  16   8  16
#     4   9  21  36  68  94 132 176 221 273 338 409
#     4  11  22  41  69  99 131 181 224 278 342 416
#     4  10  21  41  64  98 131 180 222 284 337 401
#     4  11  23  39  68  97 136 172 230 278 342 408
#     4  10  18  42  62  96 130 182 220 272 348 402
#     4  10  20  39  65  92 138 176 221 274 346 396
#
# _framework density 23.503988
#
# number of rings (size 3 to 8) (size 9 to 14) (size 15 to 20)
#    1.091    0.727    1.818    3.273    0.000    2.909 
#    0.000    0.909    4.000    0.000    0.000    0.000 
#    0.000    0.000    0.000    0.000    0.000    0.000 
#
# Total GULP energy -122824.191517 kJ/mol
# GULP energy per Si atom -5582.917796 kJ/mol
# Density = 2.345049 g / cm^3
# Si number density = 23.503988 Si / 1000 Ang^3
#
#
#
# Elastic Constant Matrix: (Units=GPa)
#
#
# Indices 1 2 3 4 5 6 
#
# 1 94.7632 33.2116 26.9845 0.0000 0.0000 0.0000
# 2 33.2116 121.0050 37.1130 0.0000 0.0000 0.0000
# 3 26.9845 37.1130 83.5082 0.0000 0.0000 0.0000
# 4 0.0000 0.0000 0.0000 35.5406 0.0000 0.0000
# 5 0.0000 0.0000 0.0000 0.0000 26.5122 0.0000
# 6 0.0000 0.0000 0.0000 0.0000 0.0000 26.8445
#
#
#
# Elastic Compliance Matrix: (Units=1/GPa)
#
#
# Indices 1 2 3 4 5 6 
#
# 1 0.012235 -0.002484 -0.002849 0.000000 0.000000 0.000000
# 2 -0.002484 0.010073 -0.003674 0.000000 0.000000 0.000000
# 3 -0.002849 -0.003674 0.014528 0.000000 0.000000 0.000000
# 4 0.000000 0.000000 0.000000 0.028137 0.000000 0.000000
# 5 0.000000 0.000000 0.000000 0.000000 0.037718 0.000000
# 6 0.000000 0.000000 0.000000 0.000000 0.000000 0.037252
#
#
# Mechanical properties :
#
#
# Convention : Reuss Voigt Hill
#
# Bulk Modulus (GPa) = 53.13224 54.87716 54.00470
# Shear Modulus (GPa) = 30.44494 31.24396 30.84445
#
# Velocity S-wave (km/s) = 3.60295 3.64992 3.62651
# Velocity P-wave (km/s) = 6.32163 6.41570 6.36884
#
# Compressibility (1/GPa) = 0.01882097
#
# Stress axis : x y z
#
# Youngs Moduli (GPa) = 81.73540 99.27835 68.83067
#
# Poissons Ratio (x) = 0.24661 0.19613
# Poissons Ratio (y) = 0.20303 0.25287
# Poissons Ratio (z) = 0.23290 0.36474
#
# Static dielectric constant tensor:
#      x y z
#    x 1.916570 0.000000 0.000000 
#    y 0.000000 1.874350 0.000000 
#    z 0.000000 0.000000 1.875530 
# 
# From -- ./inp_files/2897.got.cif
#   From: 2010.05.17/outbox.cif.g08.bks.cpg/sg43_2_cif.got.tgz:2897.got - 2010.06.03 19:21:55.
