data_PCOD9370312
_publ_section_title
;
Structure prediction by ZEFSAII (Michael W. Deem and Ramdas Pophale) SiO2 
 PCOD9370312
Probable space group: F D D 2
;
_chemical_formula_sum "Si O2"
_cell_formula_units_Z 128
_cell_length_a 18.324745
_cell_length_b 21.780593
_cell_length_c 16.528521
_cell_angle_alpha 90.000000
_cell_angle_beta 90.000000
_cell_angle_gamma 90.000000
_cell_volume 6596.926319
_symmetry_space_group_name_H-M "F D D 2"
_symmetry_group_IT_number 43
_symmetry_cell_setting 'orthorhombic'
loop_
_space_group_symop_operation_xyz
x,y,z
-x,-y,z
1/4-x,1/4+y,1/4+z
1/4+x,1/4-y,1/4+z
x,1/2+y,1/2+z
-x,1/2-y,1/2+z
1/4-x,3/4+y,3/4+z
1/4+x,3/4-y,3/4+z
1/2+x,y,1/2+z
1/2-x,-y,1/2+z
3/4-x,1/4+y,3/4+z
3/4+x,1/4-y,3/4+z
1/2+x,1/2+y,z
1/2-x,1/2-y,z
3/4-x,3/4+y,1/4+z
3/4+x,3/4-y,1/4+z
loop_
_atom_site_type_symbol
_atom_site_label
_atom_site_fract_x
_atom_site_fract_y
_atom_site_fract_z
Si Si1 0.403799 0.918886 0.566380
Si Si2 0.245275 0.421756 0.114487
Si Si3 0.333884 0.795684 0.896636
Si Si4 0.757633 0.551957 0.587602
Si Si5 0.072282 0.835029 0.040425
Si Si6 0.296790 0.041243 0.396176
Si Si7 0.995117 0.434145 0.809792
Si Si8 0.182785 0.796357 0.635396
O O1 0.316223 0.920583 0.557422
O O2 0.429088 0.976190 0.619784
O O3 0.421257 0.854716 0.609116
O O4 0.434909 0.934478 0.479233
O O5 0.212353 0.490117 0.105424
O O6 0.283061 0.416690 0.203628
O O7 0.195794 0.362983 0.095264
O O8 0.421858 0.798383 0.895849
O O9 0.313447 0.847630 0.831085
O O10 0.295686 0.809951 0.980597
O O11 0.783505 0.548088 0.492650
O O12 0.728740 0.620669 0.599928
O O13 0.158961 0.823971 0.039020
O O14 0.030409 0.787569 0.099519
O O15 0.356379 0.989438 0.375212
O O16 0.000000 0.500000 0.853653
O O17 0.250000 0.750000 0.617528
#
# Coordination Sequence:
#
# PCOD9370312 Si02
#       8
#    16  16  16  16  16  16  16  16
#     4  11  21  33  54  90 128 144 178 247 309 379
#     4  11  21  35  51  82 116 154 199 240 297 351
#     4  10  19  31  55  87 123 148 178 228 315 392
#     4  10  21  36  55  86 123 156 186 252 314 362
#     4  11  23  33  56  86 124 162 189 244 310 380
#     4  12  21  37  52  84 128 158 198 236 307 374
#     4  11  21  35  58  91 119 156 195 238 314 385
#     4  12  23  33  58  86 119 162 192 241 309 370
#
# _framework density 19.402975999999999
#
# number of rings (size 3 to 8) (size 9 to 14) (size 15 to 20)
#    0.000    1.000    6.250    4.500    0.000    0.000 
#    0.000    0.000    2.750    0.000    0.000    0.000 
#    0.000    0.000    0.000    0.000    0.000    0.000 
#
# Total GULP energy -178433.081238 kJ/mol
# GULP energy per Si atom -5576.033789 kJ/mol
# Density = 1.935881 g / cm^3
# Si number density = 19.402976 Si / 1000 Ang^3
#
#
#
# Elastic Constant Matrix: (Units=GPa)
#
#
# Indices 1 2 3 4 5 6 
#
# 1 56.6280 27.6294 12.4993 0.0000 0.0000 0.0000
# 2 27.6294 194.2683 16.3449 0.0000 0.0000 0.0000
# 3 12.4993 16.3449 19.5717 0.0000 0.0000 0.0000
# 4 0.0000 0.0000 0.0000 29.6813 0.0000 0.0000
# 5 0.0000 0.0000 0.0000 0.0000 24.6982 0.0000
# 6 0.0000 0.0000 0.0000 0.0000 0.0000 45.2915
#
#
#
# Elastic Compliance Matrix: (Units=1/GPa)
#
#
# Indices 1 2 3 4 5 6 
#
# 1 0.021272 -0.002025 -0.011895 0.000000 0.000000 0.000000
# 2 -0.002025 0.005729 -0.003492 0.000000 0.000000 0.000000
# 3 -0.011895 -0.003492 0.061607 0.000000 0.000000 0.000000
# 4 0.000000 0.000000 0.000000 0.033691 0.000000 0.000000
# 5 0.000000 0.000000 0.000000 0.000000 0.040489 0.000000
# 6 0.000000 0.000000 0.000000 0.000000 0.000000 0.022079
#
#
# Mechanical properties :
#
#
# Convention : Reuss Voigt Hill
#
# Bulk Modulus (GPa) = 18.59201 42.60169 30.59685
# Shear Modulus (GPa) = 21.04218 34.20051 27.62135
#
# Velocity S-wave (km/s) = 3.29672 4.20294 3.77711
# Velocity P-wave (km/s) = 4.90856 6.74958 5.90131
#
# Compressibility (1/GPa) = 0.05378654
#
# Stress axis : x y z
#
# Youngs Moduli (GPa) = 47.00926 174.54307 16.23202
#
# Poissons Ratio (x) = 0.35339 0.19307
# Poissons Ratio (y) = 0.09518 0.05668
# Poissons Ratio (z) = 0.55915 0.60944
#
# Static dielectric constant tensor:
#      x y z
#    x 1.770580 0.000000 0.000000 
#    y 0.000000 1.778280 0.000000 
#    z 0.000000 0.000000 1.711400 
# 
# From -- ./inp_files/14693.got.cif
#   From: 2010.05.17/outbox.cif.g08.bks.cpg/sg43_8_cif.got.tgz:14693.got - 2010.06.03 19:21:55.
