data_PCOD9370897
_publ_section_title
;
Structure prediction by ZEFSAII (Michael W. Deem and Ramdas Pophale) SiO2 
 PCOD9370897
Probable space group: F D D 2
;
_chemical_formula_sum "Si O2"
_cell_formula_units_Z 88
_cell_length_a 16.760985
_cell_length_b 33.000846
_cell_length_c 6.764881
_cell_angle_alpha 90.000000
_cell_angle_beta 90.000000
_cell_angle_gamma 90.000000
_cell_volume 3741.836201
_symmetry_space_group_name_H-M "F D D 2"
_symmetry_group_IT_number 43
_symmetry_cell_setting 'orthorhombic'
loop_
_space_group_symop_operation_xyz
x,y,z
-x,-y,z
1/4-x,1/4+y,1/4+z
1/4+x,1/4-y,1/4+z
x,1/2+y,1/2+z
-x,1/2-y,1/2+z
1/4-x,3/4+y,3/4+z
1/4+x,3/4-y,3/4+z
1/2+x,y,1/2+z
1/2-x,-y,1/2+z
3/4-x,1/4+y,3/4+z
3/4+x,1/4-y,3/4+z
1/2+x,1/2+y,z
1/2-x,1/2-y,z
3/4-x,3/4+y,1/4+z
3/4+x,3/4-y,1/4+z
loop_
_atom_site_type_symbol
_atom_site_label
_atom_site_fract_x
_atom_site_fract_y
_atom_site_fract_z
Si Si1 0.622119 0.687064 0.254760
Si Si2 0.820875 0.380431 0.455672
Si Si3 0.049921 0.285034 0.747743
Si Si4 0.316916 0.172698 0.888343
Si Si5 0.500000 0.500000 0.864571
Si Si6 0.212414 0.947127 0.382426
O O1 0.650470 0.648536 0.130734
O O2 0.537084 0.702652 0.167844
O O3 0.684939 0.724015 0.237995
O O4 0.601446 0.677130 0.483351
O O5 0.890239 0.397737 0.316166
O O6 0.761115 0.352105 0.327233
O O7 0.762105 0.417113 0.519583
O O8 0.072386 0.238919 0.708788
O O9 0.120749 0.316663 0.715223
O O10 0.031295 0.288696 0.980337
O O11 0.289908 0.215666 0.978698
#
# Coordination Sequence:
#
# PCOD9370897 Si02
#       6
#    16  16  16  16   8  16
#     4   9  20  38  65  91 130 178 217 276 348 398
#     4  10  21  42  60  96 134 171 217 279 343 410
#     4   9  19  40  64  97 125 170 230 268 330 413
#     4  10  22  40  65  91 132 176 218 277 345 402
#     4  10  20  42  62  96 124 182 220 268 350 394
#     4   9  20  38  62  97 125 171 223 267 341 401
#
# _framework density 23.517866999999999
#
# number of rings (size 3 to 8) (size 9 to 14) (size 15 to 20)
#    1.091    1.455    0.000    2.182    0.000    4.364 
#    9.818    2.727    0.000    0.000    0.000    0.000 
#    0.000    0.000    0.000    0.000    0.000    0.000 
#
# Total GULP energy -122603.953817 kJ/mol
# GULP energy per Si atom -5572.906992 kJ/mol
# Density = 2.346434 g / cm^3
# Si number density = 23.517867 Si / 1000 Ang^3
#
#
#
# Elastic Constant Matrix: (Units=GPa)
#
#
# Indices 1 2 3 4 5 6 
#
# 1 118.2900 60.3369 34.3338 0.0001 -0.0005 -0.0001
# 2 60.3369 135.7853 46.2213 -0.0001 -0.0001 0.0000
# 3 34.3338 46.2213 37.1124 0.0005 -0.0003 -0.0003
# 4 0.0001 -0.0001 0.0005 34.8579 -0.0002 0.0001
# 5 -0.0005 -0.0001 -0.0003 -0.0002 23.7064 0.0001
# 6 -0.0001 0.0000 -0.0003 0.0001 0.0001 61.2604
#
#
#
# Elastic Compliance Matrix: (Units=1/GPa)
#
#
# Indices 1 2 3 4 5 6 
#
# 1 0.012110 -0.002721 -0.007814 0.000000 0.000000 0.000000
# 2 -0.002721 0.013396 -0.014167 0.000000 0.000000 0.000000
# 3 -0.007814 -0.014167 0.051818 -0.000001 0.000000 0.000000
# 4 0.000000 0.000000 -0.000001 0.028688 0.000000 0.000000
# 5 0.000000 0.000000 0.000000 0.000000 0.042183 0.000000
# 6 0.000000 0.000000 0.000000 0.000000 0.000000 0.016324
#
#
# Mechanical properties :
#
#
# Convention : Reuss Voigt Hill
#
# Bulk Modulus (GPa) = 35.81656 63.66354 49.74005
# Shear Modulus (GPa) = 22.39856 33.98464 28.19160
#
# Velocity S-wave (km/s) = 3.08946 3.80551 3.46603
# Velocity P-wave (km/s) = 5.29045 6.81457 6.10029
#
# Compressibility (1/GPa) = 0.02792004
#
# Stress axis : x y z
#
# Youngs Moduli (GPa) = 82.57726 74.64908 19.29833
#
# Poissons Ratio (x) = 0.20313 0.15080
# Poissons Ratio (y) = 0.22470 0.27339
# Poissons Ratio (z) = 0.64528 1.05752
#
# Static dielectric constant tensor:
#      x y z
#    x 1.979820 0.000000 0.000000 
#    y 0.000000 1.938140 0.000000 
#    z 0.000000 0.000000 1.896550 
# 
# From -- ./inp_files/2934.got.cif
#   From: 2010.05.17/outbox.cif.g08.bks.cpg/sg43_2_cif.got.tgz:2934.got - 2010.06.03 19:21:55.
