data_PCOD9370822
_publ_section_title
;
Structure prediction by ZEFSAII (Michael W. Deem and Ramdas Pophale) SiO2 
 PCOD9370822
Probable space group: F D D 2
;
_chemical_formula_sum "Si O2"
_cell_formula_units_Z 96
_cell_length_a 7.646678
_cell_length_b 29.963375
_cell_length_c 19.090698
_cell_angle_alpha 90.000000
_cell_angle_beta 90.000000
_cell_angle_gamma 90.000000
_cell_volume 4374.066079
_symmetry_space_group_name_H-M "F D D 2"
_symmetry_group_IT_number 43
_symmetry_cell_setting 'orthorhombic'
loop_
_space_group_symop_operation_xyz
x,y,z
-x,-y,z
1/4-x,1/4+y,1/4+z
1/4+x,1/4-y,1/4+z
x,1/2+y,1/2+z
-x,1/2-y,1/2+z
1/4-x,3/4+y,3/4+z
1/4+x,3/4-y,3/4+z
1/2+x,y,1/2+z
1/2-x,-y,1/2+z
3/4-x,1/4+y,3/4+z
3/4+x,1/4-y,3/4+z
1/2+x,1/2+y,z
1/2-x,1/2-y,z
3/4-x,3/4+y,1/4+z
3/4+x,3/4-y,1/4+z
loop_
_atom_site_type_symbol
_atom_site_label
_atom_site_fract_x
_atom_site_fract_y
_atom_site_fract_z
Si Si1 0.697254 0.481567 0.217120
Si Si2 0.590256 0.398434 0.867821
Si Si3 0.090256 0.101566 0.710641
Si Si4 0.462668 0.807554 0.370481
Si Si5 0.197254 0.518433 0.861342
Si Si6 0.712668 0.557554 0.957980
O O1 0.500000 0.500000 0.216937
O O2 0.739433 0.429450 0.214097
O O3 0.779025 0.509404 0.154643
O O4 0.778288 0.500000 0.289231
O O5 0.500000 0.399515 0.789231
O O6 0.604884 0.346487 0.888782
O O7 0.760567 0.429450 0.864365
O O8 0.463096 0.420339 0.926363
O O9 0.104883 0.153513 0.689680
O O10 0.963096 0.079661 0.652098
O O11 0.500000 0.801305 0.289231
O O12 0.279025 0.490596 0.923819
O O13 0.000000 0.500000 0.861525
#
# Coordination Sequence:
#
# PCOD9370822 Si02
#       6
#    16  16  16  16  16  16
#     4  11  23  38  62  92 129 176 224 269 336 414
#     4  10  20  40  67  91 126 175 222 277 339 406
#     4  10  20  40  67  91 126 175 222 277 339 406
#     4  10  22  38  64  99 125 164 227 280 337 395
#     4  11  23  38  62  92 129 176 224 269 336 414
#     4  10  22  38  64  99 125 164 227 280 337 395
#
# _framework density 21.947541999999999
#
# number of rings (size 3 to 8) (size 9 to 14) (size 15 to 20)
#    0.000    1.667    3.333    1.000    0.000    4.000 
#    0.000    0.000    7.333    0.000    0.000    0.000 
#    0.000    0.000    0.000    0.000    0.000    0.000 
#
# Total GULP energy -133613.792541 kJ/mol
# GULP energy per Si atom -5567.241356 kJ/mol
# Density = 2.189759 g / cm^3
# Si number density = 21.947542 Si / 1000 Ang^3
#
#
#
# Elastic Constant Matrix: (Units=GPa)
#
#
# Indices 1 2 3 4 5 6 
#
# 1 61.0118 18.0489 14.2677 0.0000 0.0000 0.0000
# 2 18.0489 104.5418 -4.0205 0.0000 0.0000 0.0000
# 3 14.2677 -4.0205 125.4413 0.0000 0.0000 0.0000
# 4 0.0000 0.0000 0.0000 50.6491 0.0000 0.0000
# 5 0.0000 0.0000 0.0000 0.0000 8.6343 0.0000
# 6 0.0000 0.0000 0.0000 0.0000 0.0000 36.0461
#
#
#
# Elastic Compliance Matrix: (Units=1/GPa)
#
#
# Indices 1 2 3 4 5 6 
#
# 1 0.017822 -0.003159 -0.002128 0.000000 0.000000 0.000000
# 2 -0.003159 0.010137 0.000684 0.000000 0.000000 0.000000
# 3 -0.002128 0.000684 0.008236 0.000000 0.000000 0.000000
# 4 0.000000 0.000000 0.000000 0.019744 0.000000 0.000000
# 5 0.000000 0.000000 0.000000 0.000000 0.115817 0.000000
# 6 0.000000 0.000000 0.000000 0.000000 0.000000 0.027742
#
#
# Mechanical properties :
#
#
# Convention : Reuss Voigt Hill
#
# Bulk Modulus (GPa) = 37.05147 38.62080 37.83614
# Shear Modulus (GPa) = 22.96729 36.57915 29.77322
#
# Velocity S-wave (km/s) = 3.23842 4.08691 3.68715
# Velocity P-wave (km/s) = 5.55892 6.31708 5.95009
#
# Compressibility (1/GPa) = 0.02698948
#
# Stress axis : x y z
#
# Youngs Moduli (GPa) = 56.10898 98.64618 121.42015
#
# Poissons Ratio (x) = 0.31161 0.25843
# Poissons Ratio (y) = 0.17724 -0.08308
# Poissons Ratio (z) = 0.11942 -0.06749
#
# Static dielectric constant tensor:
#      x y z
#    x 2.092480 0.000000 0.000000 
#    y 0.000000 1.797540 0.000000 
#    z 0.000000 0.000000 1.847350 
# 
# From -- ./inp_files/16486.got.cif
#   From: 2010.05.17/outbox.cif.g08.bks.cpg/sg43_9_cif.got.tgz:16486.got - 2010.06.03 19:21:55.
