data_PCOD9370032
_publ_section_title
;
Structure prediction by ZEFSAII (Michael W. Deem and Ramdas Pophale) SiO2 
 PCOD9370032
Probable space group: F D D 2
;
_chemical_formula_sum "Si O2"
_cell_formula_units_Z 88
_cell_length_a 7.941704
_cell_length_b 23.214962
_cell_length_c 18.723947
_cell_angle_alpha 90.000000
_cell_angle_beta 90.000000
_cell_angle_gamma 90.000000
_cell_volume 3452.065889
_symmetry_space_group_name_H-M "F D D 2"
_symmetry_group_IT_number 43
_symmetry_cell_setting 'orthorhombic'
loop_
_space_group_symop_operation_xyz
x,y,z
-x,-y,z
1/4-x,1/4+y,1/4+z
1/4+x,1/4-y,1/4+z
x,1/2+y,1/2+z
-x,1/2-y,1/2+z
1/4-x,3/4+y,3/4+z
1/4+x,3/4-y,3/4+z
1/2+x,y,1/2+z
1/2-x,-y,1/2+z
3/4-x,1/4+y,3/4+z
3/4+x,1/4-y,3/4+z
1/2+x,1/2+y,z
1/2-x,1/2-y,z
3/4-x,3/4+y,1/4+z
3/4+x,3/4-y,1/4+z
loop_
_atom_site_type_symbol
_atom_site_label
_atom_site_fract_x
_atom_site_fract_y
_atom_site_fract_z
Si Si1 0.255571 0.971354 0.979540
Si Si2 0.724803 0.943262 0.220787
Si Si3 0.476479 0.313222 0.390734
Si Si4 0.120800 0.428680 0.923362
Si Si5 0.500000 0.000000 0.800307
Si Si6 0.377277 0.863533 0.617407
O O1 0.439796 0.946304 0.957316
O O2 0.137641 0.938560 0.924277
O O3 0.244169 0.040222 0.971743
O O4 0.239365 0.959553 0.061531
O O5 0.909727 0.949134 0.258281
O O6 0.623287 0.914542 0.287706
O O7 0.732306 0.904345 0.149855
O O8 0.723829 0.010147 0.193436
O O9 0.609792 0.362464 0.408904
O O10 0.296096 0.347284 0.381997
O O11 0.130154 0.465996 0.850490
#
# Coordination Sequence:
#
# PCOD9370032 Si02
#       6
#    16  16  16  16   8  16
#     4   9  17  31  51  81 108 141 179 245 292 331
#     4  12  21  32  55  87 113 149 187 245 299 342
#     4  11  20  30  56  81 111 148 189 239 295 341
#     4   9  18  30  53  79 107 129 184 241 280 334
#     4  10  14  28  50  82 102 126 172 228 286 322
#     4  11  19  32  56  84 119 139 192 246 292 348
#
# _framework density 25.491980000000002
#
# number of rings (size 3 to 8) (size 9 to 14) (size 15 to 20)
#    0.000    1.818    9.091    0.000    2.545    0.000 
#    0.000    0.000   12.000    0.000    0.000    0.000 
#    0.000    0.000    0.000    0.000    0.000    0.000 
#
# Total GULP energy -122578.200189 kJ/mol
# GULP energy per Si atom -5571.736372 kJ/mol
# Density = 2.543396 g / cm^3
# Si number density = 25.491980 Si / 1000 Ang^3
#
#
#
# Elastic Constant Matrix: (Units=GPa)
#
#
# Indices 1 2 3 4 5 6 
#
# 1 61.5220 21.8078 16.9872 0.0000 0.0000 0.0000
# 2 21.8078 182.4022 90.4521 0.0000 0.0000 0.0000
# 3 16.9872 90.4521 185.4406 0.0000 0.0000 0.0000
# 4 0.0000 0.0000 0.0000 59.2421 0.0000 0.0000
# 5 0.0000 0.0000 0.0000 0.0000 1.3920 0.0000
# 6 0.0000 0.0000 0.0000 0.0000 0.0000 -7.6054
#
#
#
# Elastic Compliance Matrix: (Units=1/GPa)
#
#
# Indices 1 2 3 4 5 6 
#
# 1 0.017052 -0.001667 -0.000749 0.000000 0.000000 0.000000
# 2 -0.001667 0.007395 -0.003454 0.000000 0.000000 0.000000
# 3 -0.000749 -0.003454 0.007146 0.000000 0.000000 0.000000
# 4 0.000000 0.000000 0.000000 0.016880 0.000000 0.000000
# 5 0.000000 0.000000 0.000000 0.000000 0.718401 0.000000
# 6 0.000000 0.000000 0.000000 0.000000 0.000000 -0.131485
#
#
# Mechanical properties :
#
#
# Convention : Reuss Voigt Hill
#
# Bulk Modulus (GPa) = 50.37240 76.42878 63.40059
# Shear Modulus (GPa) = 7.64823 30.61357 19.13090
#
# Velocity S-wave (km/s) = 1.73400 3.46917 2.74244
# Velocity P-wave (km/s) = 4.87976 6.78922 5.91208
#
# Compressibility (1/GPa) = 0.01985214
#
# Stress axis : x y z
#
# Youngs Moduli (GPa) = 58.64365 135.23336 139.93917
#
# Poissons Ratio (x) = 0.22549 0.10478
# Poissons Ratio (y) = 0.09778 0.48337
# Poissons Ratio (z) = 0.04391 0.46711
#
# Static dielectric constant tensor:
#      x y z
#    x 2.774140 0.000000 0.000000 
#    y 0.000000 2.071520 0.000000 
#    z 0.000000 0.000000 2.083760 
# 
# From -- ./inp_files/10134.got.cif
#   From: 2010.05.17/outbox.cif.g08.bks.cpg/sg43_6_cif.got.tgz:10134.got - 2010.06.03 19:21:55.
