data_PCOD9370363
_publ_section_title
;
Structure prediction by ZEFSAII (Michael W. Deem and Ramdas Pophale) SiO2 
 PCOD9370363
Probable space group: F D D 2
;
_chemical_formula_sum "Si O2"
_cell_formula_units_Z 64
_cell_length_a 7.144709
_cell_length_b 14.094306
_cell_length_c 22.207243
_cell_angle_alpha 90.000000
_cell_angle_beta 90.000000
_cell_angle_gamma 90.000000
_cell_volume 2236.263039
_symmetry_space_group_name_H-M "F D D 2"
_symmetry_group_IT_number 43
_symmetry_cell_setting 'orthorhombic'
loop_
_space_group_symop_operation_xyz
x,y,z
-x,-y,z
1/4-x,1/4+y,1/4+z
1/4+x,1/4-y,1/4+z
x,1/2+y,1/2+z
-x,1/2-y,1/2+z
1/4-x,3/4+y,3/4+z
1/4+x,3/4-y,3/4+z
1/2+x,y,1/2+z
1/2-x,-y,1/2+z
3/4-x,1/4+y,3/4+z
3/4+x,1/4-y,3/4+z
1/2+x,1/2+y,z
1/2-x,1/2-y,z
3/4-x,3/4+y,1/4+z
3/4+x,3/4-y,1/4+z
loop_
_atom_site_type_symbol
_atom_site_label
_atom_site_fract_x
_atom_site_fract_y
_atom_site_fract_z
Si Si1 0.726706 0.506374 0.427610
Si Si2 0.557386 0.307263 0.308902
Si Si3 0.442614 0.307263 0.921475
Si Si4 0.976706 0.256374 0.552767
O O1 0.500000 0.500000 0.431164
O O2 0.640542 0.414090 0.314091
O O3 0.783777 0.540886 0.493787
O O4 0.750000 0.564903 0.365189
O O5 0.750000 0.250000 0.303413
O O6 0.468147 0.250000 0.365189
O O7 0.250000 0.250000 0.926964
O O8 0.533777 0.290886 0.986590
O O9 0.359458 0.414090 0.916286
O O10 0.750000 0.250000 0.549213
#
# Coordination Sequence:
#
# PCOD9370363 Si02
#       4
#    16  16  16  16
#     4  11  22  38  65  93 121 165 211 252 306 370
#     4  10  19  35  65  89 119 162 214 239 302 376
#     4  10  19  35  65  89 119 162 214 239 302 376
#     4  11  22  38  65  93 121 165 211 252 306 370
#
# _framework density 28.619173
#
# number of rings (size 3 to 8) (size 9 to 14) (size 15 to 20)
#    0.000    1.500    5.000    6.000    0.000    0.000 
#    0.000    2.500    0.000    1.500    0.000    0.000 
#    0.000    0.000    0.000    0.000    0.000    0.000 
#
# Total GULP energy -89138.756013 kJ/mol
# GULP energy per Si atom -5571.172251 kJ/mol
# Density = 2.855403 g / cm^3
# Si number density = 28.619173 Si / 1000 Ang^3
#
#
#
# Elastic Constant Matrix: (Units=GPa)
#
#
# Indices 1 2 3 4 5 6 
#
# 1 132.3901 68.8722 57.6296 0.0000 0.0000 0.0000
# 2 68.8722 206.1898 79.3945 0.0000 0.0000 0.0000
# 3 57.6296 79.3945 400.7150 0.0000 0.0000 0.0000
# 4 0.0000 0.0000 0.0000 -34.5007 0.0000 0.0000
# 5 0.0000 0.0000 0.0000 0.0000 -228.4716 0.0000
# 6 0.0000 0.0000 0.0000 0.0000 0.0000 -35.6032
#
#
#
# Elastic Compliance Matrix: (Units=1/GPa)
#
#
# Indices 1 2 3 4 5 6 
#
# 1 0.009366 -0.002825 -0.000787 0.000000 0.000000 0.000000
# 2 -0.002825 0.006103 -0.000803 0.000000 0.000000 0.000000
# 3 -0.000787 -0.000803 0.002768 0.000000 0.000000 0.000000
# 4 0.000000 0.000000 0.000000 -0.028985 0.000000 0.000000
# 5 0.000000 0.000000 0.000000 0.000000 -0.004377 0.000000
# 6 0.000000 0.000000 0.000000 0.000000 0.000000 -0.028087
#
#
# Mechanical properties :
#
#
# Convention : Reuss Voigt Hill
#
# Bulk Modulus (GPa) = 106.31729 127.89861 117.10795
# Shear Modulus (GPa) = -160.01617 -24.15518 -92.08567
#
# Velocity S-wave (km/s) = -7.48556 -2.90836 -5.67856
# Velocity P-wave (km/s) = 6.12224 5.78868 1.40944
#
# Compressibility (1/GPa) = 0.00940581
#
# Stress axis : x y z
#
# Youngs Moduli (GPa) = 106.77045 163.86054 361.29583
#
# Poissons Ratio (x) = 0.46296 0.28441
# Poissons Ratio (y) = 0.30166 0.29006
# Poissons Ratio (z) = 0.08405 0.13155
#
# Static dielectric constant tensor:
#      x y z
#    x 3.254500 0.000000 0.000000 
#    y 0.000000 2.431630 0.000000 
#    z 0.000000 0.000000 2.351830 
# 
# From -- ./inp_files/13112.got.cif
#   From: 2010.05.17/outbox.cif.g08.bks.cpg/sg43_7_cif.got.tgz:13112.got - 2010.06.03 19:21:55.
