data_PCOD9370812
_publ_section_title
;
Structure prediction by ZEFSAII (Michael W. Deem and Ramdas Pophale) SiO2 
 PCOD9370812
Probable space group: F D D 2
;
_chemical_formula_sum "Si O2"
_cell_formula_units_Z 96
_cell_length_a 29.276422
_cell_length_b 18.652555
_cell_length_c 7.137224
_cell_angle_alpha 90.000000
_cell_angle_beta 90.000000
_cell_angle_gamma 90.000000
_cell_volume 3897.495793
_symmetry_space_group_name_H-M "F D D 2"
_symmetry_group_IT_number 43
_symmetry_cell_setting 'orthorhombic'
loop_
_space_group_symop_operation_xyz
x,y,z
-x,-y,z
1/4-x,1/4+y,1/4+z
1/4+x,1/4-y,1/4+z
x,1/2+y,1/2+z
-x,1/2-y,1/2+z
1/4-x,3/4+y,3/4+z
1/4+x,3/4-y,3/4+z
1/2+x,y,1/2+z
1/2-x,-y,1/2+z
3/4-x,1/4+y,3/4+z
3/4+x,1/4-y,3/4+z
1/2+x,1/2+y,z
1/2-x,1/2-y,z
3/4-x,3/4+y,1/4+z
3/4+x,3/4-y,1/4+z
loop_
_atom_site_type_symbol
_atom_site_label
_atom_site_fract_x
_atom_site_fract_y
_atom_site_fract_z
Si Si1 0.469840 0.072627 0.584690
Si Si2 0.864936 0.524836 0.085657
Si Si3 0.974346 0.839389 0.510739
Si Si4 0.788667 0.807329 0.920174
Si Si5 0.128460 0.129146 0.499954
Si Si6 0.225899 0.943685 0.705930
O O1 0.455645 0.094175 0.370279
O O2 0.420242 0.071181 0.679933
O O3 0.505710 0.137871 0.609237
O O4 0.500000 0.000000 0.605370
O O5 0.916027 0.511385 0.149777
O O6 0.854249 0.452293 0.970641
O O7 0.826504 0.532962 0.242159
O O8 0.873459 0.597277 0.967334
O O9 0.924130 0.860073 0.434452
O O10 0.970015 0.833655 0.740506
O O11 0.017594 0.894378 0.503648
O O12 0.991219 0.761737 0.449542
O O13 0.750000 0.750000 0.951285
#
# Coordination Sequence:
#
# PCOD9370812 Si02
#       6
#    16  16  16  16  16  16
#     4  10  23  43  62  90 131 166 217 268 330 393
#     4  11  23  41  68  95 131 171 223 270 338 398
#     4  10  21  41  66  93 134 170 219 273 333 397
#     4  10  20  40  66  93 123 169 212 263 319 396
#     4  11  23  43  65  97 133 172 221 278 333 404
#     4  10  22  41  63  95 132 173 214 276 330 396
#
# _framework density 24.6312
#
# number of rings (size 3 to 8) (size 9 to 14) (size 15 to 20)
#    0.000    1.667    1.667    3.000    2.333    2.000 
#   15.000    0.000    0.000    0.000    0.000    0.000 
#    0.000    0.000    0.000    0.000    0.000    0.000 
#
# Total GULP energy -133689.228746 kJ/mol
# GULP energy per Si atom -5570.384531 kJ/mol
# Density = 2.457514 g / cm^3
# Si number density = 24.631200 Si / 1000 Ang^3
#
#
#
# Elastic Constant Matrix: (Units=GPa)
#
#
# Indices 1 2 3 4 5 6 
#
# 1 196.4191 46.1625 24.6825 0.0000 0.0000 0.0000
# 2 46.1625 105.2490 -0.3030 -0.0002 0.0002 0.0000
# 3 24.6825 -0.3030 33.5244 -0.0001 0.0000 -0.0001
# 4 0.0000 -0.0002 -0.0001 22.5128 0.0000 0.0000
# 5 0.0000 0.0002 0.0000 0.0000 -35.4576 0.0001
# 6 0.0000 0.0000 -0.0001 0.0000 0.0001 35.8075
#
#
#
# Elastic Compliance Matrix: (Units=1/GPa)
#
#
# Indices 1 2 3 4 5 6 
#
# 1 0.006337 -0.002793 -0.004691 0.000000 0.000000 0.000000
# 2 -0.002793 0.010732 0.002153 0.000000 0.000000 0.000000
# 3 -0.004691 0.002153 0.033302 0.000000 0.000000 0.000000
# 4 0.000000 0.000000 0.000000 0.044419 0.000000 0.000000
# 5 0.000000 0.000000 0.000000 0.000000 -0.028203 0.000000
# 6 0.000000 0.000000 0.000000 0.000000 0.000000 0.027927
#
#
# Mechanical properties :
#
#
# Convention : Reuss Voigt Hill
#
# Bulk Modulus (GPa) = 25.18221 52.91960 39.05091
# Shear Modulus (GPa) = 42.22504 22.21590 32.22047
#
# Velocity S-wave (km/s) = 4.14489 3.00649 3.62071
# Velocity P-wave (km/s) = 5.75784 5.79512 5.77651
#
# Compressibility (1/GPa) = 0.03971058
#
# Stress axis : x y z
#
# Youngs Moduli (GPa) = 157.80282 93.17521 30.02811
#
# Poissons Ratio (x) = 0.26023 0.14086
# Poissons Ratio (y) = 0.44073 -0.06466
# Poissons Ratio (z) = 0.74024 -0.20064
#
# Static dielectric constant tensor:
#      x y z
#    x 2.397770 0.000000 0.000000 
#    y 0.000000 2.171870 0.000000 
#    z 0.000000 0.000000 2.115960 
# 
# From -- ./inp_files/3301.got.cif
#   From: 2010.05.17/outbox.cif.g08.bks.cpg/sg43_2_cif.got.tgz:3301.got - 2010.06.03 19:21:55.
