data_PCOD9370585
_publ_section_title
;
Structure prediction by ZEFSAII (Michael W. Deem and Ramdas Pophale) SiO2 
 PCOD9370585
Probable space group: F D D 2
;
_chemical_formula_sum "Si O2"
_cell_formula_units_Z 104
_cell_length_a 22.543271
_cell_length_b 10.110965
_cell_length_c 22.566506
_cell_angle_alpha 90.000000
_cell_angle_beta 90.000000
_cell_angle_gamma 90.000000
_cell_volume 5143.679035
_symmetry_space_group_name_H-M "F D D 2"
_symmetry_group_IT_number 43
_symmetry_cell_setting 'orthorhombic'
loop_
_space_group_symop_operation_xyz
x,y,z
-x,-y,z
1/4-x,1/4+y,1/4+z
1/4+x,1/4-y,1/4+z
x,1/2+y,1/2+z
-x,1/2-y,1/2+z
1/4-x,3/4+y,3/4+z
1/4+x,3/4-y,3/4+z
1/2+x,y,1/2+z
1/2-x,-y,1/2+z
3/4-x,1/4+y,3/4+z
3/4+x,1/4-y,3/4+z
1/2+x,1/2+y,z
1/2-x,1/2-y,z
3/4-x,3/4+y,1/4+z
3/4+x,3/4-y,1/4+z
loop_
_atom_site_type_symbol
_atom_site_label
_atom_site_fract_x
_atom_site_fract_y
_atom_site_fract_z
Si Si1 0.311080 0.523344 0.489860
Si Si2 0.942322 0.941715 0.451532
Si Si3 0.185601 0.236185 0.911057
Si Si4 0.000000 0.000000 0.056535
Si Si5 0.297971 0.067548 0.411598
Si Si6 0.345533 0.926873 0.740476
Si Si7 0.339705 0.850305 0.089170
O O1 0.379467 0.485127 0.478971
O O2 0.308464 0.679285 0.472883
O O3 0.265005 0.452545 0.445365
O O4 0.298901 0.453546 0.552772
O O5 0.943301 0.784254 0.454676
O O6 0.940412 0.007209 0.387187
O O7 0.000000 0.000000 0.483289
O O8 0.250000 0.250000 0.881946
O O9 0.136406 0.310631 0.874356
O O10 0.175390 0.080659 0.910609
O O11 0.030922 0.108447 0.100559
O O12 0.948289 0.065027 0.016168
O O13 0.347946 0.142656 0.449466
O O14 0.374210 0.002363 0.796383
#
# Coordination Sequence:
#
# PCOD9370585 Si02
#       7
#    16  16  16   8  16  16  16
#     4   9  20  38  61  90 120 159 215 261 324 389
#     4  10  22  37  59  90 123 157 210 275 314 391
#     4   9  19  37  59  84 121 160 203 263 321 386
#     4  12  24  40  64  96 130 180 218 264 338 386
#     4  11  23  42  64  91 136 170 217 273 318 402
#     4  11  24  39  64  92 126 172 219 267 330 397
#     4  10  20  36  62  89 114 160 213 258 325 385
#
# _framework density 20.218990999999999
#
# number of rings (size 3 to 8) (size 9 to 14) (size 15 to 20)
#    0.000    1.846    0.000    5.538    2.154    8.615 
#    0.000    0.000    0.000    0.000    0.000    0.000 
#    0.000    0.000    0.000    0.000    0.000    0.000 
#
# Total GULP energy -144808.407573 kJ/mol
# GULP energy per Si atom -5569.554137 kJ/mol
# Density = 2.017297 g / cm^3
# Si number density = 20.218991 Si / 1000 Ang^3
#
#
#
# Elastic Constant Matrix: (Units=GPa)
#
#
# Indices 1 2 3 4 5 6 
#
# 1 106.7780 30.2497 13.6233 0.0000 0.0000 0.0000
# 2 30.2497 105.9252 25.4615 0.0000 0.0000 0.0000
# 3 13.6233 25.4615 51.6633 0.0000 0.0000 0.0000
# 4 0.0000 0.0000 0.0000 29.6092 0.0000 0.0000
# 5 0.0000 0.0000 0.0000 0.0000 24.2734 0.0000
# 6 0.0000 0.0000 0.0000 0.0000 0.0000 33.5796
#
#
#
# Elastic Compliance Matrix: (Units=1/GPa)
#
#
# Indices 1 2 3 4 5 6 
#
# 1 0.010282 -0.002592 -0.001434 0.000000 0.000000 0.000000
# 2 -0.002592 0.011363 -0.004916 0.000000 0.000000 0.000000
# 3 -0.001434 -0.004916 0.022157 0.000000 0.000000 0.000000
# 4 0.000000 0.000000 0.000000 0.033773 0.000000 0.000000
# 5 0.000000 0.000000 0.000000 0.000000 0.041197 0.000000
# 6 0.000000 0.000000 0.000000 0.000000 0.000000 0.029780
#
#
# Mechanical properties :
#
#
# Convention : Reuss Voigt Hill
#
# Bulk Modulus (GPa) = 38.58369 44.78171 41.68270
# Shear Modulus (GPa) = 28.55891 30.49455 29.52673
#
# Velocity S-wave (km/s) = 3.76237 3.88779 3.82559
# Velocity P-wave (km/s) = 6.16427 6.50766 6.33829
#
# Compressibility (1/GPa) = 0.02591769
#
# Stress axis : x y z
#
# Youngs Moduli (GPa) = 97.25339 88.00858 45.13191
#
# Poissons Ratio (x) = 0.22809 0.06473
# Poissons Ratio (y) = 0.25205 0.22189
# Poissons Ratio (z) = 0.13947 0.43269
#
# Static dielectric constant tensor:
#      x y z
#    x 1.732730 0.000000 0.000000 
#    y 0.000000 1.796670 0.000000 
#    z 0.000000 0.000000 1.772290 
# 
# From -- ./inp_files/26550.got.cif
#   From: 2010.05.17/outbox.cif.g08.bks.cpg/sg43_14_cif.got.tgz:26550.got - 2010.06.03 19:21:55.
