data_PCOD9370854
_publ_section_title
;
Structure prediction by ZEFSAII (Michael W. Deem and Ramdas Pophale) SiO2 
 PCOD9370854
Probable space group: F D D 2
;
_chemical_formula_sum "Si O2"
_cell_formula_units_Z 120
_cell_length_a 26.129212
_cell_length_b 15.449237
_cell_length_c 12.373496
_cell_angle_alpha 90.000000
_cell_angle_beta 90.000000
_cell_angle_gamma 90.000000
_cell_volume 4994.888182
_symmetry_space_group_name_H-M "F D D 2"
_symmetry_group_IT_number 43
_symmetry_cell_setting 'orthorhombic'
loop_
_space_group_symop_operation_xyz
x,y,z
-x,-y,z
1/4-x,1/4+y,1/4+z
1/4+x,1/4-y,1/4+z
x,1/2+y,1/2+z
-x,1/2-y,1/2+z
1/4-x,3/4+y,3/4+z
1/4+x,3/4-y,3/4+z
1/2+x,y,1/2+z
1/2-x,-y,1/2+z
3/4-x,1/4+y,3/4+z
3/4+x,1/4-y,3/4+z
1/2+x,1/2+y,z
1/2-x,1/2-y,z
3/4-x,3/4+y,1/4+z
3/4+x,3/4-y,1/4+z
loop_
_atom_site_type_symbol
_atom_site_label
_atom_site_fract_x
_atom_site_fract_y
_atom_site_fract_z
Si Si1 0.743014 0.563109 0.878530
Si Si2 0.832301 0.175735 0.471548
Si Si3 0.796386 0.901783 0.460113
Si Si4 0.583110 0.915659 0.494861
Si Si5 0.854800 0.264582 0.266149
Si Si6 0.977600 0.383649 0.906764
Si Si7 0.665750 0.532256 0.064074
Si Si8 0.750000 0.250000 0.632246
O O1 0.794863 0.612670 0.906746
O O2 0.757145 0.462119 0.891671
O O3 0.737524 0.598843 0.756883
O O4 0.704315 0.577432 0.978642
O O5 0.841749 0.254735 0.391571
O O6 0.880373 0.113850 0.492958
O O7 0.796957 0.210826 0.566408
O O8 0.827429 0.848429 0.371991
O O9 0.764665 0.853076 0.553036
O O10 0.841516 0.961937 0.507461
O O11 0.602747 0.841620 0.413690
O O12 0.620124 0.997353 0.489785
O O13 0.525578 0.928172 0.455310
O O14 0.810484 0.212335 0.196862
O O15 0.943332 0.301407 0.868251
#
# Coordination Sequence:
#
# PCOD9370854 Si02
#       8
#    16  16  16  16  16  16  16   8
#     4   9  19  41  74 100 139 192 239 300 374 450
#     4  10  23  47  76 103 149 189 253 318 372 463
#     4  10  21  39  68 111 152 187 242 307 376 456
#     4  12  26  45  70 107 150 196 253 314 379 466
#     4  10  22  44  75 110 146 195 252 314 386 457
#     4  10  20  40  75 108 147 199 244 317 385 464
#     4  11  23  43  72 103 148 193 255 309 382 454
#     4  12  28  50  70 100 148 196 254 310 382 450
#
# _framework density 24.024562
#
# number of rings (size 3 to 8) (size 9 to 14) (size 15 to 20)
#    0.000    1.600    4.000    0.000    0.000    4.267 
#    7.200    0.000    0.000    0.000    0.000    0.000 
#    0.000    0.000    0.000    0.000    0.000    0.000 
#
# Total GULP energy -167360.424792 kJ/mol
# GULP energy per Si atom -5578.680826 kJ/mol
# Density = 2.396988 g / cm^3
# Si number density = 24.024562 Si / 1000 Ang^3
#
#
#
# Elastic Constant Matrix: (Units=GPa)
#
#
# Indices 1 2 3 4 5 6 
#
# 1 115.5479 38.5571 64.2629 0.0000 0.0000 0.0000
# 2 38.5571 86.2693 45.4407 0.0000 0.0000 0.0000
# 3 64.2629 45.4407 103.8270 0.0000 0.0000 0.0000
# 4 0.0000 0.0000 0.0000 59.7362 0.0000 0.0000
# 5 0.0000 0.0000 0.0000 0.0000 -2.5466 0.0000
# 6 0.0000 0.0000 0.0000 0.0000 0.0000 24.8231
#
#
#
# Elastic Compliance Matrix: (Units=1/GPa)
#
#
# Indices 1 2 3 4 5 6 
#
# 1 0.013489 -0.002120 -0.007421 0.000000 0.000000 0.000000
# 2 -0.002120 0.015397 -0.005427 0.000000 0.000000 0.000000
# 3 -0.007421 -0.005427 0.016600 0.000000 0.000000 0.000000
# 4 0.000000 0.000000 0.000000 0.016740 0.000000 0.000000
# 5 0.000000 0.000000 0.000000 0.000000 -0.392676 0.000000
# 6 0.000000 0.000000 0.000000 0.000000 0.000000 0.040285
#
#
# Mechanical properties :
#
#
# Convention : Reuss Voigt Hill
#
# Bulk Modulus (GPa) = 64.30562 66.90728 65.60645
# Shear Modulus (GPa) = -19.60436 26.89477 3.64521
#
# Velocity S-wave (km/s) = -2.85969 3.34948 1.23312
# Velocity P-wave (km/s) = 3.99010 6.54742 5.42170
#
# Compressibility (1/GPa) = 0.01555074
#
# Stress axis : x y z
#
# Youngs Moduli (GPa) = 74.13356 64.94566 60.24166
#
# Poissons Ratio (x) = 0.13767 0.44707
# Poissons Ratio (y) = 0.15715 0.32692
# Poissons Ratio (z) = 0.55016 0.35245
#
# Static dielectric constant tensor:
#      x y z
#    x 1.929990 0.000000 0.000000 
#    y 0.000000 1.984480 0.000000 
#    z 0.000000 0.000000 1.971970 
# 
# From -- ./inp_files/7964.got.cif
#   From: 2010.05.17/outbox.cif.g08.bks.cpg/sg43_4_cif.got.tgz:7964.got - 2010.06.03 19:21:55.
