data_PCOD9370271
_publ_section_title
;
Structure prediction by ZEFSAII (Michael W. Deem and Ramdas Pophale) SiO2 
 PCOD9370271
Probable space group: F D D 2
;
_chemical_formula_sum "Si O2"
_cell_formula_units_Z 80
_cell_length_a 12.349372
_cell_length_b 13.778296
_cell_length_c 23.170134
_cell_angle_alpha 90.000000
_cell_angle_beta 90.000000
_cell_angle_gamma 90.000000
_cell_volume 3942.474827
_symmetry_space_group_name_H-M "F D D 2"
_symmetry_group_IT_number 43
_symmetry_cell_setting 'orthorhombic'
loop_
_space_group_symop_operation_xyz
x,y,z
-x,-y,z
1/4-x,1/4+y,1/4+z
1/4+x,1/4-y,1/4+z
x,1/2+y,1/2+z
-x,1/2-y,1/2+z
1/4-x,3/4+y,3/4+z
1/4+x,3/4-y,3/4+z
1/2+x,y,1/2+z
1/2-x,-y,1/2+z
3/4-x,1/4+y,3/4+z
3/4+x,1/4-y,3/4+z
1/2+x,1/2+y,z
1/2-x,1/2-y,z
3/4-x,3/4+y,1/4+z
3/4+x,3/4-y,1/4+z
loop_
_atom_site_type_symbol
_atom_site_label
_atom_site_fract_x
_atom_site_fract_y
_atom_site_fract_z
Si Si1 0.008599 0.665690 0.684860
Si Si2 0.990288 0.194218 0.795628
Si Si3 0.575400 0.740155 0.422253
Si Si4 0.133560 0.700478 0.471631
Si Si5 0.885944 0.443901 0.364720
O O1 0.999440 0.732337 0.742177
O O2 0.105422 0.586219 0.689528
O O3 0.038756 0.733129 0.629746
O O4 0.901429 0.602901 0.676773
O O5 0.960149 0.245931 0.855458
O O6 0.896029 0.117691 0.777516
O O7 0.095203 0.125884 0.809499
O O8 0.471668 0.733888 0.464059
O O9 0.250000 0.750000 0.465137
O O10 0.119926 0.628428 0.418273
O O11 0.000000 0.500000 0.369526
#
# Coordination Sequence:
#
# PCOD9370271 Si02
#       5
#    16  16  16  16  16
#     4  10  21  39  65  98 128 164 220 274 317 391
#     4  10  21  38  66  94 127 170 217 264 333 382
#     4  10  22  41  65  95 133 169 219 271 326 395
#     4  10  21  37  62  97 132 166 213 270 317 392
#     4  10  18  40  61  94 125 161 223 259 311 397
#
# _framework density 20.291822
#
# number of rings (size 3 to 8) (size 9 to 14) (size 15 to 20)
#    0.000    2.000    4.000    0.600    0.000    3.200 
#    0.000   16.000   26.400    0.000    0.000    0.000 
#    0.000    0.000    0.000    0.000    0.000    0.000 
#
# Total GULP energy -111427.907198 kJ/mol
# GULP energy per Si atom -5571.395360 kJ/mol
# Density = 2.024564 g / cm^3
# Si number density = 20.291822 Si / 1000 Ang^3
#
#
#
# Elastic Constant Matrix: (Units=GPa)
#
#
# Indices 1 2 3 4 5 6 
#
# 1 109.1848 65.9781 51.5038 0.0000 0.0000 0.0000
# 2 65.9781 114.4832 67.2232 0.0000 0.0000 0.0000
# 3 51.5038 67.2232 139.0846 0.0000 0.0000 0.0000
# 4 0.0000 0.0000 0.0000 48.7185 0.0000 0.0000
# 5 0.0000 0.0000 0.0000 0.0000 35.2013 0.0000
# 6 0.0000 0.0000 0.0000 0.0000 0.0000 39.9171
#
#
#
# Elastic Compliance Matrix: (Units=1/GPa)
#
#
# Indices 1 2 3 4 5 6 
#
# 1 0.014383 -0.007207 -0.001843 0.000000 0.000000 0.000000
# 2 -0.007207 0.015808 -0.004971 0.000000 0.000000 0.000000
# 3 -0.001843 -0.004971 0.010275 0.000000 0.000000 0.000000
# 4 0.000000 0.000000 0.000000 0.020526 0.000000 0.000000
# 5 0.000000 0.000000 0.000000 0.000000 0.028408 0.000000
# 6 0.000000 0.000000 0.000000 0.000000 0.000000 0.025052
#
#
# Mechanical properties :
#
#
# Convention : Reuss Voigt Hill
#
# Bulk Modulus (GPa) = 80.49429 81.35142 80.92286
# Shear Modulus (GPa) = 34.09814 36.63721 35.36768
#
# Velocity S-wave (km/s) = 4.10370 4.25375 4.17940
# Velocity P-wave (km/s) = 7.88722 8.01895 7.95336
#
# Compressibility (1/GPa) = 0.01242324
#
# Stress axis : x y z
#
# Youngs Moduli (GPa) = 69.52570 63.26067 97.32309
#
# Poissons Ratio (x) = 0.45593 0.17934
# Poissons Ratio (y) = 0.50108 0.48383
# Poissons Ratio (z) = 0.12812 0.31449
#
# Static dielectric constant tensor:
#      x y z
#    x 1.722990 0.000000 0.000000 
#    y 0.000000 1.778180 0.000000 
#    z 0.000000 0.000000 1.737810 
# 
# From -- ./inp_files/20913.got.cif
#   From: 2010.05.17/outbox.cif.g08.bks.cpg/sg43_11_cif.got.tgz:20913.got - 2010.06.03 19:21:55.
