data_PCOD9370722
_publ_section_title
;
Structure prediction by ZEFSAII (Michael W. Deem and Ramdas Pophale) SiO2 
 PCOD9370722
Probable space group: F D D 2
;
_chemical_formula_sum "Si O2"
_cell_formula_units_Z 96
_cell_length_a 6.881357
_cell_length_b 31.071634
_cell_length_c 18.495503
_cell_angle_alpha 90.000000
_cell_angle_beta 90.000000
_cell_angle_gamma 90.000000
_cell_volume 3954.616087
_symmetry_space_group_name_H-M "F D D 2"
_symmetry_group_IT_number 43
_symmetry_cell_setting 'orthorhombic'
loop_
_space_group_symop_operation_xyz
x,y,z
-x,-y,z
1/4-x,1/4+y,1/4+z
1/4+x,1/4-y,1/4+z
x,1/2+y,1/2+z
-x,1/2-y,1/2+z
1/4-x,3/4+y,3/4+z
1/4+x,3/4-y,3/4+z
1/2+x,y,1/2+z
1/2-x,-y,1/2+z
3/4-x,1/4+y,3/4+z
3/4+x,1/4-y,3/4+z
1/2+x,1/2+y,z
1/2-x,1/2-y,z
3/4-x,3/4+y,1/4+z
3/4+x,3/4-y,1/4+z
loop_
_atom_site_type_symbol
_atom_site_label
_atom_site_fract_x
_atom_site_fract_y
_atom_site_fract_z
Si Si1 0.955461 0.692164 0.049350
Si Si2 0.592068 0.392813 0.496003
Si Si3 0.470380 0.267658 0.701298
Si Si4 0.030857 0.933519 0.670779
Si Si5 0.249439 0.059977 0.545957
Si Si6 0.982930 0.448508 0.673918
O O1 0.892433 0.641994 0.060372
O O2 0.963082 0.719678 0.121140
O O3 0.010569 0.815676 0.923569
O O4 0.153902 0.691353 0.000496
O O5 0.711433 0.436889 0.493488
O O6 0.674967 0.362814 0.432703
O O7 0.364096 0.406055 0.495049
O O8 0.250000 0.250000 0.693447
O O9 0.566679 0.228991 0.745582
O O10 0.928747 0.952973 0.600114
O O11 0.951552 0.957359 0.741461
O O12 0.410871 0.072790 0.604359
O O13 0.000000 0.500000 0.661569
#
# Coordination Sequence:
#
# PCOD9370722 Si02
#       6
#    16  16  16  16  16  16
#     4   9  21  41  66  98 146 190 242 303 372 436
#     4   9  20  40  70  98 144 201 241 305 376 441
#     4  10  20  38  72 101 142 193 238 313 374 436
#     4   9  22  42  67  99 142 200 247 298 372 452
#     4  10  22  42  70 103 147 191 247 309 378 436
#     4  11  24  41  69 106 140 195 255 301 369 457
#
# _framework density 24.275427000000001
#
# number of rings (size 3 to 8) (size 9 to 14) (size 15 to 20)
#    1.000    1.333    0.000    1.500    7.000    2.000 
#    3.000    1.667    3.667    0.000    0.000    0.000 
#    0.000    0.000    0.000    0.000    0.000    0.000 
#
# Total GULP energy -133709.716503 kJ/mol
# GULP energy per Si atom -5571.238188 kJ/mol
# Density = 2.422018 g / cm^3
# Si number density = 24.275427 Si / 1000 Ang^3
#
#
#
# Elastic Constant Matrix: (Units=GPa)
#
#
# Indices 1 2 3 4 5 6 
#
# 1 167.5387 22.5033 64.6359 0.0000 0.0000 0.0000
# 2 22.5033 133.5581 33.8314 0.0000 0.0000 0.0000
# 3 64.6359 33.8314 176.2075 0.0000 0.0000 0.0000
# 4 0.0000 0.0000 0.0000 58.7484 0.0000 0.0000
# 5 0.0000 0.0000 0.0000 0.0000 -19.5385 0.0000
# 6 0.0000 0.0000 0.0000 0.0000 0.0000 187.3918
#
#
#
# Elastic Compliance Matrix: (Units=1/GPa)
#
#
# Indices 1 2 3 4 5 6 
#
# 1 0.006992 -0.000555 -0.002458 0.000000 0.000000 0.000000
# 2 -0.000555 0.007914 -0.001316 0.000000 0.000000 0.000000
# 3 -0.002458 -0.001316 0.006829 0.000000 0.000000 0.000000
# 4 0.000000 0.000000 0.000000 0.017022 0.000000 0.000000
# 5 0.000000 0.000000 0.000000 0.000000 -0.051181 0.000000
# 6 0.000000 0.000000 0.000000 0.000000 0.000000 0.005336
#
#
# Mechanical properties :
#
#
# Convention : Reuss Voigt Hill
#
# Bulk Modulus (GPa) = 76.47068 79.91616 78.19342
# Shear Modulus (GPa) = 843.17600 69.07592 456.12596
#
# Velocity S-wave (km/s) = 18.65720 5.34012 13.72239
# Velocity P-wave (km/s) = 22.26413 8.42701 16.83309
#
# Compressibility (1/GPa) = 0.01307691
#
# Stress axis : x y z
#
# Youngs Moduli (GPa) = 143.02741 126.35425 146.42579
#
# Poissons Ratio (x) = 0.07018 0.35992
# Poissons Ratio (y) = 0.07944 0.19267
# Poissons Ratio (z) = 0.35157 0.16626
#
# Static dielectric constant tensor:
#      x y z
#    x 1.974150 0.000000 0.000000 
#    y 0.000000 2.033820 0.000000 
#    z 0.000000 0.000000 2.002740 
# 
# From -- ./inp_files/17315.got.cif
#   From: 2010.05.17/outbox.cif.g08.bks.cpg/sg43_9_cif.got.tgz:17315.got - 2010.06.03 19:21:55.
