data_PCOD9370586
_publ_section_title
;
Structure prediction by ZEFSAII (Michael W. Deem and Ramdas Pophale) SiO2 
 PCOD9370586
Probable space group: F D D 2
;
_chemical_formula_sum "Si O2"
_cell_formula_units_Z 88
_cell_length_a 13.511902
_cell_length_b 23.795296
_cell_length_c 13.613552
_cell_angle_alpha 90.000000
_cell_angle_beta 90.000000
_cell_angle_gamma 90.000000
_cell_volume 4377.025259
_symmetry_space_group_name_H-M "F D D 2"
_symmetry_group_IT_number 43
_symmetry_cell_setting 'orthorhombic'
loop_
_space_group_symop_operation_xyz
x,y,z
-x,-y,z
1/4-x,1/4+y,1/4+z
1/4+x,1/4-y,1/4+z
x,1/2+y,1/2+z
-x,1/2-y,1/2+z
1/4-x,3/4+y,3/4+z
1/4+x,3/4-y,3/4+z
1/2+x,y,1/2+z
1/2-x,-y,1/2+z
3/4-x,1/4+y,3/4+z
3/4+x,1/4-y,3/4+z
1/2+x,1/2+y,z
1/2-x,1/2-y,z
3/4-x,3/4+y,1/4+z
3/4+x,3/4-y,1/4+z
loop_
_atom_site_type_symbol
_atom_site_label
_atom_site_fract_x
_atom_site_fract_y
_atom_site_fract_z
Si Si1 0.454174 0.098097 0.447730
Si Si2 0.663165 0.062285 0.540942
Si Si3 0.000000 0.000000 0.362366
Si Si4 0.958508 0.767585 0.131985
Si Si5 0.925664 0.774708 0.463924
Si Si6 0.864364 0.148113 0.141033
O O1 0.556249 0.083872 0.503137
O O2 0.464767 0.139411 0.354982
O O3 0.403700 0.240296 0.365332
O O4 0.383828 0.130058 0.527222
O O5 0.648085 0.206766 0.657513
O O6 0.722169 0.037609 0.448530
O O7 0.907244 0.009875 0.292870
O O8 0.027730 0.057624 0.414477
O O9 0.035295 0.816925 0.163446
O O10 0.976993 0.749040 0.019433
O O11 0.912637 0.840298 0.443536
#
# Coordination Sequence:
#
# PCOD9370586 Si02
#       6
#    16  16   8  16  16  16
#     4  12  21  40  68  97 130 171 220 283 336 395
#     4  12  23  40  66  98 134 168 222 282 335 402
#     4  10  20  36  62  90 116 166 220 264 326 392
#     4  11  24  39  62 102 130 171 227 275 336 405
#     4  11  22  39  63  99 127 167 223 279 326 390
#     4  11  21  38  64  89 127 171 228 267 327 394
#
# _framework density 20.104980000000001
#
# number of rings (size 3 to 8) (size 9 to 14) (size 15 to 20)
#    0.000    0.727    7.273    2.727    0.000    0.000 
#    6.545    0.000    0.000    0.000    0.000    0.000 
#    0.000    0.000    0.000    0.000    0.000    0.000 
#
# Total GULP energy -122705.069832 kJ/mol
# GULP energy per Si atom -5577.503174 kJ/mol
# Density = 2.005922 g / cm^3
# Si number density = 20.104980 Si / 1000 Ang^3
#
#
#
# Elastic Constant Matrix: (Units=GPa)
#
#
# Indices 1 2 3 4 5 6 
#
# 1 51.8280 27.1008 32.5036 0.0000 0.0000 0.0000
# 2 27.1008 132.9856 55.7914 0.0000 0.0000 0.0000
# 3 32.5036 55.7914 73.6585 0.0000 0.0000 0.0000
# 4 0.0000 0.0000 0.0000 39.1599 0.0000 0.0000
# 5 0.0000 0.0000 0.0000 0.0000 31.5342 0.0000
# 6 0.0000 0.0000 0.0000 0.0000 0.0000 39.6352
#
#
#
# Elastic Compliance Matrix: (Units=1/GPa)
#
#
# Indices 1 2 3 4 5 6 
#
# 1 0.026726 -0.000731 -0.011240 0.000000 0.000000 0.000000
# 2 -0.000731 0.011042 -0.008041 0.000000 0.000000 0.000000
# 3 -0.011240 -0.008041 0.024627 0.000000 0.000000 0.000000
# 4 0.000000 0.000000 0.000000 0.025536 0.000000 0.000000
# 5 0.000000 0.000000 0.000000 0.000000 0.031712 0.000000
# 6 0.000000 0.000000 0.000000 0.000000 0.000000 0.025230
#
#
# Mechanical properties :
#
#
# Convention : Reuss Voigt Hill
#
# Bulk Modulus (GPa) = 44.70108 54.36262 49.53185
# Shear Modulus (GPa) = 25.99389 31.60427 28.79908
#
# Velocity S-wave (km/s) = 3.59960 3.96910 3.78886
# Velocity P-wave (km/s) = 6.28954 6.93564 6.62048
#
# Compressibility (1/GPa) = 0.02237082
#
# Stress axis : x y z
#
# Youngs Moduli (GPa) = 37.41704 90.56304 40.60655
#
# Poissons Ratio (x) = 0.06620 0.45641
# Poissons Ratio (y) = 0.02735 0.32652
# Poissons Ratio (z) = 0.42056 0.72822
#
# Static dielectric constant tensor:
#      x y z
#    x 1.806450 0.000000 0.000000 
#    y 0.000000 1.789110 0.000000 
#    z 0.000000 0.000000 1.727580 
# 
# From -- ./inp_files/13878.got.cif
#   From: 2010.05.17/outbox.cif.g08.bks.cpg/sg43_7_cif.got.tgz:13878.got - 2010.06.03 19:21:55.
