data_PCOD9370038
_publ_section_title
;
Structure prediction by ZEFSAII (Michael W. Deem and Ramdas Pophale) SiO2 
 PCOD9370038
Probable space group: F D D 2
;
_chemical_formula_sum "Si O2"
_cell_formula_units_Z 120
_cell_length_a 12.369930
_cell_length_b 18.036422
_cell_length_c 27.535888
_cell_angle_alpha 90.000000
_cell_angle_beta 90.000000
_cell_angle_gamma 90.000000
_cell_volume 6143.512079
_symmetry_space_group_name_H-M "F D D 2"
_symmetry_group_IT_number 43
_symmetry_cell_setting 'orthorhombic'
loop_
_space_group_symop_operation_xyz
x,y,z
-x,-y,z
1/4-x,1/4+y,1/4+z
1/4+x,1/4-y,1/4+z
x,1/2+y,1/2+z
-x,1/2-y,1/2+z
1/4-x,3/4+y,3/4+z
1/4+x,3/4-y,3/4+z
1/2+x,y,1/2+z
1/2-x,-y,1/2+z
3/4-x,1/4+y,3/4+z
3/4+x,1/4-y,3/4+z
1/2+x,1/2+y,z
1/2-x,1/2-y,z
3/4-x,3/4+y,1/4+z
3/4+x,3/4-y,1/4+z
loop_
_atom_site_type_symbol
_atom_site_label
_atom_site_fract_x
_atom_site_fract_y
_atom_site_fract_z
Si Si1 0.168104 0.863421 0.663220
Si Si2 0.816515 0.400409 0.581230
Si Si3 0.000000 0.000000 0.984672
Si Si4 0.733310 0.499984 0.224511
Si Si5 0.543214 0.081321 0.139326
Si Si6 0.433545 0.926209 0.255035
Si Si7 0.559337 0.868013 0.549174
Si Si8 0.292156 0.064938 0.624100
O O1 0.269361 0.856356 0.627304
O O2 0.170846 0.798264 0.701616
O O3 0.191014 0.940050 0.694079
O O4 0.060290 0.866604 0.630715
O O5 0.732954 0.387899 0.537434
O O6 0.814013 0.485624 0.598347
O O7 0.933673 0.371016 0.565717
O O8 0.933433 0.057467 0.016942
O O9 0.808203 0.447090 0.257054
O O10 0.668123 0.550584 0.262242
O O11 0.681661 0.452121 0.180968
O O12 0.549752 0.087122 0.197906
O O13 0.665565 0.087900 0.120880
O O14 0.500000 0.000000 0.125488
O O15 0.500000 0.000000 0.269069
O O16 0.634395 0.876202 0.596000
#
# Coordination Sequence:
#
# PCOD9370038 Si02
#       8
#    16  16   8  16  16  16  16  16
#     4  10  19  31  49  80 108 138 178 238 286 324
#     4  11  19  28  51  85 113 137 183 237 284 344
#     4  10  20  30  50  82 112 134 178 250 294 304
#     4   9  18  32  50  77 113 149 188 233 280 335
#     4  10  16  33  52  71 106 144 183 228 271 340
#     4  10  15  27  51  76 104 137 180 238 288 307
#     4  11  19  32  51  81 118 148 183 233 286 348
#     4  10  20  32  52  82 110 153 187 224 287 352
#
# _framework density 19.532800999999999
#
# number of rings (size 3 to 8) (size 9 to 14) (size 15 to 20)
#    0.000    1.867    8.000    0.800    0.933    0.000 
#    0.000    0.000    0.000   14.400    0.000    2.800 
#    0.000    0.000    0.000    0.000    0.000    0.000 
#
# Total GULP energy -167091.932135 kJ/mol
# GULP energy per Si atom -5569.731071 kJ/mol
# Density = 1.948834 g / cm^3
# Si number density = 19.532801 Si / 1000 Ang^3
#
#
#
# Elastic Constant Matrix: (Units=GPa)
#
#
# Indices 1 2 3 4 5 6 
#
# 1 77.4440 22.7828 55.7136 0.0000 0.0000 0.0000
# 2 22.7828 17.0366 24.9157 0.0000 0.0000 0.0000
# 3 55.7136 24.9157 88.3699 0.0000 0.0000 0.0000
# 4 0.0000 0.0000 0.0000 -0.3835 0.0000 0.0000
# 5 0.0000 0.0000 0.0000 0.0000 28.9152 0.0000
# 6 0.0000 0.0000 0.0000 0.0000 0.0000 14.8620
#
#
#
# Elastic Compliance Matrix: (Units=1/GPa)
#
#
# Indices 1 2 3 4 5 6 
#
# 1 0.026795 -0.018934 -0.011555 0.000000 0.000000 0.000000
# 2 -0.018934 0.113263 -0.019997 0.000000 0.000000 0.000000
# 3 -0.011555 -0.019997 0.024239 0.000000 0.000000 0.000000
# 4 0.000000 0.000000 0.000000 -2.607867 0.000000 0.000000
# 5 0.000000 0.000000 0.000000 0.000000 0.034584 0.000000
# 6 0.000000 0.000000 0.000000 0.000000 0.000000 0.067286
#
#
# Mechanical properties :
#
#
# Convention : Reuss Voigt Hill
#
# Bulk Modulus (GPa) = 15.79152 43.29719 29.54435
# Shear Modulus (GPa) = -2.25264 13.97464 5.86100
#
# Velocity S-wave (km/s) = -1.07506 2.67768 1.73410
# Velocity P-wave (km/s) = 2.56147 5.63689 4.37811
#
# Compressibility (1/GPa) = 0.06332513
#
# Stress axis : x y z
#
# Youngs Moduli (GPa) = 37.31983 8.82901 41.25575
#
# Poissons Ratio (x) = 0.16717 0.47671
# Poissons Ratio (y) = 0.70663 0.82499
# Poissons Ratio (z) = 0.43123 0.17655
#
# Static dielectric constant tensor:
#      x y z
#    x 1.747830 0.000000 0.000000 
#    y 0.000000 1.714270 0.000000 
#    z 0.000000 0.000000 1.722660 
# 
# From -- ./inp_files/25291.got.cif
#   From: 2010.05.17/outbox.cif.g08.bks.cpg/sg43_13_cif.got.tgz:25291.got - 2010.06.03 19:21:55.
