data_PCOD9370345
_publ_section_title
;
Structure prediction by ZEFSAII (Michael W. Deem and Ramdas Pophale) SiO2 
 PCOD9370345
Probable space group: F D D 2
;
_chemical_formula_sum "Si O2"
_cell_formula_units_Z 96
_cell_length_a 18.500424
_cell_length_b 16.111296
_cell_length_c 12.322568
_cell_angle_alpha 90.000000
_cell_angle_beta 90.000000
_cell_angle_gamma 90.000000
_cell_volume 3672.936178
_symmetry_space_group_name_H-M "F D D 2"
_symmetry_group_IT_number 43
_symmetry_cell_setting 'orthorhombic'
loop_
_space_group_symop_operation_xyz
x,y,z
-x,-y,z
1/4-x,1/4+y,1/4+z
1/4+x,1/4-y,1/4+z
x,1/2+y,1/2+z
-x,1/2-y,1/2+z
1/4-x,3/4+y,3/4+z
1/4+x,3/4-y,3/4+z
1/2+x,y,1/2+z
1/2-x,-y,1/2+z
3/4-x,1/4+y,3/4+z
3/4+x,1/4-y,3/4+z
1/2+x,1/2+y,z
1/2-x,1/2-y,z
3/4-x,3/4+y,1/4+z
3/4+x,3/4-y,1/4+z
loop_
_atom_site_type_symbol
_atom_site_label
_atom_site_fract_x
_atom_site_fract_y
_atom_site_fract_z
Si Si1 0.165838 0.093531 0.701430
Si Si2 0.806059 0.498839 0.743884
Si Si3 0.560903 0.443761 0.708940
Si Si4 0.715057 0.670011 0.196675
Si Si5 0.841470 0.985796 0.476740
Si Si6 0.420187 0.738173 0.746966
O O1 0.136261 0.179733 0.750768
O O2 0.249572 0.075323 0.733975
O O3 0.121981 0.011229 0.733187
O O4 0.150958 0.085661 0.568651
O O5 0.759146 0.414408 0.747088
O O6 0.856094 0.481940 0.847863
O O7 0.843210 0.490858 0.626779
O O8 0.500000 0.500000 0.646190
O O9 0.593719 0.351286 0.691134
O O10 0.517538 0.419485 0.819693
O O11 0.750000 0.750000 0.249803
O O12 0.629923 0.688559 0.203686
O O13 0.755338 0.999482 0.479686
#
# Coordination Sequence:
#
# PCOD9370345 Si02
#       6
#    16  16  16  16  16  16
#     4  11  24  41  70 101 141 181 234 293 359 423
#     4  10  24  42  62  96 139 180 231 286 351 434
#     4  10  19  34  60  98 127 164 226 287 340 400
#     4  10  21  37  67  94 131 179 235 288 344 412
#     4  11  25  42  69 100 140 188 229 292 361 428
#     4  10  21  39  64  94 131 177 229 285 345 417
#
# _framework density 26.137125999999999
#
# number of rings (size 3 to 8) (size 9 to 14) (size 15 to 20)
#    0.000    1.667    1.667    2.000    9.333    1.333 
#    0.000    0.000    0.000    0.000    0.000    0.000 
#    0.000    0.000    0.000    0.000    0.000    0.000 
#
# Total GULP energy -133707.776020 kJ/mol
# GULP energy per Si atom -5571.157334 kJ/mol
# Density = 2.607764 g / cm^3
# Si number density = 26.137126 Si / 1000 Ang^3
#
#
#
# Elastic Constant Matrix: (Units=GPa)
#
#
# Indices 1 2 3 4 5 6 
#
# 1 73.1244 13.6804 -16.4736 0.0000 0.0000 0.0000
# 2 13.6804 63.9931 -18.9969 0.0000 0.0000 0.0000
# 3 -16.4736 -18.9969 108.3238 0.0000 0.0000 0.0000
# 4 0.0000 0.0000 0.0000 43.1779 0.0000 0.0000
# 5 0.0000 0.0000 0.0000 0.0000 26.5349 0.0000
# 6 0.0000 0.0000 0.0000 0.0000 0.0000 41.2265
#
#
#
# Elastic Compliance Matrix: (Units=1/GPa)
#
#
# Indices 1 2 3 4 5 6 
#
# 1 0.014556 -0.002589 0.001760 0.000000 0.000000 0.000000
# 2 -0.002589 0.016946 0.002578 0.000000 0.000000 0.000000
# 3 0.001760 0.002578 0.009951 0.000000 0.000000 0.000000
# 4 0.000000 0.000000 0.000000 0.023160 0.000000 0.000000
# 5 0.000000 0.000000 0.000000 0.000000 0.037686 0.000000
# 6 0.000000 0.000000 0.000000 0.000000 0.000000 0.024256
#
#
# Mechanical properties :
#
#
# Convention : Reuss Voigt Hill
#
# Bulk Modulus (GPa) = 22.24739 22.42900 22.33820
# Shear Modulus (GPa) = 36.22076 40.00329 38.11203
#
# Velocity S-wave (km/s) = 3.72667 3.91643 3.82272
# Velocity P-wave (km/s) = 5.20074 5.38991 5.29617
#
# Compressibility (1/GPa) = 0.04494909
#
# Stress axis : x y z
#
# Youngs Moduli (GPa) = 68.69942 59.01249 100.48966
#
# Poissons Ratio (x) = 0.15281 -0.17682
# Poissons Ratio (y) = 0.17790 -0.25906
# Poissons Ratio (z) = -0.12088 -0.15213
#
# Static dielectric constant tensor:
#      x y z
#    x 2.101920 0.000000 0.000000 
#    y 0.000000 2.086700 0.000000 
#    z 0.000000 0.000000 2.311360 
# 
# From -- ./inp_files/10903.got.cif
#   From: 2010.05.17/outbox.cif.g08.bks.cpg/sg43_6_cif.got.tgz:10903.got - 2010.06.03 19:21:55.
