data_PCOD9370698
_publ_section_title
;
Structure prediction by ZEFSAII (Michael W. Deem and Ramdas Pophale) SiO2 
 PCOD9370698
Probable space group: F D D 2
;
_chemical_formula_sum "Si O2"
_cell_formula_units_Z 120
_cell_length_a 7.850560
_cell_length_b 24.128072
_cell_length_c 29.126429
_cell_angle_alpha 90.000000
_cell_angle_beta 90.000000
_cell_angle_gamma 90.000000
_cell_volume 5517.095470
_symmetry_space_group_name_H-M "F D D 2"
_symmetry_group_IT_number 43
_symmetry_cell_setting 'orthorhombic'
loop_
_space_group_symop_operation_xyz
x,y,z
-x,-y,z
1/4-x,1/4+y,1/4+z
1/4+x,1/4-y,1/4+z
x,1/2+y,1/2+z
-x,1/2-y,1/2+z
1/4-x,3/4+y,3/4+z
1/4+x,3/4-y,3/4+z
1/2+x,y,1/2+z
1/2-x,-y,1/2+z
3/4-x,1/4+y,3/4+z
3/4+x,1/4-y,3/4+z
1/2+x,1/2+y,z
1/2-x,1/2-y,z
3/4-x,3/4+y,1/4+z
3/4+x,3/4-y,1/4+z
loop_
_atom_site_type_symbol
_atom_site_label
_atom_site_fract_x
_atom_site_fract_y
_atom_site_fract_z
Si Si1 0.654572 0.878846 0.680150
Si Si2 0.001038 0.279506 0.638023
Si Si3 0.677678 0.977217 0.616270
Si Si4 0.387909 0.925628 0.421938
Si Si5 0.669121 0.400072 0.503301
Si Si6 0.629715 0.696466 0.041720
Si Si7 0.250000 0.750000 0.303364
Si Si8 0.458590 0.682859 0.943764
O O1 0.636726 0.814274 0.666689
O O2 0.676328 0.914240 0.633671
O O3 0.806848 0.884515 0.716381
O O4 0.474918 0.903021 0.698918
O O5 0.990657 0.213086 0.642220
O O6 0.823096 0.300211 0.660659
O O7 0.992308 0.299432 0.585612
O O8 0.500000 0.000000 0.595438
O O9 0.694713 0.013199 0.662816
O O10 0.835225 0.987908 0.583880
O O11 0.319308 0.929539 0.473983
O O12 0.416435 0.859908 0.416850
O O13 0.754141 0.358907 0.540135
O O14 0.547482 0.446174 0.524057
O O15 0.750000 0.750000 0.044696
O O16 0.532466 0.695829 0.993490
#
# Coordination Sequence:
#
# PCOD9370698 Si02
#       8
#    16  16  16  16  16  16   8  16
#     4  10  22  42  63  88 129 176 217 266 340 410
#     4  10  20  38  65  92 127 169 220 267 329 406
#     4  10  24  44  67  94 133 181 228 274 342 412
#     4   9  19  39  62  89 122 175 203 263 337 406
#     4  11  25  40  64  96 134 169 221 279 340 406
#     4  11  22  38  66 100 127 164 228 280 327 397
#     4  12  28  42  66 104 138 172 234 290 336 404
#     4   9  21  39  66  89 128 175 216 265 344 402
#
# _framework density 21.750575000000001
#
# number of rings (size 3 to 8) (size 9 to 14) (size 15 to 20)
#    0.000    1.867    1.333    1.600   10.267    1.067 
#    7.200    0.000    8.800    0.000    0.000    0.000 
#    0.000    0.000    0.000    0.000    0.000    0.000 
#
# Total GULP energy -167470.257471 kJ/mol
# GULP energy per Si atom -5582.341916 kJ/mol
# Density = 2.170107 g / cm^3
# Si number density = 21.750575 Si / 1000 Ang^3
#
#
#
# Elastic Constant Matrix: (Units=GPa)
#
#
# Indices 1 2 3 4 5 6 
#
# 1 58.1238 -3.1426 9.6670 0.0000 0.0000 0.0000
# 2 -3.1426 61.2881 13.5711 0.0000 0.0000 0.0000
# 3 9.6670 13.5711 55.0045 0.0000 0.0000 0.0000
# 4 0.0000 0.0000 0.0000 17.3311 0.0000 0.0000
# 5 0.0000 0.0000 0.0000 0.0000 19.6096 0.0000
# 6 0.0000 0.0000 0.0000 0.0000 0.0000 23.7010
#
#
#
# Elastic Compliance Matrix: (Units=1/GPa)
#
#
# Indices 1 2 3 4 5 6 
#
# 1 0.017890 0.001707 -0.003565 0.000000 0.000000 0.000000
# 2 0.001707 0.017422 -0.004598 0.000000 0.000000 0.000000
# 3 -0.003565 -0.004598 0.019942 0.000000 0.000000 0.000000
# 4 0.000000 0.000000 0.000000 0.057700 0.000000 0.000000
# 5 0.000000 0.000000 0.000000 0.000000 0.050995 0.000000
# 6 0.000000 0.000000 0.000000 0.000000 0.000000 0.042192
#
#
# Mechanical properties :
#
#
# Convention : Reuss Voigt Hill
#
# Bulk Modulus (GPa) = 23.61854 23.84527 23.73191
# Shear Modulus (GPa) = 21.44375 22.41640 21.93008
#
# Velocity S-wave (km/s) = 3.14330 3.21380 3.17874
# Velocity P-wave (km/s) = 4.90471 4.97576 4.94036
#
# Compressibility (1/GPa) = 0.04233962
#
# Stress axis : x y z
#
# Youngs Moduli (GPa) = 55.89745 57.39824 50.14667
#
# Poissons Ratio (x) = -0.09797 0.17879
# Poissons Ratio (y) = -0.09540 0.23060
# Poissons Ratio (z) = 0.19929 0.26394
#
# Static dielectric constant tensor:
#      x y z
#    x 1.825570 0.000000 0.000000 
#    y 0.000000 1.795690 0.000000 
#    z 0.000000 0.000000 1.758340 
# 
# From -- ./inp_files/24468.got.cif
#   From: 2010.05.17/outbox.cif.g08.bks.cpg/sg43_13_cif.got.tgz:24468.got - 2010.06.03 19:21:55.
