data_PCOD9370879
_publ_section_title
;
Structure prediction by ZEFSAII (Michael W. Deem and Ramdas Pophale) SiO2 
 PCOD9370879
Probable space group: F D D 2
;
_chemical_formula_sum "Si O2"
_cell_formula_units_Z 88
_cell_length_a 16.426878
_cell_length_b 27.116466
_cell_length_c 7.822760
_cell_angle_alpha 90.000000
_cell_angle_beta 90.000000
_cell_angle_gamma 90.000000
_cell_volume 3484.561443
_symmetry_space_group_name_H-M "F D D 2"
_symmetry_group_IT_number 43
_symmetry_cell_setting 'orthorhombic'
loop_
_space_group_symop_operation_xyz
x,y,z
-x,-y,z
1/4-x,1/4+y,1/4+z
1/4+x,1/4-y,1/4+z
x,1/2+y,1/2+z
-x,1/2-y,1/2+z
1/4-x,3/4+y,3/4+z
1/4+x,3/4-y,3/4+z
1/2+x,y,1/2+z
1/2-x,-y,1/2+z
3/4-x,1/4+y,3/4+z
3/4+x,1/4-y,3/4+z
1/2+x,1/2+y,z
1/2-x,1/2-y,z
3/4-x,3/4+y,1/4+z
3/4+x,3/4-y,1/4+z
loop_
_atom_site_type_symbol
_atom_site_label
_atom_site_fract_x
_atom_site_fract_y
_atom_site_fract_z
Si Si1 0.768026 0.005088 0.654310
Si Si2 0.356166 0.944050 0.442695
Si Si3 0.750000 0.750000 0.036972
Si Si4 0.398922 0.361147 0.477564
Si Si5 0.183383 0.162744 0.829156
Si Si6 0.000938 0.678287 0.666924
O O1 0.677794 0.025465 0.603066
O O2 0.794201 0.056507 0.742634
O O3 0.799800 0.963263 0.785251
O O4 0.794158 0.978730 0.478808
O O5 0.445588 0.963007 0.399057
O O6 0.344217 0.885439 0.440471
O O7 0.804625 0.784803 0.918503
O O8 0.473068 0.397918 0.524299
O O9 0.371239 0.336207 0.656206
O O10 0.316663 0.387086 0.411913
O O11 0.434411 0.331013 0.317286
#
# Coordination Sequence:
#
# PCOD9370879 Si02
#       6
#    16  16   8  16  16  16
#     4  10  22  44  73  99 145 198 248 309 391 453
#     4  11  24  45  73 109 149 200 259 318 390 465
#     4  12  26  44  74 116 156 206 258 320 386 470
#     4  10  20  41  68 104 147 190 251 303 386 449
#     4  11  22  43  70 108 149 200 248 320 384 467
#     4  10  21  41  71 101 142 194 249 308 378 462
#
# _framework density 25.254255000000001
#
# number of rings (size 3 to 8) (size 9 to 14) (size 15 to 20)
#    0.000    1.455    5.455    0.000    2.545    1.455 
#    9.818    3.636    0.000    2.182    0.000    0.000 
#    0.000    0.000    0.000    0.000    0.000    0.000 
#
# Total GULP energy -122677.381783 kJ/mol
# GULP energy per Si atom -5576.244626 kJ/mol
# Density = 2.519678 g / cm^3
# Si number density = 25.254255 Si / 1000 Ang^3
#
#
#
# Elastic Constant Matrix: (Units=GPa)
#
#
# Indices 1 2 3 4 5 6 
#
# 1 125.8529 48.1988 48.5287 0.0000 0.0000 0.0000
# 2 48.1988 136.7615 17.1261 0.0000 0.0000 0.0000
# 3 48.5287 17.1261 64.2937 0.0000 0.0000 0.0000
# 4 0.0000 0.0000 0.0000 39.8992 0.0000 0.0000
# 5 0.0000 0.0000 0.0000 0.0000 34.2932 0.0000
# 6 0.0000 0.0000 0.0000 0.0000 0.0000 44.3304
#
#
#
# Elastic Compliance Matrix: (Units=1/GPa)
#
#
# Indices 1 2 3 4 5 6 
#
# 1 0.012529 -0.003343 -0.008567 0.000000 0.000000 0.000000
# 2 -0.003343 0.008456 0.000271 0.000000 0.000000 0.000000
# 3 -0.008567 0.000271 0.021948 0.000000 0.000000 0.000000
# 4 0.000000 0.000000 0.000000 0.025063 0.000000 0.000000
# 5 0.000000 0.000000 0.000000 0.000000 0.029160 0.000000
# 6 0.000000 0.000000 0.000000 0.000000 0.000000 0.022558
#
#
# Mechanical properties :
#
#
# Convention : Reuss Voigt Hill
#
# Bulk Modulus (GPa) = 50.87644 61.62391 56.25017
# Shear Modulus (GPa) = 33.43497 37.90819 35.67158
#
# Velocity S-wave (km/s) = 3.64254 3.87856 3.76240
# Velocity P-wave (km/s) = 6.15469 6.67173 6.41842
#
# Compressibility (1/GPa) = 0.01965546
#
# Stress axis : x y z
#
# Youngs Moduli (GPa) = 79.81272 118.25578 45.56315
#
# Poissons Ratio (x) = 0.39532 0.39032
# Poissons Ratio (y) = 0.26681 -0.01234
# Poissons Ratio (z) = 0.68373 -0.03202
#
# Static dielectric constant tensor:
#      x y z
#    x 2.074750 0.000000 0.000000 
#    y 0.000000 2.054000 0.000000 
#    z 0.000000 0.000000 2.091600 
# 
# From -- ./inp_files/2919.got.cif
#   From: 2010.05.17/outbox.cif.g08.bks.cpg/sg43_2_cif.got.tgz:2919.got - 2010.06.03 19:21:55.
