data_PCOD9370909
_publ_section_title
;
Structure prediction by ZEFSAII (Michael W. Deem and Ramdas Pophale) SiO2 
 PCOD9370909
Probable space group: F D D 2
;
_chemical_formula_sum "Si O2"
_cell_formula_units_Z 88
_cell_length_a 15.476490
_cell_length_b 10.832523
_cell_length_c 23.907497
_cell_angle_alpha 90.000000
_cell_angle_beta 90.000000
_cell_angle_gamma 90.000000
_cell_volume 4008.078338
_symmetry_space_group_name_H-M "F D D 2"
_symmetry_group_IT_number 43
_symmetry_cell_setting 'orthorhombic'
loop_
_space_group_symop_operation_xyz
x,y,z
-x,-y,z
1/4-x,1/4+y,1/4+z
1/4+x,1/4-y,1/4+z
x,1/2+y,1/2+z
-x,1/2-y,1/2+z
1/4-x,3/4+y,3/4+z
1/4+x,3/4-y,3/4+z
1/2+x,y,1/2+z
1/2-x,-y,1/2+z
3/4-x,1/4+y,3/4+z
3/4+x,1/4-y,3/4+z
1/2+x,1/2+y,z
1/2-x,1/2-y,z
3/4-x,3/4+y,1/4+z
3/4+x,3/4-y,1/4+z
loop_
_atom_site_type_symbol
_atom_site_label
_atom_site_fract_x
_atom_site_fract_y
_atom_site_fract_z
Si Si1 0.396679 0.406162 0.445320
Si Si2 0.006323 0.147375 0.668394
Si Si3 0.500000 0.500000 0.235296
Si Si4 0.330879 0.344265 0.022540
Si Si5 0.511383 0.230327 0.042438
Si Si6 0.579890 0.157760 0.824240
O O1 0.343671 0.534580 0.440247
O O2 0.326527 0.294921 0.446214
O O3 0.450356 0.374930 0.501153
O O4 0.443714 0.386573 0.386292
O O5 0.935604 0.173006 0.715895
O O6 0.991732 0.189321 0.605542
O O7 0.000000 0.000000 0.666074
O O8 0.510390 0.611712 0.279148
O O9 0.250000 0.250000 0.030636
O O10 0.421738 0.276894 0.017451
O O11 0.336543 0.445565 0.071091
O O12 0.583496 0.337574 0.052267
#
# Coordination Sequence:
#
# PCOD9370909 Si02
#       6
#    16  16   8  16  16  16
#     4  10  22  43  69  98 128 176 225 278 329 403
#     4  10  23  44  66  95 140 175 215 280 335 394
#     4  10  20  42  66  94 134 170 228 278 326 404
#     4  11  24  43  65 101 139 176 219 282 335 391
#     4  10  24  43  70 100 130 181 225 274 332 405
#     4  10  22  42  71  98 131 175 229 270 338 402
#
# _framework density 21.955659000000001
#
# number of rings (size 3 to 8) (size 9 to 14) (size 15 to 20)
#    0.000    1.818    1.818    0.545    5.091    4.364 
#   24.545    0.000    0.000    0.000    0.000    0.000 
#    0.000    0.000    0.000    0.000    0.000    0.000 
#
# Total GULP energy -122654.245210 kJ/mol
# GULP energy per Si atom -5575.192964 kJ/mol
# Density = 2.190569 g / cm^3
# Si number density = 21.955659 Si / 1000 Ang^3
#
#
#
# Elastic Constant Matrix: (Units=GPa)
#
#
# Indices 1 2 3 4 5 6 
#
# 1 74.9115 28.3076 53.9987 0.0000 0.0000 0.0000
# 2 28.3076 97.7625 52.7862 0.0000 0.0000 0.0000
# 3 53.9987 52.7862 142.7195 0.0000 0.0000 0.0000
# 4 0.0000 0.0000 0.0000 7.8758 0.0000 0.0000
# 5 0.0000 0.0000 0.0000 0.0000 20.8619 0.0000
# 6 0.0000 0.0000 0.0000 0.0000 0.0000 27.7981
#
#
#
# Elastic Compliance Matrix: (Units=1/GPa)
#
#
# Indices 1 2 3 4 5 6 
#
# 1 0.018659 -0.001988 -0.006325 0.000000 0.000000 0.000000
# 2 -0.001988 0.012993 -0.004053 0.000000 0.000000 0.000000
# 3 -0.006325 -0.004053 0.010899 0.000000 0.000000 0.000000
# 4 0.000000 0.000000 0.000000 0.126971 0.000000 0.000000
# 5 0.000000 0.000000 0.000000 0.000000 0.047934 0.000000
# 6 0.000000 0.000000 0.000000 0.000000 0.000000 0.035974
#
#
# Mechanical properties :
#
#
# Convention : Reuss Voigt Hill
#
# Bulk Modulus (GPa) = 56.11903 65.06429 60.59166
# Shear Modulus (GPa) = 17.59932 23.32723 20.46328
#
# Velocity S-wave (km/s) = 2.83430 3.26309 3.05622
# Velocity P-wave (km/s) = 6.02716 6.62539 6.33334
#
# Compressibility (1/GPa) = 0.01781927
#
# Stress axis : x y z
#
# Youngs Moduli (GPa) = 53.59275 76.96362 91.75235
#
# Poissons Ratio (x) = 0.15300 0.58029
# Poissons Ratio (y) = 0.10654 0.37192
# Poissons Ratio (z) = 0.33895 0.31197
#
# Static dielectric constant tensor:
#      x y z
#    x 1.837770 0.000000 0.000000 
#    y 0.000000 1.933610 0.000000 
#    z 0.000000 0.000000 1.810890 
# 
# From -- ./inp_files/17970.got.cif
#   From: 2010.05.17/outbox.cif.g08.bks.cpg/sg43_9_cif.got.tgz:17970.got - 2010.06.03 19:21:55.
