data_PCOD9370690
_publ_section_title
;
Structure prediction by ZEFSAII (Michael W. Deem and Ramdas Pophale) SiO2 
 PCOD9370690
Probable space group: F D D 2
;
_chemical_formula_sum "Si O2"
_cell_formula_units_Z 112
_cell_length_a 9.615631
_cell_length_b 26.081903
_cell_length_c 16.021548
_cell_angle_alpha 90.000000
_cell_angle_beta 90.000000
_cell_angle_gamma 90.000000
_cell_volume 4018.107389
_symmetry_space_group_name_H-M "F D D 2"
_symmetry_group_IT_number 43
_symmetry_cell_setting 'orthorhombic'
loop_
_space_group_symop_operation_xyz
x,y,z
-x,-y,z
1/4-x,1/4+y,1/4+z
1/4+x,1/4-y,1/4+z
x,1/2+y,1/2+z
-x,1/2-y,1/2+z
1/4-x,3/4+y,3/4+z
1/4+x,3/4-y,3/4+z
1/2+x,y,1/2+z
1/2-x,-y,1/2+z
3/4-x,1/4+y,3/4+z
3/4+x,1/4-y,3/4+z
1/2+x,1/2+y,z
1/2-x,1/2-y,z
3/4-x,3/4+y,1/4+z
3/4+x,3/4-y,1/4+z
loop_
_atom_site_type_symbol
_atom_site_label
_atom_site_fract_x
_atom_site_fract_y
_atom_site_fract_z
Si Si1 0.565911 0.799604 0.595530
Si Si2 0.660325 0.378414 0.968401
Si Si3 0.820777 0.036924 0.094243
Si Si4 0.217952 0.575048 0.557985
Si Si5 0.962098 0.572034 0.256735
Si Si6 0.285515 0.559432 0.292470
Si Si7 0.521626 0.073183 0.074835
O O1 0.665695 0.828115 0.528883
O O2 0.537368 0.840927 0.670303
O O3 0.410489 0.797069 0.557317
O O4 0.592685 0.738254 0.598078
O O5 0.607841 0.421626 0.033814
O O6 0.564177 0.357241 0.893344
O O7 0.824131 0.049179 0.193569
O O8 0.660022 0.041253 0.065425
O O9 0.854984 0.978606 0.073371
O O10 0.170677 0.618379 0.495045
O O11 0.377844 0.568966 0.526244
O O12 0.965617 0.554010 0.163412
O O13 0.115412 0.563241 0.293198
O O14 0.321059 0.617379 0.321302
#
# Coordination Sequence:
#
# PCOD9370690 Si02
#       7
#    16  16  16  16  16  16  16
#     4  11  22  44  64  96 138 183 222 294 348 431
#     4  11  25  41  68  98 141 179 234 279 362 433
#     4  11  23  40  64  94 130 186 224 286 348 419
#     4  10  20  41  62  92 130 172 222 292 340 412
#     4   9  19  36  62  94 122 160 231 282 333 400
#     4  10  21  38  66  92 129 174 231 286 347 402
#     4  10  20  38  64  92 121 166 231 285 332 405
#
# _framework density 27.873819000000001
#
# number of rings (size 3 to 8) (size 9 to 14) (size 15 to 20)
#    0.000    1.714    2.857    0.857    4.000    2.286 
#    0.000    9.286    0.000    0.000    0.000    0.000 
#    0.000    0.000    0.000    0.000    0.000    0.000 
#
# Total GULP energy -156239.091551 kJ/mol
# GULP energy per Si atom -5579.967555 kJ/mol
# Density = 2.781038 g / cm^3
# Si number density = 27.873819 Si / 1000 Ang^3
#
#
#
# Elastic Constant Matrix: (Units=GPa)
#
#
# Indices 1 2 3 4 5 6 
#
# 1 86.4610 31.0487 13.3798 0.0000 0.0000 0.0000
# 2 31.0487 266.7457 48.2491 0.0000 0.0000 0.0000
# 3 13.3798 48.2491 100.1598 0.0000 0.0000 0.0000
# 4 0.0000 0.0000 0.0000 34.2742 0.0000 0.0000
# 5 0.0000 0.0000 0.0000 0.0000 27.1672 0.0000
# 6 0.0000 0.0000 0.0000 0.0000 0.0000 43.1068
#
#
#
# Elastic Compliance Matrix: (Units=1/GPa)
#
#
# Indices 1 2 3 4 5 6 
#
# 1 0.012167 -0.001229 -0.001033 0.000000 0.000000 0.000000
# 2 -0.001229 0.004231 -0.001874 0.000000 0.000000 0.000000
# 3 -0.001033 -0.001874 0.011025 0.000000 0.000000 0.000000
# 4 0.000000 0.000000 0.000000 0.029176 0.000000 0.000000
# 5 0.000000 0.000000 0.000000 0.000000 0.036809 0.000000
# 6 0.000000 0.000000 0.000000 0.000000 0.000000 0.023198
#
#
# Mechanical properties :
#
#
# Convention : Reuss Voigt Hill
#
# Bulk Modulus (GPa) = 52.21901 70.96908 61.59404
# Shear Modulus (GPa) = 38.09148 44.95556 41.52352
#
# Velocity S-wave (km/s) = 3.70072 4.02035 3.86385
# Velocity P-wave (km/s) = 6.08566 6.86055 6.48469
#
# Compressibility (1/GPa) = 0.01915011
#
# Stress axis : x y z
#
# Youngs Moduli (GPa) = 82.18777 236.35414 90.70493
#
# Poissons Ratio (x) = 0.29057 0.09371
# Poissons Ratio (y) = 0.10104 0.16997
# Poissons Ratio (z) = 0.08491 0.44291
#
# Static dielectric constant tensor:
#      x y z
#    x 2.336400 0.000000 0.000000 
#    y 0.000000 2.234280 0.000000 
#    z 0.000000 0.000000 2.169590 
# 
# From -- ./inp_files/17217.got.cif
#   From: 2010.05.17/outbox.cif.g08.bks.cpg/sg43_9_cif.got.tgz:17217.got - 2010.06.03 19:21:55.
