data_PCOD9370213
_publ_section_title
;
Structure prediction by ZEFSAII (Michael W. Deem and Ramdas Pophale) SiO2 
 PCOD9370213
Probable space group: F D D 2
;
_chemical_formula_sum "Si O2"
_cell_formula_units_Z 112
_cell_length_a 12.222274
_cell_length_b 30.773745
_cell_length_c 12.974300
_cell_angle_alpha 90.000000
_cell_angle_beta 90.000000
_cell_angle_gamma 90.000000
_cell_volume 4879.960448
_symmetry_space_group_name_H-M "F D D 2"
_symmetry_group_IT_number 43
_symmetry_cell_setting 'orthorhombic'
loop_
_space_group_symop_operation_xyz
x,y,z
-x,-y,z
1/4-x,1/4+y,1/4+z
1/4+x,1/4-y,1/4+z
x,1/2+y,1/2+z
-x,1/2-y,1/2+z
1/4-x,3/4+y,3/4+z
1/4+x,3/4-y,3/4+z
1/2+x,y,1/2+z
1/2-x,-y,1/2+z
3/4-x,1/4+y,3/4+z
3/4+x,1/4-y,3/4+z
1/2+x,1/2+y,z
1/2-x,1/2-y,z
3/4-x,3/4+y,1/4+z
3/4+x,3/4-y,1/4+z
loop_
_atom_site_type_symbol
_atom_site_label
_atom_site_fract_x
_atom_site_fract_y
_atom_site_fract_z
Si Si1 0.000000 0.000000 0.227870
Si Si2 0.538893 0.201767 0.006318
Si Si3 0.976537 0.104364 0.551491
Si Si4 0.449649 0.293659 0.715153
Si Si5 0.399328 0.215027 0.838882
Si Si6 0.120822 0.663478 0.529873
Si Si7 0.000000 0.000000 0.772524
Si Si8 0.405581 0.674117 0.902164
O O1 0.095214 0.973185 0.284584
O O2 0.938676 0.959158 0.174035
O O3 0.509833 0.151432 0.014469
O O4 0.480813 0.215936 0.113227
O O5 0.519609 0.211690 0.886507
O O6 0.889121 0.082713 0.473418
O O7 0.925666 0.101536 0.668520
O O8 0.087674 0.077194 0.553871
O O9 0.389275 0.250993 0.753773
O O10 0.531488 0.306725 0.804724
O O11 0.340102 0.230994 0.943075
O O12 0.189879 0.706327 0.566412
O O13 0.124486 0.624717 0.614014
O O14 0.995455 0.673549 0.495303
#
# Coordination Sequence:
#
# PCOD9370213 Si02
#       8
#     8  16  16  16  16  16   8  16
#     4  12  28  49  63  94 156 192 220 297 361 426
#     4  12  25  40  68  96 134 186 230 274 355 414
#     4  10  21  38  70 101 128 171 233 297 327 408
#     4  11  21  42  69 102 131 174 230 286 350 414
#     4  11  20  41  66  98 135 171 226 292 342 404
#     4  10  21  40  74 102 138 180 237 291 362 418
#     4  10  18  35  71 102 128 172 220 295 341 408
#     4  11  23  48  68  99 146 187 232 302 354 424
#
# _framework density 22.951004999999999
#
# number of rings (size 3 to 8) (size 9 to 14) (size 15 to 20)
#    0.000    1.143    7.143    0.857    8.000    0.000 
#    5.143    5.714    0.000    0.000    0.000    0.000 
#    0.000    0.000    0.000    0.000    0.000    0.000 
#
# Total GULP energy -155878.990639 kJ/mol
# GULP energy per Si atom -5567.106809 kJ/mol
# Density = 2.289877 g / cm^3
# Si number density = 22.951005 Si / 1000 Ang^3
#
#
#
# Elastic Constant Matrix: (Units=GPa)
#
#
# Indices 1 2 3 4 5 6 
#
# 1 44.7740 39.6177 25.3549 0.0000 0.0000 0.0000
# 2 39.6177 152.9777 38.4478 0.0000 0.0000 0.0000
# 3 25.3549 38.4478 53.6930 0.0000 0.0000 0.0000
# 4 0.0000 0.0000 0.0000 28.5297 0.0000 0.0000
# 5 0.0000 0.0000 0.0000 0.0000 5.0154 0.0000
# 6 0.0000 0.0000 0.0000 0.0000 0.0000 39.1091
#
#
#
# Elastic Compliance Matrix: (Units=1/GPa)
#
#
# Indices 1 2 3 4 5 6 
#
# 1 0.034330 -0.005873 -0.012006 0.000000 0.000000 0.000000
# 2 -0.005873 0.008976 -0.003654 0.000000 0.000000 0.000000
# 3 -0.012006 -0.003654 0.026910 0.000000 0.000000 0.000000
# 4 0.000000 0.000000 0.000000 0.035051 0.000000 0.000000
# 5 0.000000 0.000000 0.000000 0.000000 0.199386 0.000000
# 6 0.000000 0.000000 0.000000 0.000000 0.000000 0.025569
#
#
# Mechanical properties :
#
#
# Convention : Reuss Voigt Hill
#
# Bulk Modulus (GPa) = 36.83184 50.92062 43.87623
# Shear Modulus (GPa) = 13.07737 24.39913 18.73825
#
# Velocity S-wave (km/s) = 2.38963 3.26405 2.86045
# Velocity P-wave (km/s) = 4.86792 6.03657 5.48347
#
# Compressibility (1/GPa) = 0.02715042
#
# Stress axis : x y z
#
# Youngs Moduli (GPa) = 29.12913 111.40386 37.16046
#
# Poissons Ratio (x) = 0.65431 0.44613
# Poissons Ratio (y) = 0.17108 0.13579
# Poissons Ratio (z) = 0.34971 0.40709
#
# Static dielectric constant tensor:
#      x y z
#    x 1.565880 0.000000 0.000000 
#    y 0.000000 1.776580 0.000000 
#    z 0.000000 0.000000 1.898870 
# 
# From -- ./inp_files/9817.got.cif
#   From: 2010.05.17/outbox.cif.g08.bks.cpg/sg43_5_cif.got.tgz:9817.got - 2010.06.03 19:21:55.
