data_PCOD9370287
_publ_section_title
;
Structure prediction by ZEFSAII (Michael W. Deem and Ramdas Pophale) SiO2 
 PCOD9370287
Probable space group: F D D 2
;
_chemical_formula_sum "Si O2"
_cell_formula_units_Z 88
_cell_length_a 11.829316
_cell_length_b 10.227710
_cell_length_c 36.713987
_cell_angle_alpha 90.000000
_cell_angle_beta 90.000000
_cell_angle_gamma 90.000000
_cell_volume 4441.908300
_symmetry_space_group_name_H-M "F D D 2"
_symmetry_group_IT_number 43
_symmetry_cell_setting 'orthorhombic'
loop_
_space_group_symop_operation_xyz
x,y,z
-x,-y,z
1/4-x,1/4+y,1/4+z
1/4+x,1/4-y,1/4+z
x,1/2+y,1/2+z
-x,1/2-y,1/2+z
1/4-x,3/4+y,3/4+z
1/4+x,3/4-y,3/4+z
1/2+x,y,1/2+z
1/2-x,-y,1/2+z
3/4-x,1/4+y,3/4+z
3/4+x,1/4-y,3/4+z
1/2+x,1/2+y,z
1/2-x,1/2-y,z
3/4-x,3/4+y,1/4+z
3/4+x,3/4-y,1/4+z
loop_
_atom_site_type_symbol
_atom_site_label
_atom_site_fract_x
_atom_site_fract_y
_atom_site_fract_z
Si Si1 0.338565 0.863445 0.522600
Si Si2 0.937319 0.672596 0.187479
Si Si3 0.750000 0.250000 0.097519
Si Si4 0.670258 0.076634 0.161829
Si Si5 0.604913 0.844666 0.534353
Si Si6 0.371704 0.711158 0.950975
O O1 0.250000 0.750000 0.534712
O O2 0.330058 0.867857 0.478504
O O3 0.468737 0.843448 0.534123
O O4 0.327933 0.015555 0.534548
O O5 0.884370 0.567469 0.160090
O O6 0.872934 0.810143 0.188300
O O7 0.071431 0.669930 0.178311
O O8 0.716779 0.132790 0.124375
O O9 0.647116 0.273830 0.070158
O O10 0.777826 0.052403 0.187617
O O11 0.631365 0.785865 0.494722
O O12 0.250000 0.750000 0.936145
#
# Coordination Sequence:
#
# PCOD9370287 Si02
#       6
#    16  16   8  16  16  16
#     4  10  18  41  72  95 121 163 225 290 334 400
#     4  10  20  39  69  99 119 160 229 283 332 404
#     4  12  26  46  56  96 148 180 208 290 372 412
#     4  11  22  41  65  91 139 169 216 285 342 408
#     4  10  22  40  65  94 138 170 223 277 344 421
#     4  11  20  37  69  98 121 175 225 281 331 405
#
# _framework density 19.811305000000001
#
# number of rings (size 3 to 8) (size 9 to 14) (size 15 to 20)
#    0.000    1.455    4.545    1.636    0.000    0.000 
#   16.364    0.000    0.000    0.000    0.000    0.000 
#    0.000    0.000    0.000    0.000    0.000    0.000 
#
# Total GULP energy -122529.997603 kJ/mol
# GULP energy per Si atom -5569.545346 kJ/mol
# Density = 1.976621 g / cm^3
# Si number density = 19.811305 Si / 1000 Ang^3
#
#
#
# Elastic Constant Matrix: (Units=GPa)
#
#
# Indices 1 2 3 4 5 6 
#
# 1 121.9084 32.1134 43.9762 0.0000 0.0000 0.0000
# 2 32.1134 71.0642 50.9623 0.0000 0.0000 0.0000
# 3 43.9762 50.9623 101.2595 0.0000 0.0000 0.0000
# 4 0.0000 0.0000 0.0000 25.3885 0.0000 0.0000
# 5 0.0000 0.0000 0.0000 0.0000 36.3738 0.0000
# 6 0.0000 0.0000 0.0000 0.0000 0.0000 31.3566
#
#
#
# Elastic Compliance Matrix: (Units=1/GPa)
#
#
# Indices 1 2 3 4 5 6 
#
# 1 0.009939 -0.002184 -0.003217 0.000000 0.000000 0.000000
# 2 -0.002184 0.022499 -0.010375 0.000000 0.000000 0.000000
# 3 -0.003217 -0.010375 0.016494 0.000000 0.000000 0.000000
# 4 0.000000 0.000000 0.000000 0.039388 0.000000 0.000000
# 5 0.000000 0.000000 0.000000 0.000000 0.027492 0.000000
# 6 0.000000 0.000000 0.000000 0.000000 0.000000 0.031891
#
#
# Mechanical properties :
#
#
# Convention : Reuss Voigt Hill
#
# Bulk Modulus (GPa) = 57.53799 60.92621 59.23210
# Shear Modulus (GPa) = 27.01995 29.76912 28.39453
#
# Velocity S-wave (km/s) = 3.69706 3.88059 3.78993
# Velocity P-wave (km/s) = 6.87971 7.13433 7.00817
#
# Compressibility (1/GPa) = 0.01737982
#
# Stress axis : x y z
#
# Youngs Moduli (GPa) = 100.61638 44.44671 60.62747
#
# Poissons Ratio (x) = 0.09708 0.19504
# Poissons Ratio (y) = 0.21977 0.62899
# Poissons Ratio (z) = 0.32369 0.46112
#
# Static dielectric constant tensor:
#      x y z
#    x 1.753500 0.000000 0.000000 
#    y 0.000000 1.803610 0.000000 
#    z 0.000000 0.000000 1.649820 
# 
# From -- ./inp_files/28447.got.cif
#   From: 2010.05.17/outbox.cif.g08.bks.cpg/sg43_15_cif.got.tgz:28447.got - 2010.06.03 19:21:55.
