data_PCOD9370337
_publ_section_title
;
Structure prediction by ZEFSAII (Michael W. Deem and Ramdas Pophale) SiO2 
 PCOD9370337
Probable space group: F D D 2
;
_chemical_formula_sum "Si O2"
_cell_formula_units_Z 96
_cell_length_a 26.946801
_cell_length_b 16.578103
_cell_length_c 8.996756
_cell_angle_alpha 90.000000
_cell_angle_beta 90.000000
_cell_angle_gamma 90.000000
_cell_volume 4019.092401
_symmetry_space_group_name_H-M "F D D 2"
_symmetry_group_IT_number 43
_symmetry_cell_setting 'orthorhombic'
loop_
_space_group_symop_operation_xyz
x,y,z
-x,-y,z
1/4-x,1/4+y,1/4+z
1/4+x,1/4-y,1/4+z
x,1/2+y,1/2+z
-x,1/2-y,1/2+z
1/4-x,3/4+y,3/4+z
1/4+x,3/4-y,3/4+z
1/2+x,y,1/2+z
1/2-x,-y,1/2+z
3/4-x,1/4+y,3/4+z
3/4+x,1/4-y,3/4+z
1/2+x,1/2+y,z
1/2-x,1/2-y,z
3/4-x,3/4+y,1/4+z
3/4+x,3/4-y,1/4+z
loop_
_atom_site_type_symbol
_atom_site_label
_atom_site_fract_x
_atom_site_fract_y
_atom_site_fract_z
Si Si1 0.216229 0.892606 0.427900
Si Si2 0.432363 1.000000 0.982472
Si Si3 0.092788 0.293807 0.542296
Si Si4 0.157212 0.956192 0.672648
Si Si5 0.809501 0.500000 0.482472
Si Si6 0.966230 0.142606 0.287044
O O1 0.210688 0.810886 0.339806
O O2 0.270655 0.931108 0.428628
O O3 0.180910 0.958190 0.346202
O O4 0.193959 0.891515 0.595250
O O5 0.395721 0.049065 0.094002
O O6 0.395721 0.950934 0.870943
O O7 0.539312 0.939114 0.875136
O O8 0.090954 0.287442 0.366123
O O9 0.056040 0.358484 0.619693
O O10 0.180910 0.041809 0.618742
O O11 0.159046 0.962558 0.848821
O O12 0.770655 0.568893 0.536318
#
# Coordination Sequence:
#
# PCOD9370337 Si02
#       6
#    16  16  16  16  16  16
#     4   9  17  33  55  84 114 157 205 250 294 372
#     4  10  19  34  57  85 122 158 202 255 312 360
#     4   9  17  33  56  84 113 161 207 243 290 381
#     4   9  17  33  56  84 113 161 207 243 290 381
#     4  10  19  34  60  87 116 160 214 249 300 380
#     4   9  17  33  55  84 114 157 205 250 294 372
#
# _framework density 23.88599
#
# number of rings (size 3 to 8) (size 9 to 14) (size 15 to 20)
#    0.000    3.333    0.000    8.000    0.000    0.000 
#    0.000   10.000    0.000    0.000    0.000   23.333 
#    0.000    0.000    0.000    1.667    0.000    0.000 
#
# Total GULP energy -134177.532225 kJ/mol
# GULP energy per Si atom -5590.730509 kJ/mol
# Density = 2.383162 g / cm^3
# Si number density = 23.885990 Si / 1000 Ang^3
#
#
#
# Elastic Constant Matrix: (Units=GPa)
#
#
# Indices 1 2 3 4 5 6 
#
# 1 79.0670 43.4806 52.8729 0.0000 0.0000 0.0000
# 2 43.4806 97.5065 56.5201 0.0000 0.0000 0.0000
# 3 52.8729 56.5201 191.7468 0.0000 0.0000 0.0000
# 4 0.0000 0.0000 0.0000 43.3279 0.0000 0.0000
# 5 0.0000 0.0000 0.0000 0.0000 24.9273 0.0000
# 6 0.0000 0.0000 0.0000 0.0000 0.0000 14.9226
#
#
#
# Elastic Compliance Matrix: (Units=1/GPa)
#
#
# Indices 1 2 3 4 5 6 
#
# 1 0.018227 -0.006289 -0.003172 0.000000 0.000000 0.000000
# 2 -0.006289 0.014539 -0.002551 0.000000 0.000000 0.000000
# 3 -0.003172 -0.002551 0.006842 0.000000 0.000000 0.000000
# 4 0.000000 0.000000 0.000000 0.023080 0.000000 0.000000
# 5 0.000000 0.000000 0.000000 0.000000 0.040117 0.000000
# 6 0.000000 0.000000 0.000000 0.000000 0.000000 0.067012
#
#
# Mechanical properties :
#
#
# Convention : Reuss Voigt Hill
#
# Bulk Modulus (GPa) = 64.17334 74.89637 69.53486
# Shear Modulus (GPa) = 25.12090 30.99869 28.05980
#
# Velocity S-wave (km/s) = 3.24651 3.60638 3.43116
# Velocity P-wave (km/s) = 6.40140 6.98320 6.69862
#
# Compressibility (1/GPa) = 0.01558279
#
# Stress axis : x y z
#
# Youngs Moduli (GPa) = 54.86245 68.77955 146.15609
#
# Poissons Ratio (x) = 0.43257 0.46364
# Poissons Ratio (y) = 0.34504 0.37291
# Poissons Ratio (z) = 0.17404 0.17549
#
# Static dielectric constant tensor:
#      x y z
#    x 1.966570 0.000000 0.000000 
#    y 0.000000 1.925380 0.000000 
#    z 0.000000 0.000000 1.991890 
# 
# From -- ./inp_files/3799.got.cif
#   From: 2010.05.17/outbox.cif.g08.bks.cpg/sg43_2_cif.got.tgz:3799.got - 2010.06.03 19:21:55.
