data_PCOD9370644
_publ_section_title
;
Structure prediction by ZEFSAII (Michael W. Deem and Ramdas Pophale) SiO2 
 PCOD9370644
Probable space group: F D D 2
;
_chemical_formula_sum "Si O2"
_cell_formula_units_Z 96
_cell_length_a 11.771719
_cell_length_b 21.571348
_cell_length_c 17.624957
_cell_angle_alpha 90.000000
_cell_angle_beta 90.000000
_cell_angle_gamma 90.000000
_cell_volume 4475.537886
_symmetry_space_group_name_H-M "F D D 2"
_symmetry_group_IT_number 43
_symmetry_cell_setting 'orthorhombic'
loop_
_space_group_symop_operation_xyz
x,y,z
-x,-y,z
1/4-x,1/4+y,1/4+z
1/4+x,1/4-y,1/4+z
x,1/2+y,1/2+z
-x,1/2-y,1/2+z
1/4-x,3/4+y,3/4+z
1/4+x,3/4-y,3/4+z
1/2+x,y,1/2+z
1/2-x,-y,1/2+z
3/4-x,1/4+y,3/4+z
3/4+x,1/4-y,3/4+z
1/2+x,1/2+y,z
1/2-x,1/2-y,z
3/4-x,3/4+y,1/4+z
3/4+x,3/4-y,1/4+z
loop_
_atom_site_type_symbol
_atom_site_label
_atom_site_fract_x
_atom_site_fract_y
_atom_site_fract_z
Si Si1 0.603711 0.041555 0.407820
Si Si2 0.418829 0.576163 0.625088
Si Si3 0.322913 0.394823 0.645924
Si Si4 0.163486 0.976322 0.477420
Si Si5 0.660307 0.804194 0.584668
Si Si6 0.946827 0.761006 0.001911
O O1 0.591126 0.112321 0.379617
O O2 0.704230 0.038780 0.468990
O O3 0.500000 0.000000 0.434371
O O4 0.650931 0.009658 0.332399
O O5 0.550450 0.593410 0.612472
O O6 0.373532 0.526219 0.564524
O O7 0.400336 0.548088 0.708023
O O8 0.346735 0.333569 0.695963
O O9 0.226314 0.369523 0.589163
O O10 0.281820 0.450613 0.699410
O O11 0.134595 0.032356 0.419260
O O12 0.750000 0.750000 0.564299
O O13 0.559183 0.799765 0.523679
#
# Coordination Sequence:
#
# PCOD9370644 Si02
#       6
#    16  16  16  16  16  16
#     4  10  21  40  65  90 133 169 208 272 331 381
#     4  11  22  39  68 100 121 168 232 269 313 398
#     4  10  20  37  66  94 122 169 216 270 317 387
#     4   9  20  39  62  97 125 161 218 266 314 391
#     4   9  21  41  60  91 137 171 203 267 335 379
#     4  11  22  40  66  95 129 170 216 271 326 386
#
# _framework density 21.449936000000001
#
# number of rings (size 3 to 8) (size 9 to 14) (size 15 to 20)
#    0.000    2.000    1.667    2.500    2.333    4.000 
#    3.000    2.500    0.000    0.000    0.000    0.000 
#    0.000    0.000    0.000    0.000    0.000    0.000 
#
# Total GULP energy -133848.570021 kJ/mol
# GULP energy per Si atom -5577.023751 kJ/mol
# Density = 2.140111 g / cm^3
# Si number density = 21.449936 Si / 1000 Ang^3
#
#
#
# Elastic Constant Matrix: (Units=GPa)
#
#
# Indices 1 2 3 4 5 6 
#
# 1 100.9625 42.1694 28.9212 0.0000 0.0000 0.0000
# 2 42.1694 63.7085 8.8455 0.0000 0.0000 0.0000
# 3 28.9212 8.8455 68.6494 0.0000 0.0000 0.0000
# 4 0.0000 0.0000 0.0000 18.2629 0.0000 0.0000
# 5 0.0000 0.0000 0.0000 0.0000 16.4329 0.0000
# 6 0.0000 0.0000 0.0000 0.0000 0.0000 37.6857
#
#
#
# Elastic Compliance Matrix: (Units=1/GPa)
#
#
# Indices 1 2 3 4 5 6 
#
# 1 0.015347 -0.009429 -0.005251 0.000000 0.000000 0.000000
# 2 -0.009429 0.021776 0.001167 0.000000 0.000000 0.000000
# 3 -0.005251 0.001167 0.016628 0.000000 0.000000 0.000000
# 4 0.000000 0.000000 0.000000 0.054756 0.000000 0.000000
# 5 0.000000 0.000000 0.000000 0.000000 0.060854 0.000000
# 6 0.000000 0.000000 0.000000 0.000000 0.000000 0.026535
#
#
# Mechanical properties :
#
#
# Convention : Reuss Voigt Hill
#
# Bulk Modulus (GPa) = 37.41835 43.68808 40.55321
# Shear Modulus (GPa) = 21.56739 24.70190 23.13465
#
# Velocity S-wave (km/s) = 3.17436 3.39722 3.28768
# Velocity P-wave (km/s) = 5.56038 5.98329 5.77571
#
# Compressibility (1/GPa) = 0.02672486
#
# Stress axis : x y z
#
# Youngs Moduli (GPa) = 65.15850 45.92212 60.13786
#
# Poissons Ratio (x) = 0.43302 0.31576
# Poissons Ratio (y) = 0.61441 -0.07016
# Poissons Ratio (z) = 0.34212 -0.05358
#
# Static dielectric constant tensor:
#      x y z
#    x 1.846960 0.000000 0.000000 
#    y 0.000000 1.851330 0.000000 
#    z 0.000000 0.000000 1.793340 
# 
# From -- ./inp_files/13316.got.cif
#   From: 2010.05.17/outbox.cif.g08.bks.cpg/sg43_7_cif.got.tgz:13316.got - 2010.06.03 19:21:55.
