data_PCOD9370330
_publ_section_title
;
Structure prediction by ZEFSAII (Michael W. Deem and Ramdas Pophale) SiO2 
 PCOD9370330
Probable space group: F D D 2
;
_chemical_formula_sum "Si O2"
_cell_formula_units_Z 112
_cell_length_a 30.354361
_cell_length_b 12.004197
_cell_length_c 14.494706
_cell_angle_alpha 90.000000
_cell_angle_beta 90.000000
_cell_angle_gamma 90.000000
_cell_volume 5281.577048
_symmetry_space_group_name_H-M "F D D 2"
_symmetry_group_IT_number 43
_symmetry_cell_setting 'orthorhombic'
loop_
_space_group_symop_operation_xyz
x,y,z
-x,-y,z
1/4-x,1/4+y,1/4+z
1/4+x,1/4-y,1/4+z
x,1/2+y,1/2+z
-x,1/2-y,1/2+z
1/4-x,3/4+y,3/4+z
1/4+x,3/4-y,3/4+z
1/2+x,y,1/2+z
1/2-x,-y,1/2+z
3/4-x,1/4+y,3/4+z
3/4+x,1/4-y,3/4+z
1/2+x,1/2+y,z
1/2-x,1/2-y,z
3/4-x,3/4+y,1/4+z
3/4+x,3/4-y,1/4+z
loop_
_atom_site_type_symbol
_atom_site_label
_atom_site_fract_x
_atom_site_fract_y
_atom_site_fract_z
Si Si1 0.813290 0.425043 0.317670
Si Si2 0.625285 0.897979 0.210394
Si Si3 0.495609 0.869317 0.901673
Si Si4 0.339767 0.984265 0.637309
Si Si5 0.755410 0.564704 0.459286
Si Si6 0.561352 0.985144 0.656207
Si Si7 0.799480 0.252097 0.693892
O O1 0.839337 0.332706 0.379513
O O2 0.850941 0.506581 0.272174
O O3 0.779759 0.397125 0.235147
O O4 0.780833 0.482128 0.392956
O O5 0.601870 0.808469 0.281922
O O6 0.665986 0.837637 0.158526
O O7 0.444976 0.830326 0.912690
O O8 0.507024 0.789015 0.814375
O O9 0.500000 0.000000 0.881188
O O10 0.320009 0.873107 0.681609
O O11 0.387411 0.016700 0.674265
O O12 0.711680 0.616814 0.416214
O O13 0.789141 0.669567 0.467378
O O14 0.549441 0.023703 0.552877
O O15 0.750000 0.250000 0.657425
#
# Coordination Sequence:
#
# PCOD9370330 Si02
#       7
#    16  16  16  16  16  16  16
#     4  12  24  47  69 105 142 183 233 286 358 415
#     4  11  21  40  73 101 137 175 226 296 343 408
#     4  12  27  45  65  96 148 189 223 285 359 423
#     4  11  22  36  67 101 127 176 230 285 343 405
#     4  11  19  40  67  98 132 174 221 290 338 405
#     4  10  19  33  64  96 129 156 221 284 338 388
#     4  11  18  33  62 105 129 160 220 294 346 397
#
# _framework density 21.205788999999999
#
# number of rings (size 3 to 8) (size 9 to 14) (size 15 to 20)
#    0.000    0.857    8.571    1.714    2.000    0.000 
#    2.571    2.143    0.000    0.000    0.000    0.000 
#    0.000    0.000    0.000    0.000    0.000    0.000 
#
# Total GULP energy -155869.112217 kJ/mol
# GULP energy per Si atom -5566.754008 kJ/mol
# Density = 2.115752 g / cm^3
# Si number density = 21.205789 Si / 1000 Ang^3
#
#
#
# Elastic Constant Matrix: (Units=GPa)
#
#
# Indices 1 2 3 4 5 6 
#
# 1 140.9073 19.2211 41.3370 0.0000 0.0000 0.0000
# 2 19.2211 32.8046 9.9745 0.0000 0.0000 0.0000
# 3 41.3370 9.9745 96.1576 0.0000 0.0000 0.0000
# 4 0.0000 0.0000 0.0000 11.0369 0.0000 0.0000
# 5 0.0000 0.0000 0.0000 0.0000 33.1478 0.0000
# 6 0.0000 0.0000 0.0000 0.0000 0.0000 13.5912
#
#
#
# Elastic Compliance Matrix: (Units=1/GPa)
#
#
# Indices 1 2 3 4 5 6 
#
# 1 0.008612 -0.004048 -0.003282 0.000000 0.000000 0.000000
# 2 -0.004048 0.033379 -0.001722 0.000000 0.000000 0.000000
# 3 -0.003282 -0.001722 0.011989 0.000000 0.000000 0.000000
# 4 0.000000 0.000000 0.000000 0.090605 0.000000 0.000000
# 5 0.000000 0.000000 0.000000 0.000000 0.030168 0.000000
# 6 0.000000 0.000000 0.000000 0.000000 0.000000 0.073577
#
#
# Mechanical properties :
#
#
# Convention : Reuss Voigt Hill
#
# Bulk Modulus (GPa) = 27.87439 45.65941 36.76690
# Shear Modulus (GPa) = 17.96018 24.84429 21.40223
#
# Velocity S-wave (km/s) = 2.91339 3.42655 3.18034
# Velocity P-wave (km/s) = 4.94878 6.10191 5.55534
#
# Compressibility (1/GPa) = 0.03587523
#
# Stress axis : x y z
#
# Youngs Moduli (GPa) = 116.11777 29.95890 83.40795
#
# Poissons Ratio (x) = 0.12127 0.27377
# Poissons Ratio (y) = 0.47004 0.14365
# Poissons Ratio (z) = 0.38113 0.05160
#
# Static dielectric constant tensor:
#      x y z
#    x 1.826150 0.000000 0.000000 
#    y 0.000000 1.767080 0.000000 
#    z 0.000000 0.000000 1.885870 
# 
# From -- ./inp_files/11718.got.cif
#   From: 2010.05.17/outbox.cif.g08.bks.cpg/sg43_6_cif.got.tgz:11718.got - 2010.06.03 19:21:55.
