data_PCOD9370190
_publ_section_title
;
Structure prediction by ZEFSAII (Michael W. Deem and Ramdas Pophale) SiO2 
 PCOD9370190
Probable space group: F D D 2
;
_chemical_formula_sum "Si O2"
_cell_formula_units_Z 80
_cell_length_a 25.411691
_cell_length_b 12.185210
_cell_length_c 10.507525
_cell_angle_alpha 90.000000
_cell_angle_beta 90.000000
_cell_angle_gamma 90.000000
_cell_volume 3253.621401
_symmetry_space_group_name_H-M "F D D 2"
_symmetry_group_IT_number 43
_symmetry_cell_setting 'orthorhombic'
loop_
_space_group_symop_operation_xyz
x,y,z
-x,-y,z
1/4-x,1/4+y,1/4+z
1/4+x,1/4-y,1/4+z
x,1/2+y,1/2+z
-x,1/2-y,1/2+z
1/4-x,3/4+y,3/4+z
1/4+x,3/4-y,3/4+z
1/2+x,y,1/2+z
1/2-x,-y,1/2+z
3/4-x,1/4+y,3/4+z
3/4+x,1/4-y,3/4+z
1/2+x,1/2+y,z
1/2-x,1/2-y,z
3/4-x,3/4+y,1/4+z
3/4+x,3/4-y,1/4+z
loop_
_atom_site_type_symbol
_atom_site_label
_atom_site_fract_x
_atom_site_fract_y
_atom_site_fract_z
Si Si1 0.800395 0.289726 0.379170
Si Si2 0.161251 0.666248 0.792874
Si Si3 0.239780 0.555928 0.607390
Si Si4 0.948580 0.430047 0.776540
Si Si5 0.599209 0.097034 0.326073
O O1 0.750000 0.250000 0.306794
O O2 0.778749 0.355969 0.501327
O O3 0.830479 0.188013 0.438222
O O4 0.843318 0.356947 0.308318
O O5 0.207166 0.587923 0.735067
O O6 0.110228 0.595423 0.835087
O O7 0.181208 0.753464 0.897623
O O8 0.145264 0.744508 0.673180
O O9 0.223338 0.441861 0.544286
O O10 0.302105 0.575584 0.628062
O O11 0.000000 0.500000 0.811831
#
# Coordination Sequence:
#
# PCOD9370190 Si02
#       5
#    16  16  16  16  16
#     4   9  18  32  57  90 125 167 223 270 343 412
#     4  11  20  39  67  99 134 186 232 284 369 417
#     4  10  21  37  62 101 134 170 235 294 344 430
#     4  12  23  38  66 102 135 182 241 290 348 436
#     4  10  18  34  62  94 127 173 226 284 337 423
#
# _framework density 24.587985
#
# number of rings (size 3 to 8) (size 9 to 14) (size 15 to 20)
#    0.000    1.600    4.000    4.200    0.000    0.000 
#    0.000    4.000    0.000    0.000    0.000    0.000 
#    0.000    0.000    0.000    0.000    0.000    0.000 
#
# Total GULP energy -111501.474633 kJ/mol
# GULP energy per Si atom -5575.073732 kJ/mol
# Density = 2.453202 g / cm^3
# Si number density = 24.587985 Si / 1000 Ang^3
#
#
#
# Elastic Constant Matrix: (Units=GPa)
#
#
# Indices 1 2 3 4 5 6 
#
# 1 163.4413 65.5070 28.2549 0.0000 0.0000 0.0000
# 2 65.5070 116.6237 36.4902 0.0000 0.0000 0.0000
# 3 28.2549 36.4902 71.7655 0.0000 0.0000 0.0000
# 4 0.0000 0.0000 0.0000 2.9930 0.0000 0.0000
# 5 0.0000 0.0000 0.0000 0.0000 -54.7440 0.0000
# 6 0.0000 0.0000 0.0000 0.0000 0.0000 56.2367
#
#
#
# Elastic Compliance Matrix: (Units=1/GPa)
#
#
# Indices 1 2 3 4 5 6 
#
# 1 0.007959 -0.004150 -0.001023 0.000000 0.000000 0.000000
# 2 -0.004150 0.012361 -0.004651 0.000000 0.000000 0.000000
# 3 -0.001023 -0.004651 0.016702 0.000000 0.000000 0.000000
# 4 0.000000 0.000000 0.000000 0.334114 0.000000 0.000000
# 5 0.000000 0.000000 0.000000 0.000000 -0.018267 0.000000
# 6 0.000000 0.000000 0.000000 0.000000 0.000000 0.017782
#
#
# Mechanical properties :
#
#
# Convention : Reuss Voigt Hill
#
# Bulk Modulus (GPa) = 57.56171 68.03717 62.79944
# Shear Modulus (GPa) = 12.62337 15.66906 14.14622
#
# Velocity S-wave (km/s) = 2.26828 2.52715 2.40121
# Velocity P-wave (km/s) = 5.50649 6.02049 5.76922
#
# Compressibility (1/GPa) = 0.01737266
#
# Stress axis : x y z
#
# Youngs Moduli (GPa) = 125.64895 80.89943 59.87287
#
# Poissons Ratio (x) = 0.33575 0.06126
# Poissons Ratio (y) = 0.52147 0.27848
# Poissons Ratio (z) = 0.12856 0.37628
#
# Static dielectric constant tensor:
#      x y z
#    x 2.007780 0.000000 0.000000 
#    y 0.000000 2.169960 0.000000 
#    z 0.000000 0.000000 1.952020 
# 
# From -- ./inp_files/9626.got.cif
#   From: 2010.05.17/outbox.cif.g08.bks.cpg/sg43_5_cif.got.tgz:9626.got - 2010.06.03 19:21:55.
