data_PCOD9370112
_publ_section_title
;
Structure prediction by ZEFSAII (Michael W. Deem and Ramdas Pophale) SiO2 
 PCOD9370112
Probable space group: F D D 2
;
_chemical_formula_sum "Si O2"
_cell_formula_units_Z 72
_cell_length_a 17.897665
_cell_length_b 21.201694
_cell_length_c 7.099801
_cell_angle_alpha 90.000000
_cell_angle_beta 90.000000
_cell_angle_gamma 90.000000
_cell_volume 2694.096285
_symmetry_space_group_name_H-M "F D D 2"
_symmetry_group_IT_number 43
_symmetry_cell_setting 'orthorhombic'
loop_
_space_group_symop_operation_xyz
x,y,z
-x,-y,z
1/4-x,1/4+y,1/4+z
1/4+x,1/4-y,1/4+z
x,1/2+y,1/2+z
-x,1/2-y,1/2+z
1/4-x,3/4+y,3/4+z
1/4+x,3/4-y,3/4+z
1/2+x,y,1/2+z
1/2-x,-y,1/2+z
3/4-x,1/4+y,3/4+z
3/4+x,1/4-y,3/4+z
1/2+x,1/2+y,z
1/2-x,1/2-y,z
3/4-x,3/4+y,1/4+z
3/4+x,3/4-y,1/4+z
loop_
_atom_site_type_symbol
_atom_site_label
_atom_site_fract_x
_atom_site_fract_y
_atom_site_fract_z
Si Si1 0.750000 0.250000 0.386291
Si Si2 0.910339 0.233312 0.374397
Si Si3 0.236243 0.137322 0.618702
Si Si4 0.814517 0.949004 0.182630
Si Si5 0.139312 0.683561 0.771299
O O1 0.833488 0.259887 0.464555
O O2 0.737208 0.312355 0.267383
O O3 0.931207 0.164914 0.454250
O O4 0.912139 0.219796 0.147651
O O5 0.977990 0.281196 0.410622
O O6 0.193410 0.174052 0.454766
O O7 0.307387 0.098496 0.549177
O O8 0.823644 0.874462 0.151089
O O9 0.865184 0.992923 0.050181
#
# Coordination Sequence:
#
# PCOD9370112 Si02
#       5
#     8  16  16  16  16
#     4  12  18  36  62  92 122 186 222 270 336 428
#     4  10  22  35  66  94 128 171 231 281 330 414
#     4  10  17  31  57  91 114 162 227 257 315 402
#     4  10  20  37  63  96 131 169 230 282 335 405
#     4  10  18  33  61  92 124 169 221 277 322 417
#
# _framework density 26.725100999999999
#
# number of rings (size 3 to 8) (size 9 to 14) (size 15 to 20)
#    0.000    1.778    6.667    0.000    0.000    0.000 
#    0.000    0.000   44.000    1.333    0.000    0.000 
#    0.000    0.000    0.000    0.000    0.000    0.000 
#
# Total GULP energy -100464.181443 kJ/mol
# GULP energy per Si atom -5581.343414 kJ/mol
# Density = 2.666427 g / cm^3
# Si number density = 26.725101 Si / 1000 Ang^3
#
#
#
# Elastic Constant Matrix: (Units=GPa)
#
#
# Indices 1 2 3 4 5 6 
#
# 1 134.1521 -4.6498 10.7975 0.0057 -0.0009 -0.0002
# 2 -4.6498 156.7311 23.1453 0.0070 -0.0008 -0.0001
# 3 10.7975 23.1453 73.6980 -0.0016 -0.0001 -0.0004
# 4 0.0057 0.0070 -0.0016 1903.9966 0.0419 0.0024
# 5 -0.0009 -0.0008 -0.0001 0.0419 117.8094 -0.0005
# 6 -0.0002 -0.0001 -0.0004 0.0024 -0.0005 44.2699
#
#
#
# Elastic Compliance Matrix: (Units=1/GPa)
#
#
# Indices 1 2 3 4 5 6 
#
# 1 0.007568 0.000407 -0.001237 0.000000 0.000000 0.000000
# 2 0.000407 0.006713 -0.002168 0.000000 0.000000 0.000000
# 3 -0.001237 -0.002168 0.014431 0.000000 0.000000 0.000000
# 4 0.000000 0.000000 0.000000 0.000525 0.000000 0.000000
# 5 0.000000 0.000000 0.000000 0.000000 0.008488 0.000000
# 6 0.000000 0.000000 0.000000 0.000000 0.000000 0.022589
#
#
# Mechanical properties :
#
#
# Convention : Reuss Voigt Hill
#
# Bulk Modulus (GPa) = 44.02036 47.01860 45.51948
# Shear Modulus (GPa) = 67.67704 435.56771 251.62237
#
# Velocity S-wave (km/s) = 5.03770 12.78024 9.71373
# Velocity P-wave (km/s) = 7.09543 15.34311 11.95316
#
# Compressibility (1/GPa) = 0.02271676
#
# Stress axis : x y z
#
# Youngs Moduli (GPa) = 132.13762 148.97449 69.29589
#
# Poissons Ratio (x) = -0.06065 0.08569
# Poissons Ratio (y) = -0.05380 0.15022
# Poissons Ratio (z) = 0.16341 0.32294
#
# Static dielectric constant tensor:
#      x y z
#    x 1.763120 -0.000080 0.000000 
#    y -0.000080 -0.756670 -0.000010 
#    z 0.000000 -0.000010 2.262150 
# 
# From -- ./inp_files/2677.got.cif
#   From: 2010.05.17/outbox.cif.g08.bks.cpg/sg43_2_cif.got.tgz:2677.got - 2010.06.03 19:21:55.
