data_PCOD9370261
_publ_section_title
;
Structure prediction by ZEFSAII (Michael W. Deem and Ramdas Pophale) SiO2 
 PCOD9370261
Probable space group: F D D 2
;
_chemical_formula_sum "Si O2"
_cell_formula_units_Z 104
_cell_length_a 8.710017
_cell_length_b 19.210637
_cell_length_c 30.088246
_cell_angle_alpha 90.000000
_cell_angle_beta 90.000000
_cell_angle_gamma 90.000000
_cell_volume 5034.515005
_symmetry_space_group_name_H-M "F D D 2"
_symmetry_group_IT_number 43
_symmetry_cell_setting 'orthorhombic'
loop_
_space_group_symop_operation_xyz
x,y,z
-x,-y,z
1/4-x,1/4+y,1/4+z
1/4+x,1/4-y,1/4+z
x,1/2+y,1/2+z
-x,1/2-y,1/2+z
1/4-x,3/4+y,3/4+z
1/4+x,3/4-y,3/4+z
1/2+x,y,1/2+z
1/2-x,-y,1/2+z
3/4-x,1/4+y,3/4+z
3/4+x,1/4-y,3/4+z
1/2+x,1/2+y,z
1/2-x,1/2-y,z
3/4-x,3/4+y,1/4+z
3/4+x,3/4-y,1/4+z
loop_
_atom_site_type_symbol
_atom_site_label
_atom_site_fract_x
_atom_site_fract_y
_atom_site_fract_z
Si Si1 0.296339 0.587784 0.698420
Si Si2 0.301434 0.625653 0.796960
Si Si3 0.374099 0.160031 0.898752
Si Si4 0.500000 0.500000 0.791177
Si Si5 0.283091 0.831682 0.065865
Si Si6 0.838169 0.964607 0.121137
Si Si7 0.503600 0.683852 0.484569
O O1 0.300112 0.632276 0.743333
O O2 0.463732 0.582144 0.675138
O O3 0.188373 0.598784 0.655904
O O4 0.231154 0.513763 0.717422
O O5 0.373531 0.550618 0.811615
O O6 0.396872 0.684551 0.821905
O O7 0.126596 0.623532 0.813910
O O8 0.368750 0.107827 0.857754
O O9 0.450010 0.230320 0.878129
O O10 0.486366 0.139906 0.939752
O O11 0.596297 0.556013 0.762303
O O12 0.250000 0.750000 0.070327
O O13 0.369797 0.839947 0.019014
O O14 0.000000 0.000000 0.131962
#
# Coordination Sequence:
#
# PCOD9370261 Si02
#       7
#    16  16  16   8  16  16  16
#     4  10  22  39  68  92 124 173 226 262 315 394
#     4  11  23  40  63 100 127 168 221 275 324 382
#     4  11  23  42  62 100 129 167 228 273 322 391
#     4  10  18  38  66  88 118 168 222 252 320 390
#     4  12  24  38  66  96 133 170 223 269 334 385
#     4  11  23  40  66  95 131 169 220 273 322 392
#     4  10  19  39  65  87 123 168 219 266 306 392
#
# _framework density 20.657401
#
# number of rings (size 3 to 8) (size 9 to 14) (size 15 to 20)
#    0.000    1.231    7.692    1.385    6.462    0.000 
#    0.000    1.538    5.077    0.000    0.000    0.000 
#    0.000    0.000    0.000    0.000    0.000    0.000 
#
# Total GULP energy -144736.578559 kJ/mol
# GULP energy per Si atom -5566.791483 kJ/mol
# Density = 2.061038 g / cm^3
# Si number density = 20.657401 Si / 1000 Ang^3
#
#
#
# Elastic Constant Matrix: (Units=GPa)
#
#
# Indices 1 2 3 4 5 6 
#
# 1 62.5117 13.7696 35.6923 0.0000 0.0000 0.0000
# 2 13.7696 23.2470 37.7331 0.0000 0.0000 0.0000
# 3 35.6923 37.7331 151.5259 0.0000 0.0000 0.0000
# 4 0.0000 0.0000 0.0000 41.2363 0.0000 0.0000
# 5 0.0000 0.0000 0.0000 0.0000 30.4977 0.0000
# 6 0.0000 0.0000 0.0000 0.0000 0.0000 17.0171
#
#
#
# Elastic Compliance Matrix: (Units=1/GPa)
#
#
# Indices 1 2 3 4 5 6 
#
# 1 0.019090 -0.006728 -0.002821 0.000000 0.000000 0.000000
# 2 -0.006728 0.074570 -0.016985 0.000000 0.000000 0.000000
# 3 -0.002821 -0.016985 0.011494 0.000000 0.000000 0.000000
# 4 0.000000 0.000000 0.000000 0.024250 0.000000 0.000000
# 5 0.000000 0.000000 0.000000 0.000000 0.032789 0.000000
# 6 0.000000 0.000000 0.000000 0.000000 0.000000 0.058764
#
#
# Mechanical properties :
#
#
# Convention : Reuss Voigt Hill
#
# Bulk Modulus (GPa) = 19.19918 45.74164 32.47041
# Shear Modulus (GPa) = 17.15930 27.75621 22.45775
#
# Velocity S-wave (km/s) = 2.88525 3.66955 3.30078
# Velocity P-wave (km/s) = 4.51816 6.33602 5.50268
#
# Compressibility (1/GPa) = 0.05208555
#
# Stress axis : x y z
#
# Youngs Moduli (GPa) = 52.38391 13.41024 87.00477
#
# Poissons Ratio (x) = 0.09022 0.24546
# Poissons Ratio (y) = 0.35244 1.47775
# Poissons Ratio (z) = 0.14779 0.22777
#
# Static dielectric constant tensor:
#      x y z
#    x 1.811760 0.000000 0.000000 
#    y 0.000000 1.787850 0.000000 
#    z 0.000000 0.000000 1.796330 
# 
# From -- ./inp_files/24420.got.cif
#   From: 2010.05.17/outbox.cif.g08.bks.cpg/sg43_13_cif.got.tgz:24420.got - 2010.06.03 19:21:55.
