data_PCOD9370830
_publ_section_title
;
Structure prediction by ZEFSAII (Michael W. Deem and Ramdas Pophale) SiO2 
 PCOD9370830
Probable space group: F D D 2
;
_chemical_formula_sum "Si O2"
_cell_formula_units_Z 88
_cell_length_a 4.883321
_cell_length_b 24.805169
_cell_length_c 30.593463
_cell_angle_alpha 90.000000
_cell_angle_beta 90.000000
_cell_angle_gamma 90.000000
_cell_volume 3705.835205
_symmetry_space_group_name_H-M "F D D 2"
_symmetry_group_IT_number 43
_symmetry_cell_setting 'orthorhombic'
loop_
_space_group_symop_operation_xyz
x,y,z
-x,-y,z
1/4-x,1/4+y,1/4+z
1/4+x,1/4-y,1/4+z
x,1/2+y,1/2+z
-x,1/2-y,1/2+z
1/4-x,3/4+y,3/4+z
1/4+x,3/4-y,3/4+z
1/2+x,y,1/2+z
1/2-x,-y,1/2+z
3/4-x,1/4+y,3/4+z
3/4+x,1/4-y,3/4+z
1/2+x,1/2+y,z
1/2-x,1/2-y,z
3/4-x,3/4+y,1/4+z
3/4+x,3/4-y,1/4+z
loop_
_atom_site_type_symbol
_atom_site_label
_atom_site_fract_x
_atom_site_fract_y
_atom_site_fract_z
Si Si1 0.587817 0.851620 0.750000
Si Si2 0.581327 0.909499 0.360605
Si Si3 0.400420 0.052483 0.080640
Si Si4 0.750000 0.250000 0.760385
Si Si5 0.489204 0.714496 0.529368
Si Si6 0.162001 0.689163 0.165577
O O1 0.634363 0.835731 0.801144
O O2 0.369735 0.804014 0.737952
O O3 0.602082 0.916500 0.753643
O O4 0.801765 0.841675 0.711003
O O5 0.519990 0.846069 0.356765
O O6 0.457404 0.937302 0.316831
O O7 0.889197 0.917930 0.376758
O O8 0.391180 0.934307 0.397844
O O9 0.500000 0.000000 0.106811
O O10 0.226759 0.025151 0.042020
O O11 0.750000 0.750000 0.545779
O O12 0.250000 0.750000 0.505481
O O13 0.250000 0.750000 0.173334
#
# Coordination Sequence:
#
# PCOD9370830 Si02
#       6
#    16  16  16   8  16  16
#     4  10  25  40  68  94 129 171 221 277 330 389
#     4  11  25  40  65  95 131 169 211 264 334 391
#     4   9  21  40  65  92 121 169 220 270 313 383
#     4  10  20  40  68  94 122 164 230 274 324 376
#     4  11  24  44  68  94 130 176 226 267 323 406
#     4  12  25  42  62  97 131 166 209 271 338 393
#
# _framework density 23.746331000000001
#
# number of rings (size 3 to 8) (size 9 to 14) (size 15 to 20)
#    0.000    1.455    0.000    4.909   17.818    0.000 
#    0.000    2.727    0.000    0.000    0.000    0.000 
#    0.000    0.000    0.000    0.000    0.000    0.000 
#
# Total GULP energy -122523.447730 kJ/mol
# GULP energy per Si atom -5569.247624 kJ/mol
# Density = 2.369228 g / cm^3
# Si number density = 23.746331 Si / 1000 Ang^3
#
#
#
# Elastic Constant Matrix: (Units=GPa)
#
#
# Indices 1 2 3 4 5 6 
#
# 1 88.0491 24.8486 1.1934 0.0000 0.0000 0.0000
# 2 24.8486 163.1172 25.7616 0.0000 0.0000 0.0000
# 3 1.1934 25.7616 48.5553 0.0000 0.0000 0.0000
# 4 0.0000 0.0000 0.0000 -1.9522 0.0000 0.0000
# 5 0.0000 0.0000 0.0000 0.0000 10.0810 0.0000
# 6 0.0000 0.0000 0.0000 0.0000 0.0000 33.6302
#
#
#
# Elastic Compliance Matrix: (Units=1/GPa)
#
#
# Indices 1 2 3 4 5 6 
#
# 1 0.011891 -0.001927 0.000730 0.000000 0.000000 0.000000
# 2 -0.001927 0.007003 -0.003668 0.000000 0.000000 0.000000
# 3 0.000730 -0.003668 0.022523 0.000000 0.000000 0.000000
# 4 0.000000 0.000000 0.000000 -0.512245 0.000000 0.000000
# 5 0.000000 0.000000 0.000000 0.000000 0.099196 0.000000
# 6 0.000000 0.000000 0.000000 0.000000 0.000000 0.029735
#
#
# Mechanical properties :
#
#
# Convention : Reuss Voigt Hill
#
# Bulk Modulus (GPa) = 31.55797 44.81433 38.18615
# Shear Modulus (GPa) = -15.54711 24.87968 4.66628
#
# Velocity S-wave (km/s) = -2.56152 3.24037 1.40332
# Velocity P-wave (km/s) = 2.13775 5.73699 4.32915
#
# Compressibility (1/GPa) = 0.03168772
#
# Stress axis : x y z
#
# Youngs Moduli (GPa) = 84.09617 142.78708 44.39820
#
# Poissons Ratio (x) = 0.27511 -0.03241
# Poissons Ratio (y) = 0.16203 0.16287
# Poissons Ratio (z) = -0.06139 0.52380
#
# Static dielectric constant tensor:
#      x y z
#    x 2.032790 0.000000 0.000000 
#    y 0.000000 1.768940 0.000000 
#    z 0.000000 0.000000 1.871510 
# 
# From -- ./inp_files/27249.got.cif
#   From: 2010.05.17/outbox.cif.g08.bks.cpg/sg43_14_cif.got.tgz:27249.got - 2010.06.03 19:21:55.
