data_PCOD9370131
_publ_section_title
;
Structure prediction by ZEFSAII (Michael W. Deem and Ramdas Pophale) SiO2 
 PCOD9370131
Probable space group: F D D 2
;
_chemical_formula_sum "Si O2"
_cell_formula_units_Z 104
_cell_length_a 26.063588
_cell_length_b 7.179490
_cell_length_c 23.471484
_cell_angle_alpha 90.000000
_cell_angle_beta 90.000000
_cell_angle_gamma 90.000000
_cell_volume 4392.060824
_symmetry_space_group_name_H-M "F D D 2"
_symmetry_group_IT_number 43
_symmetry_cell_setting 'orthorhombic'
loop_
_space_group_symop_operation_xyz
x,y,z
-x,-y,z
1/4-x,1/4+y,1/4+z
1/4+x,1/4-y,1/4+z
x,1/2+y,1/2+z
-x,1/2-y,1/2+z
1/4-x,3/4+y,3/4+z
1/4+x,3/4-y,3/4+z
1/2+x,y,1/2+z
1/2-x,-y,1/2+z
3/4-x,1/4+y,3/4+z
3/4+x,1/4-y,3/4+z
1/2+x,1/2+y,z
1/2-x,1/2-y,z
3/4-x,3/4+y,1/4+z
3/4+x,3/4-y,1/4+z
loop_
_atom_site_type_symbol
_atom_site_label
_atom_site_fract_x
_atom_site_fract_y
_atom_site_fract_z
Si Si1 0.796591 0.613611 0.994850
Si Si2 0.360793 0.158412 0.565156
Si Si3 0.692964 0.280669 0.291527
Si Si4 0.793862 0.036942 0.628421
Si Si5 0.308385 0.597988 0.163343
Si Si6 0.353945 0.578043 0.735774
Si Si7 0.250000 0.250000 0.505182
O O1 0.750000 0.750000 0.988917
O O2 0.846028 0.708078 0.968836
O O3 0.776196 0.417825 0.971776
O O4 0.805472 0.585430 0.063283
O O5 0.397181 0.342912 0.568408
O O6 0.359428 0.061449 0.627478
O O7 0.300784 0.180350 0.541175
O O8 0.383448 0.010653 0.521086
O O9 0.750000 0.250000 0.317602
O O10 0.697976 0.387290 0.230437
O O11 0.675697 0.072046 0.274846
O O12 0.733292 0.043949 0.638779
O O13 0.802298 0.816505 0.643816
O O14 0.825149 0.132725 0.678260
#
# Coordination Sequence:
#
# PCOD9370131 Si02
#       7
#    16  16  16  16  16  16   8
#     4  12  21  37  66  95 130 166 219 275 334 392
#     4  12  23  38  66  99 131 172 225 275 335 396
#     4  11  23  42  65  94 137 173 215 278 339 394
#     4  10  18  36  61  93 127 162 220 276 319 391
#     4  10  17  39  64  90 128 171 220 268 328 395
#     4  11  23  36  59 102 129 166 221 273 333 397
#     4  12  20  38  64  96 124 168 216 272 324 382
#
# _framework density 23.679089999999999
#
# number of rings (size 3 to 8) (size 9 to 14) (size 15 to 20)
#    0.000    0.923    9.231    0.000    0.000    3.077 
#    0.000    0.000    0.000   15.692    0.000    0.000 
#    0.000    0.000    0.000    0.000    0.000    0.000 
#
# Total GULP energy -144943.712857 kJ/mol
# GULP energy per Si atom -5574.758187 kJ/mol
# Density = 2.362520 g / cm^3
# Si number density = 23.679090 Si / 1000 Ang^3
#
#
#
# Elastic Constant Matrix: (Units=GPa)
#
#
# Indices 1 2 3 4 5 6 
#
# 1 143.6180 43.3557 16.4798 0.0000 0.0000 -0.0001
# 2 43.3557 92.3447 5.8384 0.0002 0.0001 -0.0002
# 3 16.4798 5.8384 40.8886 0.0001 0.0000 0.0000
# 4 0.0000 0.0002 0.0001 21.9509 0.0000 -0.0001
# 5 0.0000 0.0001 0.0000 0.0000 28.9627 0.0000
# 6 -0.0001 -0.0002 0.0000 -0.0001 0.0000 52.1375
#
#
#
# Elastic Compliance Matrix: (Units=1/GPa)
#
#
# Indices 1 2 3 4 5 6 
#
# 1 0.008431 -0.003778 -0.002859 0.000000 0.000000 0.000000
# 2 -0.003778 0.012620 -0.000279 0.000000 0.000000 0.000000
# 3 -0.002859 -0.000279 0.025649 0.000000 0.000000 0.000000
# 4 0.000000 0.000000 0.000000 0.045556 0.000000 0.000000
# 5 0.000000 0.000000 0.000000 0.000000 0.034527 0.000000
# 6 0.000000 0.000000 0.000000 0.000000 0.000000 0.019180
#
#
# Mechanical properties :
#
#
# Convention : Reuss Voigt Hill
#
# Bulk Modulus (GPa) = 30.42426 45.35547 37.88987
# Shear Modulus (GPa) = 29.28223 34.68872 31.98547
#
# Velocity S-wave (km/s) = 3.52039 3.83162 3.67930
# Velocity P-wave (km/s) = 5.42224 6.22663 5.83830
#
# Compressibility (1/GPa) = 0.03286851
#
# Stress axis : x y z
#
# Youngs Moduli (GPa) = 118.60422 79.23722 38.98819
#
# Poissons Ratio (x) = 0.29934 0.11146
# Poissons Ratio (y) = 0.44806 0.01089
# Poissons Ratio (z) = 0.33906 0.02214
#
# Static dielectric constant tensor:
#      x y z
#    x 2.042190 0.000000 0.000000 
#    y 0.000000 2.057010 0.000000 
#    z 0.000000 0.000000 1.978930 
# 
# From -- ./inp_files/29856.got.cif
#   From: 2010.05.17/outbox.cif.g08.bks.cpg/sg43_15_cif.got.tgz:29856.got - 2010.06.03 19:21:55.
