data_PCOD9370675
_publ_section_title
;
Structure prediction by ZEFSAII (Michael W. Deem and Ramdas Pophale) SiO2 
 PCOD9370675
Probable space group: F D D 2
;
_chemical_formula_sum "Si O2"
_cell_formula_units_Z 80
_cell_length_a 17.267488
_cell_length_b 12.482943
_cell_length_c 14.820744
_cell_angle_alpha 90.000000
_cell_angle_beta 90.000000
_cell_angle_gamma 90.000000
_cell_volume 3194.597563
_symmetry_space_group_name_H-M "F D D 2"
_symmetry_group_IT_number 43
_symmetry_cell_setting 'orthorhombic'
loop_
_space_group_symop_operation_xyz
x,y,z
-x,-y,z
1/4-x,1/4+y,1/4+z
1/4+x,1/4-y,1/4+z
x,1/2+y,1/2+z
-x,1/2-y,1/2+z
1/4-x,3/4+y,3/4+z
1/4+x,3/4-y,3/4+z
1/2+x,y,1/2+z
1/2-x,-y,1/2+z
3/4-x,1/4+y,3/4+z
3/4+x,1/4-y,3/4+z
1/2+x,1/2+y,z
1/2-x,1/2-y,z
3/4-x,3/4+y,1/4+z
3/4+x,3/4-y,1/4+z
loop_
_atom_site_type_symbol
_atom_site_label
_atom_site_fract_x
_atom_site_fract_y
_atom_site_fract_z
Si Si1 0.985999 0.142629 0.810270
Si Si2 0.627012 0.743607 0.447720
Si Si3 0.471367 0.174790 0.023968
Si Si4 0.006913 0.168345 0.183690
Si Si5 0.622245 0.444048 0.653831
O O1 0.923012 0.197047 0.873191
O O2 0.020958 0.237091 0.748290
O O3 0.935880 0.075700 0.738156
O O4 0.057345 0.110194 0.876473
O O5 0.563080 0.683108 0.507597
O O6 0.681427 0.840498 0.483701
O O7 0.686196 0.657495 0.408090
O O8 0.458929 0.271994 0.096317
O O9 0.434614 0.071313 0.069850
O O10 0.421860 0.203525 0.934866
#
# Coordination Sequence:
#
# PCOD9370675 Si02
#       5
#    16  16  16  16  16
#     4  10  21  41  62  95 128 169 217 266 333 394
#     4  10  20  38  62  90 121 170 212 270 313 397
#     4  10  21  41  62  95 128 169 217 266 333 394
#     4  10  20  38  62  90 121 170 212 270 313 397
#     4  10  22  42  64  96 132 170 218 274 322 398
#
# _framework density 25.042278
#
# number of rings (size 3 to 8) (size 9 to 14) (size 15 to 20)
#    0.000    2.000    2.000    1.200    0.000    0.800 
#   25.200    0.000    0.000    0.000    0.000    0.000 
#    0.000    0.000    0.000    0.000    0.000    0.000 
#
# Total GULP energy -111485.688067 kJ/mol
# GULP energy per Si atom -5574.284403 kJ/mol
# Density = 2.498528 g / cm^3
# Si number density = 25.042278 Si / 1000 Ang^3
#
#
#
# Elastic Constant Matrix: (Units=GPa)
#
#
# Indices 1 2 3 4 5 6 
#
# 1 183.8388 48.2222 40.4901 0.0000 0.0000 0.0000
# 2 48.2222 51.1710 6.1577 0.0000 0.0000 0.0000
# 3 40.4901 6.1577 65.0841 0.0000 0.0000 0.0000
# 4 0.0000 0.0000 0.0000 24.6036 0.0000 0.0000
# 5 0.0000 0.0000 0.0000 0.0000 52.1301 0.0000
# 6 0.0000 0.0000 0.0000 0.0000 0.0000 42.7096
#
#
#
# Elastic Compliance Matrix: (Units=1/GPa)
#
#
# Indices 1 2 3 4 5 6 
#
# 1 0.008355 -0.007331 -0.004504 0.000000 0.000000 0.000000
# 2 -0.007331 0.026200 0.002082 0.000000 0.000000 0.000000
# 3 -0.004504 0.002082 0.017970 0.000000 0.000000 0.000000
# 4 0.000000 0.000000 0.000000 0.040644 0.000000 0.000000
# 5 0.000000 0.000000 0.000000 0.000000 0.019183 0.000000
# 6 0.000000 0.000000 0.000000 0.000000 0.000000 0.023414
#
#
# Mechanical properties :
#
#
# Convention : Reuss Voigt Hill
#
# Bulk Modulus (GPa) = 30.28597 54.42601 42.35599
# Shear Modulus (GPa) = 30.07008 37.57024 33.82016
#
# Velocity S-wave (km/s) = 3.46898 3.87754 3.67893
# Velocity P-wave (km/s) = 5.30709 6.46745 5.91579
#
# Compressibility (1/GPa) = 0.03301859
#
# Stress axis : x y z
#
# Youngs Moduli (GPa) = 119.69550 38.16730 55.64912
#
# Poissons Ratio (x) = 0.27981 0.25064
# Poissons Ratio (y) = 0.87750 -0.11586
# Poissons Ratio (z) = 0.53910 -0.07946
#
# Static dielectric constant tensor:
#      x y z
#    x 1.979410 0.000000 0.000000 
#    y 0.000000 2.076470 0.000000 
#    z 0.000000 0.000000 2.014630 
# 
# From -- ./inp_files/10552.got.cif
#   From: 2010.05.17/outbox.cif.g08.bks.cpg/sg43_6_cif.got.tgz:10552.got - 2010.06.03 19:21:55.
