data_PCOD9370502
_publ_section_title
;
Structure prediction by ZEFSAII (Michael W. Deem and Ramdas Pophale) SiO2 
 PCOD9370502
Probable space group: F D D 2
;
_chemical_formula_sum "Si O2"
_cell_formula_units_Z 104
_cell_length_a 17.633985
_cell_length_b 29.559948
_cell_length_c 9.504016
_cell_angle_alpha 90.000000
_cell_angle_beta 90.000000
_cell_angle_gamma 90.000000
_cell_volume 4954.060335
_symmetry_space_group_name_H-M "F D D 2"
_symmetry_group_IT_number 43
_symmetry_cell_setting 'orthorhombic'
loop_
_space_group_symop_operation_xyz
x,y,z
-x,-y,z
1/4-x,1/4+y,1/4+z
1/4+x,1/4-y,1/4+z
x,1/2+y,1/2+z
-x,1/2-y,1/2+z
1/4-x,3/4+y,3/4+z
1/4+x,3/4-y,3/4+z
1/2+x,y,1/2+z
1/2-x,-y,1/2+z
3/4-x,1/4+y,3/4+z
3/4+x,1/4-y,3/4+z
1/2+x,1/2+y,z
1/2-x,1/2-y,z
3/4-x,3/4+y,1/4+z
3/4+x,3/4-y,1/4+z
loop_
_atom_site_type_symbol
_atom_site_label
_atom_site_fract_x
_atom_site_fract_y
_atom_site_fract_z
Si Si1 0.879021 0.854205 0.641500
Si Si2 0.871659 0.182722 0.614800
Si Si3 0.690816 0.071223 0.947712
Si Si4 0.000000 0.000000 0.783669
Si Si5 0.980788 0.796048 0.452710
Si Si6 0.380473 0.521005 0.548336
Si Si7 0.538418 0.801321 0.393472
O O1 0.892570 0.886582 0.776908
O O2 0.836621 0.885020 0.529757
O O3 0.949085 0.835133 0.551494
O O4 0.837530 0.808711 0.691601
O O5 0.795056 0.211875 0.619064
O O6 0.909966 0.180093 0.767878
O O7 0.934671 0.209248 0.518550
O O8 0.707260 0.079815 0.785637
O O9 0.764748 0.057794 0.038354
O O10 0.633981 0.028735 0.981448
O O11 0.063203 0.979625 0.679120
O O12 0.938175 0.748533 0.452157
O O13 0.296756 0.541246 0.586918
#
# Coordination Sequence:
#
# PCOD9370502 Si02
#       7
#    16  16  16   8  16  16  16
#     4  11  22  42  69 105 133 188 238 296 344 432
#     4  11  24  40  72 103 142 176 243 293 360 432
#     4  10  22  39  70 104 129 182 246 285 341 442
#     4  12  24  42  66 114 138 184 236 304 364 406
#     4  10  19  41  73  97 128 191 236 279 353 438
#     4  11  23  40  75  98 142 185 231 298 358 419
#     4  11  20  45  69 103 134 187 236 288 360 445
#
# _framework density 20.992881000000001
#
# number of rings (size 3 to 8) (size 9 to 14) (size 15 to 20)
#    0.000    1.231    7.692    0.923    4.308    0.000 
#    2.769    2.308    3.385    0.000    0.000    0.000 
#    0.000    0.000    0.000    0.000    0.000    0.000 
#
# Total GULP energy -144841.511061 kJ/mol
# GULP energy per Si atom -5570.827348 kJ/mol
# Density = 2.094510 g / cm^3
# Si number density = 20.992881 Si / 1000 Ang^3
#
#
#
# Elastic Constant Matrix: (Units=GPa)
#
#
# Indices 1 2 3 4 5 6 
#
# 1 42.5180 -5.9629 18.3012 0.0000 0.0000 0.0000
# 2 -5.9629 62.8453 11.8217 0.0000 0.0000 0.0000
# 3 18.3012 11.8217 138.3970 0.0000 0.0000 0.0000
# 4 0.0000 0.0000 0.0000 12.9879 0.0000 0.0000
# 5 0.0000 0.0000 0.0000 0.0000 24.4054 0.0000
# 6 0.0000 0.0000 0.0000 0.0000 0.0000 21.0379
#
#
#
# Elastic Compliance Matrix: (Units=1/GPa)
#
#
# Indices 1 2 3 4 5 6 
#
# 1 0.025522 0.003106 -0.003640 0.000000 0.000000 0.000000
# 2 0.003106 0.016550 -0.001824 0.000000 0.000000 0.000000
# 3 -0.003640 -0.001824 0.007863 0.000000 0.000000 0.000000
# 4 0.000000 0.000000 0.000000 0.076995 0.000000 0.000000
# 5 0.000000 0.000000 0.000000 0.000000 0.040974 0.000000
# 6 0.000000 0.000000 0.000000 0.000000 0.000000 0.047533
#
#
# Mechanical properties :
#
#
# Convention : Reuss Voigt Hill
#
# Bulk Modulus (GPa) = 22.11505 32.45334 27.28420
# Shear Modulus (GPa) = 21.25605 26.32626 23.79115
#
# Velocity S-wave (km/s) = 3.18549 3.54511 3.37010
# Velocity P-wave (km/s) = 4.90787 5.67889 5.30740
#
# Compressibility (1/GPa) = 0.04521808
#
# Stress axis : x y z
#
# Youngs Moduli (GPa) = 39.18188 60.42288 127.18094
#
# Poissons Ratio (x) = -0.18770 0.46298
# Poissons Ratio (y) = -0.12171 0.23204
# Poissons Ratio (z) = 0.14263 0.11024
#
# Static dielectric constant tensor:
#      x y z
#    x 1.826990 0.000000 0.000000 
#    y 0.000000 1.852060 0.000000 
#    z 0.000000 0.000000 1.819310 
# 
# From -- ./inp_files/3484.got.cif
#   From: 2010.05.17/outbox.cif.g08.bks.cpg/sg43_2_cif.got.tgz:3484.got - 2010.06.03 19:21:55.
