data_PCOD9370893
_publ_section_title
;
Structure prediction by ZEFSAII (Michael W. Deem and Ramdas Pophale) SiO2 
 PCOD9370893
Probable space group: F D D 2
;
_chemical_formula_sum "Si O2"
_cell_formula_units_Z 104
_cell_length_a 17.405276
_cell_length_b 14.735759
_cell_length_c 19.812750
_cell_angle_alpha 90.000000
_cell_angle_beta 90.000000
_cell_angle_gamma 90.000000
_cell_volume 5081.573178
_symmetry_space_group_name_H-M "F D D 2"
_symmetry_group_IT_number 43
_symmetry_cell_setting 'orthorhombic'
loop_
_space_group_symop_operation_xyz
x,y,z
-x,-y,z
1/4-x,1/4+y,1/4+z
1/4+x,1/4-y,1/4+z
x,1/2+y,1/2+z
-x,1/2-y,1/2+z
1/4-x,3/4+y,3/4+z
1/4+x,3/4-y,3/4+z
1/2+x,y,1/2+z
1/2-x,-y,1/2+z
3/4-x,1/4+y,3/4+z
3/4+x,1/4-y,3/4+z
1/2+x,1/2+y,z
1/2-x,1/2-y,z
3/4-x,3/4+y,1/4+z
3/4+x,3/4-y,1/4+z
loop_
_atom_site_type_symbol
_atom_site_label
_atom_site_fract_x
_atom_site_fract_y
_atom_site_fract_z
Si Si1 0.808302 0.821875 0.957280
Si Si2 0.928025 0.761207 0.565298
Si Si3 0.212514 0.502365 0.960039
Si Si4 0.083497 0.171288 0.080226
Si Si5 0.250000 0.750000 0.808911
Si Si6 0.119341 0.149490 0.225436
Si Si7 0.164012 0.773734 0.315958
O O1 0.750000 0.750000 0.989805
O O2 0.759385 0.911122 0.941617
O O3 0.839414 0.772250 0.890166
O O4 0.870962 0.845365 0.012239
O O5 0.915418 0.723331 0.641814
O O6 0.888009 0.700405 0.506806
O O7 0.906059 0.866858 0.564494
O O8 0.020958 0.747882 0.561484
O O9 0.279907 0.571325 0.983330
O O10 0.152562 0.485264 0.019056
O O11 0.134817 0.176833 0.146943
O O12 0.033444 0.083251 0.099568
O O13 0.179542 0.710381 0.766475
O O14 0.250000 0.750000 0.291229
#
# Coordination Sequence:
#
# PCOD9370893 Si02
#       7
#    16  16  16  16   8  16  16
#     4  11  23  42  69 100 132 178 228 288 343 405
#     4  10  23  45  63 102 136 179 227 285 342 413
#     4  11  23  45  68  96 136 181 230 283 349 416
#     4  10  23  40  70  96 138 175 221 285 340 406
#     4  10  20  42  60 100 130 168 220 266 336 404
#     4  10  23  41  68  97 138 175 224 283 344 412
#     4  11  25  45  68  94 141 179 228 286 344 414
#
# _framework density 20.466103
#
# number of rings (size 3 to 8) (size 9 to 14) (size 15 to 20)
#    0.000    1.538    4.615    0.000    3.231    6.769 
#    5.538    0.000    0.000    0.000    0.000    0.000 
#    0.000    0.000    0.000    0.000    0.000    0.000 
#
# Total GULP energy -144802.706883 kJ/mol
# GULP energy per Si atom -5569.334880 kJ/mol
# Density = 2.041952 g / cm^3
# Si number density = 20.466103 Si / 1000 Ang^3
#
#
#
# Elastic Constant Matrix: (Units=GPa)
#
#
# Indices 1 2 3 4 5 6 
#
# 1 53.0319 14.0371 31.6122 0.0000 0.0000 0.0000
# 2 14.0371 92.6737 21.3033 0.0000 0.0000 0.0000
# 3 31.6122 21.3033 64.1816 0.0000 0.0000 0.0000
# 4 0.0000 0.0000 0.0000 30.4957 0.0000 0.0000
# 5 0.0000 0.0000 0.0000 0.0000 -41.6425 0.0000
# 6 0.0000 0.0000 0.0000 0.0000 0.0000 32.5018
#
#
#
# Elastic Compliance Matrix: (Units=1/GPa)
#
#
# Indices 1 2 3 4 5 6 
#
# 1 0.026799 -0.001110 -0.012831 0.000000 0.000000 0.000000
# 2 -0.001110 0.011728 -0.003346 0.000000 0.000000 0.000000
# 3 -0.012831 -0.003346 0.023011 0.000000 0.000000 0.000000
# 4 0.000000 0.000000 0.000000 0.032792 0.000000 0.000000
# 5 0.000000 0.000000 0.000000 0.000000 -0.024014 0.000000
# 6 0.000000 0.000000 0.000000 0.000000 0.000000 0.030768
#
#
# Mechanical properties :
#
#
# Convention : Reuss Voigt Hill
#
# Bulk Modulus (GPa) = 37.08650 38.19915 37.64282
# Shear Modulus (GPa) = 34.56720 13.79997 24.18358
#
# Velocity S-wave (km/s) = 4.11420 2.59952 3.44123
# Velocity P-wave (km/s) = 6.38194 5.26451 5.84997
#
# Compressibility (1/GPa) = 0.02696399
#
# Stress axis : x y z
#
# Youngs Moduli (GPa) = 37.31478 85.26733 43.45659
#
# Poissons Ratio (x) = 0.09461 0.55761
# Poissons Ratio (y) = 0.04140 0.14541
# Poissons Ratio (z) = 0.47880 0.28532
#
# Static dielectric constant tensor:
#      x y z
#    x 1.790190 0.000000 0.000000 
#    y 0.000000 1.750640 0.000000 
#    z 0.000000 0.000000 1.735130 
# 
# From -- ./inp_files/14593.got.cif
#   From: 2010.05.17/outbox.cif.g08.bks.cpg/sg43_8_cif.got.tgz:14593.got - 2010.06.03 19:21:55.
