data_PCOD9370977
_publ_section_title
;
Structure prediction by ZEFSAII (Michael W. Deem and Ramdas Pophale) SiO2 
 PCOD9370977
Probable space group: F D D 2
;
_chemical_formula_sum "Si O2"
_cell_formula_units_Z 96
_cell_length_a 9.817313
_cell_length_b 29.683759
_cell_length_c 15.980766
_cell_angle_alpha 90.000000
_cell_angle_beta 90.000000
_cell_angle_gamma 90.000000
_cell_volume 4657.030979
_symmetry_space_group_name_H-M "F D D 2"
_symmetry_group_IT_number 43
_symmetry_cell_setting 'orthorhombic'
loop_
_space_group_symop_operation_xyz
x,y,z
-x,-y,z
1/4-x,1/4+y,1/4+z
1/4+x,1/4-y,1/4+z
x,1/2+y,1/2+z
-x,1/2-y,1/2+z
1/4-x,3/4+y,3/4+z
1/4+x,3/4-y,3/4+z
1/2+x,y,1/2+z
1/2-x,-y,1/2+z
3/4-x,1/4+y,3/4+z
3/4+x,1/4-y,3/4+z
1/2+x,1/2+y,z
1/2-x,1/2-y,z
3/4-x,3/4+y,1/4+z
3/4+x,3/4-y,1/4+z
loop_
_atom_site_type_symbol
_atom_site_label
_atom_site_fract_x
_atom_site_fract_y
_atom_site_fract_z
Si Si1 0.958387 0.760418 0.810300
Si Si2 0.886940 0.156794 0.319898
Si Si3 0.673300 0.163410 0.625659
Si Si4 0.500000 0.500000 0.985588
Si Si5 0.141969 0.660172 0.430317
Si Si6 0.000000 0.500000 0.912353
Si Si7 0.896520 0.907541 0.381580
O O1 0.118446 0.764500 0.790064
O O2 0.925226 0.708876 0.834873
O O3 0.904400 0.795071 0.879645
O O4 0.871786 0.766123 0.724249
O O5 0.776275 0.140959 0.385928
O O6 0.819049 0.152149 0.229406
O O7 0.022445 0.127690 0.326957
O O8 0.702390 0.208865 0.676955
O O9 0.686389 0.168962 0.525538
O O10 0.770443 0.125355 0.665191
O O11 0.514219 0.151735 0.631221
O O12 0.941939 0.458351 0.859991
#
# Coordination Sequence:
#
# PCOD9370977 Si02
#       7
#    16  16  16   8  16   8  16
#     4  11  23  46  70  94 134 181 224 276 344 406
#     4  11  23  43  69  93 129 178 218 275 334 409
#     4  12  27  42  69 104 137 174 225 290 336 413
#     4  12  26  45  71  96 138 184 226 280 350 401
#     4  12  25  44  70 101 136 176 229 283 344 406
#     4  10  20  45  69  88 128 178 218 272 332 403
#     4  11  23  45  65  96 131 171 221 272 339 400
#
# _framework density 20.613993000000001
#
# number of rings (size 3 to 8) (size 9 to 14) (size 15 to 20)
#    0.000    0.667    6.667    3.000    7.000    0.000 
#    3.000    0.000    0.000    0.000    0.000    0.000 
#    0.000    0.000    0.000    0.000    0.000    0.000 
#
# Total GULP energy -134135.181354 kJ/mol
# GULP energy per Si atom -5588.965890 kJ/mol
# Density = 2.056707 g / cm^3
# Si number density = 20.613993 Si / 1000 Ang^3
#
#
#
# Elastic Constant Matrix: (Units=GPa)
#
#
# Indices 1 2 3 4 5 6 
#
# 1 122.8887 8.2939 -11.3437 0.0000 0.0000 0.0000
# 2 8.2939 90.4395 -0.9651 0.0000 0.0000 0.0000
# 3 -11.3437 -0.9651 41.8259 0.0000 0.0000 0.0000
# 4 0.0000 0.0000 0.0000 11.6711 0.0000 0.0000
# 5 0.0000 0.0000 0.0000 0.0000 31.6040 0.0000
# 6 0.0000 0.0000 0.0000 0.0000 0.0000 33.2795
#
#
#
# Elastic Compliance Matrix: (Units=1/GPa)
#
#
# Indices 1 2 3 4 5 6 
#
# 1 0.008396 -0.000746 0.002260 0.000000 0.000000 0.000000
# 2 -0.000746 0.011126 0.000054 0.000000 0.000000 0.000000
# 3 0.002260 0.000054 0.024523 0.000000 0.000000 0.000000
# 4 0.000000 0.000000 0.000000 0.085682 0.000000 0.000000
# 5 0.000000 0.000000 0.000000 0.000000 0.031642 0.000000
# 6 0.000000 0.000000 0.000000 0.000000 0.000000 0.030049
#
#
# Mechanical properties :
#
#
# Convention : Reuss Voigt Hill
#
# Bulk Modulus (GPa) = 21.19434 27.45824 24.32629
# Shear Modulus (GPa) = 24.50887 32.58885 28.54886
#
# Velocity S-wave (km/s) = 3.45185 3.98038 3.72550
# Velocity P-wave (km/s) = 5.11770 5.87143 5.50747
#
# Compressibility (1/GPa) = 0.04718241
#
# Stress axis : x y z
#
# Youngs Moduli (GPa) = 119.09863 89.87874 40.77836
#
# Poissons Ratio (x) = 0.06704 -0.09216
# Poissons Ratio (y) = 0.08883 -0.00222
# Poissons Ratio (z) = -0.26916 -0.00489
#
# Static dielectric constant tensor:
#      x y z
#    x 1.734850 0.000000 0.000000 
#    y 0.000000 1.743140 0.000000 
#    z 0.000000 0.000000 1.759350 
# 
# From -- ./inp_files/16509.got.cif
#   From: 2010.05.17/outbox.cif.g08.bks.cpg/sg43_9_cif.got.tgz:16509.got - 2010.06.03 19:21:55.
