data_PCOD9370846
_publ_section_title
;
Structure prediction by ZEFSAII (Michael W. Deem and Ramdas Pophale) SiO2 
 PCOD9370846
Probable space group: F D D 2
;
_chemical_formula_sum "Si O2"
_cell_formula_units_Z 120
_cell_length_a 24.885487
_cell_length_b 7.534016
_cell_length_c 28.921807
_cell_angle_alpha 90.000000
_cell_angle_beta 90.000000
_cell_angle_gamma 90.000000
_cell_volume 5422.481837
_symmetry_space_group_name_H-M "F D D 2"
_symmetry_group_IT_number 43
_symmetry_cell_setting 'orthorhombic'
loop_
_space_group_symop_operation_xyz
x,y,z
-x,-y,z
1/4-x,1/4+y,1/4+z
1/4+x,1/4-y,1/4+z
x,1/2+y,1/2+z
-x,1/2-y,1/2+z
1/4-x,3/4+y,3/4+z
1/4+x,3/4-y,3/4+z
1/2+x,y,1/2+z
1/2-x,-y,1/2+z
3/4-x,1/4+y,3/4+z
3/4+x,1/4-y,3/4+z
1/2+x,1/2+y,z
1/2-x,1/2-y,z
3/4-x,3/4+y,1/4+z
3/4+x,3/4-y,1/4+z
loop_
_atom_site_type_symbol
_atom_site_label
_atom_site_fract_x
_atom_site_fract_y
_atom_site_fract_z
Si Si1 0.766967 0.959002 0.136190
Si Si2 0.097920 0.426273 0.312851
Si Si3 0.447952 0.221888 0.110689
Si Si4 0.441401 0.820677 0.080826
Si Si5 0.500000 0.000000 0.754486
Si Si6 0.174738 0.090086 0.582433
Si Si7 0.584663 0.267794 0.715310
Si Si8 0.797728 0.395139 0.732388
O O1 0.750000 0.750000 0.140315
O O2 0.809083 0.947941 0.093790
O O3 0.787542 0.008376 0.186375
O O4 0.717013 0.080676 0.123536
O O5 0.159236 0.398928 0.330919
O O6 0.087534 0.631865 0.324444
O O7 0.084300 0.402283 0.258899
O O8 0.511316 0.268000 0.111235
O O9 0.423501 0.184053 0.161543
O O10 0.447226 0.032933 0.084900
O O11 0.378599 0.798381 0.092744
O O12 0.449595 0.756580 0.028856
O O13 0.543841 0.907728 0.787581
O O14 0.464685 0.864583 0.725020
O O15 0.644091 0.188897 0.722053
O O16 0.750000 0.250000 0.737626
#
# Coordination Sequence:
#
# PCOD9370846 Si02
#       8
#    16  16  16  16   8  16  16  16
#     4   9  18  36  66  97 128 176 237 277 321 418
#     4  10  20  40  71  94 133 183 237 279 338 424
#     4  10  23  44  68  98 135 182 235 283 343 430
#     4  10  22  43  67  95 143 170 223 293 346 403
#     4  12  24  40  64  98 142 174 230 296 346 406
#     4  10  21  40  66  95 136 183 225 288 340 409
#     4  12  24  42  70 104 136 187 235 285 360 422
#     4  11  22  40  72 104 138 180 230 294 356 416
#
# _framework density 22.130088000000001
#
# number of rings (size 3 to 8) (size 9 to 14) (size 15 to 20)
#    0.000    1.600    4.000    0.800    1.867    2.133 
#    3.600    2.667   14.667    0.000    0.000    0.000 
#    0.000    0.000    0.000    0.000    0.000    0.000 
#
# Total GULP energy -167429.141773 kJ/mol
# GULP energy per Si atom -5580.971392 kJ/mol
# Density = 2.207972 g / cm^3
# Si number density = 22.130088 Si / 1000 Ang^3
#
#
#
# Elastic Constant Matrix: (Units=GPa)
#
#
# Indices 1 2 3 4 5 6 
#
# 1 151.8200 35.1823 42.3424 0.0000 0.0001 0.0004
# 2 35.1823 43.2542 34.6808 0.0002 0.0001 0.0003
# 3 42.3424 34.6808 137.3962 0.0001 -0.0001 0.0000
# 4 0.0000 0.0002 0.0001 26.4945 0.0000 0.0000
# 5 0.0001 0.0001 -0.0001 0.0000 25.6601 -0.0001
# 6 0.0004 0.0003 0.0000 0.0000 -0.0001 34.5274
#
#
#
# Elastic Compliance Matrix: (Units=1/GPa)
#
#
# Indices 1 2 3 4 5 6 
#
# 1 0.008239 -0.005849 -0.001063 0.000000 0.000000 0.000000
# 2 -0.005849 0.033138 -0.006562 0.000000 0.000000 0.000000
# 3 -0.001063 -0.006562 0.009262 0.000000 0.000000 0.000000
# 4 0.000000 0.000000 0.000000 0.037744 0.000000 0.000000
# 5 0.000000 0.000000 0.000000 0.000000 0.038971 0.000000
# 6 0.000000 0.000000 0.000000 0.000000 0.000000 0.028962
#
#
# Mechanical properties :
#
#
# Convention : Reuss Voigt Hill
#
# Bulk Modulus (GPa) = 42.20951 61.87570 52.04261
# Shear Modulus (GPa) = 26.15604 32.02072 29.08838
#
# Velocity S-wave (km/s) = 3.44164 3.80798 3.62944
# Velocity P-wave (km/s) = 5.90829 6.88150 6.41338
#
# Compressibility (1/GPa) = 0.02369135
#
# Stress axis : x y z
#
# Youngs Moduli (GPa) = 121.38035 30.17670 107.96810
#
# Poissons Ratio (x) = 0.17651 0.11472
# Poissons Ratio (y) = 0.70998 0.70848
# Poissons Ratio (z) = 0.12897 0.19802
#
# Static dielectric constant tensor:
#      x y z
#    x 1.914180 0.000000 0.000000 
#    y 0.000000 1.805160 0.000000 
#    z 0.000000 0.000000 1.808240 
# 
# From -- ./inp_files/26601.got.cif
#   From: 2010.05.17/outbox.cif.g08.bks.cpg/sg43_14_cif.got.tgz:26601.got - 2010.06.03 19:21:55.
