data_PCOD9370385
_publ_section_title
;
Structure prediction by ZEFSAII (Michael W. Deem and Ramdas Pophale) SiO2 
 PCOD9370385
Probable space group: F D D 2
;
_chemical_formula_sum "Si O2"
_cell_formula_units_Z 120
_cell_length_a 18.402825
_cell_length_b 12.166941
_cell_length_c 24.952926
_cell_angle_alpha 90.000000
_cell_angle_beta 90.000000
_cell_angle_gamma 90.000000
_cell_volume 5587.111995
_symmetry_space_group_name_H-M "F D D 2"
_symmetry_group_IT_number 43
_symmetry_cell_setting 'orthorhombic'
loop_
_space_group_symop_operation_xyz
x,y,z
-x,-y,z
1/4-x,1/4+y,1/4+z
1/4+x,1/4-y,1/4+z
x,1/2+y,1/2+z
-x,1/2-y,1/2+z
1/4-x,3/4+y,3/4+z
1/4+x,3/4-y,3/4+z
1/2+x,y,1/2+z
1/2-x,-y,1/2+z
3/4-x,1/4+y,3/4+z
3/4+x,1/4-y,3/4+z
1/2+x,1/2+y,z
1/2-x,1/2-y,z
3/4-x,3/4+y,1/4+z
3/4+x,3/4-y,1/4+z
loop_
_atom_site_type_symbol
_atom_site_label
_atom_site_fract_x
_atom_site_fract_y
_atom_site_fract_z
Si Si1 0.367228 0.562721 0.300410
Si Si2 0.544788 0.739826 0.853849
Si Si3 0.834000 0.721329 0.705394
Si Si4 0.103418 0.644855 0.845439
Si Si5 0.646048 0.823988 0.025599
Si Si6 0.570561 0.935128 0.178342
Si Si7 0.000000 0.000000 0.102005
Si Si8 0.528676 0.243855 0.613065
O O1 0.416532 0.653617 0.328608
O O2 0.343171 0.618972 0.245459
O O3 0.410048 0.447371 0.300171
O O4 0.294271 0.538175 0.334257
O O5 0.462413 0.776381 0.862095
O O6 0.547401 0.639145 0.812487
O O7 0.601279 0.709503 0.901160
O O8 0.750000 0.750000 0.695917
O O9 0.865850 0.678801 0.649352
O O10 0.866874 0.829876 0.734615
O O11 0.174126 0.711432 0.825855
O O12 0.587738 0.775618 0.067491
O O13 0.672694 0.726222 0.988391
O O14 0.549334 0.811093 0.165948
O O15 0.500000 0.000000 0.154095
O O16 0.023333 0.115849 0.127676
#
# Coordination Sequence:
#
# PCOD9370385 Si02
#       8
#    16  16  16  16  16  16   8  16
#     4  10  19  36  64  97 130 178 209 279 340 401
#     4  10  21  37  63 100 135 169 220 287 341 398
#     4  11  20  35  64 101 134 166 228 279 338 413
#     4  11  23  42  63  91 141 183 228 276 342 413
#     4  10  22  35  62 104 132 170 224 284 338 409
#     4  11  21  37  67 101 131 170 221 279 348 394
#     4  10  26  46  66  84 132 196 218 268 358 412
#     4  10  21  42  65  93 137 175 225 276 340 413
#
# _framework density 21.478000999999999
#
# number of rings (size 3 to 8) (size 9 to 14) (size 15 to 20)
#    0.000    1.600    2.667    2.800    1.867    1.067 
#    4.800    4.667    0.000    0.000    0.000    0.000 
#    0.000    0.000    0.000    0.000    0.000    0.000 
#
# Total GULP energy -167181.751908 kJ/mol
# GULP energy per Si atom -5572.725064 kJ/mol
# Density = 2.142912 g / cm^3
# Si number density = 21.478001 Si / 1000 Ang^3
#
#
#
# Elastic Constant Matrix: (Units=GPa)
#
#
# Indices 1 2 3 4 5 6 
#
# 1 76.6568 30.6129 24.1808 0.0000 0.0000 0.0000
# 2 30.6129 141.2168 45.9421 0.0000 0.0000 0.0000
# 3 24.1808 45.9421 73.8711 0.0000 0.0000 0.0000
# 4 0.0000 0.0000 0.0000 22.7589 0.0000 0.0000
# 5 0.0000 0.0000 0.0000 0.0000 11.9984 0.0000
# 6 0.0000 0.0000 0.0000 0.0000 0.0000 27.2554
#
#
#
# Elastic Compliance Matrix: (Units=1/GPa)
#
#
# Indices 1 2 3 4 5 6 
#
# 1 0.015018 -0.002076 -0.003625 0.000000 0.000000 0.000000
# 2 -0.002076 0.009165 -0.005020 0.000000 0.000000 0.000000
# 3 -0.003625 -0.005020 0.017846 0.000000 0.000000 0.000000
# 4 0.000000 0.000000 0.000000 0.043939 0.000000 0.000000
# 5 0.000000 0.000000 0.000000 0.000000 0.083345 0.000000
# 6 0.000000 0.000000 0.000000 0.000000 0.000000 0.036690
#
#
# Mechanical properties :
#
#
# Convention : Reuss Voigt Hill
#
# Bulk Modulus (GPa) = 48.57646 54.80182 51.68914
# Shear Modulus (GPa) = 21.33971 25.13647 23.23809
#
# Velocity S-wave (km/s) = 3.15550 3.42473 3.29287
# Velocity P-wave (km/s) = 5.99518 6.41943 6.21093
#
# Compressibility (1/GPa) = 0.02058610
#
# Stress axis : x y z
#
# Youngs Moduli (GPa) = 66.58815 109.11583 56.03635
#
# Poissons Ratio (x) = 0.22656 0.20310
# Poissons Ratio (y) = 0.13826 0.28130
# Poissons Ratio (z) = 0.24135 0.54776
#
# Static dielectric constant tensor:
#      x y z
#    x 1.849470 0.000000 0.000000 
#    y 0.000000 1.816570 0.000000 
#    z 0.000000 0.000000 1.785830 
# 
# From -- ./inp_files/26054.got.cif
#   From: 2010.05.17/outbox.cif.g08.bks.cpg/sg43_14_cif.got.tgz:26054.got - 2010.06.03 19:21:55.
