data_PCOD9370460
_publ_section_title
;
Structure prediction by ZEFSAII (Michael W. Deem and Ramdas Pophale) SiO2 
 PCOD9370460
Probable space group: F D D 2
;
_chemical_formula_sum "Si O2"
_cell_formula_units_Z 120
_cell_length_a 26.979918
_cell_length_b 23.273551
_cell_length_c 7.512841
_cell_angle_alpha 90.000000
_cell_angle_beta 90.000000
_cell_angle_gamma 90.000000
_cell_volume 4717.451833
_symmetry_space_group_name_H-M "F D D 2"
_symmetry_group_IT_number 43
_symmetry_cell_setting 'orthorhombic'
loop_
_space_group_symop_operation_xyz
x,y,z
-x,-y,z
1/4-x,1/4+y,1/4+z
1/4+x,1/4-y,1/4+z
x,1/2+y,1/2+z
-x,1/2-y,1/2+z
1/4-x,3/4+y,3/4+z
1/4+x,3/4-y,3/4+z
1/2+x,y,1/2+z
1/2-x,-y,1/2+z
3/4-x,1/4+y,3/4+z
3/4+x,1/4-y,3/4+z
1/2+x,1/2+y,z
1/2-x,1/2-y,z
3/4-x,3/4+y,1/4+z
3/4+x,3/4-y,1/4+z
loop_
_atom_site_type_symbol
_atom_site_label
_atom_site_fract_x
_atom_site_fract_y
_atom_site_fract_z
Si Si1 0.836820 0.341706 0.537040
Si Si2 0.332334 0.818448 0.946760
Si Si3 0.718529 0.983117 0.801242
Si Si4 0.525235 0.083692 0.322565
Si Si5 0.938129 0.790725 0.939243
Si Si6 0.582119 0.613128 0.499335
Si Si7 0.250000 0.250000 0.377026
Si Si8 0.116152 0.302566 0.416410
O O1 0.828443 0.345563 0.751659
O O2 0.780241 0.331695 0.485084
O O3 0.881000 0.297779 0.494989
O O4 0.861350 0.403903 0.502260
O O5 0.365712 0.858589 0.066233
O O6 0.278977 0.795423 0.997417
O O7 0.362315 0.760906 0.906818
O O8 0.776038 0.000942 0.808056
O O9 0.690872 0.034967 0.703648
O O10 0.704598 0.919056 0.726723
O O11 0.693333 0.985499 0.993951
O O12 0.538007 0.145704 0.409004
O O13 0.529931 0.038274 0.482469
O O14 0.560610 0.074530 0.154406
O O15 0.597976 0.581062 0.319016
#
# Coordination Sequence:
#
# PCOD9370460 Si02
#       8
#    16  16  16  16  16  16   8  16
#     4  10  21  37  65  93 126 173 221 271 331 405
#     4   9  20  36  61  90 127 173 223 264 325 400
#     4  10  23  40  64  99 130 172 221 277 332 399
#     4  10  21  41  62  93 134 175 221 276 332 401
#     4  11  23  40  67  99 132 172 228 280 337 396
#     4   9  21  39  62  92 133 165 218 273 333 393
#     4  10  20  38  62  92 126 184 232 262 326 420
#     4  10  19  39  61  90 131 173 208 273 329 398
#
# _framework density 25.437463000000001
#
# number of rings (size 3 to 8) (size 9 to 14) (size 15 to 20)
#    0.000    2.133    1.333    0.800    5.600    2.133 
#    0.000   10.000    0.000    1.600    0.000    0.000 
#    0.000    0.000    0.000    0.000    0.000    0.000 
#
# Total GULP energy -167291.975155 kJ/mol
# GULP energy per Si atom -5576.399172 kJ/mol
# Density = 2.537957 g / cm^3
# Si number density = 25.437463 Si / 1000 Ang^3
#
#
#
# Elastic Constant Matrix: (Units=GPa)
#
#
# Indices 1 2 3 4 5 6 
#
# 1 132.1752 15.8718 23.3672 0.0002 0.0002 -0.0001
# 2 15.8718 61.3903 10.3589 -0.0010 0.0028 -0.0062
# 3 23.3672 10.3589 45.4916 -0.0066 0.0078 -0.0045
# 4 0.0002 -0.0010 -0.0066 23.0356 0.0046 -0.0054
# 5 0.0002 0.0028 0.0078 0.0046 29.5072 0.0002
# 6 -0.0001 -0.0062 -0.0045 -0.0054 0.0002 -3.9749
#
#
#
# Elastic Compliance Matrix: (Units=1/GPa)
#
#
# Indices 1 2 3 4 5 6 
#
# 1 0.008454 -0.001511 -0.003998 -0.000001 0.000001 0.000007
# 2 -0.001511 0.017210 -0.003143 0.000000 -0.000001 -0.000023
# 3 -0.003998 -0.003143 0.024752 0.000007 -0.000006 -0.000023
# 4 -0.000001 0.000000 0.000007 0.043411 -0.000007 -0.000059
# 5 0.000001 -0.000001 -0.000006 -0.000007 0.033890 0.000002
# 6 0.000007 -0.000023 -0.000023 -0.000059 0.000002 -0.251581
#
#
# Mechanical properties :
#
#
# Convention : Reuss Voigt Hill
#
# Bulk Modulus (GPa) = 30.20115 37.58365 33.89240
# Shear Modulus (GPa) = -52.34347 22.34420 -14.99964
#
# Velocity S-wave (km/s) = -4.54114 2.96699 -2.43094
# Velocity P-wave (km/s) = 3.94937 5.15212 2.33954
#
# Compressibility (1/GPa) = 0.03311132
#
# Stress axis : x y z
#
# Youngs Moduli (GPa) = 118.28662 58.10516 40.40149
#
# Poissons Ratio (x) = 0.08780 0.16154
# Poissons Ratio (y) = 0.17873 0.12697
# Poissons Ratio (z) = 0.47296 0.18261
#
# Static dielectric constant tensor:
#      x y z
#    x 2.187100 0.000000 0.000000 
#    y 0.000000 2.247980 0.000000 
#    z 0.000000 0.000000 2.045400 
# 
# From -- ./inp_files/4353.got.cif
#   From: 2010.05.17/outbox.cif.g08.bks.cpg/sg43_3_cif.got.tgz:4353.got - 2010.06.03 19:21:55.
