data_PCOD9370840
_publ_section_title
;
Structure prediction by ZEFSAII (Michael W. Deem and Ramdas Pophale) SiO2 
 PCOD9370840
Probable space group: F D D 2
;
_chemical_formula_sum "Si O2"
_cell_formula_units_Z 104
_cell_length_a 9.806741
_cell_length_b 23.857500
_cell_length_c 19.594768
_cell_angle_alpha 90.000000
_cell_angle_beta 90.000000
_cell_angle_gamma 90.000000
_cell_volume 4584.476637
_symmetry_space_group_name_H-M "F D D 2"
_symmetry_group_IT_number 43
_symmetry_cell_setting 'orthorhombic'
loop_
_space_group_symop_operation_xyz
x,y,z
-x,-y,z
1/4-x,1/4+y,1/4+z
1/4+x,1/4-y,1/4+z
x,1/2+y,1/2+z
-x,1/2-y,1/2+z
1/4-x,3/4+y,3/4+z
1/4+x,3/4-y,3/4+z
1/2+x,y,1/2+z
1/2-x,-y,1/2+z
3/4-x,1/4+y,3/4+z
3/4+x,1/4-y,3/4+z
1/2+x,1/2+y,z
1/2-x,1/2-y,z
3/4-x,3/4+y,1/4+z
3/4+x,3/4-y,1/4+z
loop_
_atom_site_type_symbol
_atom_site_label
_atom_site_fract_x
_atom_site_fract_y
_atom_site_fract_z
Si Si1 0.872219 0.537630 0.264290
Si Si2 0.663979 0.497974 0.609011
Si Si3 0.249637 0.684725 0.185918
Si Si4 0.750000 0.750000 0.208237
Si Si5 0.837626 0.203306 0.037789
Si Si6 0.975640 0.334652 0.762807
Si Si7 0.283388 0.414270 0.994785
O O1 0.825410 0.517912 0.188561
O O2 0.737914 0.527660 0.309047
O O3 0.910741 0.603034 0.264024
O O4 0.000000 0.500000 0.286651
O O5 0.500000 0.500000 0.598065
O O6 0.724155 0.558239 0.585334
O O7 0.741804 0.451950 0.561620
O O8 0.250000 0.750000 0.207281
O O9 0.253997 0.687554 0.104952
O O10 0.388126 0.661589 0.217561
O O11 0.112779 0.655625 0.209617
O O12 0.636800 0.709525 0.240128
O O13 0.863521 0.698690 0.194617
O O14 0.750000 0.250000 0.999666
O O15 0.846423 0.143991 0.002682
#
# Coordination Sequence:
#
# PCOD9370840 Si02
#       7
#    16  16  16   8  16  16  16
#     4  11  27  46  63 104 143 181 231 293 361 411
#     4  10  21  41  74  96 125 185 242 279 337 424
#     4  11  22  42  70  95 130 182 230 274 340 425
#     4  10  20  40  70 100 126 170 236 294 322 408
#     4  11  28  44  61 102 143 182 226 280 368 414
#     4  11  21  44  69  96 133 175 240 284 335 423
#     4  11  21  43  70 100 133 170 239 290 344 407
#
# _framework density 22.685251000000001
#
# number of rings (size 3 to 8) (size 9 to 14) (size 15 to 20)
#    0.000    1.231    6.154    0.000    6.462    1.231 
#    9.692    0.000    0.000    0.000    0.000    0.000 
#    0.000    0.000    0.000    0.000    0.000    0.000 
#
# Total GULP energy -144774.455274 kJ/mol
# GULP energy per Si atom -5568.248280 kJ/mol
# Density = 2.263362 g / cm^3
# Si number density = 22.685251 Si / 1000 Ang^3
#
#
#
# Elastic Constant Matrix: (Units=GPa)
#
#
# Indices 1 2 3 4 5 6 
#
# 1 158.3371 42.2239 -16.1263 0.0000 0.0000 0.0000
# 2 42.2239 135.6156 -19.2723 0.0000 0.0000 0.0000
# 3 -16.1263 -19.2723 -28.0647 0.0000 0.0000 0.0000
# 4 0.0000 0.0000 0.0000 -15.1843 0.0000 0.0000
# 5 0.0000 0.0000 0.0000 0.0000 2.2321 0.0000
# 6 0.0000 0.0000 0.0000 0.0000 0.0000 37.9707
#
#
#
# Elastic Compliance Matrix: (Units=1/GPa)
#
#
# Indices 1 2 3 4 5 6 
#
# 1 0.006733 -0.002411 -0.002213 0.000000 0.000000 0.000000
# 2 -0.002411 0.007581 -0.003821 0.000000 0.000000 0.000000
# 3 -0.002213 -0.003821 -0.031736 0.000000 0.000000 0.000000
# 4 0.000000 0.000000 0.000000 -0.065857 0.000000 0.000000
# 5 0.000000 0.000000 0.000000 0.000000 0.448011 0.000000
# 6 0.000000 0.000000 0.000000 0.000000 0.000000 0.026336
#
#
# Mechanical properties :
#
#
# Convention : Reuss Voigt Hill
#
# Bulk Modulus (GPa) = -29.14425 31.05985 0.95780
# Shear Modulus (GPa) = 12.60967 22.27455 17.44211
#
# Velocity S-wave (km/s) = 2.36021 3.13692 2.77587
# Velocity P-wave (km/s) = 2.33402 5.18090 3.27063
#
# Compressibility (1/GPa) = -0.03431209
#
# Stress axis : x y z
#
# Youngs Moduli (GPa) = 148.51936 131.90125 -31.50963
#
# Poissons Ratio (x) = 0.31800 -0.06974
# Poissons Ratio (y) = 0.35806 -0.12040
# Poissons Ratio (z) = 0.32873 0.50398
#
# Static dielectric constant tensor:
#      x y z
#    x 1.650170 0.000000 0.000000 
#    y 0.000000 2.010660 0.000000 
#    z 0.000000 0.000000 1.912230 
# 
# From -- ./inp_files/16553.got.cif
#   From: 2010.05.17/outbox.cif.g08.bks.cpg/sg43_9_cif.got.tgz:16553.got - 2010.06.03 19:21:55.
