data_PCOD9370410
_publ_section_title
;
Structure prediction by ZEFSAII (Michael W. Deem and Ramdas Pophale) SiO2 
 PCOD9370410
Probable space group: F D D 2
;
_chemical_formula_sum "Si O2"
_cell_formula_units_Z 112
_cell_length_a 35.075376
_cell_length_b 14.902199
_cell_length_c 9.854792
_cell_angle_alpha 90.000000
_cell_angle_beta 90.000000
_cell_angle_gamma 90.000000
_cell_volume 5151.102076
_symmetry_space_group_name_H-M "F D D 2"
_symmetry_group_IT_number 43
_symmetry_cell_setting 'orthorhombic'
loop_
_space_group_symop_operation_xyz
x,y,z
-x,-y,z
1/4-x,1/4+y,1/4+z
1/4+x,1/4-y,1/4+z
x,1/2+y,1/2+z
-x,1/2-y,1/2+z
1/4-x,3/4+y,3/4+z
1/4+x,3/4-y,3/4+z
1/2+x,y,1/2+z
1/2-x,-y,1/2+z
3/4-x,1/4+y,3/4+z
3/4+x,1/4-y,3/4+z
1/2+x,1/2+y,z
1/2-x,1/2-y,z
3/4-x,3/4+y,1/4+z
3/4+x,3/4-y,1/4+z
loop_
_atom_site_type_symbol
_atom_site_label
_atom_site_fract_x
_atom_site_fract_y
_atom_site_fract_z
Si Si1 0.346193 0.308085 0.793730
Si Si2 0.422788 0.668802 0.818721
Si Si3 0.225881 0.835371 0.973867
Si Si4 0.970777 0.924353 0.543366
Si Si5 0.101754 0.158327 0.182186
Si Si6 0.080699 0.263353 0.903859
Si Si7 0.505180 0.225220 0.250766
O O1 0.335830 0.361085 0.932690
O O2 0.320488 0.219724 0.793900
O O3 0.336639 0.380681 0.678634
O O4 0.389804 0.277782 0.796080
O O5 0.395332 0.623738 0.929441
O O6 0.406556 0.769045 0.797756
O O7 0.468204 0.680273 0.822168
O O8 0.250000 0.750000 0.345292
O O9 0.230427 0.841749 0.136648
O O10 0.180824 0.832343 0.941827
O O11 0.241443 0.932491 0.929651
O O12 0.977427 0.839331 0.636646
O O13 0.000000 0.000000 0.175190
O O14 0.092036 0.211964 0.042735
O O15 0.038121 0.244976 0.858095
#
# Coordination Sequence:
#
# PCOD9370410 Si02
#       7
#    16  16  16  16  16  16  16
#     4  10  19  37  62  92 128 168 210 270 318 389
#     4   9  19  38  62  84 127 163 212 257 321 381
#     4  10  23  41  64  87 131 172 208 272 331 387
#     4  11  21  39  66  92 126 166 217 265 326 387
#     4   9  20  40  60  89 123 172 202 263 331 377
#     4  10  20  36  64  94 132 164 217 270 321 386
#     4  11  22  38  65  95 123 174 216 269 323 390
#
# _framework density 21.742919000000001
#
# number of rings (size 3 to 8) (size 9 to 14) (size 15 to 20)
#    0.000    2.000    1.429    2.571    4.000    1.143 
#    2.571    8.571    0.000    0.000    0.000    0.000 
#    0.000    0.000    0.000    0.000    0.000    0.000 
#
# Total GULP energy -156352.610953 kJ/mol
# GULP energy per Si atom -5584.021820 kJ/mol
# Density = 2.169343 g / cm^3
# Si number density = 21.742919 Si / 1000 Ang^3
#
#
#
# Elastic Constant Matrix: (Units=GPa)
#
#
# Indices 1 2 3 4 5 6 
#
# 1 174.7950 55.9891 17.6591 0.0000 0.0000 0.0000
# 2 55.9891 102.9288 22.4340 0.0000 0.0000 0.0000
# 3 17.6591 22.4340 20.1694 0.0000 0.0000 0.0000
# 4 0.0000 0.0000 0.0000 19.9397 0.0000 0.0000
# 5 0.0000 0.0000 0.0000 0.0000 26.2917 0.0000
# 6 0.0000 0.0000 0.0000 0.0000 0.0000 34.3294
#
#
#
# Elastic Compliance Matrix: (Units=1/GPa)
#
#
# Indices 1 2 3 4 5 6 
#
# 1 0.007023 -0.003274 -0.002508 0.000000 0.000000 0.000000
# 2 -0.003274 0.014350 -0.013095 0.000000 0.000000 0.000000
# 3 -0.002508 -0.013095 0.066342 0.000000 0.000000 0.000000
# 4 0.000000 0.000000 0.000000 0.050151 0.000000 0.000000
# 5 0.000000 0.000000 0.000000 0.000000 0.038035 0.000000
# 6 0.000000 0.000000 0.000000 0.000000 0.000000 0.029130
#
#
# Mechanical properties :
#
#
# Convention : Reuss Voigt Hill
#
# Bulk Modulus (GPa) = 20.01548 54.45084 37.23316
# Shear Modulus (GPa) = 19.27245 29.56623 24.41934
#
# Velocity S-wave (km/s) = 2.98044 3.69156 3.35489
# Velocity P-wave (km/s) = 4.59016 6.57781 5.67173
#
# Compressibility (1/GPa) = 0.04996134
#
# Stress axis : x y z
#
# Youngs Moduli (GPa) = 142.39096 69.68435 15.07351
#
# Poissons Ratio (x) = 0.22812 0.03780
# Poissons Ratio (y) = 0.46613 0.19740
# Poissons Ratio (z) = 0.35707 0.91255
#
# Static dielectric constant tensor:
#      x y z
#    x 1.820660 0.000000 0.000000 
#    y 0.000000 1.824620 0.000000 
#    z 0.000000 0.000000 1.807660 
# 
# From -- ./inp_files/8300.got.cif
#   From: 2010.05.17/outbox.cif.g08.bks.cpg/sg43_5_cif.got.tgz:8300.got - 2010.06.03 19:21:55.
