data_PCOD9370411
_publ_section_title
;
Structure prediction by ZEFSAII (Michael W. Deem and Ramdas Pophale) SiO2 
 PCOD9370411
Probable space group: F D D 2
;
_chemical_formula_sum "Si O2"
_cell_formula_units_Z 88
_cell_length_a 19.499592
_cell_length_b 8.699238
_cell_length_c 22.182344
_cell_angle_alpha 90.000000
_cell_angle_beta 90.000000
_cell_angle_gamma 90.000000
_cell_volume 3762.826321
_symmetry_space_group_name_H-M "F D D 2"
_symmetry_group_IT_number 43
_symmetry_cell_setting 'orthorhombic'
loop_
_space_group_symop_operation_xyz
x,y,z
-x,-y,z
1/4-x,1/4+y,1/4+z
1/4+x,1/4-y,1/4+z
x,1/2+y,1/2+z
-x,1/2-y,1/2+z
1/4-x,3/4+y,3/4+z
1/4+x,3/4-y,3/4+z
1/2+x,y,1/2+z
1/2-x,-y,1/2+z
3/4-x,1/4+y,3/4+z
3/4+x,1/4-y,3/4+z
1/2+x,1/2+y,z
1/2-x,1/2-y,z
3/4-x,3/4+y,1/4+z
3/4+x,3/4-y,1/4+z
loop_
_atom_site_type_symbol
_atom_site_label
_atom_site_fract_x
_atom_site_fract_y
_atom_site_fract_z
Si Si1 0.092796 0.750969 0.842390
Si Si2 0.140215 0.594739 0.019313
Si Si3 0.085547 0.809157 0.596628
Si Si4 0.250000 0.750000 0.105755
Si Si5 0.963783 0.146252 0.027170
Si Si6 0.762465 0.922782 0.973675
O O1 0.167422 0.675694 0.831488
O O2 0.059490 0.752417 0.775114
O O3 0.040500 0.647728 0.882021
O O4 0.106634 0.928638 0.858027
O O5 0.108699 0.458703 0.059916
O O6 0.190742 0.678348 0.065429
O O7 0.086904 0.725629 0.999099
O O8 0.190676 0.515575 0.970567
O O9 0.051468 0.840845 0.660907
O O10 0.027158 0.737049 0.554727
O O11 0.000000 0.000000 0.994175
O O12 0.750000 0.750000 0.995227
#
# Coordination Sequence:
#
# PCOD9370411 Si02
#       6
#    16  16  16   8  16  16
#     4   9  19  39  58  93 134 167 213 279 325 401
#     4  10  19  37  62  94 132 168 219 281 327 400
#     4  11  21  37  69  94 129 175 218 279 338 399
#     4   8  18  34  64  84 126 178 204 264 350 372
#     4   9  19  37  59  88 131 173 207 268 344 379
#     4  11  21  37  66  99 123 173 226 268 340 402
#
# _framework density 23.386675
#
# number of rings (size 3 to 8) (size 9 to 14) (size 15 to 20)
#    0.000    2.182    1.818    1.636    0.000    0.000 
#   29.455    0.000   24.000    0.000    4.727    0.000 
#    0.000    0.000    0.000    0.000    0.000    0.000 
#
# Total GULP energy -122675.546659 kJ/mol
# GULP energy per Si atom -5576.161212 kJ/mol
# Density = 2.333345 g / cm^3
# Si number density = 23.386675 Si / 1000 Ang^3
#
#
#
# Elastic Constant Matrix: (Units=GPa)
#
#
# Indices 1 2 3 4 5 6 
#
# 1 127.6306 85.1251 30.3001 0.0000 0.0000 0.0000
# 2 85.1251 165.2332 19.8549 0.0000 0.0000 0.0000
# 3 30.3001 19.8549 63.8944 0.0000 0.0000 0.0000
# 4 0.0000 0.0000 0.0000 -31.3626 0.0000 0.0000
# 5 0.0000 0.0000 0.0000 0.0000 51.7331 0.0000
# 6 0.0000 0.0000 0.0000 0.0000 0.0000 73.1163
#
#
#
# Elastic Compliance Matrix: (Units=1/GPa)
#
#
# Indices 1 2 3 4 5 6 
#
# 1 0.012949 -0.006163 -0.004225 0.000000 0.000000 0.000000
# 2 -0.006163 0.009220 0.000058 0.000000 0.000000 0.000000
# 3 -0.004225 0.000058 0.017637 0.000000 0.000000 0.000000
# 4 0.000000 0.000000 0.000000 -0.031885 0.000000 0.000000
# 5 0.000000 0.000000 0.000000 0.000000 0.019330 0.000000
# 6 0.000000 0.000000 0.000000 0.000000 0.000000 0.013677
#
#
# Mechanical properties :
#
#
# Convention : Reuss Voigt Hill
#
# Bulk Modulus (GPa) = 52.23650 69.70202 60.96926
# Shear Modulus (GPa) = 73.56034 33.46256 53.51145
#
# Velocity S-wave (km/s) = 5.61447 3.78675 4.78862
# Velocity P-wave (km/s) = 8.02584 6.99915 7.53002
#
# Compressibility (1/GPa) = 0.01914370
#
# Stress axis : x y z
#
# Youngs Moduli (GPa) = 77.22615 108.45551 56.69984
#
# Poissons Ratio (x) = 0.66845 0.23958
# Poissons Ratio (y) = 0.47597 -0.00327
# Poissons Ratio (z) = 0.32632 -0.00625
#
# Static dielectric constant tensor:
#      x y z
#    x 1.901650 0.000000 0.000000 
#    y 0.000000 1.989870 0.000000 
#    z 0.000000 0.000000 1.873190 
# 
# From -- ./inp_files/22342.got.cif
#   From: 2010.05.17/outbox.cif.g08.bks.cpg/sg43_12_cif.got.tgz:22342.got - 2010.06.03 19:21:55.
