data_PCOD9370546
_publ_section_title
;
Structure prediction by ZEFSAII (Michael W. Deem and Ramdas Pophale) SiO2 
 PCOD9370546
Probable space group: F D D 2
;
_chemical_formula_sum "Si O2"
_cell_formula_units_Z 112
_cell_length_a 13.512143
_cell_length_b 15.265405
_cell_length_c 25.607764
_cell_angle_alpha 90.000000
_cell_angle_beta 90.000000
_cell_angle_gamma 90.000000
_cell_volume 5282.070851
_symmetry_space_group_name_H-M "F D D 2"
_symmetry_group_IT_number 43
_symmetry_cell_setting 'orthorhombic'
loop_
_space_group_symop_operation_xyz
x,y,z
-x,-y,z
1/4-x,1/4+y,1/4+z
1/4+x,1/4-y,1/4+z
x,1/2+y,1/2+z
-x,1/2-y,1/2+z
1/4-x,3/4+y,3/4+z
1/4+x,3/4-y,3/4+z
1/2+x,y,1/2+z
1/2-x,-y,1/2+z
3/4-x,1/4+y,3/4+z
3/4+x,1/4-y,3/4+z
1/2+x,1/2+y,z
1/2-x,1/2-y,z
3/4-x,3/4+y,1/4+z
3/4+x,3/4-y,1/4+z
loop_
_atom_site_type_symbol
_atom_site_label
_atom_site_fract_x
_atom_site_fract_y
_atom_site_fract_z
Si Si1 0.895935 0.164520 0.468890
Si Si2 0.005546 0.202436 0.792424
Si Si3 0.345026 0.812660 0.736588
Si Si4 0.967637 0.230573 0.048427
Si Si5 0.099607 0.094368 0.561541
Si Si6 0.250000 0.250000 0.892486
Si Si7 0.344256 0.816943 0.616018
Si Si8 0.750000 0.750000 0.714870
O O1 0.823471 0.117252 0.511014
O O2 0.972996 0.222015 0.501262
O O3 0.839111 0.230321 0.431237
O O4 0.941417 0.079775 0.438539
O O5 0.940455 0.256119 0.751372
O O6 0.935457 0.148653 0.830480
O O7 0.065795 0.275206 0.825400
O O8 0.250000 0.750000 0.740276
O O9 0.353564 0.841863 0.676593
O O10 0.328311 0.891651 0.776805
O O11 0.051100 0.217090 0.092975
O O12 0.884553 0.302897 0.061842
O O13 0.007180 0.079390 0.601169
O O14 0.069528 0.055303 0.504826
O O15 0.250000 0.750000 0.611768
#
# Coordination Sequence:
#
# PCOD9370546 Si02
#       8
#    16  16  16  16  16   8  16   8
#     4  10  20  34  66  90 131 162 211 256 323 375
#     4  11  22  44  60  95 131 174 209 278 325 396
#     4  11  26  40  66  97 134 170 227 276 342 405
#     4  11  22  44  60  95 131 174 209 278 325 396
#     4   9  22  37  63  84 128 162 214 256 319 379
#     4  11  22  32  66 104 114 156 216 266 304 381
#     4  11  23  39  67  99 130 172 221 282 339 390
#     4   7  16  38  50  86 124 166 182 256 314 365
#
# _framework density 21.203804999999999
#
# number of rings (size 3 to 8) (size 9 to 14) (size 15 to 20)
#    0.000    1.714    2.857    1.714    4.000    0.571 
#    0.000    4.286    0.000    0.000    0.000    0.000 
#    0.000    0.000    0.000    0.000    0.000    0.000 
#
# Total GULP energy -156080.425460 kJ/mol
# GULP energy per Si atom -5574.300909 kJ/mol
# Density = 2.115554 g / cm^3
# Si number density = 21.203805 Si / 1000 Ang^3
#
#
#
# Elastic Constant Matrix: (Units=GPa)
#
#
# Indices 1 2 3 4 5 6 
#
# 1 27.0121 -5.1846 -2.1267 0.0000 0.0000 0.0000
# 2 -5.1846 50.9514 -1.7457 0.0000 0.0000 0.0000
# 3 -2.1267 -1.7457 53.4088 0.0000 0.0000 0.0000
# 4 0.0000 0.0000 0.0000 1.5135 0.0000 0.0000
# 5 0.0000 0.0000 0.0000 0.0000 -1.2805 0.0000
# 6 0.0000 0.0000 0.0000 0.0000 0.0000 36.4705
#
#
#
# Elastic Compliance Matrix: (Units=1/GPa)
#
#
# Indices 1 2 3 4 5 6 
#
# 1 0.037900 0.003913 0.001637 0.000000 0.000000 0.000000
# 2 0.003913 0.020052 0.000811 0.000000 0.000000 0.000000
# 3 0.001637 0.000811 0.018815 0.000000 0.000000 0.000000
# 4 0.000000 0.000000 0.000000 0.660699 0.000000 0.000000
# 5 0.000000 0.000000 0.000000 0.000000 -0.780969 0.000000
# 6 0.000000 0.000000 0.000000 0.000000 0.000000 0.027419
#
#
# Mechanical properties :
#
#
# Convention : Reuss Voigt Hill
#
# Bulk Modulus (GPa) = 11.17446 12.58427 11.87937
# Shear Modulus (GPa) = 4874.64693 16.70267 2445.67480
#
# Velocity S-wave (km/s) = 47.99937 2.80968 33.99878
# Velocity P-wave (km/s) = 55.47253 4.05876 39.32985
#
# Compressibility (1/GPa) = 0.08948976
#
# Stress axis : x y z
#
# Youngs Moduli (GPa) = 26.38500 49.86913 53.14854
#
# Poissons Ratio (x) = -0.19512 -0.08701
# Poissons Ratio (y) = -0.10324 -0.04312
# Poissons Ratio (z) = -0.04319 -0.04046
#
# Static dielectric constant tensor:
#      x y z
#    x 1.853160 0.000000 0.000000 
#    y 0.000000 1.792580 0.000000 
#    z 0.000000 0.000000 1.776520 
# 
# From -- ./inp_files/25644.got.cif
#   From: 2010.05.17/outbox.cif.g08.bks.cpg/sg43_13_cif.got.tgz:25644.got - 2010.06.03 19:21:55.
