data_PCOD9370217
_publ_section_title
;
Structure prediction by ZEFSAII (Michael W. Deem and Ramdas Pophale) SiO2 
 PCOD9370217
Probable space group: F D D 2
;
_chemical_formula_sum "Si O2"
_cell_formula_units_Z 120
_cell_length_a 8.849308
_cell_length_b 32.267529
_cell_length_c 18.163715
_cell_angle_alpha 90.000000
_cell_angle_beta 90.000000
_cell_angle_gamma 90.000000
_cell_volume 5186.563495
_symmetry_space_group_name_H-M "F D D 2"
_symmetry_group_IT_number 43
_symmetry_cell_setting 'orthorhombic'
loop_
_space_group_symop_operation_xyz
x,y,z
-x,-y,z
1/4-x,1/4+y,1/4+z
1/4+x,1/4-y,1/4+z
x,1/2+y,1/2+z
-x,1/2-y,1/2+z
1/4-x,3/4+y,3/4+z
1/4+x,3/4-y,3/4+z
1/2+x,y,1/2+z
1/2-x,-y,1/2+z
3/4-x,1/4+y,3/4+z
3/4+x,1/4-y,3/4+z
1/2+x,1/2+y,z
1/2-x,1/2-y,z
3/4-x,3/4+y,1/4+z
3/4+x,3/4-y,1/4+z
loop_
_atom_site_type_symbol
_atom_site_label
_atom_site_fract_x
_atom_site_fract_y
_atom_site_fract_z
Si Si1 0.078414 0.418258 0.646550
Si Si2 0.624030 0.279151 0.613883
Si Si3 0.142618 0.868251 0.018424
Si Si4 0.256615 0.948827 0.616885
Si Si5 0.401558 0.225428 0.525813
Si Si6 0.146200 0.619342 0.427900
Si Si7 0.250000 0.750000 0.340357
Si Si8 0.379758 0.936075 0.207828
O O1 0.180456 0.400156 0.581567
O O2 0.199089 0.437604 0.702446
O O3 0.994668 0.383121 0.695457
O O4 0.939249 0.444549 0.612553
O O5 0.750000 0.250000 0.650609
O O6 0.487009 0.249668 0.589928
O O7 0.587069 0.322124 0.653573
O O8 0.685450 0.295209 0.534580
O O9 0.142250 0.821359 0.047790
O O10 0.972259 0.878687 0.994560
O O11 0.249817 0.967844 0.700992
O O12 0.183853 0.902508 0.621343
O O13 0.157627 0.978135 0.562753
O O14 0.250000 0.250000 0.507681
O O15 0.303167 0.640288 0.449801
O O16 0.309417 0.712733 0.390563
#
# Coordination Sequence:
#
# PCOD9370217 Si02
#       8
#    16  16  16  16  16  16   8  16
#     4  10  23  38  67  92 138 174 224 270 348 403
#     4  12  21  36  67  94 125 169 228 275 326 401
#     4  10  23  43  63  98 132 179 218 282 334 419
#     4   9  19  36  57  90 127 162 212 273 330 386
#     4  10  20  33  62  93 124 155 224 284 321 374
#     4   9  23  36  59  91 133 165 215 270 340 391
#     4  10  18  36  58  92 124 164 216 272 320 390
#     4  11  21  36  63  97 126 164 219 280 336 386
#
# _framework density 23.136709
#
# number of rings (size 3 to 8) (size 9 to 14) (size 15 to 20)
#    0.000    2.133    2.000    3.200   11.200    0.000 
#    0.000    0.000    2.933    0.000    3.467    0.000 
#    0.000    0.000    0.000    0.000    0.000    0.000 
#
# Total GULP energy -167193.938748 kJ/mol
# GULP energy per Si atom -5573.131292 kJ/mol
# Density = 2.308405 g / cm^3
# Si number density = 23.136709 Si / 1000 Ang^3
#
#
#
# Elastic Constant Matrix: (Units=GPa)
#
#
# Indices 1 2 3 4 5 6 
#
# 1 90.1737 2.6151 5.6598 0.0000 0.0000 0.0000
# 2 2.6151 95.5826 20.8523 0.0000 0.0000 0.0000
# 3 5.6598 20.8523 13.1067 0.0000 0.0000 0.0000
# 4 0.0000 0.0000 0.0000 33.2198 0.0000 0.0000
# 5 0.0000 0.0000 0.0000 0.0000 9.7693 0.0000
# 6 0.0000 0.0000 0.0000 0.0000 0.0000 34.4672
#
#
#
# Elastic Compliance Matrix: (Units=1/GPa)
#
#
# Indices 1 2 3 4 5 6 
#
# 1 0.011484 0.001176 -0.006830 0.000000 0.000000 0.000000
# 2 0.001176 0.016144 -0.026193 0.000000 0.000000 0.000000
# 3 -0.006830 -0.026193 0.120918 0.000000 0.000000 0.000000
# 4 0.000000 0.000000 0.000000 0.030103 0.000000 0.000000
# 5 0.000000 0.000000 0.000000 0.000000 0.102362 0.000000
# 6 0.000000 0.000000 0.000000 0.000000 0.000000 0.029013
#
#
# Mechanical properties :
#
#
# Convention : Reuss Voigt Hill
#
# Bulk Modulus (GPa) = 11.78507 28.56858 20.17682
# Shear Modulus (GPa) = 12.43776 26.80696 19.62236
#
# Velocity S-wave (km/s) = 2.32109 3.40756 2.91538
# Velocity P-wave (km/s) = 3.50542 5.27793 4.48021
#
# Compressibility (1/GPa) = 0.08485315
#
# Stress axis : x y z
#
# Youngs Moduli (GPa) = 87.07549 61.94190 8.27007
#
# Poissons Ratio (x) = -0.07283 0.05648
# Poissons Ratio (y) = -0.10238 0.21661
# Poissons Ratio (z) = 0.59471 1.62242
#
# Static dielectric constant tensor:
#      x y z
#    x 1.949690 0.000000 0.000000 
#    y 0.000000 1.906000 0.000000 
#    z 0.000000 0.000000 1.895620 
# 
# From -- ./inp_files/20532.got.cif
#   From: 2010.05.17/outbox.cif.g08.bks.cpg/sg43_11_cif.got.tgz:20532.got - 2010.06.03 19:21:55.
