data_PCOD9370291
_publ_section_title
;
Structure prediction by ZEFSAII (Michael W. Deem and Ramdas Pophale) SiO2 
 PCOD9370291
Probable space group: F D D 2
;
_chemical_formula_sum "Si O2"
_cell_formula_units_Z 120
_cell_length_a 22.988370
_cell_length_b 29.014957
_cell_length_c 9.186235
_cell_angle_alpha 90.000000
_cell_angle_beta 90.000000
_cell_angle_gamma 90.000000
_cell_volume 6127.279071
_symmetry_space_group_name_H-M "F D D 2"
_symmetry_group_IT_number 43
_symmetry_cell_setting 'orthorhombic'
loop_
_space_group_symop_operation_xyz
x,y,z
-x,-y,z
1/4-x,1/4+y,1/4+z
1/4+x,1/4-y,1/4+z
x,1/2+y,1/2+z
-x,1/2-y,1/2+z
1/4-x,3/4+y,3/4+z
1/4+x,3/4-y,3/4+z
1/2+x,y,1/2+z
1/2-x,-y,1/2+z
3/4-x,1/4+y,3/4+z
3/4+x,1/4-y,3/4+z
1/2+x,1/2+y,z
1/2-x,1/2-y,z
3/4-x,3/4+y,1/4+z
3/4+x,3/4-y,1/4+z
loop_
_atom_site_type_symbol
_atom_site_label
_atom_site_fract_x
_atom_site_fract_y
_atom_site_fract_z
Si Si1 0.436563 0.136342 0.590050
Si Si2 0.518412 0.843912 0.895221
Si Si3 0.231433 0.812898 0.279242
Si Si4 0.500000 0.500000 0.763134
Si Si5 0.854078 0.064885 0.260223
Si Si6 0.461079 0.423921 0.980264
Si Si7 0.094914 0.536169 0.765665
Si Si8 0.640259 0.363414 0.492770
O O1 0.473985 0.158491 0.722145
O O2 0.390575 0.101071 0.662782
O O3 0.479799 0.106027 0.490969
O O4 0.397956 0.177375 0.525291
O O5 0.463063 0.817372 0.958489
O O6 0.580460 0.835453 0.970394
O O7 0.509675 0.897670 0.933280
O O8 0.273661 0.786268 0.391706
O O9 0.192726 0.784805 0.164072
O O10 0.186652 0.838941 0.386006
O O11 0.464475 0.467944 0.872722
O O12 0.860661 0.085356 0.423793
O O13 0.880606 0.014653 0.240326
O O14 0.412757 0.391175 0.906570
O O15 0.445255 0.444239 0.136768
#
# Coordination Sequence:
#
# PCOD9370291 Si02
#       8
#    16  16  16   8  16  16  16  16
#     4  11  21  42  66  92 132 167 216 273 328 388
#     4  10  18  42  64  85 128 171 209 263 319 395
#     4  10  20  38  63  90 119 168 216 257 320 384
#     4  10  24  36  60  98 128 158 220 270 312 388
#     4  10  22  39  65  93 123 172 221 259 322 408
#     4  11  23  42  63  99 135 164 216 286 333 382
#     4  12  23  40  68  97 125 172 221 263 337 394
#     4   9  21  41  60  86 130 167 205 269 327 381
#
# _framework density 19.584551000000001
#
# number of rings (size 3 to 8) (size 9 to 14) (size 15 to 20)
#    0.000    1.600    5.333    0.800    3.733    3.733 
#    4.800    1.333    0.000    0.000    0.000    0.000 
#    0.000    0.000    0.000    0.000    0.000    0.000 
#
# Total GULP energy -167082.291112 kJ/mol
# GULP energy per Si atom -5569.409704 kJ/mol
# Density = 1.953998 g / cm^3
# Si number density = 19.584551 Si / 1000 Ang^3
#
#
#
# Elastic Constant Matrix: (Units=GPa)
#
#
# Indices 1 2 3 4 5 6 
#
# 1 60.2524 6.4573 7.2784 0.0001 -0.0002 0.0000
# 2 6.4573 71.0116 11.1292 0.0001 -0.0002 0.0001
# 3 7.2784 11.1292 59.0678 -0.0001 0.0001 0.0004
# 4 0.0001 0.0001 -0.0001 14.3316 0.0000 0.0003
# 5 -0.0002 -0.0002 0.0001 0.0000 25.5806 -0.0001
# 6 0.0000 0.0001 0.0004 0.0003 -0.0001 23.3352
#
#
#
# Elastic Compliance Matrix: (Units=1/GPa)
#
#
# Indices 1 2 3 4 5 6 
#
# 1 0.016955 -0.001251 -0.001853 0.000000 0.000000 0.000000
# 2 -0.001251 0.014603 -0.002597 0.000000 0.000000 0.000000
# 3 -0.001853 -0.002597 0.017647 0.000000 0.000000 0.000000
# 4 0.000000 0.000000 0.000000 0.069776 0.000000 -0.000001
# 5 0.000000 0.000000 0.000000 0.000000 0.039092 0.000000
# 6 0.000000 0.000000 0.000000 -0.000001 0.000000 0.042854
#
#
# Mechanical properties :
#
#
# Convention : Reuss Voigt Hill
#
# Bulk Modulus (GPa) = 26.45404 26.67352 26.56378
# Shear Modulus (GPa) = 22.22900 23.68060 22.95480
#
# Velocity S-wave (km/s) = 3.37267 3.48105 3.42729
# Velocity P-wave (km/s) = 5.35756 5.45951 5.40877
#
# Compressibility (1/GPa) = 0.03780141
#
# Stress axis : x y z
#
# Youngs Moduli (GPa) = 58.98019 68.47889 56.66540
#
# Poissons Ratio (x) = 0.08569 0.10503
# Poissons Ratio (y) = 0.07380 0.14717
# Poissons Ratio (z) = 0.10932 0.17786
#
# Static dielectric constant tensor:
#      x y z
#    x 1.745240 0.000000 0.000000 
#    y 0.000000 1.742820 0.000000 
#    z 0.000000 0.000000 1.715900 
# 
# From -- ./inp_files/4007.got.cif
#   From: 2010.05.17/outbox.cif.g08.bks.cpg/sg43_3_cif.got.tgz:4007.got - 2010.06.03 19:21:55.
