data_PCOD9370208
_publ_section_title
;
Structure prediction by ZEFSAII (Michael W. Deem and Ramdas Pophale) SiO2 
 PCOD9370208
Probable space group: F D D 2
;
_chemical_formula_sum "Si O2"
_cell_formula_units_Z 96
_cell_length_a 23.587331
_cell_length_b 11.815500
_cell_length_c 17.363462
_cell_angle_alpha 90.000000
_cell_angle_beta 90.000000
_cell_angle_gamma 90.000000
_cell_volume 4839.129306
_symmetry_space_group_name_H-M "F D D 2"
_symmetry_group_IT_number 43
_symmetry_cell_setting 'orthorhombic'
loop_
_space_group_symop_operation_xyz
x,y,z
-x,-y,z
1/4-x,1/4+y,1/4+z
1/4+x,1/4-y,1/4+z
x,1/2+y,1/2+z
-x,1/2-y,1/2+z
1/4-x,3/4+y,3/4+z
1/4+x,3/4-y,3/4+z
1/2+x,y,1/2+z
1/2-x,-y,1/2+z
3/4-x,1/4+y,3/4+z
3/4+x,1/4-y,3/4+z
1/2+x,1/2+y,z
1/2-x,1/2-y,z
3/4-x,3/4+y,1/4+z
3/4+x,3/4-y,1/4+z
loop_
_atom_site_type_symbol
_atom_site_label
_atom_site_fract_x
_atom_site_fract_y
_atom_site_fract_z
Si Si1 0.661418 0.553106 0.986980
Si Si2 0.496989 0.868447 0.108266
Si Si3 0.682995 0.756008 0.107496
Si Si4 0.412447 0.806926 0.226449
Si Si5 0.466410 0.615148 0.454412
Si Si6 0.995424 0.634859 0.788433
O O1 0.706851 0.596285 0.923630
O O2 0.605615 0.528559 0.934125
O O3 0.660476 0.646799 0.056353
O O4 0.694017 0.442234 0.019338
O O5 0.436415 0.846040 0.144175
O O6 0.500000 0.000000 0.091542
O O7 0.511792 0.812764 0.026971
O O8 0.750000 0.750000 0.126917
O O9 0.679739 0.858170 0.045190
O O10 0.345971 0.821036 0.222436
O O11 0.444450 0.688150 0.238060
O O12 0.500000 0.500000 0.441784
O O13 0.475978 0.674171 0.373551
O O14 0.000000 0.500000 0.779436
#
# Coordination Sequence:
#
# PCOD9370208 Si02
#       6
#    16  16  16  16  16  16
#     4  11  23  43  70 100 139 181 226 294 346 421
#     4  10  18  35  62 100 126 161 220 280 340 391
#     4  12  23  42  72 105 136 180 233 297 353 411
#     4  11  21  37  72  96 132 168 226 289 341 405
#     4  10  23  37  63  99 127 171 225 276 340 406
#     4  10  24  47  62  94 144 185 221 281 347 421
#
# _framework density 19.838280000000001
#
# number of rings (size 3 to 8) (size 9 to 14) (size 15 to 20)
#    0.000    1.333    6.667    0.000    7.000    0.000 
#    6.000    0.833    0.000    0.000    0.000    0.000 
#    0.000    0.000    0.000    0.000    0.000    0.000 
#
# Total GULP energy -133602.452035 kJ/mol
# GULP energy per Si atom -5566.768835 kJ/mol
# Density = 1.979313 g / cm^3
# Si number density = 19.838280 Si / 1000 Ang^3
#
#
#
# Elastic Constant Matrix: (Units=GPa)
#
#
# Indices 1 2 3 4 5 6 
#
# 1 121.7753 26.7368 18.8827 0.0000 0.0000 0.0000
# 2 26.7368 98.2905 33.0589 0.0000 0.0000 0.0000
# 3 18.8827 33.0589 68.2558 0.0000 0.0000 0.0000
# 4 0.0000 0.0000 0.0000 -7.6333 0.0000 0.0000
# 5 0.0000 0.0000 0.0000 0.0000 44.6703 0.0000
# 6 0.0000 0.0000 0.0000 0.0000 0.0000 15.8235
#
#
#
# Elastic Compliance Matrix: (Units=1/GPa)
#
#
# Indices 1 2 3 4 5 6 
#
# 1 0.008866 -0.001896 -0.001535 0.000000 0.000000 0.000000
# 2 -0.001896 0.012559 -0.005558 0.000000 0.000000 0.000000
# 3 -0.001535 -0.005558 0.017767 0.000000 0.000000 0.000000
# 4 0.000000 0.000000 0.000000 -0.131005 0.000000 0.000000
# 5 0.000000 0.000000 0.000000 0.000000 0.022386 0.000000
# 6 0.000000 0.000000 0.000000 0.000000 0.000000 0.063197
#
#
# Mechanical properties :
#
#
# Convention : Reuss Voigt Hill
#
# Bulk Modulus (GPa) = 47.13588 49.51982 48.32785
# Shear Modulus (GPa) = 265.66731 24.54830 145.10780
#
# Velocity S-wave (km/s) = 11.58478 3.52152 8.56178
# Velocity P-wave (km/s) = 14.23919 6.44598 11.05227
#
# Compressibility (1/GPa) = 0.02121526
#
# Stress axis : x y z
#
# Youngs Moduli (GPa) = 112.79051 79.62380 56.28257
#
# Poissons Ratio (x) = 0.15093 0.08637
# Poissons Ratio (y) = 0.21380 0.31284
# Poissons Ratio (z) = 0.17309 0.44258
#
# Static dielectric constant tensor:
#      x y z
#    x 1.594770 0.000000 0.000000 
#    y 0.000000 1.727620 0.000000 
#    z 0.000000 0.000000 1.835530 
# 
# From -- ./inp_files/13332.got.cif
#   From: 2010.05.17/outbox.cif.g08.bks.cpg/sg43_7_cif.got.tgz:13332.got - 2010.06.03 19:21:55.
