data_PCOD9370792
_publ_section_title
;
Structure prediction by ZEFSAII (Michael W. Deem and Ramdas Pophale) SiO2 
 PCOD9370792
Probable space group: F D D 2
;
_chemical_formula_sum "Si O2"
_cell_formula_units_Z 88
_cell_length_a 7.808076
_cell_length_b 19.737145
_cell_length_c 23.677904
_cell_angle_alpha 90.000000
_cell_angle_beta 90.000000
_cell_angle_gamma 90.000000
_cell_volume 3648.981143
_symmetry_space_group_name_H-M "F D D 2"
_symmetry_group_IT_number 43
_symmetry_cell_setting 'orthorhombic'
loop_
_space_group_symop_operation_xyz
x,y,z
-x,-y,z
1/4-x,1/4+y,1/4+z
1/4+x,1/4-y,1/4+z
x,1/2+y,1/2+z
-x,1/2-y,1/2+z
1/4-x,3/4+y,3/4+z
1/4+x,3/4-y,3/4+z
1/2+x,y,1/2+z
1/2-x,-y,1/2+z
3/4-x,1/4+y,3/4+z
3/4+x,1/4-y,3/4+z
1/2+x,1/2+y,z
1/2-x,1/2-y,z
3/4-x,3/4+y,1/4+z
3/4+x,3/4-y,1/4+z
loop_
_atom_site_type_symbol
_atom_site_label
_atom_site_fract_x
_atom_site_fract_y
_atom_site_fract_z
Si Si1 0.251425 0.344429 0.345880
Si Si2 0.250000 0.750000 0.448036
Si Si3 0.952944 0.747794 0.628944
Si Si4 0.836831 0.621494 0.137477
Si Si5 0.180478 0.926403 0.982630
Si Si6 0.641515 0.946822 0.718160
O O1 0.254262 0.426907 0.348319
O O2 0.340792 0.315302 0.291550
O O3 0.349933 0.316359 0.401332
O O4 0.047999 0.333090 0.347526
O O5 0.284459 0.816249 0.410853
O O6 0.424770 0.729288 0.479299
O O7 0.750000 0.750000 0.624405
O O8 0.062801 0.813825 0.612748
O O9 0.002667 0.738018 0.695177
O O10 0.712331 0.642846 0.190354
O O11 0.340125 0.875671 0.992774
O O12 0.500000 0.000000 0.738487
#
# Coordination Sequence:
#
# PCOD9370792 Si02
#       6
#    16   8  16  16  16  16
#     4  10  21  40  66  95 131 168 227 284 326 406
#     4  12  20  42  68  92 134 178 222 264 346 400
#     4  10  21  43  65  95 135 180 221 279 345 403
#     4  10  21  41  65  95 130 185 218 275 348 395
#     4  10  21  40  66  96 129 170 227 282 330 400
#     4  10  20  40  63  91 129 173 210 268 338 386
#
# _framework density 24.116320000000002
#
# number of rings (size 3 to 8) (size 9 to 14) (size 15 to 20)
#    0.000    2.182    3.636    4.364    0.000    2.182 
#    4.909    3.636    0.000    0.000    0.000    0.000 
#    0.000    0.000    0.000    0.000    0.000    0.000 
#
# Total GULP energy -122926.886123 kJ/mol
# GULP energy per Si atom -5587.585733 kJ/mol
# Density = 2.406143 g / cm^3
# Si number density = 24.116320 Si / 1000 Ang^3
#
#
#
# Elastic Constant Matrix: (Units=GPa)
#
#
# Indices 1 2 3 4 5 6 
#
# 1 162.1564 40.4947 18.2144 0.0000 0.0000 0.0000
# 2 40.4947 105.3236 3.3027 0.0000 0.0000 0.0000
# 3 18.2144 3.3027 92.7551 0.0000 0.0000 0.0000
# 4 0.0000 0.0000 0.0000 16.6586 0.0000 0.0000
# 5 0.0000 0.0000 0.0000 0.0000 2.6293 0.0000
# 6 0.0000 0.0000 0.0000 0.0000 0.0000 46.1934
#
#
#
# Elastic Compliance Matrix: (Units=1/GPa)
#
#
# Indices 1 2 3 4 5 6 
#
# 1 0.006969 -0.002640 -0.001275 0.000000 0.000000 0.000000
# 2 -0.002640 0.010505 0.000144 0.000000 0.000000 0.000000
# 3 -0.001275 0.000144 0.011026 0.000000 0.000000 0.000000
# 4 0.000000 0.000000 0.000000 0.060029 0.000000 0.000000
# 5 0.000000 0.000000 0.000000 0.000000 0.380333 0.000000
# 6 0.000000 0.000000 0.000000 0.000000 0.000000 0.021648
#
#
# Mechanical properties :
#
#
# Convention : Reuss Voigt Hill
#
# Bulk Modulus (GPa) = 47.70840 53.80651 50.75746
# Shear Modulus (GPa) = 9.90026 32.97779 21.43903
#
# Velocity S-wave (km/s) = 2.02833 3.70191 2.98482
# Velocity P-wave (km/s) = 5.03101 6.37431 5.74208
#
# Compressibility (1/GPa) = 0.02096067
#
# Stress axis : x y z
#
# Youngs Moduli (GPa) = 143.48811 95.19385 90.69281
#
# Poissons Ratio (x) = 0.25127 0.11559
# Poissons Ratio (y) = 0.37874 -0.01309
# Poissons Ratio (z) = 0.18288 -0.01374
#
# Static dielectric constant tensor:
#      x y z
#    x 1.982880 0.000000 0.000000 
#    y 0.000000 1.974400 0.000000 
#    z 0.000000 0.000000 1.982920 
# 
# From -- ./inp_files/20217.got.cif
#   From: 2010.05.17/outbox.cif.g08.bks.cpg/sg43_11_cif.got.tgz:20217.got - 2010.06.03 19:21:55.
