data_PCOD9370600
_publ_section_title
;
Structure prediction by ZEFSAII (Michael W. Deem and Ramdas Pophale) SiO2 
 PCOD9370600
Probable space group: F D D 2
;
_chemical_formula_sum "Si O2"
_cell_formula_units_Z 120
_cell_length_a 11.673654
_cell_length_b 33.780373
_cell_length_c 15.689919
_cell_angle_alpha 90.000000
_cell_angle_beta 90.000000
_cell_angle_gamma 90.000000
_cell_volume 6187.168721
_symmetry_space_group_name_H-M "F D D 2"
_symmetry_group_IT_number 43
_symmetry_cell_setting 'orthorhombic'
loop_
_space_group_symop_operation_xyz
x,y,z
-x,-y,z
1/4-x,1/4+y,1/4+z
1/4+x,1/4-y,1/4+z
x,1/2+y,1/2+z
-x,1/2-y,1/2+z
1/4-x,3/4+y,3/4+z
1/4+x,3/4-y,3/4+z
1/2+x,y,1/2+z
1/2-x,-y,1/2+z
3/4-x,1/4+y,3/4+z
3/4+x,1/4-y,3/4+z
1/2+x,1/2+y,z
1/2-x,1/2-y,z
3/4-x,3/4+y,1/4+z
3/4+x,3/4-y,1/4+z
loop_
_atom_site_type_symbol
_atom_site_label
_atom_site_fract_x
_atom_site_fract_y
_atom_site_fract_z
Si Si1 0.409918 0.931586 0.239130
Si Si2 0.458496 0.956068 0.051646
Si Si3 0.500000 0.000000 0.791262
Si Si4 0.237804 0.969064 0.348320
Si Si5 0.139315 0.909193 0.455907
Si Si6 0.423427 0.532996 0.883157
Si Si7 0.288212 0.663109 0.046103
Si Si8 0.270785 0.912554 0.936190
O O1 0.427893 0.953823 0.150561
O O2 0.281138 0.940507 0.272546
O O3 0.427395 0.885063 0.224363
O O4 0.496712 0.947694 0.310882
O O5 0.500000 0.000000 0.028374
O O6 0.563153 0.926466 0.031811
O O7 0.352960 0.939750 0.995637
O O8 0.386333 0.011437 0.842555
O O9 0.530112 0.043194 0.753073
O O10 0.237150 0.940723 0.430815
O O11 0.323970 0.005445 0.344900
O O12 0.055469 0.909123 0.372896
O O13 0.500000 0.500000 0.932016
O O14 0.352368 0.566431 0.930159
O O15 0.409516 0.658865 0.096557
O O16 0.253451 0.629452 0.979886
#
# Coordination Sequence:
#
# PCOD9370600 Si02
#       8
#    16  16   8  16  16  16  16  16
#     4  11  22  40  61  93 127 162 200 266 319 366
#     4  11  22  37  65  94 123 156 214 267 307 359
#     4  10  20  36  64  92 116 168 212 248 308 382
#     4  10  20  38  62  89 123 161 214 244 311 379
#     4  10  21  36  60  95 114 159 210 263 298 358
#     4  10  22  42  63  85 129 176 200 244 322 391
#     4  10  22  37  66  92 121 160 212 263 308 368
#     4  11  22  41  63  91 127 163 212 261 319 369
#
# _framework density 19.394977999999998
#
# number of rings (size 3 to 8) (size 9 to 14) (size 15 to 20)
#    0.000    1.600    2.667    2.800   12.133    0.000 
#    7.200    0.000    5.867    0.000    0.000    0.000 
#    0.000    0.000    0.000    0.000    0.000    0.000 
#
# Total GULP energy -167116.049529 kJ/mol
# GULP energy per Si atom -5570.534984 kJ/mol
# Density = 1.935083 g / cm^3
# Si number density = 19.394978 Si / 1000 Ang^3
#
#
#
# Elastic Constant Matrix: (Units=GPa)
#
#
# Indices 1 2 3 4 5 6 
#
# 1 85.8412 54.9529 28.3416 0.0000 0.0000 0.0000
# 2 54.9529 153.7663 25.4337 0.0000 0.0000 0.0000
# 3 28.3416 25.4337 49.0094 0.0000 0.0000 0.0000
# 4 0.0000 0.0000 0.0000 19.1022 0.0000 0.0000
# 5 0.0000 0.0000 0.0000 0.0000 16.9048 0.0000
# 6 0.0000 0.0000 0.0000 0.0000 0.0000 32.7088
#
#
#
# Elastic Compliance Matrix: (Units=1/GPa)
#
#
# Indices 1 2 3 4 5 6 
#
# 1 0.017262 -0.004942 -0.007418 0.000000 0.000000 0.000000
# 2 -0.004942 0.008529 -0.001568 0.000000 0.000000 0.000000
# 3 -0.007418 -0.001568 0.025508 0.000000 0.000000 0.000000
# 4 0.000000 0.000000 0.000000 0.052350 0.000000 0.000000
# 5 0.000000 0.000000 0.000000 0.000000 0.059155 0.000000
# 6 0.000000 0.000000 0.000000 0.000000 0.000000 0.030573
#
#
# Mechanical properties :
#
#
# Convention : Reuss Voigt Hill
#
# Bulk Modulus (GPa) = 42.65729 56.23035 49.44382
# Shear Modulus (GPa) = 21.82954 25.73574 23.78264
#
# Velocity S-wave (km/s) = 3.35852 3.64665 3.50555
# Velocity P-wave (km/s) = 6.08944 6.84003 6.47562
#
# Compressibility (1/GPa) = 0.02344265
#
# Stress axis : x y z
#
# Youngs Moduli (GPa) = 57.92939 117.24683 39.20392
#
# Poissons Ratio (x) = 0.57947 0.29081
# Poissons Ratio (y) = 0.28630 0.06148
# Poissons Ratio (z) = 0.42971 0.18386
#
# Static dielectric constant tensor:
#      x y z
#    x 1.672020 0.000000 0.000000 
#    y 0.000000 1.751930 0.000000 
#    z 0.000000 0.000000 1.681160 
# 
# From -- ./inp_files/13548.got.cif
#   From: 2010.05.17/outbox.cif.g08.bks.cpg/sg43_7_cif.got.tgz:13548.got - 2010.06.03 19:21:55.
