data_PCOD9370943
_publ_section_title
;
Structure prediction by ZEFSAII (Michael W. Deem and Ramdas Pophale) SiO2 
 PCOD9370943
Probable space group: F D D 2
;
_chemical_formula_sum "Si O2"
_cell_formula_units_Z 88
_cell_length_a 11.721572
_cell_length_b 9.132659
_cell_length_c 29.686651
_cell_angle_alpha 90.000000
_cell_angle_beta 90.000000
_cell_angle_gamma 90.000000
_cell_volume 3177.929866
_symmetry_space_group_name_H-M "F D D 2"
_symmetry_group_IT_number 43
_symmetry_cell_setting 'orthorhombic'
loop_
_space_group_symop_operation_xyz
x,y,z
-x,-y,z
1/4-x,1/4+y,1/4+z
1/4+x,1/4-y,1/4+z
x,1/2+y,1/2+z
-x,1/2-y,1/2+z
1/4-x,3/4+y,3/4+z
1/4+x,3/4-y,3/4+z
1/2+x,y,1/2+z
1/2-x,-y,1/2+z
3/4-x,1/4+y,3/4+z
3/4+x,1/4-y,3/4+z
1/2+x,1/2+y,z
1/2-x,1/2-y,z
3/4-x,3/4+y,1/4+z
3/4+x,3/4-y,1/4+z
loop_
_atom_site_type_symbol
_atom_site_label
_atom_site_fract_x
_atom_site_fract_y
_atom_site_fract_z
Si Si1 0.192489 0.051426 0.274300
Si Si2 0.368338 0.810060 0.362664
Si Si3 0.115597 0.871658 0.847508
Si Si4 0.475465 0.706483 0.254558
Si Si5 0.500000 0.000000 0.670019
Si Si6 0.323597 0.398650 0.702710
O O1 0.398231 0.318270 0.273535
O O2 0.289243 0.083368 0.310749
O O3 0.113052 0.905522 0.279434
O O4 0.249693 0.025233 0.226117
O O5 0.250000 0.750000 0.341977
O O6 0.485654 0.828967 0.333307
O O7 0.369245 0.979643 0.377614
O O8 0.147777 0.748365 0.883827
O O9 0.115861 0.295874 0.905044
O O10 0.489235 0.632892 0.204447
O O11 0.418595 0.858200 0.240312
O O12 0.250000 0.250000 0.698767
#
# Coordination Sequence:
#
# PCOD9370943 Si02
#       6
#    16  16  16  16   8  16
#     4   9  20  41  69 108 152 199 247 326 377 462
#     4  11  25  44  68 108 153 202 253 320 384 463
#     4  11  24  46  68 109 159 195 255 319 399 471
#     4   9  19  41  76 110 138 198 273 305 384 468
#     4  10  20  44  74 102 144 190 250 316 376 470
#     4  10  20  42  80 109 146 202 258 317 380 465
#
# _framework density 27.690984
#
# number of rings (size 3 to 8) (size 9 to 14) (size 15 to 20)
#    0.000    2.182    0.000    4.364    0.000    3.636 
#   16.364    5.455    0.000    0.000    0.000    0.000 
#    0.000    0.000    0.000    0.000    0.000    0.000 
#
# Total GULP energy -122941.616612 kJ/mol
# GULP energy per Si atom -5588.255301 kJ/mol
# Density = 2.762796 g / cm^3
# Si number density = 27.690984 Si / 1000 Ang^3
#
#
#
# Elastic Constant Matrix: (Units=GPa)
#
#
# Indices 1 2 3 4 5 6 
#
# 1 219.7784 61.2796 81.9961 0.0000 0.0000 0.0000
# 2 61.2796 95.1721 26.6713 0.0000 0.0000 0.0000
# 3 81.9961 26.6713 104.0883 0.0000 0.0000 0.0000
# 4 0.0000 0.0000 0.0000 39.1678 0.0000 0.0000
# 5 0.0000 0.0000 0.0000 0.0000 44.0073 0.0000
# 6 0.0000 0.0000 0.0000 0.0000 0.0000 51.9531
#
#
#
# Elastic Compliance Matrix: (Units=1/GPa)
#
#
# Indices 1 2 3 4 5 6 
#
# 1 0.007308 -0.003332 -0.004904 0.000000 0.000000 0.000000
# 2 -0.003332 0.012839 -0.000665 0.000000 0.000000 0.000000
# 3 -0.004904 -0.000665 0.013641 0.000000 0.000000 0.000000
# 4 0.000000 0.000000 0.000000 0.025531 0.000000 0.000000
# 5 0.000000 0.000000 0.000000 0.000000 0.022724 0.000000
# 6 0.000000 0.000000 0.000000 0.000000 0.000000 0.019248
#
#
# Mechanical properties :
#
#
# Convention : Reuss Voigt Hill
#
# Bulk Modulus (GPa) = 62.55138 84.32588 73.43863
# Shear Modulus (GPa) = 40.18629 43.63175 41.90902
#
# Velocity S-wave (km/s) = 3.81365 3.97377 3.89453
# Velocity P-wave (km/s) = 6.48306 7.18144 6.84116
#
# Compressibility (1/GPa) = 0.01598686
#
# Stress axis : x y z
#
# Youngs Moduli (GPa) = 136.82874 77.88852 73.31093
#
# Poissons Ratio (x) = 0.25949 0.35949
# Poissons Ratio (y) = 0.45585 0.04878
# Poissons Ratio (z) = 0.67095 0.05182
#
# Static dielectric constant tensor:
#      x y z
#    x 2.433060 0.000000 0.000000 
#    y 0.000000 2.257140 0.000000 
#    z 0.000000 0.000000 2.184530 
# 
# From -- ./inp_files/29648.got.cif
#   From: 2010.05.17/outbox.cif.g08.bks.cpg/sg43_15_cif.got.tgz:29648.got - 2010.06.03 19:21:55.
