data_PCOD9370577
_publ_section_title
;
Structure prediction by ZEFSAII (Michael W. Deem and Ramdas Pophale) SiO2 
 PCOD9370577
Probable space group: F D D 2
;
_chemical_formula_sum "Si O2"
_cell_formula_units_Z 120
_cell_length_a 18.436371
_cell_length_b 24.665677
_cell_length_c 12.944837
_cell_angle_alpha 90.000000
_cell_angle_beta 90.000000
_cell_angle_gamma 90.000000
_cell_volume 5886.607308
_symmetry_space_group_name_H-M "F D D 2"
_symmetry_group_IT_number 43
_symmetry_cell_setting 'orthorhombic'
loop_
_space_group_symop_operation_xyz
x,y,z
-x,-y,z
1/4-x,1/4+y,1/4+z
1/4+x,1/4-y,1/4+z
x,1/2+y,1/2+z
-x,1/2-y,1/2+z
1/4-x,3/4+y,3/4+z
1/4+x,3/4-y,3/4+z
1/2+x,y,1/2+z
1/2-x,-y,1/2+z
3/4-x,1/4+y,3/4+z
3/4+x,1/4-y,3/4+z
1/2+x,1/2+y,z
1/2-x,1/2-y,z
3/4-x,3/4+y,1/4+z
3/4+x,3/4-y,1/4+z
loop_
_atom_site_type_symbol
_atom_site_label
_atom_site_fract_x
_atom_site_fract_y
_atom_site_fract_z
Si Si1 0.750000 0.750000 0.536820
Si Si2 0.156485 0.462518 0.582824
Si Si3 0.766643 0.322054 0.229922
Si Si4 0.635679 0.761455 0.812824
Si Si5 0.760287 0.979078 0.412194
Si Si6 0.452169 0.627890 0.032245
Si Si7 0.715806 0.551450 0.736685
Si Si8 0.907519 0.426941 0.623416
O O1 0.784048 0.792849 0.619933
O O2 0.799694 0.711229 0.464585
O O3 0.206979 0.446202 0.487090
O O4 0.095125 0.417487 0.591182
O O5 0.208696 0.464720 0.680992
O O6 0.126814 0.522446 0.562187
O O7 0.683152 0.308974 0.258920
O O8 0.812147 0.289878 0.315798
O O9 0.784969 0.384195 0.232251
O O10 0.570128 0.746284 0.737154
O O11 0.600424 0.778989 0.919365
O O12 0.796846 0.935743 0.337526
O O13 0.719039 0.024171 0.347454
O O14 0.534746 0.605193 0.050407
O O15 0.407443 0.640917 0.925596
#
# Coordination Sequence:
#
# PCOD9370577 Si02
#       8
#     8  16  16  16  16  16  16  16
#     4  10  20  36  60 100 126 158 210 282 322 392
#     4  11  23  40  62  98 128 169 221 274 326 407
#     4  10  22  39  63  92 126 164 212 267 329 384
#     4   9  22  40  60  93 126 156 216 266 317 402
#     4  11  23  40  61  95 128 162 225 262 329 401
#     4  12  22  40  64  96 131 176 207 279 333 401
#     4  11  23  38  66  89 130 173 213 267 330 386
#     4  12  23  39  68  96 139 168 224 269 350 395
#
# _framework density 20.385256999999999
#
# number of rings (size 3 to 8) (size 9 to 14) (size 15 to 20)
#    0.000    1.333    4.000    3.200    3.733    0.000 
#    2.400    0.000    5.867    0.000    0.000    0.000 
#    0.000    0.000    0.000    0.000    0.000    0.000 
#
# Total GULP energy -167226.840300 kJ/mol
# GULP energy per Si atom -5574.228010 kJ/mol
# Density = 2.033886 g / cm^3
# Si number density = 20.385257 Si / 1000 Ang^3
#
#
#
# Elastic Constant Matrix: (Units=GPa)
#
#
# Indices 1 2 3 4 5 6 
#
# 1 78.7112 26.3900 27.8219 0.0000 0.0000 0.0000
# 2 26.3900 84.8966 25.5877 0.0000 0.0000 0.0000
# 3 27.8219 25.5877 53.8651 0.0000 0.0000 0.0000
# 4 0.0000 0.0000 0.0000 21.8031 0.0000 0.0000
# 5 0.0000 0.0000 0.0000 0.0000 23.2630 0.0000
# 6 0.0000 0.0000 0.0000 0.0000 0.0000 32.2697
#
#
#
# Elastic Compliance Matrix: (Units=1/GPa)
#
#
# Indices 1 2 3 4 5 6 
#
# 1 0.016141 -0.002923 -0.006948 0.000000 0.000000 0.000000
# 2 -0.002923 0.014277 -0.005272 0.000000 0.000000 0.000000
# 3 -0.006948 -0.005272 0.024658 0.000000 0.000000 0.000000
# 4 0.000000 0.000000 0.000000 0.045865 0.000000 0.000000
# 5 0.000000 0.000000 0.000000 0.000000 0.042987 0.000000
# 6 0.000000 0.000000 0.000000 0.000000 0.000000 0.030989
#
#
# Mechanical properties :
#
#
# Convention : Reuss Voigt Hill
#
# Bulk Modulus (GPa) = 40.34108 41.89690 41.11899
# Shear Modulus (GPa) = 23.42295 24.64539 24.03417
#
# Velocity S-wave (km/s) = 3.39339 3.48081 3.43738
# Velocity P-wave (km/s) = 5.93176 6.06234 5.99740
#
# Compressibility (1/GPa) = 0.02478863
#
# Stress axis : x y z
#
# Youngs Moduli (GPa) = 61.95514 70.04432 40.55454
#
# Poissons Ratio (x) = 0.20475 0.28178
# Poissons Ratio (y) = 0.18110 0.21381
# Poissons Ratio (z) = 0.43048 0.36928
#
# Static dielectric constant tensor:
#      x y z
#    x 1.792510 0.000000 0.000000 
#    y 0.000000 1.700100 0.000000 
#    z 0.000000 0.000000 1.733530 
# 
# From -- ./inp_files/10703.got.cif
#   From: 2010.05.17/outbox.cif.g08.bks.cpg/sg43_6_cif.got.tgz:10703.got - 2010.06.03 19:21:55.
