data_PCOD9370003
_publ_section_title
;
Structure prediction by ZEFSAII (Michael W. Deem and Ramdas Pophale) SiO2 
 PCOD9370003
Probable space group: F M M 2
;
_chemical_formula_sum "Si O2"
_cell_formula_units_Z 24
_cell_length_a 27.000000
_cell_length_b 9.000000
_cell_length_c 21.000000
_cell_angle_alpha 90.000000
_cell_angle_beta 90.000000
_cell_angle_gamma 90.000000
_cell_volume 5103.000000
_symmetry_space_group_name_H-M "F M M 2"
_symmetry_group_IT_number 42
_symmetry_cell_setting 'orthorhombic'
loop_
_space_group_symop_operation_xyz
x,y,z
-x,-y,z
-x,y,z
x,-y,z
x,1/2+y,1/2+z
-x,1/2-y,1/2+z
-x,1/2+y,1/2+z
x,1/2-y,1/2+z
1/2+x,y,1/2+z
1/2-x,-y,1/2+z
1/2-x,y,1/2+z
1/2+x,-y,1/2+z
1/2+x,1/2+y,z
1/2-x,1/2-y,z
1/2-x,1/2+y,z
1/2+x,1/2-y,z
loop_
_atom_site_type_symbol
_atom_site_label
_atom_site_fract_x
_atom_site_fract_y
_atom_site_fract_z
Si Si1 0.134555 0.176784 0.608620
Si Si2 0.198698 0.677932 0.228199
Si Si3 0.443066 0.176485 0.903750
Si Si4 0.649486 0.321985 0.857714
Si Si5 0.558325 0.332807 0.039010
Si Si6 0.196574 0.677679 0.494727
O O1 0.157491 0.216343 0.676315
O O2 0.080546 0.241446 0.596941
O O3 0.165150 0.252974 0.551836
O O4 0.135898 0.000000 0.601191
O O5 0.204175 0.500000 0.228613
O O6 0.250000 0.750000 0.208671
O O7 0.182887 0.726579 0.298603
O O8 0.500000 0.210454 0.887408
O O9 0.403726 0.245128 0.855892
O O10 0.437398 0.000000 0.908580
O O11 0.432472 0.249451 0.972496
O O12 0.643464 0.500000 0.854435
O O13 0.674055 0.286076 0.925462
O O14 0.500000 0.342449 0.045569
O O15 0.579134 0.500000 0.035385
O O16 0.199341 0.500000 0.500725
O O17 0.250000 0.750000 0.498400
#
# Coordination Sequence:
#
# PCOD9370003 Si02
#       6
#    16  16  16  16  16  16
#     4  11  22  37  58  84 115 149 191 238 284 339
#     4  10  23  41  59  82 113 154 195 233 283 339
#     4  10  20  34  56  87 118 148 186 232 284 339
#     4  10  21  38  58  82 113 150 192 233 281 339
#     4  10  20  35  57  85 116 150 188 232 286 343
#     4  11  22  35  55  82 111 144 187 238 287 339
#
# _framework density 4.7031159999999996
#
# number of rings (size 3 to 8) (size 9 to 14) (size 15 to 20)
#    0.000    1.667    1.667    3.000    0.000    6.000 
#    0.000    0.833    0.000    5.000    0.000    0.000 
#    0.000    0.000    0.000    0.000    0.000    0.000 
#
# Total GULP energy -133952.773530 kJ/mol
# GULP energy per Si atom -5581.365564 kJ/mol
# Density = 0.469241 g / cm^3
# Si number density = 4.703116 Si / 1000 Ang^3
#
#
#
# Elastic Constant Matrix: (Units=GPa)
#
#
# Indices 1 2 3 4 5 6 
#
# 1 47.8974 1.9889 -9.3459 0.0000 0.0000 0.0000
# 2 1.9889 -1.9729 1.0682 0.0000 0.0000 0.0000
# 3 -9.3459 1.0682 29.7119 0.0000 0.0000 0.0000
# 4 0.0000 0.0000 0.0000 26.9033 0.0000 0.0000
# 5 0.0000 0.0000 0.0000 0.0000 20.9834 0.0000
# 6 0.0000 0.0000 0.0000 0.0000 0.0000 30.0611
#
#
#
# Elastic Compliance Matrix: (Units=1/GPa)
#
#
# Indices 1 2 3 4 5 6 
#
# 1 0.020988 0.024262 0.005730 0.000000 0.000000 0.000000
# 2 0.024262 -0.469151 0.024498 0.000000 0.000000 0.000000
# 3 0.005730 0.024498 0.034578 0.000000 0.000000 0.000000
# 4 0.000000 0.000000 0.000000 0.037170 0.000000 0.000000
# 5 0.000000 0.000000 0.000000 0.000000 0.047657 0.000000
# 6 0.000000 0.000000 0.000000 0.000000 0.000000 0.033266
#
#
# Mechanical properties :
#
#
# Convention : Reuss Voigt Hill
#
# Bulk Modulus (GPa) = -3.28292 7.00653 1.86181
# Shear Modulus (GPa) = -9.88131 21.05125 5.58497
#
# Velocity S-wave (km/s) = -2.29433 3.34878 1.72488
# Velocity P-wave (km/s) = 2.96099 4.32261 2.22683
#
# Compressibility (1/GPa) = -0.30460662
#
# Stress axis : x y z
#
# Youngs Moduli (GPa) = 47.64516 -2.13151 28.92001
#
# Poissons Ratio (x) = 0.05171 -0.16570
# Poissons Ratio (y) = -1.15595 -0.70847
# Poissons Ratio (z) = -0.27300 0.05222
#
# Static dielectric constant tensor:
#      x y z
#    x 1.770340 0.000000 0.000000 
#    y 0.000000 1.623520 0.000000 
#    z 0.000000 0.000000 1.620020 
# 
# From -- ./inp_files/23683.got.cif
#   From: 2010.05.17/outbox.ucp.g08.bks.cvg/sg42_12_cif.got.tgz:23683.got - 2010.06.11 16:29:10.
