data_PCOD9370558
_publ_section_title
;
Structure prediction by ZEFSAII (Michael W. Deem and Ramdas Pophale) SiO2 
 PCOD9370558
Probable space group: F D D 2
;
_chemical_formula_sum "Si O2"
_cell_formula_units_Z 112
_cell_length_a 27.416459
_cell_length_b 13.279205
_cell_length_c 13.601431
_cell_angle_alpha 90.000000
_cell_angle_beta 90.000000
_cell_angle_gamma 90.000000
_cell_volume 4951.856383
_symmetry_space_group_name_H-M "F D D 2"
_symmetry_group_IT_number 43
_symmetry_cell_setting 'orthorhombic'
loop_
_space_group_symop_operation_xyz
x,y,z
-x,-y,z
1/4-x,1/4+y,1/4+z
1/4+x,1/4-y,1/4+z
x,1/2+y,1/2+z
-x,1/2-y,1/2+z
1/4-x,3/4+y,3/4+z
1/4+x,3/4-y,3/4+z
1/2+x,y,1/2+z
1/2-x,-y,1/2+z
3/4-x,1/4+y,3/4+z
3/4+x,1/4-y,3/4+z
1/2+x,1/2+y,z
1/2-x,1/2-y,z
3/4-x,3/4+y,1/4+z
3/4+x,3/4-y,1/4+z
loop_
_atom_site_type_symbol
_atom_site_label
_atom_site_fract_x
_atom_site_fract_y
_atom_site_fract_z
Si Si1 0.180753 0.969582 0.148240
Si Si2 0.096859 0.084221 0.897714
Si Si3 0.373363 0.445574 0.686925
Si Si4 0.431769 0.980426 0.599240
Si Si5 0.848119 0.231859 0.219137
Si Si6 0.200643 0.050590 0.360625
Si Si7 0.951630 0.760583 0.188014
O O1 0.184462 0.849744 0.164602
O O2 0.124534 0.989699 0.119398
O O3 0.189569 0.030436 0.247054
O O4 0.211337 0.998849 0.053792
O O5 0.091279 0.058409 0.782641
O O6 0.093539 0.201079 0.927620
O O7 0.153953 0.054134 0.913314
O O8 0.064976 0.030836 0.980881
O O9 0.400693 0.446541 0.582298
O O10 0.338257 0.349079 0.701040
O O11 0.438741 0.875356 0.655602
O O12 0.460828 0.080648 0.628499
O O13 0.903455 0.224419 0.176127
O O14 0.248110 0.986249 0.385282
#
# Coordination Sequence:
#
# PCOD9370558 Si02
#       7
#    16  16  16  16  16  16  16
#     4  10  21  39  65  87 117 159 208 256 307 370
#     4  10  20  37  62  89 118 158 211 247 301 369
#     4  10  20  35  63  89 116 160 208 250 294 373
#     4  10  20  39  64  89 114 161 214 256 294 369
#     4  10  20  38  62  89 118 159 211 246 297 378
#     4  11  23  38  61  91 124 157 201 263 319 356
#     4  11  23  38  60  91 124 157 200 267 313 361
#
# _framework density 22.61778
#
# number of rings (size 3 to 8) (size 9 to 14) (size 15 to 20)
#    0.000    1.714    2.857    3.000    4.000    1.143 
#    0.000    0.714    0.000    0.000    0.000    0.000 
#    0.000    0.000    0.000    0.000    0.000    0.000 
#
# Total GULP energy -156291.004982 kJ/mol
# GULP energy per Si atom -5581.821606 kJ/mol
# Density = 2.256630 g / cm^3
# Si number density = 22.617780 Si / 1000 Ang^3
#
#
#
# Elastic Constant Matrix: (Units=GPa)
#
#
# Indices 1 2 3 4 5 6 
#
# 1 7.9777 10.5613 5.6860 0.0000 0.0000 0.0000
# 2 10.5613 97.9319 21.4182 0.0000 0.0000 0.0000
# 3 5.6860 21.4182 153.4364 0.0000 0.0000 0.0000
# 4 0.0000 0.0000 0.0000 32.9180 0.0000 0.0000
# 5 0.0000 0.0000 0.0000 0.0000 -0.7393 0.0000
# 6 0.0000 0.0000 0.0000 0.0000 0.0000 5.7740
#
#
#
# Elastic Compliance Matrix: (Units=1/GPa)
#
#
# Indices 1 2 3 4 5 6 
#
# 1 0.147882 -0.015214 -0.003356 0.000000 0.000000 0.000000
# 2 -0.015214 0.012098 -0.001125 0.000000 0.000000 0.000000
# 3 -0.003356 -0.001125 0.006799 0.000000 0.000000 0.000000
# 4 0.000000 0.000000 0.000000 0.030379 0.000000 0.000000
# 5 0.000000 0.000000 0.000000 0.000000 -1.352593 0.000000
# 6 0.000000 0.000000 0.000000 0.000000 0.000000 0.173189
#
#
# Mechanical properties :
#
#
# Convention : Reuss Voigt Hill
#
# Bulk Modulus (GPa) = 7.85002 37.18633 22.51817
# Shear Modulus (GPa) = -5.55313 22.36925 8.40806
#
# Velocity S-wave (km/s) = -1.56861 3.14827 1.93016
# Velocity P-wave (km/s) = 0.44447 5.44907 3.86587
#
# Compressibility (1/GPa) = 0.12738822
#
# Stress axis : x y z
#
# Youngs Moduli (GPa) = 6.76213 82.65873 147.08540
#
# Poissons Ratio (x) = 1.25757 0.49368
# Poissons Ratio (y) = 0.10288 0.16546
# Poissons Ratio (z) = 0.02270 0.09299
#
# Static dielectric constant tensor:
#      x y z
#    x 1.844610 0.000000 0.000000 
#    y 0.000000 1.909260 0.000000 
#    z 0.000000 0.000000 1.859860 
# 
# From -- ./inp_files/11716.got.cif
#   From: 2010.05.17/outbox.cif.g08.bks.cpg/sg43_6_cif.got.tgz:11716.got - 2010.06.03 19:21:55.
