data_PCOD9370499
_publ_section_title
;
Structure prediction by ZEFSAII (Michael W. Deem and Ramdas Pophale) SiO2 
 PCOD9370499
Probable space group: F D D 2
;
_chemical_formula_sum "Si O2"
_cell_formula_units_Z 104
_cell_length_a 26.133398
_cell_length_b 11.261730
_cell_length_c 14.341033
_cell_angle_alpha 90.000000
_cell_angle_beta 90.000000
_cell_angle_gamma 90.000000
_cell_volume 4220.670304
_symmetry_space_group_name_H-M "F D D 2"
_symmetry_group_IT_number 43
_symmetry_cell_setting 'orthorhombic'
loop_
_space_group_symop_operation_xyz
x,y,z
-x,-y,z
1/4-x,1/4+y,1/4+z
1/4+x,1/4-y,1/4+z
x,1/2+y,1/2+z
-x,1/2-y,1/2+z
1/4-x,3/4+y,3/4+z
1/4+x,3/4-y,3/4+z
1/2+x,y,1/2+z
1/2-x,-y,1/2+z
3/4-x,1/4+y,3/4+z
3/4+x,1/4-y,3/4+z
1/2+x,1/2+y,z
1/2-x,1/2-y,z
3/4-x,3/4+y,1/4+z
3/4+x,3/4-y,1/4+z
loop_
_atom_site_type_symbol
_atom_site_label
_atom_site_fract_x
_atom_site_fract_y
_atom_site_fract_z
Si Si1 0.414142 0.676389 0.224100
Si Si2 0.788001 0.157206 0.456278
Si Si3 0.235941 0.881237 0.672116
Si Si4 0.581866 0.683443 0.163307
Si Si5 0.123858 0.434764 0.153248
Si Si6 0.167764 0.488983 0.632564
Si Si7 0.500000 0.000000 0.690981
O O1 0.443468 0.780983 0.167431
O O2 0.390242 0.738307 0.314225
O O3 0.367321 0.615794 0.171939
O O4 0.456732 0.575856 0.245123
O O5 0.750000 0.250000 0.406305
O O6 0.765475 0.128093 0.557965
O O7 0.838625 0.234769 0.467307
O O8 0.250000 0.750000 0.704769
O O9 0.177858 0.905540 0.700738
O O10 0.279447 0.980085 0.685688
O O11 0.592037 0.816700 0.128568
O O12 0.632622 0.606321 0.144364
O O13 0.574391 0.707148 0.274475
O O14 0.533473 0.600264 0.137747
#
# Coordination Sequence:
#
# PCOD9370499 Si02
#       7
#    16  16  16  16  16  16   8
#     4  10  24  41  69 105 144 181 242 292 361 407
#     4  10  21  39  67  96 134 187 234 280 346 433
#     4  10  19  41  67  97 134 187 237 275 359 425
#     4  11  23  42  75 102 139 190 246 283 359 423
#     4  11  22  40  71 105 134 183 237 304 337 427
#     4  11  24  44  71 102 146 191 230 299 349 440
#     4  10  22  46  70 102 136 206 226 286 358 454
#
# _framework density 24.640635
#
# number of rings (size 3 to 8) (size 9 to 14) (size 15 to 20)
#    0.000    1.538    1.538    4.615    6.462    0.000 
#    0.000    9.231    3.385    0.000    0.000    0.000 
#    0.000    0.000    0.000    0.000    0.000    0.000 
#
# Total GULP energy -145349.105051 kJ/mol
# GULP energy per Si atom -5590.350194 kJ/mol
# Density = 2.458455 g / cm^3
# Si number density = 24.640635 Si / 1000 Ang^3
#
#
#
# Elastic Constant Matrix: (Units=GPa)
#
#
# Indices 1 2 3 4 5 6 
#
# 1 158.0761 87.2615 24.8517 0.0000 0.0000 0.0000
# 2 87.2615 181.7699 36.0077 0.0000 0.0000 0.0000
# 3 24.8517 36.0077 67.8924 0.0000 0.0000 0.0000
# 4 0.0000 0.0000 0.0000 -12.5469 0.0000 0.0000
# 5 0.0000 0.0000 0.0000 0.0000 16.1499 0.0000
# 6 0.0000 0.0000 0.0000 0.0000 0.0000 72.2783
#
#
#
# Elastic Compliance Matrix: (Units=1/GPa)
#
#
# Indices 1 2 3 4 5 6 
#
# 1 0.008677 -0.003952 -0.001080 0.000000 0.000000 0.000000
# 2 -0.003952 0.007947 -0.002768 0.000000 0.000000 0.000000
# 3 -0.001080 -0.002768 0.016593 0.000000 0.000000 0.000000
# 4 0.000000 0.000000 0.000000 -0.079701 0.000000 0.000000
# 5 0.000000 0.000000 0.000000 0.000000 0.061920 0.000000
# 6 0.000000 0.000000 0.000000 0.000000 0.000000 0.013835
#
#
# Mechanical properties :
#
#
# Convention : Reuss Voigt Hill
#
# Bulk Modulus (GPa) = 56.76557 78.22003 67.49280
# Shear Modulus (GPa) = 98.53352 32.48409 65.50881
#
# Velocity S-wave (km/s) = 6.33048 3.63480 5.16172
# Velocity P-wave (km/s) = 8.74762 7.03057 7.93567
#
# Compressibility (1/GPa) = 0.01761631
#
# Stress axis : x y z
#
# Youngs Moduli (GPa) = 115.24271 125.83524 60.26679
#
# Poissons Ratio (x) = 0.49726 0.06512
# Poissons Ratio (y) = 0.45540 0.16683
# Poissons Ratio (z) = 0.12452 0.34835
#
# Static dielectric constant tensor:
#      x y z
#    x 1.974340 0.000000 0.000000 
#    y 0.000000 1.951920 0.000000 
#    z 0.000000 0.000000 2.003310 
# 
# From -- ./inp_files/15069.got.cif
#   From: 2010.05.17/outbox.cif.g08.bks.cpg/sg43_8_cif.got.tgz:15069.got - 2010.06.03 19:21:55.
