data_PCOD9370360
_publ_section_title
;
Structure prediction by ZEFSAII (Michael W. Deem and Ramdas Pophale) SiO2 
 PCOD9370360
Probable space group: F D D 2
;
_chemical_formula_sum "Si O2"
_cell_formula_units_Z 80
_cell_length_a 14.898491
_cell_length_b 7.862469
_cell_length_c 28.023150
_cell_angle_alpha 90.000000
_cell_angle_beta 90.000000
_cell_angle_gamma 90.000000
_cell_volume 3282.601628
_symmetry_space_group_name_H-M "F D D 2"
_symmetry_group_IT_number 43
_symmetry_cell_setting 'orthorhombic'
loop_
_space_group_symop_operation_xyz
x,y,z
-x,-y,z
1/4-x,1/4+y,1/4+z
1/4+x,1/4-y,1/4+z
x,1/2+y,1/2+z
-x,1/2-y,1/2+z
1/4-x,3/4+y,3/4+z
1/4+x,3/4-y,3/4+z
1/2+x,y,1/2+z
1/2-x,-y,1/2+z
3/4-x,1/4+y,3/4+z
3/4+x,1/4-y,3/4+z
1/2+x,1/2+y,z
1/2-x,1/2-y,z
3/4-x,3/4+y,1/4+z
3/4+x,3/4-y,1/4+z
loop_
_atom_site_type_symbol
_atom_site_label
_atom_site_fract_x
_atom_site_fract_y
_atom_site_fract_z
Si Si1 0.928868 0.139482 0.150750
Si Si2 0.316499 0.875201 0.344180
Si Si3 0.000000 0.500000 0.252313
Si Si4 0.250000 0.250000 0.228556
Si Si5 0.356643 0.967173 0.555442
Si Si6 0.838806 0.453235 0.179039
O O1 0.852391 0.248592 0.177688
O O2 0.999503 0.279797 0.131256
O O3 0.877363 0.059613 0.104931
O O4 0.000000 0.000000 0.171732
O O5 0.250000 0.750000 0.316042
O O6 0.387354 0.773283 0.376175
O O7 0.357721 0.025160 0.313994
O O8 0.990105 0.672986 0.283727
O O9 0.916392 0.500517 0.216853
O O10 0.331556 0.293109 0.264278
O O11 0.238239 0.418442 0.196612
#
# Coordination Sequence:
#
# PCOD9370360 Si02
#       6
#    16  16   8   8  16  16
#     4   9  16  33  61  87 116 173 212 259 309 416
#     4   9  16  32  59  84 113 172 206 245 307 420
#     4  10  20  33  60  96 118 166 198 284 318 381
#     4  10  20  33  60  96 130 170 204 292 318 389
#     4  10  19  35  62  87 128 160 217 256 339 376
#     4  10  19  35  62  89 131 168 222 251 346 383
#
# _framework density 24.370915
#
# number of rings (size 3 to 8) (size 9 to 14) (size 15 to 20)
#    0.000    2.400    6.000    0.000    0.000    0.800 
#    0.000    0.000   35.200   12.000    0.000    0.000 
#    0.000    0.000    0.000    0.000    0.000    0.000 
#
# Total GULP energy -111401.801311 kJ/mol
# GULP energy per Si atom -5570.090066 kJ/mol
# Density = 2.431545 g / cm^3
# Si number density = 24.370915 Si / 1000 Ang^3
#
#
#
# Elastic Constant Matrix: (Units=GPa)
#
#
# Indices 1 2 3 4 5 6 
#
# 1 42.6708 26.1772 24.6627 0.0000 0.0000 0.0000
# 2 26.1772 132.9109 37.2119 0.0000 0.0000 0.0000
# 3 24.6627 37.2119 89.0082 0.0000 0.0000 0.0000
# 4 0.0000 0.0000 0.0000 17.4906 0.0000 0.0000
# 5 0.0000 0.0000 0.0000 0.0000 15.1221 0.0000
# 6 0.0000 0.0000 0.0000 0.0000 0.0000 39.7294
#
#
#
# Elastic Compliance Matrix: (Units=1/GPa)
#
#
# Indices 1 2 3 4 5 6 
#
# 1 0.029681 -0.004013 -0.006546 0.000000 0.000000 0.000000
# 2 -0.004013 0.009064 -0.002677 0.000000 0.000000 0.000000
# 3 -0.006546 -0.002677 0.014168 0.000000 0.000000 0.000000
# 4 0.000000 0.000000 0.000000 0.057174 0.000000 0.000000
# 5 0.000000 0.000000 0.000000 0.000000 0.066128 0.000000
# 6 0.000000 0.000000 0.000000 0.000000 0.000000 0.025170
#
#
# Mechanical properties :
#
#
# Convention : Reuss Voigt Hill
#
# Bulk Modulus (GPa) = 37.82246 48.96594 43.39420
# Shear Modulus (GPa) = 21.12635 26.23763 23.68199
#
# Velocity S-wave (km/s) = 2.94746 3.28471 3.12064
# Velocity P-wave (km/s) = 5.20927 5.87549 5.55238
#
# Compressibility (1/GPa) = 0.02643932
#
# Stress axis : x y z
#
# Youngs Moduli (GPa) = 33.69201 110.32896 70.58079
#
# Poissons Ratio (x) = 0.44274 0.46205
# Poissons Ratio (y) = 0.13520 0.18897
# Poissons Ratio (z) = 0.22056 0.29540
#
# Static dielectric constant tensor:
#      x y z
#    x 2.115780 0.000000 0.000000 
#    y 0.000000 2.039140 0.000000 
#    z 0.000000 0.000000 1.949900 
# 
# From -- ./inp_files/29384.got.cif
#   From: 2010.05.17/outbox.cif.g08.bks.cpg/sg43_15_cif.got.tgz:29384.got - 2010.06.03 19:21:55.
