data_PCOD9370269
_publ_section_title
;
Structure prediction by ZEFSAII (Michael W. Deem and Ramdas Pophale) SiO2 
 PCOD9370269
Probable space group: F D D 2
;
_chemical_formula_sum "Si O2"
_cell_formula_units_Z 88
_cell_length_a 20.115612
_cell_length_b 10.624764
_cell_length_c 16.178554
_cell_angle_alpha 90.000000
_cell_angle_beta 90.000000
_cell_angle_gamma 90.000000
_cell_volume 3457.739293
_symmetry_space_group_name_H-M "F D D 2"
_symmetry_group_IT_number 43
_symmetry_cell_setting 'orthorhombic'
loop_
_space_group_symop_operation_xyz
x,y,z
-x,-y,z
1/4-x,1/4+y,1/4+z
1/4+x,1/4-y,1/4+z
x,1/2+y,1/2+z
-x,1/2-y,1/2+z
1/4-x,3/4+y,3/4+z
1/4+x,3/4-y,3/4+z
1/2+x,y,1/2+z
1/2-x,-y,1/2+z
3/4-x,1/4+y,3/4+z
3/4+x,1/4-y,3/4+z
1/2+x,1/2+y,z
1/2-x,1/2-y,z
3/4-x,3/4+y,1/4+z
3/4+x,3/4-y,1/4+z
loop_
_atom_site_type_symbol
_atom_site_label
_atom_site_fract_x
_atom_site_fract_y
_atom_site_fract_z
Si Si1 0.250000 0.250000 0.718120
Si Si2 0.573669 0.909179 0.810366
Si Si3 0.708296 0.501026 0.049154
Si Si4 0.834629 0.123933 0.738263
Si Si5 0.794890 0.492467 0.748076
Si Si6 0.332921 0.132832 0.045889
O O1 0.191805 0.208300 0.653122
O O2 0.234560 0.371198 0.771720
O O3 0.499809 0.873627 0.775376
O O4 0.629068 0.000673 0.774090
O O5 0.604096 0.766105 0.801653
O O6 0.633367 0.524063 0.026243
O O7 0.710230 0.506852 0.148534
O O8 0.756912 0.611334 0.015279
O O9 0.829557 0.165189 0.643034
O O10 0.760929 0.106318 0.775340
O O11 0.873359 0.989803 0.752179
#
# Coordination Sequence:
#
# PCOD9370269 Si02
#       6
#     8  16  16  16  16  16
#     4  10  18  40  60  82 128 160 212 272 332 378
#     4   9  20  37  61  88 119 171 207 270 327 390
#     4   8  20  38  60  89 131 169 202 277 337 380
#     4  11  19  42  63  94 129 172 219 269 337 398
#     4  10  20  39  63  91 127 166 217 274 325 391
#     4   9  21  37  63  92 125 167 213 280 323 384
#
# _framework density 25.450154000000001
#
# number of rings (size 3 to 8) (size 9 to 14) (size 15 to 20)
#    1.091    1.455    1.818    1.636    0.000    0.000 
#   16.364    0.000    0.000    0.000    0.000    0.000 
#    0.000    0.000    0.000    0.000    0.000    0.000 
#
# Total GULP energy -122543.641132 kJ/mol
# GULP energy per Si atom -5570.165506 kJ/mol
# Density = 2.539223 g / cm^3
# Si number density = 25.450154 Si / 1000 Ang^3
#
#
#
# Elastic Constant Matrix: (Units=GPa)
#
#
# Indices 1 2 3 4 5 6 
#
# 1 216.5795 60.9757 22.0585 0.0000 0.0000 0.0000
# 2 60.9757 161.4852 5.0055 0.0000 0.0000 0.0000
# 3 22.0585 5.0055 18.6255 0.0000 0.0000 0.0000
# 4 0.0000 0.0000 0.0000 22.4916 0.0000 0.0000
# 5 0.0000 0.0000 0.0000 0.0000 16.3809 0.0000
# 6 0.0000 0.0000 0.0000 0.0000 0.0000 44.8622
#
#
#
# Elastic Compliance Matrix: (Units=1/GPa)
#
#
# Indices 1 2 3 4 5 6 
#
# 1 0.005830 -0.002004 -0.006366 0.000000 0.000000 0.000000
# 2 -0.002004 0.006933 0.000510 0.000000 0.000000 0.000000
# 3 -0.006366 0.000510 0.061092 0.000000 0.000000 0.000000
# 4 0.000000 0.000000 0.000000 0.044461 0.000000 0.000000
# 5 0.000000 0.000000 0.000000 0.000000 0.061047 0.000000
# 6 0.000000 0.000000 0.000000 0.000000 0.000000 0.022290
#
#
# Mechanical properties :
#
#
# Convention : Reuss Voigt Hill
#
# Bulk Modulus (GPa) = 17.20117 63.64105 40.42111
# Shear Modulus (GPa) = 21.11923 37.32364 29.22144
#
# Velocity S-wave (km/s) = 2.88380 3.83370 3.39216
# Velocity P-wave (km/s) = 4.22632 6.68257 5.59100
#
# Compressibility (1/GPa) = 0.05813558
#
# Stress axis : x y z
#
# Youngs Moduli (GPa) = 171.53284 144.22945 16.36881
#
# Poissons Ratio (x) = 0.28903 0.10420
# Poissons Ratio (y) = 0.34375 -0.00835
# Poissons Ratio (z) = 1.09193 -0.07356
#
# Static dielectric constant tensor:
#      x y z
#    x 2.113670 0.000000 0.000000 
#    y 0.000000 2.148000 0.000000 
#    z 0.000000 0.000000 1.933370 
# 
# From -- ./inp_files/18293.got.cif
#   From: 2010.05.17/outbox.cif.g08.bks.cpg/sg43_10_cif.got.tgz:18293.got - 2010.06.03 19:21:55.
