data_PCOD9370371
_publ_section_title
;
Structure prediction by ZEFSAII (Michael W. Deem and Ramdas Pophale) SiO2 
 PCOD9370371
Probable space group: F D D 2
;
_chemical_formula_sum "Si O2"
_cell_formula_units_Z 88
_cell_length_a 17.012086
_cell_length_b 9.481395
_cell_length_c 21.892437
_cell_angle_alpha 90.000000
_cell_angle_beta 90.000000
_cell_angle_gamma 90.000000
_cell_volume 3531.213027
_symmetry_space_group_name_H-M "F D D 2"
_symmetry_group_IT_number 43
_symmetry_cell_setting 'orthorhombic'
loop_
_space_group_symop_operation_xyz
x,y,z
-x,-y,z
1/4-x,1/4+y,1/4+z
1/4+x,1/4-y,1/4+z
x,1/2+y,1/2+z
-x,1/2-y,1/2+z
1/4-x,3/4+y,3/4+z
1/4+x,3/4-y,3/4+z
1/2+x,y,1/2+z
1/2-x,-y,1/2+z
3/4-x,1/4+y,3/4+z
3/4+x,1/4-y,3/4+z
1/2+x,1/2+y,z
1/2-x,1/2-y,z
3/4-x,3/4+y,1/4+z
3/4+x,3/4-y,1/4+z
loop_
_atom_site_type_symbol
_atom_site_label
_atom_site_fract_x
_atom_site_fract_y
_atom_site_fract_z
Si Si1 0.701101 0.107557 0.868500
Si Si2 0.500000 0.500000 0.904009
Si Si3 0.561661 0.667002 0.291648
Si Si4 0.004497 0.774924 0.492640
Si Si5 0.657355 0.111584 0.994124
Si Si6 0.913991 0.023813 0.780945
O O1 0.750000 0.250000 0.870451
O O2 0.609308 0.132168 0.852639
O O3 0.736837 0.025311 0.812145
O O4 0.700557 0.046657 0.935745
O O5 0.497541 0.641989 0.945438
O O6 0.427585 0.501801 0.854288
O O7 0.579485 0.533366 0.248614
O O8 0.467252 0.686363 0.298260
O O9 0.601792 0.810711 0.270257
O O10 0.935800 0.889581 0.486202
O O11 0.096239 0.813802 0.498650
O O12 0.000000 0.000000 0.754204
#
# Coordination Sequence:
#
# PCOD9370371 Si02
#       6
#    16   8  16  16  16  16
#     4  11  18  32  61  95 113 148 204 259 302 350
#     4  10  22  36  66  88 114 162 216 268 278 382
#     4  10  19  36  58  90 121 147 202 254 309 351
#     4  11  20  36  63  93 117 159 208 251 317 354
#     4  10  22  35  64  91 124 156 198 267 309 368
#     4  10  23  38  59  87 126 158 204 257 297 366
#
# _framework density 24.920615999999999
#
# number of rings (size 3 to 8) (size 9 to 14) (size 15 to 20)
#    0.545    1.091    4.545    2.182    0.000    1.455 
#    0.000    0.909   36.000    0.000    0.000    0.000 
#    0.000    0.000    0.000    0.000    0.000    0.000 
#
# Total GULP energy -122573.154075 kJ/mol
# GULP energy per Si atom -5571.507003 kJ/mol
# Density = 2.486390 g / cm^3
# Si number density = 24.920616 Si / 1000 Ang^3
#
#
#
# Elastic Constant Matrix: (Units=GPa)
#
#
# Indices 1 2 3 4 5 6 
#
# 1 193.0583 11.4932 35.9090 0.0000 0.0000 0.0000
# 2 11.4932 83.2318 32.6843 0.0000 0.0000 0.0000
# 3 35.9090 32.6843 80.7975 0.0000 0.0000 0.0000
# 4 0.0000 0.0000 0.0000 -56.4087 0.0000 0.0000
# 5 0.0000 0.0000 0.0000 0.0000 39.5454 0.0000
# 6 0.0000 0.0000 0.0000 0.0000 0.0000 33.6860
#
#
#
# Elastic Compliance Matrix: (Units=1/GPa)
#
#
# Indices 1 2 3 4 5 6 
#
# 1 0.005651 0.000245 -0.002610 0.000000 0.000000 0.000000
# 2 0.000245 0.014294 -0.005891 0.000000 0.000000 0.000000
# 3 -0.002610 -0.005891 0.015920 0.000000 0.000000 0.000000
# 4 0.000000 0.000000 0.000000 -0.017728 0.000000 0.000000
# 5 0.000000 0.000000 0.000000 0.000000 0.025287 0.000000
# 6 0.000000 0.000000 0.000000 0.000000 0.000000 0.029686
#
#
# Mechanical properties :
#
#
# Convention : Reuss Voigt Hill
#
# Bulk Modulus (GPa) = 51.67590 57.47339 54.57465
# Shear Modulus (GPa) = 52.04307 21.83127 36.93717
#
# Velocity S-wave (km/s) = 4.57481 2.96300 3.85410
# Velocity P-wave (km/s) = 6.97756 5.90072 6.46161
#
# Compressibility (1/GPa) = 0.01935138
#
# Stress axis : x y z
#
# Youngs Moduli (GPa) = 176.96776 69.95838 62.81469
#
# Poissons Ratio (x) = -0.01712 0.16397
# Poissons Ratio (y) = -0.04332 0.37005
# Poissons Ratio (z) = 0.46196 0.41213
#
# Static dielectric constant tensor:
#      x y z
#    x 2.204190 0.000000 0.000000 
#    y 0.000000 2.077200 0.000000 
#    z 0.000000 0.000000 1.909590 
# 
# From -- ./inp_files/17965.got.cif
#   From: 2010.05.17/outbox.cif.g08.bks.cpg/sg43_9_cif.got.tgz:17965.got - 2010.06.03 19:21:55.
