data_PCOD9370813
_publ_section_title
;
Structure prediction by ZEFSAII (Michael W. Deem and Ramdas Pophale) SiO2 
 PCOD9370813
Probable space group: F D D 2
;
_chemical_formula_sum "Si O2"
_cell_formula_units_Z 120
_cell_length_a 8.917780
_cell_length_b 28.446687
_cell_length_c 23.053995
_cell_angle_alpha 90.000000
_cell_angle_beta 90.000000
_cell_angle_gamma 90.000000
_cell_volume 5848.367339
_symmetry_space_group_name_H-M "F D D 2"
_symmetry_group_IT_number 43
_symmetry_cell_setting 'orthorhombic'
loop_
_space_group_symop_operation_xyz
x,y,z
-x,-y,z
1/4-x,1/4+y,1/4+z
1/4+x,1/4-y,1/4+z
x,1/2+y,1/2+z
-x,1/2-y,1/2+z
1/4-x,3/4+y,3/4+z
1/4+x,3/4-y,3/4+z
1/2+x,y,1/2+z
1/2-x,-y,1/2+z
3/4-x,1/4+y,3/4+z
3/4+x,1/4-y,3/4+z
1/2+x,1/2+y,z
1/2-x,1/2-y,z
3/4-x,3/4+y,1/4+z
3/4+x,3/4-y,1/4+z
loop_
_atom_site_type_symbol
_atom_site_label
_atom_site_fract_x
_atom_site_fract_y
_atom_site_fract_z
Si Si1 0.480589 0.807214 0.029650
Si Si2 0.933411 0.796559 0.888354
Si Si3 0.338610 0.025845 0.908779
Si Si4 0.384368 0.785888 0.849359
Si Si5 0.070250 0.915268 0.516646
Si Si6 0.500000 0.500000 0.726176
Si Si7 0.742173 0.442643 0.979365
Si Si8 0.261721 0.663548 0.941688
O O1 0.451045 0.798979 0.097637
O O2 0.544261 0.859455 0.016899
O O3 0.603793 0.768697 0.010214
O O4 0.323955 0.807758 0.992882
O O5 0.894063 0.821484 0.828036
O O6 0.803428 0.792777 0.935276
O O7 0.972057 0.742919 0.869964
O O8 0.078155 0.817513 0.920803
O O9 0.500000 0.000000 0.902629
O O10 0.235244 0.982985 0.931236
O O11 0.342372 0.063960 0.960977
O O12 0.250000 0.750000 0.862042
O O13 0.383762 0.796616 0.782206
O O14 0.353104 0.831174 0.887813
O O15 0.908137 0.940502 0.508838
O O16 0.718806 0.390567 0.956644
#
# Coordination Sequence:
#
# PCOD9370813 Si02
#       8
#    16  16  16  16  16   8  16  16
#     4  11  26  43  66  97 140 171 219 276 340 392
#     4  11  22  43  71  93 133 167 227 270 327 398
#     4  10  23  42  68  92 130 177 220 269 330 405
#     4  10  20  40  66  93 128 174 220 273 320 390
#     4  10  23  42  69  99 123 179 224 275 322 398
#     4  12  26  40  66  98 134 172 208 284 342 388
#     4  10  21  42  67  95 130 175 229 265 333 397
#     4  10  24  42  65 100 128 180 220 270 335 400
#
# _framework density 20.518547000000002
#
# number of rings (size 3 to 8) (size 9 to 14) (size 15 to 20)
#    0.000    1.600    2.667    0.800    4.667    6.400 
#    8.400    0.000    0.000    0.000    0.000    0.000 
#    0.000    0.000    0.000    0.000    0.000    0.000 
#
# Total GULP energy -167390.795094 kJ/mol
# GULP energy per Si atom -5579.693170 kJ/mol
# Density = 2.047185 g / cm^3
# Si number density = 20.518547 Si / 1000 Ang^3
#
#
#
# Elastic Constant Matrix: (Units=GPa)
#
#
# Indices 1 2 3 4 5 6 
#
# 1 51.8230 28.1473 46.0821 0.0000 0.0000 0.0000
# 2 28.1473 86.1265 54.3119 0.0000 0.0000 0.0000
# 3 46.0821 54.3119 154.1790 0.0000 0.0000 0.0000
# 4 0.0000 0.0000 0.0000 29.6467 0.0000 0.0000
# 5 0.0000 0.0000 0.0000 0.0000 35.5260 0.0000
# 6 0.0000 0.0000 0.0000 0.0000 0.0000 13.6478
#
#
#
# Elastic Compliance Matrix: (Units=1/GPa)
#
#
# Indices 1 2 3 4 5 6 
#
# 1 0.027831 -0.004949 -0.006575 0.000000 0.000000 0.000000
# 2 -0.004949 0.015807 -0.004089 0.000000 0.000000 0.000000
# 3 -0.006575 -0.004089 0.009891 0.000000 0.000000 0.000000
# 4 0.000000 0.000000 0.000000 0.033731 0.000000 0.000000
# 5 0.000000 0.000000 0.000000 0.000000 0.028148 0.000000
# 6 0.000000 0.000000 0.000000 0.000000 0.000000 0.073272
#
#
# Mechanical properties :
#
#
# Convention : Reuss Voigt Hill
#
# Bulk Modulus (GPa) = 44.83676 61.02346 52.93011
# Shear Modulus (GPa) = 21.99340 26.66992 24.33166
#
# Velocity S-wave (km/s) = 3.27751 3.60918 3.44733
# Velocity P-wave (km/s) = 6.01847 6.86829 6.45738
#
# Compressibility (1/GPa) = 0.02230313
#
# Stress axis : x y z
#
# Youngs Moduli (GPa) = 35.93090 63.26367 101.09712
#
# Poissons Ratio (x) = 0.31312 0.66470
# Poissons Ratio (y) = 0.17784 0.41337
# Poissons Ratio (z) = 0.23624 0.25868
#
# Static dielectric constant tensor:
#      x y z
#    x 1.784070 0.000000 0.000000 
#    y 0.000000 1.741110 0.000000 
#    z 0.000000 0.000000 1.727440 
# 
# From -- ./inp_files/20457.got.cif
#   From: 2010.05.17/outbox.cif.g08.bks.cpg/sg43_11_cif.got.tgz:20457.got - 2010.06.03 19:21:55.
