data_PCOD9370669
_publ_section_title
;
Structure prediction by ZEFSAII (Michael W. Deem and Ramdas Pophale) SiO2 
 PCOD9370669
Probable space group: F D D 2
;
_chemical_formula_sum "Si O2"
_cell_formula_units_Z 96
_cell_length_a 9.755923
_cell_length_b 18.576897
_cell_length_c 28.838206
_cell_angle_alpha 90.000000
_cell_angle_beta 90.000000
_cell_angle_gamma 90.000000
_cell_volume 5226.485825
_symmetry_space_group_name_H-M "F D D 2"
_symmetry_group_IT_number 43
_symmetry_cell_setting 'orthorhombic'
loop_
_space_group_symop_operation_xyz
x,y,z
-x,-y,z
1/4-x,1/4+y,1/4+z
1/4+x,1/4-y,1/4+z
x,1/2+y,1/2+z
-x,1/2-y,1/2+z
1/4-x,3/4+y,3/4+z
1/4+x,3/4-y,3/4+z
1/2+x,y,1/2+z
1/2-x,-y,1/2+z
3/4-x,1/4+y,3/4+z
3/4+x,1/4-y,3/4+z
1/2+x,1/2+y,z
1/2-x,1/2-y,z
3/4-x,3/4+y,1/4+z
3/4+x,3/4-y,1/4+z
loop_
_atom_site_type_symbol
_atom_site_label
_atom_site_fract_x
_atom_site_fract_y
_atom_site_fract_z
Si Si1 0.000000 0.000000 0.114980
Si Si2 0.250000 0.750000 0.328467
Si Si3 0.842986 0.510245 0.259337
Si Si4 0.369909 0.121085 0.768350
Si Si5 0.033133 0.260975 0.906172
Si Si6 0.843086 0.894375 0.319843
Si Si7 0.566364 0.078078 0.918910
O O1 0.128928 0.016352 0.147788
O O2 0.054720 0.936730 0.082757
O O3 0.296998 0.684711 0.296446
O O4 0.123780 0.736028 0.363088
O O5 0.739505 0.443481 0.267407
O O6 0.840242 0.519828 0.203928
O O7 0.773626 0.573832 0.287606
O O8 0.000000 0.500000 0.273928
O O9 0.510744 0.100378 0.793965
O O10 0.395159 0.147340 0.715453
O O11 0.027337 0.349581 0.909034
O O12 0.852934 0.931268 0.370573
O O13 0.500000 0.000000 0.928450
#
# Coordination Sequence:
#
# PCOD9370669 Si02
#       7
#     8   8  16  16  16  16  16
#     4  10  22  42  64  91 123 168 212 264 308 376
#     4  12  20  42  62  91 123 166 212 264 308 376
#     4  11  25  41  62  94 128 167 211 267 315 376
#     4  11  23  39  66  93 123 172 213 256 318 372
#     4  10  23  39  65  90 125 168 210 259 319 374
#     4  11  24  41  65  90 129 168 213 258 319 375
#     4  10  20  38  61  94 122 160 211 255 306 379
#
# _framework density 18.367982000000001
#
# number of rings (size 3 to 8) (size 9 to 14) (size 15 to 20)
#    0.000    1.333    5.000    1.500    9.333    0.000 
#    0.000    0.000    1.833    0.000    0.000    0.000 
#    0.000    0.000    0.000    0.000    0.000    0.000 
#
# Total GULP energy -133823.319445 kJ/mol
# GULP energy per Si atom -5575.971644 kJ/mol
# Density = 1.832618 g / cm^3
# Si number density = 18.367982 Si / 1000 Ang^3
#
#
#
# Elastic Constant Matrix: (Units=GPa)
#
#
# Indices 1 2 3 4 5 6 
#
# 1 118.3624 17.6851 31.1909 0.0000 0.0000 0.0000
# 2 17.6851 28.3685 24.9401 0.0000 0.0000 0.0000
# 3 31.1909 24.9401 110.8909 0.0000 0.0000 0.0000
# 4 0.0000 0.0000 0.0000 17.2937 0.0000 0.0000
# 5 0.0000 0.0000 0.0000 0.0000 22.2843 0.0000
# 6 0.0000 0.0000 0.0000 0.0000 0.0000 24.3676
#
#
#
# Elastic Compliance Matrix: (Units=1/GPa)
#
#
# Indices 1 2 3 4 5 6 
#
# 1 0.009561 -0.004483 -0.001681 0.000000 0.000000 0.000000
# 2 -0.004483 0.046040 -0.009094 0.000000 0.000000 0.000000
# 3 -0.001681 -0.009094 0.011536 0.000000 0.000000 0.000000
# 4 0.000000 0.000000 0.000000 0.057825 0.000000 0.000000
# 5 0.000000 0.000000 0.000000 0.000000 0.044875 0.000000
# 6 0.000000 0.000000 0.000000 0.000000 0.000000 0.041038
#
#
# Mechanical properties :
#
#
# Convention : Reuss Voigt Hill
#
# Bulk Modulus (GPa) = 27.30609 45.02822 36.16716
# Shear Modulus (GPa) = 19.71631 25.04281 22.37956
#
# Velocity S-wave (km/s) = 3.27984 3.69642 3.49435
# Velocity P-wave (km/s) = 5.40755 6.54109 6.00114
#
# Compressibility (1/GPa) = 0.03662186
#
# Stress axis : x y z
#
# Youngs Moduli (GPa) = 104.58676 21.72042 86.68506
#
# Poissons Ratio (x) = 0.09736 0.14574
# Poissons Ratio (y) = 0.46882 0.78829
# Poissons Ratio (z) = 0.17583 0.19752
#
# Static dielectric constant tensor:
#      x y z
#    x 1.623780 0.000000 0.000000 
#    y 0.000000 1.663050 0.000000 
#    z 0.000000 0.000000 1.643780 
# 
# From -- ./inp_files/24265.got.cif
#   From: 2010.05.17/outbox.cif.g08.bks.cpg/sg43_13_cif.got.tgz:24265.got - 2010.06.03 19:21:55.
