data_PCOD9370050
_publ_section_title
;
Structure prediction by ZEFSAII (Michael W. Deem and Ramdas Pophale) SiO2 
 PCOD9370050
Probable space group: F D D 2
;
_chemical_formula_sum "Si O2"
_cell_formula_units_Z 112
_cell_length_a 7.821600
_cell_length_b 28.977873
_cell_length_c 22.343849
_cell_angle_alpha 90.000000
_cell_angle_beta 90.000000
_cell_angle_gamma 90.000000
_cell_volume 5064.307813
_symmetry_space_group_name_H-M "F D D 2"
_symmetry_group_IT_number 43
_symmetry_cell_setting 'orthorhombic'
loop_
_space_group_symop_operation_xyz
x,y,z
-x,-y,z
1/4-x,1/4+y,1/4+z
1/4+x,1/4-y,1/4+z
x,1/2+y,1/2+z
-x,1/2-y,1/2+z
1/4-x,3/4+y,3/4+z
1/4+x,3/4-y,3/4+z
1/2+x,y,1/2+z
1/2-x,-y,1/2+z
3/4-x,1/4+y,3/4+z
3/4+x,1/4-y,3/4+z
1/2+x,1/2+y,z
1/2-x,1/2-y,z
3/4-x,3/4+y,1/4+z
3/4+x,3/4-y,1/4+z
loop_
_atom_site_type_symbol
_atom_site_label
_atom_site_fract_x
_atom_site_fract_y
_atom_site_fract_z
Si Si1 0.377451 0.040408 0.816070
Si Si2 0.425193 0.841628 0.176998
Si Si3 0.752948 0.803683 0.787885
Si Si4 0.498644 0.767956 0.940117
Si Si5 0.319339 0.354287 0.391897
Si Si6 0.597432 0.927550 0.162335
Si Si7 0.315801 0.618815 0.015153
O O1 0.271347 0.061759 0.870075
O O2 0.276667 0.019231 0.761000
O O3 0.480041 0.082906 0.786260
O O4 0.500000 0.000000 0.840007
O O5 0.370804 0.809284 0.230590
O O6 0.248753 0.868650 0.158370
O O7 0.564662 0.879552 0.195264
O O8 0.750000 0.750000 0.804919
O O9 0.834794 0.832331 0.842059
O O10 0.569096 0.826762 0.775611
O O11 0.363531 0.800877 0.906802
O O12 0.505798 0.714485 0.922825
O O13 0.676763 0.793247 0.926947
O O14 0.185601 0.374201 0.441889
O O15 0.296558 0.360962 0.319880
#
# Coordination Sequence:
#
# PCOD9370050 Si02
#       7
#    16  16  16  16  16  16  16
#     4  10  18  30  44  70 106 134 163 198 258 319
#     4   9  18  26  42  71 101 127 152 212 268 296
#     4  11  16  26  45  74  98 119 160 212 265 299
#     4   9  16  27  45  69  98 126 167 204 250 312
#     4   8  13  23  38  60  95 122 152 186 258 305
#     4  10  16  28  46  74  98 124 164 213 265 301
#     4   9  15  25  39  64  97 128 149 203 256 306
#
# _framework density 22.115559999999999
#
# number of rings (size 3 to 8) (size 9 to 14) (size 15 to 20)
#    0.000    2.571    5.714    1.286    0.000    0.000 
#    0.000    0.000    0.000    0.000   26.000    0.000 
#    4.286    0.000    0.000    0.000    0.000    0.000 
#
# Total GULP energy -155902.728480 kJ/mol
# GULP energy per Si atom -5567.954589 kJ/mol
# Density = 2.206522 g / cm^3
# Si number density = 22.115560 Si / 1000 Ang^3
#
#
#
# Elastic Constant Matrix: (Units=GPa)
#
#
# Indices 1 2 3 4 5 6 
#
# 1 62.0717 11.6415 12.4526 0.0000 0.0000 0.0000
# 2 11.6415 79.7449 16.1159 0.0000 0.0000 0.0000
# 3 12.4526 16.1159 141.7498 0.0000 0.0000 0.0000
# 4 0.0000 0.0000 0.0000 2.7947 0.0000 0.0000
# 5 0.0000 0.0000 0.0000 0.0000 13.6479 0.0000
# 6 0.0000 0.0000 0.0000 0.0000 0.0000 6.0088
#
#
#
# Elastic Compliance Matrix: (Units=1/GPa)
#
#
# Indices 1 2 3 4 5 6 
#
# 1 0.016769 -0.002201 -0.001223 0.000000 0.000000 0.000000
# 2 -0.002201 0.013124 -0.001299 0.000000 0.000000 0.000000
# 3 -0.001223 -0.001299 0.007310 0.000000 0.000000 0.000000
# 4 0.000000 0.000000 0.000000 0.357817 0.000000 0.000000
# 5 0.000000 0.000000 0.000000 0.000000 0.073272 0.000000
# 6 0.000000 0.000000 0.000000 0.000000 0.000000 0.166422
#
#
# Mechanical properties :
#
#
# Convention : Reuss Voigt Hill
#
# Bulk Modulus (GPa) = 36.02675 40.44295 38.23485
# Shear Modulus (GPa) = 7.65216 20.71403 14.18310
#
# Velocity S-wave (km/s) = 1.86215 3.06376 2.53517
# Velocity P-wave (km/s) = 4.57701 5.55358 5.08878
#
# Compressibility (1/GPa) = 0.02775715
#
# Stress axis : x y z
#
# Youngs Moduli (GPa) = 59.63562 76.19785 136.80319
#
# Poissons Ratio (x) = 0.16770 0.16729
# Poissons Ratio (y) = 0.13125 0.17767
# Poissons Ratio (z) = 0.07293 0.09896
#
# Static dielectric constant tensor:
#      x y z
#    x 1.888690 0.000000 0.000000 
#    y 0.000000 1.778600 0.000000 
#    z 0.000000 0.000000 1.880540 
# 
# From -- ./inp_files/17328.got.cif
#   From: 2010.05.17/outbox.cif.g08.bks.cpg/sg43_9_cif.got.tgz:17328.got - 2010.06.03 19:21:55.
