data_PCOD9370012
_publ_section_title
;
Structure prediction by ZEFSAII (Michael W. Deem and Ramdas Pophale) SiO2 
 PCOD9370012
Probable space group: F M M 2
;
_chemical_formula_sum "Si O2"
_cell_formula_units_Z 21
_cell_length_a 21.000000
_cell_length_b 24.000000
_cell_length_c 9.000000
_cell_angle_alpha 90.000000
_cell_angle_beta 90.000000
_cell_angle_gamma 90.000000
_cell_volume 4536.000000
_symmetry_space_group_name_H-M "F M M 2"
_symmetry_group_IT_number 42
_symmetry_cell_setting 'orthorhombic'
loop_
_space_group_symop_operation_xyz
x,y,z
-x,-y,z
-x,y,z
x,-y,z
x,1/2+y,1/2+z
-x,1/2-y,1/2+z
-x,1/2+y,1/2+z
x,1/2-y,1/2+z
1/2+x,y,1/2+z
1/2-x,-y,1/2+z
1/2-x,y,1/2+z
1/2+x,-y,1/2+z
1/2+x,1/2+y,z
1/2-x,1/2-y,z
1/2-x,1/2+y,z
1/2+x,1/2-y,z
loop_
_atom_site_type_symbol
_atom_site_label
_atom_site_fract_x
_atom_site_fract_y
_atom_site_fract_z
Si Si1 0.000000 0.000000 0.143381
Si Si2 0.423068 0.390390 0.549997
Si Si3 0.822356 0.806721 0.682308
Si Si4 0.885980 0.089026 0.208970
Si Si5 0.717052 0.500000 0.301331
Si Si6 0.657432 0.500000 0.623715
Si Si7 0.312894 0.816025 0.541864
O O1 0.057026 0.951081 0.152217
O O2 0.500000 0.390502 0.571961
O O3 0.384523 0.340626 0.629413
O O4 0.408462 0.389790 0.372525
O O5 0.389142 0.446616 0.612562
O O6 0.758600 0.830797 0.600887
O O7 0.826807 0.743309 0.621987
O O8 0.813968 0.809693 0.861949
O O9 0.863790 0.138568 0.099973
O O10 0.821930 0.052682 0.237049
O O11 0.702467 0.500000 0.477176
O O12 0.791476 0.500000 0.257863
#
# Coordination Sequence:
#
# PCOD9370012 Si02
#       7
#     4  16  16  16   8   8  16
#     4  10  20  40  64  92 124 174 212 260 306 388
#     4  11  22  39  61  91 128 173 213 256 312 393
#     4  11  23  41  67  97 131 159 218 263 331 380
#     4  10  20  38  65  90 125 166 216 254 319 372
#     4   9  20  33  58  91 116 156 208 261 305 370
#     4  10  21  36  61  87 124 161 209 261 318 367
#     4  11  22  42  68  97 125 167 208 278 322 379
#
# _framework density 4.6296299999999997
#
# number of rings (size 3 to 8) (size 9 to 14) (size 15 to 20)
#    0.000    1.524    0.952    6.571    0.000    4.571 
#    3.429    0.952    0.000    0.000    0.000    0.000 
#    0.000    0.000    0.000    0.000    0.000    0.000 
#
# Total GULP energy -117035.167270 kJ/mol
# GULP energy per Si atom -5573.103203 kJ/mol
# Density = 0.461909 g / cm^3
# Si number density = 4.629630 Si / 1000 Ang^3
#
#
#
# Elastic Constant Matrix: (Units=GPa)
#
#
# Indices 1 2 3 4 5 6 
#
# 1 176.5483 64.2209 63.4109 0.0000 0.0000 0.0000
# 2 64.2209 92.3638 50.4100 0.0000 0.0000 0.0000
# 3 63.4109 50.4100 112.7090 0.0000 0.0000 0.0000
# 4 0.0000 0.0000 0.0000 26.1526 0.0000 0.0000
# 5 0.0000 0.0000 0.0000 0.0000 27.9843 0.0000
# 6 0.0000 0.0000 0.0000 0.0000 0.0000 45.4013
#
#
#
# Elastic Compliance Matrix: (Units=1/GPa)
#
#
# Indices 1 2 3 4 5 6 
#
# 1 0.008166 -0.004194 -0.002718 0.000000 0.000000 0.000000
# 2 -0.004194 0.016477 -0.005010 0.000000 0.000000 0.000000
# 3 -0.002718 -0.005010 0.012643 0.000000 0.000000 0.000000
# 4 0.000000 0.000000 0.000000 0.038237 0.000000 0.000000
# 5 0.000000 0.000000 0.000000 0.000000 0.035734 0.000000
# 6 0.000000 0.000000 0.000000 0.000000 0.000000 0.022026
#
#
# Mechanical properties :
#
#
# Convention : Reuss Voigt Hill
#
# Bulk Modulus (GPa) = 74.40017 81.96720 78.18369
# Shear Modulus (GPa) = 30.93886 33.47959 32.20923
#
# Velocity S-wave (km/s) = 4.09185 4.25655 4.17501
# Velocity P-wave (km/s) = 7.91124 8.27744 8.09641
#
# Compressibility (1/GPa) = 0.01344083
#
# Stress axis : x y z
#
# Youngs Moduli (GPa) = 122.45443 60.68924 79.09817
#
# Poissons Ratio (x) = 0.25455 0.21502
# Poissons Ratio (y) = 0.51362 0.39627
# Poissons Ratio (z) = 0.33289 0.30404
#
# Static dielectric constant tensor:
#      x y z
#    x 1.616890 0.000000 0.000000 
#    y 0.000000 1.672510 0.000000 
#    z 0.000000 0.000000 1.645280 
# 
# From -- ./inp_files/4002.got.cif
#   From: 2010.05.17/outbox.ucp.g08.bks.cvg/sg42_3_cif.got.tgz:4002.got - 2010.06.11 16:29:10.
