data_PCOD9370435
_publ_section_title
;
Structure prediction by ZEFSAII (Michael W. Deem and Ramdas Pophale) SiO2 
 PCOD9370435
Probable space group: F D D 2
;
_chemical_formula_sum "Si O2"
_cell_formula_units_Z 112
_cell_length_a 17.740283
_cell_length_b 11.887916
_cell_length_c 21.428699
_cell_angle_alpha 90.000000
_cell_angle_beta 90.000000
_cell_angle_gamma 90.000000
_cell_volume 4519.205350
_symmetry_space_group_name_H-M "F D D 2"
_symmetry_group_IT_number 43
_symmetry_cell_setting 'orthorhombic'
loop_
_space_group_symop_operation_xyz
x,y,z
-x,-y,z
1/4-x,1/4+y,1/4+z
1/4+x,1/4-y,1/4+z
x,1/2+y,1/2+z
-x,1/2-y,1/2+z
1/4-x,3/4+y,3/4+z
1/4+x,3/4-y,3/4+z
1/2+x,y,1/2+z
1/2-x,-y,1/2+z
3/4-x,1/4+y,3/4+z
3/4+x,1/4-y,3/4+z
1/2+x,1/2+y,z
1/2-x,1/2-y,z
3/4-x,3/4+y,1/4+z
3/4+x,3/4-y,1/4+z
loop_
_atom_site_type_symbol
_atom_site_label
_atom_site_fract_x
_atom_site_fract_y
_atom_site_fract_z
Si Si1 0.755108 0.582212 0.741450
Si Si2 0.645134 0.071976 0.343453
Si Si3 0.413886 0.135712 0.681043
Si Si4 0.445614 0.410871 0.957803
Si Si5 0.322655 0.314689 0.623052
Si Si6 0.633181 0.803904 0.338514
Si Si7 0.716019 0.987987 0.043717
O O1 0.722654 0.605932 0.809921
O O2 0.839934 0.612015 0.723742
O O3 0.739272 0.451715 0.726033
O O4 0.703120 0.649297 0.692155
O O5 0.623648 0.115225 0.412023
O O6 0.579262 0.120874 0.297556
O O7 0.643308 0.936805 0.348013
O O8 0.389534 0.227125 0.629162
O O9 0.471876 0.199119 0.726922
O O10 0.420661 0.020397 0.642624
O O11 0.500000 0.500000 0.924223
O O12 0.418264 0.469790 0.020842
O O13 0.250000 0.250000 0.594419
O O14 0.333638 0.426879 0.585126
O O15 0.545079 0.774411 0.329532
#
# Coordination Sequence:
#
# PCOD9370435 Si02
#       7
#    16  16  16  16  16  16  16
#     4  10  20  40  65  98 129 169 221 275 337 408
#     4  11  22  40  72  97 131 178 226 282 343 409
#     4  11  23  42  69  96 140 178 222 282 345 405
#     4  11  23  43  68  91 135 182 225 277 342 402
#     4  10  19  38  62  89 130 168 216 272 333 400
#     4  11  25  44  64 102 135 178 229 278 338 416
#     4  12  22  40  72  97 130 182 224 279 343 402
#
# _framework density 24.783118000000002
#
# number of rings (size 3 to 8) (size 9 to 14) (size 15 to 20)
#    0.000    1.143    5.714    2.143    0.000    2.286 
#    7.714    0.000    3.143    0.000    0.000    0.000 
#    0.000    0.000    0.000    0.000    0.000    0.000 
#
# Total GULP energy -156592.705455 kJ/mol
# GULP energy per Si atom -5592.596623 kJ/mol
# Density = 2.472671 g / cm^3
# Si number density = 24.783118 Si / 1000 Ang^3
#
#
#
# Elastic Constant Matrix: (Units=GPa)
#
#
# Indices 1 2 3 4 5 6 
#
# 1 76.1420 10.0182 22.7417 0.0000 0.0000 0.0000
# 2 10.0182 128.5749 14.5166 0.0000 0.0000 0.0000
# 3 22.7417 14.5166 90.1867 0.0000 0.0000 0.0000
# 4 0.0000 0.0000 0.0000 32.6185 0.0000 0.0000
# 5 0.0000 0.0000 0.0000 0.0000 23.4416 0.0000
# 6 0.0000 0.0000 0.0000 0.0000 0.0000 11.3482
#
#
#
# Elastic Compliance Matrix: (Units=1/GPa)
#
#
# Indices 1 2 3 4 5 6 
#
# 1 0.014268 -0.000719 -0.003482 0.000000 0.000000 0.000000
# 2 -0.000719 0.007958 -0.001100 0.000000 0.000000 0.000000
# 3 -0.003482 -0.001100 0.012143 0.000000 0.000000 0.000000
# 4 0.000000 0.000000 0.000000 0.030657 0.000000 0.000000
# 5 0.000000 0.000000 0.000000 0.000000 0.042659 0.000000
# 6 0.000000 0.000000 0.000000 0.000000 0.000000 0.088120
#
#
# Mechanical properties :
#
#
# Convention : Reuss Voigt Hill
#
# Bulk Modulus (GPa) = 42.07341 43.27295 42.67318
# Shear Modulus (GPa) = 23.32866 29.99014 26.65940
#
# Velocity S-wave (km/s) = 3.07141 3.48243 3.28336
# Velocity P-wave (km/s) = 5.43981 5.80244 5.62405
#
# Compressibility (1/GPa) = 0.02376798
#
# Stress axis : x y z
#
# Youngs Moduli (GPa) = 70.08720 125.66416 82.35072
#
# Poissons Ratio (x) = 0.09030 0.28676
# Poissons Ratio (y) = 0.05036 0.09056
# Poissons Ratio (z) = 0.24406 0.13819
#
# Static dielectric constant tensor:
#      x y z
#    x 2.024860 0.000000 0.000000 
#    y 0.000000 2.002090 0.000000 
#    z 0.000000 0.000000 2.005170 
# 
# From -- ./inp_files/22398.got.cif
#   From: 2010.05.17/outbox.cif.g08.bks.cpg/sg43_12_cif.got.tgz:22398.got - 2010.06.03 19:21:55.
