data_PCOD9370123
_publ_section_title
;
Structure prediction by ZEFSAII (Michael W. Deem and Ramdas Pophale) SiO2 
 PCOD9370123
Probable space group: F D D 2
;
_chemical_formula_sum "Si O2"
_cell_formula_units_Z 112
_cell_length_a 7.750221
_cell_length_b 33.445678
_cell_length_c 17.238413
_cell_angle_alpha 90.000000
_cell_angle_beta 90.000000
_cell_angle_gamma 90.000000
_cell_volume 4468.393098
_symmetry_space_group_name_H-M "F D D 2"
_symmetry_group_IT_number 43
_symmetry_cell_setting 'orthorhombic'
loop_
_space_group_symop_operation_xyz
x,y,z
-x,-y,z
1/4-x,1/4+y,1/4+z
1/4+x,1/4-y,1/4+z
x,1/2+y,1/2+z
-x,1/2-y,1/2+z
1/4-x,3/4+y,3/4+z
1/4+x,3/4-y,3/4+z
1/2+x,y,1/2+z
1/2-x,-y,1/2+z
3/4-x,1/4+y,3/4+z
3/4+x,1/4-y,3/4+z
1/2+x,1/2+y,z
1/2-x,1/2-y,z
3/4-x,3/4+y,1/4+z
3/4+x,3/4-y,1/4+z
loop_
_atom_site_type_symbol
_atom_site_label
_atom_site_fract_x
_atom_site_fract_y
_atom_site_fract_z
Si Si1 0.062424 0.829870 0.519040
Si Si2 0.077930 0.068609 0.056066
Si Si3 0.334920 0.398650 0.351792
Si Si4 0.431079 0.726543 0.662783
Si Si5 0.296640 0.203707 0.471337
Si Si6 0.463681 0.200918 0.745636
Si Si7 0.197811 0.350356 0.865148
O O1 0.880821 0.822661 0.472980
O O2 0.076032 0.869136 0.573303
O O3 0.055979 0.793461 0.579477
O O4 0.204795 0.834212 0.452202
O O5 0.033160 0.114748 0.065443
O O6 0.141607 0.053401 0.139375
O O7 0.892766 0.046389 0.042657
O O8 0.180508 0.057447 0.979107
O O9 0.350357 0.435862 0.293661
O O10 0.269324 0.414824 0.433923
O O11 0.523201 0.378261 0.362560
O O12 0.250000 0.750000 0.661603
O O13 0.561699 0.759752 0.694802
O O14 0.250000 0.250000 0.479601
O O15 0.324818 0.187122 0.807803
#
# Coordination Sequence:
#
# PCOD9370123 Si02
#       7
#    16  16  16  16  16  16  16
#     4  11  21  39  60  84 118 153 195 240 297 353
#     4  10  19  35  56  81 112 153 190 230 286 342
#     4  10  18  33  56  86 112 143 192 237 288 337
#     4  10  23  39  58  81 122 158 190 238 302 350
#     4  11  20  32  59  91 109 140 196 245 281 337
#     4  10  17  35  58  84 112 152 187 242 288 340
#     4  10  19  35  63  84 114 152 194 241 292 350
#
# _framework density 25.064938999999999
#
# number of rings (size 3 to 8) (size 9 to 14) (size 15 to 20)
#    0.000    1.714    4.286    3.857    0.000    0.000 
#    7.714    0.000    3.143    0.000    0.000    0.000 
#    0.000    0.000    0.000    0.000    0.000    0.000 
#
# Total GULP energy -156632.359970 kJ/mol
# GULP energy per Si atom -5594.012856 kJ/mol
# Density = 2.500789 g / cm^3
# Si number density = 25.064939 Si / 1000 Ang^3
#
#
#
# Elastic Constant Matrix: (Units=GPa)
#
#
# Indices 1 2 3 4 5 6 
#
# 1 49.9119 -0.8579 9.1014 0.0000 0.0000 0.0000
# 2 -0.8579 117.8824 73.9333 0.0000 0.0000 0.0000
# 3 9.1014 73.9333 204.8635 0.0000 0.0000 0.0000
# 4 0.0000 0.0000 0.0000 46.1514 0.0000 0.0000
# 5 0.0000 0.0000 0.0000 0.0000 21.0036 0.0000
# 6 0.0000 0.0000 0.0000 0.0000 0.0000 9.8541
#
#
#
# Elastic Compliance Matrix: (Units=1/GPa)
#
#
# Indices 1 2 3 4 5 6 
#
# 1 0.020276 0.000921 -0.001233 0.000000 0.000000 0.000000
# 2 0.000921 0.011007 -0.004013 0.000000 0.000000 0.000000
# 3 -0.001233 -0.004013 0.006384 0.000000 0.000000 0.000000
# 4 0.000000 0.000000 0.000000 0.021668 0.000000 0.000000
# 5 0.000000 0.000000 0.000000 0.000000 0.047611 0.000000
# 6 0.000000 0.000000 0.000000 0.000000 0.000000 0.101481
#
#
# Mechanical properties :
#
#
# Convention : Reuss Voigt Hill
#
# Bulk Modulus (GPa) = 34.46320 59.66791 47.06555
# Shear Modulus (GPa) = 22.05079 34.76722 28.40901
#
# Velocity S-wave (km/s) = 2.96927 3.72840 3.37028
# Velocity P-wave (km/s) = 5.05320 6.51089 5.82780
#
# Compressibility (1/GPa) = 0.02901646
#
# Stress axis : x y z
#
# Youngs Moduli (GPa) = 49.31937 90.85394 156.63229
#
# Poissons Ratio (x) = -0.08367 0.19315
# Poissons Ratio (y) = -0.04542 0.62858
# Poissons Ratio (z) = 0.06082 0.36461
#
# Static dielectric constant tensor:
#      x y z
#    x 2.066450 0.000000 0.000000 
#    y 0.000000 1.978340 0.000000 
#    z 0.000000 0.000000 1.965220 
# 
# From -- ./inp_files/9765.got.cif
#   From: 2010.05.17/outbox.cif.g08.bks.cpg/sg43_5_cif.got.tgz:9765.got - 2010.06.03 19:21:55.
