data_PCOD9370469
_publ_section_title
;
Structure prediction by ZEFSAII (Michael W. Deem and Ramdas Pophale) SiO2 
 PCOD9370469
Probable space group: F D D 2
;
_chemical_formula_sum "Si O2"
_cell_formula_units_Z 88
_cell_length_a 31.435149
_cell_length_b 9.927482
_cell_length_c 11.586522
_cell_angle_alpha 90.000000
_cell_angle_beta 90.000000
_cell_angle_gamma 90.000000
_cell_volume 3615.827655
_symmetry_space_group_name_H-M "F D D 2"
_symmetry_group_IT_number 43
_symmetry_cell_setting 'orthorhombic'
loop_
_space_group_symop_operation_xyz
x,y,z
-x,-y,z
1/4-x,1/4+y,1/4+z
1/4+x,1/4-y,1/4+z
x,1/2+y,1/2+z
-x,1/2-y,1/2+z
1/4-x,3/4+y,3/4+z
1/4+x,3/4-y,3/4+z
1/2+x,y,1/2+z
1/2-x,-y,1/2+z
3/4-x,1/4+y,3/4+z
3/4+x,1/4-y,3/4+z
1/2+x,1/2+y,z
1/2-x,1/2-y,z
3/4-x,3/4+y,1/4+z
3/4+x,3/4-y,1/4+z
loop_
_atom_site_type_symbol
_atom_site_label
_atom_site_fract_x
_atom_site_fract_y
_atom_site_fract_z
Si Si1 0.836664 0.656719 0.627300
Si Si2 0.180542 0.790943 0.678587
Si Si3 0.750000 0.250000 0.119170
Si Si4 0.912111 0.136623 0.723930
Si Si5 0.321185 0.980436 0.834234
Si Si6 0.731722 0.013941 0.298088
O O1 0.797078 0.731190 0.564319
O O2 0.840397 0.517986 0.556710
O O3 0.882524 0.724903 0.641107
O O4 0.824367 0.612896 0.755215
O O5 0.137110 0.878194 0.689462
O O6 0.181151 0.735866 0.548099
O O7 0.178559 0.656088 0.756819
O O8 0.217920 0.880671 0.729605
O O9 0.742675 0.120099 0.198805
O O10 0.942880 0.178202 0.621233
O O11 0.272877 0.987911 0.880065
#
# Coordination Sequence:
#
# PCOD9370469 Si02
#       6
#    16  16   8  16  16  16
#     4   9  20  40  62  86 130 168 216 282 330 405
#     4  10  19  39  65  98 133 172 226 287 334 400
#     4  10  24  46  58  90 138 164 214 286 334 400
#     4  10  20  38  68  98 126 177 232 272 342 412
#     4   9  20  37  64  92 126 172 218 275 338 403
#     4  11  22  42  64  95 139 171 221 285 334 410
#
# _framework density 24.337440999999998
#
# number of rings (size 3 to 8) (size 9 to 14) (size 15 to 20)
#    0.000    2.182    1.818    0.545    2.545    1.455 
#   16.364    0.000    4.000    0.000    0.000    0.000 
#    0.000    0.000    0.000    0.000    0.000    0.000 
#
# Total GULP energy -122755.744824 kJ/mol
# GULP energy per Si atom -5579.806583 kJ/mol
# Density = 2.428205 g / cm^3
# Si number density = 24.337441 Si / 1000 Ang^3
#
#
#
# Elastic Constant Matrix: (Units=GPa)
#
#
# Indices 1 2 3 4 5 6 
#
# 1 184.1217 39.0874 9.8247 0.0000 0.0000 0.0000
# 2 39.0874 67.6232 10.5859 0.0000 0.0000 0.0000
# 3 9.8247 10.5859 24.9045 0.0000 0.0000 0.0000
# 4 0.0000 0.0000 0.0000 26.0661 0.0000 0.0000
# 5 0.0000 0.0000 0.0000 0.0000 21.3694 0.0000
# 6 0.0000 0.0000 0.0000 0.0000 0.0000 22.1465
#
#
#
# Elastic Compliance Matrix: (Units=1/GPa)
#
#
# Indices 1 2 3 4 5 6 
#
# 1 0.006214 -0.003437 -0.000991 0.000000 0.000000 0.000000
# 2 -0.003437 0.017743 -0.006186 0.000000 0.000000 0.000000
# 3 -0.000991 -0.006186 0.043174 0.000000 0.000000 0.000000
# 4 0.000000 0.000000 0.000000 0.038364 0.000000 0.000000
# 5 0.000000 0.000000 0.000000 0.000000 0.046796 0.000000
# 6 0.000000 0.000000 0.000000 0.000000 0.000000 0.045154
#
#
# Mechanical properties :
#
#
# Convention : Reuss Voigt Hill
#
# Bulk Modulus (GPa) = 21.78469 43.96061 32.87265
# Shear Modulus (GPa) = 21.37021 28.39317 24.88169
#
# Velocity S-wave (km/s) = 2.96646 3.41932 3.20091
# Velocity P-wave (km/s) = 4.55013 5.80441 5.21512
#
# Compressibility (1/GPa) = 0.04590379
#
# Stress axis : x y z
#
# Youngs Moduli (GPa) = 160.93769 56.36173 23.16231
#
# Poissons Ratio (x) = 0.19369 0.02294
# Poissons Ratio (y) = 0.55306 0.14328
# Poissons Ratio (z) = 0.15941 0.34865
#
# Static dielectric constant tensor:
#      x y z
#    x 2.073840 0.000000 0.000000 
#    y 0.000000 1.902900 0.000000 
#    z 0.000000 0.000000 1.952900 
# 
# From -- ./inp_files/8220.got.cif
#   From: 2010.05.17/outbox.cif.g08.bks.cpg/sg43_5_cif.got.tgz:8220.got - 2010.06.03 19:21:55.
