data_PCOD9370919
_publ_section_title
;
Structure prediction by ZEFSAII (Michael W. Deem and Ramdas Pophale) SiO2 
 PCOD9370919
Probable space group: F D D 2
;
_chemical_formula_sum "Si O2"
_cell_formula_units_Z 88
_cell_length_a 11.644116
_cell_length_b 28.527019
_cell_length_c 10.158728
_cell_angle_alpha 90.000000
_cell_angle_beta 90.000000
_cell_angle_gamma 90.000000
_cell_volume 3374.444168
_symmetry_space_group_name_H-M "F D D 2"
_symmetry_group_IT_number 43
_symmetry_cell_setting 'orthorhombic'
loop_
_space_group_symop_operation_xyz
x,y,z
-x,-y,z
1/4-x,1/4+y,1/4+z
1/4+x,1/4-y,1/4+z
x,1/2+y,1/2+z
-x,1/2-y,1/2+z
1/4-x,3/4+y,3/4+z
1/4+x,3/4-y,3/4+z
1/2+x,y,1/2+z
1/2-x,-y,1/2+z
3/4-x,1/4+y,3/4+z
3/4+x,1/4-y,3/4+z
1/2+x,1/2+y,z
1/2-x,1/2-y,z
3/4-x,3/4+y,1/4+z
3/4+x,3/4-y,1/4+z
loop_
_atom_site_type_symbol
_atom_site_label
_atom_site_fract_x
_atom_site_fract_y
_atom_site_fract_z
Si Si1 0.456985 0.342863 0.861950
Si Si2 0.500000 0.500000 0.911015
Si Si3 0.391353 0.336282 0.148363
Si Si4 0.604081 0.059546 0.926432
Si Si5 0.109118 0.314222 0.975965
Si Si6 0.893067 0.296129 0.106358
O O1 0.579320 0.363502 0.908951
O O2 0.397836 0.387835 0.794757
O O3 0.459599 0.306293 0.744235
O O4 0.389291 0.326349 0.990152
O O5 0.567835 0.454760 0.970977
O O6 0.403609 0.476162 0.821603
O O7 0.525934 0.336987 0.176126
O O8 0.587630 0.055439 0.083750
O O9 0.479562 0.072067 0.868054
O O10 0.627680 0.009571 0.857185
O O11 0.971269 0.312904 0.986498
#
# Coordination Sequence:
#
# PCOD9370919 Si02
#       6
#    16   8  16  16  16  16
#     4  11  23  43  68  93 134 178 234 275 347 422
#     4  10  20  42  68  88 130 176 236 258 348 422
#     4  11  23  43  64 101 133 180 220 296 345 415
#     4  11  25  43  70 101 141 175 234 291 347 416
#     4  11  22  43  72  97 131 186 226 284 345 420
#     4  11  23  45  71 101 131 186 233 284 343 428
#
# _framework density 26.07837
#
# number of rings (size 3 to 8) (size 9 to 14) (size 15 to 20)
#    0.000    1.091    3.636    4.364    0.000    1.455 
#    3.273    1.818    0.000    0.000    0.000    0.000 
#    0.000    0.000    0.000    0.000    0.000    0.000 
#
# Total GULP energy -123038.549263 kJ/mol
# GULP energy per Si atom -5592.661330 kJ/mol
# Density = 2.601901 g / cm^3
# Si number density = 26.078370 Si / 1000 Ang^3
#
#
#
# Elastic Constant Matrix: (Units=GPa)
#
#
# Indices 1 2 3 4 5 6 
#
# 1 199.2126 26.1855 9.0009 0.0000 0.0000 0.0000
# 2 26.1855 61.3584 -11.3210 0.0000 0.0000 0.0000
# 3 9.0009 -11.3210 39.2377 0.0000 0.0000 0.0000
# 4 0.0000 0.0000 0.0000 18.6565 0.0000 0.0000
# 5 0.0000 0.0000 0.0000 0.0000 37.5171 0.0000
# 6 0.0000 0.0000 0.0000 0.0000 0.0000 45.3623
#
#
#
# Elastic Compliance Matrix: (Units=1/GPa)
#
#
# Indices 1 2 3 4 5 6 
#
# 1 0.005468 -0.002709 -0.002036 0.000000 0.000000 0.000000
# 2 -0.002709 0.018556 0.005975 0.000000 0.000000 0.000000
# 3 -0.002036 0.005975 0.027677 0.000000 0.000000 0.000000
# 4 0.000000 0.000000 0.000000 0.053601 0.000000 0.000000
# 5 0.000000 0.000000 0.000000 0.000000 0.026655 0.000000
# 6 0.000000 0.000000 0.000000 0.000000 0.000000 0.022045
#
#
# Mechanical properties :
#
#
# Convention : Reuss Voigt Hill
#
# Bulk Modulus (GPa) = 18.46322 38.61549 28.53935
# Shear Modulus (GPa) = 29.48216 38.70341 34.09278
#
# Velocity S-wave (km/s) = 3.36597 3.85661 3.61961
# Velocity P-wave (km/s) = 4.71186 5.88819 5.33256
#
# Compressibility (1/GPa) = 0.05416173
#
# Stress axis : x y z
#
# Youngs Moduli (GPa) = 182.88719 53.88989 36.13135
#
# Poissons Ratio (x) = 0.14599 0.07356
# Poissons Ratio (y) = 0.49546 -0.21590
# Poissons Ratio (z) = 0.37235 -0.32202
#
# Static dielectric constant tensor:
#      x y z
#    x 2.151100 0.000000 0.000000 
#    y 0.000000 2.105300 0.000000 
#    z 0.000000 0.000000 2.041290 
# 
# From -- ./inp_files/5764.got.cif
#   From: 2010.05.17/outbox.cif.g08.bks.cpg/sg43_3_cif.got.tgz:5764.got - 2010.06.03 19:21:55.
