data_PCOD9370204
_publ_section_title
;
Structure prediction by ZEFSAII (Michael W. Deem and Ramdas Pophale) SiO2 
 PCOD9370204
Probable space group: F D D 2
;
_chemical_formula_sum "Si O2"
_cell_formula_units_Z 64
_cell_length_a 14.988374
_cell_length_b 10.386045
_cell_length_c 16.913303
_cell_angle_alpha 90.000000
_cell_angle_beta 90.000000
_cell_angle_gamma 90.000000
_cell_volume 2632.892641
_symmetry_space_group_name_H-M "F D D 2"
_symmetry_group_IT_number 43
_symmetry_cell_setting 'orthorhombic'
loop_
_space_group_symop_operation_xyz
x,y,z
-x,-y,z
1/4-x,1/4+y,1/4+z
1/4+x,1/4-y,1/4+z
x,1/2+y,1/2+z
-x,1/2-y,1/2+z
1/4-x,3/4+y,3/4+z
1/4+x,3/4-y,3/4+z
1/2+x,y,1/2+z
1/2-x,-y,1/2+z
3/4-x,1/4+y,3/4+z
3/4+x,1/4-y,3/4+z
1/2+x,1/2+y,z
1/2-x,1/2-y,z
3/4-x,3/4+y,1/4+z
3/4+x,3/4-y,1/4+z
loop_
_atom_site_type_symbol
_atom_site_label
_atom_site_fract_x
_atom_site_fract_y
_atom_site_fract_z
Si Si1 0.879206 0.000692 0.092160
Si Si2 0.796371 0.112918 0.638920
Si Si3 0.788615 0.983702 0.805566
Si Si4 0.647432 0.242181 0.020558
O O1 0.778388 0.949170 0.083219
O O2 0.943104 0.877306 0.090122
O O3 0.891291 0.056043 0.180682
O O4 0.884412 0.109010 0.025959
O O5 0.750000 0.250000 0.660387
O O6 0.806188 0.016250 0.712946
O O7 0.888152 0.143675 0.595362
O O8 0.687443 0.931950 0.815869
O O9 0.750000 0.250000 0.048513
#
# Coordination Sequence:
#
# PCOD9370204 Si02
#       4
#    16  16  16  16
#     4  10  20  38  59  82 114 157 199 237 288 358
#     4   9  19  34  57  88 116 149 195 244 295 347
#     4  10  18  35  60  85 114 151 197 243 288 347
#     4  11  22  37  58  85 118 157 197 240 293 352
#
# _framework density 24.307866000000001
#
# number of rings (size 3 to 8) (size 9 to 14) (size 15 to 20)
#    0.000    2.000    0.000    6.750    0.000    0.000 
#    0.000   26.250    0.000    0.000    0.000    0.000 
#    0.000    0.000    0.000    0.000    0.000    0.000 
#
# Total GULP energy -89229.849812 kJ/mol
# GULP energy per Si atom -5576.865613 kJ/mol
# Density = 2.425254 g / cm^3
# Si number density = 24.307866 Si / 1000 Ang^3
#
#
#
# Elastic Constant Matrix: (Units=GPa)
#
#
# Indices 1 2 3 4 5 6 
#
# 1 264.0488 9.6941 42.1653 0.0000 0.0000 0.0000
# 2 9.6941 41.1175 11.6382 0.0000 0.0000 0.0000
# 3 42.1653 11.6382 51.8597 0.0000 0.0000 0.0000
# 4 0.0000 0.0000 0.0000 3.6840 0.0000 0.0000
# 5 0.0000 0.0000 0.0000 0.0000 42.5853 0.0000
# 6 0.0000 0.0000 0.0000 0.0000 0.0000 26.0328
#
#
#
# Elastic Compliance Matrix: (Units=1/GPa)
#
#
# Indices 1 2 3 4 5 6 
#
# 1 0.004352 -0.000026 -0.003533 0.000000 0.000000 0.000000
# 2 -0.000026 0.025970 -0.005807 0.000000 0.000000 0.000000
# 3 -0.003533 -0.005807 0.023458 0.000000 0.000000 0.000000
# 4 0.000000 0.000000 0.000000 0.271446 0.000000 0.000000
# 5 0.000000 0.000000 0.000000 0.000000 0.023482 0.000000
# 6 0.000000 0.000000 0.000000 0.000000 0.000000 0.038413
#
#
# Mechanical properties :
#
#
# Convention : Reuss Voigt Hill
#
# Bulk Modulus (GPa) = 28.53129 53.78013 41.15571
# Shear Modulus (GPa) = 11.97499 34.02898 23.00199
#
# Velocity S-wave (km/s) = 2.22195 3.74560 3.07950
# Velocity P-wave (km/s) = 4.28319 6.39364 5.44171
#
# Compressibility (1/GPa) = 0.03504924
#
# Stress axis : x y z
#
# Youngs Moduli (GPa) = 229.76426 38.50546 42.62876
#
# Poissons Ratio (x) = 0.00101 0.15060
# Poissons Ratio (y) = 0.00601 0.24754
# Poissons Ratio (z) = 0.81171 0.22360
#
# Static dielectric constant tensor:
#      x y z
#    x 2.060430 0.000000 0.000000 
#    y 0.000000 1.956680 0.000000 
#    z 0.000000 0.000000 1.922680 
# 
# From -- ./inp_files/13103.got.cif
#   From: 2010.05.17/outbox.cif.g08.bks.cpg/sg43_7_cif.got.tgz:13103.got - 2010.06.03 19:21:55.
