data_PCOD9370049
_publ_section_title
;
Structure prediction by ZEFSAII (Michael W. Deem and Ramdas Pophale) SiO2 
 PCOD9370049
Probable space group: F D D 2
;
_chemical_formula_sum "Si O2"
_cell_formula_units_Z 88
_cell_length_a 26.161772
_cell_length_b 15.149532
_cell_length_c 13.262819
_cell_angle_alpha 90.000000
_cell_angle_beta 90.000000
_cell_angle_gamma 90.000000
_cell_volume 5256.567142
_symmetry_space_group_name_H-M "F D D 2"
_symmetry_group_IT_number 43
_symmetry_cell_setting 'orthorhombic'
loop_
_space_group_symop_operation_xyz
x,y,z
-x,-y,z
1/4-x,1/4+y,1/4+z
1/4+x,1/4-y,1/4+z
x,1/2+y,1/2+z
-x,1/2-y,1/2+z
1/4-x,3/4+y,3/4+z
1/4+x,3/4-y,3/4+z
1/2+x,y,1/2+z
1/2-x,-y,1/2+z
3/4-x,1/4+y,3/4+z
3/4+x,1/4-y,3/4+z
1/2+x,1/2+y,z
1/2-x,1/2-y,z
3/4-x,3/4+y,1/4+z
3/4+x,3/4-y,1/4+z
loop_
_atom_site_type_symbol
_atom_site_label
_atom_site_fract_x
_atom_site_fract_y
_atom_site_fract_z
Si Si1 0.535935 0.661460 0.120130
Si Si2 0.569383 0.910644 0.585196
Si Si3 0.933345 0.925103 0.927680
Si Si4 0.364127 0.449983 0.172383
Si Si5 0.566734 0.341927 0.706989
Si Si6 0.000000 0.500000 0.253111
O O1 0.483614 0.609296 0.140202
O O2 0.544516 0.651293 0.999613
O O3 0.585884 0.613618 0.166366
O O4 0.536241 0.759933 0.160964
O O5 0.586346 0.823584 0.525363
O O6 0.562409 0.986138 0.497892
O O7 0.613133 0.952813 0.654915
O O8 0.873552 0.908750 0.909656
O O9 0.964497 0.941856 0.827375
O O10 0.328919 0.424915 0.076135
O O11 0.536395 0.432562 0.694879
#
# Coordination Sequence:
#
# PCOD9370049 Si02
#       6
#    16  16  16  16  16   8
#     4  10  16  28  44  73 101 126 157 202 258 289
#     4  10  17  27  50  72 100 127 160 211 251 292
#     4  10  16  30  48  76  99 123 165 214 246 285
#     4  10  16  30  45  79  99 123 166 216 249 286
#     4  10  19  27  47  74 105 125 165 209 255 295
#     4  12  18  32  52  78 100 128 166 214 252 290
#
# _framework density 16.740964000000002
#
# number of rings (size 3 to 8) (size 9 to 14) (size 15 to 20)
#    0.000    2.182    7.273    2.727    0.000    0.000 
#    0.000    0.000    4.000    0.000    0.000    0.000 
#    0.000    0.000    0.000    0.000    0.000    0.000 
#
# Total GULP energy -122551.084162 kJ/mol
# GULP energy per Si atom -5570.503826 kJ/mol
# Density = 1.670286 g / cm^3
# Si number density = 16.740964 Si / 1000 Ang^3
#
#
#
# Elastic Constant Matrix: (Units=GPa)
#
#
# Indices 1 2 3 4 5 6 
#
# 1 82.6509 44.4174 12.8473 0.0000 0.0000 0.0000
# 2 44.4174 70.2200 24.0121 0.0000 0.0000 0.0000
# 3 12.8473 24.0121 21.6629 0.0000 0.0000 0.0000
# 4 0.0000 0.0000 0.0000 22.1708 0.0000 0.0000
# 5 0.0000 0.0000 0.0000 0.0000 5.1485 0.0000
# 6 0.0000 0.0000 0.0000 0.0000 0.0000 20.8192
#
#
#
# Elastic Compliance Matrix: (Units=1/GPa)
#
#
# Indices 1 2 3 4 5 6 
#
# 1 0.018468 -0.012781 0.003215 0.000000 0.000000 0.000000
# 2 -0.012781 0.031779 -0.027645 0.000000 0.000000 0.000000
# 3 0.003215 -0.027645 0.074899 0.000000 0.000000 0.000000
# 4 0.000000 0.000000 0.000000 0.045104 0.000000 0.000000
# 5 0.000000 0.000000 0.000000 0.000000 0.194230 0.000000
# 6 0.000000 0.000000 0.000000 0.000000 0.000000 0.048033
#
#
# Mechanical properties :
#
#
# Convention : Reuss Voigt Hill
#
# Bulk Modulus (GPa) = 19.71531 37.45416 28.58473
# Shear Modulus (GPa) = 9.92370 15.84484 12.88427
#
# Velocity S-wave (km/s) = 2.43735 3.07982 2.77722
# Velocity P-wave (km/s) = 4.44107 5.92185 5.23409
#
# Compressibility (1/GPa) = 0.05072201
#
# Stress axis : x y z
#
# Youngs Moduli (GPa) = 54.14720 31.46720 13.35138
#
# Poissons Ratio (x) = 0.40219 -0.04292
# Poissons Ratio (y) = 0.69207 0.36910
# Poissons Ratio (z) = -0.17406 0.86992
#
# Static dielectric constant tensor:
#      x y z
#    x 1.612730 0.000000 0.000000 
#    y 0.000000 1.587840 0.000000 
#    z 0.000000 0.000000 1.556260 
# 
# From -- ./inp_files/11308.got.cif
#   From: 2010.05.17/outbox.cif.g08.bks.cpg/sg43_6_cif.got.tgz:11308.got - 2010.06.03 19:21:55.
