data_PCOD9370258
_publ_section_title
;
Structure prediction by ZEFSAII (Michael W. Deem and Ramdas Pophale) SiO2 
 PCOD9370258
Probable space group: F D D 2
;
_chemical_formula_sum "Si O2"
_cell_formula_units_Z 88
_cell_length_a 7.901813
_cell_length_b 26.600536
_cell_length_c 18.076799
_cell_angle_alpha 90.000000
_cell_angle_beta 90.000000
_cell_angle_gamma 90.000000
_cell_volume 3799.606872
_symmetry_space_group_name_H-M "F D D 2"
_symmetry_group_IT_number 43
_symmetry_cell_setting 'orthorhombic'
loop_
_space_group_symop_operation_xyz
x,y,z
-x,-y,z
1/4-x,1/4+y,1/4+z
1/4+x,1/4-y,1/4+z
x,1/2+y,1/2+z
-x,1/2-y,1/2+z
1/4-x,3/4+y,3/4+z
1/4+x,3/4-y,3/4+z
1/2+x,y,1/2+z
1/2-x,-y,1/2+z
3/4-x,1/4+y,3/4+z
3/4+x,1/4-y,3/4+z
1/2+x,1/2+y,z
1/2-x,1/2-y,z
3/4-x,3/4+y,1/4+z
3/4+x,3/4-y,1/4+z
loop_
_atom_site_type_symbol
_atom_site_label
_atom_site_fract_x
_atom_site_fract_y
_atom_site_fract_z
Si Si1 0.084982 0.893001 0.503990
Si Si2 0.250000 0.750000 0.616202
Si Si3 0.750000 0.250000 0.922947
Si Si4 0.250000 0.250000 0.692556
Si Si5 0.702636 0.643214 0.391879
Si Si6 0.052528 0.299276 0.556606
Si Si7 0.587895 0.605120 0.913904
O O1 0.059180 0.952876 0.491517
O O2 0.273506 0.880094 0.474742
O O3 0.077937 0.874122 0.587477
O O4 0.935613 0.867541 0.455667
O O5 0.360722 0.783460 0.561127
O O6 0.171155 0.794484 0.664837
O O7 0.875719 0.224344 0.982388
O O8 0.692239 0.202403 0.875637
O O9 0.118750 0.272799 0.632537
O O10 0.658550 0.607193 0.323059
O O11 0.895438 0.626474 0.413183
#
# Coordination Sequence:
#
# PCOD9370258 Si02
#       7
#    16   8   8   8  16  16  16
#     4  11  24  45  67 101 139 183 229 292 349 429
#     4  10  18  38  64  94 122 178 224 280 324 430
#     4  11  22  44  65  92 139 181 228 298 356 409
#     4   9  18  40  63  84 131 177 216 266 350 411
#     4  10  25  41  67  99 135 183 234 291 348 419
#     4   9  19  36  67  91 124 181 230 268 352 420
#     4  11  25  43  69 104 136 178 239 285 351 427
#
# _framework density 23.16029
#
# number of rings (size 3 to 8) (size 9 to 14) (size 15 to 20)
#    0.000    1.818    1.818    1.091   10.182    0.000 
#    3.273    0.909    0.000    0.000    0.000    0.000 
#    0.000    0.000    0.000    0.000    0.000    0.000 
#
# Total GULP energy -122757.580489 kJ/mol
# GULP energy per Si atom -5579.890022 kJ/mol
# Density = 2.310758 g / cm^3
# Si number density = 23.160290 Si / 1000 Ang^3
#
#
#
# Elastic Constant Matrix: (Units=GPa)
#
#
# Indices 1 2 3 4 5 6 
#
# 1 70.1341 22.8473 1.2073 0.0000 0.0000 0.0000
# 2 22.8473 212.8737 31.4660 0.0000 0.0000 0.0000
# 3 1.2073 31.4660 51.0955 0.0000 0.0000 0.0000
# 4 0.0000 0.0000 0.0000 18.9402 0.0000 0.0000
# 5 0.0000 0.0000 0.0000 0.0000 30.1020 0.0000
# 6 0.0000 0.0000 0.0000 0.0000 0.0000 23.3077
#
#
#
# Elastic Compliance Matrix: (Units=1/GPa)
#
#
# Indices 1 2 3 4 5 6 
#
# 1 0.014797 -0.001690 0.000691 0.000000 0.000000 0.000000
# 2 -0.001690 0.005361 -0.003262 0.000000 0.000000 0.000000
# 3 0.000691 -0.003262 0.021563 0.000000 0.000000 0.000000
# 4 0.000000 0.000000 0.000000 0.052798 0.000000 0.000000
# 5 0.000000 0.000000 0.000000 0.000000 0.033220 0.000000
# 6 0.000000 0.000000 0.000000 0.000000 0.000000 0.042904
#
#
# Mechanical properties :
#
#
# Convention : Reuss Voigt Hill
#
# Bulk Modulus (GPa) = 30.12002 49.46052 39.79027
# Shear Modulus (GPa) = 26.28364 33.04214 29.66289
#
# Velocity S-wave (km/s) = 3.37242 3.78123 3.58266
# Velocity P-wave (km/s) = 5.31014 6.36127 5.85932
#
# Compressibility (1/GPa) = 0.03320051
#
# Stress axis : x y z
#
# Youngs Moduli (GPa) = 67.58057 186.52679 46.37472
#
# Poissons Ratio (x) = 0.31529 -0.03206
# Poissons Ratio (y) = 0.11423 0.15126
# Poissons Ratio (z) = -0.04672 0.60838
#
# Static dielectric constant tensor:
#      x y z
#    x 1.985180 0.000000 0.000000 
#    y 0.000000 1.954320 0.000000 
#    z 0.000000 0.000000 1.876540 
# 
# From -- ./inp_files/12906.got.cif
#   From: 2010.05.17/outbox.cif.g08.bks.cpg/sg43_7_cif.got.tgz:12906.got - 2010.06.03 19:21:55.
