data_PCOD9370134
_publ_section_title
;
Structure prediction by ZEFSAII (Michael W. Deem and Ramdas Pophale) SiO2 
 PCOD9370134
Probable space group: F D D 2
;
_chemical_formula_sum "Si O2"
_cell_formula_units_Z 88
_cell_length_a 30.298131
_cell_length_b 17.287821
_cell_length_c 7.283303
_cell_angle_alpha 90.000000
_cell_angle_beta 90.000000
_cell_angle_gamma 90.000000
_cell_volume 3814.911558
_symmetry_space_group_name_H-M "F D D 2"
_symmetry_group_IT_number 43
_symmetry_cell_setting 'orthorhombic'
loop_
_space_group_symop_operation_xyz
x,y,z
-x,-y,z
1/4-x,1/4+y,1/4+z
1/4+x,1/4-y,1/4+z
x,1/2+y,1/2+z
-x,1/2-y,1/2+z
1/4-x,3/4+y,3/4+z
1/4+x,3/4-y,3/4+z
1/2+x,y,1/2+z
1/2-x,-y,1/2+z
3/4-x,1/4+y,3/4+z
3/4+x,1/4-y,3/4+z
1/2+x,1/2+y,z
1/2-x,1/2-y,z
3/4-x,3/4+y,1/4+z
3/4+x,3/4-y,1/4+z
loop_
_atom_site_type_symbol
_atom_site_label
_atom_site_fract_x
_atom_site_fract_y
_atom_site_fract_z
Si Si1 0.660688 0.998410 0.689770
Si Si2 0.750000 0.250000 0.989335
Si Si3 0.019315 0.131500 0.525872
Si Si4 0.079099 0.407321 0.593286
Si Si5 0.922413 0.179577 0.489307
Si Si6 0.339809 0.585143 0.558950
O O1 0.706895 0.953453 0.673199
O O2 0.622086 0.960518 0.572120
O O3 0.644411 0.971801 0.893575
O O4 0.669082 0.088817 0.696757
O O5 0.728403 0.311452 0.131451
O O6 0.713865 0.209860 0.861201
O O7 0.048225 0.122583 0.711270
O O8 0.969066 0.152015 0.569128
O O9 0.078323 0.361297 0.788361
O O10 0.922239 0.272610 0.463559
O O11 0.879082 0.145258 0.586658
#
# Coordination Sequence:
#
# PCOD9370134 Si02
#       6
#    16   8  16  16  16  16
#     4   8  15  26  41  65  99 130 159 210 251 298
#     4  10  18  24  42  76 102 128 164 210 252 318
#     4   9  18  25  44  72 102 130 166 208 261 302
#     4   9  15  25  41  65 103 125 164 204 259 286
#     4   9  16  28  44  70 101 128 167 210 258 298
#     4   8  17  27  43  69 102 127 162 212 251 299
#
# _framework density 23.067375999999999
#
# number of rings (size 3 to 8) (size 9 to 14) (size 15 to 20)
#    1.091    2.182    0.000    1.091    7.636    0.000 
#    0.000    0.000    0.000    0.000    4.727    1.273 
#    0.000    0.000    0.000    0.000    0.000    0.000 
#
# Total GULP energy -122574.290349 kJ/mol
# GULP energy per Si atom -5571.558652 kJ/mol
# Density = 2.301487 g / cm^3
# Si number density = 23.067376 Si / 1000 Ang^3
#
#
#
# Elastic Constant Matrix: (Units=GPa)
#
#
# Indices 1 2 3 4 5 6 
#
# 1 172.3751 88.0272 33.2453 0.0000 0.0000 0.0000
# 2 88.0272 146.2521 34.6795 0.0000 0.0000 0.0000
# 3 33.2453 34.6795 54.4369 -0.0001 0.0000 0.0000
# 4 0.0000 0.0000 -0.0001 -3.7135 0.0000 0.0000
# 5 0.0000 0.0000 0.0000 0.0000 14.3652 0.0000
# 6 0.0000 0.0000 0.0000 0.0000 0.0000 26.6376
#
#
#
# Elastic Compliance Matrix: (Units=1/GPa)
#
#
# Indices 1 2 3 4 5 6 
#
# 1 0.008615 -0.004638 -0.002306 0.000000 0.000000 0.000000
# 2 -0.004638 0.010551 -0.003889 0.000000 0.000000 0.000000
# 3 -0.002306 -0.003889 0.022256 0.000000 0.000000 0.000000
# 4 0.000000 0.000000 0.000000 -0.269288 0.000000 0.000000
# 5 0.000000 0.000000 0.000000 0.000000 0.069613 0.000000
# 6 0.000000 0.000000 0.000000 0.000000 0.000000 0.037541
#
#
# Mechanical properties :
#
#
# Convention : Reuss Voigt Hill
#
# Bulk Modulus (GPa) = 50.62096 76.10756 63.36426
# Shear Modulus (GPa) = -54.07788 21.93199 -16.07294
#
# Velocity S-wave (km/s) = -4.84710 3.08682 -2.64253
# Velocity P-wave (km/s) = 3.05505 6.76534 4.26828
#
# Compressibility (1/GPa) = 0.01975466
#
# Stress axis : x y z
#
# Youngs Moduli (GPa) = 116.08048 94.77408 44.93157
#
# Poissons Ratio (x) = 0.43958 0.10363
# Poissons Ratio (y) = 0.53841 0.17475
# Poissons Ratio (z) = 0.26772 0.36860
#
# Static dielectric constant tensor:
#      x y z
#    x 1.821250 0.000000 0.000000 
#    y 0.000000 1.869980 0.000000 
#    z 0.000000 0.000000 1.935250 
# 
# From -- ./inp_files/8245.got.cif
#   From: 2010.05.17/outbox.cif.g08.bks.cpg/sg43_5_cif.got.tgz:8245.got - 2010.06.03 19:21:55.
