data_PCOD9370172
_publ_section_title
;
Structure prediction by ZEFSAII (Michael W. Deem and Ramdas Pophale) SiO2 
 PCOD9370172
Probable space group: F D D 2
;
_chemical_formula_sum "Si O2"
_cell_formula_units_Z 120
_cell_length_a 23.248162
_cell_length_b 12.786782
_cell_length_c 18.824188
_cell_angle_alpha 90.000000
_cell_angle_beta 90.000000
_cell_angle_gamma 90.000000
_cell_volume 5595.850920
_symmetry_space_group_name_H-M "F D D 2"
_symmetry_group_IT_number 43
_symmetry_cell_setting 'orthorhombic'
loop_
_space_group_symop_operation_xyz
x,y,z
-x,-y,z
1/4-x,1/4+y,1/4+z
1/4+x,1/4-y,1/4+z
x,1/2+y,1/2+z
-x,1/2-y,1/2+z
1/4-x,3/4+y,3/4+z
1/4+x,3/4-y,3/4+z
1/2+x,y,1/2+z
1/2-x,-y,1/2+z
3/4-x,1/4+y,3/4+z
3/4+x,1/4-y,3/4+z
1/2+x,1/2+y,z
1/2-x,1/2-y,z
3/4-x,3/4+y,1/4+z
3/4+x,3/4-y,1/4+z
loop_
_atom_site_type_symbol
_atom_site_label
_atom_site_fract_x
_atom_site_fract_y
_atom_site_fract_z
Si Si1 0.120760 0.404830 0.034520
Si Si2 0.782957 0.140209 0.637320
Si Si3 0.195863 0.566424 0.732419
Si Si4 0.298333 0.165285 0.794271
Si Si5 0.373426 0.311284 0.995749
Si Si6 0.750000 0.250000 0.829502
Si Si7 0.220605 0.602451 0.410807
Si Si8 0.086057 0.637646 0.653175
O O1 0.183783 0.388082 0.066189
O O2 0.106607 0.525249 0.022024
O O3 0.073970 0.381381 0.096763
O O4 0.111902 0.310173 0.979692
O O5 0.750000 0.250000 0.635456
O O6 0.733850 0.061002 0.661023
O O7 0.833056 0.132266 0.698774
O O8 0.199622 0.451447 0.764594
O O9 0.227810 0.652127 0.782296
O O10 0.133441 0.610732 0.711831
O O11 0.250000 0.250000 0.767316
O O12 0.280229 0.142292 0.877167
O O13 0.308316 0.339520 0.976585
O O14 0.383282 0.326796 0.079377
O O15 0.698544 0.286650 0.879227
O O16 0.209362 0.479411 0.422151
#
# Coordination Sequence:
#
# PCOD9370172 Si02
#       8
#    16  16  16  16  16   8  16  16
#     4   9  20  34  56  85 127 159 205 262 327 383
#     4  11  18  34  59  89 120 160 205 269 321 374
#     4  12  22  38  68  91 127 171 218 269 329 391
#     4  10  20  40  61  87 125 177 214 255 338 407
#     4  10  18  33  60  92 125 160 211 275 315 384
#     4  12  22  42  68  96 128 170 218 278 332 382
#     4   9  17  34  60  91 121 161 216 263 319 394
#     4  11  21  36  62 100 122 166 219 270 332 382
#
# _framework density 21.444458999999998
#
# number of rings (size 3 to 8) (size 9 to 14) (size 15 to 20)
#    0.000    1.600    3.333    4.800    0.000    0.000 
#    0.000   15.333    8.800    0.000    0.000    0.000 
#    0.000    0.000    0.000    0.000    0.000    0.000 
#
# Total GULP energy -167221.600413 kJ/mol
# GULP energy per Si atom -5574.053347 kJ/mol
# Density = 2.139565 g / cm^3
# Si number density = 21.444459 Si / 1000 Ang^3
#
#
#
# Elastic Constant Matrix: (Units=GPa)
#
#
# Indices 1 2 3 4 5 6 
#
# 1 88.4178 52.3749 21.4331 0.0000 0.0000 0.0000
# 2 52.3749 173.1116 33.9587 0.0000 0.0000 0.0000
# 3 21.4331 33.9587 30.6988 0.0000 0.0000 0.0000
# 4 0.0000 0.0000 0.0000 21.9270 0.0000 0.0000
# 5 0.0000 0.0000 0.0000 0.0000 24.4362 0.0000
# 6 0.0000 0.0000 0.0000 0.0000 0.0000 25.6086
#
#
#
# Elastic Compliance Matrix: (Units=1/GPa)
#
#
# Indices 1 2 3 4 5 6 
#
# 1 0.014839 -0.003138 -0.006889 0.000000 0.000000 0.000000
# 2 -0.003138 0.008041 -0.006704 0.000000 0.000000 0.000000
# 3 -0.006889 -0.006704 0.044800 0.000000 0.000000 0.000000
# 4 0.000000 0.000000 0.000000 0.045606 0.000000 0.000000
# 5 0.000000 0.000000 0.000000 0.000000 0.040923 0.000000
# 6 0.000000 0.000000 0.000000 0.000000 0.000000 0.039049
#
#
# Mechanical properties :
#
#
# Convention : Reuss Voigt Hill
#
# Bulk Modulus (GPa) = 29.22421 56.41795 42.82108
# Shear Modulus (GPa) = 20.99730 26.69180 23.84455
#
# Velocity S-wave (km/s) = 3.13253 3.53185 3.33817
# Velocity P-wave (km/s) = 5.17118 6.55728 5.90504
#
# Compressibility (1/GPa) = 0.03421820
#
# Stress axis : x y z
#
# Youngs Moduli (GPa) = 67.39152 124.35987 22.32141
#
# Poissons Ratio (x) = 0.39026 0.15376
# Poissons Ratio (y) = 0.21148 0.14965
# Poissons Ratio (z) = 0.46423 0.83372
#
# Static dielectric constant tensor:
#      x y z
#    x 1.868680 0.000000 0.000000 
#    y 0.000000 1.874420 0.000000 
#    z 0.000000 0.000000 1.825230 
# 
# From -- ./inp_files/18924.got.cif
#   From: 2010.05.17/outbox.cif.g08.bks.cpg/sg43_10_cif.got.tgz:18924.got - 2010.06.03 19:21:55.
