data_PCOD9370702
_publ_section_title
;
Structure prediction by ZEFSAII (Michael W. Deem and Ramdas Pophale) SiO2 
 PCOD9370702
Probable space group: F D D 2
;
_chemical_formula_sum "Si O2"
_cell_formula_units_Z 120
_cell_length_a 11.229558
_cell_length_b 22.500460
_cell_length_c 18.360853
_cell_angle_alpha 90.000000
_cell_angle_beta 90.000000
_cell_angle_gamma 90.000000
_cell_volume 4639.240778
_symmetry_space_group_name_H-M "F D D 2"
_symmetry_group_IT_number 43
_symmetry_cell_setting 'orthorhombic'
loop_
_space_group_symop_operation_xyz
x,y,z
-x,-y,z
1/4-x,1/4+y,1/4+z
1/4+x,1/4-y,1/4+z
x,1/2+y,1/2+z
-x,1/2-y,1/2+z
1/4-x,3/4+y,3/4+z
1/4+x,3/4-y,3/4+z
1/2+x,y,1/2+z
1/2-x,-y,1/2+z
3/4-x,1/4+y,3/4+z
3/4+x,1/4-y,3/4+z
1/2+x,1/2+y,z
1/2-x,1/2-y,z
3/4-x,3/4+y,1/4+z
3/4+x,3/4-y,1/4+z
loop_
_atom_site_type_symbol
_atom_site_label
_atom_site_fract_x
_atom_site_fract_y
_atom_site_fract_z
Si Si1 0.250000 0.750000 0.579540
Si Si2 0.743569 0.975707 0.406899
Si Si3 0.938180 0.391991 0.710751
Si Si4 0.606578 0.693034 0.534933
Si Si5 0.000751 0.938233 0.567327
Si Si6 0.607375 0.315573 0.455046
Si Si7 0.024780 0.671089 0.260515
Si Si8 0.023430 0.570948 0.546987
O O1 0.356892 0.777276 0.626978
O O2 0.318538 0.704936 0.526313
O O3 0.818358 0.010246 0.345999
O O4 0.750969 0.014559 0.478722
O O5 0.776340 0.910571 0.432209
O O6 0.833889 0.359128 0.758345
O O7 0.007390 0.434142 0.766236
O O8 0.932755 0.425100 0.632327
O O9 0.554020 0.626431 0.549283
O O10 0.525775 0.707476 0.463875
O O11 0.140719 0.923777 0.580690
O O12 0.918481 0.957370 0.633779
O O13 0.000000 0.000000 0.520022
O O14 0.636986 0.385817 0.456075
O O15 0.891247 0.648105 0.261917
O O16 0.000000 0.500000 0.534178
#
# Coordination Sequence:
#
# PCOD9370702 Si02
#       8
#     8  16  16  16  16  16  16  16
#     4  10  20  38  66 100 134 186 246 314 378 456
#     4  11  21  44  72 102 148 196 248 321 391 470
#     4  12  28  49  78 114 156 215 267 326 406 492
#     4  10  25  43  70 107 151 197 252 320 397 481
#     4  11  22  37  66 101 141 188 241 320 380 464
#     4  10  21  38  64 103 136 182 240 308 381 452
#     4  11  23  41  68 102 139 189 248 309 394 461
#     4  12  29  51  79 112 156 212 267 338 401 492
#
# _framework density 25.866302000000001
#
# number of rings (size 3 to 8) (size 9 to 14) (size 15 to 20)
#    0.000    1.067    3.333    2.400    3.733    1.067 
#    0.000    2.667    0.000    0.000    0.000    0.000 
#    0.000    0.000    0.000    0.000    0.000    0.000 
#
# Total GULP energy -167083.307778 kJ/mol
# GULP energy per Si atom -5569.443593 kJ/mol
# Density = 2.580743 g / cm^3
# Si number density = 25.866302 Si / 1000 Ang^3
#
#
#
# Elastic Constant Matrix: (Units=GPa)
#
#
# Indices 1 2 3 4 5 6 
#
# 1 145.2663 8.1291 61.2693 0.0000 0.0000 0.0000
# 2 8.1291 88.8175 9.8954 0.0000 0.0000 0.0000
# 3 61.2693 9.8954 73.8988 0.0000 0.0000 0.0000
# 4 0.0000 0.0000 0.0000 26.4158 0.0000 0.0000
# 5 0.0000 0.0000 0.0000 0.0000 21.6516 0.0000
# 6 0.0000 0.0000 0.0000 0.0000 0.0000 33.8947
#
#
#
# Elastic Compliance Matrix: (Units=1/GPa)
#
#
# Indices 1 2 3 4 5 6 
#
# 1 0.010586 0.000009 -0.008778 0.000000 0.000000 0.000000
# 2 0.000009 0.011430 -0.001538 0.000000 0.000000 0.000000
# 3 -0.008778 -0.001538 0.021016 0.000000 0.000000 0.000000
# 4 0.000000 0.000000 0.000000 0.037856 0.000000 0.000000
# 5 0.000000 0.000000 0.000000 0.000000 0.046186 0.000000
# 6 0.000000 0.000000 0.000000 0.000000 0.000000 0.029503
#
#
# Mechanical properties :
#
#
# Convention : Reuss Voigt Hill
#
# Bulk Modulus (GPa) = 44.60811 51.84112 48.22462
# Shear Modulus (GPa) = 27.07654 31.63834 29.35744
#
# Velocity S-wave (km/s) = 3.23892 3.50115 3.37258
# Velocity P-wave (km/s) = 5.59201 6.03569 5.81808
#
# Compressibility (1/GPa) = 0.02241745
#
# Stress axis : x y z
#
# Youngs Moduli (GPa) = 94.46796 87.49243 47.58378
#
# Poissons Ratio (x) = -0.00080 0.41768
# Poissons Ratio (y) = -0.00086 0.07318
# Poissons Ratio (z) = 0.82921 0.13457
#
# Static dielectric constant tensor:
#      x y z
#    x 2.119090 0.000000 0.000000 
#    y 0.000000 2.467130 0.000000 
#    z 0.000000 0.000000 2.169460 
# 
# From -- ./inp_files/13476.got.cif
#   From: 2010.05.17/outbox.cif.g08.bks.cpg/sg43_7_cif.got.tgz:13476.got - 2010.06.03 19:21:55.
