data_PCOD9370390
_publ_section_title
;
Structure prediction by ZEFSAII (Michael W. Deem and Ramdas Pophale) SiO2 
 PCOD9370390
Probable space group: F D D 2
;
_chemical_formula_sum "Si O2"
_cell_formula_units_Z 96
_cell_length_a 13.173361
_cell_length_b 20.328663
_cell_length_c 14.276191
_cell_angle_alpha 90.000000
_cell_angle_beta 90.000000
_cell_angle_gamma 90.000000
_cell_volume 3823.118499
_symmetry_space_group_name_H-M "F D D 2"
_symmetry_group_IT_number 43
_symmetry_cell_setting 'orthorhombic'
loop_
_space_group_symop_operation_xyz
x,y,z
-x,-y,z
1/4-x,1/4+y,1/4+z
1/4+x,1/4-y,1/4+z
x,1/2+y,1/2+z
-x,1/2-y,1/2+z
1/4-x,3/4+y,3/4+z
1/4+x,3/4-y,3/4+z
1/2+x,y,1/2+z
1/2-x,-y,1/2+z
3/4-x,1/4+y,3/4+z
3/4+x,1/4-y,3/4+z
1/2+x,1/2+y,z
1/2-x,1/2-y,z
3/4-x,3/4+y,1/4+z
3/4+x,3/4-y,1/4+z
loop_
_atom_site_type_symbol
_atom_site_label
_atom_site_fract_x
_atom_site_fract_y
_atom_site_fract_z
Si Si1 0.731728 0.679324 0.461190
Si Si2 0.537435 0.319966 0.695993
Si Si3 0.011127 0.695093 0.921525
Si Si4 0.534596 0.157114 0.408423
Si Si5 0.940426 0.058500 0.414676
Si Si6 0.639879 0.934787 0.465413
O O1 0.613228 0.670790 0.470783
O O2 0.678804 0.456360 0.408281
O O3 0.761722 0.686797 0.570504
O O4 0.787416 0.618726 0.415674
O O5 0.750000 0.250000 0.913801
O O6 0.599719 0.382110 0.656875
O O7 0.512750 0.337727 0.804148
O O8 0.611795 0.257881 0.677260
O O9 0.976800 0.768292 0.946757
O O10 0.050503 0.696190 0.813769
O O11 0.936094 0.635597 0.942084
O O12 0.465315 0.104824 0.465449
O O13 0.000000 0.000000 0.469636
#
# Coordination Sequence:
#
# PCOD9370390 Si02
#       6
#    16  16  16  16  16  16
#     4  10  19  36  67  95 119 166 224 280 334 396
#     4  11  26  45  65  98 138 186 224 280 352 416
#     4  10  22  39  67  98 129 174 223 288 339 408
#     4  11  25  44  66 100 136 179 227 284 351 412
#     4  10  23  42  64  95 131 176 226 279 339 413
#     4  10  22  41  64  97 132 174 226 282 343 409
#
# _framework density 25.110389999999999
#
# number of rings (size 3 to 8) (size 9 to 14) (size 15 to 20)
#    0.000    1.667    1.667    1.500    4.667    2.000 
#    3.000    0.000    0.000    0.000    0.000    0.000 
#    0.000    0.000    0.000    0.000    0.000    0.000 
#
# Total GULP energy -133746.845643 kJ/mol
# GULP energy per Si atom -5572.785235 kJ/mol
# Density = 2.505324 g / cm^3
# Si number density = 25.110390 Si / 1000 Ang^3
#
#
#
# Elastic Constant Matrix: (Units=GPa)
#
#
# Indices 1 2 3 4 5 6 
#
# 1 99.8286 74.8309 14.8402 0.0000 0.0000 0.0000
# 2 74.8309 173.5041 -2.1393 0.0000 0.0000 0.0000
# 3 14.8402 -2.1393 52.8534 0.0000 0.0000 0.0000
# 4 0.0000 0.0000 0.0000 22.6738 0.0000 0.0000
# 5 0.0000 0.0000 0.0000 0.0000 23.2401 0.0000
# 6 0.0000 0.0000 0.0000 0.0000 0.0000 57.2994
#
#
#
# Elastic Compliance Matrix: (Units=1/GPa)
#
#
# Indices 1 2 3 4 5 6 
#
# 1 0.015911 -0.006921 -0.004747 0.000000 0.000000 0.000000
# 2 -0.006921 0.008777 0.002298 0.000000 0.000000 0.000000
# 3 -0.004747 0.002298 0.020346 0.000000 0.000000 0.000000
# 4 0.000000 0.000000 0.000000 0.044104 0.000000 0.000000
# 5 0.000000 0.000000 0.000000 0.000000 0.043029 0.000000
# 6 0.000000 0.000000 0.000000 0.000000 0.000000 0.017452
#
#
# Mechanical properties :
#
#
# Convention : Reuss Voigt Hill
#
# Bulk Modulus (GPa) = 38.03124 55.69438 46.86281
# Shear Modulus (GPa) = 28.22901 36.55295 32.39098
#
# Velocity S-wave (km/s) = 3.35654 3.81949 3.59547
# Velocity P-wave (km/s) = 5.49548 6.45595 5.99498
#
# Compressibility (1/GPa) = 0.02629418
#
# Stress axis : x y z
#
# Youngs Moduli (GPa) = 62.85120 113.93789 49.14900
#
# Poissons Ratio (x) = 0.78852 0.23333
# Poissons Ratio (y) = 0.43497 -0.11297
# Poissons Ratio (z) = 0.29839 -0.26188
#
# Static dielectric constant tensor:
#      x y z
#    x 2.010580 0.000000 0.000000 
#    y 0.000000 -3.471420 0.000000 
#    z 0.000000 0.000000 2.273240 
# 
# From -- ./inp_files/14227.got.cif
#   From: 2010.05.17/outbox.cif.g08.bks.cpg/sg43_8_cif.got.tgz:14227.got - 2010.06.03 19:21:55.
