data_PCOD9370549
_publ_section_title
;
Structure prediction by ZEFSAII (Michael W. Deem and Ramdas Pophale) SiO2 
 PCOD9370549
Probable space group: F D D 2
;
_chemical_formula_sum "Si O2"
_cell_formula_units_Z 64
_cell_length_a 18.373528
_cell_length_b 10.133575
_cell_length_c 13.176534
_cell_angle_alpha 90.000000
_cell_angle_beta 90.000000
_cell_angle_gamma 90.000000
_cell_volume 2453.332593
_symmetry_space_group_name_H-M "F D D 2"
_symmetry_group_IT_number 43
_symmetry_cell_setting 'orthorhombic'
loop_
_space_group_symop_operation_xyz
x,y,z
-x,-y,z
1/4-x,1/4+y,1/4+z
1/4+x,1/4-y,1/4+z
x,1/2+y,1/2+z
-x,1/2-y,1/2+z
1/4-x,3/4+y,3/4+z
1/4+x,3/4-y,3/4+z
1/2+x,y,1/2+z
1/2-x,-y,1/2+z
3/4-x,1/4+y,3/4+z
3/4+x,1/4-y,3/4+z
1/2+x,1/2+y,z
1/2-x,1/2-y,z
3/4-x,3/4+y,1/4+z
3/4+x,3/4-y,1/4+z
loop_
_atom_site_type_symbol
_atom_site_label
_atom_site_fract_x
_atom_site_fract_y
_atom_site_fract_z
Si Si1 0.545150 0.363143 0.207960
Si Si2 0.687393 0.049548 0.180629
Si Si3 0.574687 0.829193 0.151335
Si Si4 0.062325 0.388466 0.482543
O O1 0.500000 0.500000 0.206997
O O2 0.576692 0.360197 0.321053
O O3 0.500281 0.224383 0.197657
O O4 0.586146 0.366900 0.099414
O O5 0.623405 0.942633 0.198689
O O6 0.767718 0.982635 0.184814
O O7 0.685915 0.126747 0.285942
O O8 0.623232 0.696570 0.166080
O O9 0.000000 0.500000 0.485957
#
# Coordination Sequence:
#
# PCOD9370549 Si02
#       4
#    16  16  16  16
#     4  10  21  36  56  86 116 147 193 240 284 340
#     4  10  20  35  57  86 112 143 192 240 281 332
#     4  10  20  38  59  79 113 156 188 227 288 354
#     4   8  17  35  58  79 110 158 192 213 277 370
#
# _framework density 26.086964999999999
#
# number of rings (size 3 to 8) (size 9 to 14) (size 15 to 20)
#    0.000    2.500    0.000    3.000    0.000    2.000 
#    0.000    7.500    0.000    0.000    0.000    0.000 
#    0.000    0.000    0.000    0.000    0.000    0.000 
#
# Total GULP energy -89281.426692 kJ/mol
# GULP energy per Si atom -5580.089168 kJ/mol
# Density = 2.602759 g / cm^3
# Si number density = 26.086965 Si / 1000 Ang^3
#
#
#
# Elastic Constant Matrix: (Units=GPa)
#
#
# Indices 1 2 3 4 5 6 
#
# 1 37.6634 21.9159 15.7287 0.0000 0.0000 0.0000
# 2 21.9159 59.4936 19.1261 0.0000 0.0000 0.0000
# 3 15.7287 19.1261 242.5903 0.0000 0.0000 0.0000
# 4 0.0000 0.0000 0.0000 15.9174 0.0000 0.0000
# 5 0.0000 0.0000 0.0000 0.0000 15.8318 0.0000
# 6 0.0000 0.0000 0.0000 0.0000 0.0000 40.0482
#
#
#
# Elastic Compliance Matrix: (Units=1/GPa)
#
#
# Indices 1 2 3 4 5 6 
#
# 1 0.034163 -0.012182 -0.001255 0.000000 0.000000 0.000000
# 2 -0.012182 0.021589 -0.000912 0.000000 0.000000 0.000000
# 3 -0.001255 -0.000912 0.004275 0.000000 0.000000 0.000000
# 4 0.000000 0.000000 0.000000 0.062824 0.000000 0.000000
# 5 0.000000 0.000000 0.000000 0.000000 0.063164 0.000000
# 6 0.000000 0.000000 0.000000 0.000000 0.000000 0.024970
#
#
# Mechanical properties :
#
#
# Convention : Reuss Voigt Hill
#
# Bulk Modulus (GPa) = 31.91732 50.36540 41.14136
# Shear Modulus (GPa) = 19.98990 33.22460 26.60725
#
# Velocity S-wave (km/s) = 2.77118 3.57264 3.19712
# Velocity P-wave (km/s) = 4.74350 6.03050 5.42530
#
# Compressibility (1/GPa) = 0.03133096
#
# Stress axis : x y z
#
# Youngs Moduli (GPa) = 29.27127 46.31954 233.89361
#
# Poissons Ratio (x) = 0.56424 0.29345
# Poissons Ratio (y) = 0.35657 0.21338
# Poissons Ratio (z) = 0.03672 0.04226
#
# Static dielectric constant tensor:
#      x y z
#    x 2.134900 0.000000 0.000000 
#    y 0.000000 2.058820 0.000000 
#    z 0.000000 0.000000 1.972100 
# 
# From -- ./inp_files/3604.got.cif
#   From: 2010.05.17/outbox.cif.g08.bks.cpg/sg43_2_cif.got.tgz:3604.got - 2010.06.03 19:21:55.
