data_PCOD9370233
_publ_section_title
;
Structure prediction by ZEFSAII (Michael W. Deem and Ramdas Pophale) SiO2 
 PCOD9370233
Probable space group: F D D 2
;
_chemical_formula_sum "Si O2"
_cell_formula_units_Z 72
_cell_length_a 17.298343
_cell_length_b 7.862346
_cell_length_c 22.199096
_cell_angle_alpha 90.000000
_cell_angle_beta 90.000000
_cell_angle_gamma 90.000000
_cell_volume 3019.200436
_symmetry_space_group_name_H-M "F D D 2"
_symmetry_group_IT_number 43
_symmetry_cell_setting 'orthorhombic'
loop_
_space_group_symop_operation_xyz
x,y,z
-x,-y,z
1/4-x,1/4+y,1/4+z
1/4+x,1/4-y,1/4+z
x,1/2+y,1/2+z
-x,1/2-y,1/2+z
1/4-x,3/4+y,3/4+z
1/4+x,3/4-y,3/4+z
1/2+x,y,1/2+z
1/2-x,-y,1/2+z
3/4-x,1/4+y,3/4+z
3/4+x,1/4-y,3/4+z
1/2+x,1/2+y,z
1/2-x,1/2-y,z
3/4-x,3/4+y,1/4+z
3/4+x,3/4-y,1/4+z
loop_
_atom_site_type_symbol
_atom_site_label
_atom_site_fract_x
_atom_site_fract_y
_atom_site_fract_z
Si Si1 0.250000 0.250000 0.635550
Si Si2 0.540319 0.255707 0.612768
Si Si3 0.449513 0.671579 0.864773
Si Si4 0.523022 0.197935 0.239335
Si Si5 0.354025 0.649037 0.316653
O O1 0.225101 0.433545 0.661986
O O2 0.328782 0.297131 0.599971
O O3 0.610211 0.124948 0.608355
O O4 0.500813 0.221850 0.676779
O O5 0.581008 0.441615 0.609392
O O6 0.471721 0.280287 0.564102
O O7 0.500000 0.500000 0.874432
O O8 0.474289 0.742071 0.798903
O O9 0.609026 0.256962 0.258514
O O10 0.500000 0.000000 0.232833
#
# Coordination Sequence:
#
# PCOD9370233 Si02
#       5
#     8  16  16  16  16
#     4  10  20  40  64  94 136 172 216 288 332 406
#     4  11  20  38  71  97 133 189 224 277 366 409
#     4  10  20  40  68  95 141 177 217 290 349 403
#     4  10  18  36  64  95 134 177 223 289 344 410
#     4  10  21  36  62  96 134 177 227 278 341 413
#
# _framework density 23.847372
#
# number of rings (size 3 to 8) (size 9 to 14) (size 15 to 20)
#    0.000    1.778    8.889    0.000    0.000    0.889 
#    0.000   13.333    9.778    5.333    0.000    0.000 
#    0.000    0.000    0.000    0.000    0.000    0.000 
#
# Total GULP energy -100235.830389 kJ/mol
# GULP energy per Si atom -5568.657244 kJ/mol
# Density = 2.379309 g / cm^3
# Si number density = 23.847372 Si / 1000 Ang^3
#
#
#
# Elastic Constant Matrix: (Units=GPa)
#
#
# Indices 1 2 3 4 5 6 
#
# 1 186.6904 72.6813 40.6345 0.0000 0.0000 0.0000
# 2 72.6813 102.2280 24.4111 0.0000 0.0000 0.0000
# 3 40.6345 24.4111 89.2763 0.0000 0.0000 0.0000
# 4 0.0000 0.0000 0.0000 5.5612 0.0000 0.0000
# 5 0.0000 0.0000 0.0000 0.0000 31.6216 0.0000
# 6 0.0000 0.0000 0.0000 0.0000 0.0000 65.5767
#
#
#
# Elastic Compliance Matrix: (Units=1/GPa)
#
#
# Indices 1 2 3 4 5 6 
#
# 1 0.007781 -0.005014 -0.002171 0.000000 0.000000 0.000000
# 2 -0.005014 0.013696 -0.001463 0.000000 0.000000 0.000000
# 3 -0.002171 -0.001463 0.012589 0.000000 0.000000 0.000000
# 4 0.000000 0.000000 0.000000 0.179817 0.000000 0.000000
# 5 0.000000 0.000000 0.000000 0.000000 0.031624 0.000000
# 6 0.000000 0.000000 0.000000 0.000000 0.000000 0.015249
#
#
# Mechanical properties :
#
#
# Convention : Reuss Voigt Hill
#
# Bulk Modulus (GPa) = 59.62464 72.62762 66.12613
# Shear Modulus (GPa) = 17.62795 36.58308 27.10551
#
# Velocity S-wave (km/s) = 2.72177 3.92095 3.37504
# Velocity P-wave (km/s) = 5.91052 7.14281 6.55568
#
# Compressibility (1/GPa) = 0.01677159
#
# Stress axis : x y z
#
# Youngs Moduli (GPa) = 128.52205 73.01445 79.43346
#
# Poissons Ratio (x) = 0.36606 0.17242
# Poissons Ratio (y) = 0.64436 0.11621
# Poissons Ratio (z) = 0.27897 0.10682
#
# Static dielectric constant tensor:
#      x y z
#    x 1.954640 0.000000 0.000000 
#    y 0.000000 2.077740 0.000000 
#    z 0.000000 0.000000 1.940830 
# 
# From -- ./inp_files/17907.got.cif
#   From: 2010.05.17/outbox.cif.g08.bks.cpg/sg43_9_cif.got.tgz:17907.got - 2010.06.03 19:21:55.
