data_PCOD9370211
_publ_section_title
;
Structure prediction by ZEFSAII (Michael W. Deem and Ramdas Pophale) SiO2 
 PCOD9370211
Probable space group: F D D 2
;
_chemical_formula_sum "Si O2"
_cell_formula_units_Z 88
_cell_length_a 21.425548
_cell_length_b 7.828976
_cell_length_c 20.954592
_cell_angle_alpha 90.000000
_cell_angle_beta 90.000000
_cell_angle_gamma 90.000000
_cell_volume 3514.925380
_symmetry_space_group_name_H-M "F D D 2"
_symmetry_group_IT_number 43
_symmetry_cell_setting 'orthorhombic'
loop_
_space_group_symop_operation_xyz
x,y,z
-x,-y,z
1/4-x,1/4+y,1/4+z
1/4+x,1/4-y,1/4+z
x,1/2+y,1/2+z
-x,1/2-y,1/2+z
1/4-x,3/4+y,3/4+z
1/4+x,3/4-y,3/4+z
1/2+x,y,1/2+z
1/2-x,-y,1/2+z
3/4-x,1/4+y,3/4+z
3/4+x,1/4-y,3/4+z
1/2+x,1/2+y,z
1/2-x,1/2-y,z
3/4-x,3/4+y,1/4+z
3/4+x,3/4-y,1/4+z
loop_
_atom_site_type_symbol
_atom_site_label
_atom_site_fract_x
_atom_site_fract_y
_atom_site_fract_z
Si Si1 0.750000 0.750000 0.059911
Si Si2 0.285520 0.507074 0.909509
Si Si3 0.658248 0.842987 0.868243
Si Si4 0.069818 0.537707 0.549190
Si Si5 0.123639 0.386501 0.998387
Si Si6 0.544603 0.156843 0.805658
O O1 0.807392 0.680807 0.017793
O O2 0.724103 0.580337 0.094039
O O3 0.331159 0.346381 0.899249
O O4 0.223114 0.444012 0.873413
O O5 0.313346 0.667695 0.873762
O O6 0.275857 0.554875 0.982157
O O7 0.639311 0.792269 0.796850
O O8 0.616507 0.929315 0.923618
O O9 0.084357 0.719666 0.516441
O O10 0.129487 0.410490 0.548427
O O11 0.000000 0.500000 0.525735
O O12 0.500000 0.000000 0.825599
#
# Coordination Sequence:
#
# PCOD9370211 Si02
#       6
#     8  16  16  16  16  16
#     4  10  18  40  58  98 136 172 242 300 360 446
#     4  10  18  38  64  94 134 188 241 296 375 463
#     4  10  18  35  65  97 136 187 247 296 376 460
#     4  10  22  38  58  95 140 181 242 303 379 454
#     4  10  19  36  64  96 134 188 245 303 368 464
#     4  11  21  38  70  96 134 187 246 297 365 455
#
# _framework density 25.036093999999999
#
# number of rings (size 3 to 8) (size 9 to 14) (size 15 to 20)
#    0.000    1.818    5.455    0.545    0.000    1.455 
#    1.636    1.818    0.000    0.000    9.455    0.000 
#    0.000    0.000    0.000    0.000    0.000    0.000 
#
# Total GULP energy -122710.732164 kJ/mol
# GULP energy per Si atom -5577.760553 kJ/mol
# Density = 2.497911 g / cm^3
# Si number density = 25.036094 Si / 1000 Ang^3
#
#
#
# Elastic Constant Matrix: (Units=GPa)
#
#
# Indices 1 2 3 4 5 6 
#
# 1 162.3852 67.2165 36.1995 0.0000 0.0000 0.0000
# 2 67.2165 145.1275 29.3426 0.0000 0.0000 0.0000
# 3 36.1995 29.3426 100.0938 0.0000 0.0000 0.0000
# 4 0.0000 0.0000 0.0000 23.2764 0.0000 0.0000
# 5 0.0000 0.0000 0.0000 0.0000 24.1055 0.0000
# 6 0.0000 0.0000 0.0000 0.0000 0.0000 28.9737
#
#
#
# Elastic Compliance Matrix: (Units=1/GPa)
#
#
# Indices 1 2 3 4 5 6 
#
# 1 0.007948 -0.003295 -0.001908 0.000000 0.000000 0.000000
# 2 -0.003295 0.008691 -0.001356 0.000000 0.000000 0.000000
# 3 -0.001908 -0.001356 0.011078 0.000000 0.000000 0.000000
# 4 0.000000 0.000000 0.000000 0.042962 0.000000 0.000000
# 5 0.000000 0.000000 0.000000 0.000000 0.041484 0.000000
# 6 0.000000 0.000000 0.000000 0.000000 0.000000 0.034514
#
#
# Mechanical properties :
#
#
# Convention : Reuss Voigt Hill
#
# Bulk Modulus (GPa) = 68.50364 74.79153 71.64758
# Shear Modulus (GPa) = 30.36526 33.59431 31.97979
#
# Velocity S-wave (km/s) = 3.48639 3.66708 3.57788
# Velocity P-wave (km/s) = 6.60514 6.91869 6.76374
#
# Compressibility (1/GPa) = 0.01459776
#
# Stress axis : x y z
#
# Youngs Moduli (GPa) = 125.82481 115.06413 90.26650
#
# Poissons Ratio (x) = 0.37915 0.17226
# Poissons Ratio (y) = 0.41461 0.12240
# Poissons Ratio (z) = 0.24011 0.15603
#
# Static dielectric constant tensor:
#      x y z
#    x 2.077780 0.000000 0.000000 
#    y 0.000000 2.128850 0.000000 
#    z 0.000000 0.000000 2.008520 
# 
# From -- ./inp_files/22339.got.cif
#   From: 2010.05.17/outbox.cif.g08.bks.cpg/sg43_12_cif.got.tgz:22339.got - 2010.06.03 19:21:55.
