data_PCOD9370859
_publ_section_title
;
Structure prediction by ZEFSAII (Michael W. Deem and Ramdas Pophale) SiO2 
 PCOD9370859
Probable space group: F D D 2
;
_chemical_formula_sum "Si O2"
_cell_formula_units_Z 88
_cell_length_a 16.539387
_cell_length_b 29.860322
_cell_length_c 8.701579
_cell_angle_alpha 90.000000
_cell_angle_beta 90.000000
_cell_angle_gamma 90.000000
_cell_volume 4297.461190
_symmetry_space_group_name_H-M "F D D 2"
_symmetry_group_IT_number 43
_symmetry_cell_setting 'orthorhombic'
loop_
_space_group_symop_operation_xyz
x,y,z
-x,-y,z
1/4-x,1/4+y,1/4+z
1/4+x,1/4-y,1/4+z
x,1/2+y,1/2+z
-x,1/2-y,1/2+z
1/4-x,3/4+y,3/4+z
1/4+x,3/4-y,3/4+z
1/2+x,y,1/2+z
1/2-x,-y,1/2+z
3/4-x,1/4+y,3/4+z
3/4+x,1/4-y,3/4+z
1/2+x,1/2+y,z
1/2-x,1/2-y,z
3/4-x,3/4+y,1/4+z
3/4+x,3/4-y,1/4+z
loop_
_atom_site_type_symbol
_atom_site_label
_atom_site_fract_x
_atom_site_fract_y
_atom_site_fract_z
Si Si1 0.357564 0.784291 0.369700
Si Si2 0.817868 0.452779 0.299347
Si Si3 0.524381 0.325328 0.887748
Si Si4 0.750000 0.750000 0.300701
Si Si5 0.399454 0.755902 0.026181
Si Si6 0.271202 0.671058 0.557001
O O1 0.380782 0.744553 0.486572
O O2 0.428929 0.818908 0.404009
O O3 0.367866 0.767684 0.195881
O O4 0.273038 0.806404 0.411837
O O5 0.800693 0.449347 0.480314
O O6 0.727194 0.462271 0.235619
O O7 0.883415 0.413325 0.268372
O O8 0.530444 0.378051 0.860393
O O9 0.568650 0.295737 0.016900
O O10 0.673158 0.739614 0.407228
O O11 0.733262 0.793216 0.195296
#
# Coordination Sequence:
#
# PCOD9370859 Si02
#       6
#    16  16  16   8  16  16
#     4  10  21  37  68  93 127 170 220 265 332 397
#     4  10  20  41  62  91 125 175 209 261 336 401
#     4  10  21  40  65  94 129 169 216 275 333 393
#     4  12  24  40  68  90 130 178 220 264 336 402
#     4  10  23  41  64  93 132 174 216 270 328 397
#     4  12  21  39  67  98 122 173 223 271 330 404
#
# _framework density 20.477205000000001
#
# number of rings (size 3 to 8) (size 9 to 14) (size 15 to 20)
#    0.000    1.455    3.636    1.091    2.545    0.000 
#    0.000    5.455    8.000    0.000    0.000    0.000 
#    0.000    0.000    0.000    0.000    0.000    0.000 
#
# Total GULP energy -122520.716888 kJ/mol
# GULP energy per Si atom -5569.123495 kJ/mol
# Density = 2.043060 g / cm^3
# Si number density = 20.477205 Si / 1000 Ang^3
#
#
#
# Elastic Constant Matrix: (Units=GPa)
#
#
# Indices 1 2 3 4 5 6 
#
# 1 157.2246 22.9056 53.3766 0.0000 0.0000 0.0000
# 2 22.9056 72.3076 41.3730 0.0000 0.0000 0.0000
# 3 53.3766 41.3730 82.0560 0.0000 -0.0001 0.0000
# 4 0.0000 0.0000 0.0000 18.9240 0.0000 0.0000
# 5 0.0000 0.0000 -0.0001 0.0000 35.8926 0.0000
# 6 0.0000 0.0000 0.0000 0.0000 0.0000 19.3760
#
#
#
# Elastic Compliance Matrix: (Units=1/GPa)
#
#
# Indices 1 2 3 4 5 6 
#
# 1 0.008184 0.000637 -0.005645 0.000000 0.000000 0.000000
# 2 0.000637 0.019487 -0.010240 0.000000 0.000000 0.000000
# 3 -0.005645 -0.010240 0.021022 0.000000 0.000000 0.000000
# 4 0.000000 0.000000 0.000000 0.052843 0.000000 0.000000
# 5 0.000000 0.000000 0.000000 0.000000 0.027861 0.000000
# 6 0.000000 0.000000 0.000000 0.000000 0.000000 0.051610
#
#
# Mechanical properties :
#
#
# Convention : Reuss Voigt Hill
#
# Bulk Modulus (GPa) = 54.95226 60.76652 57.85939
# Shear Modulus (GPa) = 22.98130 27.76738 25.37434
#
# Velocity S-wave (km/s) = 3.35369 3.68640 3.52398
# Velocity P-wave (km/s) = 6.47228 6.91802 6.69886
#
# Compressibility (1/GPa) = 0.01819761
#
# Stress axis : x y z
#
# Youngs Moduli (GPa) = 122.19156 51.31600 47.56942
#
# Poissons Ratio (x) = -0.03271 0.26853
# Poissons Ratio (y) = -0.07789 0.48712
# Poissons Ratio (z) = 0.68976 0.52548
#
# Static dielectric constant tensor:
#      x y z
#    x 1.795650 0.000000 0.000000 
#    y 0.000000 1.803820 0.000000 
#    z 0.000000 0.000000 1.706310 
# 
# From -- ./inp_files/2907.got.cif
#   From: 2010.05.17/outbox.cif.g08.bks.cpg/sg43_2_cif.got.tgz:2907.got - 2010.06.03 19:21:55.
