data_PCOD9370409
_publ_section_title
;
Structure prediction by ZEFSAII (Michael W. Deem and Ramdas Pophale) SiO2 
 PCOD9370409
Probable space group: F D D 2
;
_chemical_formula_sum "Si O2"
_cell_formula_units_Z 96
_cell_length_a 19.741715
_cell_length_b 8.022276
_cell_length_c 28.465464
_cell_angle_alpha 90.000000
_cell_angle_beta 90.000000
_cell_angle_gamma 90.000000
_cell_volume 4508.174777
_symmetry_space_group_name_H-M "F D D 2"
_symmetry_group_IT_number 43
_symmetry_cell_setting 'orthorhombic'
loop_
_space_group_symop_operation_xyz
x,y,z
-x,-y,z
1/4-x,1/4+y,1/4+z
1/4+x,1/4-y,1/4+z
x,1/2+y,1/2+z
-x,1/2-y,1/2+z
1/4-x,3/4+y,3/4+z
1/4+x,3/4-y,3/4+z
1/2+x,y,1/2+z
1/2-x,-y,1/2+z
3/4-x,1/4+y,3/4+z
3/4+x,1/4-y,3/4+z
1/2+x,1/2+y,z
1/2-x,1/2-y,z
3/4-x,3/4+y,1/4+z
3/4+x,3/4-y,1/4+z
loop_
_atom_site_type_symbol
_atom_site_label
_atom_site_fract_x
_atom_site_fract_y
_atom_site_fract_z
Si Si1 0.326053 0.679640 0.520750
Si Si2 0.781001 0.928752 0.885035
Si Si3 0.154730 0.523767 0.925213
Si Si4 0.526194 0.692235 0.439499
Si Si5 0.836603 0.528309 0.122479
Si Si6 0.783306 0.575769 0.285613
O O1 0.250000 0.750000 0.516607
O O2 0.345206 0.574183 0.474655
O O3 0.329744 0.565721 0.567555
O O4 0.385684 0.818036 0.526113
O O5 0.750000 0.750000 0.899135
O O6 0.731999 0.055395 0.911165
O O7 0.860737 0.913753 0.893602
O O8 0.772365 0.953559 0.829464
O O9 0.105668 0.680316 0.930134
O O10 0.120979 0.399907 0.885915
O O11 0.500000 0.500000 0.440489
O O12 0.484817 0.781913 0.398432
O O13 0.504982 0.768375 0.488904
O O14 0.750000 0.750000 0.299367
#
# Coordination Sequence:
#
# PCOD9370409 Si02
#       6
#    16  16  16  16  16  16
#     4  11  22  38  64  96 126 172 222 267 322 396
#     4   9  19  36  63  87 116 166 210 261 312 387
#     4  10  20  36  67  90 122 163 225 270 316 387
#     4  10  19  37  62  92 118 166 218 263 314 394
#     4   9  19  34  58  93 120 158 210 265 314 378
#     4  11  23  38  61  93 129 166 209 265 330 388
#
# _framework density 21.294650000000001
#
# number of rings (size 3 to 8) (size 9 to 14) (size 15 to 20)
#    0.000    2.000    3.333    2.000    4.667    2.000 
#    0.000    1.667    0.000    0.000    0.000    0.000 
#    0.000    0.000    0.000    0.000    0.000    0.000 
#
# Total GULP energy -133922.775609 kJ/mol
# GULP energy per Si atom -5580.115650 kJ/mol
# Density = 2.124618 g / cm^3
# Si number density = 21.294650 Si / 1000 Ang^3
#
#
#
# Elastic Constant Matrix: (Units=GPa)
#
#
# Indices 1 2 3 4 5 6 
#
# 1 154.6494 32.6620 37.5472 0.0000 0.0000 0.0000
# 2 32.6620 53.1587 23.6897 -0.0001 0.0000 0.0000
# 3 37.5472 23.6897 96.9634 0.0000 0.0000 0.0000
# 4 0.0000 -0.0001 0.0000 -0.9220 0.0000 0.0000
# 5 0.0000 0.0000 0.0000 0.0000 29.2000 0.0000
# 6 0.0000 0.0000 0.0000 0.0000 0.0000 22.2973
#
#
#
# Elastic Compliance Matrix: (Units=1/GPa)
#
#
# Indices 1 2 3 4 5 6 
#
# 1 0.007784 -0.003860 -0.002071 0.000000 0.000000 0.000000
# 2 -0.003860 0.023024 -0.004130 -0.000002 0.000000 0.000000
# 3 -0.002071 -0.004130 0.012124 0.000000 0.000000 0.000000
# 4 0.000000 -0.000002 0.000000 -1.084647 0.000000 0.000001
# 5 0.000000 0.000000 0.000000 0.000000 0.034247 0.000000
# 6 0.000000 0.000000 0.000000 0.000001 0.000000 0.044849
#
#
# Mechanical properties :
#
#
# Convention : Reuss Voigt Hill
#
# Bulk Modulus (GPa) = 43.84158 54.72993 49.28576
# Shear Modulus (GPa) = -5.34820 24.17325 9.41252
#
# Velocity S-wave (km/s) = -1.58650 3.37290 2.10469
# Velocity P-wave (km/s) = 4.15654 6.39731 5.39455
#
# Compressibility (1/GPa) = 0.02280940
#
# Stress axis : x y z
#
# Youngs Moduli (GPa) = 128.46324 43.43315 82.47844
#
# Poissons Ratio (x) = 0.16764 0.17084
# Poissons Ratio (y) = 0.49585 0.34067
# Poissons Ratio (z) = 0.26609 0.17940
#
# Static dielectric constant tensor:
#      x y z
#    x 1.847680 0.000000 0.000000 
#    y 0.000000 1.787390 0.000000 
#    z 0.000000 0.000000 1.728800 
# 
# From -- ./inp_files/24237.got.cif
#   From: 2010.05.17/outbox.cif.g08.bks.cpg/sg43_13_cif.got.tgz:24237.got - 2010.06.03 19:21:55.
