data_PCOD9370844
_publ_section_title
;
Structure prediction by ZEFSAII (Michael W. Deem and Ramdas Pophale) SiO2 
 PCOD9370844
Probable space group: F D D 2
;
_chemical_formula_sum "Si O2"
_cell_formula_units_Z 88
_cell_length_a 16.370999
_cell_length_b 18.012547
_cell_length_c 13.274690
_cell_angle_alpha 90.000000
_cell_angle_beta 90.000000
_cell_angle_gamma 90.000000
_cell_volume 3914.485574
_symmetry_space_group_name_H-M "F D D 2"
_symmetry_group_IT_number 43
_symmetry_cell_setting 'orthorhombic'
loop_
_space_group_symop_operation_xyz
x,y,z
-x,-y,z
1/4-x,1/4+y,1/4+z
1/4+x,1/4-y,1/4+z
x,1/2+y,1/2+z
-x,1/2-y,1/2+z
1/4-x,3/4+y,3/4+z
1/4+x,3/4-y,3/4+z
1/2+x,y,1/2+z
1/2-x,-y,1/2+z
3/4-x,1/4+y,3/4+z
3/4+x,1/4-y,3/4+z
1/2+x,1/2+y,z
1/2-x,1/2-y,z
3/4-x,3/4+y,1/4+z
3/4+x,3/4-y,1/4+z
loop_
_atom_site_type_symbol
_atom_site_label
_atom_site_fract_x
_atom_site_fract_y
_atom_site_fract_z
Si Si1 0.814383 0.999517 0.183750
Si Si2 0.538903 0.753019 0.662720
Si Si3 0.500000 0.500000 0.892309
Si Si4 0.256170 0.150388 0.956260
Si Si5 0.394221 0.839163 0.735537
Si Si6 0.120344 0.755365 0.360604
O O1 0.812854 0.019856 0.301464
O O2 0.862714 0.920107 0.196162
O O3 0.718736 0.989902 0.155300
O O4 0.842706 0.064045 0.103908
O O5 0.485835 0.684862 0.705765
O O6 0.479256 0.822917 0.676698
O O7 0.613056 0.758399 0.740589
O O8 0.520583 0.567054 0.816542
O O9 0.575825 0.469916 0.953047
O O10 0.183744 0.194827 0.902129
O O11 0.340760 0.168376 0.900163
#
# Coordination Sequence:
#
# PCOD9370844 Si02
#       6
#    16  16   8  16  16  16
#     4  11  26  45  69 102 145 184 232 290 369 429
#     4  11  24  41  69  93 143 179 231 288 353 429
#     4  10  20  40  70  94 134 168 234 292 334 408
#     4  10  22  41  70 103 125 180 238 296 343 418
#     4  11  26  43  69 103 136 188 234 290 352 425
#     4   9  22  42  66 102 131 177 238 291 348 418
#
# _framework density 22.480605000000001
#
# number of rings (size 3 to 8) (size 9 to 14) (size 15 to 20)
#    0.000    1.818    0.000    4.364   12.727    0.000 
#    0.000    1.818    0.000    0.000    0.000    0.000 
#    0.000    0.000    0.000    0.000    0.000    0.000 
#
# Total GULP energy -122621.899229 kJ/mol
# GULP energy per Si atom -5573.722692 kJ/mol
# Density = 2.242944 g / cm^3
# Si number density = 22.480605 Si / 1000 Ang^3
#
#
#
# Elastic Constant Matrix: (Units=GPa)
#
#
# Indices 1 2 3 4 5 6 
#
# 1 75.1498 21.0902 29.5129 0.0000 0.0000 0.0000
# 2 21.0902 79.6837 -6.2771 0.0000 0.0000 0.0000
# 3 29.5129 -6.2771 143.0299 0.0000 0.0000 0.0000
# 4 0.0000 0.0000 0.0000 30.3046 0.0000 0.0000
# 5 0.0000 0.0000 0.0000 0.0000 31.2025 0.0000
# 6 0.0000 0.0000 0.0000 0.0000 0.0000 28.0920
#
#
#
# Elastic Compliance Matrix: (Units=1/GPa)
#
#
# Indices 1 2 3 4 5 6 
#
# 1 0.015936 -0.004493 -0.003485 0.000000 0.000000 0.000000
# 2 -0.004493 0.013860 0.001535 0.000000 0.000000 0.000000
# 3 -0.003485 0.001535 0.007778 0.000000 0.000000 0.000000
# 4 0.000000 0.000000 0.000000 0.032998 0.000000 0.000000
# 5 0.000000 0.000000 0.000000 0.000000 0.032049 0.000000
# 6 0.000000 0.000000 0.000000 0.000000 0.000000 0.035597
#
#
# Mechanical properties :
#
#
# Convention : Reuss Voigt Hill
#
# Bulk Modulus (GPa) = 40.50455 42.94616 41.72536
# Shear Modulus (GPa) = 31.38072 34.82231 33.10152
#
# Velocity S-wave (km/s) = 3.74023 3.94000 3.84141
# Velocity P-wave (km/s) = 6.05880 6.31215 6.18677
#
# Compressibility (1/GPa) = 0.02468858
#
# Stress axis : x y z
#
# Youngs Moduli (GPa) = 62.74952 72.15207 128.56583
#
# Poissons Ratio (x) = 0.32414 0.44811
# Poissons Ratio (y) = 0.28190 -0.19738
# Poissons Ratio (z) = 0.21871 -0.11077
#
# Static dielectric constant tensor:
#      x y z
#    x 1.808390 0.000000 0.000000 
#    y 0.000000 2.017850 0.000000 
#    z 0.000000 0.000000 1.913770 
# 
# From -- ./inp_files/10588.got.cif
#   From: 2010.05.17/outbox.cif.g08.bks.cpg/sg43_6_cif.got.tgz:10588.got - 2010.06.03 19:21:55.
