data_PCOD9370578
_publ_section_title
;
Structure prediction by ZEFSAII (Michael W. Deem and Ramdas Pophale) SiO2 
 PCOD9370578
Probable space group: F D D 2
;
_chemical_formula_sum "Si O2"
_cell_formula_units_Z 120
_cell_length_a 13.452659
_cell_length_b 32.113675
_cell_length_c 12.632911
_cell_angle_alpha 90.000000
_cell_angle_beta 90.000000
_cell_angle_gamma 90.000000
_cell_volume 5457.598443
_symmetry_space_group_name_H-M "F D D 2"
_symmetry_group_IT_number 43
_symmetry_cell_setting 'orthorhombic'
loop_
_space_group_symop_operation_xyz
x,y,z
-x,-y,z
1/4-x,1/4+y,1/4+z
1/4+x,1/4-y,1/4+z
x,1/2+y,1/2+z
-x,1/2-y,1/2+z
1/4-x,3/4+y,3/4+z
1/4+x,3/4-y,3/4+z
1/2+x,y,1/2+z
1/2-x,-y,1/2+z
3/4-x,1/4+y,3/4+z
3/4+x,1/4-y,3/4+z
1/2+x,1/2+y,z
1/2-x,1/2-y,z
3/4-x,3/4+y,1/4+z
3/4+x,3/4-y,1/4+z
loop_
_atom_site_type_symbol
_atom_site_label
_atom_site_fract_x
_atom_site_fract_y
_atom_site_fract_z
Si Si1 0.750000 0.750000 0.210590
Si Si2 0.293723 0.029167 0.444807
Si Si3 0.026662 0.845941 0.830327
Si Si4 0.562266 0.068485 0.297014
Si Si5 0.022296 0.634753 0.571544
Si Si6 0.860156 0.932131 0.584981
Si Si7 0.768638 0.555170 0.875422
Si Si8 0.422336 0.359266 0.448491
O O1 0.857945 0.762343 0.256938
O O2 0.733832 0.788588 0.132347
O O3 0.304224 0.074728 0.391177
O O4 0.199099 0.034078 0.519501
O O5 0.263383 0.992884 0.362224
O O6 0.146541 0.847760 0.828234
O O7 0.999719 0.890509 0.780612
O O8 0.973071 0.813954 0.750759
O O9 0.992701 0.848794 0.951985
O O10 0.581657 0.048983 0.183183
O O11 0.669238 0.080674 0.344261
O O12 0.919996 0.616469 0.619457
O O13 0.770565 0.903131 0.632945
O O14 0.927549 0.902639 0.512504
O O15 0.844252 0.573461 0.788964
#
# Coordination Sequence:
#
# PCOD9370578 Si02
#       8
#     8  16  16  16  16  16  16  16
#     4  10  20  36  60  82 126 150 202 256 316 368
#     4  10  22  39  59  93 127 166 203 262 323 382
#     4  12  21  38  62  95 115 160 212 269 301 381
#     4  10  20  37  59  90 119 161 201 259 311 370
#     4  11  23  38  64  91 126 159 217 264 319 375
#     4  10  21  39  62  86 125 165 211 255 318 377
#     4  10  22  38  62  88 126 159 211 255 319 379
#     4  10  21  38  60  87 118 169 204 259 314 381
#
# _framework density 21.987694000000001
#
# number of rings (size 3 to 8) (size 9 to 14) (size 15 to 20)
#    0.000    1.600    4.000    1.600    0.000    3.200 
#    0.000    0.000    0.000   11.200    0.000    0.000 
#    0.000    0.000    0.000    0.000    0.000    0.000 
#
# Total GULP energy -167196.351356 kJ/mol
# GULP energy per Si atom -5573.211712 kJ/mol
# Density = 2.193765 g / cm^3
# Si number density = 21.987694 Si / 1000 Ang^3
#
#
#
# Elastic Constant Matrix: (Units=GPa)
#
#
# Indices 1 2 3 4 5 6 
#
# 1 27.9372 5.8024 -2.7606 0.0000 0.0000 0.0000
# 2 5.8024 64.8468 -1.6387 0.0000 0.0000 0.0000
# 3 -2.7606 -1.6387 80.2536 0.0000 0.0000 0.0000
# 4 0.0000 0.0000 0.0000 6.7070 0.0000 0.0000
# 5 0.0000 0.0000 0.0000 0.0000 7.8380 0.0000
# 6 0.0000 0.0000 0.0000 0.0000 0.0000 34.3726
#
#
#
# Elastic Compliance Matrix: (Units=1/GPa)
#
#
# Indices 1 2 3 4 5 6 
#
# 1 0.036586 -0.003244 0.001192 0.000000 0.000000 0.000000
# 2 -0.003244 0.015716 0.000209 0.000000 0.000000 0.000000
# 3 0.001192 0.000209 0.012506 0.000000 0.000000 0.000000
# 4 0.000000 0.000000 0.000000 0.149097 0.000000 0.000000
# 5 0.000000 0.000000 0.000000 0.000000 0.127584 0.000000
# 6 0.000000 0.000000 0.000000 0.000000 0.000000 0.029093
#
#
# Mechanical properties :
#
#
# Convention : Reuss Voigt Hill
#
# Bulk Modulus (GPa) = 16.36008 19.53822 17.94915
# Shear Modulus (GPa) = 12.66973 21.22582 16.94777
#
# Velocity S-wave (km/s) = 2.40306 3.11038 2.77931
# Velocity P-wave (km/s) = 3.89311 4.66953 4.29889
#
# Compressibility (1/GPa) = 0.06112439
#
# Stress axis : x y z
#
# Youngs Moduli (GPa) = 27.33284 63.62744 79.96299
#
# Poissons Ratio (x) = 0.20638 -0.09534
# Poissons Ratio (y) = 0.08866 -0.01674
# Poissons Ratio (z) = -0.03259 -0.01332
#
# Static dielectric constant tensor:
#      x y z
#    x 1.933200 0.000000 0.000000 
#    y 0.000000 1.812660 0.000000 
#    z 0.000000 0.000000 1.871390 
# 
# From -- ./inp_files/10359.got.cif
#   From: 2010.05.17/outbox.cif.g08.bks.cpg/sg43_6_cif.got.tgz:10359.got - 2010.06.03 19:21:55.
