data_PCOD9370474
_publ_section_title
;
Structure prediction by ZEFSAII (Michael W. Deem and Ramdas Pophale) SiO2 
 PCOD9370474
Probable space group: F D D 2
;
_chemical_formula_sum "Si O2"
_cell_formula_units_Z 72
_cell_length_a 8.055278
_cell_length_b 13.537053
_cell_length_c 29.746750
_cell_angle_alpha 90.000000
_cell_angle_beta 90.000000
_cell_angle_gamma 90.000000
_cell_volume 3243.726180
_symmetry_space_group_name_H-M "F D D 2"
_symmetry_group_IT_number 43
_symmetry_cell_setting 'orthorhombic'
loop_
_space_group_symop_operation_xyz
x,y,z
-x,-y,z
1/4-x,1/4+y,1/4+z
1/4+x,1/4-y,1/4+z
x,1/2+y,1/2+z
-x,1/2-y,1/2+z
1/4-x,3/4+y,3/4+z
1/4+x,3/4-y,3/4+z
1/2+x,y,1/2+z
1/2-x,-y,1/2+z
3/4-x,1/4+y,3/4+z
3/4+x,1/4-y,3/4+z
1/2+x,1/2+y,z
1/2-x,1/2-y,z
3/4-x,3/4+y,1/4+z
3/4+x,3/4-y,1/4+z
loop_
_atom_site_type_symbol
_atom_site_label
_atom_site_fract_x
_atom_site_fract_y
_atom_site_fract_z
Si Si1 0.675315 0.884478 0.472610
Si Si2 0.750000 0.250000 0.595437
Si Si3 0.659942 0.602313 0.929540
Si Si4 0.020566 0.118423 0.413959
Si Si5 0.052075 0.886871 0.068090
O O1 0.504485 0.848976 0.449651
O O2 0.840669 0.847566 0.448907
O O3 0.663149 0.862490 0.524952
O O4 0.679417 0.002866 0.460394
O O5 0.642822 0.317760 0.629525
O O6 0.887504 0.317260 0.570521
O O7 0.663896 0.845312 0.924926
O O8 0.094623 0.134106 0.364333
O O9 0.000000 0.000000 0.417376
O O10 0.000000 0.000000 0.061758
#
# Coordination Sequence:
#
# PCOD9370474 Si02
#       5
#    16   8  16  16  16
#     4   9  18  37  63  86 126 174 214 259 341 403
#     4  10  20  40  66  88 134 174 210 278 346 380
#     4   9  16  40  67  82 122 189 201 251 358 401
#     4  10  19  39  68  87 127 180 212 265 344 397
#     4  12  22  39  67 100 129 169 228 281 327 411
#
# _framework density 22.196694999999998
#
# number of rings (size 3 to 8) (size 9 to 14) (size 15 to 20)
#    0.000    2.222    8.889    0.000    0.000    0.000 
#    4.000    4.444    0.000    0.000    0.000    0.000 
#    0.000    0.000    0.000    0.000    0.000    0.000 
#
# Total GULP energy -100499.449477 kJ/mol
# GULP energy per Si atom -5583.302749 kJ/mol
# Density = 2.214617 g / cm^3
# Si number density = 22.196695 Si / 1000 Ang^3
#
#
#
# Elastic Constant Matrix: (Units=GPa)
#
#
# Indices 1 2 3 4 5 6 
#
# 1 226.2698 45.3256 107.5081 0.0000 0.0000 0.0000
# 2 45.3256 79.5748 33.6057 0.0000 0.0000 0.0000
# 3 107.5081 33.6057 171.8286 0.0000 0.0000 0.0000
# 4 0.0000 0.0000 0.0000 -63.3030 0.0000 0.0000
# 5 0.0000 0.0000 0.0000 0.0000 -0.1974 0.0000
# 6 0.0000 0.0000 0.0000 0.0000 0.0000 41.9679
#
#
#
# Elastic Compliance Matrix: (Units=1/GPa)
#
#
# Indices 1 2 3 4 5 6 
#
# 1 0.006626 -0.002206 -0.003714 0.000000 0.000000 0.000000
# 2 -0.002206 0.014432 -0.001443 0.000000 0.000000 0.000000
# 3 -0.003714 -0.001443 0.008426 0.000000 0.000000 0.000000
# 4 0.000000 0.000000 0.000000 -0.015797 0.000000 0.000000
# 5 0.000000 0.000000 0.000000 0.000000 -5.065284 0.000000
# 6 0.000000 0.000000 0.000000 0.000000 0.000000 0.023828
#
#
# Mechanical properties :
#
#
# Convention : Reuss Voigt Hill
#
# Bulk Modulus (GPa) = 67.75498 94.50578 81.13038
# Shear Modulus (GPa) = -0.99838 15.10911 7.05536
#
# Velocity S-wave (km/s) = -0.67139 2.61184 1.78479
# Velocity P-wave (km/s) = 5.47632 7.19476 6.39354
#
# Compressibility (1/GPa) = 0.01475906
#
# Stress axis : x y z
#
# Youngs Moduli (GPa) = 150.91684 69.28884 118.68143
#
# Poissons Ratio (x) = 0.15282 0.44083
# Poissons Ratio (y) = 0.33286 0.17122
# Poissons Ratio (z) = 0.56057 0.09996
#
# Static dielectric constant tensor:
#      x y z
#    x 1.832270 0.000000 0.000000 
#    y 0.000000 2.122070 0.000000 
#    z 0.000000 0.000000 1.791490 
# 
# From -- ./inp_files/28365.got.cif
#   From: 2010.05.17/outbox.cif.g08.bks.cpg/sg43_15_cif.got.tgz:28365.got - 2010.06.03 19:21:55.
