data_PCOD9370927
_publ_section_title
;
Structure prediction by ZEFSAII (Michael W. Deem and Ramdas Pophale) SiO2 
 PCOD9370927
Probable space group: F D D 2
;
_chemical_formula_sum "Si O2"
_cell_formula_units_Z 64
_cell_length_a 13.465425
_cell_length_b 9.355914
_cell_length_c 18.715543
_cell_angle_alpha 90.000000
_cell_angle_beta 90.000000
_cell_angle_gamma 90.000000
_cell_volume 2357.809528
_symmetry_space_group_name_H-M "F D D 2"
_symmetry_group_IT_number 43
_symmetry_cell_setting 'orthorhombic'
loop_
_space_group_symop_operation_xyz
x,y,z
-x,-y,z
1/4-x,1/4+y,1/4+z
1/4+x,1/4-y,1/4+z
x,1/2+y,1/2+z
-x,1/2-y,1/2+z
1/4-x,3/4+y,3/4+z
1/4+x,3/4-y,3/4+z
1/2+x,y,1/2+z
1/2-x,-y,1/2+z
3/4-x,1/4+y,3/4+z
3/4+x,1/4-y,3/4+z
1/2+x,1/2+y,z
1/2-x,1/2-y,z
3/4-x,3/4+y,1/4+z
3/4+x,3/4-y,1/4+z
loop_
_atom_site_type_symbol
_atom_site_label
_atom_site_fract_x
_atom_site_fract_y
_atom_site_fract_z
Si Si1 0.261252 0.918927 0.834320
Si Si2 0.715488 0.407841 0.567271
Si Si3 0.103036 0.593728 0.175480
Si Si4 0.085669 0.121534 0.223849
O O1 0.250000 0.750000 0.829030
O O2 0.170640 0.935134 0.893481
O O3 0.312051 0.941574 0.755518
O O4 0.339734 0.009914 0.881471
O O5 0.750000 0.250000 0.581863
O O6 0.679802 0.498421 0.633284
O O7 0.627694 0.383051 0.507978
O O8 0.797797 0.500153 0.524810
O O9 0.000000 0.500000 0.174293
O O10 0.000000 0.000000 0.228292
#
# Coordination Sequence:
#
# PCOD9370927 Si02
#       4
#    16  16  16  16
#     4  10  22  40  72 103 147 196 261 322 397 483
#     4  10  22  42  69  99 146 192 255 324 397 476
#     4  10  22  43  68 100 145 199 254 324 401 479
#     4  10  20  42  69 102 142 196 258 319 395 478
#
# _framework density 27.143836
#
# number of rings (size 3 to 8) (size 9 to 14) (size 15 to 20)
#    0.000    2.000    2.500    0.000    3.500    0.000 
#    9.000    0.000    0.000    0.000    0.000    0.000 
#    0.000    0.000    0.000    0.000    0.000    0.000 
#
# Total GULP energy -89113.922465 kJ/mol
# GULP energy per Si atom -5569.620154 kJ/mol
# Density = 2.708206 g / cm^3
# Si number density = 27.143836 Si / 1000 Ang^3
#
#
#
# Elastic Constant Matrix: (Units=GPa)
#
#
# Indices 1 2 3 4 5 6 
#
# 1 86.3579 42.8613 114.5063 0.0000 0.0000 0.0000
# 2 42.8613 161.3224 34.6936 0.0000 0.0000 0.0000
# 3 114.5063 34.6936 212.0171 0.0000 0.0000 0.0000
# 4 0.0000 0.0000 0.0000 0.1878 0.0000 0.0000
# 5 0.0000 0.0000 0.0000 0.0000 32.6879 0.0000
# 6 0.0000 0.0000 0.0000 0.0000 0.0000 37.4338
#
#
#
# Elastic Compliance Matrix: (Units=1/GPa)
#
#
# Indices 1 2 3 4 5 6 
#
# 1 0.048132 -0.007460 -0.024774 0.000000 0.000000 0.000000
# 2 -0.007460 0.007581 0.002789 0.000000 0.000000 0.000000
# 3 -0.024774 0.002789 0.017640 0.000000 0.000000 0.000000
# 4 0.000000 0.000000 0.000000 5.324515 0.000000 0.000000
# 5 0.000000 0.000000 0.000000 0.000000 0.030592 0.000000
# 6 0.000000 0.000000 0.000000 0.000000 0.000000 0.026714
#
#
# Mechanical properties :
#
#
# Convention : Reuss Voigt Hill
#
# Bulk Modulus (GPa) = 69.14885 93.75773 81.45329
# Shear Modulus (GPa) = 0.90598 31.90431 16.40515
#
# Velocity S-wave (km/s) = 0.57836 3.43210 2.46108
# Velocity P-wave (km/s) = 5.09669 7.09379 6.17649
#
# Compressibility (1/GPa) = 0.01446156
#
# Stress axis : x y z
#
# Youngs Moduli (GPa) = 20.77631 131.90645 56.68808
#
# Poissons Ratio (x) = 0.98404 1.40441
# Poissons Ratio (y) = 0.15499 -0.15808
# Poissons Ratio (z) = 0.51472 -0.36782
#
# Static dielectric constant tensor:
#      x y z
#    x 2.268570 0.000000 0.000000 
#    y 0.000000 2.135490 0.000000 
#    z 0.000000 0.000000 2.178860 
# 
# From -- ./inp_files/13683.got.cif
#   From: 2010.05.17/outbox.cif.g08.bks.cpg/sg43_7_cif.got.tgz:13683.got - 2010.06.03 19:21:55.
