data_PCOD9370688
_publ_section_title
;
Structure prediction by ZEFSAII (Michael W. Deem and Ramdas Pophale) SiO2 
 PCOD9370688
Probable space group: F D D 2
;
_chemical_formula_sum "Si O2"
_cell_formula_units_Z 120
_cell_length_a 19.721983
_cell_length_b 11.114836
_cell_length_c 23.126923
_cell_angle_alpha 90.000000
_cell_angle_beta 90.000000
_cell_angle_gamma 90.000000
_cell_volume 5069.574313
_symmetry_space_group_name_H-M "F D D 2"
_symmetry_group_IT_number 43
_symmetry_cell_setting 'orthorhombic'
loop_
_space_group_symop_operation_xyz
x,y,z
-x,-y,z
1/4-x,1/4+y,1/4+z
1/4+x,1/4-y,1/4+z
x,1/2+y,1/2+z
-x,1/2-y,1/2+z
1/4-x,3/4+y,3/4+z
1/4+x,3/4-y,3/4+z
1/2+x,y,1/2+z
1/2-x,-y,1/2+z
3/4-x,1/4+y,3/4+z
3/4+x,1/4-y,3/4+z
1/2+x,1/2+y,z
1/2-x,1/2-y,z
3/4-x,3/4+y,1/4+z
3/4+x,3/4-y,1/4+z
loop_
_atom_site_type_symbol
_atom_site_label
_atom_site_fract_x
_atom_site_fract_y
_atom_site_fract_z
Si Si1 0.473349 0.126890 0.762370
Si Si2 0.124041 0.369275 0.363564
Si Si3 0.437287 0.869402 0.881746
Si Si4 0.195875 0.007171 0.694873
Si Si5 0.926518 0.546983 0.249165
Si Si6 0.250000 0.750000 0.679214
Si Si7 0.012538 0.289577 0.157080
Si Si8 0.870975 0.620013 0.851833
O O1 0.520897 0.144860 0.820366
O O2 0.479694 0.225404 0.713161
O O3 0.397011 0.119256 0.786456
O O4 0.500000 0.000000 0.738715
O O5 0.120047 0.232856 0.384948
O O6 0.103189 0.365961 0.296961
O O7 0.192611 0.440859 0.374576
O O8 0.063125 0.444842 0.393575
O O9 0.488932 0.839593 0.933694
O O10 0.405908 0.000725 0.879715
O O11 0.157496 0.017742 0.632815
O O12 0.135508 0.044995 0.738118
O O13 0.220746 0.871496 0.709040
O O14 0.940689 0.613262 0.189046
O O15 0.000000 0.500000 0.267868
O O16 0.957320 0.353115 0.116612
#
# Coordination Sequence:
#
# PCOD9370688 Si02
#       8
#    16  16  16  16  16   8  16  16
#     4   9  20  41  67  91 133 182 224 277 348 407
#     4  11  23  39  64  98 136 178 232 280 343 418
#     4   9  20  41  67  94 132 183 223 279 343 417
#     4  10  20  39  65  94 128 175 219 280 338 411
#     4  12  23  41  66  98 135 179 225 292 354 406
#     4  10  20  38  64  90 130 170 216 272 344 390
#     4  12  24  41  67 102 135 185 227 288 350 411
#     4  10  22  41  67  99 136 179 232 284 337 425
#
# _framework density 23.670625999999999
#
# number of rings (size 3 to 8) (size 9 to 14) (size 15 to 20)
#    0.000    1.600    4.667    1.200    1.867    0.000 
#    2.400    2.667    0.000    0.000    0.000    0.000 
#    0.000    0.000    0.000    0.000    0.000    0.000 
#
# Total GULP energy -167384.011027 kJ/mol
# GULP energy per Si atom -5579.467034 kJ/mol
# Density = 2.361675 g / cm^3
# Si number density = 23.670626 Si / 1000 Ang^3
#
#
#
# Elastic Constant Matrix: (Units=GPa)
#
#
# Indices 1 2 3 4 5 6 
#
# 1 119.7043 27.5128 40.3234 0.0000 0.0000 0.0000
# 2 27.5128 82.7581 8.2768 0.0000 0.0000 0.0000
# 3 40.3234 8.2768 29.9627 0.0000 0.0000 0.0000
# 4 0.0000 0.0000 0.0000 20.4518 0.0000 0.0000
# 5 0.0000 0.0000 0.0000 0.0000 33.5105 0.0000
# 6 0.0000 0.0000 0.0000 0.0000 0.0000 39.4413
#
#
#
# Elastic Compliance Matrix: (Units=1/GPa)
#
#
# Indices 1 2 3 4 5 6 
#
# 1 0.016102 -0.003276 -0.020764 0.000000 0.000000 0.000000
# 2 -0.003276 0.013093 0.000792 0.000000 0.000000 0.000000
# 3 -0.020764 0.000792 0.061100 0.000000 0.000000 0.000000
# 4 0.000000 0.000000 0.000000 0.048895 0.000000 0.000000
# 5 0.000000 0.000000 0.000000 0.000000 0.029841 0.000000
# 6 0.000000 0.000000 0.000000 0.000000 0.000000 0.025354
#
#
# Mechanical properties :
#
#
# Convention : Reuss Voigt Hill
#
# Bulk Modulus (GPa) = 22.83168 42.73901 32.78534
# Shear Modulus (GPa) = 19.57083 29.10151 24.33617
#
# Velocity S-wave (km/s) = 2.87853 3.51013 3.20990
# Velocity P-wave (km/s) = 4.55131 5.87563 5.25535
#
# Compressibility (1/GPa) = 0.04379879
#
# Stress axis : x y z
#
# Youngs Moduli (GPa) = 62.10583 76.37456 16.36653
#
# Poissons Ratio (x) = 0.25022 0.33984
# Poissons Ratio (y) = 0.20348 -0.01297
# Poissons Ratio (z) = 1.28958 -0.06051
#
# Static dielectric constant tensor:
#      x y z
#    x 1.962550 0.000000 0.000000 
#    y 0.000000 1.946790 0.000000 
#    z 0.000000 0.000000 1.893720 
# 
# From -- ./inp_files/26085.got.cif
#   From: 2010.05.17/outbox.cif.g08.bks.cpg/sg43_14_cif.got.tgz:26085.got - 2010.06.03 19:21:55.
