data_PCOD9370320
_publ_section_title
;
Structure prediction by ZEFSAII (Michael W. Deem and Ramdas Pophale) SiO2 
 PCOD9370320
Probable space group: F D D 2
;
_chemical_formula_sum "Si O2"
_cell_formula_units_Z 88
_cell_length_a 10.055631
_cell_length_b 34.837994
_cell_length_c 9.719546
_cell_angle_alpha 90.000000
_cell_angle_beta 90.000000
_cell_angle_gamma 90.000000
_cell_volume 3404.932037
_symmetry_space_group_name_H-M "F D D 2"
_symmetry_group_IT_number 43
_symmetry_cell_setting 'orthorhombic'
loop_
_space_group_symop_operation_xyz
x,y,z
-x,-y,z
1/4-x,1/4+y,1/4+z
1/4+x,1/4-y,1/4+z
x,1/2+y,1/2+z
-x,1/2-y,1/2+z
1/4-x,3/4+y,3/4+z
1/4+x,3/4-y,3/4+z
1/2+x,y,1/2+z
1/2-x,-y,1/2+z
3/4-x,1/4+y,3/4+z
3/4+x,1/4-y,3/4+z
1/2+x,1/2+y,z
1/2-x,1/2-y,z
3/4-x,3/4+y,1/4+z
3/4+x,3/4-y,1/4+z
loop_
_atom_site_type_symbol
_atom_site_label
_atom_site_fract_x
_atom_site_fract_y
_atom_site_fract_z
Si Si1 0.760664 0.545317 0.337810
Si Si2 0.534971 0.072468 0.316008
Si Si3 0.915451 0.079372 0.238620
Si Si4 0.675830 0.090389 0.574587
Si Si5 0.750000 0.750000 0.524934
Si Si6 0.677336 0.839467 0.757499
O O1 0.748165 0.563291 0.184348
O O2 0.739831 0.632473 0.072902
O O3 0.635861 0.515931 0.348621
O O4 0.714546 0.576807 0.448318
O O5 0.651442 0.070012 0.428367
O O6 0.418186 0.042453 0.353995
O O7 0.564150 0.069656 0.154652
O O8 0.030907 0.095858 0.141187
O O9 0.927107 0.034920 0.193929
O O10 0.811893 0.114247 0.245711
O O11 0.963259 0.076040 0.397796
#
# Coordination Sequence:
#
# PCOD9370320 Si02
#       6
#    16  16  16  16   8  16
#     4  10  22  41  58  84 124 160 196 260 300 372
#     4  12  19  34  59  90 117 151 193 263 301 350
#     4  10  19  39  59  86 120 159 202 261 298 375
#     4  10  19  33  56  87 116 148 201 243 307 351
#     4   8  20  40  64  80 126 172 202 242 336 368
#     4  10  21  33  60  89 114 150 214 247 302 365
#
# _framework density 25.844863
#
# number of rings (size 3 to 8) (size 9 to 14) (size 15 to 20)
#    0.000    2.182    3.636    2.182    0.000    0.000 
#    0.000    7.273    0.000   17.455    0.000    0.000 
#    0.000    0.000    0.000    0.000    0.000    0.000 
#
# Total GULP energy -122580.229645 kJ/mol
# GULP energy per Si atom -5571.828620 kJ/mol
# Density = 2.578604 g / cm^3
# Si number density = 25.844863 Si / 1000 Ang^3
#
#
#
# Elastic Constant Matrix: (Units=GPa)
#
#
# Indices 1 2 3 4 5 6 
#
# 1 83.4728 20.7227 21.9265 0.0000 0.0000 0.0000
# 2 20.7227 80.7899 -3.2727 0.0000 0.0000 0.0000
# 3 21.9265 -3.2727 155.2789 0.0000 0.0000 0.0000
# 4 0.0000 0.0000 0.0000 16.1748 0.0000 0.0000
# 5 0.0000 0.0000 0.0000 0.0000 2.8120 0.0000
# 6 0.0000 0.0000 0.0000 0.0000 0.0000 39.3997
#
#
#
# Elastic Compliance Matrix: (Units=1/GPa)
#
#
# Indices 1 2 3 4 5 6 
#
# 1 0.013366 -0.003508 -0.001961 0.000000 0.000000 0.000000
# 2 -0.003508 0.013309 0.000776 0.000000 0.000000 0.000000
# 3 -0.001961 0.000776 0.006733 0.000000 0.000000 0.000000
# 4 0.000000 0.000000 0.000000 0.061825 0.000000 0.000000
# 5 0.000000 0.000000 0.000000 0.000000 0.355617 0.000000
# 6 0.000000 0.000000 0.000000 0.000000 0.000000 0.025381
#
#
# Mechanical properties :
#
#
# Convention : Reuss Voigt Hill
#
# Bulk Modulus (GPa) = 41.62908 44.25496 42.94202
# Shear Modulus (GPa) = 10.12916 30.35498 20.24207
#
# Velocity S-wave (km/s) = 1.98185 3.43083 2.80163
# Velocity P-wave (km/s) = 4.62377 5.73189 5.20739
#
# Compressibility (1/GPa) = 0.02402167
#
# Stress axis : x y z
#
# Youngs Moduli (GPa) = 74.81680 75.13728 148.51504
#
# Poissons Ratio (x) = 0.26357 0.29128
# Poissons Ratio (y) = 0.26244 -0.11522
# Poissons Ratio (z) = 0.14674 -0.05829
#
# Static dielectric constant tensor:
#      x y z
#    x 2.160110 0.000000 0.000000 
#    y 0.000000 2.157470 0.000000 
#    z 0.000000 0.000000 2.076840 
# 
# From -- ./inp_files/2927.got.cif
#   From: 2010.05.17/outbox.cif.g08.bks.cpg/sg43_2_cif.got.tgz:2927.got - 2010.06.03 19:21:55.
