data_PCOD9370008
_publ_section_title
;
Structure prediction by ZEFSAII (Michael W. Deem and Ramdas Pophale) SiO2 
 PCOD9370008
Probable space group: F M M 2
;
_chemical_formula_sum "Si O2"
_cell_formula_units_Z 24
_cell_length_a 9.000000
_cell_length_b 27.000000
_cell_length_c 21.000000
_cell_angle_alpha 90.000000
_cell_angle_beta 90.000000
_cell_angle_gamma 90.000000
_cell_volume 5103.000000
_symmetry_space_group_name_H-M "F M M 2"
_symmetry_group_IT_number 42
_symmetry_cell_setting 'orthorhombic'
loop_
_space_group_symop_operation_xyz
x,y,z
-x,-y,z
-x,y,z
x,-y,z
x,1/2+y,1/2+z
-x,1/2-y,1/2+z
-x,1/2+y,1/2+z
x,1/2-y,1/2+z
1/2+x,y,1/2+z
1/2-x,-y,1/2+z
1/2-x,y,1/2+z
1/2+x,-y,1/2+z
1/2+x,1/2+y,z
1/2-x,1/2-y,z
1/2-x,1/2+y,z
1/2+x,1/2-y,z
loop_
_atom_site_type_symbol
_atom_site_label
_atom_site_fract_x
_atom_site_fract_y
_atom_site_fract_z
Si Si1 0.821312 0.303690 0.566420
Si Si2 0.329846 0.941629 0.756257
Si Si3 0.675517 0.361744 0.682056
Si Si4 0.822286 0.850708 0.440921
Si Si5 0.825874 0.558156 0.392831
Si Si6 0.823569 0.196707 0.815271
O O1 0.750000 0.250000 0.577249
O O2 0.764670 0.337409 0.624482
O O3 0.755074 0.323843 0.500144
O O4 0.000000 0.301421 0.564135
O O5 0.500000 0.923167 0.763205
O O6 0.244568 0.914469 0.699950
O O7 0.240190 0.934492 0.822019
O O8 0.335351 0.000000 0.745007
O O9 0.500000 0.363614 0.667650
O O10 0.694817 0.331451 0.748207
O O11 0.769282 0.907665 0.439290
O O12 0.758076 0.828760 0.374892
O O13 0.000000 0.845837 0.443562
O O14 0.814742 0.500000 0.407640
O O15 0.000000 0.572418 0.393556
O O16 0.750000 0.250000 0.807990
O O17 0.000000 0.199825 0.828590
#
# Coordination Sequence:
#
# PCOD9370008 Si02
#       6
#    16  16  16  16  16  16
#     4  12  26  45  66  88 123 164 208 254 308 371
#     4  10  20  35  59  92 127 163 204 251 305 362
#     4  11  23  40  63  91 124 161 206 254 306 365
#     4  12  24  40  63  90 123 160 206 254 306 367
#     4  10  20  36  60  91 126 162 202 251 307 363
#     4  11  23  38  59  88 121 156 200 254 306 360
#
# _framework density 4.7031159999999996
#
# number of rings (size 3 to 8) (size 9 to 14) (size 15 to 20)
#    0.000    1.000    1.667    6.000    0.000    5.333 
#    0.000    0.833    0.000    5.000    0.000    0.000 
#    0.000    0.000    0.000    0.000    0.000    0.000 
#
# Total GULP energy -134166.231084 kJ/mol
# GULP energy per Si atom -5590.259629 kJ/mol
# Density = 0.469241 g / cm^3
# Si number density = 4.703116 Si / 1000 Ang^3
#
#
#
# Elastic Constant Matrix: (Units=GPa)
#
#
# Indices 1 2 3 4 5 6 
#
# 1 158.4838 14.1015 27.7373 0.0000 0.0000 0.0000
# 2 14.1015 42.5606 -5.5479 0.0000 0.0000 0.0000
# 3 27.7373 -5.5479 40.2902 0.0000 0.0000 0.0000
# 4 0.0000 0.0000 0.0000 22.7957 0.0000 0.0000
# 5 0.0000 0.0000 0.0000 0.0000 35.9649 0.0000
# 6 0.0000 0.0000 0.0000 0.0000 0.0000 32.9356
#
#
#
# Elastic Compliance Matrix: (Units=1/GPa)
#
#
# Indices 1 2 3 4 5 6 
#
# 1 0.007593 -0.003255 -0.005675 0.000000 0.000000 0.000000
# 2 -0.003255 0.025321 0.005728 0.000000 0.000000 0.000000
# 3 -0.005675 0.005728 0.029516 0.000000 0.000000 0.000000
# 4 0.000000 0.000000 0.000000 0.043868 0.000000 0.000000
# 5 0.000000 0.000000 0.000000 0.000000 0.027805 0.000000
# 6 0.000000 0.000000 0.000000 0.000000 0.000000 0.030362
#
#
# Mechanical properties :
#
#
# Convention : Reuss Voigt Hill
#
# Bulk Modulus (GPa) = 17.84960 34.87960 26.36460
# Shear Modulus (GPa) = 26.37889 32.00881 29.19385
#
# Velocity S-wave (km/s) = 3.74866 4.12936 3.94361
# Velocity P-wave (km/s) = 5.31464 6.42779 5.89753
#
# Compressibility (1/GPa) = 0.05602367
#
# Stress axis : x y z
#
# Youngs Moduli (GPa) = 131.70458 39.49267 33.88012
#
# Poissons Ratio (x) = 0.12857 0.19228
# Poissons Ratio (y) = 0.42876 -0.19406
# Poissons Ratio (z) = 0.74748 -0.22621
#
# Static dielectric constant tensor:
#      x y z
#    x 1.630910 0.000000 0.000000 
#    y 0.000000 1.706010 0.000000 
#    z 0.000000 0.000000 1.618440 
# 
# From -- ./inp_files/23696.got.cif
#   From: 2010.05.17/outbox.ucp.g08.bks.cvg/sg42_12_cif.got.tgz:23696.got - 2010.06.11 16:29:10.
