data_PCOD9370380
_publ_section_title
;
Structure prediction by ZEFSAII (Michael W. Deem and Ramdas Pophale) SiO2 
 PCOD9370380
Probable space group: F D D 2
;
_chemical_formula_sum "Si O2"
_cell_formula_units_Z 72
_cell_length_a 12.212125
_cell_length_b 9.424080
_cell_length_c 29.210945
_cell_angle_alpha 90.000000
_cell_angle_beta 90.000000
_cell_angle_gamma 90.000000
_cell_volume 3361.830493
_symmetry_space_group_name_H-M "F D D 2"
_symmetry_group_IT_number 43
_symmetry_cell_setting 'orthorhombic'
loop_
_space_group_symop_operation_xyz
x,y,z
-x,-y,z
1/4-x,1/4+y,1/4+z
1/4+x,1/4-y,1/4+z
x,1/2+y,1/2+z
-x,1/2-y,1/2+z
1/4-x,3/4+y,3/4+z
1/4+x,3/4-y,3/4+z
1/2+x,y,1/2+z
1/2-x,-y,1/2+z
3/4-x,1/4+y,3/4+z
3/4+x,1/4-y,3/4+z
1/2+x,1/2+y,z
1/2-x,1/2-y,z
3/4-x,3/4+y,1/4+z
3/4+x,3/4-y,1/4+z
loop_
_atom_site_type_symbol
_atom_site_label
_atom_site_fract_x
_atom_site_fract_y
_atom_site_fract_z
Si Si1 0.087304 0.608447 0.854000
Si Si2 0.368593 0.662972 0.788121
Si Si3 0.780839 0.907368 0.838726
Si Si4 0.129115 0.027519 0.938256
Si Si5 0.500000 0.000000 0.675452
O O1 0.054811 0.728337 0.816998
O O2 0.170726 0.497525 0.831936
O O3 0.154632 0.690289 0.892692
O O4 0.000000 0.500000 0.874361
O O5 0.250000 0.750000 0.789898
O O6 0.364265 0.510955 0.812655
O O7 0.390955 0.636721 0.735017
O O8 0.750000 0.750000 0.823940
O O9 0.817926 0.909814 0.892127
O O10 0.192872 0.880841 0.950012
O O11 0.000000 0.000000 0.929870
#
# Coordination Sequence:
#
# PCOD9370380 Si02
#       5
#    16  16  16  16   8
#     4  10  19  36  62  89 122 170 211 257 329 384
#     4   9  18  39  61  90 126 165 221 262 317 400
#     4  10  21  38  61  89 127 165 215 272 318 389
#     4  10  21  37  65  89 127 169 215 268 326 380
#     4  10  20  40  60  98 126 166 224 264 306 408
#
# _framework density 21.416905
#
# number of rings (size 3 to 8) (size 9 to 14) (size 15 to 20)
#    0.000    2.222    5.556    0.000    4.667    0.000 
#    0.000    3.333    9.778    0.000    0.000    0.000 
#    0.000    0.000    0.000    0.000    0.000    0.000 
#
# Total GULP energy -100274.496894 kJ/mol
# GULP energy per Si atom -5570.805383 kJ/mol
# Density = 2.136816 g / cm^3
# Si number density = 21.416905 Si / 1000 Ang^3
#
#
#
# Elastic Constant Matrix: (Units=GPa)
#
#
# Indices 1 2 3 4 5 6 
#
# 1 46.9976 19.7038 6.5541 0.0000 0.0000 0.0000
# 2 19.7038 135.7678 66.4246 0.0000 0.0000 0.0000
# 3 6.5541 66.4246 96.1658 0.0000 0.0000 0.0000
# 4 0.0000 0.0000 0.0000 -1.7143 0.0000 0.0000
# 5 0.0000 0.0000 0.0000 0.0000 57.9779 0.0000
# 6 0.0000 0.0000 0.0000 0.0000 0.0000 36.1191
#
#
#
# Elastic Compliance Matrix: (Units=1/GPa)
#
#
# Indices 1 2 3 4 5 6 
#
# 1 0.022733 -0.003838 0.001102 0.000000 0.000000 0.000000
# 2 -0.003838 0.011773 -0.007871 0.000000 0.000000 0.000000
# 3 0.001102 -0.007871 0.015760 0.000000 0.000000 0.000000
# 4 0.000000 0.000000 0.000000 -0.583325 0.000000 0.000000
# 5 0.000000 0.000000 0.000000 0.000000 0.017248 0.000000
# 6 0.000000 0.000000 0.000000 0.000000 0.000000 0.027686
#
#
# Mechanical properties :
#
#
# Convention : Reuss Voigt Hill
#
# Bulk Modulus (GPa) = 34.42042 51.58847 43.00445
# Shear Modulus (GPa) = -10.93551 30.89310 9.97880
#
# Velocity S-wave (km/s) = -2.26210 3.80210 2.16088
# Velocity P-wave (km/s) = 3.04692 6.58898 5.13314
#
# Compressibility (1/GPa) = 0.02905252
#
# Stress axis : x y z
#
# Youngs Moduli (GPa) = 43.98847 84.93833 63.45166
#
# Poissons Ratio (x) = 0.32602 -0.06992
# Poissons Ratio (y) = 0.16884 0.49940
# Poissons Ratio (z) = -0.04847 0.66851
#
# Static dielectric constant tensor:
#      x y z
#    x 1.919640 0.000000 0.000000 
#    y 0.000000 1.931150 0.000000 
#    z 0.000000 0.000000 1.755710 
# 
# From -- ./inp_files/25476.got.cif
#   From: 2010.05.17/outbox.cif.g08.bks.cpg/sg43_13_cif.got.tgz:25476.got - 2010.06.03 19:21:55.
