data_PCOD9370437
_publ_section_title
;
Structure prediction by ZEFSAII (Michael W. Deem and Ramdas Pophale) SiO2 
 PCOD9370437
Probable space group: F D D 2
;
_chemical_formula_sum "Si O2"
_cell_formula_units_Z 80
_cell_length_a 12.282304
_cell_length_b 10.425794
_cell_length_c 26.256176
_cell_angle_alpha 90.000000
_cell_angle_beta 90.000000
_cell_angle_gamma 90.000000
_cell_volume 3362.176102
_symmetry_space_group_name_H-M "F D D 2"
_symmetry_group_IT_number 43
_symmetry_cell_setting 'orthorhombic'
loop_
_space_group_symop_operation_xyz
x,y,z
-x,-y,z
1/4-x,1/4+y,1/4+z
1/4+x,1/4-y,1/4+z
x,1/2+y,1/2+z
-x,1/2-y,1/2+z
1/4-x,3/4+y,3/4+z
1/4+x,3/4-y,3/4+z
1/2+x,y,1/2+z
1/2-x,-y,1/2+z
3/4-x,1/4+y,3/4+z
3/4+x,1/4-y,3/4+z
1/2+x,1/2+y,z
1/2-x,1/2-y,z
3/4-x,3/4+y,1/4+z
3/4+x,3/4-y,1/4+z
loop_
_atom_site_type_symbol
_atom_site_label
_atom_site_fract_x
_atom_site_fract_y
_atom_site_fract_z
Si Si1 0.141256 0.062338 0.013900
Si Si2 0.873183 0.230577 0.420896
Si Si3 0.388685 0.488789 0.488770
Si Si4 0.890170 0.451733 0.728102
Si Si5 0.817260 0.880403 0.124221
O O1 0.125008 0.115194 0.070160
O O2 0.120537 0.167744 0.969458
O O3 0.271899 0.026133 0.012261
O O4 0.090025 0.920018 0.006390
O O5 0.750000 0.250000 0.401068
O O6 0.970915 0.266264 0.383194
O O7 0.886358 0.086726 0.441388
O O8 0.500000 0.500000 0.521449
O O9 0.406813 0.342244 0.471628
O O10 0.901114 0.395629 0.671012
O O11 0.000000 0.500000 0.754709
O O12 0.750000 0.750000 0.129443
#
# Coordination Sequence:
#
# PCOD9370437 Si02
#       5
#    16  16  16  16  16
#     4  10  23  42  63  91 130 171 218 271 316 392
#     4  10  21  40  65  93 134 164 213 274 317 388
#     4  10  19  38  63  90 131 168 204 264 330 368
#     4  10  22  43  61  90 133 165 209 275 318 386
#     4  12  22  41  70  96 124 178 222 263 337 386
#
# _framework density 23.794111999999998
#
# number of rings (size 3 to 8) (size 9 to 14) (size 15 to 20)
#    0.000    1.600    4.000    1.800    0.000    0.800 
#   14.400    0.000    0.000    0.000    0.000    0.000 
#    0.000    0.000    0.000    0.000    0.000    0.000 
#
# Total GULP energy -111336.641481 kJ/mol
# GULP energy per Si atom -5566.832074 kJ/mol
# Density = 2.373996 g / cm^3
# Si number density = 23.794112 Si / 1000 Ang^3
#
#
#
# Elastic Constant Matrix: (Units=GPa)
#
#
# Indices 1 2 3 4 5 6 
#
# 1 45.9108 -1.8025 -27.4829 0.0000 0.0000 0.0000
# 2 -1.8025 167.5221 23.3534 0.0000 0.0000 0.0000
# 3 -27.4829 23.3534 73.1725 0.0000 0.0000 0.0000
# 4 0.0000 0.0000 0.0000 13.1013 0.0000 0.0000
# 5 0.0000 0.0000 0.0000 0.0000 24.8581 0.0000
# 6 0.0000 0.0000 0.0000 0.0000 0.0000 34.8717
#
#
#
# Elastic Compliance Matrix: (Units=1/GPa)
#
#
# Indices 1 2 3 4 5 6 
#
# 1 0.028341 -0.001234 0.011038 0.000000 0.000000 0.000000
# 2 -0.001234 0.006301 -0.002474 0.000000 0.000000 0.000000
# 3 0.011038 -0.002474 0.018602 0.000000 0.000000 0.000000
# 4 0.000000 0.000000 0.000000 0.076328 0.000000 0.000000
# 5 0.000000 0.000000 0.000000 0.000000 0.040228 0.000000
# 6 0.000000 0.000000 0.000000 0.000000 0.000000 0.028677
#
#
# Mechanical properties :
#
#
# Convention : Reuss Voigt Hill
#
# Bulk Modulus (GPa) = 14.72681 30.52684 22.62683
# Shear Modulus (GPa) = 24.21878 34.06870 29.14374
#
# Velocity S-wave (km/s) = 3.19383 3.78803 3.50355
# Velocity P-wave (km/s) = 4.45011 5.65594 5.08887
#
# Compressibility (1/GPa) = 0.06790338
#
# Stress axis : x y z
#
# Youngs Moduli (GPa) = 35.28513 158.70408 53.75790
#
# Poissons Ratio (x) = 0.19582 -0.59339
# Poissons Ratio (y) = 0.04354 0.13302
# Poissons Ratio (z) = -0.38949 0.39270
#
# Static dielectric constant tensor:
#      x y z
#    x 2.177640 0.000000 0.000000 
#    y 0.000000 2.008400 0.000000 
#    z 0.000000 0.000000 1.851740 
# 
# From -- ./inp_files/20923.got.cif
#   From: 2010.05.17/outbox.cif.g08.bks.cpg/sg43_11_cif.got.tgz:20923.got - 2010.06.03 19:21:55.
