data_PCOD9370379
_publ_section_title
;
Structure prediction by ZEFSAII (Michael W. Deem and Ramdas Pophale) SiO2 
 PCOD9370379
Probable space group: F D D 2
;
_chemical_formula_sum "Si O2"
_cell_formula_units_Z 96
_cell_length_a 19.474963
_cell_length_b 22.730512
_cell_length_c 9.162953
_cell_angle_alpha 90.000000
_cell_angle_beta 90.000000
_cell_angle_gamma 90.000000
_cell_volume 4056.218284
_symmetry_space_group_name_H-M "F D D 2"
_symmetry_group_IT_number 43
_symmetry_cell_setting 'orthorhombic'
loop_
_space_group_symop_operation_xyz
x,y,z
-x,-y,z
1/4-x,1/4+y,1/4+z
1/4+x,1/4-y,1/4+z
x,1/2+y,1/2+z
-x,1/2-y,1/2+z
1/4-x,3/4+y,3/4+z
1/4+x,3/4-y,3/4+z
1/2+x,y,1/2+z
1/2-x,-y,1/2+z
3/4-x,1/4+y,3/4+z
3/4+x,1/4-y,3/4+z
1/2+x,1/2+y,z
1/2-x,1/2-y,z
3/4-x,3/4+y,1/4+z
3/4+x,3/4-y,1/4+z
loop_
_atom_site_type_symbol
_atom_site_label
_atom_site_fract_x
_atom_site_fract_y
_atom_site_fract_z
Si Si1 0.654894 0.746576 0.364050
Si Si2 0.904894 0.496575 0.267472
Si Si3 0.554079 0.837827 0.323640
Si Si4 0.491916 0.088398 0.769048
Si Si5 0.054079 0.162173 0.057883
Si Si6 0.491916 0.911602 0.112474
O O1 0.672068 0.750000 0.190761
O O2 0.578774 0.773251 0.368253
O O3 0.702832 0.792879 0.449925
O O4 0.671292 0.685085 0.444462
O O5 0.828774 0.523251 0.263270
O O6 0.921292 0.435085 0.187060
O O7 0.952831 0.542879 0.181597
O O8 0.500000 0.861707 0.440761
O O9 0.625000 0.875000 0.315762
O O10 0.515027 0.848328 0.172292
O O11 0.515026 0.151672 0.709230
O O12 0.500000 0.084167 0.940761
#
# Coordination Sequence:
#
# PCOD9370379 Si02
#       6
#    16  16  16  16  16  16
#     4  10  19  36  61  88 122 172 222 272 339 416
#     4  10  19  36  61  88 122 172 222 272 339 416
#     4  10  21  40  64  91 127 174 225 277 345 422
#     4  10  19  36  62  92 124 168 221 285 350 412
#     4  10  21  40  64  91 127 174 225 277 345 422
#     4  10  19  36  62  92 124 168 221 285 350 412
#
# _framework density 23.667365
#
# number of rings (size 3 to 8) (size 9 to 14) (size 15 to 20)
#    0.000    2.000    0.000    8.000    0.000    0.000 
#    0.000   26.667    0.000    0.000    0.000    0.000 
#    0.000    0.000    0.000    0.000    0.000    0.000 
#
# Total GULP energy -133738.548541 kJ/mol
# GULP energy per Si atom -5572.439523 kJ/mol
# Density = 2.361350 g / cm^3
# Si number density = 23.667365 Si / 1000 Ang^3
#
#
#
# Elastic Constant Matrix: (Units=GPa)
#
#
# Indices 1 2 3 4 5 6 
#
# 1 104.2359 51.4051 55.2327 0.0000 0.0000 0.0000
# 2 51.4051 62.8452 25.1695 0.0000 0.0000 0.0000
# 3 55.2327 25.1695 216.6429 -0.0001 0.0001 -0.0001
# 4 0.0000 0.0000 -0.0001 12.8620 0.0000 0.0000
# 5 0.0000 0.0000 0.0001 0.0000 17.4409 0.0000
# 6 0.0000 0.0000 -0.0001 0.0000 0.0000 31.5885
#
#
#
# Elastic Compliance Matrix: (Units=1/GPa)
#
#
# Indices 1 2 3 4 5 6 
#
# 1 0.017738 -0.013317 -0.002975 0.000000 0.000000 0.000000
# 2 -0.013317 0.026687 0.000295 0.000000 0.000000 0.000000
# 3 -0.002975 0.000295 0.005340 0.000000 0.000000 0.000000
# 4 0.000000 0.000000 0.000000 0.077749 0.000000 0.000000
# 5 0.000000 0.000000 0.000000 0.000000 0.057336 0.000000
# 6 0.000000 0.000000 0.000000 0.000000 0.000000 0.031657
#
#
# Mechanical properties :
#
#
# Convention : Reuss Voigt Hill
#
# Bulk Modulus (GPa) = 56.27524 71.92651 64.10088
# Shear Modulus (GPa) = 19.65217 29.17272 24.41245
#
# Velocity S-wave (km/s) = 2.88470 3.51467 3.21515
# Velocity P-wave (km/s) = 5.90970 6.85034 6.39733
#
# Compressibility (1/GPa) = 0.01776980
#
# Stress axis : x y z
#
# Youngs Moduli (GPa) = 56.37771 37.47135 187.26190
#
# Poissons Ratio (x) = 0.49901 0.55710
# Poissons Ratio (y) = 0.75079 -0.05518
# Poissons Ratio (z) = 0.16772 -0.01104
#
# Static dielectric constant tensor:
#      x y z
#    x 2.072220 0.000000 0.000000 
#    y 0.000000 2.023170 0.000000 
#    z 0.000000 0.000000 1.886370 
# 
# From -- ./inp_files/3283.got.cif
#   From: 2010.05.17/outbox.cif.g08.bks.cpg/sg43_2_cif.got.tgz:3283.got - 2010.06.03 19:21:55.
