data_PCOD9370158
_publ_section_title
;
Structure prediction by ZEFSAII (Michael W. Deem and Ramdas Pophale) SiO2 
 PCOD9370158
Probable space group: F D D 2
;
_chemical_formula_sum "Si O2"
_cell_formula_units_Z 112
_cell_length_a 30.620629
_cell_length_b 10.965991
_cell_length_c 14.196475
_cell_angle_alpha 90.000000
_cell_angle_beta 90.000000
_cell_angle_gamma 90.000000
_cell_volume 4766.971053
_symmetry_space_group_name_H-M "F D D 2"
_symmetry_group_IT_number 43
_symmetry_cell_setting 'orthorhombic'
loop_
_space_group_symop_operation_xyz
x,y,z
-x,-y,z
1/4-x,1/4+y,1/4+z
1/4+x,1/4-y,1/4+z
x,1/2+y,1/2+z
-x,1/2-y,1/2+z
1/4-x,3/4+y,3/4+z
1/4+x,3/4-y,3/4+z
1/2+x,y,1/2+z
1/2-x,-y,1/2+z
3/4-x,1/4+y,3/4+z
3/4+x,1/4-y,3/4+z
1/2+x,1/2+y,z
1/2-x,1/2-y,z
3/4-x,3/4+y,1/4+z
3/4+x,3/4-y,1/4+z
loop_
_atom_site_type_symbol
_atom_site_label
_atom_site_fract_x
_atom_site_fract_y
_atom_site_fract_z
Si Si1 0.681012 0.188525 0.934930
Si Si2 0.396858 0.502584 0.805613
Si Si3 0.736449 0.508186 0.197083
Si Si4 0.236368 0.433265 0.407066
Si Si5 0.250000 0.750000 0.576812
Si Si6 0.750000 0.750000 0.752317
Si Si7 0.175194 0.652184 0.376116
Si Si8 0.105454 0.828711 0.991658
O O1 0.716926 0.085173 0.957334
O O2 0.708427 0.312460 0.920824
O O3 0.657782 0.150188 0.836484
O O4 0.644851 0.234859 0.007008
O O5 0.449267 0.477208 0.792426
O O6 0.390765 0.571684 0.708292
O O7 0.358590 0.403345 0.801468
O O8 0.388625 0.579593 0.901987
O O9 0.753786 0.556297 0.296793
O O10 0.744243 0.620430 0.128960
O O11 0.753376 0.370876 0.188926
O O12 0.684825 0.497203 0.208191
O O13 0.208304 0.553474 0.423942
O O14 0.792119 0.754508 0.822865
#
# Coordination Sequence:
#
# PCOD9370158 Si02
#       8
#    16  16  16  16   8   8  16  16
#     4  10  18  32  55  88 119 164 212 270 323 397
#     4  11  22  36  63  96 125 161 223 280 323 387
#     4   9  19  37  62  87 119 167 210 261 325 389
#     4   9  18  32  55  81 119 160 214 256 330 391
#     4  10  21  38  68  96 127 164 228 282 314 383
#     4  10  23  42  62  88 137 176 206 260 348 411
#     4  11  23  38  62  93 128 170 214 271 330 399
#     4  10  19  32  57  88 120 154 217 273 316 384
#
# _framework density 23.495004000000002
#
# number of rings (size 3 to 8) (size 9 to 14) (size 15 to 20)
#    0.000    2.000    1.429    3.857    4.000    0.000 
#    0.000    5.714    6.286    0.000    0.000    0.000 
#    0.000    0.000    0.000    0.000    0.000    0.000 
#
# Total GULP energy -155881.162371 kJ/mol
# GULP energy per Si atom -5567.184370 kJ/mol
# Density = 2.344153 g / cm^3
# Si number density = 23.495004 Si / 1000 Ang^3
#
#
#
# Elastic Constant Matrix: (Units=GPa)
#
#
# Indices 1 2 3 4 5 6 
#
# 1 86.7862 1.9357 8.8359 0.0000 0.0000 0.0000
# 2 1.9357 57.4772 16.1730 0.0000 0.0000 0.0000
# 3 8.8359 16.1730 42.5457 0.0000 0.0000 0.0000
# 4 0.0000 0.0000 0.0000 -13.1845 0.0000 0.0000
# 5 0.0000 0.0000 0.0000 0.0000 17.4362 0.0000
# 6 0.0000 0.0000 0.0000 0.0000 0.0000 31.9046
#
#
#
# Elastic Compliance Matrix: (Units=1/GPa)
#
#
# Indices 1 2 3 4 5 6 
#
# 1 0.011777 0.000327 -0.002570 0.000000 0.000000 0.000000
# 2 0.000327 0.019491 -0.007477 0.000000 0.000000 0.000000
# 3 -0.002570 -0.007477 0.026880 0.000000 0.000000 0.000000
# 4 0.000000 0.000000 0.000000 -0.075847 0.000000 0.000000
# 5 0.000000 0.000000 0.000000 0.000000 0.057352 0.000000
# 6 0.000000 0.000000 0.000000 0.000000 0.000000 0.031343
#
#
# Mechanical properties :
#
#
# Convention : Reuss Voigt Hill
#
# Bulk Modulus (GPa) = 25.83493 26.74424 26.28959
# Shear Modulus (GPa) = 48.38381 17.88888 33.13634
#
# Velocity S-wave (km/s) = 4.54290 2.76232 3.75955
# Velocity P-wave (km/s) = 6.20782 4.64560 5.48264
#
# Compressibility (1/GPa) = 0.03870728
#
# Stress axis : x y z
#
# Youngs Moduli (GPa) = 84.91171 51.30546 37.20218
#
# Poissons Ratio (x) = -0.01675 0.09561
# Poissons Ratio (y) = -0.02773 0.27816
# Poissons Ratio (z) = 0.21822 0.38361
#
# Static dielectric constant tensor:
#      x y z
#    x 1.698100 0.000000 0.000000 
#    y 0.000000 2.056350 0.000000 
#    z 0.000000 0.000000 1.930350 
# 
# From -- ./inp_files/11694.got.cif
#   From: 2010.05.17/outbox.cif.g08.bks.cpg/sg43_6_cif.got.tgz:11694.got - 2010.06.03 19:21:55.
