data_PCOD9370820
_publ_section_title
;
Structure prediction by ZEFSAII (Michael W. Deem and Ramdas Pophale) SiO2 
 PCOD9370820
Probable space group: F D D 2
;
_chemical_formula_sum "Si O2"
_cell_formula_units_Z 120
_cell_length_a 16.133800
_cell_length_b 22.184649
_cell_length_c 14.600255
_cell_angle_alpha 90.000000
_cell_angle_beta 90.000000
_cell_angle_gamma 90.000000
_cell_volume 5225.762545
_symmetry_space_group_name_H-M "F D D 2"
_symmetry_group_IT_number 43
_symmetry_cell_setting 'orthorhombic'
loop_
_space_group_symop_operation_xyz
x,y,z
-x,-y,z
1/4-x,1/4+y,1/4+z
1/4+x,1/4-y,1/4+z
x,1/2+y,1/2+z
-x,1/2-y,1/2+z
1/4-x,3/4+y,3/4+z
1/4+x,3/4-y,3/4+z
1/2+x,y,1/2+z
1/2-x,-y,1/2+z
3/4-x,1/4+y,3/4+z
3/4+x,1/4-y,3/4+z
1/2+x,1/2+y,z
1/2-x,1/2-y,z
3/4-x,3/4+y,1/4+z
3/4+x,3/4-y,1/4+z
loop_
_atom_site_type_symbol
_atom_site_label
_atom_site_fract_x
_atom_site_fract_y
_atom_site_fract_z
Si Si1 0.984559 0.248361 0.699490
Si Si2 0.000000 0.500000 0.300667
Si Si3 0.581462 0.430848 0.936085
Si Si4 0.425936 0.045637 0.651881
Si Si5 0.677886 0.100584 0.048855
Si Si6 0.576912 0.955458 0.939280
Si Si7 0.699215 0.054781 0.628267
Si Si8 0.634039 0.230830 0.383252
O O1 0.904003 0.274304 0.649030
O O2 0.999466 0.307066 0.764359
O O3 0.078080 0.230562 0.666151
O O4 0.952009 0.196228 0.767208
O O5 0.998165 0.555081 0.372477
O O6 0.929343 0.513601 0.227668
O O7 0.599092 0.361383 0.917708
O O8 0.563224 0.441031 0.043311
O O9 0.413559 0.105677 0.711860
O O10 0.500000 0.000000 0.680587
O O11 0.345710 0.004616 0.663418
O O12 0.690259 0.145894 0.131866
O O13 0.617570 0.048169 0.087111
O O14 0.500000 0.000000 0.919510
O O15 0.578752 0.943434 0.048312
O O16 0.794652 0.047233 0.653322
#
# Coordination Sequence:
#
# PCOD9370820 Si02
#       8
#    16   8  16  16  16  16  16  16
#     4   9  23  42  64 110 139 179 257 274 361 455
#     4  12  26  48  68 100 140 188 244 286 372 446
#     4  11  24  46  71  95 145 196 230 309 357 433
#     4  11  22  40  66 105 132 176 244 281 363 425
#     4  10  22  39  69  96 140 183 221 301 347 413
#     4  10  20  40  66  99 142 182 222 295 356 415
#     4   9  22  42  65  97 138 182 235 295 349 429
#     4  10  25  43  62 106 137 181 248 277 352 449
#
# _framework density 22.963155
#
# number of rings (size 3 to 8) (size 9 to 14) (size 15 to 20)
#    0.000    2.133    1.333    1.200    3.733   11.733 
#    0.000    0.000    0.000    0.000    0.000    0.000 
#    0.000    0.000    0.000    0.000    0.000    0.000 
#
# Total GULP energy -167045.861190 kJ/mol
# GULP energy per Si atom -5568.195373 kJ/mol
# Density = 2.291089 g / cm^3
# Si number density = 22.963155 Si / 1000 Ang^3
#
#
#
# Elastic Constant Matrix: (Units=GPa)
#
#
# Indices 1 2 3 4 5 6 
#
# 1 63.8629 -19.3202 4.7823 0.0000 0.0000 0.0000
# 2 -19.3202 41.8790 17.2383 0.0000 0.0000 0.0000
# 3 4.7823 17.2383 135.6020 0.0000 0.0000 0.0000
# 4 0.0000 0.0000 0.0000 14.5672 0.0000 0.0000
# 5 0.0000 0.0000 0.0000 0.0000 16.1785 0.0000
# 6 0.0000 0.0000 0.0000 0.0000 0.0000 16.7691
#
#
#
# Elastic Compliance Matrix: (Units=1/GPa)
#
#
# Indices 1 2 3 4 5 6 
#
# 1 0.018626 0.009353 -0.001846 0.000000 0.000000 0.000000
# 2 0.009353 0.029893 -0.004130 0.000000 0.000000 0.000000
# 3 -0.001846 -0.004130 0.007965 0.000000 0.000000 0.000000
# 4 0.000000 0.000000 0.000000 0.068647 0.000000 0.000000
# 5 0.000000 0.000000 0.000000 0.000000 0.061810 0.000000
# 6 0.000000 0.000000 0.000000 0.000000 0.000000 0.059634
#
#
# Mechanical properties :
#
#
# Convention : Reuss Voigt Hill
#
# Bulk Modulus (GPa) = 15.81338 27.41607 21.61472
# Shear Modulus (GPa) = 19.16439 25.41253 22.28846
#
# Velocity S-wave (km/s) = 2.89203 3.33027 3.11885
# Velocity P-wave (km/s) = 4.24890 5.17230 4.73317
#
# Compressibility (1/GPa) = 0.06323759
#
# Stress axis : x y z
#
# Youngs Moduli (GPa) = 53.68779 33.45267 125.55504
#
# Poissons Ratio (x) = -0.31287 0.23175
# Poissons Ratio (y) = -0.50212 0.51854
# Poissons Ratio (z) = 0.09910 0.13816
#
# Static dielectric constant tensor:
#      x y z
#    x 2.004320 0.000000 0.000000 
#    y 0.000000 1.923570 0.000000 
#    z 0.000000 0.000000 1.914430 
# 
# From -- ./inp_files/11024.got.cif
#   From: 2010.05.17/outbox.cif.g08.bks.cpg/sg43_6_cif.got.tgz:11024.got - 2010.06.03 19:21:55.
