data_PCOD9370326
_publ_section_title
;
Structure prediction by ZEFSAII (Michael W. Deem and Ramdas Pophale) SiO2 
 PCOD9370326
Probable space group: F D D 2
;
_chemical_formula_sum "Si O2"
_cell_formula_units_Z 96
_cell_length_a 21.392765
_cell_length_b 10.838133
_cell_length_c 20.131263
_cell_angle_alpha 90.000000
_cell_angle_beta 90.000000
_cell_angle_gamma 90.000000
_cell_volume 4667.586975
_symmetry_space_group_name_H-M "F D D 2"
_symmetry_group_IT_number 43
_symmetry_cell_setting 'orthorhombic'
loop_
_space_group_symop_operation_xyz
x,y,z
-x,-y,z
1/4-x,1/4+y,1/4+z
1/4+x,1/4-y,1/4+z
x,1/2+y,1/2+z
-x,1/2-y,1/2+z
1/4-x,3/4+y,3/4+z
1/4+x,3/4-y,3/4+z
1/2+x,y,1/2+z
1/2-x,-y,1/2+z
3/4-x,1/4+y,3/4+z
3/4+x,1/4-y,3/4+z
1/2+x,1/2+y,z
1/2-x,1/2-y,z
3/4-x,3/4+y,1/4+z
3/4+x,3/4-y,1/4+z
loop_
_atom_site_type_symbol
_atom_site_label
_atom_site_fract_x
_atom_site_fract_y
_atom_site_fract_z
Si Si1 0.045440 0.881637 0.634780
Si Si2 0.398400 0.194769 0.827030
Si Si3 0.349389 0.744503 0.184232
Si Si4 0.720784 0.498278 0.138808
Si Si5 0.800402 0.479674 0.254902
Si Si6 0.688285 0.163918 0.526678
O O1 0.025487 0.785211 0.579082
O O2 0.049076 0.835050 0.709798
O O3 0.110936 0.939210 0.608606
O O4 0.000000 0.000000 0.634303
O O5 0.389113 0.198463 0.747928
O O6 0.470951 0.212245 0.842125
O O7 0.376245 0.076800 0.871624
O O8 0.317779 0.623239 0.155598
O O9 0.304065 0.843801 0.220985
O O10 0.753795 0.550229 0.205648
O O11 0.681438 0.593558 0.095622
O O12 0.872457 0.521531 0.259016
O O13 0.750000 0.250000 0.533243
#
# Coordination Sequence:
#
# PCOD9370326 Si02
#       6
#    16  16  16  16  16  16
#     4  10  19  33  61  90 109 153 210 248 292 362
#     4  10  19  37  63  87 122 154 214 260 294 372
#     4  10  20  37  62  89 116 167 205 250 311 371
#     4  11  22  38  59  92 123 157 201 260 312 361
#     4  10  19  38  61  83 122 159 204 252 298 375
#     4  11  22  35  60  92 122 157 201 257 312 360
#
# _framework density 20.567373
#
# number of rings (size 3 to 8) (size 9 to 14) (size 15 to 20)
#    0.000    1.667    3.333    6.000    2.333    0.000 
#    3.000    0.000    0.000    0.000    0.000    0.000 
#    0.000    0.000    0.000    0.000    0.000    0.000 
#
# Total GULP energy -133699.768675 kJ/mol
# GULP energy per Si atom -5570.823695 kJ/mol
# Density = 2.052056 g / cm^3
# Si number density = 20.567373 Si / 1000 Ang^3
#
#
#
# Elastic Constant Matrix: (Units=GPa)
#
#
# Indices 1 2 3 4 5 6 
#
# 1 30.2246 12.7288 14.8250 0.0000 0.0000 0.0000
# 2 12.7288 39.3036 44.1908 0.0000 0.0000 0.0000
# 3 14.8250 44.1908 116.2705 0.0000 0.0000 0.0000
# 4 0.0000 0.0000 0.0000 42.8025 0.0000 0.0000
# 5 0.0000 0.0000 0.0000 0.0000 30.4770 0.0000
# 6 0.0000 0.0000 0.0000 0.0000 0.0000 20.8763
#
#
#
# Elastic Compliance Matrix: (Units=1/GPa)
#
#
# Indices 1 2 3 4 5 6 
#
# 1 0.038317 -0.012077 -0.000295 0.000000 0.000000 0.000000
# 2 -0.012077 0.048235 -0.016793 0.000000 0.000000 0.000000
# 3 -0.000295 -0.016793 0.015021 0.000000 0.000000 0.000000
# 4 0.000000 0.000000 0.000000 0.023363 0.000000 0.000000
# 5 0.000000 0.000000 0.000000 0.000000 0.032812 0.000000
# 6 0.000000 0.000000 0.000000 0.000000 0.000000 0.047901
#
#
# Mechanical properties :
#
#
# Convention : Reuss Voigt Hill
#
# Bulk Modulus (GPa) = 23.12568 36.58755 29.85662
# Shear Modulus (GPa) = 17.96023 26.43476 22.19750
#
# Velocity S-wave (km/s) = 2.95827 3.58896 3.28877
# Velocity P-wave (km/s) = 4.78923 5.91625 5.38232
#
# Compressibility (1/GPa) = 0.04324197
#
# Stress axis : x y z
#
# Youngs Moduli (GPa) = 26.09832 20.73182 66.57476
#
# Poissons Ratio (x) = 0.25038 0.01967
# Poissons Ratio (y) = 0.31519 1.11797
# Poissons Ratio (z) = 0.00771 0.34814
#
# Static dielectric constant tensor:
#      x y z
#    x 1.814370 0.000000 0.000000 
#    y 0.000000 1.763500 0.000000 
#    z 0.000000 0.000000 1.809390 
# 
# From -- ./inp_files/18581.got.cif
#   From: 2010.05.17/outbox.cif.g08.bks.cpg/sg43_10_cif.got.tgz:18581.got - 2010.06.03 19:21:55.
