data_PCOD9370929
_publ_section_title
;
Structure prediction by ZEFSAII (Michael W. Deem and Ramdas Pophale) SiO2 
 PCOD9370929
Probable space group: F D D 2
;
_chemical_formula_sum "Si O2"
_cell_formula_units_Z 72
_cell_length_a 26.577216
_cell_length_b 6.552244
_cell_length_c 18.830264
_cell_angle_alpha 90.000000
_cell_angle_beta 90.000000
_cell_angle_gamma 90.000000
_cell_volume 3279.109782
_symmetry_space_group_name_H-M "F D D 2"
_symmetry_group_IT_number 43
_symmetry_cell_setting 'orthorhombic'
loop_
_space_group_symop_operation_xyz
x,y,z
-x,-y,z
1/4-x,1/4+y,1/4+z
1/4+x,1/4-y,1/4+z
x,1/2+y,1/2+z
-x,1/2-y,1/2+z
1/4-x,3/4+y,3/4+z
1/4+x,3/4-y,3/4+z
1/2+x,y,1/2+z
1/2-x,-y,1/2+z
3/4-x,1/4+y,3/4+z
3/4+x,1/4-y,3/4+z
1/2+x,1/2+y,z
1/2-x,1/2-y,z
3/4-x,3/4+y,1/4+z
3/4+x,3/4-y,1/4+z
loop_
_atom_site_type_symbol
_atom_site_label
_atom_site_fract_x
_atom_site_fract_y
_atom_site_fract_z
Si Si1 0.218459 0.429978 0.579170
Si Si2 0.944432 0.044535 0.073722
Si Si3 0.116904 0.386431 0.874756
Si Si4 0.639187 0.247503 0.531228
Si Si5 0.500000 0.500000 0.934305
O O1 0.250000 0.250000 0.541691
O O2 0.175823 0.309289 0.623074
O O3 0.187707 0.598911 0.534861
O O4 0.253439 0.555535 0.633528
O O5 0.918342 0.246144 0.103249
O O6 0.904598 0.861242 0.077687
O O7 0.000000 0.000000 0.104207
O O8 0.955314 0.053672 0.988735
O O9 0.103863 0.217822 0.816048
O O10 0.122700 0.283595 0.950834
#
# Coordination Sequence:
#
# PCOD9370929 Si02
#       5
#    16  16  16  16   8
#     4  11  22  38  65 100 131 178 226 275 337 412
#     4   9  22  40  67  98 131 175 229 276 333 405
#     4  11  24  43  67  98 138 177 224 288 346 404
#     4  11  23  42  65  98 136 178 227 287 341 409
#     4  10  20  42  70  98 122 174 228 272 324 420
#
# _framework density 21.957180000000001
#
# number of rings (size 3 to 8) (size 9 to 14) (size 15 to 20)
#    0.667    0.889    0.000    5.333    0.000    6.222 
#    0.000   11.111    0.000    0.000    0.000    0.000 
#    0.000    0.000    0.000    0.000    0.000    0.000 
#
# Total GULP energy -100426.551639 kJ/mol
# GULP energy per Si atom -5579.252869 kJ/mol
# Density = 2.190720 g / cm^3
# Si number density = 21.957180 Si / 1000 Ang^3
#
#
#
# Elastic Constant Matrix: (Units=GPa)
#
#
# Indices 1 2 3 4 5 6 
#
# 1 104.4626 35.3275 2.2740 0.0000 0.0000 0.0000
# 2 35.3275 109.3761 16.3852 -0.0001 0.0000 0.0001
# 3 2.2740 16.3852 54.8099 0.0000 0.0000 0.0000
# 4 0.0000 -0.0001 0.0000 28.2149 0.0000 0.0000
# 5 0.0000 0.0000 0.0000 0.0000 24.9488 0.0000
# 6 0.0000 0.0001 0.0000 0.0000 0.0000 48.7106
#
#
#
# Elastic Compliance Matrix: (Units=1/GPa)
#
#
# Indices 1 2 3 4 5 6 
#
# 1 0.010767 -0.003571 0.000621 0.000000 0.000000 0.000000
# 2 -0.003571 0.010755 -0.003067 0.000000 0.000000 0.000000
# 3 0.000621 -0.003067 0.019136 0.000000 0.000000 0.000000
# 4 0.000000 0.000000 0.000000 0.035442 0.000000 0.000000
# 5 0.000000 0.000000 0.000000 0.000000 0.040082 0.000000
# 6 0.000000 0.000000 0.000000 0.000000 0.000000 0.020529
#
#
# Mechanical properties :
#
#
# Convention : Reuss Voigt Hill
#
# Bulk Modulus (GPa) = 34.93541 41.84690 38.39115
# Shear Modulus (GPa) = 31.58808 34.68566 33.13687
#
# Velocity S-wave (km/s) = 3.79703 3.97885 3.88900
# Velocity P-wave (km/s) = 5.93030 6.34099 6.13908
#
# Compressibility (1/GPa) = 0.02862426
#
# Stress axis : x y z
#
# Youngs Moduli (GPa) = 92.87812 92.97571 52.25744
#
# Poissons Ratio (x) = 0.33198 -0.03244
# Poissons Ratio (y) = 0.33163 0.16028
# Poissons Ratio (z) = -0.05765 0.28517
#
# Static dielectric constant tensor:
#      x y z
#    x 1.871830 0.000000 0.000000 
#    y 0.000000 1.772930 0.000000 
#    z 0.000000 0.000000 1.748560 
# 
# From -- ./inp_files/15658.got.cif
#   From: 2010.05.17/outbox.cif.g08.bks.cpg/sg43_8_cif.got.tgz:15658.got - 2010.06.03 19:21:55.
