data_PCOD9370789
_publ_section_title
;
Structure prediction by ZEFSAII (Michael W. Deem and Ramdas Pophale) SiO2 
 PCOD9370789
Probable space group: F D D 2
;
_chemical_formula_sum "Si O2"
_cell_formula_units_Z 120
_cell_length_a 17.503532
_cell_length_b 12.223495
_cell_length_c 25.287665
_cell_angle_alpha 90.000000
_cell_angle_beta 90.000000
_cell_angle_gamma 90.000000
_cell_volume 5410.405571
_symmetry_space_group_name_H-M "F D D 2"
_symmetry_group_IT_number 43
_symmetry_cell_setting 'orthorhombic'
loop_
_space_group_symop_operation_xyz
x,y,z
-x,-y,z
1/4-x,1/4+y,1/4+z
1/4+x,1/4-y,1/4+z
x,1/2+y,1/2+z
-x,1/2-y,1/2+z
1/4-x,3/4+y,3/4+z
1/4+x,3/4-y,3/4+z
1/2+x,y,1/2+z
1/2-x,-y,1/2+z
3/4-x,1/4+y,3/4+z
3/4+x,1/4-y,3/4+z
1/2+x,1/2+y,z
1/2-x,1/2-y,z
3/4-x,3/4+y,1/4+z
3/4+x,3/4-y,1/4+z
loop_
_atom_site_type_symbol
_atom_site_label
_atom_site_fract_x
_atom_site_fract_y
_atom_site_fract_z
Si Si1 0.125514 0.326886 0.520500
Si Si2 0.071079 0.818640 0.773607
Si Si3 0.250000 0.250000 0.437462
Si Si4 0.822666 0.813249 0.619475
Si Si5 0.550582 0.182810 0.358265
Si Si6 0.828401 0.807978 0.773636
Si Si7 0.696491 0.015796 0.943519
Si Si8 0.044257 0.709678 0.480108
O O1 0.141425 0.451803 0.535963
O O2 0.178631 0.294590 0.471176
O O3 0.156685 0.251189 0.566702
O O4 0.037667 0.311196 0.505998
O O5 0.137107 0.902086 0.760452
O O6 0.019454 0.857559 0.822544
O O7 0.016577 0.794542 0.722695
O O8 0.281966 0.367647 0.416511
O O9 0.750000 0.750000 0.644861
O O10 0.900896 0.807628 0.652195
O O11 0.798289 0.935152 0.606599
O O12 0.627005 0.152344 0.326074
O O13 0.545705 0.161375 0.420494
O O14 0.750000 0.750000 0.787888
O O15 0.884616 0.725333 0.741680
O O16 0.810398 0.910905 0.735705
#
# Coordination Sequence:
#
# PCOD9370789 Si02
#       8
#    16  16   8  16  16  16  16  16
#     4  11  22  42  67  95 138 184 229 295 351 427
#     4  10  24  48  63  99 146 182 230 290 359 438
#     4  10  20  40  62  98 136 174 226 300 350 392
#     4  12  21  41  72 102 133 181 234 300 360 416
#     4  11  25  45  70 101 140 189 233 303 360 425
#     4  11  23  44  70 105 137 179 247 294 349 433
#     4  10  22  38  68 100 139 177 229 293 353 422
#     4  12  26  45  72 100 143 195 236 291 361 442
#
# _framework density 22.179483000000001
#
# number of rings (size 3 to 8) (size 9 to 14) (size 15 to 20)
#    0.000    1.067    3.333    4.000    1.867    4.267 
#   12.000    0.000    0.000    0.000    0.000    0.000 
#    0.000    0.000    0.000    0.000    0.000    0.000 
#
# Total GULP energy -167642.867826 kJ/mol
# GULP energy per Si atom -5588.095594 kJ/mol
# Density = 2.212900 g / cm^3
# Si number density = 22.179483 Si / 1000 Ang^3
#
#
#
# Elastic Constant Matrix: (Units=GPa)
#
#
# Indices 1 2 3 4 5 6 
#
# 1 152.6331 34.2083 20.4395 0.0000 0.0000 0.0000
# 2 34.2083 32.3591 0.3990 0.0000 0.0000 0.0000
# 3 20.4395 0.3990 43.8639 0.0000 0.0000 0.0000
# 4 0.0000 0.0000 0.0000 32.7568 0.0000 0.0000
# 5 0.0000 0.0000 0.0000 0.0000 26.5627 0.0000
# 6 0.0000 0.0000 0.0000 0.0000 0.0000 30.6566
#
#
#
# Elastic Compliance Matrix: (Units=1/GPa)
#
#
# Indices 1 2 3 4 5 6 
#
# 1 0.009317 -0.009797 -0.004252 0.000000 0.000000 0.000000
# 2 -0.009797 0.041208 0.004190 0.000000 0.000000 0.000000
# 3 -0.004252 0.004190 0.024741 0.000000 0.000000 0.000000
# 4 0.000000 0.000000 0.000000 0.030528 0.000000 0.000000
# 5 0.000000 0.000000 0.000000 0.000000 0.037647 0.000000
# 6 0.000000 0.000000 0.000000 0.000000 0.000000 0.032619
#
#
# Mechanical properties :
#
#
# Convention : Reuss Voigt Hill
#
# Bulk Modulus (GPa) = 18.00234 37.66110 27.83172
# Shear Modulus (GPa) = 23.33246 29.58252 26.45749
#
# Velocity S-wave (km/s) = 3.24695 3.65606 3.45756
# Velocity P-wave (km/s) = 4.71075 5.90249 5.33997
#
# Compressibility (1/GPa) = 0.05554834
#
# Stress axis : x y z
#
# Youngs Moduli (GPa) = 107.33356 24.26709 40.41853
#
# Poissons Ratio (x) = 0.23774 0.17187
# Poissons Ratio (y) = 1.05152 -0.16936
# Poissons Ratio (z) = 0.45641 -0.10168
#
# Static dielectric constant tensor:
#      x y z
#    x 1.780690 0.000000 0.000000 
#    y 0.000000 1.747030 0.000000 
#    z 0.000000 0.000000 1.858890 
# 
# From -- ./inp_files/26058.got.cif
#   From: 2010.05.17/outbox.cif.g08.bks.cpg/sg43_14_cif.got.tgz:26058.got - 2010.06.03 19:21:55.
