data_PCOD9370361
_publ_section_title
;
Structure prediction by ZEFSAII (Michael W. Deem and Ramdas Pophale) SiO2 
 PCOD9370361
Probable space group: F D D 2
;
_chemical_formula_sum "Si O2"
_cell_formula_units_Z 112
_cell_length_a 12.746074
_cell_length_b 13.995416
_cell_length_c 28.551577
_cell_angle_alpha 90.000000
_cell_angle_beta 90.000000
_cell_angle_gamma 90.000000
_cell_volume 5093.218974
_symmetry_space_group_name_H-M "F D D 2"
_symmetry_group_IT_number 43
_symmetry_cell_setting 'orthorhombic'
loop_
_space_group_symop_operation_xyz
x,y,z
-x,-y,z
1/4-x,1/4+y,1/4+z
1/4+x,1/4-y,1/4+z
x,1/2+y,1/2+z
-x,1/2-y,1/2+z
1/4-x,3/4+y,3/4+z
1/4+x,3/4-y,3/4+z
1/2+x,y,1/2+z
1/2-x,-y,1/2+z
3/4-x,1/4+y,3/4+z
3/4+x,1/4-y,3/4+z
1/2+x,1/2+y,z
1/2-x,1/2-y,z
3/4-x,3/4+y,1/4+z
3/4+x,3/4-y,1/4+z
loop_
_atom_site_type_symbol
_atom_site_label
_atom_site_fract_x
_atom_site_fract_y
_atom_site_fract_z
Si Si1 0.341208 0.683497 0.747410
Si Si2 0.869573 0.733290 0.970526
Si Si3 0.251002 0.964586 0.355841
Si Si4 0.847197 0.177821 0.289776
Si Si5 0.071803 0.220157 0.708281
Si Si6 0.087079 0.572440 0.605826
Si Si7 0.322631 0.552418 0.620127
O O1 0.250000 0.750000 0.727590
O O2 0.316745 0.570524 0.742613
O O3 0.450103 0.702843 0.721236
O O4 0.354759 0.707589 0.801801
O O5 0.750000 0.750000 0.987240
O O6 0.887259 0.621341 0.977899
O O7 0.877260 0.751699 0.915170
O O8 0.187041 0.922592 0.311776
O O9 0.178198 0.965275 0.402393
O O10 0.352617 0.894180 0.361067
O O11 0.291152 0.071709 0.352930
O O12 0.750000 0.250000 0.293946
O O13 0.890012 0.187848 0.237055
O O14 0.925151 0.229274 0.326645
O O15 0.201083 0.575453 0.629617
O O16 0.000000 0.500000 0.626336
#
# Coordination Sequence:
#
# PCOD9370361 Si02
#       7
#    16  16  16  16  16  16  16
#     4  10  22  37  61  92 129 174 224 281 333 402
#     4  10  19  35  63 101 130 164 217 294 344 399
#     4  11  23  41  70 101 133 178 236 290 345 420
#     4  10  22  40  65 101 137 173 225 290 354 417
#     4  11  21  40  67 100 138 171 229 286 353 414
#     4  11  26  44  62  94 139 182 231 283 349 420
#     4  11  19  39  69  98 130 174 229 287 342 406
#
# _framework density 21.990022
#
# number of rings (size 3 to 8) (size 9 to 14) (size 15 to 20)
#    0.000    1.429    5.714    0.857    6.000    1.143 
#    2.571    0.714    0.000    0.000    0.000    0.000 
#    0.000    0.000    0.000    0.000    0.000    0.000 
#
# Total GULP energy -156258.355406 kJ/mol
# GULP energy per Si atom -5580.655550 kJ/mol
# Density = 2.193997 g / cm^3
# Si number density = 21.990022 Si / 1000 Ang^3
#
#
#
# Elastic Constant Matrix: (Units=GPa)
#
#
# Indices 1 2 3 4 5 6 
#
# 1 75.3471 61.7809 20.3208 0.0000 0.0000 0.0000
# 2 61.7809 116.8465 12.6755 0.0000 0.0000 0.0000
# 3 20.3208 12.6755 49.3786 0.0000 0.0000 0.0000
# 4 0.0000 0.0000 0.0000 25.7485 0.0000 0.0000
# 5 0.0000 0.0000 0.0000 0.0000 21.6055 0.0000
# 6 0.0000 0.0000 0.0000 0.0000 0.0000 35.7573
#
#
#
# Elastic Compliance Matrix: (Units=1/GPa)
#
#
# Indices 1 2 3 4 5 6 
#
# 1 0.025761 -0.012828 -0.007309 0.000000 0.000000 0.000000
# 2 -0.012828 0.015191 0.001380 0.000000 0.000000 0.000000
# 3 -0.007309 0.001380 0.022905 0.000000 0.000000 0.000000
# 4 0.000000 0.000000 0.000000 0.038837 0.000000 0.000000
# 5 0.000000 0.000000 0.000000 0.000000 0.046284 0.000000
# 6 0.000000 0.000000 0.000000 0.000000 0.000000 0.027966
#
#
# Mechanical properties :
#
#
# Convention : Reuss Voigt Hill
#
# Bulk Modulus (GPa) = 37.95989 47.90295 42.93142
# Shear Modulus (GPa) = 22.39726 26.40861 24.40294
#
# Velocity S-wave (km/s) = 3.19489 3.46921 3.33487
# Velocity P-wave (km/s) = 5.55963 6.15455 5.86464
#
# Compressibility (1/GPa) = 0.02634359
#
# Stress axis : x y z
#
# Youngs Moduli (GPa) = 38.81766 65.82724 43.65803
#
# Poissons Ratio (x) = 0.84444 0.31908
# Poissons Ratio (y) = 0.49796 -0.06023
# Poissons Ratio (z) = 0.28370 -0.09081
#
# Static dielectric constant tensor:
#      x y z
#    x 1.833130 0.000000 0.000000 
#    y 0.000000 1.815870 0.000000 
#    z 0.000000 0.000000 1.877780 
# 
# From -- ./inp_files/28613.got.cif
#   From: 2010.05.17/outbox.cif.g08.bks.cpg/sg43_15_cif.got.tgz:28613.got - 2010.06.03 19:21:55.
