data_PCOD9370968
_publ_section_title
;
Structure prediction by ZEFSAII (Michael W. Deem and Ramdas Pophale) SiO2 
 PCOD9370968
Probable space group: F D D 2
;
_chemical_formula_sum "Si O2"
_cell_formula_units_Z 120
_cell_length_a 25.860058
_cell_length_b 18.999908
_cell_length_c 10.776016
_cell_angle_alpha 90.000000
_cell_angle_beta 90.000000
_cell_angle_gamma 90.000000
_cell_volume 5294.673939
_symmetry_space_group_name_H-M "F D D 2"
_symmetry_group_IT_number 43
_symmetry_cell_setting 'orthorhombic'
loop_
_space_group_symop_operation_xyz
x,y,z
-x,-y,z
1/4-x,1/4+y,1/4+z
1/4+x,1/4-y,1/4+z
x,1/2+y,1/2+z
-x,1/2-y,1/2+z
1/4-x,3/4+y,3/4+z
1/4+x,3/4-y,3/4+z
1/2+x,y,1/2+z
1/2-x,-y,1/2+z
3/4-x,1/4+y,3/4+z
3/4+x,1/4-y,3/4+z
1/2+x,1/2+y,z
1/2-x,1/2-y,z
3/4-x,3/4+y,1/4+z
3/4+x,3/4-y,1/4+z
loop_
_atom_site_type_symbol
_atom_site_label
_atom_site_fract_x
_atom_site_fract_y
_atom_site_fract_z
Si Si1 0.902990 0.672122 0.233060
Si Si2 0.250000 0.250000 0.172444
Si Si3 0.432438 0.166961 0.686985
Si Si4 0.830498 0.738200 0.774863
Si Si5 0.853843 0.821971 0.226688
Si Si6 0.488111 0.800422 0.116722
Si Si7 0.179823 0.839274 0.516721
Si Si8 0.236909 0.646514 0.163386
O O1 0.892259 0.756600 0.248879
O O2 0.892258 0.618668 0.349085
O O3 0.962550 0.673589 0.193870
O O4 0.865651 0.652851 0.116482
O O5 0.200823 0.218655 0.239511
O O6 0.229071 0.316195 0.095635
O O7 0.389076 0.214145 0.754731
O O8 0.397984 0.126373 0.587826
O O9 0.473335 0.219752 0.626057
O O10 0.465146 0.116239 0.776859
O O11 0.824635 0.726258 0.921765
O O12 0.809818 0.813958 0.734291
O O13 0.788948 0.690492 0.695784
O O14 0.441170 0.846177 0.175117
O O15 0.501023 0.821969 0.976555
#
# Coordination Sequence:
#
# PCOD9370968 Si02
#       8
#    16   8  16  16  16  16  16  16
#     4  11  26  46  74 110 150 196 253 320 384 469
#     4  10  20  44  70 102 136 188 240 298 370 446
#     4  12  29  43  75 101 150 195 247 313 387 465
#     4  10  24  45  73 104 143 189 245 303 385 457
#     4  11  28  46  74 106 151 200 253 315 392 468
#     4  11  25  42  74 106 144 179 258 308 376 454
#     4  10  21  43  76 104 143 185 244 309 373 446
#     4  10  25  46  71 105 141 191 244 311 373 463
#
# _framework density 22.664283999999999
#
# number of rings (size 3 to 8) (size 9 to 14) (size 15 to 20)
#    0.000    1.333    1.333    2.400   13.067    4.267 
#    0.000    0.000    0.000    0.000    0.000    0.000 
#    0.000    0.000    0.000    0.000    0.000    0.000 
#
# Total GULP energy -167323.814547 kJ/mol
# GULP energy per Si atom -5577.460485 kJ/mol
# Density = 2.261270 g / cm^3
# Si number density = 22.664284 Si / 1000 Ang^3
#
#
#
# Elastic Constant Matrix: (Units=GPa)
#
#
# Indices 1 2 3 4 5 6 
#
# 1 69.6565 3.5738 11.9173 0.0000 0.0000 0.0000
# 2 3.5738 76.5151 28.0729 0.0000 0.0000 0.0000
# 3 11.9173 28.0729 78.5573 0.0000 0.0000 0.0000
# 4 0.0000 0.0000 0.0000 55.3143 0.0000 0.0000
# 5 0.0000 0.0000 0.0000 0.0000 52.9064 0.0000
# 6 0.0000 0.0000 0.0000 0.0000 0.0000 31.7928
#
#
#
# Elastic Compliance Matrix: (Units=1/GPa)
#
#
# Indices 1 2 3 4 5 6 
#
# 1 0.014740 0.000152 -0.002290 0.000000 0.000000 0.000000
# 2 0.000152 0.015043 -0.005399 0.000000 0.000000 0.000000
# 3 -0.002290 -0.005399 0.015006 0.000000 0.000000 0.000000
# 4 0.000000 0.000000 0.000000 0.018079 0.000000 0.000000
# 5 0.000000 0.000000 0.000000 0.000000 0.018901 0.000000
# 6 0.000000 0.000000 0.000000 0.000000 0.000000 0.031454
#
#
# Mechanical properties :
#
#
# Convention : Reuss Voigt Hill
#
# Bulk Modulus (GPa) = 33.65309 34.65078 34.15193
# Shear Modulus (GPa) = 36.17881 40.08036 38.12959
#
# Velocity S-wave (km/s) = 3.99970 4.20984 4.10611
# Velocity P-wave (km/s) = 6.01754 6.24117 6.13038
#
# Compressibility (1/GPa) = 0.02971495
#
# Stress axis : x y z
#
# Youngs Moduli (GPa) = 67.84159 66.47622 66.63878
#
# Poissons Ratio (x) = -0.01009 0.15263
# Poissons Ratio (y) = -0.01030 0.35976
# Poissons Ratio (z) = 0.15538 0.35889
#
# Static dielectric constant tensor:
#      x y z
#    x 1.803360 0.000000 0.000000 
#    y 0.000000 1.947930 0.000000 
#    z 0.000000 0.000000 1.842850 
# 
# From -- ./inp_files/7965.got.cif
#   From: 2010.05.17/outbox.cif.g08.bks.cpg/sg43_4_cif.got.tgz:7965.got - 2010.06.03 19:21:55.
