data_PCOD9370887
_publ_section_title
;
Structure prediction by ZEFSAII (Michael W. Deem and Ramdas Pophale) SiO2 
 PCOD9370887
Probable space group: F D D 2
;
_chemical_formula_sum "Si O2"
_cell_formula_units_Z 104
_cell_length_a 23.603305
_cell_length_b 7.608355
_cell_length_c 26.920463
_cell_angle_alpha 90.000000
_cell_angle_beta 90.000000
_cell_angle_gamma 90.000000
_cell_volume 4834.439298
_symmetry_space_group_name_H-M "F D D 2"
_symmetry_group_IT_number 43
_symmetry_cell_setting 'orthorhombic'
loop_
_space_group_symop_operation_xyz
x,y,z
-x,-y,z
1/4-x,1/4+y,1/4+z
1/4+x,1/4-y,1/4+z
x,1/2+y,1/2+z
-x,1/2-y,1/2+z
1/4-x,3/4+y,3/4+z
1/4+x,3/4-y,3/4+z
1/2+x,y,1/2+z
1/2-x,-y,1/2+z
3/4-x,1/4+y,3/4+z
3/4+x,1/4-y,3/4+z
1/2+x,1/2+y,z
1/2-x,1/2-y,z
3/4-x,3/4+y,1/4+z
3/4+x,3/4-y,1/4+z
loop_
_atom_site_type_symbol
_atom_site_label
_atom_site_fract_x
_atom_site_fract_y
_atom_site_fract_z
Si Si1 0.329191 0.050503 0.456820
Si Si2 0.102651 0.077288 0.801241
Si Si3 0.326594 0.378794 0.616642
Si Si4 0.750000 0.250000 0.034848
Si Si5 0.000000 0.500000 0.229730
Si Si6 0.817506 0.026980 0.722988
Si Si7 0.750000 0.750000 0.290289
Si Si8 0.359493 0.260279 0.358234
O O1 0.299675 0.165043 0.500978
O O2 0.340898 0.175138 0.410362
O O3 0.281713 0.899291 0.448205
O O4 0.387313 0.941376 0.467923
O O5 0.114308 0.214238 0.845010
O O6 0.047319 0.078570 0.766402
O O7 0.151374 0.102160 0.760684
O O8 0.104972 0.886343 0.827769
O O9 0.278155 0.379471 0.574852
O O10 0.306478 0.438732 0.670484
O O11 0.356861 0.190828 0.616481
O O12 0.763430 0.093095 0.752506
O O13 0.696283 0.712358 0.324815
#
# Coordination Sequence:
#
# PCOD9370887 Si02
#       8
#    16  16  16   8   8  16   8  16
#     4  11  23  42  71 103 137 178 225 290 337 404
#     4  10  22  45  67  99 138 176 223 284 338 407
#     4  12  25  44  70 101 136 181 226 282 346 414
#     4  12  25  42  68 111 129 174 241 278 338 406
#     4  10  20  41  72  97 137 176 227 288 338 396
#     4  10  24  45  69  99 136 183 226 275 351 400
#     4  10  23  47  66  94 138 186 216 282 338 400
#     4  11  25  45  70  99 141 181 226 279 348 403
#
# _framework density 21.512318
#
# number of rings (size 3 to 8) (size 9 to 14) (size 15 to 20)
#    0.000    1.231    3.077    3.231    2.154    4.308 
#    2.769    1.538    0.000    0.000    0.000    0.000 
#    0.000    0.000    0.000    0.000    0.000    0.000 
#
# Total GULP energy -145080.794827 kJ/mol
# GULP energy per Si atom -5580.030570 kJ/mol
# Density = 2.146336 g / cm^3
# Si number density = 21.512318 Si / 1000 Ang^3
#
#
#
# Elastic Constant Matrix: (Units=GPa)
#
#
# Indices 1 2 3 4 5 6 
#
# 1 37.1063 17.2285 14.6171 0.0000 0.0000 -0.0002
# 2 17.2285 74.9873 36.3764 0.0000 -0.0001 -0.0001
# 3 14.6171 36.3764 140.2810 0.0000 0.0000 0.0000
# 4 0.0000 0.0000 0.0000 41.6789 0.0000 0.0000
# 5 0.0000 -0.0001 0.0000 0.0000 23.7894 0.0000
# 6 -0.0002 -0.0001 0.0000 0.0000 0.0000 19.5648
#
#
#
# Elastic Compliance Matrix: (Units=1/GPa)
#
#
# Indices 1 2 3 4 5 6 
#
# 1 0.030461 -0.006244 -0.001555 0.000000 0.000000 0.000000
# 2 -0.006244 0.016535 -0.003637 0.000000 0.000000 0.000000
# 3 -0.001555 -0.003637 0.008234 0.000000 0.000000 0.000000
# 4 0.000000 0.000000 0.000000 0.023993 0.000000 0.000000
# 5 0.000000 0.000000 0.000000 0.000000 0.042036 0.000000
# 6 0.000000 0.000000 0.000000 0.000000 0.000000 0.051112
#
#
# Mechanical properties :
#
#
# Convention : Reuss Voigt Hill
#
# Bulk Modulus (GPa) = 30.90483 43.20205 37.05344
# Shear Modulus (GPa) = 24.26853 29.28346 26.77600
#
# Velocity S-wave (km/s) = 3.36240 3.69350 3.53183
# Velocity P-wave (km/s) = 5.42877 6.18994 5.82181
#
# Compressibility (1/GPa) = 0.03235740
#
# Stress axis : x y z
#
# Youngs Moduli (GPa) = 32.82849 60.47956 121.45272
#
# Poissons Ratio (x) = 0.37765 0.18884
# Poissons Ratio (y) = 0.20499 0.44171
# Poissons Ratio (z) = 0.05104 0.21996
#
# Static dielectric constant tensor:
#      x y z
#    x 1.972070 0.000000 0.000000 
#    y 0.000000 2.041220 0.000000 
#    z 0.000000 0.000000 1.762440 
# 
# From -- ./inp_files/22807.got.cif
#   From: 2010.05.17/outbox.cif.g08.bks.cpg/sg43_12_cif.got.tgz:22807.got - 2010.06.03 19:21:55.
