data_PCOD9370316
_publ_section_title
;
Structure prediction by ZEFSAII (Michael W. Deem and Ramdas Pophale) SiO2 
 PCOD9370316
Probable space group: F D D 2
;
_chemical_formula_sum "Si O2"
_cell_formula_units_Z 96
_cell_length_a 10.370562
_cell_length_b 15.135468
_cell_length_c 25.656503
_cell_angle_alpha 90.000000
_cell_angle_beta 90.000000
_cell_angle_gamma 90.000000
_cell_volume 4027.129616
_symmetry_space_group_name_H-M "F D D 2"
_symmetry_group_IT_number 43
_symmetry_cell_setting 'orthorhombic'
loop_
_space_group_symop_operation_xyz
x,y,z
-x,-y,z
1/4-x,1/4+y,1/4+z
1/4+x,1/4-y,1/4+z
x,1/2+y,1/2+z
-x,1/2-y,1/2+z
1/4-x,3/4+y,3/4+z
1/4+x,3/4-y,3/4+z
1/2+x,y,1/2+z
1/2-x,-y,1/2+z
3/4-x,1/4+y,3/4+z
3/4+x,1/4-y,3/4+z
1/2+x,1/2+y,z
1/2-x,1/2-y,z
3/4-x,3/4+y,1/4+z
3/4+x,3/4-y,1/4+z
loop_
_atom_site_type_symbol
_atom_site_label
_atom_site_fract_x
_atom_site_fract_y
_atom_site_fract_z
Si Si1 0.351576 0.814486 0.209860
Si Si2 0.290766 0.382215 0.873046
Si Si3 0.119045 0.706417 0.554879
Si Si4 0.805497 0.465680 0.617498
Si Si5 0.814622 0.918760 0.543504
Si Si6 0.339119 0.021604 0.731208
O O1 0.250000 0.750000 0.180088
O O2 0.469339 0.847820 0.176318
O O3 0.402497 0.753735 0.257384
O O4 0.266933 0.898702 0.224311
O O5 0.343719 0.474165 0.851154
O O6 0.407377 0.314349 0.878053
O O7 0.185893 0.351644 0.830764
O O8 0.250000 0.750000 0.529840
O O9 0.139570 0.612140 0.581644
O O10 0.994780 0.707021 0.517579
O O11 0.798923 0.553663 0.582418
O O12 0.863425 0.482599 0.674138
O O13 0.798639 0.831639 0.508086
#
# Coordination Sequence:
#
# PCOD9370316 Si02
#       6
#    16  16  16  16  16  16
#     4  10  19  32  56  82 115 148 199 240 288 335
#     4  10  19  34  55  82 118 155 188 237 292 341
#     4   9  20  34  52  86 122 148 191 240 287 346
#     4  11  20  32  58  88 121 149 191 236 295 344
#     4  10  20  35  53  89 116 146 198 244 274 354
#     4  10  20  32  56  86 117 148 195 237 293 337
#
# _framework density 23.83832
#
# number of rings (size 3 to 8) (size 9 to 14) (size 15 to 20)
#    0.000    2.000    1.667    5.500    4.667    0.000 
#    0.000    0.000    7.333    3.000    0.000    0.000 
#    0.000    0.000    0.000    0.000    0.000    0.000 
#
# Total GULP energy -134209.785531 kJ/mol
# GULP energy per Si atom -5592.074397 kJ/mol
# Density = 2.378406 g / cm^3
# Si number density = 23.838320 Si / 1000 Ang^3
#
#
#
# Elastic Constant Matrix: (Units=GPa)
#
#
# Indices 1 2 3 4 5 6 
#
# 1 62.4344 25.5820 38.9269 0.0000 0.0000 0.0000
# 2 25.5820 108.2399 54.8351 0.0000 0.0000 0.0000
# 3 38.9269 54.8351 124.0793 0.0000 0.0000 0.0000
# 4 0.0000 0.0000 0.0000 18.4510 0.0000 0.0000
# 5 0.0000 0.0000 0.0000 0.0000 14.3272 0.0000
# 6 0.0000 0.0000 0.0000 0.0000 0.0000 25.4560
#
#
#
# Elastic Compliance Matrix: (Units=1/GPa)
#
#
# Indices 1 2 3 4 5 6 
#
# 1 0.020249 -0.002020 -0.005460 0.000000 0.000000 0.000000
# 2 -0.002020 0.012105 -0.004716 0.000000 0.000000 0.000000
# 3 -0.005460 -0.004716 0.011857 0.000000 0.000000 0.000000
# 4 0.000000 0.000000 0.000000 0.054198 0.000000 0.000000
# 5 0.000000 0.000000 0.000000 0.000000 0.069797 0.000000
# 6 0.000000 0.000000 0.000000 0.000000 0.000000 0.039283
#
#
# Mechanical properties :
#
#
# Convention : Reuss Voigt Hill
#
# Bulk Modulus (GPa) = 50.45684 59.27129 54.86406
# Shear Modulus (GPa) = 20.96554 23.34081 22.15317
#
# Velocity S-wave (km/s) = 2.96883 3.13250 3.05176
# Velocity P-wave (km/s) = 5.74145 6.16452 5.95674
#
# Compressibility (1/GPa) = 0.01981892
#
# Stress axis : x y z
#
# Youngs Moduli (GPa) = 49.38633 82.60848 84.34171
#
# Poissons Ratio (x) = 0.16684 0.46050
# Poissons Ratio (y) = 0.09974 0.39777
# Poissons Ratio (z) = 0.26965 0.38959
#
# Static dielectric constant tensor:
#      x y z
#    x 1.992100 0.000000 0.000000 
#    y 0.000000 1.925300 0.000000 
#    z 0.000000 0.000000 1.925070 
# 
# From -- ./inp_files/21087.got.cif
#   From: 2010.05.17/outbox.cif.g08.bks.cpg/sg43_11_cif.got.tgz:21087.got - 2010.06.03 19:21:55.
