data_PCOD9370408
_publ_section_title
;
Structure prediction by ZEFSAII (Michael W. Deem and Ramdas Pophale) SiO2 
 PCOD9370408
Probable space group: F D D 2
;
_chemical_formula_sum "Si O2"
_cell_formula_units_Z 104
_cell_length_a 28.736940
_cell_length_b 18.974892
_cell_length_c 8.044219
_cell_angle_alpha 90.000000
_cell_angle_beta 90.000000
_cell_angle_gamma 90.000000
_cell_volume 4386.354414
_symmetry_space_group_name_H-M "F D D 2"
_symmetry_group_IT_number 43
_symmetry_cell_setting 'orthorhombic'
loop_
_space_group_symop_operation_xyz
x,y,z
-x,-y,z
1/4-x,1/4+y,1/4+z
1/4+x,1/4-y,1/4+z
x,1/2+y,1/2+z
-x,1/2-y,1/2+z
1/4-x,3/4+y,3/4+z
1/4+x,3/4-y,3/4+z
1/2+x,y,1/2+z
1/2-x,-y,1/2+z
3/4-x,1/4+y,3/4+z
3/4+x,1/4-y,3/4+z
1/2+x,1/2+y,z
1/2-x,1/2-y,z
3/4-x,3/4+y,1/4+z
3/4+x,3/4-y,1/4+z
loop_
_atom_site_type_symbol
_atom_site_label
_atom_site_fract_x
_atom_site_fract_y
_atom_site_fract_z
Si Si1 0.500000 0.000000 0.084810
Si Si2 0.198913 0.377016 0.704146
Si Si3 0.082653 0.814590 0.054997
Si Si4 0.670107 0.182773 0.535956
Si Si5 0.402397 0.265417 0.243862
Si Si6 0.983116 0.246103 0.520642
Si Si7 0.093946 0.197436 0.781876
O O1 0.468599 0.047760 0.205763
O O2 0.534113 0.047869 0.974344
O O3 0.168256 0.404849 0.548586
O O4 0.246096 0.424312 0.696948
O O5 0.172324 0.402815 0.871608
O O6 0.076707 0.887683 0.956179
O O7 0.109967 0.770608 0.914602
O O8 0.029254 0.788210 0.069327
O O9 0.104334 0.779069 0.221147
O O10 0.637614 0.244652 0.610555
O O11 0.636007 0.161679 0.382903
O O12 0.449836 0.230328 0.176578
O O13 0.950273 0.292464 0.402814
#
# Coordination Sequence:
#
# PCOD9370408 Si02
#       7
#     8  16  16  16  16  16  16
#     4  12  26  38  58 100 138 168 210 290 352 386
#     4  10  20  39  63  90 130 159 218 270 340 396
#     4  10  19  37  62  88 121 161 223 262 326 387
#     4  11  24  38  61  89 133 171 213 275 338 391
#     4   9  20  38  63  89 116 172 218 264 309 417
#     4   9  16  37  67  91 113 162 226 263 310 395
#     4   9  20  38  67  90 118 175 221 270 317 412
#
# _framework density 23.709896000000001
#
# number of rings (size 3 to 8) (size 9 to 14) (size 15 to 20)
#    0.000    2.462    0.000    5.538    4.308    0.000 
#    0.000    3.077    0.000    5.538    0.000    0.000 
#    0.000    0.000    0.000    0.000    0.000    0.000 
#
# Total GULP energy -144792.501835 kJ/mol
# GULP energy per Si atom -5568.942378 kJ/mol
# Density = 2.365593 g / cm^3
# Si number density = 23.709896 Si / 1000 Ang^3
#
#
#
# Elastic Constant Matrix: (Units=GPa)
#
#
# Indices 1 2 3 4 5 6 
#
# 1 80.3797 10.8127 15.7049 0.0000 0.0000 0.0000
# 2 10.8127 64.5067 -3.4886 0.0001 0.0000 0.0000
# 3 15.7049 -3.4886 57.7369 0.0004 0.0000 0.0000
# 4 0.0000 0.0001 0.0004 32.2686 0.0000 0.0000
# 5 0.0000 0.0000 0.0000 0.0000 31.8724 0.0000
# 6 0.0000 0.0000 0.0000 0.0000 0.0000 14.9200
#
#
#
# Elastic Compliance Matrix: (Units=1/GPa)
#
#
# Indices 1 2 3 4 5 6 
#
# 1 0.013521 -0.002473 -0.003827 0.000000 0.000000 0.000000
# 2 -0.002473 0.016006 0.001640 0.000000 0.000000 0.000000
# 3 -0.003827 0.001640 0.018460 0.000000 0.000000 0.000000
# 4 0.000000 0.000000 0.000000 0.030990 0.000000 0.000000
# 5 0.000000 0.000000 0.000000 0.000000 0.031375 0.000000
# 6 0.000000 0.000000 0.000000 0.000000 0.000000 0.067024
#
#
# Mechanical properties :
#
#
# Convention : Reuss Voigt Hill
#
# Bulk Modulus (GPa) = 25.86307 27.63127 26.74717
# Shear Modulus (GPa) = 25.05177 27.78515 26.41846
#
# Velocity S-wave (km/s) = 3.25406 3.42699 3.34164
# Velocity P-wave (km/s) = 5.00503 5.22859 5.11803
#
# Compressibility (1/GPa) = 0.03866516
#
# Stress axis : x y z
#
# Youngs Moduli (GPa) = 73.95633 62.47830 54.17090
#
# Poissons Ratio (x) = 0.15454 0.20733
# Poissons Ratio (y) = 0.18293 -0.08883
# Poissons Ratio (z) = 0.28306 -0.10246
#
# Static dielectric constant tensor:
#      x y z
#    x 1.906610 0.000000 0.000000 
#    y 0.000000 2.117510 0.000000 
#    z 0.000000 0.000000 1.952600 
# 
# From -- ./inp_files/4765.got.cif
#   From: 2010.05.17/outbox.cif.g08.bks.cpg/sg43_3_cif.got.tgz:4765.got - 2010.06.03 19:21:55.
