data_PCOD9370565
_publ_section_title
;
Structure prediction by ZEFSAII (Michael W. Deem and Ramdas Pophale) SiO2 
 PCOD9370565
Probable space group: F D D 2
;
_chemical_formula_sum "Si O2"
_cell_formula_units_Z 120
_cell_length_a 26.840803
_cell_length_b 26.840827
_cell_length_c 8.925569
_cell_angle_alpha 90.000000
_cell_angle_beta 90.000000
_cell_angle_gamma 90.000000
_cell_volume 6430.241872
_symmetry_space_group_name_H-M "F D D 2"
_symmetry_group_IT_number 43
_symmetry_cell_setting 'orthorhombic'
loop_
_space_group_symop_operation_xyz
x,y,z
-x,-y,z
1/4-x,1/4+y,1/4+z
1/4+x,1/4-y,1/4+z
x,1/2+y,1/2+z
-x,1/2-y,1/2+z
1/4-x,3/4+y,3/4+z
1/4+x,3/4-y,3/4+z
1/2+x,y,1/2+z
1/2-x,-y,1/2+z
3/4-x,1/4+y,3/4+z
3/4+x,1/4-y,3/4+z
1/2+x,1/2+y,z
1/2-x,1/2-y,z
3/4-x,3/4+y,1/4+z
3/4+x,3/4-y,1/4+z
loop_
_atom_site_type_symbol
_atom_site_label
_atom_site_fract_x
_atom_site_fract_y
_atom_site_fract_z
Si Si1 0.583768 0.666232 0.844910
Si Si2 0.114074 0.394231 0.391133
Si Si3 0.982550 0.157301 0.033674
Si Si4 0.458559 0.398626 0.287114
Si Si5 0.144231 0.864075 0.298688
Si Si6 0.750000 0.750000 0.469911
Si Si7 0.407301 0.732550 0.156147
Si Si8 0.648625 0.708559 0.402707
O O1 0.591879 0.623742 0.719372
O O2 0.586874 0.719385 0.761725
O O3 0.626258 0.658121 0.970449
O O4 0.530615 0.663127 0.928096
O O5 0.061109 0.372083 0.443633
O O6 0.156945 0.355392 0.442711
O O7 0.123943 0.443205 0.493417
O O8 0.957991 0.207990 0.094911
O O9 0.002220 0.129094 0.181978
O O10 0.443205 0.376057 0.446404
O O11 0.477835 0.454278 0.312381
O O12 0.122083 0.811109 0.246189
O O13 0.105393 0.906945 0.247111
O O14 0.704278 0.727835 0.377440
O O15 0.379094 0.752220 0.007843
#
# Coordination Sequence:
#
# PCOD9370565 Si02
#       8
#    16  16  16  16  16   8  16  16
#     4  10  26  40  60  94 132 160 220 260 322 396
#     4  10  20  44  58  89 130 169 197 267 326 380
#     4  11  21  43  63  90 124 168 210 262 318 380
#     4  10  20  35  67  88 120 162 214 252 314 381
#     4  10  20  44  58  89 130 169 197 267 326 380
#     4  12  16  32  60 102 104 152 224 258 292 392
#     4  11  21  43  63  90 124 168 210 262 318 380
#     4  10  20  35  67  88 120 162 214 252 314 381
#
# _framework density 18.661818
#
# number of rings (size 3 to 8) (size 9 to 14) (size 15 to 20)
#    0.000    1.600    5.333    0.000    0.000    4.267 
#   16.800    0.000    0.000    1.600    0.000    0.000 
#    0.000    0.000    0.000    0.000    0.000    0.000 
#
# Total GULP energy -167128.033828 kJ/mol
# GULP energy per Si atom -5570.934461 kJ/mol
# Density = 1.861934 g / cm^3
# Si number density = 18.661818 Si / 1000 Ang^3
#
#
#
# Elastic Constant Matrix: (Units=GPa)
#
#
# Indices 1 2 3 4 5 6 
#
# 1 96.3065 35.2452 40.9736 0.0025 -0.0013 -0.0006
# 2 35.2452 96.3108 40.9743 0.0023 -0.0011 -0.0003
# 3 40.9736 40.9743 137.5203 0.0007 0.0002 -0.0006
# 4 0.0025 0.0023 0.0007 26.5257 0.0000 -0.0003
# 5 -0.0013 -0.0011 0.0002 0.0000 26.5250 0.0001
# 6 -0.0006 -0.0003 -0.0006 -0.0003 0.0001 27.2531
#
#
#
# Elastic Compliance Matrix: (Units=1/GPa)
#
#
# Indices 1 2 3 4 5 6 
#
# 1 0.012855 -0.003521 -0.002781 -0.000001 0.000001 0.000000
# 2 -0.003521 0.012855 -0.002781 -0.000001 0.000000 0.000000
# 3 -0.002781 -0.002781 0.008929 0.000000 0.000000 0.000000
# 4 -0.000001 -0.000001 0.000000 0.037699 0.000000 0.000000
# 5 0.000001 0.000000 0.000000 0.000000 0.037700 0.000000
# 6 0.000000 0.000000 0.000000 0.000000 0.000000 0.036693
#
#
# Mechanical properties :
#
#
# Convention : Reuss Voigt Hill
#
# Bulk Modulus (GPa) = 60.70736 62.72487 61.71611
# Shear Modulus (GPa) = 29.34460 30.25705 29.80082
#
# Velocity S-wave (km/s) = 3.96970 4.03095 4.00044
# Velocity P-wave (km/s) = 7.32204 7.43969 7.38110
#
# Compressibility (1/GPa) = 0.01647247
#
# Stress axis : x y z
#
# Youngs Moduli (GPa) = 77.78833 77.79190 111.99660
#
# Poissons Ratio (x) = 0.27393 0.31147
# Poissons Ratio (y) = 0.27392 0.31146
# Poissons Ratio (z) = 0.21633 0.21633
#
# Static dielectric constant tensor:
#      x y z
#    x 1.678350 0.000000 0.000000 
#    y 0.000000 1.678350 0.000000 
#    z 0.000000 0.000000 1.641640 
# 
# From -- ./inp_files/4348.got.cif
#   From: 2010.05.17/outbox.cif.g08.bks.cpg/sg43_3_cif.got.tgz:4348.got - 2010.06.03 19:21:55.
