data_PCOD9370342
_publ_section_title
;
Structure prediction by ZEFSAII (Michael W. Deem and Ramdas Pophale) SiO2 
 PCOD9370342
Probable space group: F D D 2
;
_chemical_formula_sum "Si O2"
_cell_formula_units_Z 128
_cell_length_a 22.852503
_cell_length_b 12.808873
_cell_length_c 23.282519
_cell_angle_alpha 90.000000
_cell_angle_beta 90.000000
_cell_angle_gamma 90.000000
_cell_volume 6815.138094
_symmetry_space_group_name_H-M "F D D 2"
_symmetry_group_IT_number 43
_symmetry_cell_setting 'orthorhombic'
loop_
_space_group_symop_operation_xyz
x,y,z
-x,-y,z
1/4-x,1/4+y,1/4+z
1/4+x,1/4-y,1/4+z
x,1/2+y,1/2+z
-x,1/2-y,1/2+z
1/4-x,3/4+y,3/4+z
1/4+x,3/4-y,3/4+z
1/2+x,y,1/2+z
1/2-x,-y,1/2+z
3/4-x,1/4+y,3/4+z
3/4+x,1/4-y,3/4+z
1/2+x,1/2+y,z
1/2-x,1/2-y,z
3/4-x,3/4+y,1/4+z
3/4+x,3/4-y,1/4+z
loop_
_atom_site_type_symbol
_atom_site_label
_atom_site_fract_x
_atom_site_fract_y
_atom_site_fract_z
Si Si1 0.200617 0.507337 0.241680
Si Si2 0.920643 0.185482 0.971854
Si Si3 0.059927 0.936332 0.264414
Si Si4 0.617644 0.025830 0.603328
Si Si5 0.379655 0.454096 0.976046
Si Si6 0.302091 0.005906 0.368430
Si Si7 0.675614 0.563920 0.398984
Si Si8 0.191829 0.679638 0.143953
O O1 0.269038 0.478931 0.245077
O O2 0.167062 0.401094 0.225235
O O3 0.182226 0.540946 0.306133
O O4 0.191053 0.592864 0.192965
O O5 0.913056 0.221266 0.905643
O O6 0.917590 0.060261 0.971861
O O7 0.864908 0.235143 0.004945
O O8 0.063888 0.853499 0.213657
O O9 0.058666 0.889539 0.328191
O O10 0.000000 0.000000 0.256585
O O11 0.645887 0.038275 0.540775
O O12 0.573634 0.122883 0.614107
O O13 0.583275 0.917349 0.610037
O O14 0.334910 0.458182 0.923264
O O15 0.232947 0.003523 0.378720
O O16 0.616053 0.499781 0.398157
O O17 0.250000 0.750000 0.150739
#
# Coordination Sequence:
#
# PCOD9370342 Si02
#       8
#    16  16  16  16  16  16  16  16
#     4  11  23  38  54  79 113 150 192 227 269 339
#     4  10  19  34  59  85 109 141 182 232 285 336
#     4  10  20  35  58  89 115 137 181 241 294 338
#     4   9  18  33  57  88 111 132 174 234 291 332
#     4  10  20  36  57  80 110 143 179 234 287 327
#     4  10  21  36  57  84 110 141 186 233 279 333
#     4  11  20  34  59  85 112 147 184 231 288 340
#     4  11  24  38  54  80 115 153 188 228 281 343
#
# _framework density 18.781717
#
# number of rings (size 3 to 8) (size 9 to 14) (size 15 to 20)
#    0.000    1.750    0.000    6.750    0.000    6.000 
#    0.000    0.625    0.000    3.000    0.000    0.000 
#    0.000    0.000    0.000    0.000    0.000    0.000 
#
# Total GULP energy -178690.717317 kJ/mol
# GULP energy per Si atom -5584.084916 kJ/mol
# Density = 1.873897 g / cm^3
# Si number density = 18.781717 Si / 1000 Ang^3
#
#
#
# Elastic Constant Matrix: (Units=GPa)
#
#
# Indices 1 2 3 4 5 6 
#
# 1 99.6688 23.6959 56.4372 0.0000 0.0000 0.0000
# 2 23.6959 44.6919 47.6731 0.0000 0.0000 0.0000
# 3 56.4372 47.6731 175.8196 0.0000 0.0000 0.0000
# 4 0.0000 0.0000 0.0000 33.5138 0.0000 0.0000
# 5 0.0000 0.0000 0.0000 0.0000 20.7785 0.0000
# 6 0.0000 0.0000 0.0000 0.0000 0.0000 12.7380
#
#
#
# Elastic Compliance Matrix: (Units=1/GPa)
#
#
# Indices 1 2 3 4 5 6 
#
# 1 0.012605 -0.003330 -0.003143 0.000000 0.000000 0.000000
# 2 -0.003330 0.032361 -0.007705 0.000000 0.000000 0.000000
# 3 -0.003143 -0.007705 0.008786 0.000000 0.000000 0.000000
# 4 0.000000 0.000000 0.000000 0.029838 0.000000 0.000000
# 5 0.000000 0.000000 0.000000 0.000000 0.048127 0.000000
# 6 0.000000 0.000000 0.000000 0.000000 0.000000 0.078505
#
#
# Mechanical properties :
#
#
# Convention : Reuss Voigt Hill
#
# Bulk Modulus (GPa) = 39.38022 63.97695 51.67859
# Shear Modulus (GPa) = 20.23933 26.23102 23.23517
#
# Velocity S-wave (km/s) = 3.28626 3.74120 3.52108
# Velocity P-wave (km/s) = 5.95081 7.26632 6.64122
#
# Compressibility (1/GPa) = 0.02539346
#
# Stress axis : x y z
#
# Youngs Moduli (GPa) = 79.33515 30.90164 113.81925
#
# Poissons Ratio (x) = 0.10292 0.35774
# Poissons Ratio (y) = 0.26422 0.87703
# Poissons Ratio (z) = 0.24935 0.23811
#
# Static dielectric constant tensor:
#      x y z
#    x 1.633420 0.000000 0.000000 
#    y 0.000000 1.634870 0.000000 
#    z 0.000000 0.000000 1.690660 
# 
# From -- ./inp_files/22665.got.cif
#   From: 2010.05.17/outbox.cif.g08.bks.cpg/sg43_12_cif.got.tgz:22665.got - 2010.06.03 19:21:55.
