data_PCOD9370301
_publ_section_title
;
Structure prediction by ZEFSAII (Michael W. Deem and Ramdas Pophale) SiO2 
 PCOD9370301
Probable space group: F D D 2
;
_chemical_formula_sum "Si O2"
_cell_formula_units_Z 104
_cell_length_a 9.795833
_cell_length_b 16.861078
_cell_length_c 28.577602
_cell_angle_alpha 90.000000
_cell_angle_beta 90.000000
_cell_angle_gamma 90.000000
_cell_volume 4720.114063
_symmetry_space_group_name_H-M "F D D 2"
_symmetry_group_IT_number 43
_symmetry_cell_setting 'orthorhombic'
loop_
_space_group_symop_operation_xyz
x,y,z
-x,-y,z
1/4-x,1/4+y,1/4+z
1/4+x,1/4-y,1/4+z
x,1/2+y,1/2+z
-x,1/2-y,1/2+z
1/4-x,3/4+y,3/4+z
1/4+x,3/4-y,3/4+z
1/2+x,y,1/2+z
1/2-x,-y,1/2+z
3/4-x,1/4+y,3/4+z
3/4+x,1/4-y,3/4+z
1/2+x,1/2+y,z
1/2-x,1/2-y,z
3/4-x,3/4+y,1/4+z
3/4+x,3/4-y,1/4+z
loop_
_atom_site_type_symbol
_atom_site_label
_atom_site_fract_x
_atom_site_fract_y
_atom_site_fract_z
Si Si1 0.709459 0.440672 0.017770
Si Si2 0.503744 0.127200 0.037843
Si Si3 0.508028 0.411695 0.736638
Si Si4 0.124842 0.300752 0.354584
Si Si5 0.750000 0.750000 0.188439
Si Si6 0.752718 0.431888 0.794729
Si Si7 0.393939 0.105217 0.139907
O O1 0.670239 0.505289 0.057228
O O2 0.647125 0.359393 0.038527
O O3 0.869784 0.420446 0.016008
O O4 0.623633 0.465249 0.971467
O O5 0.519389 0.223593 0.041363
O O6 0.469062 0.101879 0.090590
O O7 0.365824 0.113789 0.007909
O O8 0.500000 0.500000 0.757479
O O9 0.661965 0.395032 0.752084
O O10 0.503105 0.413894 0.681381
O O11 0.250000 0.250000 0.374653
O O12 0.177078 0.388876 0.338983
O O13 0.992205 0.302146 0.386774
O O14 0.671295 0.810875 0.154543
#
# Coordination Sequence:
#
# PCOD9370301 Si02
#       7
#    16  16  16  16   8  16  16
#     4  11  22  44  70 101 138 185 232 296 357 417
#     4  11  25  40  73 100 137 188 231 297 362 418
#     4  10  22  41  63  93 137 176 230 278 355 425
#     4  10  21  40  69  95 133 179 238 285 349 426
#     4  12  24  46  74  98 138 190 244 284 358 448
#     4  10  18  45  66  93 134 183 227 281 350 429
#     4  12  24  43  68 102 133 185 234 286 357 435
#
# _framework density 22.033366999999998
#
# number of rings (size 3 to 8) (size 9 to 14) (size 15 to 20)
#    0.000    1.231    5.385    1.385    3.231    0.000 
#    5.538    3.077    0.000    0.000    0.000    0.000 
#    0.000    0.000    0.000    0.000    0.000    0.000 
#
# Total GULP energy -145005.337328 kJ/mol
# GULP energy per Si atom -5577.128359 kJ/mol
# Density = 2.198322 g / cm^3
# Si number density = 22.033367 Si / 1000 Ang^3
#
#
#
# Elastic Constant Matrix: (Units=GPa)
#
#
# Indices 1 2 3 4 5 6 
#
# 1 129.3367 24.2449 31.6995 0.0000 0.0000 0.0000
# 2 24.2449 90.5192 -6.5750 0.0000 0.0000 0.0000
# 3 31.6995 -6.5750 70.4312 0.0000 0.0000 0.0000
# 4 0.0000 0.0000 0.0000 18.0755 0.0000 0.0000
# 5 0.0000 0.0000 0.0000 0.0000 27.3174 0.0000
# 6 0.0000 0.0000 0.0000 0.0000 0.0000 30.2710
#
#
#
# Elastic Compliance Matrix: (Units=1/GPa)
#
#
# Indices 1 2 3 4 5 6 
#
# 1 0.009360 -0.002832 -0.004477 0.000000 0.000000 0.000000
# 2 -0.002832 0.011980 0.002393 0.000000 0.000000 0.000000
# 3 -0.004477 0.002393 0.016437 0.000000 0.000000 0.000000
# 4 0.000000 0.000000 0.000000 0.055324 0.000000 0.000000
# 5 0.000000 0.000000 0.000000 0.000000 0.036607 0.000000
# 6 0.000000 0.000000 0.000000 0.000000 0.000000 0.033035
#
#
# Mechanical properties :
#
#
# Convention : Reuss Voigt Hill
#
# Bulk Modulus (GPa) = 35.78590 43.22510 39.50550
# Shear Modulus (GPa) = 27.48931 31.19395 29.34163
#
# Velocity S-wave (km/s) = 3.53600 3.76674 3.65319
# Velocity P-wave (km/s) = 5.74004 6.21115 5.98023
#
# Compressibility (1/GPa) = 0.02794397
#
# Stress axis : x y z
#
# Youngs Moduli (GPa) = 106.83781 83.47390 60.83948
#
# Poissons Ratio (x) = 0.23642 0.27239
# Poissons Ratio (y) = 0.30259 -0.14559
# Poissons Ratio (z) = 0.47832 -0.19976
#
# Static dielectric constant tensor:
#      x y z
#    x 1.820240 0.000000 0.000000 
#    y 0.000000 1.948890 0.000000 
#    z 0.000000 0.000000 1.813270 
# 
# From -- ./inp_files/24316.got.cif
#   From: 2010.05.17/outbox.cif.g08.bks.cpg/sg43_13_cif.got.tgz:24316.got - 2010.06.03 19:21:55.
