data_PCOD9370084
_publ_section_title
;
Structure prediction by ZEFSAII (Michael W. Deem and Ramdas Pophale) SiO2 
 PCOD9370084
Probable space group: F D D 2
;
_chemical_formula_sum "Si O2"
_cell_formula_units_Z 120
_cell_length_a 23.648577
_cell_length_b 11.474916
_cell_length_c 20.897032
_cell_angle_alpha 90.000000
_cell_angle_beta 90.000000
_cell_angle_gamma 90.000000
_cell_volume 5670.732170
_symmetry_space_group_name_H-M "F D D 2"
_symmetry_group_IT_number 43
_symmetry_cell_setting 'orthorhombic'
loop_
_space_group_symop_operation_xyz
x,y,z
-x,-y,z
1/4-x,1/4+y,1/4+z
1/4+x,1/4-y,1/4+z
x,1/2+y,1/2+z
-x,1/2-y,1/2+z
1/4-x,3/4+y,3/4+z
1/4+x,3/4-y,3/4+z
1/2+x,y,1/2+z
1/2-x,-y,1/2+z
3/4-x,1/4+y,3/4+z
3/4+x,1/4-y,3/4+z
1/2+x,1/2+y,z
1/2-x,1/2-y,z
3/4-x,3/4+y,1/4+z
3/4+x,3/4-y,1/4+z
loop_
_atom_site_type_symbol
_atom_site_label
_atom_site_fract_x
_atom_site_fract_y
_atom_site_fract_z
Si Si1 0.144275 0.689016 0.027290
Si Si2 0.578742 0.090372 0.137574
Si Si3 0.290821 0.148346 0.121449
Si Si4 0.421216 0.678265 0.598822
Si Si5 0.549390 0.592613 0.179790
Si Si6 0.527805 0.735311 0.745902
Si Si7 0.449796 0.183065 0.953811
Si Si8 0.250000 0.250000 0.617818
O O1 0.089517 0.661902 0.071184
O O2 0.165385 0.560435 0.006742
O O3 0.194026 0.737808 0.074231
O O4 0.149575 0.770557 0.964028
O O5 0.535054 0.154380 0.184167
O O6 0.638574 0.100938 0.174797
O O7 0.567847 0.952186 0.128329
O O8 0.250000 0.250000 0.138942
O O9 0.353049 0.183480 0.098302
O O10 0.265404 0.083546 0.059860
O O11 0.294793 0.065041 0.181830
O O12 0.436910 0.803961 0.630022
O O13 0.448272 0.669814 0.529003
O O14 0.500000 0.500000 0.159028
O O15 0.519686 0.669117 0.234715
O O16 0.496734 0.109501 0.915835
#
# Coordination Sequence:
#
# PCOD9370084 Si02
#       8
#    16  16  16  16  16  16  16   8
#     4  10  17  40  62  87 121 168 213 255 313 389
#     4  10  20  35  64  90 118 160 209 268 311 373
#     4  11  23  38  63  90 118 165 209 258 320 385
#     4  11  23  42  60  92 128 166 210 270 326 377
#     4  10  23  39  63  88 128 173 208 256 322 391
#     4  11  19  38  62  93 120 153 212 263 314 379
#     4  10  20  38  58  87 126 159 203 260 312 372
#     4  10  16  34  64  84 114 162 212 248 310 368
#
# _framework density 21.161289
#
# number of rings (size 3 to 8) (size 9 to 14) (size 15 to 20)
#    0.000    1.600    7.333    0.000    1.867    1.600 
#    0.000   16.000    0.000    0.000    0.000    0.000 
#    0.000    0.000    0.000    0.000    0.000    0.000 
#
# Total GULP energy -167226.246082 kJ/mol
# GULP energy per Si atom -5574.208203 kJ/mol
# Density = 2.111312 g / cm^3
# Si number density = 21.161289 Si / 1000 Ang^3
#
#
#
# Elastic Constant Matrix: (Units=GPa)
#
#
# Indices 1 2 3 4 5 6 
#
# 1 36.4125 36.0814 9.9943 0.0000 0.0000 0.0000
# 2 36.0814 97.3011 45.4474 0.0000 0.0000 0.0000
# 3 9.9943 45.4474 93.7194 0.0000 0.0000 0.0000
# 4 0.0000 0.0000 0.0000 513.2729 0.0000 0.0000
# 5 0.0000 0.0000 0.0000 0.0000 -15.3068 0.0000
# 6 0.0000 0.0000 0.0000 0.0000 0.0000 27.9454
#
#
#
# Elastic Compliance Matrix: (Units=1/GPa)
#
#
# Indices 1 2 3 4 5 6 
#
# 1 0.044675 -0.018541 0.004227 0.000000 0.000000 0.000000
# 2 -0.018541 0.020982 -0.008197 0.000000 0.000000 0.000000
# 3 0.004227 -0.008197 0.014195 0.000000 0.000000 0.000000
# 4 0.000000 0.000000 0.000000 0.001948 0.000000 0.000000
# 5 0.000000 0.000000 0.000000 0.000000 -0.065330 0.000000
# 6 0.000000 0.000000 0.000000 0.000000 0.000000 0.035784
#
#
# Mechanical properties :
#
#
# Convention : Reuss Voigt Hill
#
# Bulk Modulus (GPa) = 28.71212 45.60880 37.16046
# Shear Modulus (GPa) = 45.91987 114.24296 80.08141
#
# Velocity S-wave (km/s) = 4.66337 7.35554 6.15837
# Velocity P-wave (km/s) = 6.52639 9.68186 8.25627
#
# Compressibility (1/GPa) = 0.03482850
#
# Stress axis : x y z
#
# Youngs Moduli (GPa) = 22.38383 47.66098 70.44949
#
# Poissons Ratio (x) = 0.88367 -0.29777
# Poissons Ratio (y) = 0.41501 0.57750
# Poissons Ratio (z) = -0.09461 0.39070
#
# Static dielectric constant tensor:
#      x y z
#    x 1.834690 0.000000 0.000000 
#    y 0.000000 -43.656000 0.000000 
#    z 0.000000 0.000000 1.796490 
# 
# From -- ./inp_files/18660.got.cif
#   From: 2010.05.17/outbox.cif.g08.bks.cpg/sg43_10_cif.got.tgz:18660.got - 2010.06.03 19:21:55.
