data_PCOD9370552
_publ_section_title
;
Structure prediction by ZEFSAII (Michael W. Deem and Ramdas Pophale) SiO2 
 PCOD9370552
Probable space group: F D D 2
;
_chemical_formula_sum "Si O2"
_cell_formula_units_Z 128
_cell_length_a 12.008414
_cell_length_b 24.256980
_cell_length_c 20.823441
_cell_angle_alpha 90.000000
_cell_angle_beta 90.000000
_cell_angle_gamma 90.000000
_cell_volume 6065.615530
_symmetry_space_group_name_H-M "F D D 2"
_symmetry_group_IT_number 43
_symmetry_cell_setting 'orthorhombic'
loop_
_space_group_symop_operation_xyz
x,y,z
-x,-y,z
1/4-x,1/4+y,1/4+z
1/4+x,1/4-y,1/4+z
x,1/2+y,1/2+z
-x,1/2-y,1/2+z
1/4-x,3/4+y,3/4+z
1/4+x,3/4-y,3/4+z
1/2+x,y,1/2+z
1/2-x,-y,1/2+z
3/4-x,1/4+y,3/4+z
3/4+x,1/4-y,3/4+z
1/2+x,1/2+y,z
1/2-x,1/2-y,z
3/4-x,3/4+y,1/4+z
3/4+x,3/4-y,1/4+z
loop_
_atom_site_type_symbol
_atom_site_label
_atom_site_fract_x
_atom_site_fract_y
_atom_site_fract_z
Si Si1 0.131165 0.485850 0.105010
Si Si2 0.915458 0.651272 0.796043
Si Si3 0.924002 0.803127 0.000333
Si Si4 0.494530 0.869709 0.289173
Si Si5 0.329110 0.199721 0.533833
Si Si6 0.356015 0.719832 0.614949
Si Si7 0.191250 0.403529 0.902235
Si Si8 0.551748 0.053151 0.925619
O O1 0.190989 0.544127 0.087743
O O2 0.137144 0.465119 0.178892
O O3 0.195236 0.439387 0.061660
O O4 0.000000 0.500000 0.093805
O O5 0.807923 0.624580 0.832425
O O6 0.879325 0.667419 0.724910
O O7 0.012613 0.607222 0.785896
O O8 0.873280 0.860577 0.029062
O O9 0.888498 0.757215 0.053261
O O10 0.056910 0.805187 0.996739
O O11 0.442597 0.912560 0.338768
O O12 0.456649 0.881386 0.216182
O O13 0.250000 0.250000 0.512078
O O14 0.358169 0.212706 0.608544
O O15 0.250000 0.750000 0.648031
O O16 0.466597 0.701913 0.653830
O O17 0.060971 0.416586 0.906439
O O18 0.500000 0.000000 0.959066
#
# Coordination Sequence:
#
# PCOD9370552 Si02
#       8
#    16  16  16  16  16  16  16  16
#     4  12  24  41  66  96 128 168 221 278 333 397
#     4  11  22  37  64  95 124 162 211 268 324 385
#     4  11  23  42  63  89 126 168 217 266 326 401
#     4  11  23  38  59  91 126 160 204 268 332 389
#     4  10  24  42  62  90 125 169 217 268 332 406
#     4  10  20  35  59  86 115 156 203 256 315 383
#     4  11  20  35  59  88 118 154 201 252 317 386
#     4  10  20  36  59  87 118 151 197 260 319 377
#
# _framework density 21.102557000000001
#
# number of rings (size 3 to 8) (size 9 to 14) (size 15 to 20)
#    0.000    1.250    0.000    9.000    0.000    4.000 
#    0.000    4.375    0.000    0.000    0.000    0.000 
#    0.000    0.000    0.000    0.000    0.000    0.000 
#
# Total GULP energy -178269.191584 kJ/mol
# GULP energy per Si atom -5570.912237 kJ/mol
# Density = 2.105453 g / cm^3
# Si number density = 21.102557 Si / 1000 Ang^3
#
#
#
# Elastic Constant Matrix: (Units=GPa)
#
#
# Indices 1 2 3 4 5 6 
#
# 1 97.8897 54.4050 22.2534 0.0000 0.0000 0.0000
# 2 54.4050 117.2530 4.1079 0.0000 0.0000 0.0000
# 3 22.2534 4.1079 57.4151 0.0000 0.0000 0.0000
# 4 0.0000 0.0000 0.0000 21.8941 0.0000 0.0000
# 5 0.0000 0.0000 0.0000 0.0000 11.3459 0.0000
# 6 0.0000 0.0000 0.0000 0.0000 0.0000 39.6887
#
#
#
# Elastic Compliance Matrix: (Units=1/GPa)
#
#
# Indices 1 2 3 4 5 6 
#
# 1 0.015287 -0.006903 -0.005431 0.000000 0.000000 0.000000
# 2 -0.006903 0.011667 0.001841 0.000000 0.000000 0.000000
# 3 -0.005431 0.001841 0.019390 0.000000 0.000000 0.000000
# 4 0.000000 0.000000 0.000000 0.045674 0.000000 0.000000
# 5 0.000000 0.000000 0.000000 0.000000 0.088137 0.000000
# 6 0.000000 0.000000 0.000000 0.000000 0.000000 0.025196
#
#
# Mechanical properties :
#
#
# Convention : Reuss Voigt Hill
#
# Bulk Modulus (GPa) = 39.43571 48.23227 43.83399
# Shear Modulus (GPa) = 21.29560 27.37185 24.33373
#
# Velocity S-wave (km/s) = 3.18016 3.60542 3.39944
# Velocity P-wave (km/s) = 5.67563 6.34333 6.01874
#
# Compressibility (1/GPa) = 0.02535773
#
# Stress axis : x y z
#
# Youngs Moduli (GPa) = 65.41693 85.71262 51.57216
#
# Poissons Ratio (x) = 0.59164 0.28009
# Poissons Ratio (y) = 0.45155 -0.09493
# Poissons Ratio (z) = 0.35528 -0.15777
#
# Static dielectric constant tensor:
#      x y z
#    x 1.665600 0.000000 0.000000 
#    y 0.000000 1.769990 0.000000 
#    z 0.000000 0.000000 1.793240 
# 
# From -- ./inp_files/21346.got.cif
#   From: 2010.05.17/outbox.cif.g08.bks.cpg/sg43_11_cif.got.tgz:21346.got - 2010.06.03 19:21:55.
