data_PCOD9370973
_publ_section_title
;
Structure prediction by ZEFSAII (Michael W. Deem and Ramdas Pophale) SiO2 
 PCOD9370973
Probable space group: F D D 2
;
_chemical_formula_sum "Si O2"
_cell_formula_units_Z 96
_cell_length_a 15.279226
_cell_length_b 26.089805
_cell_length_c 10.304135
_cell_angle_alpha 90.000000
_cell_angle_beta 90.000000
_cell_angle_gamma 90.000000
_cell_volume 4107.558220
_symmetry_space_group_name_H-M "F D D 2"
_symmetry_group_IT_number 43
_symmetry_cell_setting 'orthorhombic'
loop_
_space_group_symop_operation_xyz
x,y,z
-x,-y,z
1/4-x,1/4+y,1/4+z
1/4+x,1/4-y,1/4+z
x,1/2+y,1/2+z
-x,1/2-y,1/2+z
1/4-x,3/4+y,3/4+z
1/4+x,3/4-y,3/4+z
1/2+x,y,1/2+z
1/2-x,-y,1/2+z
3/4-x,1/4+y,3/4+z
3/4+x,1/4-y,3/4+z
1/2+x,1/2+y,z
1/2-x,1/2-y,z
3/4-x,3/4+y,1/4+z
3/4+x,3/4-y,1/4+z
loop_
_atom_site_type_symbol
_atom_site_label
_atom_site_fract_x
_atom_site_fract_y
_atom_site_fract_z
Si Si1 0.085563 0.535220 0.715370
Si Si2 0.239645 0.116117 0.004855
Si Si3 0.476717 0.944366 0.437276
Si Si4 0.741267 0.959959 0.764705
Si Si5 0.668444 0.901578 0.519411
Si Si6 0.432751 0.312234 0.994561
O O1 0.087617 0.547831 0.559063
O O2 0.161481 0.500553 0.775008
O O3 0.077835 0.590561 0.781033
O O4 0.000000 0.500000 0.728900
O O5 0.303212 0.160086 0.066240
O O6 0.006640 0.169483 0.631885
O O7 0.182592 0.171106 0.250012
O O8 0.155571 0.153334 0.980561
O O9 0.497899 0.827913 0.378860
O O10 0.500000 0.000000 0.388982
O O11 0.821042 0.000614 0.751232
O O12 0.717589 0.928970 0.635628
O O13 0.713708 0.918463 0.385233
#
# Coordination Sequence:
#
# PCOD9370973 Si02
#       6
#    16  16  16  16  16  16
#     4  11  23  44  77 110 149 206 259 312 388 495
#     4  11  26  46  72 114 158 198 264 337 383 472
#     4  10  20  44  76 107 145 206 262 303 389 490
#     4  12  25  46  78 116 154 202 266 335 395 466
#     4  11  23  44  78 111 145 206 261 319 386 489
#     4  11  25  46  72 110 154 209 261 312 407 476
#
# _framework density 23.371551
#
# number of rings (size 3 to 8) (size 9 to 14) (size 15 to 20)
#    0.000    1.000    5.000    3.000    0.000    4.000 
#    0.000    4.167    0.000    0.000    0.000    0.000 
#    0.000    0.000    0.000    0.000    0.000    0.000 
#
# Total GULP energy -133874.376846 kJ/mol
# GULP energy per Si atom -5578.099035 kJ/mol
# Density = 2.331836 g / cm^3
# Si number density = 23.371551 Si / 1000 Ang^3
#
#
#
# Elastic Constant Matrix: (Units=GPa)
#
#
# Indices 1 2 3 4 5 6 
#
# 1 101.0006 49.2190 65.5877 0.0000 0.0000 0.0000
# 2 49.2190 251.6228 92.0218 0.0000 0.0000 0.0000
# 3 65.5877 92.0218 141.5719 0.0000 0.0000 0.0000
# 4 0.0000 0.0000 0.0000 59.6587 0.0000 0.0000
# 5 0.0000 0.0000 0.0000 0.0000 34.1565 0.0000
# 6 0.0000 0.0000 0.0000 0.0000 0.0000 43.0727
#
#
#
# Elastic Compliance Matrix: (Units=1/GPa)
#
#
# Indices 1 2 3 4 5 6 
#
# 1 0.014207 -0.000488 -0.006265 0.000000 0.000000 0.000000
# 2 -0.000488 0.005230 -0.003174 0.000000 0.000000 0.000000
# 3 -0.006265 -0.003174 0.012029 0.000000 0.000000 0.000000
# 4 0.000000 0.000000 0.000000 0.016762 0.000000 0.000000
# 5 0.000000 0.000000 0.000000 0.000000 0.029277 0.000000
# 6 0.000000 0.000000 0.000000 0.000000 0.000000 0.023217
#
#
# Mechanical properties :
#
#
# Convention : Reuss Voigt Hill
#
# Bulk Modulus (GPa) = 86.10696 100.87246 93.48971
# Shear Modulus (GPa) = 40.17844 46.53537 43.35691
#
# Velocity S-wave (km/s) = 4.15072 4.46703 4.31178
# Velocity P-wave (km/s) = 7.73912 8.35822 8.05462
#
# Compressibility (1/GPa) = 0.01161346
#
# Stress axis : x y z
#
# Youngs Moduli (GPa) = 70.38884 191.19413 83.13442
#
# Poissons Ratio (x) = 0.09328 0.52081
# Poissons Ratio (y) = 0.03434 0.26384
# Poissons Ratio (z) = 0.44096 0.60679
#
# Static dielectric constant tensor:
#      x y z
#    x 2.083110 0.000000 0.000000 
#    y 0.000000 1.936450 0.000000 
#    z 0.000000 0.000000 1.865340 
# 
# From -- ./inp_files/8043.got.cif
#   From: 2010.05.17/outbox.cif.g08.bks.cpg/sg43_5_cif.got.tgz:8043.got - 2010.06.03 19:21:55.
