data_PCOD9370493
_publ_section_title
;
Structure prediction by ZEFSAII (Michael W. Deem and Ramdas Pophale) SiO2 
 PCOD9370493
Probable space group: F D D 2
;
_chemical_formula_sum "Si O2"
_cell_formula_units_Z 88
_cell_length_a 16.732073
_cell_length_b 11.469148
_cell_length_c 19.680502
_cell_angle_alpha 90.000000
_cell_angle_beta 90.000000
_cell_angle_gamma 90.000000
_cell_volume 3776.739928
_symmetry_space_group_name_H-M "F D D 2"
_symmetry_group_IT_number 43
_symmetry_cell_setting 'orthorhombic'
loop_
_space_group_symop_operation_xyz
x,y,z
-x,-y,z
1/4-x,1/4+y,1/4+z
1/4+x,1/4-y,1/4+z
x,1/2+y,1/2+z
-x,1/2-y,1/2+z
1/4-x,3/4+y,3/4+z
1/4+x,3/4-y,3/4+z
1/2+x,y,1/2+z
1/2-x,-y,1/2+z
3/4-x,1/4+y,3/4+z
3/4+x,1/4-y,3/4+z
1/2+x,1/2+y,z
1/2-x,1/2-y,z
3/4-x,3/4+y,1/4+z
3/4+x,3/4-y,1/4+z
loop_
_atom_site_type_symbol
_atom_site_label
_atom_site_fract_x
_atom_site_fract_y
_atom_site_fract_z
Si Si1 0.000000 0.000000 0.304210
Si Si2 0.556761 0.113376 0.477748
Si Si3 0.485369 0.136837 0.229909
Si Si4 0.469790 0.245183 0.862416
Si Si5 0.360474 0.240424 0.425497
Si Si6 0.759788 0.942839 0.364629
O O1 0.923986 0.991207 0.252323
O O2 0.976890 0.108973 0.350340
O O3 0.645253 0.073517 0.502074
O O4 0.588690 0.191155 0.414208
O O5 0.511687 0.189510 0.535468
O O6 0.500000 0.000000 0.465308
O O7 0.537555 0.198588 0.288592
O O8 0.510064 0.188548 0.156760
O O9 0.500000 0.000000 0.235549
O O10 0.549205 0.278969 0.905036
O O11 0.313057 0.132382 0.394728
O O12 0.333082 0.359726 0.387415
#
# Coordination Sequence:
#
# PCOD9370493 Si02
#       6
#     8  16  16  16  16  16
#     4  10  24  44  62 100 130 174 230 288 346 416
#     4  12  25  43  71 105 130 182 245 282 336 435
#     4  12  26  44  67 101 148 180 221 294 362 406
#     4  12  24  42  70  98 132 180 231 287 345 416
#     4  10  19  40  72  89 124 171 233 284 322 403
#     4  10  20  41  65  97 128 175 225 280 334 403
#
# _framework density 23.300519999999999
#
# number of rings (size 3 to 8) (size 9 to 14) (size 15 to 20)
#    0.000    1.091    7.273    1.636    5.091    1.455 
#    1.636    0.000    0.000    0.000    0.000    0.000 
#    0.000    0.000    0.000    0.000    0.000    0.000 
#
# Total GULP energy -122746.627620 kJ/mol
# GULP energy per Si atom -5579.392165 kJ/mol
# Density = 2.324749 g / cm^3
# Si number density = 23.300520 Si / 1000 Ang^3
#
#
#
# Elastic Constant Matrix: (Units=GPa)
#
#
# Indices 1 2 3 4 5 6 
#
# 1 23.1104 -26.0841 -22.8077 0.0000 0.0000 0.0000
# 2 -26.0841 152.2708 56.7509 0.0000 0.0000 0.0000
# 3 -22.8077 56.7509 143.9854 0.0000 0.0000 0.0000
# 4 0.0000 0.0000 0.0000 49.0118 0.0000 0.0000
# 5 0.0000 0.0000 0.0000 0.0000 16.5707 0.0000
# 6 0.0000 0.0000 0.0000 0.0000 0.0000 7.0046
#
#
#
# Elastic Compliance Matrix: (Units=1/GPa)
#
#
# Indices 1 2 3 4 5 6 
#
# 1 0.057978 0.007630 0.006177 0.000000 0.000000 0.000000
# 2 0.007630 0.008702 -0.002221 0.000000 0.000000 0.000000
# 3 0.006177 -0.002221 0.008799 0.000000 0.000000 0.000000
# 4 0.000000 0.000000 0.000000 0.020403 0.000000 0.000000
# 5 0.000000 0.000000 0.000000 0.000000 0.060348 0.000000
# 6 0.000000 0.000000 0.000000 0.000000 0.000000 0.142763
#
#
# Mechanical properties :
#
#
# Convention : Reuss Voigt Hill
#
# Bulk Modulus (GPa) = 10.13699 37.23164 23.68432
# Shear Modulus (GPa) = 16.19668 35.28458 25.74063
#
# Velocity S-wave (km/s) = 2.63937 3.89566 3.32734
# Velocity P-wave (km/s) = 3.69437 6.02067 4.99484
#
# Compressibility (1/GPa) = 0.09864859
#
# Stress axis : x y z
#
# Youngs Moduli (GPa) = 17.24804 114.91506 113.64842
#
# Poissons Ratio (x) = -0.87675 -0.70197
# Poissons Ratio (y) = -0.13160 0.25245
# Poissons Ratio (z) = -0.10654 0.25526
#
# Static dielectric constant tensor:
#      x y z
#    x 2.023110 0.000000 0.000000 
#    y 0.000000 1.898210 0.000000 
#    z 0.000000 0.000000 1.984290 
# 
# From -- ./inp_files/14558.got.cif
#   From: 2010.05.17/outbox.cif.g08.bks.cpg/sg43_8_cif.got.tgz:14558.got - 2010.06.03 19:21:55.
