data_PCOD9370951
_publ_section_title
;
Structure prediction by ZEFSAII (Michael W. Deem and Ramdas Pophale) SiO2 
 PCOD9370951
Probable space group: F D D 2
;
_chemical_formula_sum "Si O2"
_cell_formula_units_Z 64
_cell_length_a 18.551889
_cell_length_b 17.502963
_cell_length_c 7.145529
_cell_angle_alpha 90.000000
_cell_angle_beta 90.000000
_cell_angle_gamma 90.000000
_cell_volume 2320.246349
_symmetry_space_group_name_H-M "F D D 2"
_symmetry_group_IT_number 43
_symmetry_cell_setting 'orthorhombic'
loop_
_space_group_symop_operation_xyz
x,y,z
-x,-y,z
1/4-x,1/4+y,1/4+z
1/4+x,1/4-y,1/4+z
x,1/2+y,1/2+z
-x,1/2-y,1/2+z
1/4-x,3/4+y,3/4+z
1/4+x,3/4-y,3/4+z
1/2+x,y,1/2+z
1/2-x,-y,1/2+z
3/4-x,1/4+y,3/4+z
3/4+x,1/4-y,3/4+z
1/2+x,1/2+y,z
1/2-x,1/2-y,z
3/4-x,3/4+y,1/4+z
3/4+x,3/4-y,1/4+z
loop_
_atom_site_type_symbol
_atom_site_label
_atom_site_fract_x
_atom_site_fract_y
_atom_site_fract_z
Si Si1 0.823045 0.658217 0.003590
Si Si2 0.111838 0.008311 0.415207
Si Si3 0.242343 0.087367 0.285506
Si Si4 0.845777 0.514206 0.531907
O O1 0.751858 0.652826 0.133007
O O2 0.880654 0.706166 0.121507
O O3 0.854173 0.571956 0.984635
O O4 0.808805 0.700374 0.808782
O O5 0.172351 0.076214 0.410055
O O6 0.095223 0.989796 0.197717
O O7 0.224006 0.014179 0.151395
O O8 0.313365 0.084144 0.413638
#
# Coordination Sequence:
#
# PCOD9370951 Si02
#       4
#    16  16  16  16
#     4  12  21  42  70 101 131 180 233 291 336 427
#     4  10  24  39  70  98 135 185 230 275 358 417
#     4  10  20  43  67  93 136 184 227 274 363 414
#     4  10  21  40  68  97 127 182 235 275 334 429
#
# _framework density 27.583276999999999
#
# number of rings (size 3 to 8) (size 9 to 14) (size 15 to 20)
#    1.500    0.000    5.000    0.000    3.500    0.000 
#    0.000    1.250    0.000    0.000    0.000    0.000 
#    0.000    0.000    0.000    0.000    0.000    0.000 
#
# Total GULP energy -89148.610521 kJ/mol
# GULP energy per Si atom -5571.788158 kJ/mol
# Density = 2.752050 g / cm^3
# Si number density = 27.583277 Si / 1000 Ang^3
#
#
#
# Elastic Constant Matrix: (Units=GPa)
#
#
# Indices 1 2 3 4 5 6 
#
# 1 49.2222 25.8357 19.8166 0.0006 -0.0006 -0.0004
# 2 25.8357 124.5412 47.7653 0.0021 -0.0018 -0.0012
# 3 19.8166 47.7653 155.6028 0.0037 -0.0036 -0.0022
# 4 0.0006 0.0021 0.0037 39.5318 -0.0034 -0.0022
# 5 -0.0006 -0.0018 -0.0036 -0.0034 40.6887 0.0020
# 6 -0.0004 -0.0012 -0.0022 -0.0022 0.0020 27.3704
#
#
#
# Elastic Compliance Matrix: (Units=1/GPa)
#
#
# Indices 1 2 3 4 5 6 
#
# 1 0.023176 -0.004166 -0.001673 0.000000 0.000000 0.000000
# 2 -0.004166 0.009850 -0.002493 0.000000 0.000000 0.000000
# 3 -0.001673 -0.002493 0.007405 -0.000001 0.000001 0.000000
# 4 0.000000 0.000000 -0.000001 0.025296 0.000002 0.000002
# 5 0.000000 0.000000 0.000001 0.000002 0.024577 -0.000002
# 6 0.000000 0.000000 0.000000 0.000002 -0.000002 0.036536
#
#
# Mechanical properties :
#
#
# Convention : Reuss Voigt Hill
#
# Bulk Modulus (GPa) = 42.07500 57.35571 49.71536
# Shear Modulus (GPa) = 33.01939 37.24809 35.13374
#
# Velocity S-wave (km/s) = 3.46364 3.67875 3.57281
# Velocity P-wave (km/s) = 5.59309 6.23563 5.92308
#
# Compressibility (1/GPa) = 0.02376708
#
# Stress axis : x y z
#
# Youngs Moduli (GPa) = 43.14761 101.52368 135.04532
#
# Poissons Ratio (x) = 0.42298 0.22588
# Poissons Ratio (y) = 0.17977 0.33667
# Poissons Ratio (z) = 0.07217 0.25310
#
# Static dielectric constant tensor:
#      x y z
#    x 2.167560 0.000000 0.000000 
#    y 0.000000 2.131500 0.000000 
#    z 0.000000 0.000000 2.194870 
# 
# From -- ./inp_files/3653.got.cif
#   From: 2010.05.17/outbox.cif.g08.bks.cpg/sg43_2_cif.got.tgz:3653.got - 2010.06.03 19:21:55.
