data_PCOD9370388
_publ_section_title
;
Structure prediction by ZEFSAII (Michael W. Deem and Ramdas Pophale) SiO2 
 PCOD9370388
Probable space group: F D D 2
;
_chemical_formula_sum "Si O2"
_cell_formula_units_Z 112
_cell_length_a 13.414207
_cell_length_b 14.293405
_cell_length_c 27.848324
_cell_angle_alpha 90.000000
_cell_angle_beta 90.000000
_cell_angle_gamma 90.000000
_cell_volume 5339.489864
_symmetry_space_group_name_H-M "F D D 2"
_symmetry_group_IT_number 43
_symmetry_cell_setting 'orthorhombic'
loop_
_space_group_symop_operation_xyz
x,y,z
-x,-y,z
1/4-x,1/4+y,1/4+z
1/4+x,1/4-y,1/4+z
x,1/2+y,1/2+z
-x,1/2-y,1/2+z
1/4-x,3/4+y,3/4+z
1/4+x,3/4-y,3/4+z
1/2+x,y,1/2+z
1/2-x,-y,1/2+z
3/4-x,1/4+y,3/4+z
3/4+x,1/4-y,3/4+z
1/2+x,1/2+y,z
1/2-x,1/2-y,z
3/4-x,3/4+y,1/4+z
3/4+x,3/4-y,1/4+z
loop_
_atom_site_type_symbol
_atom_site_label
_atom_site_fract_x
_atom_site_fract_y
_atom_site_fract_z
Si Si1 0.323267 0.900955 0.583680
Si Si2 0.956570 0.782395 0.489588
Si Si3 0.222212 0.643943 0.403241
Si Si4 0.004094 0.601770 0.434918
Si Si5 0.345853 0.315261 0.397283
Si Si6 0.565075 0.595730 0.749423
Si Si7 0.240409 0.523652 0.834810
O O1 0.293803 0.845514 0.632159
O O2 0.235588 0.900546 0.544062
O O3 0.420463 0.842943 0.565350
O O4 0.347231 0.002692 0.606533
O O5 0.903651 0.836926 0.446614
O O6 0.952426 0.678774 0.466819
O O7 0.067935 0.822040 0.500062
O O8 0.918495 0.764991 0.543173
O O9 0.250000 0.750000 0.388373
O O10 0.113497 0.641894 0.426618
O O11 0.293761 0.612428 0.446809
O O12 0.219744 0.568188 0.361474
O O13 0.000000 0.500000 0.457677
O O14 0.250000 0.250000 0.408898
O O15 0.312850 0.410463 0.372869
O O16 0.500000 0.500000 0.749817
#
# Coordination Sequence:
#
# PCOD9370388 Si02
#       7
#    16  16  16  16  16  16  16
#     4  10  19  36  66  96 126 166 217 281 329 396
#     4  11  22  39  66  94 133 173 218 281 337 404
#     4  11  22  37  59  94 135 166 208 276 339 409
#     4  11  19  33  62  99 128 160 215 272 345 399
#     4   9  23  43  61  96 136 174 229 277 331 410
#     4  11  19  36  60  98 134 158 210 280 342 389
#     4  11  21  41  65  90 131 175 224 278 336 403
#
# _framework density 20.975787
#
# number of rings (size 3 to 8) (size 9 to 14) (size 15 to 20)
#    0.000    1.429    5.714    1.286    0.000    2.857 
#    0.000    5.000    0.000    0.000    0.000    0.000 
#    0.000    0.000    0.000    0.000    0.000    0.000 
#
# Total GULP energy -156062.007241 kJ/mol
# GULP energy per Si atom -5573.643116 kJ/mol
# Density = 2.092804 g / cm^3
# Si number density = 20.975787 Si / 1000 Ang^3
#
#
#
# Elastic Constant Matrix: (Units=GPa)
#
#
# Indices 1 2 3 4 5 6 
#
# 1 60.0578 16.6585 26.2659 0.0000 0.0000 0.0000
# 2 16.6585 60.9860 6.8574 0.0000 0.0000 0.0000
# 3 26.2659 6.8574 100.0284 0.0000 0.0000 0.0000
# 4 0.0000 0.0000 0.0000 17.4329 0.0000 0.0000
# 5 0.0000 0.0000 0.0000 0.0000 46.5458 0.0000
# 6 0.0000 0.0000 0.0000 0.0000 0.0000 20.1050
#
#
#
# Elastic Compliance Matrix: (Units=1/GPa)
#
#
# Indices 1 2 3 4 5 6 
#
# 1 0.020197 -0.004959 -0.004963 0.000000 0.000000 0.000000
# 2 -0.004959 0.017742 0.000086 0.000000 0.000000 0.000000
# 3 -0.004963 0.000086 0.011295 0.000000 0.000000 0.000000
# 4 0.000000 0.000000 0.000000 0.057363 0.000000 0.000000
# 5 0.000000 0.000000 0.000000 0.000000 0.021484 0.000000
# 6 0.000000 0.000000 0.000000 0.000000 0.000000 0.049739
#
#
# Mechanical properties :
#
#
# Convention : Reuss Voigt Hill
#
# Bulk Modulus (GPa) = 33.82866 35.62620 34.72743
# Shear Modulus (GPa) = 24.11433 28.23610 26.17522
#
# Velocity S-wave (km/s) = 3.39429 3.67294 3.53636
# Velocity P-wave (km/s) = 5.61464 5.91681 5.76770
#
# Compressibility (1/GPa) = 0.02956073
#
# Stress axis : x y z
#
# Youngs Moduli (GPa) = 49.51289 56.36325 88.53794
#
# Poissons Ratio (x) = 0.27949 0.43945
# Poissons Ratio (y) = 0.24552 -0.00760
# Poissons Ratio (z) = 0.24575 -0.00484
#
# Static dielectric constant tensor:
#      x y z
#    x 1.811370 0.000000 0.000000 
#    y 0.000000 1.756900 0.000000 
#    z 0.000000 0.000000 1.847360 
# 
# From -- ./inp_files/21714.got.cif
#   From: 2010.05.17/outbox.cif.g08.bks.cpg/sg43_11_cif.got.tgz:21714.got - 2010.06.03 19:21:55.
