data_PCOD9370985
_publ_section_title
;
Structure prediction by ZEFSAII (Michael W. Deem and Ramdas Pophale) SiO2 
 PCOD9370985
Probable space group: F D D 2
;
_chemical_formula_sum "Si O2"
_cell_formula_units_Z 72
_cell_length_a 11.350243
_cell_length_b 11.492511
_cell_length_c 26.666407
_cell_angle_alpha 90.000000
_cell_angle_beta 90.000000
_cell_angle_gamma 90.000000
_cell_volume 3478.440596
_symmetry_space_group_name_H-M "F D D 2"
_symmetry_group_IT_number 43
_symmetry_cell_setting 'orthorhombic'
loop_
_space_group_symop_operation_xyz
x,y,z
-x,-y,z
1/4-x,1/4+y,1/4+z
1/4+x,1/4-y,1/4+z
x,1/2+y,1/2+z
-x,1/2-y,1/2+z
1/4-x,3/4+y,3/4+z
1/4+x,3/4-y,3/4+z
1/2+x,y,1/2+z
1/2-x,-y,1/2+z
3/4-x,1/4+y,3/4+z
3/4+x,1/4-y,3/4+z
1/2+x,1/2+y,z
1/2-x,1/2-y,z
3/4-x,3/4+y,1/4+z
3/4+x,3/4-y,1/4+z
loop_
_atom_site_type_symbol
_atom_site_label
_atom_site_fract_x
_atom_site_fract_y
_atom_site_fract_z
Si Si1 0.037662 0.372947 0.012730
Si Si2 0.500000 0.500000 0.786259
Si Si3 0.797965 0.506472 0.168611
Si Si4 0.918903 0.398078 0.606157
Si Si5 0.512518 0.165550 0.130708
O O1 0.178661 0.352212 0.009688
O O2 0.000000 0.500000 0.995329
O O3 0.996596 0.363246 0.070731
O O4 0.001902 0.270654 0.974616
O O5 0.401953 0.567551 0.817547
O O6 0.684615 0.543536 0.137809
O O7 0.866360 0.391179 0.149410
O O8 0.900650 0.603430 0.158558
O O9 0.000000 0.500000 0.584663
O O10 0.997789 0.303848 0.636079
#
# Coordination Sequence:
#
# PCOD9370985 Si02
#       5
#    16   8  16  16  16
#     4  11  21  38  70  98 125 177 226 269 336 398
#     4  10  20  46  64  86 134 172 218 276 330 398
#     4  11  21  40  66  94 131 173 217 273 335 389
#     4  11  22  38  66  92 129 174 213 271 334 389
#     4  10  21  44  66  94 136 175 219 280 330 393
#
# _framework density 20.698930000000001
#
# number of rings (size 3 to 8) (size 9 to 14) (size 15 to 20)
#    0.000    1.333    6.667    1.333    3.111    0.000 
#    0.000   13.333    9.778    0.000    0.000    0.000 
#    0.000    0.000    0.000    0.000    0.000    0.000 
#
# Total GULP energy -100230.326828 kJ/mol
# GULP energy per Si atom -5568.351490 kJ/mol
# Density = 2.065182 g / cm^3
# Si number density = 20.698930 Si / 1000 Ang^3
#
#
#
# Elastic Constant Matrix: (Units=GPa)
#
#
# Indices 1 2 3 4 5 6 
#
# 1 58.7729 62.3106 12.4523 0.0000 0.0000 0.0000
# 2 62.3106 129.6020 23.1973 0.0000 0.0000 0.0000
# 3 12.4523 23.1973 91.5343 0.0000 0.0000 0.0000
# 4 0.0000 0.0000 0.0000 18.6241 0.0000 0.0000
# 5 0.0000 0.0000 0.0000 0.0000 23.9707 0.0000
# 6 0.0000 0.0000 0.0000 0.0000 0.0000 55.9386
#
#
#
# Elastic Compliance Matrix: (Units=1/GPa)
#
#
# Indices 1 2 3 4 5 6 
#
# 1 0.034728 -0.016604 -0.000516 0.000000 0.000000 0.000000
# 2 -0.016604 0.016021 -0.001801 0.000000 0.000000 0.000000
# 3 -0.000516 -0.001801 0.011452 0.000000 0.000000 0.000000
# 4 0.000000 0.000000 0.000000 0.053694 0.000000 0.000000
# 5 0.000000 0.000000 0.000000 0.000000 0.041718 0.000000
# 6 0.000000 0.000000 0.000000 0.000000 0.000000 0.017877
#
#
# Mechanical properties :
#
#
# Convention : Reuss Voigt Hill
#
# Bulk Modulus (GPa) = 41.05633 52.86993 46.96313
# Shear Modulus (GPa) = 22.57834 31.83663 27.20748
#
# Velocity S-wave (km/s) = 3.30631 3.92609 3.62945
# Velocity P-wave (km/s) = 5.86972 6.79338 6.34837
#
# Compressibility (1/GPa) = 0.02435678
#
# Stress axis : x y z
#
# Youngs Moduli (GPa) = 28.79560 62.41687 87.32367
#
# Poissons Ratio (x) = 1.03637 0.04509
# Poissons Ratio (y) = 0.47812 0.15731
# Poissons Ratio (z) = 0.01487 0.11244
#
# Static dielectric constant tensor:
#      x y z
#    x 1.769470 0.000000 0.000000 
#    y 0.000000 1.751210 0.000000 
#    z 0.000000 0.000000 1.906330 
# 
# From -- ./inp_files/24852.got.cif
#   From: 2010.05.17/outbox.cif.g08.bks.cpg/sg43_13_cif.got.tgz:24852.got - 2010.06.03 19:21:55.
