data_PCOD9370810
_publ_section_title
;
Structure prediction by ZEFSAII (Michael W. Deem and Ramdas Pophale) SiO2 
 PCOD9370810
Probable space group: F D D 2
;
_chemical_formula_sum "Si O2"
_cell_formula_units_Z 120
_cell_length_a 27.806868
_cell_length_b 10.479872
_cell_length_c 21.362244
_cell_angle_alpha 90.000000
_cell_angle_beta 90.000000
_cell_angle_gamma 90.000000
_cell_volume 6225.223164
_symmetry_space_group_name_H-M "F D D 2"
_symmetry_group_IT_number 43
_symmetry_cell_setting 'orthorhombic'
loop_
_space_group_symop_operation_xyz
x,y,z
-x,-y,z
1/4-x,1/4+y,1/4+z
1/4+x,1/4-y,1/4+z
x,1/2+y,1/2+z
-x,1/2-y,1/2+z
1/4-x,3/4+y,3/4+z
1/4+x,3/4-y,3/4+z
1/2+x,y,1/2+z
1/2-x,-y,1/2+z
3/4-x,1/4+y,3/4+z
3/4+x,1/4-y,3/4+z
1/2+x,1/2+y,z
1/2-x,1/2-y,z
3/4-x,3/4+y,1/4+z
3/4+x,3/4-y,1/4+z
loop_
_atom_site_type_symbol
_atom_site_label
_atom_site_fract_x
_atom_site_fract_y
_atom_site_fract_z
Si Si1 0.255068 0.027298 0.818920
Si Si2 0.652962 0.987252 0.039452
Si Si3 0.572502 0.630524 0.462521
Si Si4 0.000000 0.500000 0.624855
Si Si5 0.555375 0.502798 0.329906
Si Si6 0.404239 0.155641 0.130789
Si Si7 0.297699 0.670981 0.435764
Si Si8 0.406065 0.917497 0.703086
O O1 0.277015 0.069453 0.752598
O O2 0.201376 0.073660 0.836739
O O3 0.287576 0.096667 0.871414
O O4 0.256649 0.876433 0.832831
O O5 0.674185 0.109949 0.074313
O O6 0.640281 0.874404 0.086646
O O7 0.604461 0.036499 0.005635
O O8 0.687926 0.932305 0.986771
O O9 0.559482 0.559850 0.398741
O O10 0.608985 0.745565 0.445805
O O11 0.047479 0.520944 0.667869
O O12 0.500000 0.500000 0.311380
O O13 0.582929 0.584221 0.277081
O O14 0.399443 0.278914 0.173651
O O15 0.412990 0.029047 0.172020
O O16 0.250000 0.750000 0.453278
#
# Coordination Sequence:
#
# PCOD9370810 Si02
#       8
#    16  16  16   8  16  16  16  16
#     4  10  21  40  65  93 124 166 212 256 319 380
#     4  11  23  40  64  96 120 163 213 266 315 380
#     4  11  24  39  65  93 129 161 212 268 321 374
#     4  10  20  40  66  90 122 166 216 262 304 388
#     4  11  25  41  64  92 130 166 210 268 319 374
#     4  10  22  41  64  94 125 167 211 257 315 391
#     4  10  21  38  65  91 126 164 206 258 315 386
#     4  10  23  40  63  92 124 167 215 257 316 386
#
# _framework density 19.276418
#
# number of rings (size 3 to 8) (size 9 to 14) (size 15 to 20)
#    0.000    1.600    2.000    2.400   11.200    1.067 
#    2.400    0.000    0.000    0.000    0.000    0.000 
#    0.000    0.000    0.000    0.000    0.000    0.000 
#
# Total GULP energy -167598.757131 kJ/mol
# GULP energy per Si atom -5586.625238 kJ/mol
# Density = 1.923254 g / cm^3
# Si number density = 19.276418 Si / 1000 Ang^3
#
#
#
# Elastic Constant Matrix: (Units=GPa)
#
#
# Indices 1 2 3 4 5 6 
#
# 1 30.3328 25.9067 39.3607 0.0000 0.0000 0.0000
# 2 25.9067 128.5836 71.5315 0.0000 0.0000 0.0000
# 3 39.3607 71.5315 119.7231 0.0000 0.0000 0.0000
# 4 0.0000 0.0000 0.0000 14.8674 0.0000 0.0000
# 5 0.0000 0.0000 0.0000 0.0000 15.5214 0.0000
# 6 0.0000 0.0000 0.0000 0.0000 0.0000 6.8053
#
#
#
# Elastic Compliance Matrix: (Units=1/GPa)
#
#
# Indices 1 2 3 4 5 6 
#
# 1 0.057717 -0.001607 -0.018015 0.000000 0.000000 0.000000
# 2 -0.001607 0.011694 -0.006458 0.000000 0.000000 0.000000
# 3 -0.018015 -0.006458 0.018134 0.000000 0.000000 0.000000
# 4 0.000000 0.000000 0.000000 0.067261 0.000000 0.000000
# 5 0.000000 0.000000 0.000000 0.000000 0.064427 0.000000
# 6 0.000000 0.000000 0.000000 0.000000 0.000000 0.146945
#
#
# Mechanical properties :
#
#
# Convention : Reuss Voigt Hill
#
# Bulk Modulus (GPa) = 28.26141 61.35968 44.81055
# Shear Modulus (GPa) = 11.62429 16.89485 14.25957
#
# Velocity S-wave (km/s) = 2.45833 2.96370 2.72277
# Velocity P-wave (km/s) = 4.76978 6.60394 5.76033
#
# Compressibility (1/GPa) = 0.03538393
#
# Stress axis : x y z
#
# Youngs Moduli (GPa) = 17.32588 85.51706 55.14462
#
# Poissons Ratio (x) = 0.13740 0.99345
# Poissons Ratio (y) = 0.02784 0.35615
# Poissons Ratio (z) = 0.31213 0.55230
#
# Static dielectric constant tensor:
#      x y z
#    x 1.693690 0.000000 0.000000 
#    y 0.000000 1.659280 0.000000 
#    z 0.000000 0.000000 1.659620 
# 
# From -- ./inp_files/15273.got.cif
#   From: 2010.05.17/outbox.cif.g08.bks.cpg/sg43_8_cif.got.tgz:15273.got - 2010.06.03 19:21:55.
