data_PCOD9370489
_publ_section_title
;
Structure prediction by ZEFSAII (Michael W. Deem and Ramdas Pophale) SiO2 
 PCOD9370489
Probable space group: F D D 2
;
_chemical_formula_sum "Si O2"
_cell_formula_units_Z 64
_cell_length_a 7.813660
_cell_length_b 19.141044
_cell_length_c 15.623554
_cell_angle_alpha 90.000000
_cell_angle_beta 90.000000
_cell_angle_gamma 90.000000
_cell_volume 2336.683888
_symmetry_space_group_name_H-M "F D D 2"
_symmetry_group_IT_number 43
_symmetry_cell_setting 'orthorhombic'
loop_
_space_group_symop_operation_xyz
x,y,z
-x,-y,z
1/4-x,1/4+y,1/4+z
1/4+x,1/4-y,1/4+z
x,1/2+y,1/2+z
-x,1/2-y,1/2+z
1/4-x,3/4+y,3/4+z
1/4+x,3/4-y,3/4+z
1/2+x,y,1/2+z
1/2-x,-y,1/2+z
3/4-x,1/4+y,3/4+z
3/4+x,1/4-y,3/4+z
1/2+x,1/2+y,z
1/2-x,1/2-y,z
3/4-x,3/4+y,1/4+z
3/4+x,3/4-y,1/4+z
loop_
_atom_site_type_symbol
_atom_site_label
_atom_site_fract_x
_atom_site_fract_y
_atom_site_fract_z
Si Si1 0.654807 0.047841 0.181650
Si Si2 0.157085 0.550567 0.451550
Si Si3 0.379251 0.425835 0.478993
Si Si4 0.422568 0.666611 0.900837
O O1 0.636462 0.057235 0.079354
O O2 0.709443 0.123399 0.215997
O O3 0.500000 0.000000 0.216779
O O4 0.805706 0.991647 0.194259
O O5 0.324871 0.501564 0.437852
O O6 0.136875 0.569229 0.551673
O O7 0.000000 0.500000 0.427532
O O8 0.101209 0.622659 0.406387
O O9 0.223981 0.377518 0.445778
#
# Coordination Sequence:
#
# PCOD9370489 Si02
#       4
#    16  16  16  16
#     4  11  25  44  69 104 144 187 246 304 359 435
#     4   9  19  36  67 104 142 187 240 295 360 439
#     4  10  21  44  71 100 143 191 241 302 367 436
#     4  10  19  40  68 102 140 185 237 295 362 442
#
# _framework density 27.389243
#
# number of rings (size 3 to 8) (size 9 to 14) (size 15 to 20)
#    0.000    2.000    0.000    5.250    0.000    4.000 
#    0.000   23.750    0.000    0.000    0.000    0.000 
#    0.000    0.000    0.000    0.000    0.000    0.000 
#
# Total GULP energy -89458.205972 kJ/mol
# GULP energy per Si atom -5591.137873 kJ/mol
# Density = 2.732690 g / cm^3
# Si number density = 27.389243 Si / 1000 Ang^3
#
#
#
# Elastic Constant Matrix: (Units=GPa)
#
#
# Indices 1 2 3 4 5 6 
#
# 1 138.8757 67.2719 23.1876 0.0000 0.0000 0.0000
# 2 67.2719 288.6973 20.8688 0.0000 0.0000 0.0000
# 3 23.1876 20.8688 66.7362 0.0000 0.0000 0.0000
# 4 0.0000 0.0000 0.0000 43.2202 0.0000 0.0000
# 5 0.0000 0.0000 0.0000 0.0000 46.8590 0.0000
# 6 0.0000 0.0000 0.0000 0.0000 0.0000 75.9731
#
#
#
# Elastic Compliance Matrix: (Units=1/GPa)
#
#
# Indices 1 2 3 4 5 6 
#
# 1 0.008471 -0.001802 -0.002380 0.000000 0.000000 0.000000
# 2 -0.001802 0.003927 -0.000602 0.000000 0.000000 0.000000
# 3 -0.002380 -0.000602 0.015999 0.000000 0.000000 0.000000
# 4 0.000000 0.000000 0.000000 0.023137 0.000000 0.000000
# 5 0.000000 0.000000 0.000000 0.000000 0.021341 0.000000
# 6 0.000000 0.000000 0.000000 0.000000 0.000000 0.013163
#
#
# Mechanical properties :
#
#
# Convention : Reuss Voigt Hill
#
# Bulk Modulus (GPa) = 53.10586 79.66285 66.38435
# Shear Modulus (GPa) = 49.07635 58.74250 53.90943
#
# Velocity S-wave (km/s) = 4.23757 4.63615 4.44133
# Velocity P-wave (km/s) = 6.58590 7.60310 7.11270
#
# Compressibility (1/GPa) = 0.01883031
#
# Stress axis : x y z
#
# Youngs Moduli (GPa) = 118.05200 254.63335 62.50204
#
# Poissons Ratio (x) = 0.45881 0.14874
# Poissons Ratio (y) = 0.21271 0.03763
# Poissons Ratio (z) = 0.28093 0.15329
#
# Static dielectric constant tensor:
#      x y z
#    x 1.939750 0.000000 0.000000 
#    y 0.000000 2.267860 0.000000 
#    z 0.000000 0.000000 1.988800 
# 
# From -- ./inp_files/16108.got.cif
#   From: 2010.05.17/outbox.cif.g08.bks.cpg/sg43_9_cif.got.tgz:16108.got - 2010.06.03 19:21:55.
