data_PCOD9370751
_publ_section_title
;
Structure prediction by ZEFSAII (Michael W. Deem and Ramdas Pophale) SiO2 
 PCOD9370751
Probable space group: F D D 2
;
_chemical_formula_sum "Si O2"
_cell_formula_units_Z 96
_cell_length_a 20.011921
_cell_length_b 7.810864
_cell_length_c 33.284433
_cell_angle_alpha 90.000000
_cell_angle_beta 90.000000
_cell_angle_gamma 90.000000
_cell_volume 5202.702813
_symmetry_space_group_name_H-M "F D D 2"
_symmetry_group_IT_number 43
_symmetry_cell_setting 'orthorhombic'
loop_
_space_group_symop_operation_xyz
x,y,z
-x,-y,z
1/4-x,1/4+y,1/4+z
1/4+x,1/4-y,1/4+z
x,1/2+y,1/2+z
-x,1/2-y,1/2+z
1/4-x,3/4+y,3/4+z
1/4+x,3/4-y,3/4+z
1/2+x,y,1/2+z
1/2-x,-y,1/2+z
3/4-x,1/4+y,3/4+z
3/4+x,1/4-y,3/4+z
1/2+x,1/2+y,z
1/2-x,1/2-y,z
3/4-x,3/4+y,1/4+z
3/4+x,3/4-y,1/4+z
loop_
_atom_site_type_symbol
_atom_site_label
_atom_site_fract_x
_atom_site_fract_y
_atom_site_fract_z
Si Si1 0.250000 0.250000 0.173311
Si Si2 0.250000 0.750000 0.356040
Si Si3 0.463236 0.840767 0.704908
Si Si4 0.610127 0.274634 0.888252
Si Si5 0.888947 0.320178 0.478833
Si Si6 0.909677 0.323243 0.163302
Si Si7 0.550607 0.159095 0.565522
O O1 0.288771 0.389902 0.146504
O O2 0.303905 0.160667 0.202191
O O3 0.316212 0.721816 0.383264
O O4 0.238342 0.576382 0.331414
O O5 0.426129 0.693938 0.729675
O O6 0.520069 0.760396 0.676669
O O7 0.500000 0.000000 0.726728
O O8 0.407052 0.916398 0.675436
O O9 0.645318 0.346441 0.848390
O O10 0.614586 0.068918 0.891605
O O11 0.871286 0.151085 0.453586
O O12 0.915328 0.295045 0.523432
O O13 0.500000 0.000000 0.560186
#
# Coordination Sequence:
#
# PCOD9370751 Si02
#       7
#     8   8  16  16  16  16  16
#     4  10  22  40  57  86 126 168 200 254 319 386
#     4  12  20  38  69  92 116 162 234 250 309 392
#     4   9  17  36  64  87 111 163 212 250 297 385
#     4  10  20  39  66  88 124 167 213 257 314 384
#     4  11  22  37  60  92 132 155 207 272 325 363
#     4  11  19  37  68  92 114 167 225 258 297 397
#     4  12  23  41  63  94 127 166 207 280 322 375
#
# _framework density 18.451948000000002
#
# number of rings (size 3 to 8) (size 9 to 14) (size 15 to 20)
#    0.000    1.333    5.833    1.500    0.000    2.000 
#    6.000    0.000    3.667    0.000    0.000    0.000 
#    0.000    0.000    0.000    0.000    0.000    0.000 
#
# Total GULP energy -133861.352941 kJ/mol
# GULP energy per Si atom -5577.556373 kJ/mol
# Density = 1.840995 g / cm^3
# Si number density = 18.451948 Si / 1000 Ang^3
#
#
#
# Elastic Constant Matrix: (Units=GPa)
#
#
# Indices 1 2 3 4 5 6 
#
# 1 67.6627 28.7538 17.6601 0.0000 0.0000 0.0000
# 2 28.7538 104.4454 36.1781 0.0000 0.0000 0.0000
# 3 17.6601 36.1781 91.6299 0.0000 0.0000 0.0000
# 4 0.0000 0.0000 0.0000 17.0423 0.0000 0.0000
# 5 0.0000 0.0000 0.0000 0.0000 17.2004 0.0000
# 6 0.0000 0.0000 0.0000 0.0000 0.0000 22.5305
#
#
#
# Elastic Compliance Matrix: (Units=1/GPa)
#
#
# Indices 1 2 3 4 5 6 
#
# 1 0.016950 -0.004095 -0.001650 0.000000 0.000000 0.000000
# 2 -0.004095 0.012080 -0.003981 0.000000 0.000000 0.000000
# 3 -0.001650 -0.003981 0.012803 0.000000 0.000000 0.000000
# 4 0.000000 0.000000 0.000000 0.058678 0.000000 0.000000
# 5 0.000000 0.000000 0.000000 0.000000 0.058138 0.000000
# 6 0.000000 0.000000 0.000000 0.000000 0.000000 0.044384
#
#
# Mechanical properties :
#
#
# Convention : Reuss Voigt Hill
#
# Bulk Modulus (GPa) = 44.67713 47.65799 46.16756
# Shear Modulus (GPa) = 21.74431 23.43104 22.58767
#
# Velocity S-wave (km/s) = 3.43655 3.56735 3.50256
# Velocity P-wave (km/s) = 6.32548 6.54616 6.43677
#
# Compressibility (1/GPa) = 0.02238282
#
# Stress axis : x y z
#
# Youngs Moduli (GPa) = 58.99718 82.77843 78.10599
#
# Poissons Ratio (x) = 0.33896 0.12888
# Poissons Ratio (y) = 0.24158 0.31090
# Poissons Ratio (z) = 0.09735 0.32950
#
# Static dielectric constant tensor:
#      x y z
#    x 1.645240 0.000000 0.000000 
#    y 0.000000 1.706510 0.000000 
#    z 0.000000 0.000000 1.607900 
# 
# From -- ./inp_files/26324.got.cif
#   From: 2010.05.17/outbox.cif.g08.bks.cpg/sg43_14_cif.got.tgz:26324.got - 2010.06.03 19:21:55.
