data_PCOD9370030
_publ_section_title
;
Structure prediction by ZEFSAII (Michael W. Deem and Ramdas Pophale) SiO2 
 PCOD9370030
Probable space group: F D D 2
;
_chemical_formula_sum "Si O2"
_cell_formula_units_Z 128
_cell_length_a 21.851155
_cell_length_b 6.967781
_cell_length_c 30.720809
_cell_angle_alpha 90.000000
_cell_angle_beta 90.000000
_cell_angle_gamma 90.000000
_cell_volume 4677.367978
_symmetry_space_group_name_H-M "F D D 2"
_symmetry_group_IT_number 43
_symmetry_cell_setting 'orthorhombic'
loop_
_space_group_symop_operation_xyz
x,y,z
-x,-y,z
1/4-x,1/4+y,1/4+z
1/4+x,1/4-y,1/4+z
x,1/2+y,1/2+z
-x,1/2-y,1/2+z
1/4-x,3/4+y,3/4+z
1/4+x,3/4-y,3/4+z
1/2+x,y,1/2+z
1/2-x,-y,1/2+z
3/4-x,1/4+y,3/4+z
3/4+x,1/4-y,3/4+z
1/2+x,1/2+y,z
1/2-x,1/2-y,z
3/4-x,3/4+y,1/4+z
3/4+x,3/4-y,1/4+z
loop_
_atom_site_type_symbol
_atom_site_label
_atom_site_fract_x
_atom_site_fract_y
_atom_site_fract_z
Si Si1 0.679736 0.218017 0.770970
Si Si2 0.986880 0.227598 0.257810
Si Si3 0.602025 0.406763 0.923683
Si Si4 0.381447 0.857043 0.123249
Si Si5 0.926083 0.214206 0.835198
Si Si6 0.391269 0.030209 0.962433
Si Si7 0.933560 0.978523 0.544907
Si Si8 0.513005 0.225975 0.663388
O O1 0.750000 0.250000 0.783154
O O2 0.667634 0.248733 0.719660
O O3 0.632231 0.325625 0.802890
O O4 0.671243 0.990994 0.780426
O O5 0.917859 0.277028 0.244380
O O6 0.016885 0.293804 0.302348
O O7 0.018334 0.298303 0.213291
O O8 0.000000 0.000000 0.258562
O O9 0.561787 0.395029 0.880268
O O10 0.665880 0.479604 0.902199
O O11 0.609607 0.182990 0.940810
O O12 0.343388 0.677891 0.103135
O O13 0.353176 0.908575 0.169640
O O14 0.386061 0.004760 0.083771
O O15 0.452644 0.807793 0.138925
O O16 0.439246 0.087550 0.999154
O O17 0.000000 0.000000 0.565227
O O18 0.500000 0.000000 0.663702
#
# Coordination Sequence:
#
# PCOD9370030 Si02
#       8
#    16  16  16  16  16  16  16  16
#     4  10  21  35  55  82 114 143 181 231 288 331
#     4  10  14  26  47  75 105 135 177 234 280 310
#     4  10  17  30  48  79 110 137 177 234 282 319
#     4   9  18  28  51  80 103 139 187 221 279 327
#     4  10  18  26  50  81 105 135 181 226 277 328
#     4   9  17  32  53  74 109 145 182 235 280 320
#     4  10  21  37  57  81 114 148 185 233 280 340
#     4  10  14  26  49  76 107 136 173 236 277 309
#
# _framework density 27.365817
#
# number of rings (size 3 to 8) (size 9 to 14) (size 15 to 20)
#    0.000    2.250    6.250    1.500    3.500    0.000 
#    0.000    9.375    5.500    0.000    0.000    0.000 
#    0.000    0.000    0.000    0.000    0.000    0.000 
#
# Total GULP energy -178510.727268 kJ/mol
# GULP energy per Si atom -5578.460227 kJ/mol
# Density = 2.730353 g / cm^3
# Si number density = 27.365817 Si / 1000 Ang^3
#
#
#
# Elastic Constant Matrix: (Units=GPa)
#
#
# Indices 1 2 3 4 5 6 
#
# 1 66.2280 -4.8933 41.6069 -0.0005 0.0008 -0.0032
# 2 -4.8933 91.3645 49.0210 -0.0010 0.0015 -0.0032
# 3 41.6069 49.0210 259.7282 -0.0002 0.0002 -0.0006
# 4 -0.0005 -0.0010 -0.0002 35.5738 -0.0002 0.0006
# 5 0.0008 0.0015 0.0002 -0.0002 56.9433 -0.0012
# 6 -0.0032 -0.0032 -0.0006 0.0006 -0.0012 25.9465
#
#
#
# Elastic Compliance Matrix: (Units=1/GPa)
#
#
# Indices 1 2 3 4 5 6 
#
# 1 0.017366 0.002696 -0.003291 0.000000 0.000000 0.000002
# 2 0.002696 0.012597 -0.002809 0.000000 0.000000 0.000002
# 3 -0.003291 -0.002809 0.004908 0.000000 0.000000 -0.000001
# 4 0.000000 0.000000 0.000000 0.028111 0.000000 -0.000001
# 5 0.000000 0.000000 0.000000 0.000000 0.017561 0.000001
# 6 0.000002 0.000002 -0.000001 -0.000001 0.000001 0.038541
#
#
# Mechanical properties :
#
#
# Convention : Reuss Voigt Hill
#
# Bulk Modulus (GPa) = 35.63592 65.42108 50.52850
# Shear Modulus (GPa) = 36.96975 45.79845 41.38410
#
# Velocity S-wave (km/s) = 3.67951 4.09536 3.89299
# Velocity P-wave (km/s) = 5.57692 6.80593 6.22184
#
# Compressibility (1/GPa) = 0.02806157
#
# Stress axis : x y z
#
# Youngs Moduli (GPa) = 57.58426 79.38466 203.76704
#
# Poissons Ratio (x) = -0.21400 0.67053
# Poissons Ratio (y) = -0.15523 0.57246
# Poissons Ratio (z) = 0.18949 0.22302
#
# Static dielectric constant tensor:
#      x y z
#    x 2.420730 0.000010 0.000000 
#    y 0.000010 2.382600 0.000000 
#    z 0.000000 0.000000 2.128090 
# 
# From -- ./inp_files/26653.got.cif
#   From: 2010.05.17/outbox.cif.g08.bks.cpg/sg43_14_cif.got.tgz:26653.got - 2010.06.03 19:21:55.
