data_PCOD9370101
_publ_section_title
;
Structure prediction by ZEFSAII (Michael W. Deem and Ramdas Pophale) SiO2 
 PCOD9370101
Probable space group: F D D 2
;
_chemical_formula_sum "Si O2"
_cell_formula_units_Z 96
_cell_length_a 19.406304
_cell_length_b 7.244664
_cell_length_c 30.788638
_cell_angle_alpha 90.000000
_cell_angle_beta 90.000000
_cell_angle_gamma 90.000000
_cell_volume 4328.640872
_symmetry_space_group_name_H-M "F D D 2"
_symmetry_group_IT_number 43
_symmetry_cell_setting 'orthorhombic'
loop_
_space_group_symop_operation_xyz
x,y,z
-x,-y,z
1/4-x,1/4+y,1/4+z
1/4+x,1/4-y,1/4+z
x,1/2+y,1/2+z
-x,1/2-y,1/2+z
1/4-x,3/4+y,3/4+z
1/4+x,3/4-y,3/4+z
1/2+x,y,1/2+z
1/2-x,-y,1/2+z
3/4-x,1/4+y,3/4+z
3/4+x,1/4-y,3/4+z
1/2+x,1/2+y,z
1/2-x,1/2-y,z
3/4-x,3/4+y,1/4+z
3/4+x,3/4-y,1/4+z
loop_
_atom_site_type_symbol
_atom_site_label
_atom_site_fract_x
_atom_site_fract_y
_atom_site_fract_z
Si Si1 0.412562 0.274969 0.068290
Si Si2 0.681353 0.376864 0.722316
Si Si3 0.723570 0.036866 0.566275
Si Si4 0.472728 0.285259 0.631937
Si Si5 0.413918 0.707897 0.376783
Si Si6 0.524842 0.283902 0.722507
O O1 0.358296 0.442712 0.070317
O O2 0.484153 0.301187 0.093037
O O3 0.374982 0.111879 0.095981
O O4 0.426204 0.250430 0.016611
O O5 0.750000 0.250000 0.724535
O O6 0.678072 0.481815 0.676273
O O7 0.607680 0.271671 0.720688
O O8 0.750000 0.250000 0.567017
O O9 0.762959 0.938771 0.604421
O O10 0.745645 0.960186 0.519497
O O11 0.500000 0.500000 0.633467
O O12 0.391182 0.294604 0.626967
O O13 0.492427 0.206545 0.678865
O O14 0.500000 0.500000 0.723577
#
# Coordination Sequence:
#
# PCOD9370101 Si02
#       6
#    16  16  16  16  16  16
#     4   9  17  28  42  68 103 131 160 210 261 304
#     4  11  19  27  45  77 105 131 169 220 263 304
#     4   8  15  23  40  65  94 121 155 201 240 298
#     4   9  15  26  43  67  99 131 157 211 261 306
#     4  10  17  27  46  73 100 129 170 216 261 302
#     4   9  14  27  42  66  99 127 162 202 258 302
#
# _framework density 22.177862000000001
#
# number of rings (size 3 to 8) (size 9 to 14) (size 15 to 20)
#    0.000    2.667    5.000    2.500    0.000    0.000 
#    0.000    0.000    0.000    0.000   13.000    4.667 
#    0.000    0.000    0.000    0.000    0.000    0.000 
#
# Total GULP energy -133664.920787 kJ/mol
# GULP energy per Si atom -5569.371699 kJ/mol
# Density = 2.212738 g / cm^3
# Si number density = 22.177862 Si / 1000 Ang^3
#
#
#
# Elastic Constant Matrix: (Units=GPa)
#
#
# Indices 1 2 3 4 5 6 
#
# 1 135.2073 14.7410 70.1772 0.0000 0.0000 0.0000
# 2 14.7410 72.2466 33.3081 0.0000 0.0000 0.0000
# 3 70.1772 33.3081 237.7963 0.0000 0.0000 0.0000
# 4 0.0000 0.0000 0.0000 -2.3354 0.0000 0.0000
# 5 0.0000 0.0000 0.0000 0.0000 31.7197 0.0000
# 6 0.0000 0.0000 0.0000 0.0000 0.0000 9.8829
#
#
#
# Elastic Compliance Matrix: (Units=1/GPa)
#
#
# Indices 1 2 3 4 5 6 
#
# 1 0.008761 -0.000637 -0.002496 0.000000 0.000000 0.000000
# 2 -0.000637 0.014843 -0.001891 0.000000 0.000000 0.000000
# 3 -0.002496 -0.001891 0.005207 0.000000 0.000000 0.000000
# 4 0.000000 0.000000 0.000000 -0.428196 0.000000 0.000000
# 5 0.000000 0.000000 0.000000 0.000000 0.031526 0.000000
# 6 0.000000 0.000000 0.000000 0.000000 0.000000 0.101185
#
#
# Mechanical properties :
#
#
# Convention : Reuss Voigt Hill
#
# Bulk Modulus (GPa) = 53.29685 75.74476 64.52080
# Shear Modulus (GPa) = -19.97034 29.65504 4.84235
#
# Velocity S-wave (km/s) = -3.00403 3.66067 1.47924
# Velocity P-wave (km/s) = 3.47153 7.21767 5.66331
#
# Compressibility (1/GPa) = 0.01876284
#
# Stress axis : x y z
#
# Youngs Moduli (GPa) = 114.14003 67.37046 192.05296
#
# Poissons Ratio (x) = 0.04289 0.47944
# Poissons Ratio (y) = 0.07267 0.36321
# Poissons Ratio (z) = 0.28494 0.12741
#
# Static dielectric constant tensor:
#      x y z
#    x 1.993630 0.000000 0.000000 
#    y 0.000000 1.855810 0.000000 
#    z 0.000000 0.000000 1.864400 
# 
# From -- ./inp_files/26397.got.cif
#   From: 2010.05.17/outbox.cif.g08.bks.cpg/sg43_14_cif.got.tgz:26397.got - 2010.06.03 19:21:55.
