data_PCOD9370686
_publ_section_title
;
Structure prediction by ZEFSAII (Michael W. Deem and Ramdas Pophale) SiO2 
 PCOD9370686
Probable space group: F D D 2
;
_chemical_formula_sum "Si O2"
_cell_formula_units_Z 80
_cell_length_a 8.097641
_cell_length_b 17.711864
_cell_length_c 21.749652
_cell_angle_alpha 90.000000
_cell_angle_beta 90.000000
_cell_angle_gamma 90.000000
_cell_volume 3119.428964
_symmetry_space_group_name_H-M "F D D 2"
_symmetry_group_IT_number 43
_symmetry_cell_setting 'orthorhombic'
loop_
_space_group_symop_operation_xyz
x,y,z
-x,-y,z
1/4-x,1/4+y,1/4+z
1/4+x,1/4-y,1/4+z
x,1/2+y,1/2+z
-x,1/2-y,1/2+z
1/4-x,3/4+y,3/4+z
1/4+x,3/4-y,3/4+z
1/2+x,y,1/2+z
1/2-x,-y,1/2+z
3/4-x,1/4+y,3/4+z
3/4+x,1/4-y,3/4+z
1/2+x,1/2+y,z
1/2-x,1/2-y,z
3/4-x,3/4+y,1/4+z
3/4+x,3/4-y,1/4+z
loop_
_atom_site_type_symbol
_atom_site_label
_atom_site_fract_x
_atom_site_fract_y
_atom_site_fract_z
Si Si1 0.160833 0.522333 0.207370
Si Si2 0.000000 0.000000 0.279900
Si Si3 0.000000 0.000000 0.951604
Si Si4 0.002568 0.803335 0.843878
Si Si5 0.601171 0.693481 0.702607
Si Si6 0.418083 0.103354 0.565469
O O1 0.335821 0.514821 0.240472
O O2 0.149783 0.457028 0.155055
O O3 0.147258 0.608569 0.186488
O O4 0.000000 0.500000 0.248135
O O5 0.949697 0.924415 0.315415
O O6 0.176881 0.026221 0.924664
O O7 0.954629 0.071609 0.996365
O O8 0.917888 0.809522 0.777775
O O9 0.152301 0.862837 0.846347
O O10 0.086029 0.720370 0.844026
O O11 0.750000 0.750000 0.689684
#
# Coordination Sequence:
#
# PCOD9370686 Si02
#       6
#    16   8   8  16  16  16
#     4  12  24  37  66 104 129 177 242 292 347 443
#     4  12  22  37  62 100 134 164 238 300 352 431
#     4   8  16  35  58  82 118 168 214 262 340 409
#     4   9  19  40  62  88 131 181 224 276 357 426
#     4  10  20  38  64  90 125 181 223 277 357 420
#     4   8  17  36  63  85 123 183 212 280 362 409
#
# _framework density 25.645719
#
# number of rings (size 3 to 8) (size 9 to 14) (size 15 to 20)
#    0.000    2.800    0.000    6.600    0.000    0.000 
#    1.800    0.000    0.000    0.000   15.600    0.000 
#    0.000    0.000    0.000    0.000    0.000    0.000 
#
# Total GULP energy -111736.684743 kJ/mol
# GULP energy per Si atom -5586.834237 kJ/mol
# Density = 2.558735 g / cm^3
# Si number density = 25.645719 Si / 1000 Ang^3
#
#
#
# Elastic Constant Matrix: (Units=GPa)
#
#
# Indices 1 2 3 4 5 6 
#
# 1 185.3156 63.9219 29.6629 0.0000 0.0000 0.0000
# 2 63.9219 139.2106 32.6317 0.0000 0.0000 0.0000
# 3 29.6629 32.6317 63.0458 0.0000 0.0000 0.0000
# 4 0.0000 0.0000 0.0000 28.8588 0.0000 0.0000
# 5 0.0000 0.0000 0.0000 0.0000 7.0217 0.0000
# 6 0.0000 0.0000 0.0000 0.0000 0.0000 55.4920
#
#
#
# Elastic Compliance Matrix: (Units=1/GPa)
#
#
# Indices 1 2 3 4 5 6 
#
# 1 0.006576 -0.002611 -0.001742 0.000000 0.000000 0.000000
# 2 -0.002611 0.009212 -0.003540 0.000000 0.000000 0.000000
# 3 -0.001742 -0.003540 0.018513 0.000000 0.000000 0.000000
# 4 0.000000 0.000000 0.000000 0.034652 0.000000 0.000000
# 5 0.000000 0.000000 0.000000 0.000000 0.142415 0.000000
# 6 0.000000 0.000000 0.000000 0.000000 0.000000 0.018021
#
#
# Mechanical properties :
#
#
# Convention : Reuss Voigt Hill
#
# Bulk Modulus (GPa) = 54.01001 71.11166 62.56083
# Shear Modulus (GPa) = 19.89291 35.69819 27.79555
#
# Velocity S-wave (km/s) = 2.78813 3.73497 3.29573
# Velocity P-wave (km/s) = 5.60987 6.81092 6.23936
#
# Compressibility (1/GPa) = 0.01851509
#
# Stress axis : x y z
#
# Youngs Moduli (GPa) = 152.07454 108.55492 54.01511
#
# Poissons Ratio (x) = 0.28343 0.09412
# Poissons Ratio (y) = 0.39706 0.19119
# Poissons Ratio (z) = 0.26499 0.38423
#
# Static dielectric constant tensor:
#      x y z
#    x 2.182280 0.000000 0.000000 
#    y 0.000000 1.779650 0.000000 
#    z 0.000000 0.000000 2.143350 
# 
# From -- ./inp_files/24137.got.cif
#   From: 2010.05.17/outbox.cif.g08.bks.cpg/sg43_13_cif.got.tgz:24137.got - 2010.06.03 19:21:55.
