data_PCOD9370116
_publ_section_title
;
Structure prediction by ZEFSAII (Michael W. Deem and Ramdas Pophale) SiO2 
 PCOD9370116
Probable space group: F D D 2
;
_chemical_formula_sum "Si O2"
_cell_formula_units_Z 80
_cell_length_a 18.900487
_cell_length_b 17.486125
_cell_length_c 9.249849
_cell_angle_alpha 90.000000
_cell_angle_beta 90.000000
_cell_angle_gamma 90.000000
_cell_volume 3057.040669
_symmetry_space_group_name_H-M "F D D 2"
_symmetry_group_IT_number 43
_symmetry_cell_setting 'orthorhombic'
loop_
_space_group_symop_operation_xyz
x,y,z
-x,-y,z
1/4-x,1/4+y,1/4+z
1/4+x,1/4-y,1/4+z
x,1/2+y,1/2+z
-x,1/2-y,1/2+z
1/4-x,3/4+y,3/4+z
1/4+x,3/4-y,3/4+z
1/2+x,y,1/2+z
1/2-x,-y,1/2+z
3/4-x,1/4+y,3/4+z
3/4+x,1/4-y,3/4+z
1/2+x,1/2+y,z
1/2-x,1/2-y,z
3/4-x,3/4+y,1/4+z
3/4+x,3/4-y,1/4+z
loop_
_atom_site_type_symbol
_atom_site_label
_atom_site_fract_x
_atom_site_fract_y
_atom_site_fract_z
Si Si1 0.993709 0.361720 0.278740
Si Si2 0.632864 0.544704 0.707210
Si Si3 0.798737 0.310943 0.239999
Si Si4 0.949921 0.575061 0.558200
Si Si5 0.704440 0.952218 0.463025
O O1 0.009684 0.391337 0.116613
O O2 0.049129 0.391047 0.394731
O O3 0.997989 0.270477 0.280771
O O4 0.924122 0.411258 0.311098
O O5 0.667959 0.622340 0.647567
O O6 0.599448 0.493752 0.582410
O O7 0.674319 0.491255 0.817015
O O8 0.750000 0.250000 0.158796
O O9 0.863656 0.563238 0.569823
O O10 0.000000 0.500000 0.561167
O O11 0.995971 0.634699 0.653596
#
# Coordination Sequence:
#
# PCOD9370116 Si02
#       5
#    16  16  16  16  16
#     4  10  19  34  58  94 120 157 219 272 318 376
#     4  10  17  32  57  86 114 151 206 271 305 370
#     4   9  17  29  51  85 111 143 199 260 310 355
#     4  12  21  39  68  97 129 168 229 276 323 395
#     4  11  23  36  65  99 127 169 220 280 332 387
#
# _framework density 26.1691
#
# number of rings (size 3 to 8) (size 9 to 14) (size 15 to 20)
#    0.000    1.600    4.000    3.000    0.000    0.000 
#    0.000    0.000   39.600    0.000    0.000    0.000 
#    0.000    0.000    0.000    0.000    0.000    0.000 
#
# Total GULP energy -111635.726685 kJ/mol
# GULP energy per Si atom -5581.786334 kJ/mol
# Density = 2.610954 g / cm^3
# Si number density = 26.169100 Si / 1000 Ang^3
#
#
#
# Elastic Constant Matrix: (Units=GPa)
#
#
# Indices 1 2 3 4 5 6 
#
# 1 113.4835 67.7549 34.8550 0.0000 0.0000 0.0000
# 2 67.7549 235.2115 48.7537 0.0000 0.0000 0.0000
# 3 34.8550 48.7537 46.7857 0.0000 0.0000 0.0000
# 4 0.0000 0.0000 0.0000 28.9509 0.0000 0.0000
# 5 0.0000 0.0000 0.0000 0.0000 3.4423 0.0000
# 6 0.0000 0.0000 0.0000 0.0000 0.0000 41.7399
#
#
#
# Elastic Compliance Matrix: (Units=1/GPa)
#
#
# Indices 1 2 3 4 5 6 
#
# 1 0.012172 -0.002075 -0.006906 0.000000 0.000000 0.000000
# 2 -0.002075 0.005776 -0.004474 0.000000 0.000000 0.000000
# 3 -0.006906 -0.004474 0.031181 0.000000 0.000000 0.000000
# 4 0.000000 0.000000 0.000000 0.034541 0.000000 0.000000
# 5 0.000000 0.000000 0.000000 0.000000 0.290500 0.000000
# 6 0.000000 0.000000 0.000000 0.000000 0.000000 0.023958
#
#
# Mechanical properties :
#
#
# Convention : Reuss Voigt Hill
#
# Bulk Modulus (GPa) = 45.00389 77.57864 61.29126
# Shear Modulus (GPa) = 11.56222 31.10111 21.33167
#
# Velocity S-wave (km/s) = 2.10425 3.45115 2.85818
# Velocity P-wave (km/s) = 4.81025 6.75205 5.86211
#
# Compressibility (1/GPa) = 0.02222030
#
# Stress axis : x y z
#
# Youngs Moduli (GPa) = 82.15862 173.11679 32.07111
#
# Poissons Ratio (x) = 0.35917 0.22147
# Poissons Ratio (y) = 0.17046 0.14348
# Poissons Ratio (z) = 0.56736 0.77448
#
# Static dielectric constant tensor:
#      x y z
#    x 2.295910 0.000000 0.000000 
#    y 0.000000 2.029520 0.000000 
#    z 0.000000 0.000000 2.072510 
# 
# From -- ./inp_files/6058.got.cif
#   From: 2010.05.17/outbox.cif.g08.bks.cpg/sg43_4_cif.got.tgz:6058.got - 2010.06.03 19:21:55.
