data_PCOD9370273
_publ_section_title
;
Structure prediction by ZEFSAII (Michael W. Deem and Ramdas Pophale) SiO2 
 PCOD9370273
Probable space group: F D D 2
;
_chemical_formula_sum "Si O2"
_cell_formula_units_Z 120
_cell_length_a 21.062013
_cell_length_b 9.657263
_cell_length_c 26.347459
_cell_angle_alpha 90.000000
_cell_angle_beta 90.000000
_cell_angle_gamma 90.000000
_cell_volume 5359.110017
_symmetry_space_group_name_H-M "F D D 2"
_symmetry_group_IT_number 43
_symmetry_cell_setting 'orthorhombic'
loop_
_space_group_symop_operation_xyz
x,y,z
-x,-y,z
1/4-x,1/4+y,1/4+z
1/4+x,1/4-y,1/4+z
x,1/2+y,1/2+z
-x,1/2-y,1/2+z
1/4-x,3/4+y,3/4+z
1/4+x,3/4-y,3/4+z
1/2+x,y,1/2+z
1/2-x,-y,1/2+z
3/4-x,1/4+y,3/4+z
3/4+x,1/4-y,3/4+z
1/2+x,1/2+y,z
1/2-x,1/2-y,z
3/4-x,3/4+y,1/4+z
3/4+x,3/4-y,1/4+z
loop_
_atom_site_type_symbol
_atom_site_label
_atom_site_fract_x
_atom_site_fract_y
_atom_site_fract_z
Si Si1 0.397019 0.828990 0.904060
Si Si2 0.327650 0.063401 0.440544
Si Si3 0.486456 0.211618 0.969322
Si Si4 0.750000 0.250000 0.775471
Si Si5 0.618034 0.197309 0.390445
Si Si6 0.857932 0.954919 0.050393
Si Si7 0.131068 0.368421 0.028812
Si Si8 0.942220 0.310514 0.174040
O O1 0.348184 0.717794 0.927753
O O2 0.451788 0.856509 0.945191
O O3 0.422279 0.760280 0.852182
O O4 0.358742 0.968147 0.893955
O O5 0.374861 0.958572 0.411253
O O6 0.334526 0.033602 0.500271
O O7 0.259189 0.014654 0.421204
O O8 0.437908 0.236654 0.923145
O O9 0.505913 0.361734 0.991565
O O10 0.443000 0.138133 0.011774
O O11 0.815818 0.230601 0.805493
O O12 0.608876 0.197147 0.330875
O O13 0.680924 0.284327 0.404422
O O14 0.849477 0.792164 0.038619
O O15 0.171297 0.431113 0.982966
#
# Coordination Sequence:
#
# PCOD9370273 Si02
#       8
#    16  16  16   8  16  16  16  16
#     4  12  26  44  68 102 138 182 219 282 352 402
#     4  12  23  46  66 101 137 173 230 282 330 405
#     4  10  21  42  68  98 135 171 226 283 333 404
#     4  10  18  40  62  96 136 160 226 280 320 398
#     4  11  22  44  69 101 128 181 230 278 338 396
#     4  11  23  39  71 101 126 180 229 274 335 404
#     4  10  23  44  69 100 131 179 229 278 346 398
#     4  11  27  44  64  99 144 176 222 285 338 412
#
# _framework density 22.391779
#
# number of rings (size 3 to 8) (size 9 to 14) (size 15 to 20)
#    0.000    1.067    6.667    0.800    3.733    3.200 
#    4.800    0.000    0.000    0.000    0.000    0.000 
#    0.000    0.000    0.000    0.000    0.000    0.000 
#
# Total GULP energy -167805.543735 kJ/mol
# GULP energy per Si atom -5593.518125 kJ/mol
# Density = 2.234081 g / cm^3
# Si number density = 22.391779 Si / 1000 Ang^3
#
#
#
# Elastic Constant Matrix: (Units=GPa)
#
#
# Indices 1 2 3 4 5 6 
#
# 1 29.2020 6.7113 -29.9681 0.0000 0.0000 0.0000
# 2 6.7113 47.1700 -2.7819 0.0000 0.0000 0.0000
# 3 -29.9681 -2.7819 84.1743 0.0000 0.0000 0.0000
# 4 0.0000 0.0000 0.0000 20.1160 0.0000 0.0000
# 5 0.0000 0.0000 0.0000 0.0000 11.8105 0.0000
# 6 0.0000 0.0000 0.0000 0.0000 0.0000 23.6159
#
#
#
# Elastic Compliance Matrix: (Units=1/GPa)
#
#
# Indices 1 2 3 4 5 6 
#
# 1 0.056062 -0.006813 0.019734 0.000000 0.000000 0.000000
# 2 -0.006813 0.022069 -0.001696 0.000000 0.000000 0.000000
# 3 0.019734 -0.001696 0.018850 0.000000 0.000000 0.000000
# 4 0.000000 0.000000 0.000000 0.049712 0.000000 0.000000
# 5 0.000000 0.000000 0.000000 0.000000 0.084671 0.000000
# 6 0.000000 0.000000 0.000000 0.000000 0.000000 0.042344
#
#
# Mechanical properties :
#
#
# Convention : Reuss Voigt Hill
#
# Bulk Modulus (GPa) = 8.37298 12.05212 10.21255
# Shear Modulus (GPa) = 17.17816 23.54746 20.36281
#
# Velocity S-wave (km/s) = 2.77278 3.24637 3.01888
# Velocity P-wave (km/s) = 3.74146 4.40976 4.08928
#
# Compressibility (1/GPa) = 0.11943179
#
# Stress axis : x y z
#
# Youngs Moduli (GPa) = 17.83748 45.31207 53.05073
#
# Poissons Ratio (x) = 0.30869 -1.04691
# Poissons Ratio (y) = 0.12152 0.08998
# Poissons Ratio (z) = -0.35201 0.07685
#
# Static dielectric constant tensor:
#      x y z
#    x 1.861550 0.000000 0.000000 
#    y 0.000000 1.825060 0.000000 
#    z 0.000000 0.000000 1.798310 
# 
# From -- ./inp_files/26611.got.cif
#   From: 2010.05.17/outbox.cif.g08.bks.cpg/sg43_14_cif.got.tgz:26611.got - 2010.06.03 19:21:55.
