data_PCOD9370344
_publ_section_title
;
Structure prediction by ZEFSAII (Michael W. Deem and Ramdas Pophale) SiO2 
 PCOD9370344
Probable space group: F D D 2
;
_chemical_formula_sum "Si O2"
_cell_formula_units_Z 88
_cell_length_a 5.916629
_cell_length_b 24.299961
_cell_length_c 28.220848
_cell_angle_alpha 90.000000
_cell_angle_beta 90.000000
_cell_angle_gamma 90.000000
_cell_volume 4057.420079
_symmetry_space_group_name_H-M "F D D 2"
_symmetry_group_IT_number 43
_symmetry_cell_setting 'orthorhombic'
loop_
_space_group_symop_operation_xyz
x,y,z
-x,-y,z
1/4-x,1/4+y,1/4+z
1/4+x,1/4-y,1/4+z
x,1/2+y,1/2+z
-x,1/2-y,1/2+z
1/4-x,3/4+y,3/4+z
1/4+x,3/4-y,3/4+z
1/2+x,y,1/2+z
1/2-x,-y,1/2+z
3/4-x,1/4+y,3/4+z
3/4+x,1/4-y,3/4+z
1/2+x,1/2+y,z
1/2-x,1/2-y,z
3/4-x,3/4+y,1/4+z
3/4+x,3/4-y,1/4+z
loop_
_atom_site_type_symbol
_atom_site_label
_atom_site_fract_x
_atom_site_fract_y
_atom_site_fract_z
Si Si1 0.632735 0.425658 0.034540
Si Si2 0.243633 0.886855 0.594677
Si Si3 0.492529 0.238690 0.444388
Si Si4 0.736535 0.592220 0.756022
Si Si5 0.362398 0.635652 0.698039
Si Si6 0.500000 0.000000 0.072794
O O1 0.489243 0.410397 0.081225
O O2 0.799863 0.375039 0.024355
O O3 0.784216 0.479036 0.043175
O O4 0.481843 0.427215 0.987111
O O5 0.184307 0.848737 0.549844
O O6 0.199355 0.855033 0.643467
O O7 0.087245 0.942078 0.595265
O O8 0.750000 0.250000 0.425128
O O9 0.479952 0.280549 0.488483
O O10 0.500832 0.174719 0.456299
O O11 0.250000 0.250000 0.418307
O O12 0.624106 0.624757 0.711427
#
# Coordination Sequence:
#
# PCOD9370344 Si02
#       6
#    16  16  16  16  16   8
#     4  10  20  39  57  84 125 165 206 265 326 390
#     4  10  22  37  60  93 122 161 210 271 324 400
#     4  10  19  34  60  90 121 161 205 260 322 385
#     4   9  20  37  56  86 129 162 200 258 333 384
#     4  10  21  36  63  90 123 163 217 265 329 383
#     4  10  22  36  58  86 126 160 206 262 334 386
#
# _framework density 21.688658
#
# number of rings (size 3 to 8) (size 9 to 14) (size 15 to 20)
#    0.000    2.182    1.818    0.545    3.818    4.364 
#    0.000    0.000    0.000   41.455    9.455    0.000 
#    0.000    0.000    0.000    0.000    0.000    0.000 
#
# Total GULP energy -122517.628025 kJ/mol
# GULP energy per Si atom -5568.983092 kJ/mol
# Density = 2.163929 g / cm^3
# Si number density = 21.688658 Si / 1000 Ang^3
#
#
#
# Elastic Constant Matrix: (Units=GPa)
#
#
# Indices 1 2 3 4 5 6 
#
# 1 110.0494 -1.2558 23.5191 0.0000 0.0000 0.0000
# 2 -1.2558 24.9401 3.4654 0.0000 0.0000 0.0000
# 3 23.5191 3.4654 108.7297 0.0000 0.0000 0.0000
# 4 0.0000 0.0000 0.0000 -356.7728 0.0000 0.0000
# 5 0.0000 0.0000 0.0000 0.0000 2.0892 0.0000
# 6 0.0000 0.0000 0.0000 0.0000 0.0000 42.9445
#
#
#
# Elastic Compliance Matrix: (Units=1/GPa)
#
#
# Indices 1 2 3 4 5 6 
#
# 1 0.009542 0.000771 -0.002089 0.000000 0.000000 0.000000
# 2 0.000771 0.040337 -0.001452 0.000000 0.000000 0.000000
# 3 -0.002089 -0.001452 0.009695 0.000000 0.000000 0.000000
# 4 0.000000 0.000000 0.000000 -0.002803 0.000000 0.000000
# 5 0.000000 0.000000 0.000000 0.000000 0.478662 0.000000
# 6 0.000000 0.000000 0.000000 0.000000 0.000000 0.023286
#
#
# Mechanical properties :
#
#
# Convention : Reuss Voigt Hill
#
# Bulk Modulus (GPa) = 18.50707 32.79742 25.65224
# Shear Modulus (GPa) = 8.58707 -47.81511 -19.61402
#
# Velocity S-wave (km/s) = 1.99194 -4.70043 -3.01049
# Velocity P-wave (km/s) = 3.72049 3.78205 0.48056
#
# Compressibility (1/GPa) = 0.05403340
#
# Stress axis : x y z
#
# Youngs Moduli (GPa) = 104.80006 24.79134 103.14407
#
# Poissons Ratio (x) = -0.01911 0.21542
# Poissons Ratio (y) = -0.08077 0.14980
# Poissons Ratio (z) = 0.21888 0.03600
#
# Static dielectric constant tensor:
#      x y z
#    x 1.944300 0.000000 0.000000 
#    y 0.000000 1.789960 0.000000 
#    z 0.000000 0.000000 1.848640 
# 
# From -- ./inp_files/19566.got.cif
#   From: 2010.05.17/outbox.cif.g08.bks.cpg/sg43_10_cif.got.tgz:19566.got - 2010.06.03 19:21:55.
