data_PCOD9370353
_publ_section_title
;
Structure prediction by ZEFSAII (Michael W. Deem and Ramdas Pophale) SiO2 
 PCOD9370353
Probable space group: F D D 2
;
_chemical_formula_sum "Si O2"
_cell_formula_units_Z 120
_cell_length_a 16.637852
_cell_length_b 18.803805
_cell_length_c 19.291263
_cell_angle_alpha 90.000000
_cell_angle_beta 90.000000
_cell_angle_gamma 90.000000
_cell_volume 6035.366632
_symmetry_space_group_name_H-M "F D D 2"
_symmetry_group_IT_number 43
_symmetry_cell_setting 'orthorhombic'
loop_
_space_group_symop_operation_xyz
x,y,z
-x,-y,z
1/4-x,1/4+y,1/4+z
1/4+x,1/4-y,1/4+z
x,1/2+y,1/2+z
-x,1/2-y,1/2+z
1/4-x,3/4+y,3/4+z
1/4+x,3/4-y,3/4+z
1/2+x,y,1/2+z
1/2-x,-y,1/2+z
3/4-x,1/4+y,3/4+z
3/4+x,1/4-y,3/4+z
1/2+x,1/2+y,z
1/2-x,1/2-y,z
3/4-x,3/4+y,1/4+z
3/4+x,3/4-y,1/4+z
loop_
_atom_site_type_symbol
_atom_site_label
_atom_site_fract_x
_atom_site_fract_y
_atom_site_fract_z
Si Si1 0.098752 0.261876 0.126040
Si Si2 0.342691 0.182702 0.817833
Si Si3 0.209054 0.645912 0.974271
Si Si4 0.236285 0.386997 0.317222
Si Si5 0.250000 0.250000 0.224968
Si Si6 0.158601 0.665043 0.308296
Si Si7 0.357390 0.714813 0.038542
Si Si8 0.165451 0.952507 0.414005
O O1 0.170820 0.241143 0.177213
O O2 0.113696 0.339292 0.091036
O O3 0.085370 0.193775 0.076018
O O4 0.008836 0.273421 0.158326
O O5 0.406772 0.166677 0.757515
O O6 0.253031 0.168528 0.788814
O O7 0.351175 0.261050 0.850871
O O8 0.349081 0.121357 0.873925
O O9 0.234089 0.634592 0.894956
O O10 0.288133 0.659006 0.020981
O O11 0.158751 0.718349 0.988035
O O12 0.225994 0.316021 0.273702
O O13 0.306845 0.429880 0.278743
O O14 0.108941 0.683515 0.240666
O O15 0.361238 0.743579 0.117648
#
# Coordination Sequence:
#
# PCOD9370353 Si02
#       8
#    16  16  16  16   8  16  16  16
#     4  10  24  43  59  86 117 147 198 248 294 361
#     4   9  19  32  55  91 120 150 198 240 281 347
#     4  10  19  35  59  90 124 158 196 247 303 347
#     4  11  23  41  60  83 119 155 195 246 297 361
#     4  12  26  42  64  86 112 156 198 242 304 368
#     4  10  20  37  58  83 118 157 193 240 295 342
#     4   9  19  35  57  87 119 152 194 240 292 350
#     4   9  19  37  60  85 119 156 191 243 296 346
#
# _framework density 19.882802000000002
#
# number of rings (size 3 to 8) (size 9 to 14) (size 15 to 20)
#    0.000    2.133    0.000    4.000    0.000    9.600 
#    0.000    2.667    0.000    0.000    0.000    0.000 
#    0.000    0.000    0.000    0.000    0.000    0.000 
#
# Total GULP energy -167128.609846 kJ/mol
# GULP energy per Si atom -5570.953662 kJ/mol
# Density = 1.983755 g / cm^3
# Si number density = 19.882802 Si / 1000 Ang^3
#
#
#
# Elastic Constant Matrix: (Units=GPa)
#
#
# Indices 1 2 3 4 5 6 
#
# 1 48.4544 38.9514 33.5475 0.0000 0.0000 0.0000
# 2 38.9514 115.2713 38.8600 0.0000 0.0000 0.0000
# 3 33.5475 38.8600 52.9588 0.0000 0.0000 0.0000
# 4 0.0000 0.0000 0.0000 17.1898 0.0000 0.0000
# 5 0.0000 0.0000 0.0000 0.0000 15.1221 0.0000
# 6 0.0000 0.0000 0.0000 0.0000 0.0000 24.4840
#
#
#
# Elastic Compliance Matrix: (Units=1/GPa)
#
#
# Indices 1 2 3 4 5 6 
#
# 1 0.040266 -0.006653 -0.020625 0.000000 0.000000 0.000000
# 2 -0.006653 0.012626 -0.005050 0.000000 0.000000 0.000000
# 3 -0.020625 -0.005050 0.035653 0.000000 0.000000 0.000000
# 4 0.000000 0.000000 0.000000 0.058174 0.000000 0.000000
# 5 0.000000 0.000000 0.000000 0.000000 0.066128 0.000000
# 6 0.000000 0.000000 0.000000 0.000000 0.000000 0.040843
#
#
# Mechanical properties :
#
#
# Convention : Reuss Voigt Hill
#
# Bulk Modulus (GPa) = 41.86077 48.82248 45.34162
# Shear Modulus (GPa) = 15.32281 18.38087 16.85184
#
# Velocity S-wave (km/s) = 2.77908 3.04379 2.91444
# Velocity P-wave (km/s) = 5.60332 6.07958 5.84630
#
# Compressibility (1/GPa) = 0.02388872
#
# Stress axis : x y z
#
# Youngs Moduli (GPa) = 24.83468 79.20272 28.04779
#
# Poissons Ratio (x) = 0.52696 0.57849
# Poissons Ratio (y) = 0.16523 0.14164
# Poissons Ratio (z) = 0.51222 0.39997
#
# Static dielectric constant tensor:
#      x y z
#    x 1.724000 0.000000 0.000000 
#    y 0.000000 1.795360 0.000000 
#    z 0.000000 0.000000 1.709560 
# 
# From -- ./inp_files/14344.got.cif
#   From: 2010.05.17/outbox.cif.g08.bks.cpg/sg43_8_cif.got.tgz:14344.got - 2010.06.03 19:21:55.
