data_PCOD9370679
_publ_section_title
;
Structure prediction by ZEFSAII (Michael W. Deem and Ramdas Pophale) SiO2 
 PCOD9370679
Probable space group: F D D 2
;
_chemical_formula_sum "Si O2"
_cell_formula_units_Z 120
_cell_length_a 14.646356
_cell_length_b 19.510578
_cell_length_c 21.246250
_cell_angle_alpha 90.000000
_cell_angle_beta 90.000000
_cell_angle_gamma 90.000000
_cell_volume 6071.304416
_symmetry_space_group_name_H-M "F D D 2"
_symmetry_group_IT_number 43
_symmetry_cell_setting 'orthorhombic'
loop_
_space_group_symop_operation_xyz
x,y,z
-x,-y,z
1/4-x,1/4+y,1/4+z
1/4+x,1/4-y,1/4+z
x,1/2+y,1/2+z
-x,1/2-y,1/2+z
1/4-x,3/4+y,3/4+z
1/4+x,3/4-y,3/4+z
1/2+x,y,1/2+z
1/2-x,-y,1/2+z
3/4-x,1/4+y,3/4+z
3/4+x,1/4-y,3/4+z
1/2+x,1/2+y,z
1/2-x,1/2-y,z
3/4-x,3/4+y,1/4+z
3/4+x,3/4-y,1/4+z
loop_
_atom_site_type_symbol
_atom_site_label
_atom_site_fract_x
_atom_site_fract_y
_atom_site_fract_z
Si Si1 0.073197 0.917975 0.933830
Si Si2 0.750000 0.750000 0.407612
Si Si3 0.259664 0.170359 0.883091
Si Si4 0.815504 0.456418 0.591344
Si Si5 0.050953 0.068867 0.486186
Si Si6 0.878047 0.184581 0.701890
Si Si7 0.283786 0.909899 0.135417
Si Si8 0.757856 0.876805 0.498081
O O1 0.059284 0.866986 0.875409
O O2 0.155204 0.895971 0.979332
O O3 0.976088 0.914196 0.969025
O O4 0.106179 0.994388 0.915226
O O5 0.836613 0.734442 0.364346
O O6 0.775657 0.812161 0.453759
O O7 0.250000 0.250000 0.901169
O O8 0.265049 0.168123 0.807036
O O9 0.182407 0.121443 0.911651
O O10 0.361239 0.149860 0.903752
O O11 0.817796 0.448827 0.516367
O O12 0.741553 0.511802 0.616130
O O13 0.161403 0.067640 0.486213
O O14 0.024883 0.131945 0.442303
O O15 0.000000 0.000000 0.464108
O O16 0.263223 0.865922 0.072660
#
# Coordination Sequence:
#
# PCOD9370679 Si02
#       8
#    16   8  16  16  16  16  16  16
#     4  10  23  40  65  95 130 172 218 276 333 400
#     4  10  20  38  62  94 134 166 212 278 334 410
#     4  10  24  44  64  90 131 173 221 275 327 401
#     4  11  22  41  68  93 133 178 217 276 344 406
#     4  10  23  41  63  90 129 170 216 272 332 395
#     4  11  23  44  65  97 131 173 226 281 334 403
#     4  11  22  39  67  94 126 176 214 275 339 400
#     4  10  21  38  61  96 127 167 219 266 337 404
#
# _framework density 19.76511
#
# number of rings (size 3 to 8) (size 9 to 14) (size 15 to 20)
#    0.000    1.600    2.667    1.600    2.800    2.133 
#    7.200    0.000    0.000    0.000    0.000    0.000 
#    0.000    0.000    0.000    0.000    0.000    0.000 
#
# Total GULP energy -167294.934292 kJ/mol
# GULP energy per Si atom -5576.497810 kJ/mol
# Density = 1.972012 g / cm^3
# Si number density = 19.765110 Si / 1000 Ang^3
#
#
#
# Elastic Constant Matrix: (Units=GPa)
#
#
# Indices 1 2 3 4 5 6 
#
# 1 127.9506 48.3245 29.6358 0.0000 0.0000 0.0000
# 2 48.3245 74.1161 23.2681 0.0000 0.0000 0.0000
# 3 29.6358 23.2681 41.0238 0.0000 0.0000 0.0000
# 4 0.0000 0.0000 0.0000 1.9830 0.0000 0.0000
# 5 0.0000 0.0000 0.0000 0.0000 15.8839 0.0000
# 6 0.0000 0.0000 0.0000 0.0000 0.0000 37.8970
#
#
#
# Elastic Compliance Matrix: (Units=1/GPa)
#
#
# Indices 1 2 3 4 5 6 
#
# 1 0.011082 -0.005733 -0.004754 0.000000 0.000000 0.000000
# 2 -0.005733 0.019381 -0.006851 0.000000 0.000000 0.000000
# 3 -0.004754 -0.006851 0.031696 0.000000 0.000000 0.000000
# 4 0.000000 0.000000 0.000000 0.504282 0.000000 0.000000
# 5 0.000000 0.000000 0.000000 0.000000 0.062957 0.000000
# 6 0.000000 0.000000 0.000000 0.000000 0.000000 0.026387
#
#
# Mechanical properties :
#
#
# Convention : Reuss Voigt Hill
#
# Bulk Modulus (GPa) = 36.38604 49.50525 42.94565
# Shear Modulus (GPa) = 7.14671 20.61026 13.87848
#
# Velocity S-wave (km/s) = 1.90359 3.23268 2.65273
# Velocity P-wave (km/s) = 4.82501 6.24778 5.58192
#
# Compressibility (1/GPa) = 0.02748306
#
# Stress axis : x y z
#
# Youngs Moduli (GPa) = 90.23750 51.59637 31.54954
#
# Poissons Ratio (x) = 0.29580 0.14998
# Poissons Ratio (y) = 0.51734 0.21615
# Poissons Ratio (z) = 0.42898 0.35350
#
# Static dielectric constant tensor:
#      x y z
#    x 1.736280 0.000000 0.000000 
#    y 0.000000 1.762970 0.000000 
#    z 0.000000 0.000000 1.655040 
# 
# From -- ./inp_files/21845.got.cif
#   From: 2010.05.17/outbox.cif.g08.bks.cpg/sg43_11_cif.got.tgz:21845.got - 2010.06.03 19:21:55.
