data_PCOD9370959
_publ_section_title
;
Structure prediction by ZEFSAII (Michael W. Deem and Ramdas Pophale) SiO2 
 PCOD9370959
Probable space group: F D D 2
;
_chemical_formula_sum "Si O2"
_cell_formula_units_Z 88
_cell_length_a 6.821310
_cell_length_b 23.429415
_cell_length_c 23.340988
_cell_angle_alpha 90.000000
_cell_angle_beta 90.000000
_cell_angle_gamma 90.000000
_cell_volume 3730.340430
_symmetry_space_group_name_H-M "F D D 2"
_symmetry_group_IT_number 43
_symmetry_cell_setting 'orthorhombic'
loop_
_space_group_symop_operation_xyz
x,y,z
-x,-y,z
1/4-x,1/4+y,1/4+z
1/4+x,1/4-y,1/4+z
x,1/2+y,1/2+z
-x,1/2-y,1/2+z
1/4-x,3/4+y,3/4+z
1/4+x,3/4-y,3/4+z
1/2+x,y,1/2+z
1/2-x,-y,1/2+z
3/4-x,1/4+y,3/4+z
3/4+x,1/4-y,3/4+z
1/2+x,1/2+y,z
1/2-x,1/2-y,z
3/4-x,3/4+y,1/4+z
3/4+x,3/4-y,1/4+z
loop_
_atom_site_type_symbol
_atom_site_label
_atom_site_fract_x
_atom_site_fract_y
_atom_site_fract_z
Si Si1 0.287668 0.315573 0.517680
Si Si2 0.000000 0.000000 0.098664
Si Si3 0.000000 0.500000 0.984979
Si Si4 0.349165 0.450351 0.678960
Si Si5 0.250000 0.750000 0.644753
Si Si6 0.117520 0.680228 0.752127
Si Si7 0.575016 0.170353 0.136624
O O1 0.250000 0.250000 0.507395
O O2 0.491700 0.325440 0.484820
O O3 0.144284 0.363187 0.493260
O O4 0.271984 0.327020 0.585239
O O5 0.821830 0.021533 0.138782
O O6 0.020471 0.051341 0.051419
O O7 0.105302 0.454254 0.942932
O O8 0.161184 0.537876 0.018585
O O9 0.500000 0.500000 0.693082
O O10 0.454640 0.395940 0.649672
O O11 0.155559 0.705911 0.689760
O O12 0.400923 0.710258 0.612065
#
# Coordination Sequence:
#
# PCOD9370959 Si02
#       7
#    16   8   8  16   8  16  16
#     4  12  25  43  70 102 142 186 234 298 365 425
#     4  11  24  47  72 102 142 191 236 295 368 430
#     4  10  20  43  74  96 138 181 242 292 344 428
#     4  12  28  47  69 108 148 188 240 307 367 431
#     4   9  24  42  72 102 134 190 240 289 356 434
#     4  10  22  43  72 103 133 186 245 291 351 438
#     4  11  23  46  69 100 142 189 236 300 356 436
#
# _framework density 23.590339
#
# number of rings (size 3 to 8) (size 9 to 14) (size 15 to 20)
#    0.000    1.091    5.455    0.000    5.091    0.000 
#    6.545    0.000    0.000    0.000    0.000    0.000 
#    0.000    0.000    0.000    0.000    0.000    0.000 
#
# Total GULP energy -122698.856396 kJ/mol
# GULP energy per Si atom -5577.220745 kJ/mol
# Density = 2.353665 g / cm^3
# Si number density = 23.590339 Si / 1000 Ang^3
#
#
#
# Elastic Constant Matrix: (Units=GPa)
#
#
# Indices 1 2 3 4 5 6 
#
# 1 23.3204 11.7934 -10.0464 0.0000 0.0000 0.0000
# 2 11.7934 177.9716 1.4954 0.0000 0.0000 0.0000
# 3 -10.0464 1.4954 64.9062 0.0000 0.0000 0.0000
# 4 0.0000 0.0000 0.0000 2.3550 0.0000 0.0000
# 5 0.0000 0.0000 0.0000 0.0000 -4.3358 0.0000
# 6 0.0000 0.0000 0.0000 0.0000 0.0000 36.3131
#
#
#
# Elastic Compliance Matrix: (Units=1/GPa)
#
#
# Indices 1 2 3 4 5 6 
#
# 1 0.047726 -0.003225 0.007462 0.000000 0.000000 0.000000
# 2 -0.003225 0.005838 -0.000634 0.000000 0.000000 0.000000
# 3 0.007462 -0.000634 0.016576 0.000000 0.000000 0.000000
# 4 0.000000 0.000000 0.000000 0.424634 0.000000 0.000000
# 5 0.000000 0.000000 0.000000 0.000000 -0.230640 0.000000
# 6 0.000000 0.000000 0.000000 0.000000 0.000000 0.027538
#
#
# Mechanical properties :
#
#
# Convention : Reuss Voigt Hill
#
# Bulk Modulus (GPa) = 12.92898 30.29813 21.61355
# Shear Modulus (GPa) = 16.11604 24.39685 20.25644
#
# Velocity S-wave (km/s) = 2.61657 3.21937 2.93350
# Velocity P-wave (km/s) = 3.82376 5.16628 4.54486
#
# Compressibility (1/GPa) = 0.07734560
#
# Stress axis : x y z
#
# Youngs Moduli (GPa) = 20.95278 171.29367 60.32690
#
# Poissons Ratio (x) = 0.55248 -0.45013
# Poissons Ratio (y) = 0.06758 0.03823
# Poissons Ratio (z) = -0.15634 0.10855
#
# Static dielectric constant tensor:
#      x y z
#    x 2.066290 0.000000 0.000000 
#    y 0.000000 1.923320 0.000000 
#    z 0.000000 0.000000 1.893120 
# 
# From -- ./inp_files/20234.got.cif
#   From: 2010.05.17/outbox.cif.g08.bks.cpg/sg43_11_cif.got.tgz:20234.got - 2010.06.03 19:21:55.
