data_PCOD9370505
_publ_section_title
;
Structure prediction by ZEFSAII (Michael W. Deem and Ramdas Pophale) SiO2 
 PCOD9370505
Probable space group: F D D 2
;
_chemical_formula_sum "Si O2"
_cell_formula_units_Z 120
_cell_length_a 21.394509
_cell_length_b 8.611583
_cell_length_c 30.091956
_cell_angle_alpha 90.000000
_cell_angle_beta 90.000000
_cell_angle_gamma 90.000000
_cell_volume 5544.159728
_symmetry_space_group_name_H-M "F D D 2"
_symmetry_group_IT_number 43
_symmetry_cell_setting 'orthorhombic'
loop_
_space_group_symop_operation_xyz
x,y,z
-x,-y,z
1/4-x,1/4+y,1/4+z
1/4+x,1/4-y,1/4+z
x,1/2+y,1/2+z
-x,1/2-y,1/2+z
1/4-x,3/4+y,3/4+z
1/4+x,3/4-y,3/4+z
1/2+x,y,1/2+z
1/2-x,-y,1/2+z
3/4-x,1/4+y,3/4+z
3/4+x,1/4-y,3/4+z
1/2+x,1/2+y,z
1/2-x,1/2-y,z
3/4-x,3/4+y,1/4+z
3/4+x,3/4-y,1/4+z
loop_
_atom_site_type_symbol
_atom_site_label
_atom_site_fract_x
_atom_site_fract_y
_atom_site_fract_z
Si Si1 0.878780 0.443817 0.402590
Si Si2 0.682455 0.557878 0.211351
Si Si3 0.872027 0.144878 0.050495
Si Si4 0.748394 0.931636 0.950509
Si Si5 0.971513 0.678850 0.898095
Si Si6 0.750000 0.250000 0.009871
Si Si7 0.380280 0.688939 0.152506
Si Si8 0.697719 0.625249 0.077968
O O1 0.920555 0.522817 0.441301
O O2 0.807824 0.445333 0.417839
O O3 0.907298 0.277163 0.393236
O O4 0.897308 0.542247 0.359393
O O5 0.672315 0.562255 0.263553
O O6 0.746108 0.484409 0.193731
O O7 0.628759 0.457000 0.185761
O O8 0.895008 0.152723 0.101112
O O9 0.842552 0.972835 0.043370
O O10 0.812154 0.253927 0.040254
O O11 0.750000 0.750000 0.967202
O O12 0.683844 0.957522 0.924151
O O13 0.751590 0.086965 0.982167
O O14 0.939969 0.510297 0.900245
O O15 0.014650 0.750375 0.858684
O O16 0.750000 0.750000 0.064241
#
# Coordination Sequence:
#
# PCOD9370505 Si02
#       8
#    16  16  16  16  16   8  16  16
#     4  10  19  42  66  92 133 180 225 282 359 427
#     4  11  22  40  65 101 133 175 234 296 353 421
#     4  12  23  40  68 103 138 182 246 297 352 435
#     4  12  24  45  73 100 146 188 234 297 368 432
#     4  10  20  39  70  93 131 180 236 279 361 423
#     4  12  26  44  72 102 142 190 246 302 348 448
#     4  12  23  42  69 101 134 190 232 289 370 424
#     4   9  20  38  67 102 133 179 235 297 354 430
#
# _framework density 21.644397999999999
#
# number of rings (size 3 to 8) (size 9 to 14) (size 15 to 20)
#    0.000    1.067    6.667    2.400    0.000    0.533 
#    0.000    4.000    2.933    0.000    0.000    0.000 
#    0.000    0.000    0.000    0.000    0.000    0.000 
#
# Total GULP energy -167281.387163 kJ/mol
# GULP energy per Si atom -5576.046239 kJ/mol
# Density = 2.159513 g / cm^3
# Si number density = 21.644398 Si / 1000 Ang^3
#
#
#
# Elastic Constant Matrix: (Units=GPa)
#
#
# Indices 1 2 3 4 5 6 
#
# 1 54.5539 8.6863 20.3835 0.0000 0.0000 0.0000
# 2 8.6863 105.0040 38.0049 -0.0001 0.0000 -0.0001
# 3 20.3835 38.0049 109.1825 0.0000 0.0000 0.0000
# 4 0.0000 -0.0001 0.0000 6.2560 0.0000 0.0000
# 5 0.0000 0.0000 0.0000 0.0000 29.7787 0.0000
# 6 0.0000 -0.0001 0.0000 0.0000 0.0000 29.2190
#
#
#
# Elastic Compliance Matrix: (Units=1/GPa)
#
#
# Indices 1 2 3 4 5 6 
#
# 1 0.019716 -0.000342 -0.003562 0.000000 0.000000 0.000000
# 2 -0.000342 0.010902 -0.003731 0.000000 0.000000 0.000000
# 3 -0.003562 -0.003731 0.011123 0.000000 0.000000 0.000000
# 4 0.000000 0.000000 0.000000 0.159846 0.000000 0.000000
# 5 0.000000 0.000000 0.000000 0.000000 0.033581 0.000000
# 6 0.000000 0.000000 0.000000 0.000000 0.000000 0.034224
#
#
# Mechanical properties :
#
#
# Convention : Reuss Voigt Hill
#
# Bulk Modulus (GPa) = 37.77690 44.76553 41.27122
# Shear Modulus (GPa) = 17.03664 26.49512 21.76588
#
# Velocity S-wave (km/s) = 2.80860 3.50252 3.17458
# Velocity P-wave (km/s) = 5.29235 6.08967 5.70496
#
# Compressibility (1/GPa) = 0.02647120
#
# Stress axis : x y z
#
# Youngs Moduli (GPa) = 50.72093 91.72510 89.90650
#
# Poissons Ratio (x) = 0.03135 0.32023
# Poissons Ratio (y) = 0.01734 0.33545
# Poissons Ratio (z) = 0.18066 0.34223
#
# Static dielectric constant tensor:
#      x y z
#    x 1.802990 0.000000 0.000000 
#    y 0.000000 1.918740 0.000000 
#    z 0.000000 0.000000 1.797710 
# 
# From -- ./inp_files/29870.got.cif
#   From: 2010.05.17/outbox.cif.g08.bks.cpg/sg43_15_cif.got.tgz:29870.got - 2010.06.03 19:21:55.
