data_PCOD9370295
_publ_section_title
;
Structure prediction by ZEFSAII (Michael W. Deem and Ramdas Pophale) SiO2 
 PCOD9370295
Probable space group: F D D 2
;
_chemical_formula_sum "Si O2"
_cell_formula_units_Z 120
_cell_length_a 27.339731
_cell_length_b 26.262637
_cell_length_c 7.193215
_cell_angle_alpha 90.000000
_cell_angle_beta 90.000000
_cell_angle_gamma 90.000000
_cell_volume 5164.824982
_symmetry_space_group_name_H-M "F D D 2"
_symmetry_group_IT_number 43
_symmetry_cell_setting 'orthorhombic'
loop_
_space_group_symop_operation_xyz
x,y,z
-x,-y,z
1/4-x,1/4+y,1/4+z
1/4+x,1/4-y,1/4+z
x,1/2+y,1/2+z
-x,1/2-y,1/2+z
1/4-x,3/4+y,3/4+z
1/4+x,3/4-y,3/4+z
1/2+x,y,1/2+z
1/2-x,-y,1/2+z
3/4-x,1/4+y,3/4+z
3/4+x,1/4-y,3/4+z
1/2+x,1/2+y,z
1/2-x,1/2-y,z
3/4-x,3/4+y,1/4+z
3/4+x,3/4-y,1/4+z
loop_
_atom_site_type_symbol
_atom_site_label
_atom_site_fract_x
_atom_site_fract_y
_atom_site_fract_z
Si Si1 0.808998 0.161751 0.526360
Si Si2 0.831451 0.088875 0.183991
Si Si3 0.736427 0.587015 0.184596
Si Si4 0.750000 0.750000 0.835018
Si Si5 0.002324 0.235561 0.581706
Si Si6 0.887242 0.736551 0.019560
Si Si7 0.653872 0.203310 0.213559
Si Si8 0.608979 0.903873 0.346940
O O1 0.815544 0.131140 0.333644
O O2 0.781016 0.126734 0.673743
O O3 0.775619 0.209344 0.468308
O O4 0.859545 0.187077 0.589776
O O5 0.790014 0.045033 0.197721
O O6 0.880419 0.064826 0.275057
O O7 0.846798 0.111319 0.985240
O O8 0.731615 0.544844 0.345425
O O9 0.687864 0.620335 0.152629
O O10 0.750946 0.548471 0.017212
O O11 0.710076 0.719379 0.715647
O O12 0.944968 0.235721 0.532070
O O13 0.863073 0.784336 0.127712
O O14 0.873898 0.748214 0.804094
O O15 0.643103 0.160260 0.371463
#
# Coordination Sequence:
#
# PCOD9370295 Si02
#       8
#    16  16  16   8  16  16  16  16
#     4  10  20  38  72  97 128 180 222 272 343 406
#     4  11  24  40  64 100 138 173 229 274 329 406
#     4  11  23  41  64  94 138 174 232 283 342 410
#     4  10  18  42  70  94 128 174 216 268 332 398
#     4  11  24  40  61  97 136 177 222 284 332 406
#     4   9  20  39  68  97 133 178 221 271 349 403
#     4   9  21  41  65  93 133 168 217 268 335 397
#     4  10  23  43  66  98 132 176 227 283 333 413
#
# _framework density 23.234089000000001
#
# number of rings (size 3 to 8) (size 9 to 14) (size 15 to 20)
#    0.800    1.067    1.333    2.400    1.867    3.200 
#    0.000    3.333    0.000    0.000    0.000    0.000 
#    0.000    0.000    0.000    0.000    0.000    0.000 
#
# Total GULP energy -167184.512189 kJ/mol
# GULP energy per Si atom -5572.817073 kJ/mol
# Density = 2.318121 g / cm^3
# Si number density = 23.234089 Si / 1000 Ang^3
#
#
#
# Elastic Constant Matrix: (Units=GPa)
#
#
# Indices 1 2 3 4 5 6 
#
# 1 138.4283 80.7633 45.7521 -0.0032 0.0091 0.0063
# 2 80.7633 112.6686 33.3282 0.0039 0.0017 0.0097
# 3 45.7521 33.3282 91.6831 -0.0132 0.0244 0.0337
# 4 -0.0032 0.0039 -0.0132 19.7065 0.0186 0.0296
# 5 0.0091 0.0017 0.0244 0.0186 22.9610 -0.0240
# 6 0.0063 0.0097 0.0337 0.0296 -0.0240 57.7224
#
#
#
# Elastic Compliance Matrix: (Units=1/GPa)
#
#
# Indices 1 2 3 4 5 6 
#
# 1 0.013388 -0.008539 -0.003577 0.000001 -0.000001 0.000002
# 2 -0.008539 0.015391 -0.001334 -0.000005 0.000004 -0.000001
# 3 -0.003577 -0.001334 0.013177 0.000009 -0.000012 -0.000007
# 4 0.000001 -0.000005 0.000009 0.050745 -0.000041 -0.000026
# 5 -0.000001 0.000004 -0.000012 -0.000041 0.043552 0.000018
# 6 0.000002 -0.000001 -0.000007 -0.000026 0.000018 0.017324
#
#
# Mechanical properties :
#
#
# Convention : Reuss Voigt Hill
#
# Bulk Modulus (GPa) = 66.41480 73.60748 70.01114
# Shear Modulus (GPa) = 26.95492 32.27371 29.61431
#
# Velocity S-wave (km/s) = 3.40979 3.73106 3.57404
# Velocity P-wave (km/s) = 6.64449 7.09300 6.87241
#
# Compressibility (1/GPa) = 0.01505688
#
# Stress axis : x y z
#
# Youngs Moduli (GPa) = 74.69437 64.97374 75.88982
#
# Poissons Ratio (x) = 0.55479 0.27145
# Poissons Ratio (y) = 0.63779 0.10122
# Poissons Ratio (z) = 0.26718 0.08666
#
# Static dielectric constant tensor:
#      x y z
#    x 1.895250 0.000000 0.000000 
#    y 0.000000 1.895990 -0.000020 
#    z 0.000000 -0.000020 1.978260 
# 
# From -- ./inp_files/4421.got.cif
#   From: 2010.05.17/outbox.cif.g08.bks.cpg/sg43_3_cif.got.tgz:4421.got - 2010.06.03 19:21:55.
