data_PCOD9370877
_publ_section_title
;
Structure prediction by ZEFSAII (Michael W. Deem and Ramdas Pophale) SiO2 
 PCOD9370877
Probable space group: F D D 2
;
_chemical_formula_sum "Si O2"
_cell_formula_units_Z 112
_cell_length_a 13.301111
_cell_length_b 23.148268
_cell_length_c 14.835434
_cell_angle_alpha 90.000000
_cell_angle_beta 90.000000
_cell_angle_gamma 90.000000
_cell_volume 4567.795742
_symmetry_space_group_name_H-M "F D D 2"
_symmetry_group_IT_number 43
_symmetry_cell_setting 'orthorhombic'
loop_
_space_group_symop_operation_xyz
x,y,z
-x,-y,z
1/4-x,1/4+y,1/4+z
1/4+x,1/4-y,1/4+z
x,1/2+y,1/2+z
-x,1/2-y,1/2+z
1/4-x,3/4+y,3/4+z
1/4+x,3/4-y,3/4+z
1/2+x,y,1/2+z
1/2-x,-y,1/2+z
3/4-x,1/4+y,3/4+z
3/4+x,1/4-y,3/4+z
1/2+x,1/2+y,z
1/2-x,1/2-y,z
3/4-x,3/4+y,1/4+z
3/4+x,3/4-y,1/4+z
loop_
_atom_site_type_symbol
_atom_site_label
_atom_site_fract_x
_atom_site_fract_y
_atom_site_fract_z
Si Si1 0.720938 0.872384 0.164490
Si Si2 0.862192 0.373100 0.188576
Si Si3 0.418630 0.550452 0.058969
Si Si4 0.916544 0.740691 0.140458
Si Si5 0.855115 0.119089 0.233859
Si Si6 0.557931 0.426637 0.755314
Si Si7 0.864181 0.747872 0.657131
O O1 0.784310 0.852954 0.250664
O O2 0.637043 0.821428 0.149965
O O3 0.792394 0.875759 0.078151
O O4 0.650015 0.924883 0.187290
O O5 0.763706 0.393091 0.239534
O O6 0.953757 0.417603 0.202379
O O7 0.876894 0.306050 0.217653
O O8 0.844731 0.365507 0.081523
O O9 0.500000 0.500000 0.070272
O O10 0.391256 0.576394 0.155369
O O11 0.338584 0.522144 0.988884
O O12 0.841525 0.774465 0.074578
O O13 0.030104 0.746973 0.104233
O O14 0.866268 0.185423 0.203006
O O15 0.750000 0.750000 0.617242
#
# Coordination Sequence:
#
# PCOD9370877 Si02
#       7
#    16  16  16  16  16  16  16
#     4  10  21  39  67 100 134 173 236 291 346 427
#     4  11  24  41  65  95 137 188 233 285 357 425
#     4   9  20  38  67 101 134 182 234 293 346 413
#     4  10  20  41  67  98 140 178 231 303 347 418
#     4  11  23  42  66  95 144 185 233 293 355 424
#     4  11  21  40  67  95 137 182 226 293 359 408
#     4  10  22  41  66  94 137 186 223 283 352 415
#
# _framework density 24.519486000000001
#
# number of rings (size 3 to 8) (size 9 to 14) (size 15 to 20)
#    0.000    1.714    1.429    3.857    0.000    2.857 
#    0.000   12.857    0.000    0.000    0.000    0.000 
#    0.000    0.000    0.000    0.000    0.000    0.000 
#
# Total GULP energy -156158.038016 kJ/mol
# GULP energy per Si atom -5577.072786 kJ/mol
# Density = 2.446368 g / cm^3
# Si number density = 24.519486 Si / 1000 Ang^3
#
#
#
# Elastic Constant Matrix: (Units=GPa)
#
#
# Indices 1 2 3 4 5 6 
#
# 1 113.8602 14.0172 3.2643 0.0000 0.0000 0.0000
# 2 14.0172 58.6898 30.8971 0.0000 0.0000 0.0000
# 3 3.2643 30.8971 113.4443 0.0000 0.0000 0.0000
# 4 0.0000 0.0000 0.0000 26.6293 0.0000 0.0000
# 5 0.0000 0.0000 0.0000 0.0000 32.5325 0.0000
# 6 0.0000 0.0000 0.0000 0.0000 0.0000 31.0091
#
#
#
# Elastic Compliance Matrix: (Units=1/GPa)
#
#
# Indices 1 2 3 4 5 6 
#
# 1 0.009063 -0.002367 0.000384 0.000000 0.000000 0.000000
# 2 -0.002367 0.020509 -0.005518 0.000000 0.000000 0.000000
# 3 0.000384 -0.005518 0.010307 0.000000 0.000000 0.000000
# 4 0.000000 0.000000 0.000000 0.037553 0.000000 0.000000
# 5 0.000000 0.000000 0.000000 0.000000 0.030738 0.000000
# 6 0.000000 0.000000 0.000000 0.000000 0.000000 0.032249
#
#
# Mechanical properties :
#
#
# Convention : Reuss Voigt Hill
#
# Bulk Modulus (GPa) = 40.19688 42.48350 41.34019
# Shear Modulus (GPa) = 30.54157 33.88855 32.21506
#
# Velocity S-wave (km/s) = 3.53314 3.72170 3.62865
# Velocity P-wave (km/s) = 5.75096 5.98600 5.86965
#
# Compressibility (1/GPa) = 0.02487755
#
# Stress axis : x y z
#
# Youngs Moduli (GPa) = 110.33813 48.75987 97.02537
#
# Poissons Ratio (x) = 0.11540 -0.03724
# Poissons Ratio (y) = 0.26113 0.53534
# Poissons Ratio (z) = -0.04234 0.26903
#
# Static dielectric constant tensor:
#      x y z
#    x 2.001270 0.000000 0.000000 
#    y 0.000000 2.044770 0.000000 
#    z 0.000000 0.000000 1.945600 
# 
# From -- ./inp_files/10173.got.cif
#   From: 2010.05.17/outbox.cif.g08.bks.cpg/sg43_6_cif.got.tgz:10173.got - 2010.06.03 19:21:55.
