data_PCOD9370760
_publ_section_title
;
Structure prediction by ZEFSAII (Michael W. Deem and Ramdas Pophale) SiO2 
 PCOD9370760
Probable space group: F D D 2
;
_chemical_formula_sum "Si O2"
_cell_formula_units_Z 112
_cell_length_a 11.451856
_cell_length_b 14.499296
_cell_length_c 30.857204
_cell_angle_alpha 90.000000
_cell_angle_beta 90.000000
_cell_angle_gamma 90.000000
_cell_volume 5123.648949
_symmetry_space_group_name_H-M "F D D 2"
_symmetry_group_IT_number 43
_symmetry_cell_setting 'orthorhombic'
loop_
_space_group_symop_operation_xyz
x,y,z
-x,-y,z
1/4-x,1/4+y,1/4+z
1/4+x,1/4-y,1/4+z
x,1/2+y,1/2+z
-x,1/2-y,1/2+z
1/4-x,3/4+y,3/4+z
1/4+x,3/4-y,3/4+z
1/2+x,y,1/2+z
1/2-x,-y,1/2+z
3/4-x,1/4+y,3/4+z
3/4+x,1/4-y,3/4+z
1/2+x,1/2+y,z
1/2-x,1/2-y,z
3/4-x,3/4+y,1/4+z
3/4+x,3/4-y,1/4+z
loop_
_atom_site_type_symbol
_atom_site_label
_atom_site_fract_x
_atom_site_fract_y
_atom_site_fract_z
Si Si1 0.000000 0.500000 0.188751
Si Si2 0.338759 0.402052 0.637530
Si Si3 0.233108 0.638045 0.809698
Si Si4 0.825376 0.901505 0.999341
Si Si5 0.750000 0.250000 0.682913
Si Si6 0.419623 0.414733 0.464440
Si Si7 0.516155 0.338772 0.287811
Si Si8 0.755816 0.024129 0.894785
O O1 0.108396 0.503681 0.156313
O O2 0.995193 0.413663 0.220667
O O3 0.244253 0.376874 0.674487
O O4 0.293665 0.408609 0.588806
O O5 0.442179 0.324536 0.636663
O O6 0.250000 0.750000 0.812682
O O7 0.348408 0.601077 0.785964
O O8 0.221854 0.591753 0.856101
O O9 0.113634 0.619150 0.783659
O O10 0.926850 0.936045 0.966304
O O11 0.753727 0.983265 0.021965
O O12 0.855953 0.280529 0.652063
O O13 0.500000 0.500000 0.479076
O O14 0.368086 0.368351 0.507906
O O15 0.302046 0.444039 0.439589
#
# Coordination Sequence:
#
# PCOD9370760 Si02
#       8
#     8  16  16  16   8  16  16  16
#     4  12  26  47  64 104 144 178 244 295 364 422
#     4  11  25  42  68 101 142 180 234 303 350 431
#     4  10  22  41  68 100 139 182 234 289 341 429
#     4  11  22  43  70  96 136 186 230 297 347 425
#     4  12  20  43  74  92 136 192 232 277 368 418
#     4  10  20  39  68  97 132 178 224 283 355 412
#     4  11  21  42  71  98 138 186 235 285 362 426
#     4  11  22  43  68 100 138 184 230 290 354 416
#
# _framework density 21.859421999999999
#
# number of rings (size 3 to 8) (size 9 to 14) (size 15 to 20)
#    0.000    1.143    6.429    0.857    1.000    4.000 
#    2.571    0.000    3.143    0.000    0.000    0.000 
#    0.000    0.000    0.000    0.000    0.000    0.000 
#
# Total GULP energy -156046.388269 kJ/mol
# GULP energy per Si atom -5573.085295 kJ/mol
# Density = 2.180967 g / cm^3
# Si number density = 21.859422 Si / 1000 Ang^3
#
#
#
# Elastic Constant Matrix: (Units=GPa)
#
#
# Indices 1 2 3 4 5 6 
#
# 1 117.4721 13.6076 44.2126 0.0000 0.0000 0.0000
# 2 13.6076 32.3216 24.8709 0.0000 0.0000 0.0000
# 3 44.2126 24.8709 132.8931 0.0000 0.0000 0.0000
# 4 0.0000 0.0000 0.0000 30.6474 0.0000 0.0000
# 5 0.0000 0.0000 0.0000 0.0000 50.6571 0.0000
# 6 0.0000 0.0000 0.0000 0.0000 0.0000 14.1896
#
#
#
# Elastic Compliance Matrix: (Units=1/GPa)
#
#
# Indices 1 2 3 4 5 6 
#
# 1 0.009829 -0.001895 -0.002916 0.000000 0.000000 0.000000
# 2 -0.001895 0.036509 -0.006202 0.000000 0.000000 0.000000
# 3 -0.002916 -0.006202 0.009656 0.000000 0.000000 0.000000
# 4 0.000000 0.000000 0.000000 0.032629 0.000000 0.000000
# 5 0.000000 0.000000 0.000000 0.000000 0.019741 0.000000
# 6 0.000000 0.000000 0.000000 0.000000 0.000000 0.070474
#
#
# Mechanical properties :
#
#
# Convention : Reuss Voigt Hill
#
# Bulk Modulus (GPa) = 29.43856 49.78545 39.61200
# Shear Modulus (GPa) = 23.56412 32.43185 27.99799
#
# Velocity S-wave (km/s) = 3.28683 3.85600 3.58274
# Velocity P-wave (km/s) = 5.28212 6.53068 5.93930
#
# Compressibility (1/GPa) = 0.03396906
#
# Stress axis : x y z
#
# Youngs Moduli (GPa) = 101.73483 27.39023 103.56673
#
# Poissons Ratio (x) = 0.05190 0.30196
# Poissons Ratio (y) = 0.19276 0.64236
# Poissons Ratio (z) = 0.29662 0.16988
#
# Static dielectric constant tensor:
#      x y z
#    x 1.894090 0.000000 0.000000 
#    y 0.000000 1.872690 0.000000 
#    z 0.000000 0.000000 1.802760 
# 
# From -- ./inp_files/28681.got.cif
#   From: 2010.05.17/outbox.cif.g08.bks.cpg/sg43_15_cif.got.tgz:28681.got - 2010.06.03 19:21:55.
