data_PCOD9370359
_publ_section_title
;
Structure prediction by ZEFSAII (Michael W. Deem and Ramdas Pophale) SiO2 
 PCOD9370359
Probable space group: F D D 2
;
_chemical_formula_sum "Si O2"
_cell_formula_units_Z 72
_cell_length_a 8.495900
_cell_length_b 12.783858
_cell_length_c 26.510375
_cell_angle_alpha 90.000000
_cell_angle_beta 90.000000
_cell_angle_gamma 90.000000
_cell_volume 2879.301881
_symmetry_space_group_name_H-M "F D D 2"
_symmetry_group_IT_number 43
_symmetry_cell_setting 'orthorhombic'
loop_
_space_group_symop_operation_xyz
x,y,z
-x,-y,z
1/4-x,1/4+y,1/4+z
1/4+x,1/4-y,1/4+z
x,1/2+y,1/2+z
-x,1/2-y,1/2+z
1/4-x,3/4+y,3/4+z
1/4+x,3/4-y,3/4+z
1/2+x,y,1/2+z
1/2-x,-y,1/2+z
3/4-x,1/4+y,3/4+z
3/4+x,1/4-y,3/4+z
1/2+x,1/2+y,z
1/2-x,1/2-y,z
3/4-x,3/4+y,1/4+z
3/4+x,3/4-y,1/4+z
loop_
_atom_site_type_symbol
_atom_site_label
_atom_site_fract_x
_atom_site_fract_y
_atom_site_fract_z
Si Si1 0.511309 0.621227 0.125000
Si Si2 0.250000 0.750000 0.020644
Si Si3 0.347046 0.126220 0.153719
Si Si4 0.325193 0.384371 0.613720
Si Si5 0.842908 0.067760 0.762740
O O1 0.500000 0.500000 0.138810
O O2 0.668170 0.665625 0.149817
O O3 0.335684 0.657377 0.139001
O O4 0.550382 0.626898 0.065117
O O5 0.286432 0.851787 0.056107
O O6 0.422817 0.732633 0.996698
O O7 0.501827 0.162892 0.123499
O O8 0.391677 0.128607 0.212466
O O9 0.334632 0.005764 0.130851
O O10 0.000000 0.000000 0.774020
#
# Coordination Sequence:
#
# PCOD9370359 Si02
#       5
#    16   8  16  16  16
#     4   9  20  36  55  80 113 148 185 232 283 335
#     4  10  22  34  58  84 118 144 188 236 286 334
#     4  10  19  35  62  76 112 153 189 224 289 341
#     4   9  18  36  54  80 108 149 181 224 282 339
#     4  11  21  35  59  87 111 148 196 235 281 348
#
# _framework density 25.006060999999999
#
# number of rings (size 3 to 8) (size 9 to 14) (size 15 to 20)
#    0.000    2.222    2.222    1.333    4.667    0.000 
#    0.000    5.556    4.889    0.000    0.000    0.000 
#    0.000    0.000    0.000    0.000    0.000    0.000 
#
# Total GULP energy -100204.204907 kJ/mol
# GULP energy per Si atom -5566.900273 kJ/mol
# Density = 2.494915 g / cm^3
# Si number density = 25.006061 Si / 1000 Ang^3
#
#
#
# Elastic Constant Matrix: (Units=GPa)
#
#
# Indices 1 2 3 4 5 6 
#
# 1 293.3836 53.8096 -0.8423 0.0000 0.0000 0.0000
# 2 53.8096 36.2350 -8.6799 0.0000 0.0000 0.0000
# 3 -0.8423 -8.6799 61.0843 0.0000 0.0000 0.0000
# 4 0.0000 0.0000 0.0000 23.4076 0.0000 0.0000
# 5 0.0000 0.0000 0.0000 0.0000 9.2460 0.0000
# 6 0.0000 0.0000 0.0000 0.0000 0.0000 66.1873
#
#
#
# Elastic Compliance Matrix: (Units=1/GPa)
#
#
# Indices 1 2 3 4 5 6 
#
# 1 0.004739 -0.007269 -0.000968 0.000000 0.000000 0.000000
# 2 -0.007269 0.039721 0.005544 0.000000 0.000000 0.000000
# 3 -0.000968 0.005544 0.017145 0.000000 0.000000 0.000000
# 4 0.000000 0.000000 0.000000 0.042721 0.000000 0.000000
# 5 0.000000 0.000000 0.000000 0.000000 0.108155 0.000000
# 6 0.000000 0.000000 0.000000 0.000000 0.000000 0.015109
#
#
# Mechanical properties :
#
#
# Convention : Reuss Voigt Hill
#
# Bulk Modulus (GPa) = 17.78756 53.25309 35.52032
# Shear Modulus (GPa) = 19.86374 42.86255 31.36314
#
# Velocity S-wave (km/s) = 2.82149 4.14464 3.54534
# Velocity P-wave (km/s) = 4.21226 6.65180 5.56730
#
# Compressibility (1/GPa) = 0.05621908
#
# Stress axis : x y z
#
# Youngs Moduli (GPa) = 211.01562 25.17585 58.32513
#
# Poissons Ratio (x) = 0.18301 0.05644
# Poissons Ratio (y) = 1.53393 -0.32335
# Poissons Ratio (z) = 0.20418 -0.13957
#
# Static dielectric constant tensor:
#      x y z
#    x 2.040400 0.000000 0.000000 
#    y 0.000000 1.961170 0.000000 
#    z 0.000000 0.000000 1.920990 
# 
# From -- ./inp_files/12560.got.cif
#   From: 2010.05.17/outbox.cif.g08.bks.cpg/sg43_7_cif.got.tgz:12560.got - 2010.06.03 19:21:55.
