data_PCOD9370284
_publ_section_title
;
Structure prediction by ZEFSAII (Michael W. Deem and Ramdas Pophale) SiO2 
 PCOD9370284
Probable space group: F D D 2
;
_chemical_formula_sum "Si O2"
_cell_formula_units_Z 88
_cell_length_a 5.268616
_cell_length_b 29.008029
_cell_length_c 23.716916
_cell_angle_alpha 90.000000
_cell_angle_beta 90.000000
_cell_angle_gamma 90.000000
_cell_volume 3624.707636
_symmetry_space_group_name_H-M "F D D 2"
_symmetry_group_IT_number 43
_symmetry_cell_setting 'orthorhombic'
loop_
_space_group_symop_operation_xyz
x,y,z
-x,-y,z
1/4-x,1/4+y,1/4+z
1/4+x,1/4-y,1/4+z
x,1/2+y,1/2+z
-x,1/2-y,1/2+z
1/4-x,3/4+y,3/4+z
1/4+x,3/4-y,3/4+z
1/2+x,y,1/2+z
1/2-x,-y,1/2+z
3/4-x,1/4+y,3/4+z
3/4+x,1/4-y,3/4+z
1/2+x,1/2+y,z
1/2-x,1/2-y,z
3/4-x,3/4+y,1/4+z
3/4+x,3/4-y,1/4+z
loop_
_atom_site_type_symbol
_atom_site_label
_atom_site_fract_x
_atom_site_fract_y
_atom_site_fract_z
Si Si1 0.452185 0.879429 0.946150
Si Si2 0.007967 0.719302 0.487661
Si Si3 0.308302 0.697193 0.880256
Si Si4 0.573816 0.087013 0.505806
Si Si5 0.611673 0.299211 0.105611
Si Si6 0.000000 0.000000 0.938190
O O1 0.390822 0.830191 0.919342
O O2 0.502785 0.912676 0.892239
O O3 0.696121 0.881244 0.985294
O O4 0.202033 0.897757 0.980741
O O5 0.750000 0.750000 0.483129
O O6 0.039407 0.699144 0.424926
O O7 0.957590 0.687392 0.542092
O O8 0.250000 0.750000 0.502332
O O9 0.250000 0.750000 0.864885
O O10 0.331673 0.669073 0.822907
O O11 0.640810 0.035746 0.479781
O O12 0.750000 0.250000 0.101945
O O13 0.378476 0.285460 0.145061
#
# Coordination Sequence:
#
# PCOD9370284 Si02
#       6
#    16  16  16  16  16   8
#     4  11  27  44  75 112 149 197 263 318 384 468
#     4  10  23  41  68 100 139 194 246 298 379 456
#     4  11  27  52  75 109 160 209 259 326 401 474
#     4  11  25  47  74 111 150 199 257 316 391 466
#     4  10  19  39  70 103 146 183 246 305 373 452
#     4  10  18  40  72 104 144 192 242 300 370 458
#
# _framework density 24.277818
#
# number of rings (size 3 to 8) (size 9 to 14) (size 15 to 20)
#    0.000    1.455    3.636    0.000    2.545    7.273 
#    0.000    0.000    0.000    0.000    0.000    0.000 
#    0.000    0.000    0.000    0.000    0.000    0.000 
#
# Total GULP energy -122825.724224 kJ/mol
# GULP energy per Si atom -5582.987465 kJ/mol
# Density = 2.422256 g / cm^3
# Si number density = 24.277818 Si / 1000 Ang^3
#
#
#
# Elastic Constant Matrix: (Units=GPa)
#
#
# Indices 1 2 3 4 5 6 
#
# 1 100.8201 28.2635 55.4536 0.0000 0.0000 0.0000
# 2 28.2635 111.3223 48.4744 0.0000 0.0000 0.0000
# 3 55.4536 48.4744 222.8729 0.0000 0.0000 0.0000
# 4 0.0000 0.0000 0.0000 40.3209 0.0000 0.0000
# 5 0.0000 0.0000 0.0000 0.0000 28.0281 0.0000
# 6 0.0000 0.0000 0.0000 0.0000 0.0000 28.3242
#
#
#
# Elastic Compliance Matrix: (Units=1/GPa)
#
#
# Indices 1 2 3 4 5 6 
#
# 1 0.011846 -0.001904 -0.002533 0.000000 0.000000 0.000000
# 2 -0.001904 0.010229 -0.001751 0.000000 0.000000 0.000000
# 3 -0.002533 -0.001751 0.005498 0.000000 0.000000 0.000000
# 4 0.000000 0.000000 0.000000 0.024801 0.000000 0.000000
# 5 0.000000 0.000000 0.000000 0.000000 0.035678 0.000000
# 6 0.000000 0.000000 0.000000 0.000000 0.000000 0.035306
#
#
# Mechanical properties :
#
#
# Convention : Reuss Voigt Hill
#
# Bulk Modulus (GPa) = 65.80862 77.71091 71.75977
# Shear Modulus (GPa) = 35.51136 39.52290 37.51713
#
# Velocity S-wave (km/s) = 3.82869 4.03915 3.93533
# Velocity P-wave (km/s) = 6.83450 7.33700 7.09020
#
# Compressibility (1/GPa) = 0.01519558
#
# Stress axis : x y z
#
# Youngs Moduli (GPa) = 84.41764 97.76249 181.88548
#
# Poissons Ratio (x) = 0.18619 0.46075
# Poissons Ratio (y) = 0.16077 0.31846
# Poissons Ratio (z) = 0.21384 0.17117
#
# Static dielectric constant tensor:
#      x y z
#    x 1.862940 0.000000 0.000000 
#    y 0.000000 2.086620 0.000000 
#    z 0.000000 0.000000 1.943180 
# 
# From -- ./inp_files/19542.got.cif
#   From: 2010.05.17/outbox.cif.g08.bks.cpg/sg43_10_cif.got.tgz:19542.got - 2010.06.03 19:21:55.
