data_PCOD9370352
_publ_section_title
;
Structure prediction by ZEFSAII (Michael W. Deem and Ramdas Pophale) SiO2 
 PCOD9370352
Probable space group: F D D 2
;
_chemical_formula_sum "Si O2"
_cell_formula_units_Z 64
_cell_length_a 4.941260
_cell_length_b 26.682600
_cell_length_c 25.830578
_cell_angle_alpha 90.000000
_cell_angle_beta 90.000000
_cell_angle_gamma 90.000000
_cell_volume 3405.649710
_symmetry_space_group_name_H-M "F D D 2"
_symmetry_group_IT_number 43
_symmetry_cell_setting 'orthorhombic'
loop_
_space_group_symop_operation_xyz
x,y,z
-x,-y,z
1/4-x,1/4+y,1/4+z
1/4+x,1/4-y,1/4+z
x,1/2+y,1/2+z
-x,1/2-y,1/2+z
1/4-x,3/4+y,3/4+z
1/4+x,3/4-y,3/4+z
1/2+x,y,1/2+z
1/2-x,-y,1/2+z
3/4-x,1/4+y,3/4+z
3/4+x,1/4-y,3/4+z
1/2+x,1/2+y,z
1/2-x,1/2-y,z
3/4-x,3/4+y,1/4+z
3/4+x,3/4-y,1/4+z
loop_
_atom_site_type_symbol
_atom_site_label
_atom_site_fract_x
_atom_site_fract_y
_atom_site_fract_z
Si Si1 0.327752 0.131922 0.508910
Si Si2 0.881026 0.055633 0.922816
Si Si3 0.858065 0.077031 0.356185
Si Si4 0.361329 0.198611 0.005074
O O1 0.336246 0.080545 0.478360
O O2 0.214163 0.129725 0.567502
O O3 0.614328 0.160010 0.510769
O O4 0.112300 0.168984 0.480107
O O5 0.109525 0.088525 0.893579
O O6 0.392956 0.942647 0.889637
O O7 0.000000 0.000000 0.926135
O O8 0.734558 0.039452 0.312466
O O9 0.250000 0.250000 0.982021
#
# Coordination Sequence:
#
# PCOD9370352 Si02
#       4
#    16  16  16  16
#     4  10  22  36  54  92 126 153 194 258 311 358
#     4  12  23  36  62  93 120 158 206 253 304 367
#     4  10  21  35  58  86 122 150 202 253 305 348
#     4  10  19  35  59  84 117 153 192 249 310 346
#
# _framework density 18.792303
#
# number of rings (size 3 to 8) (size 9 to 14) (size 15 to 20)
#    1.500    0.000    2.500    3.750    3.500    0.000 
#    0.000    0.000    0.000    6.000    6.500    0.000 
#    0.000    0.000    0.000    0.000    0.000    0.000 
#
# Total GULP energy -89077.151134 kJ/mol
# GULP energy per Si atom -5567.321946 kJ/mol
# Density = 1.874953 g / cm^3
# Si number density = 18.792303 Si / 1000 Ang^3
#
#
#
# Elastic Constant Matrix: (Units=GPa)
#
#
# Indices 1 2 3 4 5 6 
#
# 1 140.5760 22.5392 24.2830 0.0000 0.0000 0.0000
# 2 22.5392 44.2646 35.4420 0.0000 0.0000 0.0000
# 3 24.2830 35.4420 62.7997 0.0000 0.0000 0.0000
# 4 0.0000 0.0000 0.0000 16.8391 0.0000 0.0000
# 5 0.0000 0.0000 0.0000 0.0000 18.0833 0.0000
# 6 0.0000 0.0000 0.0000 0.0000 0.0000 15.4526
#
#
#
# Elastic Compliance Matrix: (Units=1/GPa)
#
#
# Indices 1 2 3 4 5 6 
#
# 1 0.007814 -0.002845 -0.001416 0.000000 0.000000 0.000000
# 2 -0.002845 0.042252 -0.022746 0.000000 0.000000 0.000000
# 3 -0.001416 -0.022746 0.029308 0.000000 0.000000 0.000000
# 4 0.000000 0.000000 0.000000 0.059386 0.000000 0.000000
# 5 0.000000 0.000000 0.000000 0.000000 0.055300 0.000000
# 6 0.000000 0.000000 0.000000 0.000000 0.000000 0.064714
#
#
# Mechanical properties :
#
#
# Convention : Reuss Voigt Hill
#
# Bulk Modulus (GPa) = 39.43039 45.79651 42.61345
# Shear Modulus (GPa) = 15.56464 21.10006 18.33235
#
# Velocity S-wave (km/s) = 2.88105 3.35446 3.12673
# Velocity P-wave (km/s) = 5.66524 6.27901 5.98001
#
# Compressibility (1/GPa) = 0.02536115
#
# Stress axis : x y z
#
# Youngs Moduli (GPa) = 127.96937 23.66736 34.12052
#
# Poissons Ratio (x) = 0.06734 0.04831
# Poissons Ratio (y) = 0.36413 0.77609
# Poissons Ratio (z) = 0.18117 0.53833
#
# Static dielectric constant tensor:
#      x y z
#    x 1.695200 0.000000 0.000000 
#    y 0.000000 1.673700 0.000000 
#    z 0.000000 0.000000 1.677250 
# 
# From -- ./inp_files/23471.got.cif
#   From: 2010.05.17/outbox.cif.g08.bks.cpg/sg43_12_cif.got.tgz:23471.got - 2010.06.03 19:21:55.
