data_PCOD9370108
_publ_section_title
;
Structure prediction by ZEFSAII (Michael W. Deem and Ramdas Pophale) SiO2 
 PCOD9370108
Probable space group: F D D 2
;
_chemical_formula_sum "Si O2"
_cell_formula_units_Z 128
_cell_length_a 19.693224
_cell_length_b 16.239770
_cell_length_c 21.909047
_cell_angle_alpha 90.000000
_cell_angle_beta 90.000000
_cell_angle_gamma 90.000000
_cell_volume 7006.807432
_symmetry_space_group_name_H-M "F D D 2"
_symmetry_group_IT_number 43
_symmetry_cell_setting 'orthorhombic'
loop_
_space_group_symop_operation_xyz
x,y,z
-x,-y,z
1/4-x,1/4+y,1/4+z
1/4+x,1/4-y,1/4+z
x,1/2+y,1/2+z
-x,1/2-y,1/2+z
1/4-x,3/4+y,3/4+z
1/4+x,3/4-y,3/4+z
1/2+x,y,1/2+z
1/2-x,-y,1/2+z
3/4-x,1/4+y,3/4+z
3/4+x,1/4-y,3/4+z
1/2+x,1/2+y,z
1/2-x,1/2-y,z
3/4-x,3/4+y,1/4+z
3/4+x,3/4-y,1/4+z
loop_
_atom_site_type_symbol
_atom_site_label
_atom_site_fract_x
_atom_site_fract_y
_atom_site_fract_z
Si Si1 0.885377 0.369900 0.754610
Si Si2 0.955069 0.247373 0.053821
Si Si3 0.988025 0.407324 0.119369
Si Si4 0.184779 0.906549 0.876093
Si Si5 0.884438 0.419601 0.372050
Si Si6 0.277363 0.658163 0.506224
Si Si7 0.004427 0.342025 0.443962
Si Si8 0.419855 0.204654 0.319465
O O1 0.867004 0.455898 0.787555
O O2 0.932891 0.376222 0.695239
O O3 0.810091 0.350138 0.727046
O O4 0.910040 0.297420 0.797667
O O5 0.954303 0.341430 0.074308
O O6 0.993323 0.192996 0.105302
O O7 0.002360 0.230420 0.994034
O O8 0.951785 0.406099 0.185490
O O9 0.000000 0.500000 0.097032
O O10 0.063409 0.374222 0.132254
O O11 0.152671 0.839202 0.830858
O O12 0.132483 0.983797 0.873379
O O13 0.914161 0.395172 0.305974
O O14 0.938593 0.389644 0.421840
O O15 0.250000 0.750000 0.518301
O O16 0.216686 0.594606 0.521401
O O17 0.041042 0.305469 0.383907
#
# Coordination Sequence:
#
# PCOD9370108 Si02
#       8
#    16  16  16  16  16  16  16  16
#     4   9  20  32  50  79 114 145 178 221 277 334
#     4   9  20  35  48  77 111 138 188 230 272 333
#     4  10  22  36  56  79 105 147 191 232 278 333
#     4  10  19  28  51  80 110 143 175 219 281 339
#     4  10  19  34  51  82 118 139 173 234 285 340
#     4  10  19  31  52  82 113 142 177 222 286 339
#     4   8  20  32  52  77 110 148 178 224 288 332
#     4  10  17  30  49  80 111 147 172 214 275 345
#
# _framework density 18.267949999999999
#
# number of rings (size 3 to 8) (size 9 to 14) (size 15 to 20)
#    0.750    1.750    1.250    1.500    3.500    2.500 
#    0.000    1.250    0.000    0.000    3.250    0.000 
#    0.000    0.000    0.000    0.000    0.000    0.000 
#
# Total GULP energy -178189.360302 kJ/mol
# GULP energy per Si atom -5568.417509 kJ/mol
# Density = 1.822637 g / cm^3
# Si number density = 18.267950 Si / 1000 Ang^3
#
#
#
# Elastic Constant Matrix: (Units=GPa)
#
#
# Indices 1 2 3 4 5 6 
#
# 1 17.8286 4.4046 14.4765 0.0000 0.0000 0.0000
# 2 4.4046 74.7342 47.4866 0.0000 0.0000 0.0000
# 3 14.4765 47.4866 74.4317 0.0000 0.0000 0.0000
# 4 0.0000 0.0000 0.0000 27.0181 0.0000 0.0000
# 5 0.0000 0.0000 0.0000 0.0000 13.7489 0.0000
# 6 0.0000 0.0000 0.0000 0.0000 0.0000 15.5525
#
#
#
# Elastic Compliance Matrix: (Units=1/GPa)
#
#
# Indices 1 2 3 4 5 6 
#
# 1 0.069024 0.007504 -0.018212 0.000000 0.000000 0.000000
# 2 0.007504 0.023319 -0.016337 0.000000 0.000000 0.000000
# 3 -0.018212 -0.016337 0.027400 0.000000 0.000000 0.000000
# 4 0.000000 0.000000 0.000000 0.037012 0.000000 0.000000
# 5 0.000000 0.000000 0.000000 0.000000 0.072733 0.000000
# 6 0.000000 0.000000 0.000000 0.000000 0.000000 0.064298
#
#
# Mechanical properties :
#
#
# Convention : Reuss Voigt Hill
#
# Bulk Modulus (GPa) = 15.23164 33.30334 24.26749
# Shear Modulus (GPa) = 13.52229 17.97235 15.74732
#
# Velocity S-wave (km/s) = 2.72365 3.13999 2.93920
# Velocity P-wave (km/s) = 4.27165 5.60501 4.98313
#
# Compressibility (1/GPa) = 0.06565281
#
# Stress axis : x y z
#
# Youngs Moduli (GPa) = 14.48780 42.88364 36.49651
#
# Poissons Ratio (x) = -0.32180 0.66468
# Poissons Ratio (y) = -0.10872 0.59623
# Poissons Ratio (z) = 0.26385 0.70058
#
# Static dielectric constant tensor:
#      x y z
#    x 1.639930 0.000000 0.000000 
#    y 0.000000 1.644200 0.000000 
#    z 0.000000 0.000000 1.681470 
# 
# From -- ./inp_files/22491.got.cif
#   From: 2010.05.17/outbox.cif.g08.bks.cpg/sg43_12_cif.got.tgz:22491.got - 2010.06.03 19:21:55.
