data_PCOD9370178
_publ_section_title
;
Structure prediction by ZEFSAII (Michael W. Deem and Ramdas Pophale) SiO2 
 PCOD9370178
Probable space group: F D D 2
;
_chemical_formula_sum "Si O2"
_cell_formula_units_Z 56
_cell_length_a 19.508170
_cell_length_b 21.814979
_cell_length_c 5.164443
_cell_angle_alpha 90.000000
_cell_angle_beta 90.000000
_cell_angle_gamma 90.000000
_cell_volume 2197.833654
_symmetry_space_group_name_H-M "F D D 2"
_symmetry_group_IT_number 43
_symmetry_cell_setting 'orthorhombic'
loop_
_space_group_symop_operation_xyz
x,y,z
-x,-y,z
1/4-x,1/4+y,1/4+z
1/4+x,1/4-y,1/4+z
x,1/2+y,1/2+z
-x,1/2-y,1/2+z
1/4-x,3/4+y,3/4+z
1/4+x,3/4-y,3/4+z
1/2+x,y,1/2+z
1/2-x,-y,1/2+z
3/4-x,1/4+y,3/4+z
3/4+x,1/4-y,3/4+z
1/2+x,1/2+y,z
1/2-x,1/2-y,z
3/4-x,3/4+y,1/4+z
3/4+x,3/4-y,1/4+z
loop_
_atom_site_type_symbol
_atom_site_label
_atom_site_fract_x
_atom_site_fract_y
_atom_site_fract_z
Si Si1 0.941757 0.807093 0.375000
Si Si2 0.562443 0.394196 0.299387
Si Si3 0.250000 0.250000 0.181614
Si Si4 0.125589 0.986760 0.627797
O O1 0.886164 0.862956 0.410193
O O2 0.915345 0.761709 0.603360
O O3 0.015558 0.837336 0.365512
O O4 0.928648 0.775066 0.103851
O O5 0.582233 0.424569 0.571745
O O6 0.524934 0.445447 0.122486
O O7 0.186593 0.274880 0.005495
#
# Coordination Sequence:
#
# PCOD9370178 Si02
#       4
#    16  16   8  16
#     4   9  20  31  53  81 110 138 187 234 284 331
#     4   9  20  34  55  85 108 149 188 240 277 337
#     4  10  18  34  54  86 106 148 194 234 282 332
#     4   9  20  32  52  82 106 142 183 238 273 332
#
# _framework density 25.479634999999998
#
# number of rings (size 3 to 8) (size 9 to 14) (size 15 to 20)
#    1.714    1.143    0.000    0.857    8.000    0.000 
#    0.000    0.000    0.000    0.000   74.286    0.000 
#    0.000    0.000    0.000    0.000    0.000    0.000 
#
# Total GULP energy -77968.328624 kJ/mol
# GULP energy per Si atom -5569.166330 kJ/mol
# Density = 2.542164 g / cm^3
# Si number density = 25.479635 Si / 1000 Ang^3
#
#
#
# Elastic Constant Matrix: (Units=GPa)
#
#
# Indices 1 2 3 4 5 6 
#
# 1 83.3641 49.9176 17.4371 0.0377 -0.1779 -0.0463
# 2 49.9176 78.8543 40.9336 0.0033 -0.0408 -0.0104
# 3 17.4371 40.9336 176.8981 0.0804 -0.1856 -0.0736
# 4 0.0377 0.0033 0.0804 26.7283 -0.0507 -0.0163
# 5 -0.1779 -0.0408 -0.1856 -0.0507 24.3470 0.0567
# 6 -0.0463 -0.0104 -0.0736 -0.0163 0.0567 52.6976
#
#
#
# Elastic Compliance Matrix: (Units=1/GPa)
#
#
# Indices 1 2 3 4 5 6 
#
# 1 0.019492 -0.012890 0.001062 -0.000029 0.000129 0.000016
# 2 -0.012890 0.022937 -0.004037 0.000027 -0.000086 -0.000012
# 3 0.001062 -0.004037 0.006483 -0.000020 0.000050 0.000009
# 4 -0.000029 0.000027 -0.000020 0.037414 0.000078 0.000011
# 5 0.000129 -0.000086 0.000050 0.000078 0.041074 -0.000044
# 6 0.000016 -0.000012 0.000009 0.000011 -0.000044 0.018976
#
#
# Mechanical properties :
#
#
# Convention : Reuss Voigt Hill
#
# Bulk Modulus (GPa) = 58.20569 61.74366 59.97468
# Shear Modulus (GPa) = 27.19822 36.14314 31.67068
#
# Velocity S-wave (km/s) = 3.27073 3.77040 3.52942
# Velocity P-wave (km/s) = 6.09567 6.57569 6.34022
#
# Compressibility (1/GPa) = 0.01718045
#
# Stress axis : x y z
#
# Youngs Moduli (GPa) = 51.30181 43.59696 154.25979
#
# Poissons Ratio (x) = 0.56198 -0.16376
# Poissons Ratio (y) = 0.66130 0.62276
# Poissons Ratio (z) = -0.05446 0.17601
#
# Static dielectric constant tensor:
#      x y z
#    x 2.156790 0.000020 0.000040 
#    y 0.000020 2.131060 -0.000020 
#    z 0.000040 -0.000020 1.965720 
# 
# From -- ./inp_files/336.got.cif
#   From: 2010.05.17/outbox.cif.g08.bks.cpg/sg43_1_cif.got.tgz:336.got - 2010.06.03 19:21:55.
