data_PCOD9370074
_publ_section_title
;
Structure prediction by ZEFSAII (Michael W. Deem and Ramdas Pophale) SiO2 
 PCOD9370074
Probable space group: F D D 2
;
_chemical_formula_sum "Si O2"
_cell_formula_units_Z 64
_cell_length_a 5.463552
_cell_length_b 25.072830
_cell_length_c 17.929013
_cell_angle_alpha 90.000000
_cell_angle_beta 90.000000
_cell_angle_gamma 90.000000
_cell_volume 2456.036513
_symmetry_space_group_name_H-M "F D D 2"
_symmetry_group_IT_number 43
_symmetry_cell_setting 'orthorhombic'
loop_
_space_group_symop_operation_xyz
x,y,z
-x,-y,z
1/4-x,1/4+y,1/4+z
1/4+x,1/4-y,1/4+z
x,1/2+y,1/2+z
-x,1/2-y,1/2+z
1/4-x,3/4+y,3/4+z
1/4+x,3/4-y,3/4+z
1/2+x,y,1/2+z
1/2-x,-y,1/2+z
3/4-x,1/4+y,3/4+z
3/4+x,1/4-y,3/4+z
1/2+x,1/2+y,z
1/2-x,1/2-y,z
3/4-x,3/4+y,1/4+z
3/4+x,3/4-y,1/4+z
loop_
_atom_site_type_symbol
_atom_site_label
_atom_site_fract_x
_atom_site_fract_y
_atom_site_fract_z
Si Si1 0.667390 0.549620 0.172790
Si Si2 0.026637 0.938952 0.805034
Si Si3 0.248747 0.489392 0.519641
Si Si4 0.476676 0.115888 0.794934
O O1 0.500000 0.500000 0.201868
O O2 0.728576 0.531478 0.088888
O O3 0.511737 0.598393 0.207635
O O4 0.923702 0.558424 0.215287
O O5 0.784975 0.905375 0.822480
O O6 0.285057 0.913352 0.829552
O O7 0.000000 0.000000 0.825749
O O8 0.500000 0.500000 0.478214
O O9 0.252320 0.429200 0.549249
O O10 0.000000 0.500000 0.476937
#
# Coordination Sequence:
#
# PCOD9370074 Si02
#       4
#    16  16  16  16
#     4   9  19  33  59  84 119 151 204 243 302 359
#     4  10  16  32  53  85 114 152 198 246 291 370
#     4  11  23  36  54  89 128 150 204 264 287 365
#     4  10  20  32  54  84 124 153 198 250 309 350
#
# _framework density 26.058242
#
# number of rings (size 3 to 8) (size 9 to 14) (size 15 to 20)
#    1.500    0.500    2.500    3.000    3.500    0.000 
#    0.000    0.000    0.000    0.000    0.000   57.750 
#    0.000    0.000    0.000    0.000    0.000    0.000 
#
# Total GULP energy -89247.445453 kJ/mol
# GULP energy per Si atom -5577.965341 kJ/mol
# Density = 2.599893 g / cm^3
# Si number density = 26.058242 Si / 1000 Ang^3
#
#
#
# Elastic Constant Matrix: (Units=GPa)
#
#
# Indices 1 2 3 4 5 6 
#
# 1 283.0396 89.2736 -1.8299 0.0000 0.0000 0.0000
# 2 89.2736 119.0542 7.3009 0.0000 0.0000 0.0000
# 3 -1.8299 7.3009 82.8935 0.0000 0.0000 0.0000
# 4 0.0000 0.0000 0.0000 -35.5575 0.0000 0.0000
# 5 0.0000 0.0000 0.0000 0.0000 0.9151 0.0000
# 6 0.0000 0.0000 0.0000 0.0000 0.0000 36.2869
#
#
#
# Elastic Compliance Matrix: (Units=1/GPa)
#
#
# Indices 1 2 3 4 5 6 
#
# 1 0.004641 -0.003506 0.000411 0.000000 0.000000 0.000000
# 2 -0.003506 0.011093 -0.001054 0.000000 0.000000 0.000000
# 3 0.000411 -0.001054 0.012166 0.000000 0.000000 0.000000
# 4 0.000000 0.000000 0.000000 -0.028123 0.000000 0.000000
# 5 0.000000 0.000000 0.000000 0.000000 1.092722 0.000000
# 6 0.000000 0.000000 0.000000 0.000000 0.000000 0.027558
#
#
# Mechanical properties :
#
#
# Convention : Reuss Voigt Hill
#
# Bulk Modulus (GPa) = 51.01429 74.94182 62.97805
# Shear Modulus (GPa) = 4.40572 26.34510 15.37541
#
# Velocity S-wave (km/s) = 1.30169 3.18309 2.43171
# Velocity P-wave (km/s) = 4.67747 6.50624 5.66612
#
# Compressibility (1/GPa) = 0.01960235
#
# Stress axis : x y z
#
# Youngs Moduli (GPa) = 215.45006 90.14756 82.19888
#
# Poissons Ratio (x) = 0.31602 -0.03380
# Poissons Ratio (y) = 0.75529 0.08667
# Poissons Ratio (z) = -0.08860 0.09505
#
# Static dielectric constant tensor:
#      x y z
#    x 2.128980 0.000000 0.000000 
#    y 0.000000 2.284040 0.000000 
#    z 0.000000 0.000000 2.069910 
# 
# From -- ./inp_files/19432.got.cif
#   From: 2010.05.17/outbox.cif.g08.bks.cpg/sg43_10_cif.got.tgz:19432.got - 2010.06.03 19:21:55.
