data_PCOD9370395
_publ_section_title
;
Structure prediction by ZEFSAII (Michael W. Deem and Ramdas Pophale) SiO2 
 PCOD9370395
Probable space group: F D D 2
;
_chemical_formula_sum "Si O2"
_cell_formula_units_Z 120
_cell_length_a 27.915348
_cell_length_b 7.253728
_cell_length_c 23.734512
_cell_angle_alpha 90.000000
_cell_angle_beta 90.000000
_cell_angle_gamma 90.000000
_cell_volume 4806.009438
_symmetry_space_group_name_H-M "F D D 2"
_symmetry_group_IT_number 43
_symmetry_cell_setting 'orthorhombic'
loop_
_space_group_symop_operation_xyz
x,y,z
-x,-y,z
1/4-x,1/4+y,1/4+z
1/4+x,1/4-y,1/4+z
x,1/2+y,1/2+z
-x,1/2-y,1/2+z
1/4-x,3/4+y,3/4+z
1/4+x,3/4-y,3/4+z
1/2+x,y,1/2+z
1/2-x,-y,1/2+z
3/4-x,1/4+y,3/4+z
3/4+x,1/4-y,3/4+z
1/2+x,1/2+y,z
1/2-x,1/2-y,z
3/4-x,3/4+y,1/4+z
3/4+x,3/4-y,1/4+z
loop_
_atom_site_type_symbol
_atom_site_label
_atom_site_fract_x
_atom_site_fract_y
_atom_site_fract_z
Si Si1 0.208617 0.598878 0.276070
Si Si2 0.796025 0.308625 0.112210
Si Si3 0.836985 0.378915 0.819454
Si Si4 0.909051 0.862381 0.778831
Si Si5 0.893455 0.388319 0.159529
Si Si6 0.683315 0.464148 0.017922
Si Si7 0.679174 0.965254 0.393116
Si Si8 0.000000 0.500000 0.498016
O O1 0.250000 0.750000 0.269820
O O2 0.149902 0.632365 0.276338
O O3 0.212745 0.527114 0.341621
O O4 0.219933 0.433298 0.230040
O O5 0.750000 0.250000 0.147862
O O6 0.841249 0.299144 0.153702
O O7 0.789940 0.141442 0.067088
O O8 0.813967 0.482569 0.073540
O O9 0.832186 0.565690 0.853272
O O10 0.880541 0.374479 0.775692
O O11 0.790590 0.345074 0.784330
O O12 0.844476 0.217065 0.866104
O O13 0.920687 0.814609 0.714098
O O14 0.927742 0.071740 0.783745
O O15 0.894312 0.610772 0.157321
O O16 0.701577 0.432743 0.954686
#
# Coordination Sequence:
#
# PCOD9370395 Si02
#       8
#    16  16  16  16  16  16  16   8
#     4  11  22  37  61  92 127 156 198 259 309 373
#     4  11  24  43  64  91 126 168 218 266 316 387
#     4  10  19  37  58  89 120 154 192 256 298 366
#     4  11  22  42  63  92 125 169 208 261 321 373
#     4  10  21  38  66  83 122 167 207 247 315 374
#     4  10  21  39  64  83 119 161 203 247 318 370
#     4  10  19  38  59  87 115 159 196 244 306 374
#     4  10  20  34  60  90 122 148 198 246 316 354
#
# _framework density 24.96874
#
# number of rings (size 3 to 8) (size 9 to 14) (size 15 to 20)
#    0.000    1.600    4.000    1.600    1.867    1.067 
#   15.600    0.000    0.000    0.000    0.000    0.000 
#    0.000    0.000    0.000    0.000    0.000    0.000 
#
# Total GULP energy -167067.834307 kJ/mol
# GULP energy per Si atom -5568.927810 kJ/mol
# Density = 2.491191 g / cm^3
# Si number density = 24.968740 Si / 1000 Ang^3
#
#
#
# Elastic Constant Matrix: (Units=GPa)
#
#
# Indices 1 2 3 4 5 6 
#
# 1 80.5925 12.5432 -18.0475 0.0000 0.0000 -0.0001
# 2 12.5432 111.9985 21.8870 -0.0002 -0.0001 -0.0002
# 3 -18.0475 21.8870 91.2169 0.0000 0.0000 0.0000
# 4 0.0000 -0.0002 0.0000 33.0434 -0.0001 0.0001
# 5 0.0000 -0.0001 0.0000 -0.0001 -22.8794 0.0000
# 6 -0.0001 -0.0002 0.0000 0.0001 0.0000 29.9330
#
#
#
# Elastic Compliance Matrix: (Units=1/GPa)
#
#
# Indices 1 2 3 4 5 6 
#
# 1 0.013449 -0.002126 0.003171 0.000000 0.000000 0.000000
# 2 -0.002126 0.009704 -0.002749 0.000000 0.000000 0.000000
# 3 0.003171 -0.002749 0.012250 0.000000 0.000000 0.000000
# 4 0.000000 0.000000 0.000000 0.030263 0.000000 0.000000
# 5 0.000000 0.000000 0.000000 0.000000 -0.043708 0.000000
# 6 0.000000 0.000000 0.000000 0.000000 0.000000 0.033408
#
#
# Mechanical properties :
#
#
# Convention : Reuss Voigt Hill
#
# Bulk Modulus (GPa) = 31.25475 35.17482 33.21478
# Shear Modulus (GPa) = 72.00507 25.84774 48.92641
#
# Velocity S-wave (km/s) = 5.37594 3.22095 4.43143
# Velocity P-wave (km/s) = 7.14696 5.28685 6.28609
#
# Compressibility (1/GPa) = 0.03199514
#
# Stress axis : x y z
#
# Youngs Moduli (GPa) = 74.35452 103.05029 81.63334
#
# Poissons Ratio (x) = 0.21908 -0.25886
# Poissons Ratio (y) = 0.15807 0.22441
# Poissons Ratio (z) = -0.23578 0.28329
#
# Static dielectric constant tensor:
#      x y z
#    x 2.365380 0.000000 0.000000 
#    y 0.000000 2.124300 0.000000 
#    z 0.000000 0.000000 2.008830 
# 
# From -- ./inp_files/22831.got.cif
#   From: 2010.05.17/outbox.cif.g08.bks.cpg/sg43_12_cif.got.tgz:22831.got - 2010.06.03 19:21:55.
