data_PCOD9370989
_publ_section_title
;
Structure prediction by ZEFSAII (Michael W. Deem and Ramdas Pophale) SiO2 
 PCOD9370989
Probable space group: F D D 2
;
_chemical_formula_sum "Si O2"
_cell_formula_units_Z 56
_cell_length_a 16.436898
_cell_length_b 16.528593
_cell_length_c 7.806770
_cell_angle_alpha 90.000000
_cell_angle_beta 90.000000
_cell_angle_gamma 90.000000
_cell_volume 2120.933884
_symmetry_space_group_name_H-M "F D D 2"
_symmetry_group_IT_number 43
_symmetry_cell_setting 'orthorhombic'
loop_
_space_group_symop_operation_xyz
x,y,z
-x,-y,z
1/4-x,1/4+y,1/4+z
1/4+x,1/4-y,1/4+z
x,1/2+y,1/2+z
-x,1/2-y,1/2+z
1/4-x,3/4+y,3/4+z
1/4+x,3/4-y,3/4+z
1/2+x,y,1/2+z
1/2-x,-y,1/2+z
3/4-x,1/4+y,3/4+z
3/4+x,1/4-y,3/4+z
1/2+x,1/2+y,z
1/2-x,1/2-y,z
3/4-x,3/4+y,1/4+z
3/4+x,3/4-y,1/4+z
loop_
_atom_site_type_symbol
_atom_site_label
_atom_site_fract_x
_atom_site_fract_y
_atom_site_fract_z
Si Si1 0.244564 0.019180 0.207220
Si Si2 0.889046 0.374652 0.789691
Si Si3 0.500000 0.000000 0.969887
Si Si4 0.816135 0.391576 0.429802
O O1 0.172812 0.957242 0.129953
O O2 0.313408 0.961465 0.285553
O O3 0.198944 0.083270 0.334780
O O4 0.261876 0.076028 0.042578
O O5 0.880137 0.376334 0.582618
O O6 0.949763 0.441628 0.852096
O O7 0.551235 0.941892 0.089941
#
# Coordination Sequence:
#
# PCOD9370989 Si02
#       4
#    16  16   8  16
#     4   9  20  44  63  94 139 168 225 278 330 403
#     4   9  21  41  65 102 126 183 218 276 340 404
#     4  10  20  46  70  96 144 176 224 282 334 398
#     4   9  21  43  66 101 127 184 221 280 335 404
#
# _framework density 26.403462000000001
#
# number of rings (size 3 to 8) (size 9 to 14) (size 15 to 20)
#    1.714    1.143    0.000    0.000    0.000    4.571 
#   20.571    0.000    0.000    0.000    0.000    0.000 
#    0.000    0.000    0.000    0.000    0.000    0.000 
#
# Total GULP energy -77982.285930 kJ/mol
# GULP energy per Si atom -5570.163281 kJ/mol
# Density = 2.634337 g / cm^3
# Si number density = 26.403462 Si / 1000 Ang^3
#
#
#
# Elastic Constant Matrix: (Units=GPa)
#
#
# Indices 1 2 3 4 5 6 
#
# 1 95.7979 45.8591 54.8325 0.0000 0.0000 0.0000
# 2 45.8591 146.3021 70.2339 0.0000 0.0000 0.0000
# 3 54.8325 70.2339 161.1346 0.0000 0.0000 0.0000
# 4 0.0000 0.0000 0.0000 50.3665 0.0000 0.0000
# 5 0.0000 0.0000 0.0000 0.0000 60.7094 0.0000
# 6 0.0000 0.0000 0.0000 0.0000 0.0000 33.4432
#
#
#
# Elastic Compliance Matrix: (Units=1/GPa)
#
#
# Indices 1 2 3 4 5 6 
#
# 1 0.013704 -0.002601 -0.003530 0.000000 0.000000 0.000000
# 2 -0.002601 0.009138 -0.003098 0.000000 0.000000 0.000000
# 3 -0.003530 -0.003098 0.008757 0.000000 0.000000 0.000000
# 4 0.000000 0.000000 0.000000 0.019854 0.000000 0.000000
# 5 0.000000 0.000000 0.000000 0.000000 0.016472 0.000000
# 6 0.000000 0.000000 0.000000 0.000000 0.000000 0.029901
#
#
# Mechanical properties :
#
#
# Convention : Reuss Voigt Hill
#
# Bulk Modulus (GPa) = 76.09147 82.78730 79.43938
# Shear Modulus (GPa) = 41.43728 44.39111 42.91419
#
# Velocity S-wave (km/s) = 3.96585 4.10477 4.03590
# Velocity P-wave (km/s) = 7.06059 7.34086 7.20209
#
# Compressibility (1/GPa) = 0.01314208
#
# Stress axis : x y z
#
# Youngs Moduli (GPa) = 72.97081 109.43804 114.19108
#
# Poissons Ratio (x) = 0.28467 0.40305
# Poissons Ratio (y) = 0.18981 0.35372
# Poissons Ratio (z) = 0.25756 0.33900
#
# Static dielectric constant tensor:
#      x y z
#    x 2.223280 0.000000 0.000000 
#    y 0.000000 2.081660 0.000000 
#    z 0.000000 0.000000 2.208420 
# 
# From -- ./inp_files/634.got.cif
#   From: 2010.05.17/outbox.cif.g08.bks.cpg/sg43_1_cif.got.tgz:634.got - 2010.06.03 19:21:55.
