data_PCOD9370545
_publ_section_title
;
Structure prediction by ZEFSAII (Michael W. Deem and Ramdas Pophale) SiO2 
 PCOD9370545
Probable space group: F D D 2
;
_chemical_formula_sum "Si O2"
_cell_formula_units_Z 104
_cell_length_a 18.175727
_cell_length_b 26.218443
_cell_length_c 8.643971
_cell_angle_alpha 90.000000
_cell_angle_beta 90.000000
_cell_angle_gamma 90.000000
_cell_volume 4119.191564
_symmetry_space_group_name_H-M "F D D 2"
_symmetry_group_IT_number 43
_symmetry_cell_setting 'orthorhombic'
loop_
_space_group_symop_operation_xyz
x,y,z
-x,-y,z
1/4-x,1/4+y,1/4+z
1/4+x,1/4-y,1/4+z
x,1/2+y,1/2+z
-x,1/2-y,1/2+z
1/4-x,3/4+y,3/4+z
1/4+x,3/4-y,3/4+z
1/2+x,y,1/2+z
1/2-x,-y,1/2+z
3/4-x,1/4+y,3/4+z
3/4+x,1/4-y,3/4+z
1/2+x,1/2+y,z
1/2-x,1/2-y,z
3/4-x,3/4+y,1/4+z
3/4+x,3/4-y,1/4+z
loop_
_atom_site_type_symbol
_atom_site_label
_atom_site_fract_x
_atom_site_fract_y
_atom_site_fract_z
Si Si1 0.015593 0.788636 0.981560
Si Si2 0.691745 0.150228 0.837789
Si Si3 0.900803 0.985440 0.401602
Si Si4 0.377032 0.569374 0.631352
Si Si5 0.750000 0.250000 0.858076
Si Si6 0.967176 0.377543 0.891466
Si Si7 0.233851 0.092600 0.955515
O O1 0.927967 0.783672 0.981379
O O2 0.791936 0.957593 0.051353
O O3 0.030761 0.848098 0.017357
O O4 0.064557 0.761688 0.109434
O O5 0.731467 0.199299 0.767794
O O6 0.603894 0.152470 0.828079
O O7 0.724020 0.144897 0.013162
O O8 0.919654 0.030281 0.519368
O O9 0.934395 0.992201 0.230904
O O10 0.928034 0.929664 0.453988
O O11 0.317222 0.599214 0.522971
O O12 0.427263 0.609789 0.719432
O O13 0.005215 0.343017 0.020688
#
# Coordination Sequence:
#
# PCOD9370545 Si02
#       7
#    16  16  16  16   8  16  16
#     4   9  24  40  64  89 137 167 214 268 338 386
#     4  10  21  38  62  92 126 175 212 269 324 402
#     4  10  20  41  60  96 125 175 210 279 316 412
#     4  10  22  40  65  91 133 168 222 268 341 390
#     4  10  20  34  66  86 126 156 230 246 318 384
#     4  10  20  37  65  89 124 172 226 259 334 393
#     4  10  21  39  65  91 127 175 215 281 329 400
#
# _framework density 25.247674
#
# number of rings (size 3 to 8) (size 9 to 14) (size 15 to 20)
#    0.923    1.231    0.000    3.692    6.462    0.000 
#   13.846    1.538    0.000    0.000    0.000    0.000 
#    0.000    0.000    0.000    0.000    0.000    0.000 
#
# Total GULP energy -144950.503131 kJ/mol
# GULP energy per Si atom -5575.019351 kJ/mol
# Density = 2.519021 g / cm^3
# Si number density = 25.247674 Si / 1000 Ang^3
#
#
#
# Elastic Constant Matrix: (Units=GPa)
#
#
# Indices 1 2 3 4 5 6 
#
# 1 77.8454 23.2451 0.7088 0.0000 0.0000 0.0000
# 2 23.2451 54.9606 16.1294 0.0000 0.0000 0.0000
# 3 0.7088 16.1294 43.2134 0.0001 -0.0001 0.0000
# 4 0.0000 0.0000 0.0001 32.6256 0.0000 0.0000
# 5 0.0000 0.0000 -0.0001 0.0000 23.1669 0.0000
# 6 0.0000 0.0000 0.0000 0.0000 0.0000 28.0932
#
#
#
# Elastic Compliance Matrix: (Units=1/GPa)
#
#
# Indices 1 2 3 4 5 6 
#
# 1 0.014916 -0.007004 0.002370 0.000000 0.000000 0.000000
# 2 -0.007004 0.023722 -0.008739 0.000000 0.000000 0.000000
# 3 0.002370 -0.008739 0.026364 0.000000 0.000000 0.000000
# 4 0.000000 0.000000 0.000000 0.030651 0.000000 0.000000
# 5 0.000000 0.000000 0.000000 0.000000 0.043165 0.000000
# 6 0.000000 0.000000 0.000000 0.000000 0.000000 0.035596
#
#
# Mechanical properties :
#
#
# Convention : Reuss Voigt Hill
#
# Bulk Modulus (GPa) = 26.14079 28.46511 27.30295
# Shear Modulus (GPa) = 23.37411 25.83957 24.60684
#
# Velocity S-wave (km/s) = 3.04599 3.20260 3.12527
# Velocity P-wave (km/s) = 4.76937 4.99744 4.88474
#
# Compressibility (1/GPa) = 0.03825439
#
# Stress axis : x y z
#
# Youngs Moduli (GPa) = 67.04296 42.15523 37.93049
#
# Poissons Ratio (x) = 0.29525 -0.08988
# Poissons Ratio (y) = 0.46956 0.33149
# Poissons Ratio (z) = -0.15886 0.36841
#
# Static dielectric constant tensor:
#      x y z
#    x 2.058410 0.000000 0.000000 
#    y 0.000000 2.104950 0.000000 
#    z 0.000000 0.000000 2.217770 
# 
# From -- ./inp_files/6793.got.cif
#   From: 2010.05.17/outbox.cif.g08.bks.cpg/sg43_4_cif.got.tgz:6793.got - 2010.06.03 19:21:55.
