data_PCOD9370633
_publ_section_title
;
Structure prediction by ZEFSAII (Michael W. Deem and Ramdas Pophale) SiO2 
 PCOD9370633
Probable space group: F D D 2
;
_chemical_formula_sum "Si O2"
_cell_formula_units_Z 104
_cell_length_a 27.052507
_cell_length_b 9.831157
_cell_length_c 17.366949
_cell_angle_alpha 90.000000
_cell_angle_beta 90.000000
_cell_angle_gamma 90.000000
_cell_volume 4618.869358
_symmetry_space_group_name_H-M "F D D 2"
_symmetry_group_IT_number 43
_symmetry_cell_setting 'orthorhombic'
loop_
_space_group_symop_operation_xyz
x,y,z
-x,-y,z
1/4-x,1/4+y,1/4+z
1/4+x,1/4-y,1/4+z
x,1/2+y,1/2+z
-x,1/2-y,1/2+z
1/4-x,3/4+y,3/4+z
1/4+x,3/4-y,3/4+z
1/2+x,y,1/2+z
1/2-x,-y,1/2+z
3/4-x,1/4+y,3/4+z
3/4+x,1/4-y,3/4+z
1/2+x,1/2+y,z
1/2-x,1/2-y,z
3/4-x,3/4+y,1/4+z
3/4+x,3/4-y,1/4+z
loop_
_atom_site_type_symbol
_atom_site_label
_atom_site_fract_x
_atom_site_fract_y
_atom_site_fract_z
Si Si1 0.750000 0.250000 0.504460
Si Si2 0.981958 0.695333 0.714181
Si Si3 0.582901 0.399865 0.849407
Si Si4 0.162111 0.978919 0.336310
Si Si5 0.935669 0.603390 0.876885
Si Si6 0.656789 0.413978 0.977999
Si Si7 0.972138 0.321749 0.946151
O O1 0.746977 0.393359 0.460669
O O2 0.701846 0.257777 0.558854
O O3 0.942376 0.677031 0.645559
O O4 0.956485 0.657160 0.795324
O O5 0.035979 0.625410 0.713158
O O6 0.629902 0.442965 0.897792
O O7 0.596296 0.294561 0.782486
O O8 0.548349 0.315214 0.908576
O O9 0.124906 0.053102 0.275965
O O10 0.123230 0.885217 0.381892
O O11 0.201499 0.907970 0.281187
O O12 0.950280 0.445215 0.894211
O O13 0.969011 0.678268 0.940179
#
# Coordination Sequence:
#
# PCOD9370633 Si02
#       7
#     8  16  16  16  16  16  16
#     4  10  22  46  60  84 142 182 216 268 348 418
#     4  11  24  44  68  99 134 185 226 283 344 418
#     4  10  20  42  64  91 127 178 219 278 334 416
#     4  11  23  39  65 107 135 168 226 288 343 406
#     4  11  19  38  67  91 131 173 214 279 343 388
#     4  10  21  42  67  93 135 169 223 280 340 396
#     4  10  20  37  64  96 127 165 222 285 332 394
#
# _framework density 22.516331999999998
#
# number of rings (size 3 to 8) (size 9 to 14) (size 15 to 20)
#    0.000    1.538    4.615    1.846    2.154    1.231 
#   13.846    0.000    0.000    0.000    0.000    0.000 
#    0.000    0.000    0.000    0.000    0.000    0.000 
#
# Total GULP energy -145112.549859 kJ/mol
# GULP energy per Si atom -5581.251918 kJ/mol
# Density = 2.246508 g / cm^3
# Si number density = 22.516332 Si / 1000 Ang^3
#
#
#
# Elastic Constant Matrix: (Units=GPa)
#
#
# Indices 1 2 3 4 5 6 
#
# 1 158.8652 2.1474 75.0586 0.0000 0.0000 0.0000
# 2 2.1474 34.8953 1.0053 0.0000 0.0000 0.0000
# 3 75.0586 1.0053 77.2247 0.0000 0.0000 0.0000
# 4 0.0000 0.0000 0.0000 16.8296 0.0000 0.0000
# 5 0.0000 0.0000 0.0000 0.0000 17.5181 0.0000
# 6 0.0000 0.0000 0.0000 0.0000 0.0000 25.2466
#
#
#
# Elastic Compliance Matrix: (Units=1/GPa)
#
#
# Indices 1 2 3 4 5 6 
#
# 1 0.011645 -0.000391 -0.011313 0.000000 0.000000 0.000000
# 2 -0.000391 0.028681 0.000006 0.000000 0.000000 0.000000
# 3 -0.011313 0.000006 0.023945 0.000000 0.000000 0.000000
# 4 0.000000 0.000000 0.000000 0.059419 0.000000 0.000000
# 5 0.000000 0.000000 0.000000 0.000000 0.057084 0.000000
# 6 0.000000 0.000000 0.000000 0.000000 0.000000 0.039609
#
#
# Mechanical properties :
#
#
# Convention : Reuss Voigt Hill
#
# Bulk Modulus (GPa) = 24.46431 47.48975 35.97703
# Shear Modulus (GPa) = 19.42470 24.77047 22.09758
#
# Velocity S-wave (km/s) = 2.94035 3.32039 3.13613
# Velocity P-wave (km/s) = 4.73458 5.98640 5.39691
#
# Compressibility (1/GPa) = 0.04087587
#
# Stress axis : x y z
#
# Youngs Moduli (GPa) = 85.87272 34.86630 41.76198
#
# Poissons Ratio (x) = 0.01362 0.47247
# Poissons Ratio (y) = 0.03355 -0.00027
# Poissons Ratio (z) = 0.97151 -0.00022
#
# Static dielectric constant tensor:
#      x y z
#    x 1.908060 0.000000 0.000000 
#    y 0.000000 1.907420 0.000000 
#    z 0.000000 0.000000 1.845430 
# 
# From -- ./inp_files/15056.got.cif
#   From: 2010.05.17/outbox.cif.g08.bks.cpg/sg43_8_cif.got.tgz:15056.got - 2010.06.03 19:21:55.
