data_PCOD9370963
_publ_section_title
;
Structure prediction by ZEFSAII (Michael W. Deem and Ramdas Pophale) SiO2 
 PCOD9370963
Probable space group: F D D 2
;
_chemical_formula_sum "Si O2"
_cell_formula_units_Z 72
_cell_length_a 7.571418
_cell_length_b 24.148583
_cell_length_c 15.156511
_cell_angle_alpha 90.000000
_cell_angle_beta 90.000000
_cell_angle_gamma 90.000000
_cell_volume 2771.201557
_symmetry_space_group_name_H-M "F D D 2"
_symmetry_group_IT_number 43
_symmetry_cell_setting 'orthorhombic'
loop_
_space_group_symop_operation_xyz
x,y,z
-x,-y,z
1/4-x,1/4+y,1/4+z
1/4+x,1/4-y,1/4+z
x,1/2+y,1/2+z
-x,1/2-y,1/2+z
1/4-x,3/4+y,3/4+z
1/4+x,3/4-y,3/4+z
1/2+x,y,1/2+z
1/2-x,-y,1/2+z
3/4-x,1/4+y,3/4+z
3/4+x,1/4-y,3/4+z
1/2+x,1/2+y,z
1/2-x,1/2-y,z
3/4-x,3/4+y,1/4+z
3/4+x,3/4-y,1/4+z
loop_
_atom_site_type_symbol
_atom_site_label
_atom_site_fract_x
_atom_site_fract_y
_atom_site_fract_z
Si Si1 0.012701 0.586978 0.228000
Si Si2 0.378467 0.294880 0.668543
Si Si3 0.500000 0.000000 0.464500
Si Si4 0.419445 0.610796 0.922142
Si Si5 0.389107 0.052984 0.710597
O O1 0.102527 0.647578 0.218122
O O2 0.176430 0.548556 0.198770
O O3 0.827222 0.593970 0.177910
O O4 0.950729 0.581065 0.328577
O O5 0.250000 0.250000 0.710053
O O6 0.566851 0.265729 0.669527
O O7 0.331304 0.305397 0.566779
O O8 0.447914 0.062887 0.496414
O O9 0.233708 0.641042 0.928296
O O10 0.500000 0.000000 0.676592
#
# Coordination Sequence:
#
# PCOD9370963 Si02
#       5
#    16  16   8  16  16
#     4  11  23  46  64 102 129 181 223 286 335 408
#     4  10  22  41  71  94 131 178 224 272 340 417
#     4  10  20  44  66  96 124 186 220 274 336 420
#     4  11  26  41  73  97 138 174 233 283 342 408
#     4  11  25  43  69 103 136 181 224 283 347 415
#
# _framework density 25.981511000000001
#
# number of rings (size 3 to 8) (size 9 to 14) (size 15 to 20)
#    0.000    1.333    4.444    1.333    9.333    0.889 
#   12.000    0.000    0.000    0.000    0.000    0.000 
#    0.000    0.000    0.000    0.000    0.000    0.000 
#
# Total GULP energy -100473.125279 kJ/mol
# GULP energy per Si atom -5581.840293 kJ/mol
# Density = 2.592238 g / cm^3
# Si number density = 25.981511 Si / 1000 Ang^3
#
#
#
# Elastic Constant Matrix: (Units=GPa)
#
#
# Indices 1 2 3 4 5 6 
#
# 1 117.4603 8.8245 9.0098 0.0000 0.0000 0.0000
# 2 8.8245 90.3972 -2.8331 0.0000 0.0000 0.0000
# 3 9.0098 -2.8331 17.3782 0.0000 0.0000 0.0000
# 4 0.0000 0.0000 0.0000 25.0952 0.0000 0.0000
# 5 0.0000 0.0000 0.0000 0.0000 10.5608 0.0000
# 6 0.0000 0.0000 0.0000 0.0000 0.0000 61.7893
#
#
#
# Elastic Compliance Matrix: (Units=1/GPa)
#
#
# Indices 1 2 3 4 5 6 
#
# 1 0.008960 -0.001025 -0.004812 0.000000 0.000000 0.000000
# 2 -0.001025 0.011236 0.002363 0.000000 0.000000 0.000000
# 3 -0.004812 0.002363 0.060424 0.000000 0.000000 0.000000
# 4 0.000000 0.000000 0.000000 0.039848 0.000000 0.000000
# 5 0.000000 0.000000 0.000000 0.000000 0.094690 0.000000
# 6 0.000000 0.000000 0.000000 0.000000 0.000000 0.016184
#
#
# Mechanical properties :
#
#
# Convention : Reuss Voigt Hill
#
# Bulk Modulus (GPa) = 13.57384 28.35979 20.96681
# Shear Modulus (GPa) = 19.02244 33.50469 26.26356
#
# Velocity S-wave (km/s) = 2.70877 3.59494 3.18285
# Velocity P-wave (km/s) = 3.87543 5.30759 4.64702
#
# Compressibility (1/GPa) = 0.07367114
#
# Stress axis : x y z
#
# Youngs Moduli (GPa) = 111.61096 88.99598 16.54981
#
# Poissons Ratio (x) = 0.09126 0.07964
# Poissons Ratio (y) = 0.11445 -0.03912
# Poissons Ratio (z) = 0.53711 -0.21034
#
# Static dielectric constant tensor:
#      x y z
#    x 2.028640 0.000000 0.000000 
#    y 0.000000 2.128750 0.000000 
#    z 0.000000 0.000000 2.096770 
# 
# From -- ./inp_files/12660.got.cif
#   From: 2010.05.17/outbox.cif.g08.bks.cpg/sg43_7_cif.got.tgz:12660.got - 2010.06.03 19:21:55.
