data_PCOD9370828
_publ_section_title
;
Structure prediction by ZEFSAII (Michael W. Deem and Ramdas Pophale) SiO2 
 PCOD9370828
Probable space group: F D D 2
;
_chemical_formula_sum "Si O2"
_cell_formula_units_Z 104
_cell_length_a 23.126512
_cell_length_b 30.809359
_cell_length_c 6.945531
_cell_angle_alpha 90.000000
_cell_angle_beta 90.000000
_cell_angle_gamma 90.000000
_cell_volume 4948.781203
_symmetry_space_group_name_H-M "F D D 2"
_symmetry_group_IT_number 43
_symmetry_cell_setting 'orthorhombic'
loop_
_space_group_symop_operation_xyz
x,y,z
-x,-y,z
1/4-x,1/4+y,1/4+z
1/4+x,1/4-y,1/4+z
x,1/2+y,1/2+z
-x,1/2-y,1/2+z
1/4-x,3/4+y,3/4+z
1/4+x,3/4-y,3/4+z
1/2+x,y,1/2+z
1/2-x,-y,1/2+z
3/4-x,1/4+y,3/4+z
3/4+x,1/4-y,3/4+z
1/2+x,1/2+y,z
1/2-x,1/2-y,z
3/4-x,3/4+y,1/4+z
3/4+x,3/4-y,1/4+z
loop_
_atom_site_type_symbol
_atom_site_label
_atom_site_fract_x
_atom_site_fract_y
_atom_site_fract_z
Si Si1 0.250000 0.750000 0.803411
Si Si2 0.843365 0.382116 0.406214
Si Si3 0.644234 0.197019 0.668919
Si Si4 0.600116 0.056613 0.706051
Si Si5 0.203202 0.995703 0.111639
Si Si6 0.268541 0.569796 0.424572
Si Si7 0.873005 0.119775 0.260434
O O1 0.297530 0.775166 0.677222
O O2 0.210198 0.781846 0.931308
O O3 0.857134 0.334898 0.489156
O O4 0.886534 0.416476 0.508429
O O5 0.781109 0.396888 0.483545
O O6 0.834758 0.385900 0.177160
O O7 0.587075 0.226699 0.689834
O O8 0.644823 0.166485 0.861006
O O9 0.653378 0.022432 0.728874
O O10 0.600736 0.090992 0.878968
O O11 0.230688 0.955059 0.219504
O O12 0.253801 0.028842 0.058828
O O13 0.325420 0.598148 0.400101
#
# Coordination Sequence:
#
# PCOD9370828 Si02
#       7
#     8  16  16  16  16  16  16
#     4  10  20  40  68  84 124 162 192 254 308 354
#     4  10  22  39  60  90 119 155 199 247 293 365
#     4   9  21  41  59  87 122 156 197 243 302 351
#     4   9  21  41  59  87 122 156 197 243 302 351
#     4   9  20  39  58  88 118 155 196 247 286 348
#     4  10  22  36  61  89 112 156 198 231 303 342
#     4  10  22  39  60  90 119 155 199 247 293 365
#
# _framework density 21.015274999999999
#
# number of rings (size 3 to 8) (size 9 to 14) (size 15 to 20)
#    0.000    2.462    0.000    0.000    8.615    0.000 
#    0.000    1.538    0.000    0.000    0.000    0.000 
#    0.000    0.000    0.000    0.000    0.000    0.000 
#
# Total GULP energy -144773.528241 kJ/mol
# GULP energy per Si atom -5568.212625 kJ/mol
# Density = 2.096744 g / cm^3
# Si number density = 21.015275 Si / 1000 Ang^3
#
#
#
# Elastic Constant Matrix: (Units=GPa)
#
#
# Indices 1 2 3 4 5 6 
#
# 1 61.1201 31.6964 18.5952 -0.0187 0.0579 0.0153
# 2 31.6964 92.5145 21.1628 -0.0066 0.0175 0.0058
# 3 18.5952 21.1628 73.9762 -0.0400 0.1084 0.0204
# 4 -0.0187 -0.0066 -0.0400 24.1924 0.0200 0.0037
# 5 0.0579 0.0175 0.1084 0.0200 11.6952 -0.0128
# 6 0.0153 0.0058 0.0204 0.0037 -0.0128 24.9247
#
#
#
# Elastic Compliance Matrix: (Units=1/GPa)
#
#
# Indices 1 2 3 4 5 6 
#
# 1 0.020662 -0.006303 -0.003390 0.000009 -0.000061 -0.000008
# 2 -0.006303 0.013489 -0.002274 -0.000005 0.000032 0.000003
# 3 -0.003390 -0.002274 0.015021 0.000022 -0.000119 -0.000010
# 4 0.000009 -0.000005 0.000022 0.041335 -0.000071 -0.000006
# 5 -0.000061 0.000032 -0.000119 -0.000071 0.085507 0.000044
# 6 -0.000008 0.000003 -0.000010 -0.000006 0.000044 0.040121
#
#
# Mechanical properties :
#
#
# Convention : Reuss Voigt Hill
#
# Bulk Modulus (GPa) = 39.62704 41.16884 40.39794
# Shear Modulus (GPa) = 20.12215 22.57289 21.34752
#
# Velocity S-wave (km/s) = 3.09771 3.28093 3.19063
# Velocity P-wave (km/s) = 5.62953 5.82968 5.73048
#
# Compressibility (1/GPa) = 0.02523529
#
# Stress axis : x y z
#
# Youngs Moduli (GPa) = 48.39887 74.13455 66.57372
#
# Poissons Ratio (x) = 0.46729 0.22571
# Poissons Ratio (y) = 0.30507 0.15142
# Poissons Ratio (z) = 0.16409 0.16862
#
# Static dielectric constant tensor:
#      x y z
#    x 1.836320 -0.000020 0.000000 
#    y -0.000020 1.779510 -0.000010 
#    z 0.000000 -0.000010 1.798700 
# 
# From -- ./inp_files/3474.got.cif
#   From: 2010.05.17/outbox.cif.g08.bks.cpg/sg43_2_cif.got.tgz:3474.got - 2010.06.03 19:21:55.
