data_PCOD9370137
_publ_section_title
;
Structure prediction by ZEFSAII (Michael W. Deem and Ramdas Pophale) SiO2 
 PCOD9370137
Probable space group: F D D 2
;
_chemical_formula_sum "Si O2"
_cell_formula_units_Z 104
_cell_length_a 27.696815
_cell_length_b 19.336970
_cell_length_c 7.834361
_cell_angle_alpha 90.000000
_cell_angle_beta 90.000000
_cell_angle_gamma 90.000000
_cell_volume 4195.868156
_symmetry_space_group_name_H-M "F D D 2"
_symmetry_group_IT_number 43
_symmetry_cell_setting 'orthorhombic'
loop_
_space_group_symop_operation_xyz
x,y,z
-x,-y,z
1/4-x,1/4+y,1/4+z
1/4+x,1/4-y,1/4+z
x,1/2+y,1/2+z
-x,1/2-y,1/2+z
1/4-x,3/4+y,3/4+z
1/4+x,3/4-y,3/4+z
1/2+x,y,1/2+z
1/2-x,-y,1/2+z
3/4-x,1/4+y,3/4+z
3/4+x,1/4-y,3/4+z
1/2+x,1/2+y,z
1/2-x,1/2-y,z
3/4-x,3/4+y,1/4+z
3/4+x,3/4-y,1/4+z
loop_
_atom_site_type_symbol
_atom_site_label
_atom_site_fract_x
_atom_site_fract_y
_atom_site_fract_z
Si Si1 0.718141 0.053912 0.037100
Si Si2 0.084465 0.827728 0.605138
Si Si3 0.644706 0.719814 0.924302
Si Si4 0.862930 0.466812 0.814866
Si Si5 0.981333 0.849433 0.770393
Si Si6 0.000000 0.500000 0.296516
Si Si7 0.428444 0.843173 0.900471
O O1 0.685326 0.098095 0.166159
O O2 0.772790 0.076826 0.048760
O O3 0.691945 0.057858 0.856005
O O4 0.714250 0.973408 0.100759
O O5 0.117576 0.762714 0.568312
O O6 0.115806 0.888940 0.681781
O O7 0.034706 0.825695 0.707505
O O8 0.630272 0.747225 0.739569
O O9 0.702081 0.729768 0.943473
O O10 0.855820 0.526472 0.677190
O O11 0.898920 0.403029 0.806984
O O12 0.948647 0.860273 0.595687
O O13 0.985515 0.922923 0.868593
#
# Coordination Sequence:
#
# PCOD9370137 Si02
#       7
#    16  16  16  16  16   8  16
#     4   9  19  33  53  76 110 148 183 227 284 334
#     4   9  19  30  50  77 106 145 176 222 283 327
#     4  10  18  30  48  80 111 133 175 228 282 330
#     4  10  18  32  55  80 111 145 184 232 292 332
#     4   9  18  34  50  77 111 144 183 227 280 334
#     4  10  18  28  50  80 106 130 178 230 270 324
#     4  10  19  34  52  83 109 146 185 238 277 351
#
# _framework density 24.786289
#
# number of rings (size 3 to 8) (size 9 to 14) (size 15 to 20)
#    0.000    2.462    1.538    1.846    4.308    0.000 
#    0.000    3.077    0.000    0.000   12.000    0.000 
#    0.000    0.000    0.000    0.000    0.000    0.000 
#
# Total GULP energy -145121.510716 kJ/mol
# GULP energy per Si atom -5581.596566 kJ/mol
# Density = 2.472987 g / cm^3
# Si number density = 24.786289 Si / 1000 Ang^3
#
#
#
# Elastic Constant Matrix: (Units=GPa)
#
#
# Indices 1 2 3 4 5 6 
#
# 1 124.8501 84.1604 20.2145 -0.0008 0.0000 0.0000
# 2 84.1604 175.1926 21.6186 0.0008 0.0001 -0.0001
# 3 20.2145 21.6186 56.2293 -0.0029 0.0003 -0.0004
# 4 -0.0008 0.0008 -0.0029 385.8852 -0.0059 0.0050
# 5 0.0000 0.0001 0.0003 -0.0059 11.7776 0.0000
# 6 0.0000 -0.0001 -0.0004 0.0050 0.0000 46.4891
#
#
#
# Elastic Compliance Matrix: (Units=1/GPa)
#
#
# Indices 1 2 3 4 5 6 
#
# 1 0.012104 -0.005541 -0.002221 0.000000 0.000000 0.000000
# 2 -0.005541 0.008528 -0.001287 0.000000 0.000000 0.000000
# 3 -0.002221 -0.001287 0.019078 0.000000 0.000000 0.000000
# 4 0.000000 0.000000 0.000000 0.002591 0.000001 0.000000
# 5 0.000000 0.000000 0.000000 0.000001 0.084907 0.000000
# 6 0.000000 0.000000 0.000000 0.000000 0.000000 0.021510
#
#
# Mechanical properties :
#
#
# Convention : Reuss Voigt Hill
#
# Bulk Modulus (GPa) = 46.26965 67.58431 56.92698
# Shear Modulus (GPa) = 28.73215 104.18228 66.45721
#
# Velocity S-wave (km/s) = 3.40839 6.49026 5.18366
# Velocity P-wave (km/s) = 5.84786 9.13732 7.67099
#
# Compressibility (1/GPa) = 0.02161244
#
# Stress axis : x y z
#
# Youngs Moduli (GPa) = 82.61668 117.25464 52.41717
#
# Poissons Ratio (x) = 0.64966 0.11643
# Poissons Ratio (y) = 0.45774 0.06747
# Poissons Ratio (z) = 0.18351 0.15092
#
# Static dielectric constant tensor:
#      x y z
#    x 1.985750 0.000000 0.000000 
#    y 0.000000 -0.327170 -0.000010 
#    z 0.000000 -0.000010 2.020440 
# 
# From -- ./inp_files/6854.got.cif
#   From: 2010.05.17/outbox.cif.g08.bks.cpg/sg43_4_cif.got.tgz:6854.got - 2010.06.03 19:21:55.
