data_PCOD9370905
_publ_section_title
;
Structure prediction by ZEFSAII (Michael W. Deem and Ramdas Pophale) SiO2 
 PCOD9370905
Probable space group: F D D 2
;
_chemical_formula_sum "Si O2"
_cell_formula_units_Z 88
_cell_length_a 30.310237
_cell_length_b 10.000407
_cell_length_c 10.258536
_cell_angle_alpha 90.000000
_cell_angle_beta 90.000000
_cell_angle_gamma 90.000000
_cell_volume 3109.513126
_symmetry_space_group_name_H-M "F D D 2"
_symmetry_group_IT_number 43
_symmetry_cell_setting 'orthorhombic'
loop_
_space_group_symop_operation_xyz
x,y,z
-x,-y,z
1/4-x,1/4+y,1/4+z
1/4+x,1/4-y,1/4+z
x,1/2+y,1/2+z
-x,1/2-y,1/2+z
1/4-x,3/4+y,3/4+z
1/4+x,3/4-y,3/4+z
1/2+x,y,1/2+z
1/2-x,-y,1/2+z
3/4-x,1/4+y,3/4+z
3/4+x,1/4-y,3/4+z
1/2+x,1/2+y,z
1/2-x,1/2-y,z
3/4-x,3/4+y,1/4+z
3/4+x,3/4-y,1/4+z
loop_
_atom_site_type_symbol
_atom_site_label
_atom_site_fract_x
_atom_site_fract_y
_atom_site_fract_z
Si Si1 0.685381 0.009936 0.984250
Si Si2 0.587872 0.772412 0.275770
Si Si3 0.311813 0.714208 0.864929
Si Si4 0.593093 0.403274 0.494124
Si Si5 0.500000 0.500000 0.490401
Si Si6 0.748688 0.065888 0.655931
O O1 0.703089 0.138568 0.908534
O O2 0.638935 0.957644 0.935516
O O3 0.670216 0.054497 0.128607
O O4 0.726488 0.915385 0.015740
O O5 0.564282 0.632390 0.240483
O O6 0.636431 0.766906 0.333916
O O7 0.552680 0.847374 0.369629
O O8 0.597878 0.830853 0.132165
O O9 0.280070 0.646568 0.757519
O O10 0.552312 0.499680 0.525517
O O11 0.500557 0.658378 0.443608
#
# Coordination Sequence:
#
# PCOD9370905 Si02
#       6
#    16  16  16  16   8  16
#     4  11  23  45  75 107 160 212 269 341 421 492
#     4  12  24  50  75 111 164 206 279 347 411 509
#     4  12  25  50  77 117 162 219 281 343 424 505
#     4  11  22  44  74 105 153 216 260 341 421 487
#     4  10  20  42  66 100 148 206 264 326 420 472
#     4  11  24  46  75 114 157 216 277 343 416 506
#
# _framework density 28.300253000000001
#
# number of rings (size 3 to 8) (size 9 to 14) (size 15 to 20)
#    0.000    0.727    5.455    4.364    0.000    1.455 
#   13.091    0.000    0.000    0.000    0.000    0.000 
#    0.000    0.000    0.000    0.000    0.000    0.000 
#
# Total GULP energy -122859.010739 kJ/mol
# GULP energy per Si atom -5584.500488 kJ/mol
# Density = 2.823584 g / cm^3
# Si number density = 28.300253 Si / 1000 Ang^3
#
#
#
# Elastic Constant Matrix: (Units=GPa)
#
#
# Indices 1 2 3 4 5 6 
#
# 1 223.4725 49.6758 36.7023 0.0000 0.0000 0.0000
# 2 49.6758 79.2545 16.5416 0.0000 0.0000 0.0000
# 3 36.7023 16.5416 98.7656 0.0000 0.0000 0.0000
# 4 0.0000 0.0000 0.0000 31.0794 0.0000 0.0000
# 5 0.0000 0.0000 0.0000 0.0000 55.4701 0.0000
# 6 0.0000 0.0000 0.0000 0.0000 0.0000 -9.0326
#
#
#
# Elastic Compliance Matrix: (Units=1/GPa)
#
#
# Indices 1 2 3 4 5 6 
#
# 1 0.005404 -0.003075 -0.001493 0.000000 0.000000 0.000000
# 2 -0.003075 0.014825 -0.001340 0.000000 0.000000 0.000000
# 3 -0.001493 -0.001340 0.010904 0.000000 0.000000 0.000000
# 4 0.000000 0.000000 0.000000 0.032176 0.000000 0.000000
# 5 0.000000 0.000000 0.000000 0.000000 0.018028 0.000000
# 6 0.000000 0.000000 0.000000 0.000000 0.000000 -0.110710
#
#
# Mechanical properties :
#
#
# Convention : Reuss Voigt Hill
#
# Bulk Modulus (GPa) = 51.77076 67.48132 59.62604
# Shear Modulus (GPa) = -449.72235 35.40823 -207.15706
#
# Velocity S-wave (km/s) = -12.61967 3.54102 -8.56497
# Velocity P-wave (km/s) = 13.92869 6.37298 8.75766
#
# Compressibility (1/GPa) = 0.01931592
#
# Stress axis : x y z
#
# Youngs Moduli (GPa) = 185.06039 67.45425 91.70753
#
# Poissons Ratio (x) = 0.20744 0.13692
# Poissons Ratio (y) = 0.56912 0.12290
# Poissons Ratio (z) = 0.27629 0.09040
#
# Static dielectric constant tensor:
#      x y z
#    x 2.375850 0.000000 0.000000 
#    y 0.000000 2.348960 0.000000 
#    z 0.000000 0.000000 2.266440 
# 
# From -- ./inp_files/8218.got.cif
#   From: 2010.05.17/outbox.cif.g08.bks.cpg/sg43_5_cif.got.tgz:8218.got - 2010.06.03 19:21:55.
