data_PCOD9370077
_publ_section_title
;
Structure prediction by ZEFSAII (Michael W. Deem and Ramdas Pophale) SiO2 
 PCOD9370077
Probable space group: F D D 2
;
_chemical_formula_sum "Si O2"
_cell_formula_units_Z 120
_cell_length_a 10.955809
_cell_length_b 20.818790
_cell_length_c 21.496725
_cell_angle_alpha 90.000000
_cell_angle_beta 90.000000
_cell_angle_gamma 90.000000
_cell_volume 4903.116783
_symmetry_space_group_name_H-M "F D D 2"
_symmetry_group_IT_number 43
_symmetry_cell_setting 'orthorhombic'
loop_
_space_group_symop_operation_xyz
x,y,z
-x,-y,z
1/4-x,1/4+y,1/4+z
1/4+x,1/4-y,1/4+z
x,1/2+y,1/2+z
-x,1/2-y,1/2+z
1/4-x,3/4+y,3/4+z
1/4+x,3/4-y,3/4+z
1/2+x,y,1/2+z
1/2-x,-y,1/2+z
3/4-x,1/4+y,3/4+z
3/4+x,1/4-y,3/4+z
1/2+x,1/2+y,z
1/2-x,1/2-y,z
3/4-x,3/4+y,1/4+z
3/4+x,3/4-y,1/4+z
loop_
_atom_site_type_symbol
_atom_site_label
_atom_site_fract_x
_atom_site_fract_y
_atom_site_fract_z
Si Si1 0.900680 0.556510 0.621090
Si Si2 0.857538 0.006257 0.806208
Si Si3 0.000000 0.500000 0.794426
Si Si4 0.802565 0.901829 0.252841
Si Si5 0.467771 0.332340 0.176833
Si Si6 0.067193 0.157248 0.607940
Si Si7 0.629418 0.513893 0.614866
Si Si8 0.863642 0.527866 0.983839
O O1 0.919517 0.599746 0.557929
O O2 0.768424 0.526466 0.636436
O O3 0.000000 0.500000 0.618173
O O4 0.936527 0.609671 0.672344
O O5 0.821250 0.057105 0.752224
O O6 0.794641 0.045107 0.862734
O O7 0.793344 0.937409 0.817215
O O8 0.000000 0.000000 0.811792
O O9 0.099014 0.540871 0.757916
O O10 0.068934 0.449585 0.836740
O O11 0.836144 0.861565 0.192322
O O12 0.517535 0.279973 0.223872
O O13 0.096995 0.085228 0.590518
O O14 0.069414 0.169101 0.683296
O O15 0.500000 0.500000 0.650359
O O16 0.640024 0.462956 0.558142
O O17 0.000000 0.500000 0.969919
#
# Coordination Sequence:
#
# PCOD9370077 Si02
#       8
#    16  16   8  16  16  16  16  16
#     4  11  23  39  60  94 133 174 217 283 335 408
#     4   9  21  37  63  92 130 179 217 279 357 405
#     4  10  16  32  66  90 118 164 226 292 318 368
#     4  10  20  37  63  94 125 168 228 280 338 408
#     4  10  20  37  62  95 125 170 235 270 331 418
#     4  10  18  35  63  92 129 170 227 284 332 402
#     4  11  23  39  61  97 140 181 222 280 360 404
#     4  10  18  33  63  96 124 162 230 282 331 406
#
# _framework density 24.474229000000001
#
# number of rings (size 3 to 8) (size 9 to 14) (size 15 to 20)
#    0.000    1.867    3.333    1.600    0.933    2.667 
#    0.000    0.000    0.000    0.800    0.000    0.000 
#    0.000    0.000    0.000    0.000    0.000    0.000 
#
# Total GULP energy -167257.822340 kJ/mol
# GULP energy per Si atom -5575.260745 kJ/mol
# Density = 2.441852 g / cm^3
# Si number density = 24.474229 Si / 1000 Ang^3
#
#
#
# Elastic Constant Matrix: (Units=GPa)
#
#
# Indices 1 2 3 4 5 6 
#
# 1 153.0578 24.2462 -12.6340 0.0000 0.0000 0.0000
# 2 24.2462 83.5247 -3.6449 0.0000 0.0000 0.0000
# 3 -12.6340 -3.6449 32.8663 0.0000 0.0000 0.0000
# 4 0.0000 0.0000 0.0000 7.7333 0.0000 0.0000
# 5 0.0000 0.0000 0.0000 0.0000 61.1013 0.0000
# 6 0.0000 0.0000 0.0000 0.0000 0.0000 29.3132
#
#
#
# Elastic Compliance Matrix: (Units=1/GPa)
#
#
# Indices 1 2 3 4 5 6 
#
# 1 0.007046 -0.001937 0.002494 0.000000 0.000000 0.000000
# 2 -0.001937 0.012563 0.000649 0.000000 0.000000 0.000000
# 3 0.002494 0.000649 0.031457 0.000000 0.000000 0.000000
# 4 0.000000 0.000000 0.000000 0.129311 0.000000 0.000000
# 5 0.000000 0.000000 0.000000 0.000000 0.016366 0.000000
# 6 0.000000 0.000000 0.000000 0.000000 0.000000 0.034114
#
#
# Mechanical properties :
#
#
# Convention : Reuss Voigt Hill
#
# Bulk Modulus (GPa) = 18.69927 31.70929 25.20428
# Shear Modulus (GPa) = 20.30276 37.06164 28.68220
#
# Velocity S-wave (km/s) = 2.88333 3.89564 3.42707
# Velocity P-wave (km/s) = 4.32917 5.76359 5.09709
#
# Compressibility (1/GPa) = 0.05347803
#
# Stress axis : x y z
#
# Youngs Moduli (GPa) = 141.92245 79.59894 31.78952
#
# Poissons Ratio (x) = 0.15415 -0.07928
# Poissons Ratio (y) = 0.27484 -0.02063
# Poissons Ratio (z) = -0.35392 -0.05164
#
# Static dielectric constant tensor:
#      x y z
#    x 1.931220 0.000000 0.000000 
#    y 0.000000 1.933500 0.000000 
#    z 0.000000 0.000000 2.108240 
# 
# From -- ./inp_files/21239.got.cif
#   From: 2010.05.17/outbox.cif.g08.bks.cpg/sg43_11_cif.got.tgz:21239.got - 2010.06.03 19:21:55.
