data_PCOD9370100
_publ_section_title
;
Structure prediction by ZEFSAII (Michael W. Deem and Ramdas Pophale) SiO2 
 PCOD9370100
Probable space group: F D D 2
;
_chemical_formula_sum "Si O2"
_cell_formula_units_Z 80
_cell_length_a 26.969681
_cell_length_b 13.707903
_cell_length_c 7.352247
_cell_angle_alpha 90.000000
_cell_angle_beta 90.000000
_cell_angle_gamma 90.000000
_cell_volume 2718.109328
_symmetry_space_group_name_H-M "F D D 2"
_symmetry_group_IT_number 43
_symmetry_cell_setting 'orthorhombic'
loop_
_space_group_symop_operation_xyz
x,y,z
-x,-y,z
1/4-x,1/4+y,1/4+z
1/4+x,1/4-y,1/4+z
x,1/2+y,1/2+z
-x,1/2-y,1/2+z
1/4-x,3/4+y,3/4+z
1/4+x,3/4-y,3/4+z
1/2+x,y,1/2+z
1/2-x,-y,1/2+z
3/4-x,1/4+y,3/4+z
3/4+x,1/4-y,3/4+z
1/2+x,1/2+y,z
1/2-x,1/2-y,z
3/4-x,3/4+y,1/4+z
3/4+x,3/4-y,1/4+z
loop_
_atom_site_type_symbol
_atom_site_label
_atom_site_fract_x
_atom_site_fract_y
_atom_site_fract_z
Si Si1 0.702536 0.320926 0.403510
Si Si2 0.289513 0.337903 0.464232
Si Si3 0.047146 0.691825 0.766062
Si Si4 0.625690 0.799098 0.400519
Si Si5 0.847582 0.000841 0.568645
O O1 0.750000 0.250000 0.431074
O O2 0.706656 0.380407 0.207803
O O3 0.651974 0.257270 0.404257
O O4 0.688366 0.405989 0.547305
O O5 0.250000 0.250000 0.495674
O O6 0.252425 0.424337 0.404169
O O7 0.332698 0.284197 0.353919
O O8 0.317675 0.401073 0.620284
O O9 0.091237 0.643591 0.651045
O O10 0.072807 0.794360 0.803546
O O11 0.612089 0.771292 0.607166
#
# Coordination Sequence:
#
# PCOD9370100 Si02
#       5
#    16  16  16  16  16
#     4  10  19  30  51  77 107 135 176 218 263 307
#     4  10  17  26  45  75 104 129 165 218 256 299
#     4   9  16  24  45  70 100 126 162 208 258 288
#     4   9  14  26  41  67 102 123 164 206 249 294
#     4  10  17  30  48  79 106 135 172 220 256 309
#
# _framework density 29.432221999999999
#
# number of rings (size 3 to 8) (size 9 to 14) (size 15 to 20)
#    0.000    2.400    6.000    3.000    0.000    0.000 
#    0.000    0.000    0.000    4.800    0.000    5.600 
#    0.000    0.000    0.000    0.000    0.000    0.000 
#
# Total GULP energy -111411.795436 kJ/mol
# GULP energy per Si atom -5570.589772 kJ/mol
# Density = 2.936523 g / cm^3
# Si number density = 29.432222 Si / 1000 Ang^3
#
#
#
# Elastic Constant Matrix: (Units=GPa)
#
#
# Indices 1 2 3 4 5 6 
#
# 1 225.7355 76.0615 32.7575 0.0000 0.0000 0.0000
# 2 76.0615 143.9136 27.7995 0.0000 0.0000 0.0000
# 3 32.7575 27.7995 103.1414 0.0000 0.0000 0.0000
# 4 0.0000 0.0000 0.0000 10.0519 0.0000 0.0000
# 5 0.0000 0.0000 0.0000 0.0000 25.0097 0.0000
# 6 0.0000 0.0000 0.0000 0.0000 0.0000 83.7077
#
#
#
# Elastic Compliance Matrix: (Units=1/GPa)
#
#
# Indices 1 2 3 4 5 6 
#
# 1 0.005489 -0.002705 -0.001014 0.000000 0.000000 0.000000
# 2 -0.002705 0.008663 -0.001476 0.000000 0.000000 0.000000
# 3 -0.001014 -0.001476 0.010415 0.000000 0.000000 0.000000
# 4 0.000000 0.000000 0.000000 0.099484 0.000000 0.000000
# 5 0.000000 0.000000 0.000000 0.000000 0.039984 0.000000
# 6 0.000000 0.000000 0.000000 0.000000 0.000000 0.011946
#
#
# Mechanical properties :
#
#
# Convention : Reuss Voigt Hill
#
# Bulk Modulus (GPa) = 70.53539 82.89194 76.71367
# Shear Modulus (GPa) = 26.16468 46.16532 36.16500
#
# Velocity S-wave (km/s) = 2.98481 3.96476 3.50916
# Velocity P-wave (km/s) = 5.99134 7.01313 6.52228
#
# Compressibility (1/GPa) = 0.01417728
#
# Stress axis : x y z
#
# Youngs Moduli (GPa) = 182.19753 115.42901 96.01249
#
# Poissons Ratio (x) = 0.31223 0.09737
# Poissons Ratio (y) = 0.49283 0.14171
# Poissons Ratio (z) = 0.18477 0.17036
#
# Static dielectric constant tensor:
#      x y z
#    x 2.350210 0.000000 0.000000 
#    y 0.000000 2.382790 0.000000 
#    z 0.000000 0.000000 2.421910 
# 
# From -- ./inp_files/5698.got.cif
#   From: 2010.05.17/outbox.cif.g08.bks.cpg/sg43_3_cif.got.tgz:5698.got - 2010.06.03 19:21:55.
