data_PCOD9370364
_publ_section_title
;
Structure prediction by ZEFSAII (Michael W. Deem and Ramdas Pophale) SiO2 
 PCOD9370364
Probable space group: F D D 2
;
_chemical_formula_sum "Si O2"
_cell_formula_units_Z 112
_cell_length_a 14.306746
_cell_length_b 25.309368
_cell_length_c 14.561032
_cell_angle_alpha 90.000000
_cell_angle_beta 90.000000
_cell_angle_gamma 90.000000
_cell_volume 5272.472505
_symmetry_space_group_name_H-M "F D D 2"
_symmetry_group_IT_number 43
_symmetry_cell_setting 'orthorhombic'
loop_
_space_group_symop_operation_xyz
x,y,z
-x,-y,z
1/4-x,1/4+y,1/4+z
1/4+x,1/4-y,1/4+z
x,1/2+y,1/2+z
-x,1/2-y,1/2+z
1/4-x,3/4+y,3/4+z
1/4+x,3/4-y,3/4+z
1/2+x,y,1/2+z
1/2-x,-y,1/2+z
3/4-x,1/4+y,3/4+z
3/4+x,1/4-y,3/4+z
1/2+x,1/2+y,z
1/2-x,1/2-y,z
3/4-x,3/4+y,1/4+z
3/4+x,3/4-y,1/4+z
loop_
_atom_site_type_symbol
_atom_site_label
_atom_site_fract_x
_atom_site_fract_y
_atom_site_fract_z
Si Si1 0.491363 0.304374 0.943990
Si Si2 0.980043 0.059584 0.682419
Si Si3 0.869091 0.888686 0.557863
Si Si4 0.017871 0.940807 0.080169
Si Si5 0.756528 0.580704 0.398003
Si Si6 0.707255 0.933145 0.663854
Si Si7 0.032695 0.914527 0.882636
O O1 0.381014 0.317418 0.937055
O O2 0.506717 0.243141 0.920258
O O3 0.535491 0.350631 0.882278
O O4 0.529651 0.313824 0.047345
O O5 0.012888 0.067745 0.787780
O O6 0.037837 0.093065 0.609873
O O7 0.000000 0.000000 0.655904
O O8 0.819794 0.926121 0.478714
O O9 0.788450 0.892135 0.635626
O O10 0.901961 0.836180 0.504400
O O11 0.129211 0.931668 0.084680
O O12 0.981154 0.894327 0.144160
O O13 0.982100 0.931908 0.976636
O O14 0.000000 0.000000 0.111761
O O15 0.863392 0.560568 0.393840
#
# Coordination Sequence:
#
# PCOD9370364 Si02
#       7
#    16  16  16  16  16  16  16
#     4  10  22  40  62  95 126 173 222 271 326 402
#     4  11  23  40  62  92 136 172 215 270 334 395
#     4  11  24  44  67  93 133 178 218 279 335 396
#     4  10  19  35  65  93 122 167 216 270 323 394
#     4   9  20  40  61  88 129 170 214 270 330 388
#     4  11  23  44  66  93 135 169 225 278 333 398
#     4  10  20  38  64  91 129 168 215 267 328 392
#
# _framework density 21.242405999999999
#
# number of rings (size 3 to 8) (size 9 to 14) (size 15 to 20)
#    0.000    1.714    2.857    1.286    2.000    0.000 
#    5.143    0.000    0.000    0.000    0.000    0.000 
#    0.000    0.000    0.000    0.000    0.000    0.000 
#
# Total GULP energy -155876.466396 kJ/mol
# GULP energy per Si atom -5567.016657 kJ/mol
# Density = 2.119406 g / cm^3
# Si number density = 21.242406 Si / 1000 Ang^3
#
#
#
# Elastic Constant Matrix: (Units=GPa)
#
#
# Indices 1 2 3 4 5 6 
#
# 1 85.2847 -0.6878 8.8240 0.0000 0.0000 0.0000
# 2 -0.6878 53.0845 -0.2818 0.0000 0.0000 0.0000
# 3 8.8240 -0.2818 52.9133 0.0000 0.0000 0.0000
# 4 0.0000 0.0000 0.0000 17.6522 0.0000 0.0000
# 5 0.0000 0.0000 0.0000 0.0000 32.0950 0.0000
# 6 0.0000 0.0000 0.0000 0.0000 0.0000 20.2971
#
#
#
# Elastic Compliance Matrix: (Units=1/GPa)
#
#
# Indices 1 2 3 4 5 6 
#
# 1 0.011932 0.000144 -0.001989 0.000000 0.000000 0.000000
# 2 0.000144 0.018840 0.000076 0.000000 0.000000 0.000000
# 3 -0.001989 0.000076 0.019231 0.000000 0.000000 0.000000
# 4 0.000000 0.000000 0.000000 0.056650 0.000000 0.000000
# 5 0.000000 0.000000 0.000000 0.000000 0.031158 0.000000
# 6 0.000000 0.000000 0.000000 0.000000 0.000000 0.049268
#
#
# Mechanical properties :
#
#
# Convention : Reuss Voigt Hill
#
# Bulk Modulus (GPa) = 21.52114 22.99906 22.26010
# Shear Modulus (GPa) = 24.25940 26.23738 25.24839
#
# Velocity S-wave (km/s) = 3.38305 3.51827 3.45133
# Velocity P-wave (km/s) = 5.04116 5.23018 5.13654
#
# Compressibility (1/GPa) = 0.04646595
#
# Stress axis : x y z
#
# Youngs Moduli (GPa) = 83.80549 53.07814 51.99947
#
# Poissons Ratio (x) = -0.00765 0.10343
# Poissons Ratio (y) = -0.01207 -0.00397
# Poissons Ratio (z) = 0.16670 -0.00405
#
# Static dielectric constant tensor:
#      x y z
#    x 1.872930 0.000000 0.000000 
#    y 0.000000 1.771430 0.000000 
#    z 0.000000 0.000000 1.804270 
# 
# From -- ./inp_files/10181.got.cif
#   From: 2010.05.17/outbox.cif.g08.bks.cpg/sg43_6_cif.got.tgz:10181.got - 2010.06.03 19:21:55.
