data_PCOD9370697
_publ_section_title
;
Structure prediction by ZEFSAII (Michael W. Deem and Ramdas Pophale) SiO2 
 PCOD9370697
Probable space group: F D D 2
;
_chemical_formula_sum "Si O2"
_cell_formula_units_Z 120
_cell_length_a 14.940776
_cell_length_b 14.190379
_cell_length_c 24.945422
_cell_angle_alpha 90.000000
_cell_angle_beta 90.000000
_cell_angle_gamma 90.000000
_cell_volume 5288.810480
_symmetry_space_group_name_H-M "F D D 2"
_symmetry_group_IT_number 43
_symmetry_cell_setting 'orthorhombic'
loop_
_space_group_symop_operation_xyz
x,y,z
-x,-y,z
1/4-x,1/4+y,1/4+z
1/4+x,1/4-y,1/4+z
x,1/2+y,1/2+z
-x,1/2-y,1/2+z
1/4-x,3/4+y,3/4+z
1/4+x,3/4-y,3/4+z
1/2+x,y,1/2+z
1/2-x,-y,1/2+z
3/4-x,1/4+y,3/4+z
3/4+x,1/4-y,3/4+z
1/2+x,1/2+y,z
1/2-x,1/2-y,z
3/4-x,3/4+y,1/4+z
3/4+x,3/4-y,1/4+z
loop_
_atom_site_type_symbol
_atom_site_label
_atom_site_fract_x
_atom_site_fract_y
_atom_site_fract_z
Si Si1 0.982670 0.887840 0.940240
Si Si2 0.865121 0.815145 0.038564
Si Si3 0.500000 0.500000 0.323905
Si Si4 0.604057 0.389074 0.587169
Si Si5 0.075450 0.694014 0.126155
Si Si6 0.926960 0.379149 0.730282
Si Si7 0.781332 0.555542 0.999685
Si Si8 0.514853 0.104868 0.617921
O O1 0.920322 0.861720 0.889026
O O2 0.930826 0.852394 0.992710
O O3 0.000000 0.000000 0.937192
O O4 0.081949 0.850456 0.953257
O O5 0.884172 0.708275 0.054013
O O6 0.770550 0.850856 0.017843
O O7 0.888511 0.867761 0.094211
O O8 0.427857 0.560803 0.356984
O O9 0.443631 0.436064 0.283459
O O10 0.500065 0.380513 0.605491
O O11 0.643185 0.464578 0.544684
O O12 0.071665 0.686909 0.190516
O O13 0.042039 0.799458 0.107813
O O14 0.952494 0.272120 0.745106
O O15 0.993857 0.401894 0.681769
O O16 0.500000 0.000000 0.595099
#
# Coordination Sequence:
#
# PCOD9370697 Si02
#       8
#    16  16   8  16  16  16  16  16
#     4  12  20  40  70 104 142 169 228 301 354 410
#     4  11  21  35  67 101 138 174 211 287 359 411
#     4  12  26  50  66  96 146 184 240 288 352 432
#     4  11  23  44  69 102 139 180 233 295 351 411
#     4  10  24  47  67  95 143 184 226 297 352 418
#     4  11  23  41  66 101 136 184 226 291 349 412
#     4  11  22  42  65  99 137 181 230 274 352 420
#     4  10  20  38  65 102 131 168 230 288 354 417
#
# _framework density 22.689412000000001
#
# number of rings (size 3 to 8) (size 9 to 14) (size 15 to 20)
#    0.000    1.067    3.333    5.600    1.867    0.000 
#    7.200    0.000    0.000    0.000    0.000    0.000 
#    0.000    0.000    0.000    0.000    0.000    0.000 
#
# Total GULP energy -167180.796088 kJ/mol
# GULP energy per Si atom -5572.693203 kJ/mol
# Density = 2.263777 g / cm^3
# Si number density = 22.689412 Si / 1000 Ang^3
#
#
#
# Elastic Constant Matrix: (Units=GPa)
#
#
# Indices 1 2 3 4 5 6 
#
# 1 115.1798 -8.0410 64.4435 0.0000 0.0000 0.0000
# 2 -8.0410 29.1472 0.9314 0.0000 0.0000 0.0000
# 3 64.4435 0.9314 154.1786 0.0000 0.0000 0.0000
# 4 0.0000 0.0000 0.0000 31.5788 0.0000 0.0000
# 5 0.0000 0.0000 0.0000 0.0000 5.4159 0.0000
# 6 0.0000 0.0000 0.0000 0.0000 0.0000 15.7070
#
#
#
# Elastic Compliance Matrix: (Units=1/GPa)
#
#
# Indices 1 2 3 4 5 6 
#
# 1 0.011654 0.003371 -0.004892 0.000000 0.000000 0.000000
# 2 0.003371 0.035291 -0.001622 0.000000 0.000000 0.000000
# 3 -0.004892 -0.001622 0.008540 0.000000 0.000000 0.000000
# 4 0.000000 0.000000 0.000000 0.031667 0.000000 0.000000
# 5 0.000000 0.000000 0.000000 0.000000 0.184640 0.000000
# 6 0.000000 0.000000 0.000000 0.000000 0.000000 0.063666
#
#
# Mechanical properties :
#
#
# Convention : Reuss Voigt Hill
#
# Bulk Modulus (GPa) = 20.32512 45.90814 33.11663
# Shear Modulus (GPa) = 13.96088 26.61846 20.28967
#
# Velocity S-wave (km/s) = 2.48322 3.42887 2.99362
# Velocity P-wave (km/s) = 4.14720 5.99611 5.15522
#
# Compressibility (1/GPa) = 0.04920021
#
# Stress axis : x y z
#
# Youngs Moduli (GPa) = 85.80494 28.33614 117.09066
#
# Poissons Ratio (x) = -0.09553 0.57277
# Poissons Ratio (y) = -0.28929 0.18997
# Poissons Ratio (z) = 0.41973 0.04597
#
# Static dielectric constant tensor:
#      x y z
#    x 1.921060 0.000000 0.000000 
#    y 0.000000 1.102220 0.000000 
#    z 0.000000 0.000000 1.837050 
# 
# From -- ./inp_files/21827.got.cif
#   From: 2010.05.17/outbox.cif.g08.bks.cpg/sg43_11_cif.got.tgz:21827.got - 2010.06.03 19:21:55.
