data_PCOD9370717
_publ_section_title
;
Structure prediction by ZEFSAII (Michael W. Deem and Ramdas Pophale) SiO2 
 PCOD9370717
Probable space group: F D D 2
;
_chemical_formula_sum "Si O2"
_cell_formula_units_Z 120
_cell_length_a 21.030132
_cell_length_b 30.262209
_cell_length_c 8.726715
_cell_angle_alpha 90.000000
_cell_angle_beta 90.000000
_cell_angle_gamma 90.000000
_cell_volume 5553.840688
_symmetry_space_group_name_H-M "F D D 2"
_symmetry_group_IT_number 43
_symmetry_cell_setting 'orthorhombic'
loop_
_space_group_symop_operation_xyz
x,y,z
-x,-y,z
1/4-x,1/4+y,1/4+z
1/4+x,1/4-y,1/4+z
x,1/2+y,1/2+z
-x,1/2-y,1/2+z
1/4-x,3/4+y,3/4+z
1/4+x,3/4-y,3/4+z
1/2+x,y,1/2+z
1/2-x,-y,1/2+z
3/4-x,1/4+y,3/4+z
3/4+x,1/4-y,3/4+z
1/2+x,1/2+y,z
1/2-x,1/2-y,z
3/4-x,3/4+y,1/4+z
3/4+x,3/4-y,1/4+z
loop_
_atom_site_type_symbol
_atom_site_label
_atom_site_fract_x
_atom_site_fract_y
_atom_site_fract_z
Si Si1 0.202997 0.837937 0.414810
Si Si2 0.868449 0.876615 0.229402
Si Si3 0.677160 0.068522 0.987520
Si Si4 0.781693 0.589190 0.718599
Si Si5 0.750000 0.750000 0.777096
Si Si6 0.626357 0.980372 0.835908
Si Si7 0.566806 0.561819 0.982794
Si Si8 0.174565 0.717130 0.746506
O O1 0.134325 0.834777 0.333067
O O2 0.246553 0.873549 0.329031
O O3 0.232999 0.790659 0.383962
O O4 0.193437 0.845051 0.593121
O O5 0.815776 0.895747 0.349092
O O6 0.927748 0.865222 0.339956
O O7 0.850255 0.827891 0.168126
O O8 0.890420 0.913942 0.109477
O O9 0.731872 0.063450 0.113804
O O10 0.662582 0.023048 0.900305
O O11 0.825905 0.561188 0.834640
O O12 0.690782 0.733390 0.674175
O O13 0.609138 0.978397 0.656778
O O14 0.497039 0.546394 0.038878
O O15 0.588769 0.513943 0.913893
#
# Coordination Sequence:
#
# PCOD9370717 Si02
#       8
#    16  16  16  16   8  16  16  16
#     4  10  24  38  63  97 131 176 218 289 337 410
#     4  10  21  38  66  93 124 179 224 279 338 413
#     4  10  21  43  62  92 133 172 226 275 341 418
#     4  10  23  41  63  95 132 174 230 279 346 418
#     4  10  20  38  68  92 128 174 236 270 344 404
#     4  10  21  40  68  97 123 182 225 289 337 409
#     4  11  21  40  60  99 133 167 228 288 344 399
#     4  10  21  36  65  94 128 168 226 284 335 407
#
# _framework density 21.606669
#
# number of rings (size 3 to 8) (size 9 to 14) (size 15 to 20)
#    0.000    1.867    1.333    2.400    9.333    1.067 
#    9.600    1.333    0.000    0.000    0.000    0.000 
#    0.000    0.000    0.000    0.000    0.000    0.000 
#
# Total GULP energy -167011.784202 kJ/mol
# GULP energy per Si atom -5567.059473 kJ/mol
# Density = 2.155749 g / cm^3
# Si number density = 21.606669 Si / 1000 Ang^3
#
#
#
# Elastic Constant Matrix: (Units=GPa)
#
#
# Indices 1 2 3 4 5 6 
#
# 1 41.3747 29.8475 17.3849 0.0003 -0.0011 -0.0002
# 2 29.8475 111.7822 55.5104 0.0002 -0.0002 -0.0001
# 3 17.3849 55.5104 63.6848 0.0008 -0.0030 -0.0006
# 4 0.0003 0.0002 0.0008 -4.6808 -0.0007 -0.0003
# 5 -0.0011 -0.0002 -0.0030 -0.0007 1.7890 0.0004
# 6 -0.0002 -0.0001 -0.0006 -0.0003 0.0004 26.6544
#
#
#
# Elastic Compliance Matrix: (Units=1/GPa)
#
#
# Indices 1 2 3 4 5 6 
#
# 1 0.030100 -0.006976 -0.002136 0.000001 0.000015 0.000000
# 2 -0.006976 0.017391 -0.013254 -0.000002 -0.000025 0.000000
# 3 -0.002136 -0.013254 0.027838 0.000004 0.000044 0.000001
# 4 0.000001 -0.000002 0.000004 -0.213640 -0.000080 -0.000002
# 5 0.000015 -0.000025 0.000044 -0.000080 0.558973 -0.000009
# 6 0.000000 0.000000 0.000001 -0.000002 -0.000009 0.037517
#
#
# Mechanical properties :
#
#
# Convention : Reuss Voigt Hill
#
# Bulk Modulus (GPa) = 32.68399 46.92524 39.80462
# Shear Modulus (GPa) = 9.74452 12.35913 11.05182
#
# Velocity S-wave (km/s) = 2.12597 2.39426 2.26409
# Velocity P-wave (km/s) = 4.60282 5.42295 5.02963
#
# Compressibility (1/GPa) = 0.03059602
#
# Stress axis : x y z
#
# Youngs Moduli (GPa) = 33.22313 57.50220 35.92202
#
# Poissons Ratio (x) = 0.40116 0.07672
# Poissons Ratio (y) = 0.23178 0.47611
# Poissons Ratio (z) = 0.07095 0.76213
#
# Static dielectric constant tensor:
#      x y z
#    x 1.875300 0.000000 0.000000 
#    y 0.000000 1.933460 0.000000 
#    z 0.000000 0.000000 1.785340 
# 
# From -- ./inp_files/3917.got.cif
#   From: 2010.05.17/outbox.cif.g08.bks.cpg/sg43_2_cif.got.tgz:3917.got - 2010.06.03 19:21:55.
