data_PCOD9370436
_publ_section_title
;
Structure prediction by ZEFSAII (Michael W. Deem and Ramdas Pophale) SiO2 
 PCOD9370436
Probable space group: F D D 2
;
_chemical_formula_sum "Si O2"
_cell_formula_units_Z 80
_cell_length_a 12.379479
_cell_length_b 23.057380
_cell_length_c 11.551226
_cell_angle_alpha 90.000000
_cell_angle_beta 90.000000
_cell_angle_gamma 90.000000
_cell_volume 3297.162907
_symmetry_space_group_name_H-M "F D D 2"
_symmetry_group_IT_number 43
_symmetry_cell_setting 'orthorhombic'
loop_
_space_group_symop_operation_xyz
x,y,z
-x,-y,z
1/4-x,1/4+y,1/4+z
1/4+x,1/4-y,1/4+z
x,1/2+y,1/2+z
-x,1/2-y,1/2+z
1/4-x,3/4+y,3/4+z
1/4+x,3/4-y,3/4+z
1/2+x,y,1/2+z
1/2-x,-y,1/2+z
3/4-x,1/4+y,3/4+z
3/4+x,1/4-y,3/4+z
1/2+x,1/2+y,z
1/2-x,1/2-y,z
3/4-x,3/4+y,1/4+z
3/4+x,3/4-y,1/4+z
loop_
_atom_site_type_symbol
_atom_site_label
_atom_site_fract_x
_atom_site_fract_y
_atom_site_fract_z
Si Si1 0.455649 0.770289 0.706780
Si Si2 0.163461 0.087625 0.795364
Si Si3 0.091260 0.038580 0.170841
Si Si4 0.522886 0.891003 0.468941
Si Si5 0.070310 0.057833 0.547561
O O1 0.460913 0.715714 0.620318
O O2 0.416055 0.748255 0.833910
O O3 0.359708 0.813193 0.667689
O O4 0.568577 0.800386 0.729463
O O5 0.103298 0.065330 0.681879
O O6 0.252917 0.135105 0.763622
O O7 0.073741 0.117140 0.878271
O O8 0.166497 0.081271 0.241163
O O9 0.000000 0.000000 0.232535
O O10 0.024550 0.079175 0.082218
O O11 0.000000 0.000000 0.533065
#
# Coordination Sequence:
#
# PCOD9370436 Si02
#       5
#    16  16  16  16  16
#     4  10  23  40  61  95 129 164 222 275 326 404
#     4  11  23  42  68  96 128 177 228 276 339 409
#     4   9  19  35  58  86 116 153 203 257 311 375
#     4  10  19  38  63  86 119 163 210 260 312 389
#     4  12  24  41  66  97 134 175 220 280 343 409
#
# _framework density 24.263286000000001
#
# number of rings (size 3 to 8) (size 9 to 14) (size 15 to 20)
#    0.000    1.600    0.000    7.800    0.000    4.800 
#    0.000    0.000    0.000    7.200    0.000    0.000 
#    0.000    0.000    0.000    0.000    0.000    0.000 
#
# Total GULP energy -112128.036167 kJ/mol
# GULP energy per Si atom -5606.401808 kJ/mol
# Density = 2.420806 g / cm^3
# Si number density = 24.263286 Si / 1000 Ang^3
#
#
#
# Elastic Constant Matrix: (Units=GPa)
#
#
# Indices 1 2 3 4 5 6 
#
# 1 145.1930 59.8006 24.5553 0.0000 0.0000 0.0000
# 2 59.8006 95.7928 9.5170 0.0000 0.0000 0.0000
# 3 24.5553 9.5170 64.5260 0.0000 0.0000 0.0000
# 4 0.0000 0.0000 0.0000 19.2990 0.0000 0.0000
# 5 0.0000 0.0000 0.0000 0.0000 10.9970 0.0000
# 6 0.0000 0.0000 0.0000 0.0000 0.0000 68.7673
#
#
#
# Elastic Compliance Matrix: (Units=1/GPa)
#
#
# Indices 1 2 3 4 5 6 
#
# 1 0.009765 -0.005812 -0.002859 0.000000 0.000000 0.000000
# 2 -0.005812 0.014053 0.000139 0.000000 0.000000 0.000000
# 3 -0.002859 0.000139 0.016565 0.000000 0.000000 0.000000
# 4 0.000000 0.000000 0.000000 0.051816 0.000000 0.000000
# 5 0.000000 0.000000 0.000000 0.000000 0.090934 0.000000
# 6 0.000000 0.000000 0.000000 0.000000 0.000000 0.014542
#
#
# Mechanical properties :
#
#
# Convention : Reuss Voigt Hill
#
# Bulk Modulus (GPa) = 42.88174 54.80641 48.84407
# Shear Modulus (GPa) = 22.47074 33.92190 28.19632
#
# Velocity S-wave (km/s) = 3.04653 3.74314 3.41265
# Velocity P-wave (km/s) = 5.48516 6.42796 5.97519
#
# Compressibility (1/GPa) = 0.02331995
#
# Stress axis : x y z
#
# Youngs Moduli (GPa) = 102.41167 71.15684 60.36820
#
# Poissons Ratio (x) = 0.41354 0.17257
# Poissons Ratio (y) = 0.59518 -0.00838
# Poissons Ratio (z) = 0.29276 -0.00988
#
# Static dielectric constant tensor:
#      x y z
#    x 1.907890 0.000000 0.000000 
#    y 0.000000 1.927700 0.000000 
#    z 0.000000 0.000000 1.924960 
# 
# From -- ./inp_files/9524.got.cif
#   From: 2010.05.17/outbox.cif.g08.bks.cpg/sg43_5_cif.got.tgz:9524.got - 2010.06.03 19:21:55.
