data_PCOD9370420
_publ_section_title
;
Structure prediction by ZEFSAII (Michael W. Deem and Ramdas Pophale) SiO2 
 PCOD9370420
Probable space group: F D D 2
;
_chemical_formula_sum "Si O2"
_cell_formula_units_Z 120
_cell_length_a 23.058239
_cell_length_b 10.416357
_cell_length_c 23.976417
_cell_angle_alpha 90.000000
_cell_angle_beta 90.000000
_cell_angle_gamma 90.000000
_cell_volume 5758.724149
_symmetry_space_group_name_H-M "F D D 2"
_symmetry_group_IT_number 43
_symmetry_cell_setting 'orthorhombic'
loop_
_space_group_symop_operation_xyz
x,y,z
-x,-y,z
1/4-x,1/4+y,1/4+z
1/4+x,1/4-y,1/4+z
x,1/2+y,1/2+z
-x,1/2-y,1/2+z
1/4-x,3/4+y,3/4+z
1/4+x,3/4-y,3/4+z
1/2+x,y,1/2+z
1/2-x,-y,1/2+z
3/4-x,1/4+y,3/4+z
3/4+x,1/4-y,3/4+z
1/2+x,1/2+y,z
1/2-x,1/2-y,z
3/4-x,3/4+y,1/4+z
3/4+x,3/4-y,1/4+z
loop_
_atom_site_type_symbol
_atom_site_label
_atom_site_fract_x
_atom_site_fract_y
_atom_site_fract_z
Si Si1 0.922725 0.827530 0.135430
Si Si2 0.750000 0.750000 0.456714
Si Si3 0.892549 0.104397 0.711167
Si Si4 0.549794 0.110441 0.010216
Si Si5 0.192858 0.338513 0.889259
Si Si6 0.730519 0.896795 0.270661
Si Si7 0.072954 0.770554 0.241941
Si Si8 0.812648 0.727213 0.067650
O O1 0.919357 0.731759 0.186933
O O2 0.965152 0.801899 0.082991
O O3 0.860797 0.794829 0.106489
O O4 0.947993 0.954356 0.164909
O O5 0.721438 0.639230 0.494811
O O6 0.829148 0.109763 0.736753
O O7 0.891813 0.003337 0.660930
O O8 0.934190 0.055097 0.759760
O O9 0.564867 0.124462 0.075705
O O10 0.523819 0.249265 0.993729
O O11 0.500000 0.000000 0.003887
O O12 0.610559 0.067209 0.984117
O O13 0.250000 0.250000 0.892447
O O14 0.195078 0.449865 0.934546
O O15 0.750000 0.750000 0.275314
O O16 0.072070 0.667922 0.293565
O O17 0.750000 0.750000 0.093851
#
# Coordination Sequence:
#
# PCOD9370420 Si02
#       8
#    16   8  16  16  16  16  16  16
#     4  11  22  41  67  94 126 174 221 272 326 407
#     4  12  24  40  62 100 134 168 220 272 338 392
#     4  10  20  37  65  89 124 165 217 267 325 395
#     4  11  22  41  67  92 127 168 220 277 326 388
#     4  10  19  37  66  95 116 165 222 264 316 401
#     4  11  24  40  60  96 133 167 220 274 332 393
#     4  11  23  38  64  94 130 168 216 269 330 394
#     4  10  21  41  65  95 127 168 221 275 326 400
#
# _framework density 20.837948999999998
#
# number of rings (size 3 to 8) (size 9 to 14) (size 15 to 20)
#    0.000    1.333    0.667    8.800    1.867    0.533 
#    0.000    0.000    4.400    0.000    0.000    0.000 
#    0.000    0.000    0.000    0.000    0.000    0.000 
#
# Total GULP energy -167291.953319 kJ/mol
# GULP energy per Si atom -5576.398444 kJ/mol
# Density = 2.079052 g / cm^3
# Si number density = 20.837949 Si / 1000 Ang^3
#
#
#
# Elastic Constant Matrix: (Units=GPa)
#
#
# Indices 1 2 3 4 5 6 
#
# 1 112.2808 39.6920 30.8176 0.0000 0.0000 0.0000
# 2 39.6920 99.2456 27.4336 0.0000 0.0000 0.0000
# 3 30.8176 27.4336 52.2910 0.0000 0.0000 0.0000
# 4 0.0000 0.0000 0.0000 11.8025 0.0000 0.0000
# 5 0.0000 0.0000 0.0000 0.0000 12.6212 0.0000
# 6 0.0000 0.0000 0.0000 0.0000 0.0000 31.5574
#
#
#
# Elastic Compliance Matrix: (Units=1/GPa)
#
#
# Indices 1 2 3 4 5 6 
#
# 1 0.011416 -0.003165 -0.005068 0.000000 0.000000 0.000000
# 2 -0.003165 0.012662 -0.004778 0.000000 0.000000 0.000000
# 3 -0.005068 -0.004778 0.024617 0.000000 0.000000 0.000000
# 4 0.000000 0.000000 0.000000 0.084728 0.000000 0.000000
# 5 0.000000 0.000000 0.000000 0.000000 0.079232 0.000000
# 6 0.000000 0.000000 0.000000 0.000000 0.000000 0.031688
#
#
# Mechanical properties :
#
#
# Convention : Reuss Voigt Hill
#
# Bulk Modulus (GPa) = 44.10217 51.07822 47.59019
# Shear Modulus (GPa) = 17.99063 22.25450 20.12257
#
# Velocity S-wave (km/s) = 2.94149 3.27154 3.11089
# Velocity P-wave (km/s) = 5.72248 6.23185 5.98259
#
# Compressibility (1/GPa) = 0.02267462
#
# Stress axis : x y z
#
# Youngs Moduli (GPa) = 87.59689 78.97344 40.62234
#
# Poissons Ratio (x) = 0.24994 0.20586
# Poissons Ratio (y) = 0.27723 0.19409
# Poissons Ratio (z) = 0.44390 0.37733
#
# Static dielectric constant tensor:
#      x y z
#    x 1.798220 0.000000 0.000000 
#    y 0.000000 1.801680 0.000000 
#    z 0.000000 0.000000 1.747400 
# 
# From -- ./inp_files/26578.got.cif
#   From: 2010.05.17/outbox.cif.g08.bks.cpg/sg43_14_cif.got.tgz:26578.got - 2010.06.03 19:21:55.
