data_PCOD9370715
_publ_section_title
;
Structure prediction by ZEFSAII (Michael W. Deem and Ramdas Pophale) SiO2 
 PCOD9370715
Probable space group: F D D 2
;
_chemical_formula_sum "Si O2"
_cell_formula_units_Z 120
_cell_length_a 28.403621
_cell_length_b 13.072100
_cell_length_c 14.087310
_cell_angle_alpha 90.000000
_cell_angle_beta 90.000000
_cell_angle_gamma 90.000000
_cell_volume 5230.547401
_symmetry_space_group_name_H-M "F D D 2"
_symmetry_group_IT_number 43
_symmetry_cell_setting 'orthorhombic'
loop_
_space_group_symop_operation_xyz
x,y,z
-x,-y,z
1/4-x,1/4+y,1/4+z
1/4+x,1/4-y,1/4+z
x,1/2+y,1/2+z
-x,1/2-y,1/2+z
1/4-x,3/4+y,3/4+z
1/4+x,3/4-y,3/4+z
1/2+x,y,1/2+z
1/2-x,-y,1/2+z
3/4-x,1/4+y,3/4+z
3/4+x,1/4-y,3/4+z
1/2+x,1/2+y,z
1/2-x,1/2-y,z
3/4-x,3/4+y,1/4+z
3/4+x,3/4-y,1/4+z
loop_
_atom_site_type_symbol
_atom_site_label
_atom_site_fract_x
_atom_site_fract_y
_atom_site_fract_z
Si Si1 0.406244 0.794979 0.285230
Si Si2 0.853705 0.001238 0.753807
Si Si3 0.566325 0.036638 0.948825
Si Si4 0.009617 0.829835 0.490792
Si Si5 0.838185 0.720262 0.294829
Si Si6 0.830924 0.122514 0.996363
Si Si7 0.239060 0.545442 0.551282
Si Si8 0.000000 0.500000 0.405080
O O1 0.401426 0.748755 0.390418
O O2 0.370300 0.731035 0.222891
O O3 0.459780 0.791266 0.252912
O O4 0.387960 0.912189 0.287848
O O5 0.868055 0.116668 0.775512
O O6 0.800626 0.982252 0.794150
O O7 0.540249 0.118493 0.018159
O O8 0.563838 0.069069 0.840148
O O9 0.539531 0.929964 0.961719
O O10 0.995172 0.760207 0.402803
O O11 0.827973 0.699202 0.406621
O O12 0.867837 0.821436 0.268084
O O13 0.792565 0.717147 0.225840
O O14 0.797722 0.022037 0.994066
O O15 0.231412 0.661336 0.584896
#
# Coordination Sequence:
#
# PCOD9370715 Si02
#       8
#    16  16  16  16  16  16  16   8
#     4  10  20  38  68  91 128 172 222 280 347 398
#     4  10  20  39  60  90 125 177 225 270 334 406
#     4   9  19  36  65  99 128 171 217 288 344 416
#     4   8  16  37  63  84 129 168 212 269 345 393
#     4  12  25  43  66  96 135 189 222 288 340 423
#     4  11  26  42  65 101 141 176 233 282 354 416
#     4  10  22  42  65  99 134 181 223 289 334 419
#     4  12  24  44  72  98 136 186 238 280 356 406
#
# _framework density 22.942150000000002
#
# number of rings (size 3 to 8) (size 9 to 14) (size 15 to 20)
#    0.000    1.867    2.667    1.600    1.867    6.400 
#    2.400    0.000    2.933    0.000    0.000    0.000 
#    0.000    0.000    0.000    0.000    0.000    0.000 
#
# Total GULP energy -167280.004468 kJ/mol
# GULP energy per Si atom -5576.000149 kJ/mol
# Density = 2.288993 g / cm^3
# Si number density = 22.942150 Si / 1000 Ang^3
#
#
#
# Elastic Constant Matrix: (Units=GPa)
#
#
# Indices 1 2 3 4 5 6 
#
# 1 86.8303 14.2570 13.4461 0.0000 0.0000 0.0000
# 2 14.2570 49.5371 6.3013 0.0000 0.0000 0.0000
# 3 13.4461 6.3013 89.2603 0.0000 0.0000 0.0000
# 4 0.0000 0.0000 0.0000 27.0241 0.0000 0.0000
# 5 0.0000 0.0000 0.0000 0.0000 18.5310 0.0000
# 6 0.0000 0.0000 0.0000 0.0000 0.0000 25.6098
#
#
#
# Elastic Compliance Matrix: (Units=1/GPa)
#
#
# Indices 1 2 3 4 5 6 
#
# 1 0.012316 -0.003338 -0.001620 0.000000 0.000000 0.000000
# 2 -0.003338 0.021275 -0.000999 0.000000 0.000000 0.000000
# 3 -0.001620 -0.000999 0.011518 0.000000 0.000000 0.000000
# 4 0.000000 0.000000 0.000000 0.037004 0.000000 0.000000
# 5 0.000000 0.000000 0.000000 0.000000 0.053964 0.000000
# 6 0.000000 0.000000 0.000000 0.000000 0.000000 0.039048
#
#
# Mechanical properties :
#
#
# Convention : Reuss Voigt Hill
#
# Bulk Modulus (GPa) = 30.12580 32.62626 31.37603
# Shear Modulus (GPa) = 25.23951 27.00787 26.12369
#
# Velocity S-wave (km/s) = 3.32043 3.43478 3.37809
# Velocity P-wave (km/s) = 5.27826 5.47561 5.37784
#
# Compressibility (1/GPa) = 0.03319414
#
# Stress axis : x y z
#
# Youngs Moduli (GPa) = 81.19733 47.00395 86.82302
#
# Poissons Ratio (x) = 0.15692 0.14061
# Poissons Ratio (y) = 0.27108 0.08673
# Poissons Ratio (z) = 0.13150 0.04696
#
# Static dielectric constant tensor:
#      x y z
#    x 1.942480 0.000000 0.000000 
#    y 0.000000 1.826010 0.000000 
#    z 0.000000 0.000000 1.865830 
# 
# From -- ./inp_files/11743.got.cif
#   From: 2010.05.17/outbox.cif.g08.bks.cpg/sg43_6_cif.got.tgz:11743.got - 2010.06.03 19:21:55.
