data_PCOD9370498
_publ_section_title
;
Structure prediction by ZEFSAII (Michael W. Deem and Ramdas Pophale) SiO2 
 PCOD9370498
Probable space group: F D D 2
;
_chemical_formula_sum "Si O2"
_cell_formula_units_Z 112
_cell_length_a 10.572475
_cell_length_b 30.637026
_cell_length_c 16.508958
_cell_angle_alpha 90.000000
_cell_angle_beta 90.000000
_cell_angle_gamma 90.000000
_cell_volume 5347.403238
_symmetry_space_group_name_H-M "F D D 2"
_symmetry_group_IT_number 43
_symmetry_cell_setting 'orthorhombic'
loop_
_space_group_symop_operation_xyz
x,y,z
-x,-y,z
1/4-x,1/4+y,1/4+z
1/4+x,1/4-y,1/4+z
x,1/2+y,1/2+z
-x,1/2-y,1/2+z
1/4-x,3/4+y,3/4+z
1/4+x,3/4-y,3/4+z
1/2+x,y,1/2+z
1/2-x,-y,1/2+z
3/4-x,1/4+y,3/4+z
3/4+x,1/4-y,3/4+z
1/2+x,1/2+y,z
1/2-x,1/2-y,z
3/4-x,3/4+y,1/4+z
3/4+x,3/4-y,1/4+z
loop_
_atom_site_type_symbol
_atom_site_label
_atom_site_fract_x
_atom_site_fract_y
_atom_site_fract_z
Si Si1 0.061722 0.239027 0.298240
Si Si2 0.849136 0.913313 0.095038
Si Si3 0.162797 0.289113 0.889990
Si Si4 0.627245 0.974736 0.908566
Si Si5 0.816820 0.847433 0.778672
Si Si6 0.715565 0.661640 0.207724
Si Si7 0.104926 0.807146 0.560767
O O1 0.123095 0.283916 0.335190
O O2 0.139194 0.201306 0.250818
O O3 0.983372 0.218891 0.372091
O O4 0.954872 0.253486 0.232860
O O5 0.701384 0.909775 0.073047
O O6 0.861074 0.879942 0.171058
O O7 0.935960 0.893851 0.024165
O O8 0.250000 0.250000 0.857667
O O9 0.210037 0.329455 0.837900
O O10 0.184364 0.290797 0.985204
O O11 0.735251 0.970228 0.840986
O O12 0.500000 0.000000 0.885813
O O13 0.580555 0.928334 0.944874
O O14 0.799673 0.898392 0.773697
O O15 0.802606 0.682842 0.136492
#
# Coordination Sequence:
#
# PCOD9370498 Si02
#       7
#    16  16  16  16  16  16  16
#     4  11  22  43  66  95 140 185 216 285 360 413
#     4  10  22  40  67  99 133 176 227 288 336 417
#     4  12  23  41  69  96 131 174 232 272 343 417
#     4  11  20  42  67  94 131 178 215 271 356 410
#     4  10  19  41  66  94 124 173 219 272 340 405
#     4  11  24  42  68 101 136 183 230 282 355 410
#     4  11  25  37  70 102 126 168 233 293 323 416
#
# _framework density 20.944745000000001
#
# number of rings (size 3 to 8) (size 9 to 14) (size 15 to 20)
#    0.000    1.143    7.143    1.286    8.000    0.000 
#    2.571    1.429    0.000    0.000    0.000    0.000 
#    0.000    0.000    0.000    0.000    0.000    0.000 
#
# Total GULP energy -155975.591083 kJ/mol
# GULP energy per Si atom -5570.556824 kJ/mol
# Density = 2.089707 g / cm^3
# Si number density = 20.944745 Si / 1000 Ang^3
#
#
#
# Elastic Constant Matrix: (Units=GPa)
#
#
# Indices 1 2 3 4 5 6 
#
# 1 41.3590 24.2006 7.8197 0.0000 0.0000 0.0000
# 2 24.2006 103.5485 19.1258 0.0000 0.0000 0.0000
# 3 7.8197 19.1258 43.1966 0.0000 0.0000 0.0000
# 4 0.0000 0.0000 0.0000 -11.7329 0.0000 0.0000
# 5 0.0000 0.0000 0.0000 0.0000 58.1901 0.0000
# 6 0.0000 0.0000 0.0000 0.0000 0.0000 12.4827
#
#
#
# Elastic Compliance Matrix: (Units=1/GPa)
#
#
# Indices 1 2 3 4 5 6 
#
# 1 0.028233 -0.006158 -0.002384 0.000000 0.000000 0.000000
# 2 -0.006158 0.011861 -0.004137 0.000000 0.000000 0.000000
# 3 -0.002384 -0.004137 0.025413 0.000000 0.000000 0.000000
# 4 0.000000 0.000000 0.000000 -0.085230 0.000000 0.000000
# 5 0.000000 0.000000 0.000000 0.000000 0.017185 0.000000
# 6 0.000000 0.000000 0.000000 0.000000 0.000000 0.080111
#
#
# Mechanical properties :
#
#
# Convention : Reuss Voigt Hill
#
# Bulk Modulus (GPa) = 24.90756 32.26626 28.58691
# Shear Modulus (GPa) = 42.98781 20.91852 31.95317
#
# Velocity S-wave (km/s) = 4.53530 3.16373 3.91012
# Velocity P-wave (km/s) = 6.27241 5.36511 5.83642
#
# Compressibility (1/GPa) = 0.04014845
#
# Stress axis : x y z
#
# Youngs Moduli (GPa) = 35.42014 84.31316 39.34967
#
# Poissons Ratio (x) = 0.51919 0.09382
# Poissons Ratio (y) = 0.21811 0.16278
# Poissons Ratio (z) = 0.08445 0.34878
#
# Static dielectric constant tensor:
#      x y z
#    x 1.701920 0.000000 0.000000 
#    y 0.000000 1.848430 0.000000 
#    z 0.000000 0.000000 1.756530 
# 
# From -- ./inp_files/9785.got.cif
#   From: 2010.05.17/outbox.cif.g08.bks.cpg/sg43_5_cif.got.tgz:9785.got - 2010.06.03 19:21:55.
