data_PCOD9370418
_publ_section_title
;
Structure prediction by ZEFSAII (Michael W. Deem and Ramdas Pophale) SiO2 
 PCOD9370418
Probable space group: F D D 2
;
_chemical_formula_sum "Si O2"
_cell_formula_units_Z 80
_cell_length_a 15.892592
_cell_length_b 23.580524
_cell_length_c 9.419511
_cell_angle_alpha 90.000000
_cell_angle_beta 90.000000
_cell_angle_gamma 90.000000
_cell_volume 3530.014940
_symmetry_space_group_name_H-M "F D D 2"
_symmetry_group_IT_number 43
_symmetry_cell_setting 'orthorhombic'
loop_
_space_group_symop_operation_xyz
x,y,z
-x,-y,z
1/4-x,1/4+y,1/4+z
1/4+x,1/4-y,1/4+z
x,1/2+y,1/2+z
-x,1/2-y,1/2+z
1/4-x,3/4+y,3/4+z
1/4+x,3/4-y,3/4+z
1/2+x,y,1/2+z
1/2-x,-y,1/2+z
3/4-x,1/4+y,3/4+z
3/4+x,1/4-y,3/4+z
1/2+x,1/2+y,z
1/2-x,1/2-y,z
3/4-x,3/4+y,1/4+z
3/4+x,3/4-y,1/4+z
loop_
_atom_site_type_symbol
_atom_site_label
_atom_site_fract_x
_atom_site_fract_y
_atom_site_fract_z
Si Si1 0.098290 0.515405 0.933720
Si Si2 0.785207 0.596266 0.946833
Si Si3 0.826680 0.214539 0.580171
Si Si4 0.855982 0.464973 0.619278
Si Si5 0.030307 0.304396 0.919995
O O1 0.149122 0.455626 0.941612
O O2 0.108264 0.541283 0.776179
O O3 0.000000 0.500000 0.960112
O O4 0.154187 0.555886 0.038415
O O5 0.749851 0.601655 0.784713
O O6 0.822674 0.652549 0.013438
O O7 0.710816 0.579914 0.056528
O O8 0.750000 0.250000 0.522719
O O9 0.824278 0.213687 0.748308
O O10 0.917078 0.237481 0.527314
O O11 0.803797 0.523795 0.617831
#
# Coordination Sequence:
#
# PCOD9370418 Si02
#       5
#    16  16  16  16  16
#     4  10  19  37  65  95 123 157 207 270 331 389
#     4   9  21  40  59  87 127 169 209 258 326 399
#     4  11  22  39  63  90 122 170 221 261 311 396
#     4   9  20  40  62  88 124 158 201 268 332 384
#     4   9  20  38  60  86 124 162 200 257 325 384
#
# _framework density 22.662793000000001
#
# number of rings (size 3 to 8) (size 9 to 14) (size 15 to 20)
#    0.000    2.400    0.000    2.400    0.000    9.600 
#    0.000   10.000    0.000    0.000    0.000    0.000 
#    0.000    0.000    0.000    0.000    0.000    0.000 
#
# Total GULP energy -111377.799414 kJ/mol
# GULP energy per Si atom -5568.889971 kJ/mol
# Density = 2.261121 g / cm^3
# Si number density = 22.662793 Si / 1000 Ang^3
#
#
#
# Elastic Constant Matrix: (Units=GPa)
#
#
# Indices 1 2 3 4 5 6 
#
# 1 104.1162 30.5134 42.6178 0.0000 0.0000 0.0000
# 2 30.5134 55.5882 43.1482 0.0000 0.0000 0.0000
# 3 42.6178 43.1482 228.2505 0.0000 0.0000 0.0000
# 4 0.0000 0.0000 0.0000 12.0482 0.0000 0.0000
# 5 0.0000 0.0000 0.0000 0.0000 31.2598 0.0000
# 6 0.0000 0.0000 0.0000 0.0000 0.0000 27.2079
#
#
#
# Elastic Compliance Matrix: (Units=1/GPa)
#
#
# Indices 1 2 3 4 5 6 
#
# 1 0.011692 -0.005536 -0.001137 0.000000 0.000000 0.000000
# 2 -0.005536 0.023704 -0.003447 0.000000 0.000000 0.000000
# 3 -0.001137 -0.003447 0.005245 0.000000 0.000000 0.000000
# 4 0.000000 0.000000 0.000000 0.083000 0.000000 0.000000
# 5 0.000000 0.000000 0.000000 0.000000 0.031990 0.000000
# 6 0.000000 0.000000 0.000000 0.000000 0.000000 0.036754
#
#
# Mechanical properties :
#
#
# Convention : Reuss Voigt Hill
#
# Bulk Modulus (GPa) = 49.01548 68.94595 58.98072
# Shear Modulus (GPa) = 22.78675 32.21487 27.50081
#
# Velocity S-wave (km/s) = 3.17435 3.77435 3.48728
# Velocity P-wave (km/s) = 5.92541 7.03441 6.50359
#
# Compressibility (1/GPa) = 0.02040172
#
# Stress axis : x y z
#
# Youngs Moduli (GPa) = 85.52632 42.18690 190.65541
#
# Poissons Ratio (x) = 0.23354 0.21671
# Poissons Ratio (y) = 0.47346 0.65726
# Poissons Ratio (z) = 0.09721 0.14543
#
# Static dielectric constant tensor:
#      x y z
#    x 1.990410 0.000000 0.000000 
#    y 0.000000 1.884900 0.000000 
#    z 0.000000 0.000000 1.897860 
# 
# From -- ./inp_files/2817.got.cif
#   From: 2010.05.17/outbox.cif.g08.bks.cpg/sg43_2_cif.got.tgz:2817.got - 2010.06.03 19:21:55.
