data_PCOD9370210
_publ_section_title
;
Structure prediction by ZEFSAII (Michael W. Deem and Ramdas Pophale) SiO2 
 PCOD9370210
Probable space group: F D D 2
;
_chemical_formula_sum "Si O2"
_cell_formula_units_Z 88
_cell_length_a 15.560715
_cell_length_b 11.295922
_cell_length_c 22.306242
_cell_angle_alpha 90.000000
_cell_angle_beta 90.000000
_cell_angle_gamma 90.000000
_cell_volume 3920.826663
_symmetry_space_group_name_H-M "F D D 2"
_symmetry_group_IT_number 43
_symmetry_cell_setting 'orthorhombic'
loop_
_space_group_symop_operation_xyz
x,y,z
-x,-y,z
1/4-x,1/4+y,1/4+z
1/4+x,1/4-y,1/4+z
x,1/2+y,1/2+z
-x,1/2-y,1/2+z
1/4-x,3/4+y,3/4+z
1/4+x,3/4-y,3/4+z
1/2+x,y,1/2+z
1/2-x,-y,1/2+z
3/4-x,1/4+y,3/4+z
3/4+x,1/4-y,3/4+z
1/2+x,1/2+y,z
1/2-x,1/2-y,z
3/4-x,3/4+y,1/4+z
3/4+x,3/4-y,1/4+z
loop_
_atom_site_type_symbol
_atom_site_label
_atom_site_fract_x
_atom_site_fract_y
_atom_site_fract_z
Si Si1 0.950171 0.712003 0.684520
Si Si2 0.236080 0.615842 0.333345
Si Si3 0.558179 0.726360 0.464359
Si Si4 0.389547 0.280807 0.254357
Si Si5 0.500000 0.000000 0.603998
Si Si6 0.305832 0.143517 0.144652
O O1 0.952227 0.822426 0.638430
O O2 0.862536 0.641998 0.699333
O O3 0.002371 0.616204 0.644490
O O4 0.008782 0.738387 0.743071
O O5 0.250000 0.750000 0.316874
O O6 0.251418 0.542596 0.273419
O O7 0.139151 0.615529 0.355230
O O8 0.620192 0.833934 0.484701
O O9 0.500382 0.778395 0.410452
O O10 0.337394 0.259403 0.315374
O O11 0.341128 0.194626 0.207919
O O12 0.250000 0.250000 0.118360
#
# Coordination Sequence:
#
# PCOD9370210 Si02
#       6
#    16  16  16  16   8  16
#     4  11  23  39  67 101 133 177 232 281 333 407
#     4  11  25  44  63  95 138 178 213 279 355 406
#     4  11  20  41  65  94 130 169 228 279 330 408
#     4  10  18  35  63 103 130 164 220 281 328 393
#     4  12  18  36  70 102 134 168 218 292 330 394
#     4   9  20  41  68  96 130 170 224 276 338 410
#
# _framework density 22.444247000000001
#
# number of rings (size 3 to 8) (size 9 to 14) (size 15 to 20)
#    0.000    1.455    6.364    0.000    0.000    1.455 
#    3.273    2.727    0.000    0.000    0.000    0.000 
#    0.000    0.000    0.000    0.000    0.000    0.000 
#
# Total GULP energy -122829.269219 kJ/mol
# GULP energy per Si atom -5583.148601 kJ/mol
# Density = 2.239316 g / cm^3
# Si number density = 22.444247 Si / 1000 Ang^3
#
#
#
# Elastic Constant Matrix: (Units=GPa)
#
#
# Indices 1 2 3 4 5 6 
#
# 1 108.1754 18.3228 47.2478 0.0000 0.0000 0.0000
# 2 18.3228 47.8105 6.9564 0.0000 0.0000 0.0000
# 3 47.2478 6.9564 79.1803 0.0000 0.0000 0.0000
# 4 0.0000 0.0000 0.0000 44.4918 0.0000 0.0000
# 5 0.0000 0.0000 0.0000 0.0000 -146.3116 0.0000
# 6 0.0000 0.0000 0.0000 0.0000 0.0000 33.9564
#
#
#
# Elastic Compliance Matrix: (Units=1/GPa)
#
#
# Indices 1 2 3 4 5 6 
#
# 1 0.013205 -0.003965 -0.007531 0.000000 0.000000 0.000000
# 2 -0.003965 0.022377 0.000400 0.000000 0.000000 0.000000
# 3 -0.007531 0.000400 0.017088 0.000000 0.000000 0.000000
# 4 0.000000 0.000000 0.000000 0.022476 0.000000 0.000000
# 5 0.000000 0.000000 0.000000 0.000000 -0.006835 0.000000
# 6 0.000000 0.000000 0.000000 0.000000 0.000000 0.029449
#
#
# Mechanical properties :
#
#
# Convention : Reuss Voigt Hill
#
# Bulk Modulus (GPa) = 32.81045 42.24670 37.52858
# Shear Modulus (GPa) = 38.42785 -2.73006 17.84889
#
# Velocity S-wave (km/s) = 4.14230 -1.10409 2.82309
# Velocity P-wave (km/s) = 6.12606 4.15192 5.23293
#
# Compressibility (1/GPa) = 0.03047809
#
# Stress axis : x y z
#
# Youngs Moduli (GPa) = 75.72693 44.68824 58.51938
#
# Poissons Ratio (x) = 0.17719 0.44073
# Poissons Ratio (y) = 0.30026 -0.02341
# Poissons Ratio (z) = 0.57033 -0.01787
#
# Static dielectric constant tensor:
#      x y z
#    x 4.305900 0.000000 0.000000 
#    y 0.000000 1.866280 0.000000 
#    z 0.000000 0.000000 1.846860 
# 
# From -- ./inp_files/21018.got.cif
#   From: 2010.05.17/outbox.cif.g08.bks.cpg/sg43_11_cif.got.tgz:21018.got - 2010.06.03 19:21:55.
