data_PCOD9370939
_publ_section_title
;
Structure prediction by ZEFSAII (Michael W. Deem and Ramdas Pophale) SiO2 
 PCOD9370939
Probable space group: F D D 2
;
_chemical_formula_sum "Si O2"
_cell_formula_units_Z 72
_cell_length_a 19.481369
_cell_length_b 16.495774
_cell_length_c 8.398317
_cell_angle_alpha 90.000000
_cell_angle_beta 90.000000
_cell_angle_gamma 90.000000
_cell_volume 2698.885337
_symmetry_space_group_name_H-M "F D D 2"
_symmetry_group_IT_number 43
_symmetry_cell_setting 'orthorhombic'
loop_
_space_group_symop_operation_xyz
x,y,z
-x,-y,z
1/4-x,1/4+y,1/4+z
1/4+x,1/4-y,1/4+z
x,1/2+y,1/2+z
-x,1/2-y,1/2+z
1/4-x,3/4+y,3/4+z
1/4+x,3/4-y,3/4+z
1/2+x,y,1/2+z
1/2-x,-y,1/2+z
3/4-x,1/4+y,3/4+z
3/4+x,1/4-y,3/4+z
1/2+x,1/2+y,z
1/2-x,1/2-y,z
3/4-x,3/4+y,1/4+z
3/4+x,3/4-y,1/4+z
loop_
_atom_site_type_symbol
_atom_site_label
_atom_site_fract_x
_atom_site_fract_y
_atom_site_fract_z
Si Si1 0.769506 0.597284 0.695970
Si Si2 0.752080 0.580701 0.166555
Si Si3 0.610725 0.752203 0.256867
Si Si4 0.362979 0.648725 0.465761
Si Si5 0.000000 0.500000 0.596328
O O1 0.761090 0.503441 0.758204
O O2 0.814367 0.576956 0.538226
O O3 0.691150 0.622902 0.670718
O O4 0.814038 0.652357 0.811959
O O5 0.745602 0.663891 0.256783
O O6 0.690391 0.576969 0.039636
O O7 0.823978 0.581534 0.073849
O O8 0.669669 0.752872 0.393113
O O9 0.638823 0.772324 0.081957
#
# Coordination Sequence:
#
# PCOD9370939 Si02
#       5
#    16  16  16  16   8
#     4  10  22  45  70 114 162 205 282 344 407 516
#     4   9  22  42  68 108 147 206 279 328 404 516
#     4   9  22  43  66 110 152 207 286 337 402 523
#     4  11  20  46  75 106 162 217 255 354 425 471
#     4  10  20  42  74  90 148 212 252 334 430 450
#
# _framework density 26.677679000000001
#
# number of rings (size 3 to 8) (size 9 to 14) (size 15 to 20)
#    1.333    0.889    2.222    0.000    0.000    7.111 
#   12.000    0.000    0.000    0.000    0.000    0.000 
#    0.000    0.000    0.000    0.000    0.000    0.000 
#
# Total GULP energy -100238.528719 kJ/mol
# GULP energy per Si atom -5568.807151 kJ/mol
# Density = 2.661696 g / cm^3
# Si number density = 26.677679 Si / 1000 Ang^3
#
#
#
# Elastic Constant Matrix: (Units=GPa)
#
#
# Indices 1 2 3 4 5 6 
#
# 1 235.3645 34.8191 34.5455 0.0000 0.0000 0.0000
# 2 34.8191 101.1380 58.0937 0.0000 0.0000 0.0000
# 3 34.5455 58.0937 78.7645 0.0000 0.0000 0.0000
# 4 0.0000 0.0000 0.0000 50.1648 0.0000 0.0000
# 5 0.0000 0.0000 0.0000 0.0000 31.2128 0.0000
# 6 0.0000 0.0000 0.0000 0.0000 0.0000 42.8698
#
#
#
# Elastic Compliance Matrix: (Units=1/GPa)
#
#
# Indices 1 2 3 4 5 6 
#
# 1 0.004572 -0.000733 -0.001465 0.000000 0.000000 0.000000
# 2 -0.000733 0.017273 -0.012419 0.000000 0.000000 0.000000
# 3 -0.001465 -0.012419 0.022498 0.000000 0.000000 0.000000
# 4 0.000000 0.000000 0.000000 0.019934 0.000000 0.000000
# 5 0.000000 0.000000 0.000000 0.000000 0.032038 0.000000
# 6 0.000000 0.000000 0.000000 0.000000 0.000000 0.023326
#
#
# Mechanical properties :
#
#
# Convention : Reuss Voigt Hill
#
# Bulk Modulus (GPa) = 66.17742 74.46484 70.32113
# Shear Modulus (GPa) = 32.48628 44.03671 38.26149
#
# Velocity S-wave (km/s) = 3.49339 4.06728 3.79121
# Velocity P-wave (km/s) = 6.41341 7.07322 6.75138
#
# Compressibility (1/GPa) = 0.01511089
#
# Stress axis : x y z
#
# Youngs Moduli (GPa) = 218.71662 57.89420 44.44830
#
# Poissons Ratio (x) = 0.04241 0.06512
# Poissons Ratio (y) = 0.16023 0.55198
# Poissons Ratio (z) = 0.32042 0.71896
#
# Static dielectric constant tensor:
#      x y z
#    x 2.211520 0.000000 0.000000 
#    y 0.000000 1.994830 0.000000 
#    z 0.000000 0.000000 2.299780 
# 
# From -- ./inp_files/7067.got.cif
#   From: 2010.05.17/outbox.cif.g08.bks.cpg/sg43_4_cif.got.tgz:7067.got - 2010.06.03 19:21:55.
