data_PCOD9370579
_publ_section_title
;
Structure prediction by ZEFSAII (Michael W. Deem and Ramdas Pophale) SiO2 
 PCOD9370579
Probable space group: F D D 2
;
_chemical_formula_sum "Si O2"
_cell_formula_units_Z 88
_cell_length_a 6.562432
_cell_length_b 26.509950
_cell_length_c 24.927619
_cell_angle_alpha 90.000000
_cell_angle_beta 90.000000
_cell_angle_gamma 90.000000
_cell_volume 4336.651501
_symmetry_space_group_name_H-M "F D D 2"
_symmetry_group_IT_number 43
_symmetry_cell_setting 'orthorhombic'
loop_
_space_group_symop_operation_xyz
x,y,z
-x,-y,z
1/4-x,1/4+y,1/4+z
1/4+x,1/4-y,1/4+z
x,1/2+y,1/2+z
-x,1/2-y,1/2+z
1/4-x,3/4+y,3/4+z
1/4+x,3/4-y,3/4+z
1/2+x,y,1/2+z
1/2-x,-y,1/2+z
3/4-x,1/4+y,3/4+z
3/4+x,1/4-y,3/4+z
1/2+x,1/2+y,z
1/2-x,1/2-y,z
3/4-x,3/4+y,1/4+z
3/4+x,3/4-y,1/4+z
loop_
_atom_site_type_symbol
_atom_site_label
_atom_site_fract_x
_atom_site_fract_y
_atom_site_fract_z
Si Si1 0.568831 0.557376 0.818930
Si Si2 0.380799 0.108371 0.214874
Si Si3 0.500000 0.500000 0.447226
Si Si4 0.906913 0.707404 0.275547
Si Si5 0.304578 0.847375 0.128765
Si Si6 0.637660 0.353918 0.874548
O O1 0.500000 0.500000 0.826472
O O2 0.486641 0.575183 0.760878
O O3 0.803612 0.573390 0.831551
O O4 0.450710 0.590655 0.862806
O O5 0.314162 0.160372 0.243151
O O6 0.549150 0.123581 0.170688
O O7 0.185943 0.087106 0.183154
O O8 0.320604 0.517398 0.486676
O O9 0.461715 0.451149 0.410041
O O10 0.750000 0.750000 0.290180
O O11 0.972557 0.681837 0.331178
O O12 0.126870 0.887066 0.114388
#
# Coordination Sequence:
#
# PCOD9370579 Si02
#       6
#    16  16   8  16  16  16
#     4  10  21  38  59  89 119 158 204 261 318 370
#     4   9  21  38  56  84 120 158 197 257 312 373
#     4  10  20  36  60  90 112 154 210 254 306 358
#     4  10  21  36  58  84 117 155 203 255 304 368
#     4  10  20  36  62  86 116 161 207 255 309 377
#     4  10  21  38  57  83 121 157 203 254 313 375
#
# _framework density 20.292152999999999
#
# number of rings (size 3 to 8) (size 9 to 14) (size 15 to 20)
#    0.000    2.182    0.000    2.182    0.000   13.818 
#    4.909    0.000    0.000    0.000    0.000    0.000 
#    0.000    0.000    0.000    0.000    0.000    0.000 
#
# Total GULP energy -122532.583459 kJ/mol
# GULP energy per Si atom -5569.662885 kJ/mol
# Density = 2.024597 g / cm^3
# Si number density = 20.292153 Si / 1000 Ang^3
#
#
#
# Elastic Constant Matrix: (Units=GPa)
#
#
# Indices 1 2 3 4 5 6 
#
# 1 69.4916 19.7349 36.6963 0.0000 0.0000 0.0000
# 2 19.7349 59.6482 23.4737 0.0000 0.0000 0.0000
# 3 36.6963 23.4737 100.2871 0.0000 0.0000 0.0000
# 4 0.0000 0.0000 0.0000 -14.1677 0.0000 0.0000
# 5 0.0000 0.0000 0.0000 0.0000 25.4477 0.0000
# 6 0.0000 0.0000 0.0000 0.0000 0.0000 19.4743
#
#
#
# Elastic Compliance Matrix: (Units=1/GPa)
#
#
# Indices 1 2 3 4 5 6 
#
# 1 0.018598 -0.003828 -0.005909 0.000000 0.000000 0.000000
# 2 -0.003828 0.019254 -0.003106 0.000000 0.000000 0.000000
# 3 -0.005909 -0.003106 0.012861 0.000000 0.000000 0.000000
# 4 0.000000 0.000000 0.000000 -0.070583 0.000000 0.000000
# 5 0.000000 0.000000 0.000000 0.000000 0.039296 0.000000
# 6 0.000000 0.000000 0.000000 0.000000 0.000000 0.051350
#
#
# Mechanical properties :
#
#
# Convention : Reuss Voigt Hill
#
# Bulk Modulus (GPa) = 39.95805 43.24853 41.60329
# Shear Modulus (GPa) = 47.70871 16.11901 31.91386
#
# Velocity S-wave (km/s) = 4.85407 2.82147 3.97005
# Velocity P-wave (km/s) = 7.15193 5.65451 6.44684
#
# Compressibility (1/GPa) = 0.02502624
#
# Stress axis : x y z
#
# Youngs Moduli (GPa) = 53.77007 51.93810 77.75659
#
# Poissons Ratio (x) = 0.19880 0.45948
# Poissons Ratio (y) = 0.20581 0.24151
# Poissons Ratio (z) = 0.31774 0.16132
#
# Static dielectric constant tensor:
#      x y z
#    x 1.780250 0.000000 0.000000 
#    y 0.000000 1.710800 0.000000 
#    z 0.000000 0.000000 1.746400 
# 
# From -- ./inp_files/19567.got.cif
#   From: 2010.05.17/outbox.cif.g08.bks.cpg/sg43_10_cif.got.tgz:19567.got - 2010.06.03 19:21:55.
