data_PCOD9370527
_publ_section_title
;
Structure prediction by ZEFSAII (Michael W. Deem and Ramdas Pophale) SiO2 
 PCOD9370527
Probable space group: F D D 2
;
_chemical_formula_sum "Si O2"
_cell_formula_units_Z 112
_cell_length_a 35.432209
_cell_length_b 9.621175
_cell_length_c 14.597446
_cell_angle_alpha 90.000000
_cell_angle_beta 90.000000
_cell_angle_gamma 90.000000
_cell_volume 4976.261801
_symmetry_space_group_name_H-M "F D D 2"
_symmetry_group_IT_number 43
_symmetry_cell_setting 'orthorhombic'
loop_
_space_group_symop_operation_xyz
x,y,z
-x,-y,z
1/4-x,1/4+y,1/4+z
1/4+x,1/4-y,1/4+z
x,1/2+y,1/2+z
-x,1/2-y,1/2+z
1/4-x,3/4+y,3/4+z
1/4+x,3/4-y,3/4+z
1/2+x,y,1/2+z
1/2-x,-y,1/2+z
3/4-x,1/4+y,3/4+z
3/4+x,1/4-y,3/4+z
1/2+x,1/2+y,z
1/2-x,1/2-y,z
3/4-x,3/4+y,1/4+z
3/4+x,3/4-y,1/4+z
loop_
_atom_site_type_symbol
_atom_site_label
_atom_site_fract_x
_atom_site_fract_y
_atom_site_fract_z
Si Si1 0.184038 0.879675 0.863050
Si Si2 0.743799 0.469833 0.364104
Si Si3 0.148978 0.499181 0.047764
Si Si4 0.922940 0.940347 0.644135
Si Si5 0.465443 0.084210 0.460052
Si Si6 0.347401 0.305552 0.079681
Si Si7 0.786631 0.313736 0.019655
O O1 0.210922 0.015870 0.859398
O O2 0.199007 0.773629 0.785178
O O3 0.140090 0.903110 0.847194
O O4 0.192295 0.802164 0.958645
O O5 0.716792 0.337425 0.377751
O O6 0.730382 0.538193 0.269043
O O7 0.731668 0.575486 0.447062
O O8 0.105611 0.537636 0.061265
O O9 0.086234 0.447113 0.223077
O O10 0.180578 0.609825 0.075266
O O11 0.157493 0.451435 0.944027
O O12 0.906392 0.891663 0.854309
O O13 0.500000 0.000000 0.413283
O O14 0.433590 0.131010 0.389912
O O15 0.750000 0.250000 0.069107
#
# Coordination Sequence:
#
# PCOD9370527 Si02
#       7
#    16  16  16  16  16  16  16
#     4   9  17  32  56  82 106 145 187 230 267 336
#     4   8  16  33  56  80 106 142 188 223 276 315
#     4   9  19  33  55  75 110 145 175 224 282 329
#     4   9  19  34  55  75 112 147 173 221 279 336
#     4   9  18  34  56  80 106 141 186 236 269 320
#     4  10  20  31  54  82 111 142 176 226 285 328
#     4   8  15  31  57  80 103 142 191 230 267 324
#
# _framework density 22.506855000000002
#
# number of rings (size 3 to 8) (size 9 to 14) (size 15 to 20)
#    0.857    2.286    0.000    2.571    2.000    0.000 
#    0.000    3.571    9.429    0.000    0.000    0.000 
#    0.000    0.000    0.000    0.000    0.000    0.000 
#
# Total GULP energy -156021.584881 kJ/mol
# GULP energy per Si atom -5572.199460 kJ/mol
# Density = 2.245563 g / cm^3
# Si number density = 22.506855 Si / 1000 Ang^3
#
#
#
# Elastic Constant Matrix: (Units=GPa)
#
#
# Indices 1 2 3 4 5 6 
#
# 1 180.1376 24.1455 39.8423 0.0000 0.0000 0.0000
# 2 24.1455 27.8516 3.9246 0.0000 0.0000 0.0000
# 3 39.8423 3.9246 22.1896 0.0000 0.0000 0.0000
# 4 0.0000 0.0000 0.0000 9.7626 0.0000 0.0000
# 5 0.0000 0.0000 0.0000 0.0000 27.5507 0.0000
# 6 0.0000 0.0000 0.0000 0.0000 0.0000 36.7792
#
#
#
# Elastic Compliance Matrix: (Units=1/GPa)
#
#
# Indices 1 2 3 4 5 6 
#
# 1 0.010221 -0.006436 -0.017215 0.000000 0.000000 0.000000
# 2 -0.006436 0.040874 0.004326 0.000000 0.000000 0.000000
# 3 -0.017215 0.004326 0.075211 0.000000 0.000000 0.000000
# 4 0.000000 0.000000 0.000000 0.102432 0.000000 0.000000
# 5 0.000000 0.000000 0.000000 0.000000 0.036297 0.000000
# 6 0.000000 0.000000 0.000000 0.000000 0.000000 0.027189
#
#
# Mechanical properties :
#
#
# Convention : Reuss Voigt Hill
#
# Bulk Modulus (GPa) = 11.40796 40.66707 26.03752
# Shear Modulus (GPa) = 13.88535 25.63628 19.76081
#
# Velocity S-wave (km/s) = 2.48652 3.37863 2.96631
# Velocity P-wave (km/s) = 3.65012 5.77306 4.82968
#
# Compressibility (1/GPa) = 0.08765808
#
# Stress axis : x y z
#
# Youngs Moduli (GPa) = 97.83348 24.46534 13.29594
#
# Poissons Ratio (x) = 0.15745 0.22889
# Poissons Ratio (y) = 0.62962 -0.05752
# Poissons Ratio (z) = 1.68418 -0.10584
#
# Static dielectric constant tensor:
#      x y z
#    x 1.853630 0.000000 0.000000 
#    y 0.000000 1.925340 0.000000 
#    z 0.000000 0.000000 1.812160 
# 
# From -- ./inp_files/11713.got.cif
#   From: 2010.05.17/outbox.cif.g08.bks.cpg/sg43_6_cif.got.tgz:11713.got - 2010.06.03 19:21:55.
