data_PCOD9370511
_publ_section_title
;
Structure prediction by ZEFSAII (Michael W. Deem and Ramdas Pophale) SiO2 
 PCOD9370511
Probable space group: F D D 2
;
_chemical_formula_sum "Si O2"
_cell_formula_units_Z 88
_cell_length_a 10.835635
_cell_length_b 24.637699
_cell_length_c 11.622330
_cell_angle_alpha 90.000000
_cell_angle_beta 90.000000
_cell_angle_gamma 90.000000
_cell_volume 3102.756649
_symmetry_space_group_name_H-M "F D D 2"
_symmetry_group_IT_number 43
_symmetry_cell_setting 'orthorhombic'
loop_
_space_group_symop_operation_xyz
x,y,z
-x,-y,z
1/4-x,1/4+y,1/4+z
1/4+x,1/4-y,1/4+z
x,1/2+y,1/2+z
-x,1/2-y,1/2+z
1/4-x,3/4+y,3/4+z
1/4+x,3/4-y,3/4+z
1/2+x,y,1/2+z
1/2-x,-y,1/2+z
3/4-x,1/4+y,3/4+z
3/4+x,1/4-y,3/4+z
1/2+x,1/2+y,z
1/2-x,1/2-y,z
3/4-x,3/4+y,1/4+z
3/4+x,3/4-y,1/4+z
loop_
_atom_site_type_symbol
_atom_site_label
_atom_site_fract_x
_atom_site_fract_y
_atom_site_fract_z
Si Si1 0.451751 0.169538 0.043810
Si Si2 0.750000 0.750000 0.051268
Si Si3 0.671823 0.520346 0.396321
Si Si4 0.398447 0.437640 0.157642
Si Si5 0.592021 0.189745 0.826202
Si Si6 0.366599 0.557672 0.603374
O O1 0.552268 0.212413 0.085676
O O2 0.456762 0.107816 0.082648
O O3 0.330503 0.199827 0.096887
O O4 0.483155 0.167863 0.907947
O O5 0.852078 0.779192 0.972288
O O6 0.601911 0.555062 0.297622
O O7 0.788165 0.554475 0.447839
O O8 0.623382 0.492123 0.513833
O O9 0.524617 0.414187 0.105856
O O10 0.374573 0.498500 0.110665
O O11 0.268741 0.414547 0.111560
#
# Coordination Sequence:
#
# PCOD9370511 Si02
#       6
#    16   8  16  16  16  16
#     4  11  23  41  70 104 143 192 243 302 377 457
#     4  12  22  44  66 104 150 180 248 296 368 454
#     4  10  19  42  72  97 136 193 230 307 366 426
#     4   9  19  40  71  99 135 185 244 294 367 445
#     4   9  19  40  71  99 135 185 244 294 367 445
#     4  11  23  41  70 104 143 192 243 302 377 457
#
# _framework density 28.361878000000001
#
# number of rings (size 3 to 8) (size 9 to 14) (size 15 to 20)
#    0.000    1.818    5.455    1.091    0.000    5.818 
#    0.000    0.000   16.000   13.091    0.000    0.000 
#    0.000    0.000    0.000    0.000    0.000    0.000 
#
# Total GULP energy -122749.668968 kJ/mol
# GULP energy per Si atom -5579.530408 kJ/mol
# Density = 2.829732 g / cm^3
# Si number density = 28.361878 Si / 1000 Ang^3
#
#
#
# Elastic Constant Matrix: (Units=GPa)
#
#
# Indices 1 2 3 4 5 6 
#
# 1 158.1072 31.3428 42.7328 0.0000 0.0000 0.0000
# 2 31.3428 117.9061 27.0819 0.0000 0.0000 0.0000
# 3 42.7328 27.0819 157.3863 0.0000 0.0000 0.0000
# 4 0.0000 0.0000 0.0000 2.7888 0.0000 0.0000
# 5 0.0000 0.0000 0.0000 0.0000 19.5772 0.0000
# 6 0.0000 0.0000 0.0000 0.0000 0.0000 16.4857
#
#
#
# Elastic Compliance Matrix: (Units=1/GPa)
#
#
# Indices 1 2 3 4 5 6 
#
# 1 0.007071 -0.001498 -0.001662 0.000000 0.000000 0.000000
# 2 -0.001498 0.009148 -0.001167 0.000000 0.000000 0.000000
# 3 -0.001662 -0.001167 0.007006 0.000000 0.000000 0.000000
# 4 0.000000 0.000000 0.000000 0.358576 0.000000 0.000000
# 5 0.000000 0.000000 0.000000 0.000000 0.051080 0.000000
# 6 0.000000 0.000000 0.000000 0.000000 0.000000 0.060659
#
#
# Mechanical properties :
#
#
# Convention : Reuss Voigt Hill
#
# Bulk Modulus (GPa) = 68.63506 70.63497 69.63501
# Shear Modulus (GPa) = 9.86096 29.91981 19.89038
#
# Velocity S-wave (km/s) = 1.86665 3.25149 2.65109
# Velocity P-wave (km/s) = 5.37570 6.24942 5.82895
#
# Compressibility (1/GPa) = 0.01456981
#
# Stress axis : x y z
#
# Youngs Moduli (GPa) = 141.42265 109.31782 142.73557
#
# Poissons Ratio (x) = 0.16375 0.23725
# Poissons Ratio (y) = 0.21184 0.16662
# Poissons Ratio (z) = 0.23506 0.12761
#
# Static dielectric constant tensor:
#      x y z
#    x 2.505600 0.000000 0.000000 
#    y 0.000000 2.118240 0.000000 
#    z 0.000000 0.000000 2.314710 
# 
# From -- ./inp_files/9668.got.cif
#   From: 2010.05.17/outbox.cif.g08.bks.cpg/sg43_5_cif.got.tgz:9668.got - 2010.06.03 19:21:55.
