data_PCOD9370867
_publ_section_title
;
Structure prediction by ZEFSAII (Michael W. Deem and Ramdas Pophale) SiO2 
 PCOD9370867
Probable space group: F D D 2
;
_chemical_formula_sum "Si O2"
_cell_formula_units_Z 104
_cell_length_a 11.712104
_cell_length_b 15.758450
_cell_length_c 28.377826
_cell_angle_alpha 90.000000
_cell_angle_beta 90.000000
_cell_angle_gamma 90.000000
_cell_volume 5237.542254
_symmetry_space_group_name_H-M "F D D 2"
_symmetry_group_IT_number 43
_symmetry_cell_setting 'orthorhombic'
loop_
_space_group_symop_operation_xyz
x,y,z
-x,-y,z
1/4-x,1/4+y,1/4+z
1/4+x,1/4-y,1/4+z
x,1/2+y,1/2+z
-x,1/2-y,1/2+z
1/4-x,3/4+y,3/4+z
1/4+x,3/4-y,3/4+z
1/2+x,y,1/2+z
1/2-x,-y,1/2+z
3/4-x,1/4+y,3/4+z
3/4+x,1/4-y,3/4+z
1/2+x,1/2+y,z
1/2-x,1/2-y,z
3/4-x,3/4+y,1/4+z
3/4+x,3/4-y,1/4+z
loop_
_atom_site_type_symbol
_atom_site_label
_atom_site_fract_x
_atom_site_fract_y
_atom_site_fract_z
Si Si1 0.500000 0.000000 0.976960
Si Si2 0.871856 0.534153 0.280333
Si Si3 0.036671 0.142579 0.551827
Si Si4 0.171287 0.332710 0.359753
Si Si5 0.000000 0.000000 0.626920
Si Si6 0.732930 0.487759 0.679242
Si Si7 0.250000 0.750000 0.067410
Si Si8 0.134548 0.340446 0.653395
O O1 0.396256 0.985392 0.940862
O O2 0.504818 0.918588 0.010047
O O3 0.809507 0.461935 0.311149
O O4 0.867512 0.618339 0.312539
O O5 0.790254 0.537872 0.233746
O O6 0.000000 0.500000 0.269596
O O7 0.155545 0.192155 0.541555
O O8 0.043765 0.078468 0.595297
O O9 0.250000 0.250000 0.347768
O O10 0.256422 0.385289 0.393044
O O11 0.065975 0.312596 0.393953
O O12 0.892068 0.021901 0.657937
O O13 0.788958 0.581973 0.673557
O O14 0.183707 0.812333 0.102975
#
# Coordination Sequence:
#
# PCOD9370867 Si02
#       8
#     8  16  16  16   8  16   8  16
#     4  10  22  38  62 102 130 170 230 280 327 419
#     4  12  24  44  65  99 138 180 231 288 348 426
#     4  11  23  38  65  98 132 174 226 281 347 405
#     4  10  24  45  68  98 140 183 230 291 362 416
#     4  11  22  41  62  94 132 178 220 275 339 422
#     4  11  22  42  69  94 132 186 225 286 349 414
#     4  11  20  37  68  92 128 174 216 281 350 403
#     4  10  20  41  65  94 132 170 226 283 342 411
#
# _framework density 19.856642000000001
#
# number of rings (size 3 to 8) (size 9 to 14) (size 15 to 20)
#    0.000    1.231    5.385    0.923    0.000    1.231 
#    0.000    2.308    0.000    0.000    0.000    0.000 
#    0.000    0.000    0.000    0.000    0.000    0.000 
#
# Total GULP energy -144876.425456 kJ/mol
# GULP energy per Si atom -5572.170210 kJ/mol
# Density = 1.981145 g / cm^3
# Si number density = 19.856642 Si / 1000 Ang^3
#
#
#
# Elastic Constant Matrix: (Units=GPa)
#
#
# Indices 1 2 3 4 5 6 
#
# 1 134.4946 44.9990 40.4463 0.0000 0.0000 0.0000
# 2 44.9990 82.1758 55.7210 0.0000 0.0000 0.0000
# 3 40.4463 55.7210 100.6017 0.0000 0.0000 0.0000
# 4 0.0000 0.0000 0.0000 -59.0142 0.0000 0.0000
# 5 0.0000 0.0000 0.0000 0.0000 74.4095 0.0000
# 6 0.0000 0.0000 0.0000 0.0000 0.0000 30.3790
#
#
#
# Elastic Compliance Matrix: (Units=1/GPa)
#
#
# Indices 1 2 3 4 5 6 
#
# 1 0.009235 -0.004067 -0.001460 0.000000 0.000000 0.000000
# 2 -0.004067 0.021279 -0.010151 0.000000 0.000000 0.000000
# 3 -0.001460 -0.010151 0.016150 0.000000 0.000000 0.000000
# 4 0.000000 0.000000 0.000000 -0.016945 0.000000 0.000000
# 5 0.000000 0.000000 0.000000 0.000000 0.013439 0.000000
# 6 0.000000 0.000000 0.000000 0.000000 0.000000 0.032917
#
#
# Mechanical properties :
#
#
# Convention : Reuss Voigt Hill
#
# Bulk Modulus (GPa) = 65.32730 66.62274 65.97502
# Shear Modulus (GPa) = 44.43093 20.89524 32.66308
#
# Velocity S-wave (km/s) = 4.73544 3.24744 4.06019
# Velocity P-wave (km/s) = 7.92907 6.90550 7.43492
#
# Compressibility (1/GPa) = 0.01530754
#
# Stress axis : x y z
#
# Youngs Moduli (GPa) = 108.28251 46.99455 61.92065
#
# Poissons Ratio (x) = 0.19112 0.09043
# Poissons Ratio (y) = 0.44037 0.62855
# Poissons Ratio (z) = 0.15813 0.47704
#
# Static dielectric constant tensor:
#      x y z
#    x 1.687160 0.000000 0.000000 
#    y 0.000000 2.026260 0.000000 
#    z 0.000000 0.000000 1.720970 
# 
# From -- ./inp_files/25160.got.cif
#   From: 2010.05.17/outbox.cif.g08.bks.cpg/sg43_13_cif.got.tgz:25160.got - 2010.06.03 19:21:55.
