data_PCOD9370407
_publ_section_title
;
Structure prediction by ZEFSAII (Michael W. Deem and Ramdas Pophale) SiO2 
 PCOD9370407
Probable space group: F D D 2
;
_chemical_formula_sum "Si O2"
_cell_formula_units_Z 120
_cell_length_a 13.417441
_cell_length_b 23.350278
_cell_length_c 20.992725
_cell_angle_alpha 90.000000
_cell_angle_beta 90.000000
_cell_angle_gamma 90.000000
_cell_volume 6577.041261
_symmetry_space_group_name_H-M "F D D 2"
_symmetry_group_IT_number 43
_symmetry_cell_setting 'orthorhombic'
loop_
_space_group_symop_operation_xyz
x,y,z
-x,-y,z
1/4-x,1/4+y,1/4+z
1/4+x,1/4-y,1/4+z
x,1/2+y,1/2+z
-x,1/2-y,1/2+z
1/4-x,3/4+y,3/4+z
1/4+x,3/4-y,3/4+z
1/2+x,y,1/2+z
1/2-x,-y,1/2+z
3/4-x,1/4+y,3/4+z
3/4+x,1/4-y,3/4+z
1/2+x,1/2+y,z
1/2-x,1/2-y,z
3/4-x,3/4+y,1/4+z
3/4+x,3/4-y,1/4+z
loop_
_atom_site_type_symbol
_atom_site_label
_atom_site_fract_x
_atom_site_fract_y
_atom_site_fract_z
Si Si1 0.026602 0.345826 0.667540
Si Si2 0.347411 0.433035 0.181154
Si Si3 0.936412 0.309757 0.897872
Si Si4 0.616675 0.557570 0.728606
Si Si5 0.500000 0.500000 0.618176
Si Si6 0.515473 0.353866 0.797348
Si Si7 0.691266 0.013484 0.031437
Si Si8 0.188316 0.441591 0.289540
O O1 0.113297 0.387238 0.642686
O O2 0.071250 0.305352 0.722145
O O3 0.940048 0.390488 0.688535
O O4 0.976925 0.308283 0.611702
O O5 0.369112 0.499886 0.165348
O O6 0.278295 0.411089 0.122212
O O7 0.282065 0.433979 0.244061
O O8 0.024299 0.320310 0.949423
O O9 0.992217 0.297587 0.832125
O O10 0.541379 0.547695 0.668388
O O11 0.573880 0.605081 0.775726
O O12 0.629830 0.497960 0.766573
O O13 0.593759 0.492005 0.570666
O O14 0.500394 0.293698 0.762441
O O15 0.615799 0.387628 0.781018
#
# Coordination Sequence:
#
# PCOD9370407 Si02
#       8
#    16  16  16  16   8  16  16  16
#     4  11  21  37  58  85 120 152 195 251 288 351
#     4   9  20  37  60  82 113 157 196 240 300 356
#     4   9  20  38  58  81 114 159 197 233 301 367
#     4  10  19  37  62  88 110 157 202 239 302 357
#     4  10  20  40  62  78 126 158 196 248 300 362
#     4  10  20  34  59  88 116 149 198 245 298 350
#     4  10  23  37  56  90 118 158 201 242 300 357
#     4  10  20  37  58  84 118 153 194 251 287 355
#
# _framework density 18.245287000000001
#
# number of rings (size 3 to 8) (size 9 to 14) (size 15 to 20)
#    0.000    2.133    1.333    2.000    1.867    1.067 
#    0.000    4.667    5.867    0.000    0.000    0.000 
#    0.000    0.000    0.000    0.000    0.000    0.000 
#
# Total GULP energy -167158.691289 kJ/mol
# GULP energy per Si atom -5571.956376 kJ/mol
# Density = 1.820376 g / cm^3
# Si number density = 18.245287 Si / 1000 Ang^3
#
#
#
# Elastic Constant Matrix: (Units=GPa)
#
#
# Indices 1 2 3 4 5 6 
#
# 1 65.6764 33.0279 25.7334 0.0000 0.0000 0.0000
# 2 33.0279 76.1988 37.0468 0.0000 0.0000 0.0000
# 3 25.7334 37.0468 48.0755 0.0000 0.0000 0.0000
# 4 0.0000 0.0000 0.0000 20.2022 0.0000 0.0000
# 5 0.0000 0.0000 0.0000 0.0000 22.2061 0.0000
# 6 0.0000 0.0000 0.0000 0.0000 0.0000 8.8354
#
#
#
# Elastic Compliance Matrix: (Units=1/GPa)
#
#
# Indices 1 2 3 4 5 6 
#
# 1 0.020727 -0.005741 -0.006671 0.000000 0.000000 0.000000
# 2 -0.005741 0.022576 -0.014324 0.000000 0.000000 0.000000
# 3 -0.006671 -0.014324 0.035409 0.000000 0.000000 0.000000
# 4 0.000000 0.000000 0.000000 0.049499 0.000000 0.000000
# 5 0.000000 0.000000 0.000000 0.000000 0.045033 0.000000
# 6 0.000000 0.000000 0.000000 0.000000 0.000000 0.113181
#
#
# Mechanical properties :
#
#
# Convention : Reuss Voigt Hill
#
# Bulk Modulus (GPa) = 39.61789 42.39630 41.00709
# Shear Modulus (GPa) = 14.35501 16.52493 15.43997
#
# Velocity S-wave (km/s) = 2.80800 3.01277 2.91218
# Velocity P-wave (km/s) = 5.68105 5.94892 5.81653
#
# Compressibility (1/GPa) = 0.02524112
#
# Stress axis : x y z
#
# Youngs Moduli (GPa) = 48.24668 44.29474 28.24109
#
# Poissons Ratio (x) = 0.25428 0.18839
# Poissons Ratio (y) = 0.27697 0.40453
# Poissons Ratio (z) = 0.32184 0.63449
#
# Static dielectric constant tensor:
#      x y z
#    x 1.639210 0.000000 0.000000 
#    y 0.000000 1.621980 0.000000 
#    z 0.000000 0.000000 1.620520 
# 
# From -- ./inp_files/17699.got.cif
#   From: 2010.05.17/outbox.cif.g08.bks.cpg/sg43_9_cif.got.tgz:17699.got - 2010.06.03 19:21:55.
