data_PCOD9370176
_publ_section_title
;
Structure prediction by ZEFSAII (Michael W. Deem and Ramdas Pophale) SiO2 
 PCOD9370176
Probable space group: F D D 2
;
_chemical_formula_sum "Si O2"
_cell_formula_units_Z 104
_cell_length_a 28.304473
_cell_length_b 27.454621
_cell_length_c 7.316113
_cell_angle_alpha 90.000000
_cell_angle_beta 90.000000
_cell_angle_gamma 90.000000
_cell_volume 5685.267854
_symmetry_space_group_name_H-M "F D D 2"
_symmetry_group_IT_number 43
_symmetry_cell_setting 'orthorhombic'
loop_
_space_group_symop_operation_xyz
x,y,z
-x,-y,z
1/4-x,1/4+y,1/4+z
1/4+x,1/4-y,1/4+z
x,1/2+y,1/2+z
-x,1/2-y,1/2+z
1/4-x,3/4+y,3/4+z
1/4+x,3/4-y,3/4+z
1/2+x,y,1/2+z
1/2-x,-y,1/2+z
3/4-x,1/4+y,3/4+z
3/4+x,1/4-y,3/4+z
1/2+x,1/2+y,z
1/2-x,1/2-y,z
3/4-x,3/4+y,1/4+z
3/4+x,3/4-y,1/4+z
loop_
_atom_site_type_symbol
_atom_site_label
_atom_site_fract_x
_atom_site_fract_y
_atom_site_fract_z
Si Si1 0.561073 0.120598 0.971510
Si Si2 0.138853 0.307530 0.441234
Si Si3 0.456049 0.089360 0.957896
Si Si4 0.793929 0.160642 0.617194
Si Si5 0.188888 0.129451 0.103657
Si Si6 0.500000 0.000000 0.162495
Si Si7 0.611175 0.942503 0.633956
O O1 0.588603 0.075079 0.881563
O O2 0.506368 0.114645 0.915624
O O3 0.587225 0.168642 0.901704
O O4 0.564156 0.117171 0.190644
O O5 0.171434 0.333051 0.286016
O O6 0.087261 0.331409 0.423481
O O7 0.139200 0.250015 0.412636
O O8 0.421406 0.083052 0.789096
O O9 0.435807 0.117128 0.134517
O O10 0.469703 0.035825 0.035278
O O11 0.743594 0.135398 0.659526
O O12 0.780302 0.214174 0.539695
O O13 0.161358 0.174971 0.193585
#
# Coordination Sequence:
#
# PCOD9370176 Si02
#       7
#    16  16  16  16  16   8  16
#     4   9  21  34  51  79 106 136 178 217 265 331
#     4  11  20  33  56  79 106 137 181 226 267 310
#     4  10  18  34  54  73 111 139 172 220 274 305
#     4  10  18  34  54  73 111 139 172 220 274 305
#     4   9  21  34  51  79 106 136 178 217 265 331
#     4   8  16  28  50  84  92 126 184 216 250 328
#     4  11  20  33  56  79 106 137 181 226 267 310
#
# _framework density 18.292892999999999
#
# number of rings (size 3 to 8) (size 9 to 14) (size 15 to 20)
#    0.000    2.462    0.000    5.538    0.000    1.231 
#    0.000    0.000   27.077    0.000    0.000    0.000 
#    0.000    0.000    0.000    0.000    0.000    0.000 
#
# Total GULP energy -145043.934355 kJ/mol
# GULP energy per Si atom -5578.612860 kJ/mol
# Density = 1.825126 g / cm^3
# Si number density = 18.292893 Si / 1000 Ang^3
#
#
#
# Elastic Constant Matrix: (Units=GPa)
#
#
# Indices 1 2 3 4 5 6 
#
# 1 107.6091 45.8715 43.6305 -0.0240 0.0207 0.0234
# 2 45.8715 68.3981 20.7482 -0.0078 0.0111 0.0190
# 3 43.6305 20.7482 55.3219 -0.0476 0.0454 0.0395
# 4 -0.0240 -0.0078 -0.0476 11.2137 0.0282 0.0276
# 5 0.0207 0.0111 0.0454 0.0282 27.9076 -0.0270
# 6 0.0234 0.0190 0.0395 0.0276 -0.0270 24.0649
#
#
#
# Elastic Compliance Matrix: (Units=1/GPa)
#
#
# Indices 1 2 3 4 5 6 
#
# 1 0.016997 -0.008274 -0.010302 -0.000013 0.000007 0.000007
# 2 -0.008274 0.020525 -0.001172 -0.000008 0.000000 -0.000006
# 3 -0.010302 -0.001172 0.026640 0.000090 -0.000035 -0.000033
# 4 -0.000013 -0.000008 0.000090 0.089178 -0.000090 -0.000102
# 5 0.000007 0.000000 -0.000035 -0.000090 0.035833 0.000040
# 6 0.000007 -0.000006 -0.000033 -0.000102 0.000040 0.041555
#
#
# Mechanical properties :
#
#
# Convention : Reuss Voigt Hill
#
# Bulk Modulus (GPa) = 40.54155 50.20328 45.37242
# Shear Modulus (GPa) = 17.95687 20.70916 19.33302
#
# Velocity S-wave (km/s) = 3.13650 3.36830 3.25446
# Velocity P-wave (km/s) = 5.94369 6.52924 6.24333
#
# Compressibility (1/GPa) = 0.02466605
#
# Stress axis : x y z
#
# Youngs Moduli (GPa) = 58.83470 48.72130 37.53698
#
# Poissons Ratio (x) = 0.40312 0.38669
# Poissons Ratio (y) = 0.48680 0.04401
# Poissons Ratio (z) = 0.60610 0.05712
#
# Static dielectric constant tensor:
#      x y z
#    x 1.637810 0.000000 0.000010 
#    y 0.000000 1.603790 -0.000010 
#    z 0.000010 -0.000010 1.667390 
# 
# From -- ./inp_files/4388.got.cif
#   From: 2010.05.17/outbox.cif.g08.bks.cpg/sg43_3_cif.got.tgz:4388.got - 2010.06.03 19:21:55.
