data_PCOD9370664
_publ_section_title
;
Structure prediction by ZEFSAII (Michael W. Deem and Ramdas Pophale) SiO2 
 PCOD9370664
Probable space group: F D D 2
;
_chemical_formula_sum "Si O2"
_cell_formula_units_Z 96
_cell_length_a 32.256217
_cell_length_b 10.074805
_cell_length_c 14.352668
_cell_angle_alpha 90.000000
_cell_angle_beta 90.000000
_cell_angle_gamma 90.000000
_cell_volume 4664.259666
_symmetry_space_group_name_H-M "F D D 2"
_symmetry_group_IT_number 43
_symmetry_cell_setting 'orthorhombic'
loop_
_space_group_symop_operation_xyz
x,y,z
-x,-y,z
1/4-x,1/4+y,1/4+z
1/4+x,1/4-y,1/4+z
x,1/2+y,1/2+z
-x,1/2-y,1/2+z
1/4-x,3/4+y,3/4+z
1/4+x,3/4-y,3/4+z
1/2+x,y,1/2+z
1/2-x,-y,1/2+z
3/4-x,1/4+y,3/4+z
3/4+x,1/4-y,3/4+z
1/2+x,1/2+y,z
1/2-x,1/2-y,z
3/4-x,3/4+y,1/4+z
3/4+x,3/4-y,1/4+z
loop_
_atom_site_type_symbol
_atom_site_label
_atom_site_fract_x
_atom_site_fract_y
_atom_site_fract_z
Si Si1 0.160117 0.785161 0.733200
Si Si2 0.750000 0.750000 0.557710
Si Si3 0.830078 0.243019 0.186059
Si Si4 0.841479 0.007682 0.317286
Si Si5 0.250000 0.750000 0.735644
Si Si6 0.256748 0.467221 0.399074
Si Si7 0.669432 0.549604 0.853602
O O1 0.154488 0.646305 0.787678
O O2 0.205845 0.769433 0.684967
O O3 0.120947 0.815242 0.668057
O O4 0.164125 0.905048 0.806141
O O5 0.789411 0.736293 0.623651
O O6 0.742548 0.626447 0.488920
O O7 0.867742 0.293329 0.123706
O O8 0.827066 0.340855 0.273523
O O9 0.838716 0.097194 0.226039
O O10 0.800961 0.034812 0.380971
O O11 0.253900 0.875041 0.805847
O O12 0.214219 0.548996 0.403962
#
# Coordination Sequence:
#
# PCOD9370664 Si02
#       7
#    16   8  16  16   8  16  16
#     4  10  20  38  61  83 115 160 200 239 291 354
#     4  11  22  40  64  89 116 162 206 241 292 358
#     4  12  24  38  60  92 125 156 194 248 304 352
#     4  11  22  40  62  89 119 158 202 246 295 360
#     4   7  16  34  58  83 108 142 192 243 284 336
#     4   9  19  37  61  85 113 150 199 245 287 346
#     4  11  22  39  59  88 122 154 192 247 299 349
#
# _framework density 20.582044
#
# number of rings (size 3 to 8) (size 9 to 14) (size 15 to 20)
#    0.000    1.667    0.000    6.000    0.000    0.000 
#    0.000    1.667    0.000    2.000    0.000    0.000 
#    0.000    0.000    0.000    0.000    0.000    0.000 
#
# Total GULP energy -134006.271300 kJ/mol
# GULP energy per Si atom -5583.594637 kJ/mol
# Density = 2.053520 g / cm^3
# Si number density = 20.582044 Si / 1000 Ang^3
#
#
#
# Elastic Constant Matrix: (Units=GPa)
#
#
# Indices 1 2 3 4 5 6 
#
# 1 186.0610 -17.0876 58.1641 0.0000 0.0000 0.0000
# 2 -17.0876 45.9052 6.9477 0.0000 0.0000 0.0000
# 3 58.1641 6.9477 68.5715 0.0000 0.0000 0.0000
# 4 0.0000 0.0000 0.0000 -6.1109 0.0000 0.0000
# 5 0.0000 0.0000 0.0000 0.0000 57.9194 0.0000
# 6 0.0000 0.0000 0.0000 0.0000 0.0000 20.5554
#
#
#
# Elastic Compliance Matrix: (Units=1/GPa)
#
#
# Indices 1 2 3 4 5 6 
#
# 1 0.007997 0.004066 -0.007196 0.000000 0.000000 0.000000
# 2 0.004066 0.024190 -0.005900 0.000000 0.000000 0.000000
# 3 -0.007196 -0.005900 0.021285 0.000000 0.000000 0.000000
# 4 0.000000 0.000000 0.000000 -0.163641 0.000000 0.000000
# 5 0.000000 0.000000 0.000000 0.000000 0.017265 0.000000
# 6 0.000000 0.000000 0.000000 0.000000 0.000000 0.048649
#
#
# Mechanical properties :
#
#
# Convention : Reuss Voigt Hill
#
# Bulk Modulus (GPa) = 28.23780 44.06511 36.15146
# Shear Modulus (GPa) = -347.43874 31.30701 -158.06587
#
# Velocity S-wave (km/s) = -13.00666 3.90434 -8.77295
# Velocity P-wave (km/s) = 14.55386 6.46383 9.22046
#
# Compressibility (1/GPa) = 0.03541352
#
# Stress axis : x y z
#
# Youngs Moduli (GPa) = 125.04095 41.33859 46.98241
#
# Poissons Ratio (x) = -0.16808 0.33806
# Poissons Ratio (y) = -0.50841 0.27719
# Poissons Ratio (z) = 0.89974 0.24389
#
# Static dielectric constant tensor:
#      x y z
#    x 1.773100 0.000000 0.000000 
#    y 0.000000 1.773780 0.000000 
#    z 0.000000 0.000000 1.688510 
# 
# From -- ./inp_files/9755.got.cif
#   From: 2010.05.17/outbox.cif.g08.bks.cpg/sg43_5_cif.got.tgz:9755.got - 2010.06.03 19:21:55.
