data_PCOD9370024
_publ_section_title
;
Structure prediction by ZEFSAII (Michael W. Deem and Ramdas Pophale) SiO2 
 PCOD9370024
Probable space group: F M M 2
;
_chemical_formula_sum "Si O2"
_cell_formula_units_Z 24
_cell_length_a 24.000000
_cell_length_b 24.000000
_cell_length_c 9.000000
_cell_angle_alpha 90.000000
_cell_angle_beta 90.000000
_cell_angle_gamma 90.000000
_cell_volume 5184.000000
_symmetry_space_group_name_H-M "F M M 2"
_symmetry_group_IT_number 42
_symmetry_cell_setting 'orthorhombic'
loop_
_space_group_symop_operation_xyz
x,y,z
-x,-y,z
-x,y,z
x,-y,z
x,1/2+y,1/2+z
-x,1/2-y,1/2+z
-x,1/2+y,1/2+z
x,1/2-y,1/2+z
1/2+x,y,1/2+z
1/2-x,-y,1/2+z
1/2-x,y,1/2+z
1/2+x,-y,1/2+z
1/2+x,1/2+y,z
1/2-x,1/2-y,z
1/2-x,1/2+y,z
1/2+x,1/2-y,z
loop_
_atom_site_type_symbol
_atom_site_label
_atom_site_fract_x
_atom_site_fract_y
_atom_site_fract_z
Si Si1 0.332749 0.000000 0.005540
Si Si2 0.000000 0.274919 0.576685
Si Si3 0.380101 0.617718 0.442152
Si Si4 0.000000 0.831080 0.392870
Si Si5 0.757508 0.000000 0.224983
Si Si6 0.205974 0.127220 0.181603
Si Si7 0.869842 0.201277 0.998188
Si Si8 0.674447 0.691881 0.671559
O O1 0.306627 0.000000 0.170648
O O2 0.369615 0.052933 0.965829
O O3 0.278167 0.000000 0.896450
O O4 0.000000 0.209773 0.534978
O O5 0.062388 0.295827 0.519979
O O6 0.000000 0.290687 0.749729
O O7 0.442093 0.634509 0.390898
O O8 0.330074 0.636821 0.331582
O O9 0.365623 0.646969 0.595749
O O10 0.779550 0.938842 0.170243
O O11 0.161143 0.146103 0.058868
O O12 0.262950 0.164687 0.177010
O O13 0.837002 0.251820 0.079432
O O14 0.851125 0.205659 0.829913
#
# Coordination Sequence:
#
# PCOD9370024 Si02
#       8
#     8   8  16   8   8  16  16  16
#     4  10  22  41  66  98 126 169 214 262 322 382
#     4  12  24  44  64  87 125 171 221 253 319 384
#     4  11  23  41  66  96 126 169 220 261 318 378
#     4  12  24  43  66  89 131 172 219 267 309 386
#     4  10  22  38  66  88 132 162 206 256 318 388
#     4  11  23  42  62  96 127 166 207 263 320 384
#     4  12  25  40  64  91 128 168 210 261 318 385
#     4  12  24  40  62  94 130 163 206 266 322 385
#
# _framework density 4.6296299999999997
#
# number of rings (size 3 to 8) (size 9 to 14) (size 15 to 20)
#    0.000    0.667    5.000    3.500    2.333    1.667 
#    0.000    0.000    0.000    0.500    0.000    0.000 
#    0.000    0.000    0.000    0.000    0.000    0.000 
#
# Total GULP energy -133788.372618 kJ/mol
# GULP energy per Si atom -5574.515526 kJ/mol
# Density = 0.461909 g / cm^3
# Si number density = 4.629630 Si / 1000 Ang^3
#
#
#
# Elastic Constant Matrix: (Units=GPa)
#
#
# Indices 1 2 3 4 5 6 
#
# 1 165.6978 47.4822 35.9030 0.0000 0.0000 0.0000
# 2 47.4822 85.2999 52.4515 -0.0003 -0.0002 0.0000
# 3 35.9030 52.4515 109.6068 -0.0008 0.0001 0.0001
# 4 0.0000 -0.0003 -0.0008 24.0122 0.0001 0.0004
# 5 0.0000 -0.0002 0.0001 0.0001 26.3879 -0.0001
# 6 0.0000 0.0000 0.0001 0.0004 -0.0001 31.8775
#
#
#
# Elastic Compliance Matrix: (Units=1/GPa)
#
#
# Indices 1 2 3 4 5 6 
#
# 1 0.007211 -0.003629 -0.000625 0.000000 0.000000 0.000000
# 2 -0.003629 0.018438 -0.007635 0.000000 0.000000 0.000000
# 3 -0.000625 -0.007635 0.012982 0.000000 0.000000 0.000000
# 4 0.000000 0.000000 0.000000 0.041645 0.000000 -0.000001
# 5 0.000000 0.000000 0.000000 0.000000 0.037896 0.000000
# 6 0.000000 0.000000 0.000000 -0.000001 0.000000 0.031370
#
#
# Mechanical properties :
#
#
# Convention : Reuss Voigt Hill
#
# Bulk Modulus (GPa) = 67.32939 70.25308 68.79124
# Shear Modulus (GPa) = 28.04714 31.44003 29.74359
#
# Velocity S-wave (km/s) = 3.89594 4.12486 4.01203
# Velocity P-wave (km/s) = 7.52825 7.79134 7.66093
#
# Compressibility (1/GPa) = 0.01485236
#
# Stress axis : x y z
#
# Youngs Moduli (GPa) = 138.68549 54.23520 77.03110
#
# Poissons Ratio (x) = 0.19684 0.04815
# Poissons Ratio (y) = 0.50334 0.58810
# Poissons Ratio (z) = 0.08669 0.41407
#
# Static dielectric constant tensor:
#      x y z
#    x 1.616650 0.000000 0.000000 
#    y 0.000000 1.691030 0.000000 
#    z 0.000000 0.000000 1.728150 
# 
# From -- ./inp_files/4779.got.cif
#   From: 2010.05.17/outbox.ucp.g08.bks.cvg/sg42_3_cif.got.tgz:4779.got - 2010.06.11 16:29:10.
