data_PCOD9370525
_publ_section_title
;
Structure prediction by ZEFSAII (Michael W. Deem and Ramdas Pophale) SiO2 
 PCOD9370525
Probable space group: F D D 2
;
_chemical_formula_sum "Si O2"
_cell_formula_units_Z 56
_cell_length_a 17.850685
_cell_length_b 15.192613
_cell_length_c 6.865958
_cell_angle_alpha 90.000000
_cell_angle_beta 90.000000
_cell_angle_gamma 90.000000
_cell_volume 1862.037847
_symmetry_space_group_name_H-M "F D D 2"
_symmetry_group_IT_number 43
_symmetry_cell_setting 'orthorhombic'
loop_
_space_group_symop_operation_xyz
x,y,z
-x,-y,z
1/4-x,1/4+y,1/4+z
1/4+x,1/4-y,1/4+z
x,1/2+y,1/2+z
-x,1/2-y,1/2+z
1/4-x,3/4+y,3/4+z
1/4+x,3/4-y,3/4+z
1/2+x,y,1/2+z
1/2-x,-y,1/2+z
3/4-x,1/4+y,3/4+z
3/4+x,1/4-y,3/4+z
1/2+x,1/2+y,z
1/2-x,1/2-y,z
3/4-x,3/4+y,1/4+z
3/4+x,3/4-y,1/4+z
loop_
_atom_site_type_symbol
_atom_site_label
_atom_site_fract_x
_atom_site_fract_y
_atom_site_fract_z
Si Si1 0.401874 0.411231 0.559310
Si Si2 0.590901 0.937639 0.362333
Si Si3 0.970170 0.206587 0.577822
Si Si4 0.750000 0.750000 0.474491
O O1 0.429348 0.476444 0.733387
O O2 0.315636 0.416239 0.628841
O O3 0.443041 0.317341 0.585785
O O4 0.439651 0.452120 0.367819
O O5 0.681544 0.949050 0.351088
O O6 0.554407 0.948034 0.571575
O O7 0.565205 0.850726 0.253201
#
# Coordination Sequence:
#
# PCOD9370525 Si02
#       4
#    16  16  16   8
#     4  10  21  38  68  89 141 175 239 281 363 415
#     4  10  21  38  68  89 145 173 239 281 366 415
#     4  10  19  45  58  94 134 188 214 307 337 440
#     4  12  18  40  68  98 118 210 218 284 352 452
#
# _framework density 30.074576
#
# number of rings (size 3 to 8) (size 9 to 14) (size 15 to 20)
#    1.714    0.000    5.714    0.000    0.000    2.286 
#    0.000    5.714    0.000    0.000    0.000    0.000 
#    0.000    0.000    0.000    0.000    0.000    0.000 
#
# Total GULP energy -78293.580482 kJ/mol
# GULP energy per Si atom -5592.398606 kJ/mol
# Density = 3.000612 g / cm^3
# Si number density = 30.074576 Si / 1000 Ang^3
#
#
#
# Elastic Constant Matrix: (Units=GPa)
#
#
# Indices 1 2 3 4 5 6 
#
# 1 175.7455 29.9563 34.6958 0.0001 0.0000 0.0000
# 2 29.9563 47.5584 53.0643 0.0002 -0.0001 -0.0001
# 3 34.6958 53.0643 261.8601 0.0007 -0.0003 -0.0002
# 4 0.0001 0.0002 0.0007 71.9613 -0.0002 -0.0001
# 5 0.0000 -0.0001 -0.0003 -0.0002 56.1256 0.0001
# 6 0.0000 -0.0001 -0.0002 -0.0001 0.0001 54.2913
#
#
#
# Elastic Compliance Matrix: (Units=1/GPa)
#
#
# Indices 1 2 3 4 5 6 
#
# 1 0.006375 -0.003971 -0.000040 0.000000 0.000000 0.000000
# 2 -0.003971 0.029643 -0.005481 0.000000 0.000000 0.000000
# 3 -0.000040 -0.005481 0.004935 0.000000 0.000000 0.000000
# 4 0.000000 0.000000 0.000000 0.013896 0.000000 0.000000
# 5 0.000000 0.000000 0.000000 0.000000 0.017817 0.000000
# 6 0.000000 0.000000 0.000000 0.000000 0.000000 0.018419
#
#
# Mechanical properties :
#
#
# Convention : Reuss Voigt Hill
#
# Bulk Modulus (GPa) = 45.51747 80.06629 62.79188
# Shear Modulus (GPa) = 42.59232 60.97215 51.78223
#
# Velocity S-wave (km/s) = 3.76736 4.50751 4.15395
# Velocity P-wave (km/s) = 5.83881 7.33284 6.62806
#
# Compressibility (1/GPa) = 0.02196959
#
# Stress axis : x y z
#
# Youngs Moduli (GPa) = 156.86855 33.73443 202.64218
#
# Poissons Ratio (x) = 0.13395 0.00810
# Poissons Ratio (y) = 0.62288 1.11067
# Poissons Ratio (z) = 0.00627 0.18490
#
# Static dielectric constant tensor:
#      x y z
#    x 2.750460 0.000000 0.000000 
#    y 0.000000 2.398730 0.000000 
#    z 0.000000 0.000000 2.271890 
# 
# From -- ./inp_files/631.got.cif
#   From: 2010.05.17/outbox.cif.g08.bks.cpg/sg43_1_cif.got.tgz:631.got - 2010.06.03 19:21:55.
