data_PCOD9370162
_publ_section_title
;
Structure prediction by ZEFSAII (Michael W. Deem and Ramdas Pophale) SiO2 
 PCOD9370162
Probable space group: F D D 2
;
_chemical_formula_sum "Si O2"
_cell_formula_units_Z 120
_cell_length_a 26.622719
_cell_length_b 23.415682
_cell_length_c 8.052504
_cell_angle_alpha 90.000000
_cell_angle_beta 90.000000
_cell_angle_gamma 90.000000
_cell_volume 5019.843399
_symmetry_space_group_name_H-M "F D D 2"
_symmetry_group_IT_number 43
_symmetry_cell_setting 'orthorhombic'
loop_
_space_group_symop_operation_xyz
x,y,z
-x,-y,z
1/4-x,1/4+y,1/4+z
1/4+x,1/4-y,1/4+z
x,1/2+y,1/2+z
-x,1/2-y,1/2+z
1/4-x,3/4+y,3/4+z
1/4+x,3/4-y,3/4+z
1/2+x,y,1/2+z
1/2-x,-y,1/2+z
3/4-x,1/4+y,3/4+z
3/4+x,1/4-y,3/4+z
1/2+x,1/2+y,z
1/2-x,1/2-y,z
3/4-x,3/4+y,1/4+z
3/4+x,3/4-y,1/4+z
loop_
_atom_site_type_symbol
_atom_site_label
_atom_site_fract_x
_atom_site_fract_y
_atom_site_fract_z
Si Si1 0.000000 0.000000 0.600080
Si Si2 0.890199 0.824189 0.580331
Si Si3 0.945455 0.868259 0.881307
Si Si4 0.533362 0.382218 0.435744
Si Si5 0.307658 0.604698 0.987008
Si Si6 0.590908 0.838673 0.223913
Si Si7 0.902222 0.981228 0.170979
Si Si8 0.047580 0.443098 0.392761
O O1 0.005607 0.942211 0.490679
O O2 0.044162 0.986381 0.735448
O O3 0.934501 0.835013 0.710971
O O4 0.839055 0.858673 0.614781
O O5 0.909053 0.835986 0.393989
O O6 0.866208 0.761076 0.587775
O O7 0.894755 0.906133 0.885504
O O8 0.994729 0.908056 0.895885
O O9 0.942411 0.830346 0.049272
O O10 0.498686 0.351830 0.304501
O O11 0.545098 0.345772 0.600500
O O12 0.320841 0.671778 0.956141
O O13 0.599640 0.782356 0.327138
O O14 0.586306 0.893174 0.346677
O O15 0.937210 0.022431 0.057653
#
# Coordination Sequence:
#
# PCOD9370162 Si02
#       8
#     8  16  16  16  16  16  16  16
#     4  10  18  32  62 104 130 168 228 276 344 410
#     4  11  23  41  65  95 140 180 226 288 351 420
#     4  10  22  40  63  93 132 176 219 280 348 394
#     4  10  21  38  63  96 138 178 219 289 353 405
#     4  11  23  40  65  96 132 175 230 283 336 418
#     4   9  21  38  61  98 137 170 219 283 347 413
#     4  11  22  38  66 101 138 179 238 279 353 424
#     4  11  21  39  69 101 140 179 227 298 344 411
#
# _framework density 23.905127
#
# number of rings (size 3 to 8) (size 9 to 14) (size 15 to 20)
#    0.000    1.600    0.000    6.400    0.000    3.200 
#    0.000    4.000   17.600    0.000    3.467    0.000 
#    0.000    0.000    0.000    0.000    0.000    0.000 
#
# Total GULP energy -167172.486998 kJ/mol
# GULP energy per Si atom -5572.416233 kJ/mol
# Density = 2.385072 g / cm^3
# Si number density = 23.905127 Si / 1000 Ang^3
#
#
#
# Elastic Constant Matrix: (Units=GPa)
#
#
# Indices 1 2 3 4 5 6 
#
# 1 127.4006 31.4110 32.2854 0.0023 -0.0014 -0.0004
# 2 31.4110 43.9491 23.6722 0.0015 -0.0012 -0.0006
# 3 32.2854 23.6722 120.8480 0.0071 -0.0047 -0.0021
# 4 0.0023 0.0015 0.0071 28.0919 -0.0031 -0.0016
# 5 -0.0014 -0.0012 -0.0047 -0.0031 36.9407 0.0008
# 6 -0.0004 -0.0006 -0.0021 -0.0016 0.0008 35.7789
#
#
#
# Elastic Compliance Matrix: (Units=1/GPa)
#
#
# Indices 1 2 3 4 5 6 
#
# 1 0.009731 -0.006210 -0.001383 0.000000 0.000000 0.000000
# 2 -0.006210 0.029400 -0.004100 0.000000 0.000000 0.000000
# 3 -0.001383 -0.004100 0.009448 -0.000002 0.000001 0.000000
# 4 0.000000 0.000000 -0.000002 0.035597 0.000003 0.000002
# 5 0.000000 0.000000 0.000001 0.000003 0.027070 -0.000001
# 6 0.000000 0.000000 0.000000 0.000002 -0.000001 0.027949
#
#
# Mechanical properties :
#
#
# Convention : Reuss Voigt Hill
#
# Bulk Modulus (GPa) = 39.69440 51.88168 45.78804
# Shear Modulus (GPa) = 29.24330 33.81757 31.53044
#
# Velocity S-wave (km/s) = 3.50137 3.76527 3.63572
# Velocity P-wave (km/s) = 5.74345 6.37600 6.06797
#
# Compressibility (1/GPa) = 0.02519247
#
# Stress axis : x y z
#
# Youngs Moduli (GPa) = 102.76621 34.01342 105.84760
#
# Poissons Ratio (x) = 0.21121 0.14642
# Poissons Ratio (y) = 0.63815 0.43398
# Poissons Ratio (z) = 0.14215 0.13946
#
# Static dielectric constant tensor:
#      x y z
#    x 1.951100 0.000000 0.000000 
#    y 0.000000 1.971750 0.000000 
#    z 0.000000 0.000000 2.101510 
# 
# From -- ./inp_files/4416.got.cif
#   From: 2010.05.17/outbox.cif.g08.bks.cpg/sg43_3_cif.got.tgz:4416.got - 2010.06.03 19:21:55.
