data_PCOD9370275
_publ_section_title
;
Structure prediction by ZEFSAII (Michael W. Deem and Ramdas Pophale) SiO2 
 PCOD9370275
Probable space group: F D D 2
;
_chemical_formula_sum "Si O2"
_cell_formula_units_Z 88
_cell_length_a 12.641246
_cell_length_b 15.164339
_cell_length_c 24.625845
_cell_angle_alpha 90.000000
_cell_angle_beta 90.000000
_cell_angle_gamma 90.000000
_cell_volume 4720.679424
_symmetry_space_group_name_H-M "F D D 2"
_symmetry_group_IT_number 43
_symmetry_cell_setting 'orthorhombic'
loop_
_space_group_symop_operation_xyz
x,y,z
-x,-y,z
1/4-x,1/4+y,1/4+z
1/4+x,1/4-y,1/4+z
x,1/2+y,1/2+z
-x,1/2-y,1/2+z
1/4-x,3/4+y,3/4+z
1/4+x,3/4-y,3/4+z
1/2+x,y,1/2+z
1/2-x,-y,1/2+z
3/4-x,1/4+y,3/4+z
3/4+x,1/4-y,3/4+z
1/2+x,1/2+y,z
1/2-x,1/2-y,z
3/4-x,3/4+y,1/4+z
3/4+x,3/4-y,1/4+z
loop_
_atom_site_type_symbol
_atom_site_label
_atom_site_fract_x
_atom_site_fract_y
_atom_site_fract_z
Si Si1 0.337132 0.326649 0.023170
Si Si2 0.226989 0.145288 0.906920
Si Si3 0.292207 0.994855 0.722080
Si Si4 0.285787 0.342547 0.648187
Si Si5 0.498354 0.104157 0.382497
Si Si6 0.250000 0.750000 0.043348
O O1 0.250000 0.250000 0.026294
O O2 0.322262 0.374970 0.079799
O O3 0.308417 0.379024 0.968428
O O4 0.448556 0.279760 0.013724
O O5 0.250000 0.250000 0.906008
O O6 0.336958 0.098837 0.893378
O O7 0.121752 0.128581 0.872191
O O8 0.295868 0.911084 0.681982
O O9 0.256135 0.076549 0.683992
O O10 0.398412 0.009834 0.755371
O O11 0.250000 0.250000 0.674770
O O12 0.242110 0.331504 0.586512
O O13 0.500000 0.000000 0.394411
#
# Coordination Sequence:
#
# PCOD9370275 Si02
#       6
#    16  16  16  16  16   8
#     4   9  18  35  66  91 123 165 217 273 321 375
#     4  10  18  40  65  91 133 164 224 278 316 385
#     4  11  22  48  58  93 143 171 215 286 323 394
#     4  10  23  42  64  98 125 175 226 272 328 396
#     4  10  22  36  66 100 128 175 221 270 333 395
#     4  10  28  40  66  92 138 174 220 270 342 394
#
# _framework density 18.641383000000001
#
# number of rings (size 3 to 8) (size 9 to 14) (size 15 to 20)
#    0.545    1.455    5.455    0.000    5.091    2.909 
#    9.818    1.818    0.000    0.000    0.000    0.000 
#    0.000    0.000    0.000    0.000    0.000    0.000 
#
# Total GULP energy -122498.652262 kJ/mol
# GULP energy per Si atom -5568.120557 kJ/mol
# Density = 1.859895 g / cm^3
# Si number density = 18.641383 Si / 1000 Ang^3
#
#
#
# Elastic Constant Matrix: (Units=GPa)
#
#
# Indices 1 2 3 4 5 6 
#
# 1 126.1147 28.1090 61.1821 0.0000 0.0000 0.0000
# 2 28.1090 78.5469 35.7623 0.0000 0.0000 0.0000
# 3 61.1821 35.7623 101.8914 0.0000 0.0000 0.0000
# 4 0.0000 0.0000 0.0000 3.9940 0.0000 0.0000
# 5 0.0000 0.0000 0.0000 0.0000 -18.8815 0.0000
# 6 0.0000 0.0000 0.0000 0.0000 0.0000 29.7910
#
#
#
# Elastic Compliance Matrix: (Units=1/GPa)
#
#
# Indices 1 2 3 4 5 6 
#
# 1 0.011273 -0.001133 -0.006371 0.000000 0.000000 0.000000
# 2 -0.001133 0.015267 -0.004678 0.000000 0.000000 0.000000
# 3 -0.006371 -0.004678 0.015282 0.000000 0.000000 0.000000
# 4 0.000000 0.000000 0.000000 0.250373 0.000000 0.000000
# 5 0.000000 0.000000 0.000000 0.000000 -0.052962 0.000000
# 6 0.000000 0.000000 0.000000 0.000000 0.000000 0.033567
#
#
# Mechanical properties :
#
#
# Convention : Reuss Voigt Hill
#
# Bulk Modulus (GPa) = 57.28466 61.85110 59.56788
# Shear Modulus (GPa) = 16.50258 15.08066 15.79162
#
# Velocity S-wave (km/s) = 2.97857 2.84736 2.91370
# Velocity P-wave (km/s) = 6.52884 6.63788 6.58358
#
# Compressibility (1/GPa) = 0.01745668
#
# Stress axis : x y z
#
# Youngs Moduli (GPa) = 88.70998 65.50232 65.43727
#
# Poissons Ratio (x) = 0.07424 0.41690
# Poissons Ratio (y) = 0.10054 0.30610
# Poissons Ratio (z) = 0.56518 0.30641
#
# Static dielectric constant tensor:
#      x y z
#    x 1.644550 0.000000 0.000000 
#    y 0.000000 1.671160 0.000000 
#    z 0.000000 0.000000 1.709290 
# 
# From -- ./inp_files/24989.got.cif
#   From: 2010.05.17/outbox.cif.g08.bks.cpg/sg43_13_cif.got.tgz:24989.got - 2010.06.03 19:21:55.
