data_PCOD9370186
_publ_section_title
;
Structure prediction by ZEFSAII (Michael W. Deem and Ramdas Pophale) SiO2 
 PCOD9370186
Probable space group: F D D 2
;
_chemical_formula_sum "Si O2"
_cell_formula_units_Z 120
_cell_length_a 18.073002
_cell_length_b 11.412413
_cell_length_c 26.382237
_cell_angle_alpha 90.000000
_cell_angle_beta 90.000000
_cell_angle_gamma 90.000000
_cell_volume 5441.509527
_symmetry_space_group_name_H-M "F D D 2"
_symmetry_group_IT_number 43
_symmetry_cell_setting 'orthorhombic'
loop_
_space_group_symop_operation_xyz
x,y,z
-x,-y,z
1/4-x,1/4+y,1/4+z
1/4+x,1/4-y,1/4+z
x,1/2+y,1/2+z
-x,1/2-y,1/2+z
1/4-x,3/4+y,3/4+z
1/4+x,3/4-y,3/4+z
1/2+x,y,1/2+z
1/2-x,-y,1/2+z
3/4-x,1/4+y,3/4+z
3/4+x,1/4-y,3/4+z
1/2+x,1/2+y,z
1/2-x,1/2-y,z
3/4-x,3/4+y,1/4+z
3/4+x,3/4-y,1/4+z
loop_
_atom_site_type_symbol
_atom_site_label
_atom_site_fract_x
_atom_site_fract_y
_atom_site_fract_z
Si Si1 0.537954 0.827852 0.442660
Si Si2 0.318218 0.985775 0.837585
Si Si3 0.615195 0.063350 0.476782
Si Si4 0.500000 0.500000 0.091966
Si Si5 0.852377 0.383457 0.592771
Si Si6 0.417101 0.643842 0.620409
Si Si7 0.171469 0.809982 0.182715
Si Si8 0.913174 0.961795 0.538388
O O1 0.460425 0.862721 0.468075
O O2 0.536276 0.838103 0.380946
O O3 0.560089 0.693309 0.448843
O O4 0.594761 0.928646 0.462038
O O5 0.249036 0.062941 0.856281
O O6 0.355095 0.076119 0.799346
O O7 0.284804 0.864885 0.815529
O O8 0.369963 0.950730 0.884035
O O9 0.645834 0.078634 0.533834
O O10 0.664516 0.111299 0.430830
O O11 0.427134 0.443739 0.117165
O O12 0.865351 0.246163 0.598309
O O13 0.393349 0.530063 0.589441
O O14 0.250000 0.750000 0.171300
O O15 0.132993 0.754842 0.232943
O O16 0.000000 0.000000 0.531586
#
# Coordination Sequence:
#
# PCOD9370186 Si02
#       8
#    16  16  16   8  16  16  16  16
#     4  10  22  39  59  97 125 156 227 259 306 401
#     4  10  21  39  60  86 121 161 202 259 305 374
#     4  10  22  38  66  88 123 173 204 270 322 361
#     4  10  18  34  60  88 118 156 202 252 302 360
#     4  10  20  36  64  92 119 164 212 265 316 370
#     4   9  21  40  60  89 122 155 218 257 302 391
#     4  11  24  38  61  91 125 163 199 257 321 376
#     4   9  21  38  59  85 118 161 206 245 302 387
#
# _framework density 22.052705
#
# number of rings (size 3 to 8) (size 9 to 14) (size 15 to 20)
#    0.000    2.133    1.333    0.800   11.200    0.000 
#    2.400    0.000    7.333    0.000    0.000    0.000 
#    0.000    0.000    0.000    0.000    0.000    0.000 
#
# Total GULP energy -167077.824307 kJ/mol
# GULP energy per Si atom -5569.260810 kJ/mol
# Density = 2.200251 g / cm^3
# Si number density = 22.052705 Si / 1000 Ang^3
#
#
#
# Elastic Constant Matrix: (Units=GPa)
#
#
# Indices 1 2 3 4 5 6 
#
# 1 17.1090 14.8872 29.2161 0.0000 0.0000 0.0000
# 2 14.8872 125.9322 37.1905 0.0000 0.0000 0.0000
# 3 29.2161 37.1905 173.8280 0.0000 0.0000 0.0000
# 4 0.0000 0.0000 0.0000 16.7896 0.0000 0.0000
# 5 0.0000 0.0000 0.0000 0.0000 17.8234 0.0000
# 6 0.0000 0.0000 0.0000 0.0000 0.0000 19.1993
#
#
#
# Elastic Compliance Matrix: (Units=1/GPa)
#
#
# Indices 1 2 3 4 5 6 
#
# 1 0.086458 -0.006329 -0.013177 0.000000 0.000000 0.000000
# 2 -0.006329 0.008940 -0.000849 0.000000 0.000000 0.000000
# 3 -0.013177 -0.000849 0.008149 0.000000 0.000000 0.000000
# 4 0.000000 0.000000 0.000000 0.059561 0.000000 0.000000
# 5 0.000000 0.000000 0.000000 0.000000 0.056106 0.000000
# 6 0.000000 0.000000 0.000000 0.000000 0.000000 0.052085
#
#
# Mechanical properties :
#
#
# Convention : Reuss Voigt Hill
#
# Bulk Modulus (GPa) = 15.91437 53.27297 34.59367
# Shear Modulus (GPa) = 15.01704 26.46749 20.74226
#
# Velocity S-wave (km/s) = 2.61235 3.46814 3.07021
# Velocity P-wave (km/s) = 4.04121 6.34404 5.31875
#
# Compressibility (1/GPa) = 0.06283629
#
# Stress axis : x y z
#
# Youngs Moduli (GPa) = 11.56629 111.86071 122.71163
#
# Poissons Ratio (x) = 0.70799 1.61700
# Poissons Ratio (y) = 0.07321 0.10417
# Poissons Ratio (z) = 0.15241 0.09495
#
# Static dielectric constant tensor:
#      x y z
#    x 1.827120 0.000000 0.000000 
#    y 0.000000 1.868230 0.000000 
#    z 0.000000 0.000000 1.871110 
# 
# From -- ./inp_files/22450.got.cif
#   From: 2010.05.17/outbox.cif.g08.bks.cpg/sg43_12_cif.got.tgz:22450.got - 2010.06.03 19:21:55.
