data_PCOD9370079
_publ_section_title
;
Structure prediction by ZEFSAII (Michael W. Deem and Ramdas Pophale) SiO2 
 PCOD9370079
Probable space group: F D D 2
;
_chemical_formula_sum "Si O2"
_cell_formula_units_Z 128
_cell_length_a 26.643939
_cell_length_b 24.121574
_cell_length_c 10.617170
_cell_angle_alpha 90.000000
_cell_angle_beta 90.000000
_cell_angle_gamma 90.000000
_cell_volume 6823.588762
_symmetry_space_group_name_H-M "F D D 2"
_symmetry_group_IT_number 43
_symmetry_cell_setting 'orthorhombic'
loop_
_space_group_symop_operation_xyz
x,y,z
-x,-y,z
1/4-x,1/4+y,1/4+z
1/4+x,1/4-y,1/4+z
x,1/2+y,1/2+z
-x,1/2-y,1/2+z
1/4-x,3/4+y,3/4+z
1/4+x,3/4-y,3/4+z
1/2+x,y,1/2+z
1/2-x,-y,1/2+z
3/4-x,1/4+y,3/4+z
3/4+x,1/4-y,3/4+z
1/2+x,1/2+y,z
1/2-x,1/2-y,z
3/4-x,3/4+y,1/4+z
3/4+x,3/4-y,1/4+z
loop_
_atom_site_type_symbol
_atom_site_label
_atom_site_fract_x
_atom_site_fract_y
_atom_site_fract_z
Si Si1 0.887517 0.830131 0.117660
Si Si2 0.358576 0.125313 0.753213
Si Si3 0.014795 0.676214 0.084794
Si Si4 0.752520 0.053870 0.817105
Si Si5 0.627903 0.735999 0.353225
Si Si6 0.065598 0.066172 0.274371
Si Si7 0.526823 0.366794 0.320097
Si Si8 0.946281 0.660992 0.326024
O O1 0.936681 0.804118 0.050875
O O2 0.862502 0.785800 0.212382
O O3 0.912070 0.882088 0.193892
O O4 0.841468 0.860136 0.049137
O O5 0.314761 0.110776 0.850051
O O6 0.358228 0.069142 0.670275
O O7 0.343762 0.175779 0.659185
O O8 0.413658 0.129346 0.809182
O O9 0.019886 0.742128 0.063911
O O10 0.982556 0.668321 0.209236
O O11 0.988965 0.654793 0.956636
O O12 0.726229 0.091317 0.709227
O O13 0.740165 0.076791 0.955934
O O14 0.670417 0.762823 0.442042
O O15 0.586559 0.783431 0.339316
O O16 0.006957 0.078306 0.296437
#
# Coordination Sequence:
#
# PCOD9370079 Si02
#       8
#    16  16  16  16  16  16  16  16
#     4   9  19  32  55  87 118 147 193 242 294 353
#     4  10  20  34  55  85 116 152 195 239 295 354
#     4  11  22  36  58  87 119 154 197 246 290 362
#     4  11  19  37  60  88 112 154 201 244 297 349
#     4  10  16  33  56  85 114 148 192 243 293 342
#     4   8  18  32  53  84 115 144 185 245 287 340
#     4  10  21  37  56  85 120 149 194 248 298 347
#     4  11  21  35  59  88 122 150 192 253 299 346
#
# _framework density 18.758458000000001
#
# number of rings (size 3 to 8) (size 9 to 14) (size 15 to 20)
#    0.000    2.000    2.500    3.750    0.000    1.500 
#    0.000    1.250    0.000    0.000    0.000    0.000 
#    0.000    0.000    0.000    0.000    0.000    0.000 
#
# Total GULP energy -178217.359963 kJ/mol
# GULP energy per Si atom -5569.292499 kJ/mol
# Density = 1.871576 g / cm^3
# Si number density = 18.758458 Si / 1000 Ang^3
#
#
#
# Elastic Constant Matrix: (Units=GPa)
#
#
# Indices 1 2 3 4 5 6 
#
# 1 113.4325 10.9649 25.6272 -0.0011 0.0007 -0.0015
# 2 10.9649 38.7623 1.4354 -0.0011 0.0007 -0.0013
# 3 25.6272 1.4354 44.0516 -0.0028 0.0019 -0.0036
# 4 -0.0011 -0.0011 -0.0028 21.8889 0.0007 -0.0013
# 5 0.0007 0.0007 0.0019 0.0007 26.6090 0.0010
# 6 -0.0015 -0.0013 -0.0036 -0.0013 0.0010 27.4572
#
#
#
# Elastic Compliance Matrix: (Units=1/GPa)
#
#
# Indices 1 2 3 4 5 6 
#
# 1 0.010430 -0.002729 -0.005979 0.000000 0.000000 0.000000
# 2 -0.002729 0.026544 0.000723 0.000001 -0.000001 0.000001
# 3 -0.005979 0.000723 0.026155 0.000003 -0.000002 0.000003
# 4 0.000000 0.000001 0.000003 0.045685 -0.000001 0.000002
# 5 0.000000 -0.000001 -0.000002 -0.000001 0.037581 -0.000001
# 6 0.000000 0.000001 0.000003 0.000002 -0.000001 0.036420
#
#
# Mechanical properties :
#
#
# Convention : Reuss Voigt Hill
#
# Bulk Modulus (GPa) = 21.20502 30.25571 25.73037
# Shear Modulus (GPa) = 23.30930 25.73893 24.52411
#
# Velocity S-wave (km/s) = 3.52888 3.70824 3.61967
# Velocity P-wave (km/s) = 5.28515 5.87357 5.58711
#
# Compressibility (1/GPa) = 0.04715864
#
# Stress axis : x y z
#
# Youngs Moduli (GPa) = 95.87329 37.67397 38.23297
#
# Poissons Ratio (x) = 0.10282 0.22860
# Poissons Ratio (y) = 0.26165 -0.02763
# Poissons Ratio (z) = 0.57323 -0.02723
#
# Static dielectric constant tensor:
#      x y z
#    x 1.713220 0.000000 0.000000 
#    y 0.000000 1.659950 0.000000 
#    z 0.000000 0.000000 1.648770 
# 
# From -- ./inp_files/7672.got.cif
#   From: 2010.05.17/outbox.cif.g08.bks.cpg/sg43_4_cif.got.tgz:7672.got - 2010.06.03 19:21:55.
