data_PCOD9370461
_publ_section_title
;
Structure prediction by ZEFSAII (Michael W. Deem and Ramdas Pophale) SiO2 
 PCOD9370461
Probable space group: F D D 2
;
_chemical_formula_sum "Si O2"
_cell_formula_units_Z 112
_cell_length_a 14.609606
_cell_length_b 24.841693
_cell_length_c 14.103040
_cell_angle_alpha 90.000000
_cell_angle_beta 90.000000
_cell_angle_gamma 90.000000
_cell_volume 5118.378893
_symmetry_space_group_name_H-M "F D D 2"
_symmetry_group_IT_number 43
_symmetry_cell_setting 'orthorhombic'
loop_
_space_group_symop_operation_xyz
x,y,z
-x,-y,z
1/4-x,1/4+y,1/4+z
1/4+x,1/4-y,1/4+z
x,1/2+y,1/2+z
-x,1/2-y,1/2+z
1/4-x,3/4+y,3/4+z
1/4+x,3/4-y,3/4+z
1/2+x,y,1/2+z
1/2-x,-y,1/2+z
3/4-x,1/4+y,3/4+z
3/4+x,1/4-y,3/4+z
1/2+x,1/2+y,z
1/2-x,1/2-y,z
3/4-x,3/4+y,1/4+z
3/4+x,3/4-y,1/4+z
loop_
_atom_site_type_symbol
_atom_site_label
_atom_site_fract_x
_atom_site_fract_y
_atom_site_fract_z
Si Si1 0.601622 0.100810 0.034150
Si Si2 0.557609 0.781204 0.924579
Si Si3 0.083164 0.707910 0.163648
Si Si4 0.000000 0.000000 0.312939
Si Si5 0.000000 0.000000 0.994434
Si Si6 0.392263 0.686901 0.623899
Si Si7 0.145721 0.690652 0.911050
Si Si8 0.159560 0.182104 0.859806
O O1 0.679638 0.062525 0.075217
O O2 0.596114 0.153845 0.101038
O O3 0.509026 0.068146 0.059039
O O4 0.615580 0.128614 0.931698
O O5 0.447932 0.775777 0.935240
O O6 0.623443 0.729379 0.926610
O O7 0.599526 0.816919 0.009804
O O8 0.160814 0.749647 0.130188
O O9 0.092698 0.690150 0.271170
O O10 0.979281 0.724377 0.147325
O O11 0.975964 0.047285 0.238372
O O12 0.056992 0.037914 0.924888
O O13 0.936235 0.037018 0.063114
O O14 0.402924 0.625709 0.658442
#
# Coordination Sequence:
#
# PCOD9370461 Si02
#       8
#    16  16  16   8   8  16  16  16
#     4  10  20  39  67  95 134 170 225 296 345 405
#     4  12  22  40  68  99 136 186 228 295 363 416
#     4  10  19  39  61  94 131 170 220 289 338 406
#     4   9  18  34  67  90 122 178 221 274 354 395
#     4  11  26  44  73  94 140 206 221 284 376 419
#     4  11  24  44  64 100 146 177 234 293 347 431
#     4  10  21  46  65  95 139 184 236 292 350 430
#     4  11  23  38  66 101 132 177 232 290 347 415
#
# _framework density 21.881929
#
# number of rings (size 3 to 8) (size 9 to 14) (size 15 to 20)
#    0.000    1.429    5.714    1.286    4.000    0.000 
#    0.000   10.000    0.000    0.000    0.000    0.000 
#    0.000    0.000    0.000    0.000    0.000    0.000 
#
# Total GULP energy -155966.314722 kJ/mol
# GULP energy per Si atom -5570.225526 kJ/mol
# Density = 2.183212 g / cm^3
# Si number density = 21.881929 Si / 1000 Ang^3
#
#
#
# Elastic Constant Matrix: (Units=GPa)
#
#
# Indices 1 2 3 4 5 6 
#
# 1 100.9882 52.2099 24.2711 0.0000 0.0000 0.0000
# 2 52.2099 76.3831 2.0607 0.0000 0.0000 0.0000
# 3 24.2711 2.0607 43.2936 0.0000 0.0000 0.0000
# 4 0.0000 0.0000 0.0000 30.9773 0.0000 0.0000
# 5 0.0000 0.0000 0.0000 0.0000 34.3329 0.0000
# 6 0.0000 0.0000 0.0000 0.0000 0.0000 29.7977
#
#
#
# Elastic Compliance Matrix: (Units=1/GPa)
#
#
# Indices 1 2 3 4 5 6 
#
# 1 0.018793 -0.012577 -0.009937 0.000000 0.000000 0.000000
# 2 -0.012577 0.021526 0.006026 0.000000 0.000000 0.000000
# 3 -0.009937 0.006026 0.028382 0.000000 0.000000 0.000000
# 4 0.000000 0.000000 0.000000 0.032282 0.000000 0.000000
# 5 0.000000 0.000000 0.000000 0.000000 0.029127 0.000000
# 6 0.000000 0.000000 0.000000 0.000000 0.000000 0.033560
#
#
# Mechanical properties :
#
#
# Convention : Reuss Voigt Hill
#
# Bulk Modulus (GPa) = 27.99114 41.97202 34.98158
# Shear Modulus (GPa) = 23.97481 28.49648 26.23564
#
# Velocity S-wave (km/s) = 3.31364 3.61263 3.46636
# Velocity P-wave (km/s) = 5.24023 6.05180 5.66058
#
# Compressibility (1/GPa) = 0.03572559
#
# Stress axis : x y z
#
# Youngs Moduli (GPa) = 53.21253 46.45513 35.23360
#
# Poissons Ratio (x) = 0.58427 0.35011
# Poissons Ratio (y) = 0.66926 -0.21233
# Poissons Ratio (z) = 0.52876 -0.27996
#
# Static dielectric constant tensor:
#      x y z
#    x 1.870920 0.000000 0.000000 
#    y 0.000000 1.819660 0.000000 
#    z 0.000000 0.000000 1.860200 
# 
# From -- ./inp_files/10352.got.cif
#   From: 2010.05.17/outbox.cif.g08.bks.cpg/sg43_6_cif.got.tgz:10352.got - 2010.06.03 19:21:55.
