data_PCOD9370501
_publ_section_title
;
Structure prediction by ZEFSAII (Michael W. Deem and Ramdas Pophale) SiO2 
 PCOD9370501
Probable space group: F D D 2
;
_chemical_formula_sum "Si O2"
_cell_formula_units_Z 104
_cell_length_a 18.069856
_cell_length_b 8.261766
_cell_length_c 31.469603
_cell_angle_alpha 90.000000
_cell_angle_beta 90.000000
_cell_angle_gamma 90.000000
_cell_volume 4698.063105
_symmetry_space_group_name_H-M "F D D 2"
_symmetry_group_IT_number 43
_symmetry_cell_setting 'orthorhombic'
loop_
_space_group_symop_operation_xyz
x,y,z
-x,-y,z
1/4-x,1/4+y,1/4+z
1/4+x,1/4-y,1/4+z
x,1/2+y,1/2+z
-x,1/2-y,1/2+z
1/4-x,3/4+y,3/4+z
1/4+x,3/4-y,3/4+z
1/2+x,y,1/2+z
1/2-x,-y,1/2+z
3/4-x,1/4+y,3/4+z
3/4+x,1/4-y,3/4+z
1/2+x,1/2+y,z
1/2-x,1/2-y,z
3/4-x,3/4+y,1/4+z
3/4+x,3/4-y,1/4+z
loop_
_atom_site_type_symbol
_atom_site_label
_atom_site_fract_x
_atom_site_fract_y
_atom_site_fract_z
Si Si1 0.593282 0.744000 0.313060
Si Si2 0.821578 0.636662 0.925397
Si Si3 0.852495 0.373062 0.088036
Si Si4 0.466274 0.678819 0.253419
Si Si5 0.517012 0.821548 0.965672
Si Si6 0.020777 0.827256 0.887588
Si Si7 0.250000 0.250000 0.270304
O O1 0.578743 0.563821 0.331880
O O2 0.533558 0.777642 0.276040
O O3 0.583568 0.860110 0.353143
O O4 0.675129 0.747160 0.296513
O O5 0.750000 0.750000 0.930347
O O6 0.834629 0.614668 0.874590
O O7 0.900040 0.696117 0.945953
O O8 0.804142 0.487863 0.956868
O O9 0.850885 0.430368 0.038312
O O10 0.793868 0.494528 0.109831
O O11 0.500000 0.500000 0.250340
O O12 0.462838 0.796685 0.925079
O O13 0.500000 0.000000 0.982813
O O14 0.502291 0.669928 0.995399
O O15 0.000000 0.000000 0.906763
#
# Coordination Sequence:
#
# PCOD9370501 Si02
#       7
#    16  16  16  16  16  16   8
#     4  10  22  44  62  97 145 180 235 294 362 451
#     4  11  23  44  70 107 138 181 255 311 361 451
#     4   9  21  42  64  98 137 183 230 306 370 427
#     4   9  20  41  73  92 132 192 237 285 371 453
#     4  11  25  45  73 101 143 189 236 300 375 439
#     4  10  19  41  73  95 127 188 243 281 350 453
#     4  12  26  44  64 110 142 180 238 300 352 446
#
# _framework density 22.136782
#
# number of rings (size 3 to 8) (size 9 to 14) (size 15 to 20)
#    0.000    1.846    0.769    4.154    4.308    5.538 
#    9.692    0.000    0.000    0.000    0.000    0.000 
#    0.000    0.000    0.000    0.000    0.000    0.000 
#
# Total GULP energy -144843.690394 kJ/mol
# GULP energy per Si atom -5570.911169 kJ/mol
# Density = 2.208640 g / cm^3
# Si number density = 22.136782 Si / 1000 Ang^3
#
#
#
# Elastic Constant Matrix: (Units=GPa)
#
#
# Indices 1 2 3 4 5 6 
#
# 1 99.0839 22.2117 65.1560 0.0000 0.0000 0.0000
# 2 22.2117 92.0731 56.0054 0.0000 0.0000 0.0000
# 3 65.1560 56.0054 115.0952 0.0000 0.0000 0.0000
# 4 0.0000 0.0000 0.0000 20.5726 0.0000 0.0000
# 5 0.0000 0.0000 0.0000 0.0000 97.5928 0.0000
# 6 0.0000 0.0000 0.0000 0.0000 0.0000 18.6934
#
#
#
# Elastic Compliance Matrix: (Units=1/GPa)
#
#
# Indices 1 2 3 4 5 6 
#
# 1 0.016445 0.002408 -0.010482 0.000000 0.000000 0.000000
# 2 0.002408 0.015780 -0.009042 0.000000 0.000000 0.000000
# 3 -0.010482 -0.009042 0.019022 0.000000 0.000000 0.000000
# 4 0.000000 0.000000 0.000000 0.048608 0.000000 0.000000
# 5 0.000000 0.000000 0.000000 0.000000 0.010247 0.000000
# 6 0.000000 0.000000 0.000000 0.000000 0.000000 0.053495
#
#
# Mechanical properties :
#
#
# Convention : Reuss Voigt Hill
#
# Bulk Modulus (GPa) = 58.76568 65.88871 62.32720
# Shear Modulus (GPa) = 24.57016 38.23038 31.40027
#
# Velocity S-wave (km/s) = 3.33517 4.16024 3.77034
# Velocity P-wave (km/s) = 6.43703 7.27363 6.86808
#
# Compressibility (1/GPa) = 0.01701673
#
# Stress axis : x y z
#
# Youngs Moduli (GPa) = 60.80851 63.37202 52.57097
#
# Poissons Ratio (x) = -0.15263 0.55103
# Poissons Ratio (y) = -0.14645 0.47534
# Poissons Ratio (z) = 0.63737 0.57300
#
# Static dielectric constant tensor:
#      x y z
#    x 1.887540 0.000000 0.000000 
#    y 0.000000 1.830610 0.000000 
#    z 0.000000 0.000000 1.868490 
# 
# From -- ./inp_files/29688.got.cif
#   From: 2010.05.17/outbox.cif.g08.bks.cpg/sg43_15_cif.got.tgz:29688.got - 2010.06.03 19:21:55.
