data_PCOD9370127
_publ_section_title
;
Structure prediction by ZEFSAII (Michael W. Deem and Ramdas Pophale) SiO2 
 PCOD9370127
Probable space group: F D D 2
;
_chemical_formula_sum "Si O2"
_cell_formula_units_Z 112
_cell_length_a 26.242895
_cell_length_b 11.837446
_cell_length_c 15.283050
_cell_angle_alpha 90.000000
_cell_angle_beta 90.000000
_cell_angle_gamma 90.000000
_cell_volume 4747.661944
_symmetry_space_group_name_H-M "F D D 2"
_symmetry_group_IT_number 43
_symmetry_cell_setting 'orthorhombic'
loop_
_space_group_symop_operation_xyz
x,y,z
-x,-y,z
1/4-x,1/4+y,1/4+z
1/4+x,1/4-y,1/4+z
x,1/2+y,1/2+z
-x,1/2-y,1/2+z
1/4-x,3/4+y,3/4+z
1/4+x,3/4-y,3/4+z
1/2+x,y,1/2+z
1/2-x,-y,1/2+z
3/4-x,1/4+y,3/4+z
3/4+x,1/4-y,3/4+z
1/2+x,1/2+y,z
1/2-x,1/2-y,z
3/4-x,3/4+y,1/4+z
3/4+x,3/4-y,1/4+z
loop_
_atom_site_type_symbol
_atom_site_label
_atom_site_fract_x
_atom_site_fract_y
_atom_site_fract_z
Si Si1 0.392885 0.122681 0.011130
Si Si2 0.283304 0.580603 0.027202
Si Si3 0.835354 0.132351 0.337353
Si Si4 0.931709 0.585406 0.725923
Si Si5 0.060453 0.479153 0.538585
Si Si6 0.502905 0.635761 0.459733
Si Si7 0.637603 0.940667 0.390713
O O1 0.369735 0.214199 0.074511
O O2 0.410478 0.017507 0.070543
O O3 0.354799 0.096142 0.932008
O O4 0.444473 0.172228 0.966688
O O5 0.286735 0.563232 0.131009
O O6 0.300039 0.709003 0.002581
O O7 0.222913 0.578536 0.013749
O O8 0.317231 0.515644 0.956600
O O9 0.877010 0.092415 0.267428
O O10 0.780589 0.096491 0.301867
O O11 0.934091 0.600763 0.622629
O O12 0.090740 0.425475 0.457806
O O13 0.089154 0.590740 0.579444
O O14 0.000000 0.500000 0.522964
O O15 0.500000 0.500000 0.441484
#
# Coordination Sequence:
#
# PCOD9370127 Si02
#       7
#    16  16  16  16  16  16  16
#     4  11  24  42  59  90 139 171 223 269 328 417
#     4  10  17  37  64  92 130 157 213 284 331 379
#     4  11  22  38  66  91 127 179 215 274 342 397
#     4  10  17  36  66  97 123 157 214 289 338 379
#     4  11  23  46  70 100 135 176 231 292 337 409
#     4  10  19  37  61  91 124 163 217 277 330 379
#     4  11  24  43  65  93 138 182 219 274 344 409
#
# _framework density 23.590558999999999
#
# number of rings (size 3 to 8) (size 9 to 14) (size 15 to 20)
#    0.000    1.429    5.714    2.571    0.000    2.286 
#    7.714    3.571    0.000    0.000    0.000    0.000 
#    0.000    0.000    0.000    0.000    0.000    0.000 
#
# Total GULP energy -156332.248970 kJ/mol
# GULP energy per Si atom -5583.294606 kJ/mol
# Density = 2.353687 g / cm^3
# Si number density = 23.590559 Si / 1000 Ang^3
#
#
#
# Elastic Constant Matrix: (Units=GPa)
#
#
# Indices 1 2 3 4 5 6 
#
# 1 109.4795 11.7768 46.9159 0.0000 0.0000 0.0000
# 2 11.7768 38.5526 22.2722 0.0000 0.0000 0.0000
# 3 46.9159 22.2722 95.5762 0.0000 0.0000 0.0000
# 4 0.0000 0.0000 0.0000 4.7152 0.0000 0.0000
# 5 0.0000 0.0000 0.0000 0.0000 34.5275 0.0000
# 6 0.0000 0.0000 0.0000 0.0000 0.0000 17.0906
#
#
#
# Elastic Compliance Matrix: (Units=1/GPa)
#
#
# Indices 1 2 3 4 5 6 
#
# 1 0.011570 -0.000293 -0.005611 0.000000 0.000000 0.000000
# 2 -0.000293 0.029981 -0.006843 0.000000 0.000000 0.000000
# 3 -0.005611 -0.006843 0.014812 0.000000 0.000000 0.000000
# 4 0.000000 0.000000 0.000000 0.212082 0.000000 0.000000
# 5 0.000000 0.000000 0.000000 0.000000 0.028962 0.000000
# 6 0.000000 0.000000 0.000000 0.000000 0.000000 0.058512
#
#
# Mechanical properties :
#
#
# Convention : Reuss Voigt Hill
#
# Bulk Modulus (GPa) = 32.39435 45.05979 38.72707
# Shear Modulus (GPa) = 12.76478 22.10954 17.43716
#
# Velocity S-wave (km/s) = 2.32867 3.06473 2.72170
# Velocity P-wave (km/s) = 4.58170 5.62722 5.13116
#
# Compressibility (1/GPa) = 0.03086958
#
# Stress axis : x y z
#
# Youngs Moduli (GPa) = 86.42833 33.35425 67.51324
#
# Poissons Ratio (x) = 0.00976 0.37884
# Poissons Ratio (y) = 0.02530 0.46198
# Poissons Ratio (z) = 0.48498 0.22824
#
# Static dielectric constant tensor:
#      x y z
#    x 1.910630 0.000000 0.000000 
#    y 0.000000 1.997390 0.000000 
#    z 0.000000 0.000000 1.899530 
# 
# From -- ./inp_files/11514.got.cif
#   From: 2010.05.17/outbox.cif.g08.bks.cpg/sg43_6_cif.got.tgz:11514.got - 2010.06.03 19:21:55.
