data_PCOD9370662
_publ_section_title
;
Structure prediction by ZEFSAII (Michael W. Deem and Ramdas Pophale) SiO2 
 PCOD9370662
Probable space group: F D D 2
;
_chemical_formula_sum "Si O2"
_cell_formula_units_Z 120
_cell_length_a 35.907292
_cell_length_b 16.870394
_cell_length_c 10.005081
_cell_angle_alpha 90.000000
_cell_angle_beta 90.000000
_cell_angle_gamma 90.000000
_cell_volume 6060.779553
_symmetry_space_group_name_H-M "F D D 2"
_symmetry_group_IT_number 43
_symmetry_cell_setting 'orthorhombic'
loop_
_space_group_symop_operation_xyz
x,y,z
-x,-y,z
1/4-x,1/4+y,1/4+z
1/4+x,1/4-y,1/4+z
x,1/2+y,1/2+z
-x,1/2-y,1/2+z
1/4-x,3/4+y,3/4+z
1/4+x,3/4-y,3/4+z
1/2+x,y,1/2+z
1/2-x,-y,1/2+z
3/4-x,1/4+y,3/4+z
3/4+x,1/4-y,3/4+z
1/2+x,1/2+y,z
1/2-x,1/2-y,z
3/4-x,3/4+y,1/4+z
3/4+x,3/4-y,1/4+z
loop_
_atom_site_type_symbol
_atom_site_label
_atom_site_fract_x
_atom_site_fract_y
_atom_site_fract_z
Si Si1 0.219390 0.387062 0.313080
Si Si2 0.131560 0.036495 0.702559
Si Si3 0.931226 0.089276 0.335430
Si Si4 0.426165 0.344013 0.790588
Si Si5 0.380974 0.746278 0.945037
Si Si6 0.000000 0.500000 0.754402
Si Si7 0.546415 0.786589 0.608743
Si Si8 0.145913 0.924168 0.930850
O O1 0.198556 0.374330 0.170924
O O2 0.229491 0.310336 0.402230
O O3 0.257156 0.437153 0.298326
O O4 0.189565 0.433681 0.403377
O O5 0.165914 0.098821 0.693958
O O6 0.094556 0.090791 0.698298
O O7 0.144342 0.967634 0.598198
O O8 0.127155 0.990410 0.840566
O O9 0.939232 0.142213 0.203524
O O10 0.969684 0.042683 0.348035
O O11 0.898164 0.027997 0.303786
O O12 0.454011 0.290845 0.702646
O O13 0.384607 0.812260 0.832002
O O14 0.365350 0.663953 0.888111
O O15 0.421501 0.729571 0.002570
#
# Coordination Sequence:
#
# PCOD9370662 Si02
#       8
#    16  16  16  16  16   8  16  16
#     4  10  22  37  59  89 119 163 196 250 311 353
#     4  10  21  38  61  86 120 155 196 250 298 359
#     4  10  20  38  60  88 117 156 202 241 306 348
#     4  10  21  39  62  88 121 158 202 248 311 358
#     4  12  21  38  60  93 116 155 207 249 290 363
#     4  10  20  38  62  88 124 156 204 254 296 378
#     4  10  22  37  60  88 122 157 199 252 297 366
#     4  11  23  37  61  90 121 151 204 249 303 358
#
# _framework density 19.799434000000002
#
# number of rings (size 3 to 8) (size 9 to 14) (size 15 to 20)
#    0.000    1.600    4.000    1.600    1.867    0.000 
#    0.000    0.000    0.000    0.000    0.000    0.933 
#    0.000    0.000    0.000    0.000    0.000    0.000 
#
# Total GULP energy -167202.507340 kJ/mol
# GULP energy per Si atom -5573.416911 kJ/mol
# Density = 1.975437 g / cm^3
# Si number density = 19.799434 Si / 1000 Ang^3
#
#
#
# Elastic Constant Matrix: (Units=GPa)
#
#
# Indices 1 2 3 4 5 6 
#
# 1 67.4181 10.7777 3.1356 0.0000 0.0000 0.0000
# 2 10.7777 54.2780 -8.2037 0.0000 0.0000 0.0000
# 3 3.1356 -8.2037 19.5793 0.0000 0.0000 0.0000
# 4 0.0000 0.0000 0.0000 25.5900 0.0000 0.0000
# 5 0.0000 0.0000 0.0000 0.0000 22.9258 0.0000
# 6 0.0000 0.0000 0.0000 0.0000 0.0000 30.2471
#
#
#
# Elastic Compliance Matrix: (Units=1/GPa)
#
#
# Indices 1 2 3 4 5 6 
#
# 1 0.015615 -0.003714 -0.004057 0.000000 0.000000 0.000000
# 2 -0.003714 0.020553 0.009206 0.000000 0.000000 0.000000
# 3 -0.004057 0.009206 0.055581 0.000000 0.000000 0.000000
# 4 0.000000 0.000000 0.000000 0.039078 0.000000 0.000000
# 5 0.000000 0.000000 0.000000 0.000000 0.043619 0.000000
# 6 0.000000 0.000000 0.000000 0.000000 0.000000 0.033061
#
#
# Mechanical properties :
#
#
# Convention : Reuss Voigt Hill
#
# Bulk Modulus (GPa) = 10.56854 16.96606 13.76730
# Shear Modulus (GPa) = 21.17068 24.79030 22.98049
#
# Velocity S-wave (km/s) = 3.27350 3.54230 3.41055
# Velocity P-wave (km/s) = 4.43138 5.03171 4.74105
#
# Compressibility (1/GPa) = 0.09462042
#
# Stress axis : x y z
#
# Youngs Moduli (GPa) = 64.04018 48.65577 17.99164
#
# Poissons Ratio (x) = 0.18070 0.07299
# Poissons Ratio (y) = 0.23783 -0.16564
# Poissons Ratio (z) = 0.25980 -0.44794
#
# Static dielectric constant tensor:
#      x y z
#    x 1.700980 0.000000 0.000000 
#    y 0.000000 1.734020 0.000000 
#    z 0.000000 0.000000 1.699570 
# 
# From -- ./inp_files/6881.got.cif
#   From: 2010.05.17/outbox.cif.g08.bks.cpg/sg43_4_cif.got.tgz:6881.got - 2010.06.03 19:21:55.
