data_PCOD9370612
_publ_section_title
;
Structure prediction by ZEFSAII (Michael W. Deem and Ramdas Pophale) SiO2 
 PCOD9370612
Probable space group: F D D 2
;
_chemical_formula_sum "Si O2"
_cell_formula_units_Z 112
_cell_length_a 11.706607
_cell_length_b 14.977312
_cell_length_c 26.384212
_cell_angle_alpha 90.000000
_cell_angle_beta 90.000000
_cell_angle_gamma 90.000000
_cell_volume 4626.036380
_symmetry_space_group_name_H-M "F D D 2"
_symmetry_group_IT_number 43
_symmetry_cell_setting 'orthorhombic'
loop_
_space_group_symop_operation_xyz
x,y,z
-x,-y,z
1/4-x,1/4+y,1/4+z
1/4+x,1/4-y,1/4+z
x,1/2+y,1/2+z
-x,1/2-y,1/2+z
1/4-x,3/4+y,3/4+z
1/4+x,3/4-y,3/4+z
1/2+x,y,1/2+z
1/2-x,-y,1/2+z
3/4-x,1/4+y,3/4+z
3/4+x,1/4-y,3/4+z
1/2+x,1/2+y,z
1/2-x,1/2-y,z
3/4-x,3/4+y,1/4+z
3/4+x,3/4-y,1/4+z
loop_
_atom_site_type_symbol
_atom_site_label
_atom_site_fract_x
_atom_site_fract_y
_atom_site_fract_z
Si Si1 0.038857 0.403826 0.663610
Si Si2 0.526126 0.595895 0.046165
Si Si3 0.974378 0.710996 0.157597
Si Si4 0.030545 0.286788 0.036618
Si Si5 0.386260 0.453471 0.550130
Si Si6 0.506428 0.136150 0.253009
Si Si7 0.274579 0.347412 0.632634
O O1 0.172085 0.377682 0.668355
O O2 0.000000 0.500000 0.684156
O O3 0.024397 0.408633 0.602456
O O4 0.968179 0.313880 0.675739
O O5 0.500000 0.500000 0.021920
O O6 0.482550 0.689380 0.023836
O O7 0.662185 0.613602 0.047250
O O8 0.942648 0.707471 0.098028
O O9 0.929628 0.647085 0.202162
O O10 0.105114 0.674161 0.158406
O O11 0.147991 0.310082 0.007931
O O12 0.935878 0.362096 0.027825
O O13 0.500000 0.500000 0.572806
O O14 0.329488 0.523516 0.512788
O O15 0.296916 0.424050 0.592205
O O16 0.250000 0.250000 0.608289
#
# Coordination Sequence:
#
# PCOD9370612 Si02
#       7
#    16  16  16  16  16  16  16
#     4   9  17  32  57  84 114 153 197 246 306 365
#     4  10  20  37  59  84 115 156 201 242 298 366
#     4   9  20  37  57  86 118 152 203 253 298 359
#     4   9  20  39  60  82 116 160 202 248 303 358
#     4   9  18  31  52  82 112 145 189 242 297 350
#     4  11  21  37  60  85 120 159 198 248 303 364
#     4   9  17  33  57  79 108 151 195 243 298 360
#
# _framework density 24.210792000000001
#
# number of rings (size 3 to 8) (size 9 to 14) (size 15 to 20)
#    0.000    2.571    0.000    3.000    0.000    5.143 
#    0.000   17.857    0.000    3.429    0.000    0.000 
#    0.000    0.000    0.000    0.000    0.000    0.000 
#
# Total GULP energy -156091.173130 kJ/mol
# GULP energy per Si atom -5574.684755 kJ/mol
# Density = 2.415569 g / cm^3
# Si number density = 24.210792 Si / 1000 Ang^3
#
#
#
# Elastic Constant Matrix: (Units=GPa)
#
#
# Indices 1 2 3 4 5 6 
#
# 1 36.8736 2.3291 -1.3772 0.0000 0.0000 0.0000
# 2 2.3291 148.4559 15.8601 0.0000 0.0000 0.0000
# 3 -1.3772 15.8601 84.5040 0.0000 0.0000 0.0000
# 4 0.0000 0.0000 0.0000 -16.0675 0.0000 0.0000
# 5 0.0000 0.0000 0.0000 0.0000 10.1099 0.0000
# 6 0.0000 0.0000 0.0000 0.0000 0.0000 32.8158
#
#
#
# Elastic Compliance Matrix: (Units=1/GPa)
#
#
# Indices 1 2 3 4 5 6 
#
# 1 0.027170 -0.000483 0.000534 0.000000 0.000000 0.000000
# 2 -0.000483 0.006882 -0.001300 0.000000 0.000000 0.000000
# 3 0.000534 -0.001300 0.012086 0.000000 0.000000 0.000000
# 4 0.000000 0.000000 0.000000 -0.062237 0.000000 0.000000
# 5 0.000000 0.000000 0.000000 0.000000 0.098913 0.000000
# 6 0.000000 0.000000 0.000000 0.000000 0.000000 0.030473
#
#
# Mechanical properties :
#
#
# Convention : Reuss Voigt Hill
#
# Bulk Modulus (GPa) = 22.91466 33.71751 28.31609
# Shear Modulus (GPa) = 38.36340 22.23975 30.30158
#
# Velocity S-wave (km/s) = 3.98497 3.03411 3.54160
# Velocity P-wave (km/s) = 5.53701 5.12165 5.33338
#
# Compressibility (1/GPa) = 0.04364019
#
# Stress axis : x y z
#
# Youngs Moduli (GPa) = 36.80513 145.29745 82.73784
#
# Poissons Ratio (x) = 0.07022 -0.04414
# Poissons Ratio (y) = 0.01779 0.10753
# Poissons Ratio (z) = -0.01964 0.18883
#
# Static dielectric constant tensor:
#      x y z
#    x 2.010130 0.000000 0.000000 
#    y 0.000000 2.237970 0.000000 
#    z 0.000000 0.000000 1.988770 
# 
# From -- ./inp_files/28627.got.cif
#   From: 2010.05.17/outbox.cif.g08.bks.cpg/sg43_15_cif.got.tgz:28627.got - 2010.06.03 19:21:55.
