data_PCOD9370783
_publ_section_title
;
Structure prediction by ZEFSAII (Michael W. Deem and Ramdas Pophale) SiO2 
 PCOD9370783
Probable space group: F D D 2
;
_chemical_formula_sum "Si O2"
_cell_formula_units_Z 112
_cell_length_a 29.114935
_cell_length_b 13.916449
_cell_length_c 14.155418
_cell_angle_alpha 90.000000
_cell_angle_beta 90.000000
_cell_angle_gamma 90.000000
_cell_volume 5735.442835
_symmetry_space_group_name_H-M "F D D 2"
_symmetry_group_IT_number 43
_symmetry_cell_setting 'orthorhombic'
loop_
_space_group_symop_operation_xyz
x,y,z
-x,-y,z
1/4-x,1/4+y,1/4+z
1/4+x,1/4-y,1/4+z
x,1/2+y,1/2+z
-x,1/2-y,1/2+z
1/4-x,3/4+y,3/4+z
1/4+x,3/4-y,3/4+z
1/2+x,y,1/2+z
1/2-x,-y,1/2+z
3/4-x,1/4+y,3/4+z
3/4+x,1/4-y,3/4+z
1/2+x,1/2+y,z
1/2-x,1/2-y,z
3/4-x,3/4+y,1/4+z
3/4+x,3/4-y,1/4+z
loop_
_atom_site_type_symbol
_atom_site_label
_atom_site_fract_x
_atom_site_fract_y
_atom_site_fract_z
Si Si1 0.340506 0.865826 0.724840
Si Si2 0.299151 0.526724 0.114393
Si Si3 0.828618 0.878703 0.597881
Si Si4 0.806874 0.582894 0.421246
Si Si5 0.250000 0.750000 0.006430
Si Si6 0.119393 0.059300 0.410670
Si Si7 0.537077 0.201025 0.452047
Si Si8 0.750000 0.250000 0.695771
O O1 0.389494 0.819711 0.698457
O O2 0.347620 0.924607 0.820960
O O3 0.295984 0.799041 0.739285
O O4 0.332453 0.938941 0.638800
O O5 0.325179 0.625778 0.134347
O O6 0.259084 0.512355 0.189084
O O7 0.283263 0.521107 0.005381
O O8 0.781174 0.824584 0.566642
O O9 0.857087 0.898617 0.502939
O O10 0.854554 0.801127 0.662943
O O11 0.822669 0.981065 0.648478
O O12 0.785924 0.688567 0.443496
O O13 0.798254 0.562175 0.312148
O O14 0.524249 0.097533 0.405232
#
# Coordination Sequence:
#
# PCOD9370783 Si02
#       8
#    16  16  16  16   8  16  16   8
#     4  10  22  39  65  98 132 177 237 286 337 405
#     4  10  20  40  61  96 133 168 224 290 341 396
#     4  12  24  41  65 100 137 175 227 285 355 416
#     4  11  23  37  67  95 133 176 227 285 343 407
#     4  12  21  40  70 101 122 178 245 290 330 417
#     4  11  22  39  69  98 133 178 226 289 341 413
#     4  11  25  40  65 100 135 176 229 287 343 416
#     4  10  25  40  66  93 138 182 233 282 342 403
#
# _framework density 19.527698999999998
#
# number of rings (size 3 to 8) (size 9 to 14) (size 15 to 20)
#    0.000    1.143    5.714    0.429   10.000    1.143 
#    0.000    0.000    0.000    0.857    0.000    0.000 
#    0.000    0.000    0.000    0.000    0.000    0.000 
#
# Total GULP energy -155868.245688 kJ/mol
# GULP energy per Si atom -5566.723060 kJ/mol
# Density = 1.948325 g / cm^3
# Si number density = 19.527699 Si / 1000 Ang^3
#
#
#
# Elastic Constant Matrix: (Units=GPa)
#
#
# Indices 1 2 3 4 5 6 
#
# 1 72.1132 21.3727 8.1404 0.0000 0.0000 0.0000
# 2 21.3727 112.3608 31.7864 0.0000 0.0000 0.0000
# 3 8.1404 31.7864 85.7828 0.0000 0.0000 0.0000
# 4 0.0000 0.0000 0.0000 35.0479 0.0000 0.0000
# 5 0.0000 0.0000 0.0000 0.0000 24.9512 0.0000
# 6 0.0000 0.0000 0.0000 0.0000 0.0000 39.9260
#
#
#
# Elastic Compliance Matrix: (Units=1/GPa)
#
#
# Indices 1 2 3 4 5 6 
#
# 1 0.014708 -0.002684 -0.000401 0.000000 0.000000 0.000000
# 2 -0.002684 0.010432 -0.003611 0.000000 0.000000 0.000000
# 3 -0.000401 -0.003611 0.013033 0.000000 0.000000 0.000000
# 4 0.000000 0.000000 0.000000 0.028532 0.000000 0.000000
# 5 0.000000 0.000000 0.000000 0.000000 0.040078 0.000000
# 6 0.000000 0.000000 0.000000 0.000000 0.000000 0.025046
#
#
# Mechanical properties :
#
#
# Convention : Reuss Voigt Hill
#
# Bulk Modulus (GPa) = 40.35341 43.65065 42.00203
# Shear Modulus (GPa) = 32.57695 33.91549 33.24622
#
# Velocity S-wave (km/s) = 4.08884 4.17200 4.13063
# Velocity P-wave (km/s) = 6.55752 6.75346 6.65621
#
# Compressibility (1/GPa) = 0.02478105
#
# Stress axis : x y z
#
# Youngs Moduli (GPa) = 67.99064 95.85930 76.72608
#
# Poissons Ratio (x) = 0.25730 0.03078
# Poissons Ratio (y) = 0.18250 0.27704
# Poissons Ratio (z) = 0.02727 0.34613
#
# Static dielectric constant tensor:
#      x y z
#    x 1.775060 0.000000 0.000000 
#    y 0.000000 1.734430 0.000000 
#    z 0.000000 0.000000 1.681040 
# 
# From -- ./inp_files/8329.got.cif
#   From: 2010.05.17/outbox.cif.g08.bks.cpg/sg43_5_cif.got.tgz:8329.got - 2010.06.03 19:21:55.
