data_PCOD9370413
_publ_section_title
;
Structure prediction by ZEFSAII (Michael W. Deem and Ramdas Pophale) SiO2 
 PCOD9370413
Probable space group: F D D 2
;
_chemical_formula_sum "Si O2"
_cell_formula_units_Z 88
_cell_length_a 27.915669
_cell_length_b 11.107278
_cell_length_c 13.034511
_cell_angle_alpha 90.000000
_cell_angle_beta 90.000000
_cell_angle_gamma 90.000000
_cell_volume 4041.572975
_symmetry_space_group_name_H-M "F D D 2"
_symmetry_group_IT_number 43
_symmetry_cell_setting 'orthorhombic'
loop_
_space_group_symop_operation_xyz
x,y,z
-x,-y,z
1/4-x,1/4+y,1/4+z
1/4+x,1/4-y,1/4+z
x,1/2+y,1/2+z
-x,1/2-y,1/2+z
1/4-x,3/4+y,3/4+z
1/4+x,3/4-y,3/4+z
1/2+x,y,1/2+z
1/2-x,-y,1/2+z
3/4-x,1/4+y,3/4+z
3/4+x,1/4-y,3/4+z
1/2+x,1/2+y,z
1/2-x,1/2-y,z
3/4-x,3/4+y,1/4+z
3/4+x,3/4-y,1/4+z
loop_
_atom_site_type_symbol
_atom_site_label
_atom_site_fract_x
_atom_site_fract_y
_atom_site_fract_z
Si Si1 0.184636 0.060434 0.371070
Si Si2 0.694458 0.258349 0.689005
Si Si3 0.350561 0.054650 0.344333
Si Si4 0.087522 0.505537 0.777689
Si Si5 0.980090 0.626810 0.108385
Si Si6 0.750000 0.750000 0.660009
O O1 0.191899 0.157276 0.279601
O O2 0.177443 0.131408 0.476046
O O3 0.135683 0.993077 0.342447
O O4 0.229718 0.975290 0.379104
O O5 0.750000 0.250000 0.656777
O O6 0.656886 0.227933 0.598210
O O7 0.674587 0.379877 0.746545
O O8 0.345918 0.151904 0.435614
O O9 0.320701 0.937267 0.379668
O O10 0.043292 0.551112 0.844335
O O11 0.000000 0.500000 0.151872
O O12 0.979397 0.599928 0.986239
#
# Coordination Sequence:
#
# PCOD9370413 Si02
#       6
#    16  16  16  16  16   8
#     4  10  19  37  63  93 123 158 216 268 322 379
#     4  10  20  39  71  93 124 167 216 277 320 383
#     4  10  21  41  66  93 128 163 222 268 323 386
#     4  10  20  36  68  95 115 164 219 268 319 392
#     4  10  22  39  58  85 139 168 203 266 323 383
#     4  10  22  36  58  92 122 170 206 250 336 374
#
# _framework density 21.773700999999999
#
# number of rings (size 3 to 8) (size 9 to 14) (size 15 to 20)
#    0.545    1.455    1.818    2.182    2.545    1.455 
#    3.273    0.909    0.000    0.000    0.000    0.000 
#    0.000    0.000    0.000    0.000    0.000    0.000 
#
# Total GULP energy -122725.805814 kJ/mol
# GULP energy per Si atom -5578.445719 kJ/mol
# Density = 2.172414 g / cm^3
# Si number density = 21.773701 Si / 1000 Ang^3
#
#
#
# Elastic Constant Matrix: (Units=GPa)
#
#
# Indices 1 2 3 4 5 6 
#
# 1 173.1061 34.6609 8.9353 0.0000 0.0000 0.0000
# 2 34.6609 87.1509 1.2218 0.0000 0.0000 0.0000
# 3 8.9353 1.2218 23.4954 0.0000 0.0000 0.0000
# 4 0.0000 0.0000 0.0000 1.5560 0.0000 0.0000
# 5 0.0000 0.0000 0.0000 0.0000 19.9041 0.0000
# 6 0.0000 0.0000 0.0000 0.0000 0.0000 26.0573
#
#
#
# Elastic Compliance Matrix: (Units=1/GPa)
#
#
# Indices 1 2 3 4 5 6 
#
# 1 0.006399 -0.002513 -0.002303 0.000000 0.000000 0.000000
# 2 -0.002513 0.012469 0.000307 0.000000 0.000000 0.000000
# 3 -0.002303 0.000307 0.043421 0.000000 0.000000 0.000000
# 4 0.000000 0.000000 0.000000 0.642682 0.000000 0.000000
# 5 0.000000 0.000000 0.000000 0.000000 0.050241 0.000000
# 6 0.000000 0.000000 0.000000 0.000000 0.000000 0.038377
#
#
# Mechanical properties :
#
#
# Convention : Reuss Voigt Hill
#
# Bulk Modulus (GPa) = 18.77126 41.48758 30.12942
# Shear Modulus (GPa) = 6.09486 25.43243 15.76365
#
# Velocity S-wave (km/s) = 1.67489 3.42136 2.69360
# Velocity P-wave (km/s) = 3.51854 5.89092 4.85196
#
# Compressibility (1/GPa) = 0.05327294
#
# Stress axis : x y z
#
# Youngs Moduli (GPa) = 156.28038 80.19680 23.03013
#
# Poissons Ratio (x) = 0.20150 0.05303
# Poissons Ratio (y) = 0.39267 -0.00707
# Poissons Ratio (z) = 0.35988 -0.02463
#
# Static dielectric constant tensor:
#      x y z
#    x 1.780010 0.000000 0.000000 
#    y 0.000000 1.819690 0.000000 
#    z 0.000000 0.000000 1.796930 
# 
# From -- ./inp_files/9671.got.cif
#   From: 2010.05.17/outbox.cif.g08.bks.cpg/sg43_5_cif.got.tgz:9671.got - 2010.06.03 19:21:55.
