data_PCOD9370825
_publ_section_title
;
Structure prediction by ZEFSAII (Michael W. Deem and Ramdas Pophale) SiO2 
 PCOD9370825
Probable space group: F D D 2
;
_chemical_formula_sum "Si O2"
_cell_formula_units_Z 96
_cell_length_a 30.391797
_cell_length_b 8.637577
_cell_length_c 17.221299
_cell_angle_alpha 90.000000
_cell_angle_beta 90.000000
_cell_angle_gamma 90.000000
_cell_volume 4520.788804
_symmetry_space_group_name_H-M "F D D 2"
_symmetry_group_IT_number 43
_symmetry_cell_setting 'orthorhombic'
loop_
_space_group_symop_operation_xyz
x,y,z
-x,-y,z
1/4-x,1/4+y,1/4+z
1/4+x,1/4-y,1/4+z
x,1/2+y,1/2+z
-x,1/2-y,1/2+z
1/4-x,3/4+y,3/4+z
1/4+x,3/4-y,3/4+z
1/2+x,y,1/2+z
1/2-x,-y,1/2+z
3/4-x,1/4+y,3/4+z
3/4+x,1/4-y,3/4+z
1/2+x,1/2+y,z
1/2-x,1/2-y,z
3/4-x,3/4+y,1/4+z
3/4+x,3/4-y,1/4+z
loop_
_atom_site_type_symbol
_atom_site_label
_atom_site_fract_x
_atom_site_fract_y
_atom_site_fract_z
Si Si1 0.032863 0.354226 0.259170
Si Si2 0.550050 0.815097 0.440284
Si Si3 0.371346 0.388412 0.508280
Si Si4 0.219519 0.623145 0.046992
Si Si5 0.859917 0.709161 0.933595
Si Si6 0.702984 0.431401 0.697237
O O1 0.048275 0.311848 0.346438
O O2 0.074272 0.415970 0.211057
O O3 0.000000 0.500000 0.262244
O O4 0.001778 0.209279 0.234907
O O5 0.589830 0.711066 0.470731
O O6 0.501783 0.770783 0.475011
O O7 0.553418 0.998530 0.456828
O O8 0.325738 0.296515 0.522052
O O9 0.387377 0.454123 0.590781
O O10 0.352969 0.531884 0.458319
O O11 0.250000 0.750000 0.088224
O O12 0.205773 0.488543 0.107219
O O13 0.907385 0.744247 0.972858
#
# Coordination Sequence:
#
# PCOD9370825 Si02
#       6
#    16  16  16  16  16  16
#     4  11  19  42  70  88 133 180 218 264 331 412
#     4  10  20  40  67  96 126 172 220 268 325 390
#     4  11  25  41  66 100 134 163 222 280 323 402
#     4  10  21  38  63  97 127 173 225 267 326 401
#     4  11  24  43  64  99 132 173 221 268 336 392
#     4   9  20  38  63  91 128 171 215 258 326 403
#
# _framework density 21.235232
#
# number of rings (size 3 to 8) (size 9 to 14) (size 15 to 20)
#    0.000    1.667    5.000    1.000   11.667    0.000 
#    3.000    0.000    3.667    0.000    0.000    0.000 
#    0.000    0.000    0.000    0.000    0.000    0.000 
#
# Total GULP energy -133606.904835 kJ/mol
# GULP energy per Si atom -5566.954368 kJ/mol
# Density = 2.118690 g / cm^3
# Si number density = 21.235232 Si / 1000 Ang^3
#
#
#
# Elastic Constant Matrix: (Units=GPa)
#
#
# Indices 1 2 3 4 5 6 
#
# 1 180.6023 33.4509 36.0134 0.0000 0.0000 0.0000
# 2 33.4509 43.1211 10.4114 0.0000 0.0000 0.0000
# 3 36.0134 10.4114 45.3504 0.0000 0.0000 0.0000
# 4 0.0000 0.0000 0.0000 14.0637 0.0000 0.0000
# 5 0.0000 0.0000 0.0000 0.0000 22.1496 0.0000
# 6 0.0000 0.0000 0.0000 0.0000 0.0000 45.5332
#
#
#
# Elastic Compliance Matrix: (Units=1/GPa)
#
#
# Indices 1 2 3 4 5 6 
#
# 1 0.007330 -0.004532 -0.004780 0.000000 0.000000 0.000000
# 2 -0.004532 0.027353 -0.002681 0.000000 0.000000 0.000000
# 3 -0.004780 -0.002681 0.026462 0.000000 0.000000 0.000000
# 4 0.000000 0.000000 0.000000 0.071105 0.000000 0.000000
# 5 0.000000 0.000000 0.000000 0.000000 0.045148 0.000000
# 6 0.000000 0.000000 0.000000 0.000000 0.000000 0.021962
#
#
# Mechanical properties :
#
#
# Convention : Reuss Voigt Hill
#
# Bulk Modulus (GPa) = 26.91124 47.64723 37.27924
# Shear Modulus (GPa) = 21.21055 28.96249 25.08652
#
# Velocity S-wave (km/s) = 3.16387 3.69709 3.44083
# Velocity P-wave (km/s) = 5.10364 6.38053 5.77747
#
# Compressibility (1/GPa) = 0.03715919
#
# Stress axis : x y z
#
# Youngs Moduli (GPa) = 136.43336 36.55872 37.79002
#
# Poissons Ratio (x) = 0.16567 0.18064
# Poissons Ratio (y) = 0.61828 0.10131
# Poissons Ratio (z) = 0.65217 0.09801
#
# Static dielectric constant tensor:
#      x y z
#    x 1.869880 0.000000 0.000000 
#    y 0.000000 1.854290 0.000000 
#    z 0.000000 0.000000 1.774790 
# 
# From -- ./inp_files/16478.got.cif
#   From: 2010.05.17/outbox.cif.g08.bks.cpg/sg43_9_cif.got.tgz:16478.got - 2010.06.03 19:21:55.
