data_PCOD9370398
_publ_section_title
;
Structure prediction by ZEFSAII (Michael W. Deem and Ramdas Pophale) SiO2 
 PCOD9370398
Probable space group: F D D 2
;
_chemical_formula_sum "Si O2"
_cell_formula_units_Z 96
_cell_length_a 9.694590
_cell_length_b 23.813919
_cell_length_c 22.012245
_cell_angle_alpha 90.000000
_cell_angle_beta 90.000000
_cell_angle_gamma 90.000000
_cell_volume 5081.882938
_symmetry_space_group_name_H-M "F D D 2"
_symmetry_group_IT_number 43
_symmetry_cell_setting 'orthorhombic'
loop_
_space_group_symop_operation_xyz
x,y,z
-x,-y,z
1/4-x,1/4+y,1/4+z
1/4+x,1/4-y,1/4+z
x,1/2+y,1/2+z
-x,1/2-y,1/2+z
1/4-x,3/4+y,3/4+z
1/4+x,3/4-y,3/4+z
1/2+x,y,1/2+z
1/2-x,-y,1/2+z
3/4-x,1/4+y,3/4+z
3/4+x,1/4-y,3/4+z
1/2+x,1/2+y,z
1/2-x,1/2-y,z
3/4-x,3/4+y,1/4+z
3/4+x,3/4-y,1/4+z
loop_
_atom_site_type_symbol
_atom_site_label
_atom_site_fract_x
_atom_site_fract_y
_atom_site_fract_z
Si Si1 0.359398 0.300730 0.762870
Si Si2 0.136294 0.035710 0.929136
Si Si3 0.386047 0.286343 0.581440
Si Si4 0.667420 0.608989 0.659612
Si Si5 0.633861 0.415373 0.651689
Si Si6 0.407971 0.761088 0.939836
O O1 0.250000 0.250000 0.765220
O O2 0.506104 0.281708 0.734779
O O3 0.308582 0.348660 0.715809
O O4 0.383122 0.325440 0.829388
O O5 0.231274 0.018991 0.871186
O O6 0.093008 0.100576 0.919221
O O7 0.000000 0.000000 0.936110
O O8 0.250000 0.250000 0.597402
O O9 0.355830 0.350234 0.602241
O O10 0.413135 0.278795 0.510593
O O11 0.525046 0.575533 0.671933
O O12 0.784183 0.563363 0.651944
O O13 0.744723 0.457445 0.679652
O O14 0.250000 0.750000 0.924165
#
# Coordination Sequence:
#
# PCOD9370398 Si02
#       6
#    16  16  16  16  16  16
#     4  10  20  37  60  84 114 155 192 225 278 343
#     4  10  22  38  60  88 113 147 191 237 285 328
#     4   9  20  38  58  82 112 151 192 228 280 342
#     4  10  19  37  59  82 112 154 193 228 275 343
#     4  10  22  38  57  83 115 152 190 229 284 343
#     4  11  23  36  56  87 115 145 190 241 287 325
#
# _framework density 18.890636000000001
#
# number of rings (size 3 to 8) (size 9 to 14) (size 15 to 20)
#    0.000    2.333    0.000    5.500    0.000    7.333 
#    0.000    5.000    0.000    0.000    0.000    0.000 
#    0.000    0.000    0.000    0.000    0.000    0.000 
#
# Total GULP energy -133944.824321 kJ/mol
# GULP energy per Si atom -5581.034347 kJ/mol
# Density = 1.884764 g / cm^3
# Si number density = 18.890636 Si / 1000 Ang^3
#
#
#
# Elastic Constant Matrix: (Units=GPa)
#
#
# Indices 1 2 3 4 5 6 
#
# 1 135.1196 94.0611 37.1495 0.0000 0.0000 0.0000
# 2 94.0611 106.9092 48.0124 0.0000 0.0000 0.0000
# 3 37.1495 48.0124 75.3476 0.0000 0.0000 0.0000
# 4 0.0000 0.0000 0.0000 0.8713 0.0000 0.0000
# 5 0.0000 0.0000 0.0000 0.0000 0.8967 0.0000
# 6 0.0000 0.0000 0.0000 0.0000 0.0000 45.9776
#
#
#
# Elastic Compliance Matrix: (Units=1/GPa)
#
#
# Indices 1 2 3 4 5 6 
#
# 1 0.019275 -0.017778 0.001825 0.000000 0.000000 0.000000
# 2 -0.017778 0.029501 -0.010033 0.000000 0.000000 0.000000
# 3 0.001825 -0.010033 0.018765 0.000000 0.000000 0.000000
# 4 0.000000 0.000000 0.000000 1.147684 0.000000 0.000000
# 5 0.000000 0.000000 0.000000 0.000000 1.115164 0.000000
# 6 0.000000 0.000000 0.000000 0.000000 0.000000 0.021750
#
#
# Mechanical properties :
#
#
# Convention : Reuss Voigt Hill
#
# Bulk Modulus (GPa) = 64.23037 75.09138 69.66088
# Shear Modulus (GPa) = 2.07529 18.75936 10.41732
#
# Velocity S-wave (km/s) = 1.04927 3.15469 2.35085
# Velocity P-wave (km/s) = 5.96179 7.28741 6.65767
#
# Compressibility (1/GPa) = 0.01556896
#
# Stress axis : x y z
#
# Youngs Moduli (GPa) = 51.88025 33.89667 53.29009
#
# Poissons Ratio (x) = 0.60263 -0.09726
# Poissons Ratio (y) = 0.92235 0.53467
# Poissons Ratio (z) = -0.09469 0.34009
#
# Static dielectric constant tensor:
#      x y z
#    x 1.655840 0.000000 0.000000 
#    y 0.000000 1.660570 0.000000 
#    z 0.000000 0.000000 1.663530 
# 
# From -- ./inp_files/18821.got.cif
#   From: 2010.05.17/outbox.cif.g08.bks.cpg/sg43_10_cif.got.tgz:18821.got - 2010.06.03 19:21:55.
