data_PCOD9370249
_publ_section_title
;
Structure prediction by ZEFSAII (Michael W. Deem and Ramdas Pophale) SiO2 
 PCOD9370249
Probable space group: F D D 2
;
_chemical_formula_sum "Si O2"
_cell_formula_units_Z 72
_cell_length_a 7.724335
_cell_length_b 22.269529
_cell_length_c 18.338342
_cell_angle_alpha 90.000000
_cell_angle_beta 90.000000
_cell_angle_gamma 90.000000
_cell_volume 3154.512119
_symmetry_space_group_name_H-M "F D D 2"
_symmetry_group_IT_number 43
_symmetry_cell_setting 'orthorhombic'
loop_
_space_group_symop_operation_xyz
x,y,z
-x,-y,z
1/4-x,1/4+y,1/4+z
1/4+x,1/4-y,1/4+z
x,1/2+y,1/2+z
-x,1/2-y,1/2+z
1/4-x,3/4+y,3/4+z
1/4+x,3/4-y,3/4+z
1/2+x,y,1/2+z
1/2-x,-y,1/2+z
3/4-x,1/4+y,3/4+z
3/4+x,1/4-y,3/4+z
1/2+x,1/2+y,z
1/2-x,1/2-y,z
3/4-x,3/4+y,1/4+z
3/4+x,3/4-y,1/4+z
loop_
_atom_site_type_symbol
_atom_site_label
_atom_site_fract_x
_atom_site_fract_y
_atom_site_fract_z
Si Si1 0.933602 0.867672 0.494440
Si Si2 0.515089 0.070808 0.611867
Si Si3 0.798189 0.408688 0.747587
Si Si4 0.500000 0.500000 0.449987
Si Si5 0.182132 0.519772 0.340390
O O1 0.898697 0.845997 0.410239
O O2 0.747530 0.845791 0.524375
O O3 0.067230 0.831151 0.543881
O O4 0.958162 0.938977 0.493916
O O5 0.534262 0.100812 0.533781
O O6 0.679437 0.089340 0.661455
O O7 0.500000 0.000000 0.608751
O O8 0.720675 0.468711 0.779868
O O9 0.333836 0.515156 0.399649
O O10 0.000000 0.500000 0.374117
#
# Coordination Sequence:
#
# PCOD9370249 Si02
#       5
#    16  16  16   8  16
#     4  10  20  41  70  95 137 193 229 303 370 436
#     4  10  18  37  72  95 137 190 231 294 377 430
#     4  10  19  41  69  97 133 191 235 295 378 429
#     4  12  22  48  70  98 150 182 246 312 374 434
#     4  12  22  43  71 100 140 192 239 301 384 444
#
# _framework density 22.824448
#
# number of rings (size 3 to 8) (size 9 to 14) (size 15 to 20)
#    1.333    0.000    6.667    0.000    0.000    0.000 
#   12.000    1.111    4.889    0.000    0.000    0.000 
#    0.000    0.000    0.000    0.000    0.000    0.000 
#
# Total GULP energy -100387.788011 kJ/mol
# GULP energy per Si atom -5577.099334 kJ/mol
# Density = 2.277250 g / cm^3
# Si number density = 22.824448 Si / 1000 Ang^3
#
#
#
# Elastic Constant Matrix: (Units=GPa)
#
#
# Indices 1 2 3 4 5 6 
#
# 1 75.2792 8.8829 5.5137 0.0000 0.0000 0.0000
# 2 8.8829 180.9811 43.1826 0.0000 0.0000 0.0000
# 3 5.5137 43.1826 57.4824 0.0000 0.0000 0.0000
# 4 0.0000 0.0000 0.0000 33.8436 0.0000 0.0000
# 5 0.0000 0.0000 0.0000 0.0000 -29.2590 0.0000
# 6 0.0000 0.0000 0.0000 0.0000 0.0000 22.2968
#
#
#
# Elastic Compliance Matrix: (Units=1/GPa)
#
#
# Indices 1 2 3 4 5 6 
#
# 1 0.013405 -0.000428 -0.000964 0.000000 0.000000 0.000000
# 2 -0.000428 0.006746 -0.005027 0.000000 0.000000 0.000000
# 3 -0.000964 -0.005027 0.021265 0.000000 0.000000 0.000000
# 4 0.000000 0.000000 0.000000 0.029548 0.000000 0.000000
# 5 0.000000 0.000000 0.000000 0.000000 -0.034178 0.000000
# 6 0.000000 0.000000 0.000000 0.000000 0.000000 0.044850
#
#
# Mechanical properties :
#
#
# Convention : Reuss Voigt Hill
#
# Bulk Modulus (GPa) = 34.99148 47.65567 41.32357
# Shear Modulus (GPa) = 48.07706 22.45383 35.26545
#
# Velocity S-wave (km/s) = 4.59452 3.13990 3.93501
# Velocity P-wave (km/s) = 6.59622 5.83694 6.22816
#
# Compressibility (1/GPa) = 0.02857839
#
# Stress axis : x y z
#
# Youngs Moduli (GPa) = 74.59903 148.24029 47.02501
#
# Poissons Ratio (x) = 0.06342 0.04535
# Poissons Ratio (y) = 0.03192 0.23638
# Poissons Ratio (z) = 0.07194 0.74515
#
# Static dielectric constant tensor:
#      x y z
#    x 2.035750 0.000000 0.000000 
#    y 0.000000 1.835600 0.000000 
#    z 0.000000 0.000000 1.852280 
# 
# From -- ./inp_files/16289.got.cif
#   From: 2010.05.17/outbox.cif.g08.bks.cpg/sg43_9_cif.got.tgz:16289.got - 2010.06.03 19:21:55.
