data_PCOD9370645
_publ_section_title
;
Structure prediction by ZEFSAII (Michael W. Deem and Ramdas Pophale) SiO2 
 PCOD9370645
Probable space group: F D D 2
;
_chemical_formula_sum "Si O2"
_cell_formula_units_Z 112
_cell_length_a 16.088097
_cell_length_b 10.893681
_cell_length_c 30.209267
_cell_angle_alpha 90.000000
_cell_angle_beta 90.000000
_cell_angle_gamma 90.000000
_cell_volume 5294.433739
_symmetry_space_group_name_H-M "F D D 2"
_symmetry_group_IT_number 43
_symmetry_cell_setting 'orthorhombic'
loop_
_space_group_symop_operation_xyz
x,y,z
-x,-y,z
1/4-x,1/4+y,1/4+z
1/4+x,1/4-y,1/4+z
x,1/2+y,1/2+z
-x,1/2-y,1/2+z
1/4-x,3/4+y,3/4+z
1/4+x,3/4-y,3/4+z
1/2+x,y,1/2+z
1/2-x,-y,1/2+z
3/4-x,1/4+y,3/4+z
3/4+x,1/4-y,3/4+z
1/2+x,1/2+y,z
1/2-x,1/2-y,z
3/4-x,3/4+y,1/4+z
3/4+x,3/4-y,1/4+z
loop_
_atom_site_type_symbol
_atom_site_label
_atom_site_fract_x
_atom_site_fract_y
_atom_site_fract_z
Si Si1 0.500000 0.000000 0.316131
Si Si2 0.187736 0.994986 0.099018
Si Si3 0.920216 0.222750 0.512755
Si Si4 0.336993 0.396651 0.277774
Si Si5 0.356555 0.349880 0.596850
Si Si6 0.652932 0.721854 0.693009
Si Si7 0.000000 0.000000 0.566012
Si Si8 0.845863 0.768326 0.443410
O O1 0.517860 0.876258 0.343154
O O2 0.416759 0.990952 0.286958
O O3 0.122207 0.963139 0.059164
O O4 0.262384 0.896298 0.095988
O O5 0.146471 0.990598 0.147510
O O6 0.896877 0.161938 0.465487
O O7 0.988024 0.332204 0.518140
O O8 0.968126 0.110172 0.535900
O O9 0.370751 0.511230 0.306733
O O10 0.377130 0.416633 0.229442
O O11 0.376588 0.284044 0.642739
O O12 0.420581 0.461488 0.593907
O O13 0.750000 0.750000 0.692364
O O14 0.610649 0.843768 0.713353
O O15 0.750000 0.750000 0.433210
#
# Coordination Sequence:
#
# PCOD9370645 Si02
#       8
#     8  16  16  16  16  16   8  16
#     4  12  30  43  68  98 154 194 226 293 372 444
#     4  12  25  46  68 104 148 188 236 295 368 438
#     4  11  23  43  68  99 137 185 231 295 359 426
#     4  11  23  43  77 106 136 182 249 302 361 425
#     4  11  20  39  72 104 132 178 237 300 355 420
#     4  12  20  41  69 104 135 175 239 295 353 428
#     4  10  20  37  66  94 126 182 234 277 342 434
#     4  12  26  41  73 111 144 185 240 309 366 437
#
# _framework density 21.154291000000001
#
# number of rings (size 3 to 8) (size 9 to 14) (size 15 to 20)
#    0.000    0.571    6.429    2.143    4.000    0.571 
#    0.000    2.857    0.000    0.000    0.000    0.000 
#    0.000    0.000    0.000    0.000    0.000    0.000 
#
# Total GULP energy -156236.306703 kJ/mol
# GULP energy per Si atom -5579.868097 kJ/mol
# Density = 2.110614 g / cm^3
# Si number density = 21.154291 Si / 1000 Ang^3
#
#
#
# Elastic Constant Matrix: (Units=GPa)
#
#
# Indices 1 2 3 4 5 6 
#
# 1 129.7756 15.9527 35.3458 0.0000 0.0000 0.0000
# 2 15.9527 70.1731 21.3127 0.0000 0.0000 0.0000
# 3 35.3458 21.3127 113.5515 0.0000 0.0000 0.0000
# 4 0.0000 0.0000 0.0000 -6.1608 0.0000 0.0000
# 5 0.0000 0.0000 0.0000 0.0000 19.2159 0.0000
# 6 0.0000 0.0000 0.0000 0.0000 0.0000 43.6244
#
#
#
# Elastic Compliance Matrix: (Units=1/GPa)
#
#
# Indices 1 2 3 4 5 6 
#
# 1 0.008513 -0.001199 -0.002425 0.000000 0.000000 0.000000
# 2 -0.001199 0.015281 -0.002495 0.000000 0.000000 0.000000
# 3 -0.002425 -0.002495 0.010030 0.000000 0.000000 0.000000
# 4 0.000000 0.000000 0.000000 -0.162315 0.000000 0.000000
# 5 0.000000 0.000000 0.000000 0.000000 0.052040 0.000000
# 6 0.000000 0.000000 0.000000 0.000000 0.000000 0.022923
#
#
# Mechanical properties :
#
#
# Convention : Reuss Voigt Hill
#
# Bulk Modulus (GPa) = 46.32559 50.96918 48.64738
# Shear Modulus (GPa) = -146.64764 27.39515 -59.62625
#
# Velocity S-wave (km/s) = -8.33507 3.60254 -5.31484
# Velocity P-wave (km/s) = 8.40742 6.43822 3.82322
#
# Compressibility (1/GPa) = 0.02158634
#
# Stress axis : x y z
#
# Youngs Moduli (GPa) = 117.46105 65.44175 99.70396
#
# Poissons Ratio (x) = 0.07846 0.24178
# Poissons Ratio (y) = 0.14082 0.24875
# Poissons Ratio (z) = 0.28484 0.16327
#
# Static dielectric constant tensor:
#      x y z
#    x 1.742820 0.000000 0.000000 
#    y 0.000000 1.896020 0.000000 
#    z 0.000000 0.000000 1.789700 
# 
# From -- ./inp_files/29107.got.cif
#   From: 2010.05.17/outbox.cif.g08.bks.cpg/sg43_15_cif.got.tgz:29107.got - 2010.06.03 19:21:55.
