data_PCOD9370034
_publ_section_title
;
Structure prediction by ZEFSAII (Michael W. Deem and Ramdas Pophale) SiO2 
 PCOD9370034
Probable space group: F D D 2
;
_chemical_formula_sum "Si O2"
_cell_formula_units_Z 120
_cell_length_a 10.608995
_cell_length_b 31.603666
_cell_length_c 18.408716
_cell_angle_alpha 90.000000
_cell_angle_beta 90.000000
_cell_angle_gamma 90.000000
_cell_volume 6172.132004
_symmetry_space_group_name_H-M "F D D 2"
_symmetry_group_IT_number 43
_symmetry_cell_setting 'orthorhombic'
loop_
_space_group_symop_operation_xyz
x,y,z
-x,-y,z
1/4-x,1/4+y,1/4+z
1/4+x,1/4-y,1/4+z
x,1/2+y,1/2+z
-x,1/2-y,1/2+z
1/4-x,3/4+y,3/4+z
1/4+x,3/4-y,3/4+z
1/2+x,y,1/2+z
1/2-x,-y,1/2+z
3/4-x,1/4+y,3/4+z
3/4+x,1/4-y,3/4+z
1/2+x,1/2+y,z
1/2-x,1/2-y,z
3/4-x,3/4+y,1/4+z
3/4+x,3/4-y,1/4+z
loop_
_atom_site_type_symbol
_atom_site_label
_atom_site_fract_x
_atom_site_fract_y
_atom_site_fract_z
Si Si1 0.364724 0.384925 0.305610
Si Si2 0.031340 0.560977 0.324091
Si Si3 0.356743 0.714803 0.150172
Si Si4 0.982579 0.295829 0.787584
Si Si5 0.500000 0.000000 0.455873
Si Si6 0.104173 0.764910 0.894499
Si Si7 0.455581 0.255203 0.036580
Si Si8 0.149488 0.110554 0.129176
O O1 0.424727 0.425209 0.347105
O O2 0.443857 0.342153 0.313681
O O3 0.231977 0.378376 0.347398
O O4 0.347552 0.387950 0.217672
O O5 0.909856 0.538788 0.285909
O O6 0.004339 0.609534 0.341980
O O7 0.042484 0.537488 0.402019
O O8 0.150675 0.542219 0.281586
O O9 0.250000 0.750000 0.154577
O O10 0.405725 0.701325 0.229558
O O11 0.476787 0.736852 0.112683
O O12 0.861480 0.271856 0.751109
O O13 0.996792 0.265823 0.856496
O O14 0.250000 0.750000 0.892266
O O15 0.094106 0.811316 0.860001
O O16 0.058584 0.765709 0.977025
#
# Coordination Sequence:
#
# PCOD9370034 Si02
#       8
#    16  16  16  16   8  16  16  16
#     4  12  21  38  66 100 131 161 223 283 329 393
#     4  10  19  37  66  88 130 173 211 269 322 402
#     4  12  24  41  64  94 135 180 217 272 342 409
#     4  12  22  41  64  96 131 166 222 279 335 383
#     4  10  14  34  62  92 116 160 206 258 322 374
#     4  12  24  36  64 101 127 169 225 284 319 389
#     4  10  20  38  59  91 129 174 219 261 333 390
#     4  12  21  36  66 105 128 165 223 280 331 387
#
# _framework density 19.442229999999999
#
# number of rings (size 3 to 8) (size 9 to 14) (size 15 to 20)
#    0.000    0.800   10.000    0.400    0.000    0.000 
#    2.400    1.333    0.000    0.000    0.000    0.000 
#    0.000    0.000    0.000    0.000    0.000    0.000 
#
# Total GULP energy -167204.593798 kJ/mol
# GULP energy per Si atom -5573.486460 kJ/mol
# Density = 1.939798 g / cm^3
# Si number density = 19.442230 Si / 1000 Ang^3
#
#
#
# Elastic Constant Matrix: (Units=GPa)
#
#
# Indices 1 2 3 4 5 6 
#
# 1 42.4011 37.6007 10.6279 0.0000 0.0000 0.0000
# 2 37.6007 163.0110 18.9481 0.0000 0.0000 0.0000
# 3 10.6279 18.9481 71.2446 0.0000 0.0000 0.0000
# 4 0.0000 0.0000 0.0000 -15.5311 0.0000 0.0000
# 5 0.0000 0.0000 0.0000 0.0000 -3.7386 0.0000
# 6 0.0000 0.0000 0.0000 0.0000 0.0000 32.3993
#
#
#
# Elastic Compliance Matrix: (Units=1/GPa)
#
#
# Indices 1 2 3 4 5 6 
#
# 1 0.030156 -0.006638 -0.002733 0.000000 0.000000 0.000000
# 2 -0.006638 0.007792 -0.001082 0.000000 0.000000 0.000000
# 3 -0.002733 -0.001082 0.014732 0.000000 0.000000 0.000000
# 4 0.000000 0.000000 0.000000 -0.064387 0.000000 0.000000
# 5 0.000000 0.000000 0.000000 0.000000 -0.267477 0.000000
# 6 0.000000 0.000000 0.000000 0.000000 0.000000 0.030865
#
#
# Mechanical properties :
#
#
# Convention : Reuss Voigt Hill
#
# Bulk Modulus (GPa) = 31.47351 45.66780 38.57065
# Shear Modulus (GPa) = -23.06038 16.59124 -3.23457
#
# Velocity S-wave (km/s) = -3.44771 2.92440 -1.29124
# Velocity P-wave (km/s) = 0.61188 5.91124 4.20221
#
# Compressibility (1/GPa) = 0.03177275
#
# Stress axis : x y z
#
# Youngs Moduli (GPa) = 33.16083 128.34467 67.88129
#
# Poissons Ratio (x) = 0.85198 0.18552
# Poissons Ratio (y) = 0.22013 0.07345
# Poissons Ratio (z) = 0.09063 0.13886
#
# Static dielectric constant tensor:
#      x y z
#    x 1.751080 0.000000 0.000000 
#    y 0.000000 1.753150 0.000000 
#    z 0.000000 0.000000 1.745930 
# 
# From -- ./inp_files/13551.got.cif
#   From: 2010.05.17/outbox.cif.g08.bks.cpg/sg43_7_cif.got.tgz:13551.got - 2010.06.03 19:21:55.
