data_PCOD9370416
_publ_section_title
;
Structure prediction by ZEFSAII (Michael W. Deem and Ramdas Pophale) SiO2 
 PCOD9370416
Probable space group: F D D 2
;
_chemical_formula_sum "Si O2"
_cell_formula_units_Z 128
_cell_length_a 11.157186
_cell_length_b 21.360071
_cell_length_c 27.424228
_cell_angle_alpha 90.000000
_cell_angle_beta 90.000000
_cell_angle_gamma 90.000000
_cell_volume 6535.694988
_symmetry_space_group_name_H-M "F D D 2"
_symmetry_group_IT_number 43
_symmetry_cell_setting 'orthorhombic'
loop_
_space_group_symop_operation_xyz
x,y,z
-x,-y,z
1/4-x,1/4+y,1/4+z
1/4+x,1/4-y,1/4+z
x,1/2+y,1/2+z
-x,1/2-y,1/2+z
1/4-x,3/4+y,3/4+z
1/4+x,3/4-y,3/4+z
1/2+x,y,1/2+z
1/2-x,-y,1/2+z
3/4-x,1/4+y,3/4+z
3/4+x,1/4-y,3/4+z
1/2+x,1/2+y,z
1/2-x,1/2-y,z
3/4-x,3/4+y,1/4+z
3/4+x,3/4-y,1/4+z
loop_
_atom_site_type_symbol
_atom_site_label
_atom_site_fract_x
_atom_site_fract_y
_atom_site_fract_z
Si Si1 0.033700 0.569702 0.019480
Si Si2 0.943986 0.318672 0.497355
Si Si3 0.065784 0.766292 0.185083
Si Si4 0.630229 0.283344 0.077963
Si Si5 0.518314 0.669117 0.325773
Si Si6 0.128401 0.525932 0.161404
Si Si7 0.304119 0.118472 0.984209
Si Si8 0.340301 0.806506 0.730171
O O1 0.142379 0.597418 0.049776
O O2 0.000000 0.500000 0.037197
O O3 0.083061 0.555261 0.964657
O O4 0.917513 0.612592 0.019762
O O5 0.924499 0.270551 0.453354
O O6 0.812464 0.348872 0.507337
O O7 0.017661 0.286363 0.541257
O O8 0.023518 0.377621 0.480982
O O9 0.100139 0.752668 0.129909
O O10 0.037962 0.702381 0.214779
O O11 0.944358 0.805586 0.190053
O O12 0.750000 0.250000 0.057208
O O13 0.665291 0.355417 0.089688
O O14 0.478033 0.712103 0.370525
O O15 0.596451 0.701326 0.283258
O O16 0.095528 0.590542 0.188252
O O17 0.000000 0.500000 0.143193
O O18 0.250000 0.750000 0.721738
#
# Coordination Sequence:
#
# PCOD9370416 Si02
#       8
#    16  16  16  16  16  16  16  16
#     4   9  18  32  60  93 111 153 207 254 298 356
#     4  10  23  41  59  90 128 166 196 253 326 367
#     4  10  19  37  65  88 117 155 217 254 302 360
#     4  11  23  40  61  91 123 159 210 259 302 373
#     4  10  21  37  60  90 121 154 206 253 301 367
#     4  10  21  38  57  85 126 156 198 247 311 368
#     4  10  19  37  64  83 122 165 199 255 303 374
#     4  10  20  41  63  84 122 161 200 257 308 367
#
# _framework density 19.584757
#
# number of rings (size 3 to 8) (size 9 to 14) (size 15 to 20)
#    0.000    2.000    1.250    3.000    1.750    0.000 
#    6.750    3.125    0.000    0.000    0.000    0.000 
#    0.000    0.000    0.000    0.000    0.000    0.000 
#
# Total GULP energy -178525.810810 kJ/mol
# GULP energy per Si atom -5578.931588 kJ/mol
# Density = 1.954018 g / cm^3
# Si number density = 19.584757 Si / 1000 Ang^3
#
#
#
# Elastic Constant Matrix: (Units=GPa)
#
#
# Indices 1 2 3 4 5 6 
#
# 1 122.5485 17.6347 41.7514 0.0000 0.0000 0.0000
# 2 17.6347 47.4702 14.4729 0.0000 0.0000 0.0000
# 3 41.7514 14.4729 72.1182 0.0000 0.0000 0.0000
# 4 0.0000 0.0000 0.0000 7.4088 0.0000 0.0000
# 5 0.0000 0.0000 0.0000 0.0000 16.2283 0.0000
# 6 0.0000 0.0000 0.0000 0.0000 0.0000 34.9748
#
#
#
# Elastic Compliance Matrix: (Units=1/GPa)
#
#
# Indices 1 2 3 4 5 6 
#
# 1 0.010368 -0.002153 -0.005570 0.000000 0.000000 0.000000
# 2 -0.002153 0.022886 -0.003346 0.000000 0.000000 0.000000
# 3 -0.005570 -0.003346 0.017762 0.000000 0.000000 0.000000
# 4 0.000000 0.000000 0.000000 0.134975 0.000000 0.000000
# 5 0.000000 0.000000 0.000000 0.000000 0.061621 0.000000
# 6 0.000000 0.000000 0.000000 0.000000 0.000000 0.028592
#
#
# Mechanical properties :
#
#
# Convention : Reuss Voigt Hill
#
# Bulk Modulus (GPa) = 34.62978 43.31721 38.97349
# Shear Modulus (GPa) = 16.23545 22.94091 19.58818
#
# Velocity S-wave (km/s) = 2.88233 3.42623 3.16598
# Velocity P-wave (km/s) = 5.36633 6.14963 5.77128
#
# Compressibility (1/GPa) = 0.02887688
#
# Stress axis : x y z
#
# Youngs Moduli (GPa) = 96.45496 43.69496 56.29908
#
# Poissons Ratio (x) = 0.09409 0.31358
# Poissons Ratio (y) = 0.20769 0.18839
# Poissons Ratio (z) = 0.53725 0.14621
#
# Static dielectric constant tensor:
#      x y z
#    x 1.725720 0.000000 0.000000 
#    y 0.000000 1.686070 0.000000 
#    z 0.000000 0.000000 1.681190 
# 
# From -- ./inp_files/25339.got.cif
#   From: 2010.05.17/outbox.cif.g08.bks.cpg/sg43_13_cif.got.tgz:25339.got - 2010.06.03 19:21:55.
