data_PCOD9370220
_publ_section_title
;
Structure prediction by ZEFSAII (Michael W. Deem and Ramdas Pophale) SiO2 
 PCOD9370220
Probable space group: F D D 2
;
_chemical_formula_sum "Si O2"
_cell_formula_units_Z 104
_cell_length_a 26.602737
_cell_length_b 22.977310
_cell_length_c 8.923423
_cell_angle_alpha 90.000000
_cell_angle_beta 90.000000
_cell_angle_gamma 90.000000
_cell_volume 5454.525608
_symmetry_space_group_name_H-M "F D D 2"
_symmetry_group_IT_number 43
_symmetry_cell_setting 'orthorhombic'
loop_
_space_group_symop_operation_xyz
x,y,z
-x,-y,z
1/4-x,1/4+y,1/4+z
1/4+x,1/4-y,1/4+z
x,1/2+y,1/2+z
-x,1/2-y,1/2+z
1/4-x,3/4+y,3/4+z
1/4+x,3/4-y,3/4+z
1/2+x,y,1/2+z
1/2-x,-y,1/2+z
3/4-x,1/4+y,3/4+z
3/4+x,1/4-y,3/4+z
1/2+x,1/2+y,z
1/2-x,1/2-y,z
3/4-x,3/4+y,1/4+z
3/4+x,3/4-y,1/4+z
loop_
_atom_site_type_symbol
_atom_site_label
_atom_site_fract_x
_atom_site_fract_y
_atom_site_fract_z
Si Si1 0.583958 0.903388 0.653290
Si Si2 0.750000 0.750000 0.719689
Si Si3 0.941241 0.349937 0.743685
Si Si4 0.306502 0.462247 0.252613
Si Si5 0.674798 0.776649 0.454837
Si Si6 0.714461 0.128174 0.207566
Si Si7 0.277014 0.977319 0.416685
O O1 0.640675 0.900343 0.593299
O O2 0.554293 0.851532 0.574005
O O3 0.577460 0.893079 0.831769
O O4 0.562316 0.967479 0.618336
O O5 0.704928 0.770767 0.610410
O O6 0.730481 0.689014 0.788429
O O7 0.938220 0.409233 0.646959
O O8 0.944896 0.289758 0.653495
O O9 0.988555 0.355801 0.855798
O O10 0.365166 0.476100 0.231147
O O11 0.278833 0.507973 0.359503
O O12 0.280350 0.463241 0.091548
O O13 0.701767 0.076072 0.319970
#
# Coordination Sequence:
#
# PCOD9370220 Si02
#       7
#    16   8  16  16  16  16  16
#     4  10  18  36  60  82 110 151 199 240 290 343
#     4   8  18  34  62  84 106 154 198 234 290 364
#     4  10  19  33  60  86 111 151 202 237 289 364
#     4  11  21  33  60  87 118 151 189 249 294 355
#     4   9  18  34  60  84 105 151 202 233 280 361
#     4  10  19  35  62  82 114 150 197 243 291 350
#     4  12  20  36  57  90 119 153 197 247 298 354
#
# _framework density 19.066737
#
# number of rings (size 3 to 8) (size 9 to 14) (size 15 to 20)
#    0.000    1.846    4.615    0.000    0.000    0.000 
#    0.000    0.000   57.538    0.000    0.000    0.000 
#    0.000    0.000    0.000    0.000    0.000    0.000 
#
# Total GULP energy -144779.267022 kJ/mol
# GULP energy per Si atom -5568.433347 kJ/mol
# Density = 1.902334 g / cm^3
# Si number density = 19.066737 Si / 1000 Ang^3
#
#
#
# Elastic Constant Matrix: (Units=GPa)
#
#
# Indices 1 2 3 4 5 6 
#
# 1 52.9443 2.9153 21.1668 0.0003 -0.0001 -0.0001
# 2 2.9153 178.4336 32.2555 0.0002 0.0001 0.0001
# 3 21.1668 32.2555 48.6862 -0.0002 0.0002 -0.0002
# 4 0.0003 0.0002 -0.0002 37.6811 -0.0003 -0.0002
# 5 -0.0001 0.0001 0.0002 -0.0003 11.3555 0.0002
# 6 -0.0001 0.0001 -0.0002 -0.0002 0.0002 23.8737
#
#
#
# Elastic Compliance Matrix: (Units=1/GPa)
#
#
# Indices 1 2 3 4 5 6 
#
# 1 0.023280 0.001646 -0.011212 0.000000 0.000000 0.000000
# 2 0.001646 0.006483 -0.005011 0.000000 0.000000 0.000000
# 3 -0.011212 -0.005011 0.028734 0.000000 -0.000001 0.000000
# 4 0.000000 0.000000 0.000000 0.026539 0.000001 0.000000
# 5 0.000000 0.000000 -0.000001 0.000001 0.088063 -0.000001
# 6 0.000000 0.000000 0.000000 0.000000 -0.000001 0.041887
#
#
# Mechanical properties :
#
#
# Convention : Reuss Voigt Hill
#
# Bulk Modulus (GPa) = 34.07858 43.63771 38.85815
# Shear Modulus (GPa) = 19.69126 29.49716 24.59421
#
# Velocity S-wave (km/s) = 3.21714 3.93752 3.59542
# Velocity P-wave (km/s) = 5.63135 6.60368 6.13680
#
# Compressibility (1/GPa) = 0.02934395
#
# Stress axis : x y z
#
# Youngs Moduli (GPa) = 42.95616 154.24284 34.80189
#
# Poissons Ratio (x) = -0.25395 0.39019
# Poissons Ratio (y) = -0.07072 0.17440
# Poissons Ratio (z) = 0.48162 0.77292
#
# Static dielectric constant tensor:
#      x y z
#    x 1.688760 0.000000 0.000000 
#    y 0.000000 1.770900 0.000000 
#    z 0.000000 0.000000 1.645220 
# 
# From -- ./inp_files/3969.got.cif
#   From: 2010.05.17/outbox.cif.g08.bks.cpg/sg43_2_cif.got.tgz:3969.got - 2010.06.03 19:21:55.
