data_PCOD9370774
_publ_section_title
;
Structure prediction by ZEFSAII (Michael W. Deem and Ramdas Pophale) SiO2 
 PCOD9370774
Probable space group: F D D 2
;
_chemical_formula_sum "Si O2"
_cell_formula_units_Z 96
_cell_length_a 21.131546
_cell_length_b 10.175015
_cell_length_c 18.362552
_cell_angle_alpha 90.000000
_cell_angle_beta 90.000000
_cell_angle_gamma 90.000000
_cell_volume 3948.202038
_symmetry_space_group_name_H-M "F D D 2"
_symmetry_group_IT_number 43
_symmetry_cell_setting 'orthorhombic'
loop_
_space_group_symop_operation_xyz
x,y,z
-x,-y,z
1/4-x,1/4+y,1/4+z
1/4+x,1/4-y,1/4+z
x,1/2+y,1/2+z
-x,1/2-y,1/2+z
1/4-x,3/4+y,3/4+z
1/4+x,3/4-y,3/4+z
1/2+x,y,1/2+z
1/2-x,-y,1/2+z
3/4-x,1/4+y,3/4+z
3/4+x,1/4-y,3/4+z
1/2+x,1/2+y,z
1/2-x,1/2-y,z
3/4-x,3/4+y,1/4+z
3/4+x,3/4-y,1/4+z
loop_
_atom_site_type_symbol
_atom_site_label
_atom_site_fract_x
_atom_site_fract_y
_atom_site_fract_z
Si Si1 0.486522 0.361085 0.716900
Si Si2 0.779850 0.037800 0.253779
Si Si3 0.434778 0.683549 0.857533
Si Si4 0.846132 0.730096 0.564846
Si Si5 0.587302 0.426079 0.464990
Si Si6 0.700106 0.346572 0.908390
O O1 0.500000 0.500000 0.676736
O O2 0.522570 0.371733 0.794022
O O3 0.411567 0.341832 0.726440
O O4 0.518457 0.233712 0.680668
O O5 0.706903 0.076289 0.259077
O O6 0.814305 0.177856 0.236016
O O7 0.784804 0.935581 0.187299
O O8 0.827772 0.986071 0.314342
O O9 0.424804 0.836738 0.839034
O O10 0.364297 0.627664 0.865208
O O11 0.823726 0.831442 0.627069
O O12 0.820981 0.736081 0.481984
O O13 0.750000 0.250000 0.870318
#
# Coordination Sequence:
#
# PCOD9370774 Si02
#       6
#    16  16  16  16  16  16
#     4  11  24  44  60  94 136 168 207 266 336 379
#     4   9  19  36  63  99 121 169 218 262 317 376
#     4   9  20  39  65  91 126 164 214 265 317 379
#     4   9  18  34  63  95 127 160 217 267 312 375
#     4  10  21  37  59  93 130 168 216 263 317 386
#     4  10  20  39  72  97 122 170 218 265 312 387
#
# _framework density 24.314864
#
# number of rings (size 3 to 8) (size 9 to 14) (size 15 to 20)
#    0.000    2.333    0.000    3.000    9.333    0.000 
#   12.000    0.000    0.000    0.000    0.000    0.000 
#    0.000    0.000    0.000    0.000    0.000    0.000 
#
# Total GULP energy -134125.631955 kJ/mol
# GULP energy per Si atom -5588.567998 kJ/mol
# Density = 2.425952 g / cm^3
# Si number density = 24.314864 Si / 1000 Ang^3
#
#
#
# Elastic Constant Matrix: (Units=GPa)
#
#
# Indices 1 2 3 4 5 6 
#
# 1 213.0926 54.2770 32.0928 0.0000 0.0000 0.0000
# 2 54.2770 82.6444 0.2535 0.0000 0.0000 0.0000
# 3 32.0928 0.2535 60.7452 0.0000 0.0000 0.0000
# 4 0.0000 0.0000 0.0000 -15.0287 0.0000 0.0000
# 5 0.0000 0.0000 0.0000 0.0000 29.1044 0.0000
# 6 0.0000 0.0000 0.0000 0.0000 0.0000 40.3372
#
#
#
# Elastic Compliance Matrix: (Units=1/GPa)
#
#
# Indices 1 2 3 4 5 6 
#
# 1 0.006224 -0.004078 -0.003271 0.000000 0.000000 0.000000
# 2 -0.004078 0.014772 0.002093 0.000000 0.000000 0.000000
# 3 -0.003271 0.002093 0.018182 0.000000 0.000000 0.000000
# 4 0.000000 0.000000 0.000000 -0.066539 0.000000 0.000000
# 5 0.000000 0.000000 0.000000 0.000000 0.034359 0.000000
# 6 0.000000 0.000000 0.000000 0.000000 0.000000 0.024791
#
#
# Mechanical properties :
#
#
# Convention : Reuss Voigt Hill
#
# Bulk Modulus (GPa) = 34.88588 58.85874 46.87231
# Shear Modulus (GPa) = 96.42090 28.87315 62.64702
#
# Velocity S-wave (km/s) = 6.30406 3.44971 5.08142
# Velocity P-wave (km/s) = 8.20774 6.33457 7.33123
#
# Compressibility (1/GPa) = 0.02866489
#
# Stress axis : x y z
#
# Youngs Moduli (GPa) = 160.66609 67.69737 55.00020
#
# Poissons Ratio (x) = 0.27605 0.17992
# Poissons Ratio (y) = 0.65514 -0.11510
# Poissons Ratio (z) = 0.52558 -0.14167
#
# Static dielectric constant tensor:
#      x y z
#    x 1.939210 0.000000 0.000000 
#    y 0.000000 1.920870 0.000000 
#    z 0.000000 0.000000 2.041620 
# 
# From -- ./inp_files/17146.got.cif
#   From: 2010.05.17/outbox.cif.g08.bks.cpg/sg43_9_cif.got.tgz:17146.got - 2010.06.03 19:21:55.
