data_PCOD9370343
_publ_section_title
;
Structure prediction by ZEFSAII (Michael W. Deem and Ramdas Pophale) SiO2 
 PCOD9370343
Probable space group: F D D 2
;
_chemical_formula_sum "Si O2"
_cell_formula_units_Z 104
_cell_length_a 16.019935
_cell_length_b 12.457402
_cell_length_c 26.662483
_cell_angle_alpha 90.000000
_cell_angle_beta 90.000000
_cell_angle_gamma 90.000000
_cell_volume 5320.945621
_symmetry_space_group_name_H-M "F D D 2"
_symmetry_group_IT_number 43
_symmetry_cell_setting 'orthorhombic'
loop_
_space_group_symop_operation_xyz
x,y,z
-x,-y,z
1/4-x,1/4+y,1/4+z
1/4+x,1/4-y,1/4+z
x,1/2+y,1/2+z
-x,1/2-y,1/2+z
1/4-x,3/4+y,3/4+z
1/4+x,3/4-y,3/4+z
1/2+x,y,1/2+z
1/2-x,-y,1/2+z
3/4-x,1/4+y,3/4+z
3/4+x,1/4-y,3/4+z
1/2+x,1/2+y,z
1/2-x,1/2-y,z
3/4-x,3/4+y,1/4+z
3/4+x,3/4-y,1/4+z
loop_
_atom_site_type_symbol
_atom_site_label
_atom_site_fract_x
_atom_site_fract_y
_atom_site_fract_z
Si Si1 0.354575 0.406710 0.721990
Si Si2 0.632030 0.074493 0.003369
Si Si3 0.750000 0.750000 0.038579
Si Si4 0.297848 0.634687 0.041879
Si Si5 0.812399 0.467727 0.720124
Si Si6 0.479559 0.188433 0.359813
Si Si7 0.155072 0.788618 0.362864
O O1 0.339216 0.286400 0.739870
O O2 0.432984 0.446313 0.752877
O O3 0.280237 0.490002 0.732872
O O4 0.376492 0.401529 0.663107
O O5 0.732132 0.069992 0.006714
O O6 0.602345 0.101528 0.060282
O O7 0.610383 0.168923 0.965866
O O8 0.791138 0.841488 0.073070
O O9 0.250000 0.750000 0.051335
O O10 0.302757 0.554503 0.089363
O O11 0.383831 0.654873 0.011909
O O12 0.803595 0.415943 0.665503
O O13 0.581469 0.198854 0.358951
O O14 0.250000 0.750000 0.368336
#
# Coordination Sequence:
#
# PCOD9370343 Si02
#       7
#    16  16   8  16  16  16  16
#     4  11  21  37  63  91 119 168 209 261 307 378
#     4  10  20  38  62  88 126 153 207 268 314 367
#     4  12  22  44  58  88 128 172 204 252 316 380
#     4   9  19  40  63  87 126 163 200 266 315 371
#     4  10  22  39  61  95 120 162 212 258 319 374
#     4  10  23  41  62  88 131 168 203 259 320 374
#     4  10  19  34  59  92 114 151 209 260 309 359
#
# _framework density 19.545399
#
# number of rings (size 3 to 8) (size 9 to 14) (size 15 to 20)
#    0.000    1.846    3.846    1.385    0.000    4.923 
#    8.308    4.615    0.000    0.000    0.000    0.000 
#    0.000    0.000    0.000    0.000    0.000    0.000 
#
# Total GULP energy -144811.203208 kJ/mol
# GULP energy per Si atom -5569.661662 kJ/mol
# Density = 1.950091 g / cm^3
# Si number density = 19.545399 Si / 1000 Ang^3
#
#
#
# Elastic Constant Matrix: (Units=GPa)
#
#
# Indices 1 2 3 4 5 6 
#
# 1 82.6527 10.1863 18.6376 0.0000 0.0000 0.0000
# 2 10.1863 61.1658 23.9456 0.0000 0.0000 0.0000
# 3 18.6376 23.9456 64.3134 0.0000 0.0000 0.0000
# 4 0.0000 0.0000 0.0000 15.5679 0.0000 0.0000
# 5 0.0000 0.0000 0.0000 0.0000 29.3357 0.0000
# 6 0.0000 0.0000 0.0000 0.0000 0.0000 15.5767
#
#
#
# Elastic Compliance Matrix: (Units=1/GPa)
#
#
# Indices 1 2 3 4 5 6 
#
# 1 0.012979 -0.000807 -0.003461 0.000000 0.000000 0.000000
# 2 -0.000807 0.019189 -0.006911 0.000000 0.000000 0.000000
# 3 -0.003461 -0.006911 0.019125 0.000000 0.000000 0.000000
# 4 0.000000 0.000000 0.000000 0.064235 0.000000 0.000000
# 5 0.000000 0.000000 0.000000 0.000000 0.034088 0.000000
# 6 0.000000 0.000000 0.000000 0.000000 0.000000 0.064199
#
#
# Mechanical properties :
#
#
# Convention : Reuss Voigt Hill
#
# Bulk Modulus (GPa) = 34.55904 34.85233 34.70569
# Shear Modulus (GPa) = 20.34048 22.45355 21.39701
#
# Velocity S-wave (km/s) = 3.22945 3.39306 3.31227
# Velocity P-wave (km/s) = 5.62367 5.76373 5.69413
#
# Compressibility (1/GPa) = 0.02893599
#
# Stress axis : x y z
#
# Youngs Moduli (GPa) = 77.04985 52.11371 52.28796
#
# Poissons Ratio (x) = 0.04203 0.18096
# Poissons Ratio (y) = 0.06214 0.36135
# Poissons Ratio (z) = 0.26666 0.36015
#
# Static dielectric constant tensor:
#      x y z
#    x 1.720660 0.000000 0.000000 
#    y 0.000000 1.686590 0.000000 
#    z 0.000000 0.000000 1.697070 
# 
# From -- ./inp_files/26004.got.cif
#   From: 2010.05.17/outbox.cif.g08.bks.cpg/sg43_14_cif.got.tgz:26004.got - 2010.06.03 19:21:55.
