data_PCOD9370333
_publ_section_title
;
Structure prediction by ZEFSAII (Michael W. Deem and Ramdas Pophale) SiO2 
 PCOD9370333
Probable space group: F D D 2
;
_chemical_formula_sum "Si O2"
_cell_formula_units_Z 64
_cell_length_a 5.507323
_cell_length_b 19.172293
_cell_length_c 25.949410
_cell_angle_alpha 90.000000
_cell_angle_beta 90.000000
_cell_angle_gamma 90.000000
_cell_volume 2739.946568
_symmetry_space_group_name_H-M "F D D 2"
_symmetry_group_IT_number 43
_symmetry_cell_setting 'orthorhombic'
loop_
_space_group_symop_operation_xyz
x,y,z
-x,-y,z
1/4-x,1/4+y,1/4+z
1/4+x,1/4-y,1/4+z
x,1/2+y,1/2+z
-x,1/2-y,1/2+z
1/4-x,3/4+y,3/4+z
1/4+x,3/4-y,3/4+z
1/2+x,y,1/2+z
1/2-x,-y,1/2+z
3/4-x,1/4+y,3/4+z
3/4+x,1/4-y,3/4+z
1/2+x,1/2+y,z
1/2-x,1/2-y,z
3/4-x,3/4+y,1/4+z
3/4+x,3/4-y,1/4+z
loop_
_atom_site_type_symbol
_atom_site_label
_atom_site_fract_x
_atom_site_fract_y
_atom_site_fract_z
Si Si1 0.000000 0.500000 0.151091
Si Si2 0.542621 0.116682 0.062041
Si Si3 0.250000 0.250000 0.398727
Si Si4 0.454571 0.353864 0.091403
Si Si5 0.500000 0.500000 0.925326
Si Si6 0.750000 0.750000 0.730781
O O1 0.009553 0.567316 0.113043
O O2 0.252695 0.500380 0.180352
O O3 0.278174 0.150365 0.054235
O O4 0.777955 0.164251 0.070868
O O5 0.590440 0.063921 0.015706
O O6 0.260978 0.183466 0.360997
O O7 0.366468 0.309560 0.139833
O O8 0.747681 0.524674 0.953873
#
# Coordination Sequence:
#
# PCOD9370333 Si02
#       6
#     8  16   8  16   8   8
#     4   7  12  22  44  74  89 116 185 246 250 290
#     4   9  17  33  56  76 107 160 210 234 280 383
#     4   8  14  27  48  70  99 142 193 228 266 350
#     4  10  19  34  56  86 117 157 206 252 302 378
#     4  12  24  35  56  98 136 150 193 292 353 344
#     4  11  22  38  60  92 126 162 209 270 325 378
#
# _framework density 23.358121000000001
#
# number of rings (size 3 to 8) (size 9 to 14) (size 15 to 20)
#    0.000    2.500    0.000    4.500    0.000    2.000 
#    0.000    0.000    0.000    6.000    0.000    3.500 
#    0.000    0.000    0.000    0.000    0.000    0.000 
#
# Total GULP energy -89109.030612 kJ/mol
# GULP energy per Si atom -5569.314413 kJ/mol
# Density = 2.330496 g / cm^3
# Si number density = 23.358121 Si / 1000 Ang^3
#
#
#
# Elastic Constant Matrix: (Units=GPa)
#
#
# Indices 1 2 3 4 5 6 
#
# 1 304.4242 24.8258 32.2964 0.0000 0.0000 0.0000
# 2 24.8258 60.1255 21.0204 0.0000 0.0000 0.0000
# 3 32.2964 21.0204 32.1014 0.0000 0.0000 0.0000
# 4 0.0000 0.0000 0.0000 14.0849 0.0000 0.0000
# 5 0.0000 0.0000 0.0000 0.0000 32.9578 0.0000
# 6 0.0000 0.0000 0.0000 0.0000 0.0000 18.1380
#
#
#
# Elastic Compliance Matrix: (Units=1/GPa)
#
#
# Indices 1 2 3 4 5 6 
#
# 1 0.003681 -0.000292 -0.003512 0.000000 0.000000 0.000000
# 2 -0.000292 0.021593 -0.013846 0.000000 0.000000 0.000000
# 3 -0.003512 -0.013846 0.043751 0.000000 0.000000 0.000000
# 4 0.000000 0.000000 0.000000 0.070998 0.000000 0.000000
# 5 0.000000 0.000000 0.000000 0.000000 0.030342 0.000000
# 6 0.000000 0.000000 0.000000 0.000000 0.000000 0.055133
#
#
# Mechanical properties :
#
#
# Convention : Reuss Voigt Hill
#
# Bulk Modulus (GPa) = 29.65115 61.43738 45.54426
# Shear Modulus (GPa) = 18.37965 34.27005 26.32485
#
# Velocity S-wave (km/s) = 2.80815 3.83451 3.36074
# Velocity P-wave (km/s) = 4.82037 6.77968 5.88218
#
# Compressibility (1/GPa) = 0.03372551
#
# Stress axis : x y z
#
# Youngs Moduli (GPa) = 271.63997 46.31134 22.85647
#
# Poissons Ratio (x) = 0.01352 0.08028
# Poissons Ratio (y) = 0.07933 0.31646
# Poissons Ratio (z) = 0.95413 0.64121
#
# Static dielectric constant tensor:
#      x y z
#    x 2.088590 0.000000 0.000000 
#    y 0.000000 1.857230 0.000000 
#    z 0.000000 0.000000 1.866650 
# 
# From -- ./inp_files/15595.got.cif
#   From: 2010.05.17/outbox.cif.g08.bks.cpg/sg43_8_cif.got.tgz:15595.got - 2010.06.03 19:21:55.
