data_PCOD9370831
_publ_section_title
;
Structure prediction by ZEFSAII (Michael W. Deem and Ramdas Pophale) SiO2 
 PCOD9370831
Probable space group: F D D 2
;
_chemical_formula_sum "Si O2"
_cell_formula_units_Z 104
_cell_length_a 27.720835
_cell_length_b 22.166264
_cell_length_c 7.067110
_cell_angle_alpha 90.000000
_cell_angle_beta 90.000000
_cell_angle_gamma 90.000000
_cell_volume 4342.508332
_symmetry_space_group_name_H-M "F D D 2"
_symmetry_group_IT_number 43
_symmetry_cell_setting 'orthorhombic'
loop_
_space_group_symop_operation_xyz
x,y,z
-x,-y,z
1/4-x,1/4+y,1/4+z
1/4+x,1/4-y,1/4+z
x,1/2+y,1/2+z
-x,1/2-y,1/2+z
1/4-x,3/4+y,3/4+z
1/4+x,3/4-y,3/4+z
1/2+x,y,1/2+z
1/2-x,-y,1/2+z
3/4-x,1/4+y,3/4+z
3/4+x,1/4-y,3/4+z
1/2+x,1/2+y,z
1/2-x,1/2-y,z
3/4-x,3/4+y,1/4+z
3/4+x,3/4-y,1/4+z
loop_
_atom_site_type_symbol
_atom_site_label
_atom_site_fract_x
_atom_site_fract_y
_atom_site_fract_z
Si Si1 0.922734 0.692720 0.795800
Si Si2 0.993102 0.631227 0.080296
Si Si3 0.250000 0.750000 0.514093
Si Si4 0.258750 0.909377 0.758009
Si Si5 0.098138 0.178485 0.950670
Si Si6 0.399896 0.847380 0.015292
Si Si7 0.923161 0.050364 0.002483
O O1 0.961097 0.707382 0.629526
O O2 0.906696 0.750349 0.911953
O O3 0.877189 0.658744 0.706155
O O4 0.950913 0.648974 0.939538
O O5 0.043335 0.650633 0.982962
O O6 0.995873 0.560504 0.139171
O O7 0.987095 0.665364 0.281400
O O8 0.297407 0.746999 0.650045
O O9 0.202007 0.908584 0.793053
O O10 0.284582 0.846381 0.811697
O O11 0.103728 0.152291 0.742429
O O12 0.142853 0.167727 0.085370
O O13 0.366950 0.795486 0.917229
#
# Coordination Sequence:
#
# PCOD9370831 Si02
#       7
#    16  16   8  16  16  16  16
#     4  11  23  39  63  93 127 169 219 267 324 394
#     4  10  21  40  64  90 133 167 214 269 326 389
#     4  10  20  40  68  94 128 174 216 270 334 388
#     4   9  22  39  60  93 131 165 214 274 323 390
#     4  11  23  39  66  94 126 174 220 266 333 389
#     4  10  22  40  59  90 127 164 215 265 319 396
#     4  10  21  42  63  91 130 167 217 267 328 391
#
# _framework density 23.949293999999998
#
# number of rings (size 3 to 8) (size 9 to 14) (size 15 to 20)
#    0.000    1.846    0.000    3.692    4.308    1.231 
#    0.000   26.154    0.000    0.000    0.000    0.000 
#    0.000    0.000    0.000    0.000    0.000    0.000 
#
# Total GULP energy -145271.362488 kJ/mol
# GULP energy per Si atom -5587.360096 kJ/mol
# Density = 2.389478 g / cm^3
# Si number density = 23.949294 Si / 1000 Ang^3
#
#
#
# Elastic Constant Matrix: (Units=GPa)
#
#
# Indices 1 2 3 4 5 6 
#
# 1 93.6288 8.6597 -3.0264 -0.0010 0.0010 -0.0011
# 2 8.6597 77.0792 2.2833 -0.0029 0.0025 -0.0005
# 3 -3.0264 2.2833 81.8391 -0.0009 0.0049 -0.0009
# 4 -0.0010 -0.0029 -0.0009 11.4274 0.0030 -0.0002
# 5 0.0010 0.0025 0.0049 0.0030 48.1629 0.0004
# 6 -0.0011 -0.0005 -0.0009 -0.0002 0.0004 30.3714
#
#
#
# Elastic Compliance Matrix: (Units=1/GPa)
#
#
# Indices 1 2 3 4 5 6 
#
# 1 0.010808 -0.001227 0.000434 0.000001 0.000000 0.000000
# 2 -0.001227 0.013124 -0.000412 0.000003 -0.000001 0.000000
# 3 0.000434 -0.000412 0.012247 0.000001 -0.000001 0.000000
# 4 0.000001 0.000003 0.000001 0.087509 -0.000005 0.000000
# 5 0.000000 -0.000001 -0.000001 -0.000005 0.020763 0.000000
# 6 0.000000 0.000000 0.000000 0.000000 0.000000 0.032926
#
#
# Mechanical properties :
#
#
# Convention : Reuss Voigt Hill
#
# Bulk Modulus (GPa) = 29.61305 29.82003 29.71654
# Shear Modulus (GPa) = 26.17229 34.30105 30.23667
#
# Velocity S-wave (km/s) = 3.30937 3.78860 3.55706
# Velocity P-wave (km/s) = 5.19561 5.62284 5.41344
#
# Compressibility (1/GPa) = 0.03376890
#
# Stress axis : x y z
#
# Youngs Moduli (GPa) = 92.52415 76.19791 81.65510
#
# Poissons Ratio (x) = 0.09350 -0.03543
# Poissons Ratio (y) = 0.11354 0.03360
# Poissons Ratio (z) = -0.04015 0.03136
#
# Static dielectric constant tensor:
#      x y z
#    x 1.917650 0.000000 0.000000 
#    y 0.000000 1.963520 0.000000 
#    z 0.000000 0.000000 1.932330 
# 
# From -- ./inp_files/3830.got.cif
#   From: 2010.05.17/outbox.cif.g08.bks.cpg/sg43_2_cif.got.tgz:3830.got - 2010.06.03 19:21:55.
