data_PCOD9370614
_publ_section_title
;
Structure prediction by ZEFSAII (Michael W. Deem and Ramdas Pophale) SiO2 
 PCOD9370614
Probable space group: F D D 2
;
_chemical_formula_sum "Si O2"
_cell_formula_units_Z 120
_cell_length_a 18.303171
_cell_length_b 15.430481
_cell_length_c 21.861616
_cell_angle_alpha 90.000000
_cell_angle_beta 90.000000
_cell_angle_gamma 90.000000
_cell_volume 6174.304771
_symmetry_space_group_name_H-M "F D D 2"
_symmetry_group_IT_number 43
_symmetry_cell_setting 'orthorhombic'
loop_
_space_group_symop_operation_xyz
x,y,z
-x,-y,z
1/4-x,1/4+y,1/4+z
1/4+x,1/4-y,1/4+z
x,1/2+y,1/2+z
-x,1/2-y,1/2+z
1/4-x,3/4+y,3/4+z
1/4+x,3/4-y,3/4+z
1/2+x,y,1/2+z
1/2-x,-y,1/2+z
3/4-x,1/4+y,3/4+z
3/4+x,1/4-y,3/4+z
1/2+x,1/2+y,z
1/2-x,1/2-y,z
3/4-x,3/4+y,1/4+z
3/4+x,3/4-y,1/4+z
loop_
_atom_site_type_symbol
_atom_site_label
_atom_site_fract_x
_atom_site_fract_y
_atom_site_fract_z
Si Si1 0.916855 0.508490 0.083900
Si Si2 0.036190 0.223860 0.392031
Si Si3 0.436803 0.163677 0.271425
Si Si4 0.582683 0.632527 0.923980
Si Si5 0.000000 0.500000 0.339913
Si Si6 0.426625 0.258476 0.716407
Si Si7 0.582653 0.915693 0.860640
Si Si8 0.430296 0.553882 0.222645
O O1 0.900943 0.571759 0.140028
O O2 0.888001 0.414184 0.101415
O O3 0.000000 0.500000 0.065391
O O4 0.865915 0.537028 0.027890
O O5 0.057702 0.266259 0.326434
O O6 0.106820 0.214767 0.434714
O O7 0.979609 0.292929 0.422352
O O8 0.992329 0.133457 0.380679
O O9 0.359171 0.152150 0.238987
O O10 0.459521 0.071328 0.299246
O O11 0.496754 0.192076 0.220913
O O12 0.554619 0.553579 0.882953
O O13 0.370870 0.277040 0.661911
O O14 0.443426 0.156727 0.718693
O O15 0.577730 0.963116 0.795474
O O16 0.500000 0.500000 0.199878
#
# Coordination Sequence:
#
# PCOD9370614 Si02
#       8
#    16  16  16  16   8  16  16  16
#     4  10  20  37  59  99 133 162 219 273 322 387
#     4  10  23  47  63  98 134 165 224 276 327 387
#     4  11  22  44  66  97 138 174 219 274 323 393
#     4  10  22  40  67  92 133 178 214 271 322 394
#     4  10  22  42  62  96 134 178 216 266 336 374
#     4  11  23  40  68  99 130 172 218 274 334 382
#     4  10  23  41  66  96 127 170 215 277 327 383
#     4  11  26  46  66  94 132 176 215 271 332 403
#
# _framework density 19.435386999999999
#
# number of rings (size 3 to 8) (size 9 to 14) (size 15 to 20)
#    0.000    1.600    5.333    0.800   10.267    2.133 
#    6.000    0.000    0.000    0.000    0.000    0.000 
#    0.000    0.000    0.000    0.000    0.000    0.000 
#
# Total GULP energy -167456.687281 kJ/mol
# GULP energy per Si atom -5581.889576 kJ/mol
# Density = 1.939115 g / cm^3
# Si number density = 19.435387 Si / 1000 Ang^3
#
#
#
# Elastic Constant Matrix: (Units=GPa)
#
#
# Indices 1 2 3 4 5 6 
#
# 1 104.8643 27.6931 45.9753 0.0000 0.0000 0.0000
# 2 27.6931 34.2016 25.6962 0.0000 0.0000 0.0000
# 3 45.9753 25.6962 81.6115 0.0000 0.0000 0.0000
# 4 0.0000 0.0000 0.0000 19.6420 0.0000 0.0000
# 5 0.0000 0.0000 0.0000 0.0000 34.1965 0.0000
# 6 0.0000 0.0000 0.0000 0.0000 0.0000 17.9419
#
#
#
# Elastic Compliance Matrix: (Units=1/GPa)
#
#
# Indices 1 2 3 4 5 6 
#
# 1 0.013836 -0.007004 -0.005589 0.000000 0.000000 0.000000
# 2 -0.007004 0.041844 -0.009229 0.000000 0.000000 0.000000
# 3 -0.005589 -0.009229 0.018308 0.000000 0.000000 0.000000
# 4 0.000000 0.000000 0.000000 0.050911 0.000000 0.000000
# 5 0.000000 0.000000 0.000000 0.000000 0.029243 0.000000
# 6 0.000000 0.000000 0.000000 0.000000 0.000000 0.055735
#
#
# Mechanical properties :
#
#
# Convention : Reuss Voigt Hill
#
# Bulk Modulus (GPa) = 32.95689 46.60073 39.77881
# Shear Modulus (GPa) = 18.96552 22.44360 20.70456
#
# Velocity S-wave (km/s) = 3.12721 3.40189 3.26744
# Velocity P-wave (km/s) = 5.48026 6.28170 5.89462
#
# Compressibility (1/GPa) = 0.03034267
#
# Stress axis : x y z
#
# Youngs Moduli (GPa) = 72.27384 23.89854 54.62150
#
# Poissons Ratio (x) = 0.16738 0.30530
# Poissons Ratio (y) = 0.50620 0.50412
# Poissons Ratio (z) = 0.40396 0.22057
#
# Static dielectric constant tensor:
#      x y z
#    x 1.680470 0.000000 0.000000 
#    y 0.000000 1.673170 0.000000 
#    z 0.000000 0.000000 1.712170 
# 
# From -- ./inp_files/18392.got.cif
#   From: 2010.05.17/outbox.cif.g08.bks.cpg/sg43_10_cif.got.tgz:18392.got - 2010.06.03 19:21:55.
