data_PCOD9370426
_publ_section_title
;
Structure prediction by ZEFSAII (Michael W. Deem and Ramdas Pophale) SiO2 
 PCOD9370426
Probable space group: F D D 2
;
_chemical_formula_sum "Si O2"
_cell_formula_units_Z 112
_cell_length_a 15.019807
_cell_length_b 24.311271
_cell_length_c 11.421381
_cell_angle_alpha 90.000000
_cell_angle_beta 90.000000
_cell_angle_gamma 90.000000
_cell_volume 4170.524106
_symmetry_space_group_name_H-M "F D D 2"
_symmetry_group_IT_number 43
_symmetry_cell_setting 'orthorhombic'
loop_
_space_group_symop_operation_xyz
x,y,z
-x,-y,z
1/4-x,1/4+y,1/4+z
1/4+x,1/4-y,1/4+z
x,1/2+y,1/2+z
-x,1/2-y,1/2+z
1/4-x,3/4+y,3/4+z
1/4+x,3/4-y,3/4+z
1/2+x,y,1/2+z
1/2-x,-y,1/2+z
3/4-x,1/4+y,3/4+z
3/4+x,1/4-y,3/4+z
1/2+x,1/2+y,z
1/2-x,1/2-y,z
3/4-x,3/4+y,1/4+z
3/4+x,3/4-y,1/4+z
loop_
_atom_site_type_symbol
_atom_site_label
_atom_site_fract_x
_atom_site_fract_y
_atom_site_fract_z
Si Si1 0.346301 0.636494 0.614320
Si Si2 0.285846 0.638137 0.260428
Si Si3 0.841264 0.718871 0.935838
Si Si4 0.465213 0.283434 0.771148
Si Si5 0.484759 0.140227 0.565450
Si Si6 0.926084 0.816747 0.296043
Si Si7 0.658751 0.270068 0.078330
O O1 0.442088 0.617009 0.571900
O O2 0.340267 0.698427 0.568200
O O3 0.276169 0.597328 0.545084
O O4 0.324352 0.621345 0.746054
O O5 0.350432 0.662323 0.360329
O O6 0.303757 0.584668 0.180947
O O7 0.293764 0.687531 0.167957
O O8 0.750000 0.750000 0.909619
O O9 0.915897 0.758216 0.885202
O O10 0.552457 0.246071 0.766427
O O11 0.399864 0.271556 0.660003
O O12 0.424076 0.087546 0.537222
O O13 0.511656 0.151398 0.700452
O O14 0.419776 0.191067 0.525620
O O15 0.750000 0.250000 0.012647
#
# Coordination Sequence:
#
# PCOD9370426 Si02
#       7
#    16  16  16  16  16  16  16
#     4  12  23  39  66 104 135 178 222 287 345 424
#     4  10  19  37  70  95 128 171 247 273 335 405
#     4  11  22  40  69 103 135 173 223 306 342 387
#     4  10  19  39  67 101 126 172 247 278 329 398
#     4  10  25  40  64  91 147 179 220 282 364 408
#     4  10  22  45  64  98 133 187 222 295 339 400
#     4   9  16  37  64  92 127 173 226 301 324 388
#
# _framework density 26.855139999999999
#
# number of rings (size 3 to 8) (size 9 to 14) (size 15 to 20)
#    0.000    1.714    4.286    1.714    2.000    0.000 
#   10.286    1.429    0.000    0.000    0.000    0.000 
#    0.000    0.000    0.000    0.000    0.000    0.000 
#
# Total GULP energy -156427.940223 kJ/mol
# GULP energy per Si atom -5586.712151 kJ/mol
# Density = 2.679402 g / cm^3
# Si number density = 26.855140 Si / 1000 Ang^3
#
#
#
# Elastic Constant Matrix: (Units=GPa)
#
#
# Indices 1 2 3 4 5 6 
#
# 1 106.5426 14.3644 46.4653 0.0000 0.0000 0.0000
# 2 14.3644 46.7227 45.9969 0.0000 0.0000 0.0000
# 3 46.4653 45.9969 111.0071 0.0000 0.0000 0.0000
# 4 0.0000 0.0000 0.0000 37.2836 0.0000 0.0000
# 5 0.0000 0.0000 0.0000 0.0000 44.7080 0.0000
# 6 0.0000 0.0000 0.0000 0.0000 0.0000 35.8577
#
#
#
# Elastic Compliance Matrix: (Units=1/GPa)
#
#
# Indices 1 2 3 4 5 6 
#
# 1 0.011597 0.002050 -0.005704 0.000000 0.000000 0.000000
# 2 0.002050 0.036511 -0.015987 0.000000 0.000000 0.000000
# 3 -0.005704 -0.015987 0.018020 0.000000 0.000000 0.000000
# 4 0.000000 0.000000 0.000000 0.026821 0.000000 0.000000
# 5 0.000000 0.000000 0.000000 0.000000 0.022367 0.000000
# 6 0.000000 0.000000 0.000000 0.000000 0.000000 0.027888
#
#
# Mechanical properties :
#
#
# Convention : Reuss Voigt Hill
#
# Bulk Modulus (GPa) = 37.24826 53.10286 45.17556
# Shear Modulus (GPa) = 26.11851 34.06624 30.09238
#
# Velocity S-wave (km/s) = 3.12199 3.56549 3.35108
# Velocity P-wave (km/s) = 5.18613 6.06358 5.64194
#
# Compressibility (1/GPa) = 0.02684689
#
# Stress axis : x y z
#
# Youngs Moduli (GPa) = 86.22916 27.38896 55.49382
#
# Poissons Ratio (x) = -0.05613 0.31651
# Poissons Ratio (y) = -0.17673 0.88716
# Poissons Ratio (z) = 0.49181 0.43786
#
# Static dielectric constant tensor:
#      x y z
#    x 2.073250 0.000000 0.000000 
#    y 0.000000 2.188810 0.000000 
#    z 0.000000 0.000000 2.182420 
# 
# From -- ./inp_files/6311.got.cif
#   From: 2010.05.17/outbox.cif.g08.bks.cpg/sg43_4_cif.got.tgz:6311.got - 2010.06.03 19:21:55.
