data_PCOD9370362
_publ_section_title
;
Structure prediction by ZEFSAII (Michael W. Deem and Ramdas Pophale) SiO2 
 PCOD9370362
Probable space group: F D D 2
;
_chemical_formula_sum "Si O2"
_cell_formula_units_Z 104
_cell_length_a 24.181180
_cell_length_b 14.463767
_cell_length_c 10.233384
_cell_angle_alpha 90.000000
_cell_angle_beta 90.000000
_cell_angle_gamma 90.000000
_cell_volume 3579.135810
_symmetry_space_group_name_H-M "F D D 2"
_symmetry_group_IT_number 43
_symmetry_cell_setting 'orthorhombic'
loop_
_space_group_symop_operation_xyz
x,y,z
-x,-y,z
1/4-x,1/4+y,1/4+z
1/4+x,1/4-y,1/4+z
x,1/2+y,1/2+z
-x,1/2-y,1/2+z
1/4-x,3/4+y,3/4+z
1/4+x,3/4-y,3/4+z
1/2+x,y,1/2+z
1/2-x,-y,1/2+z
3/4-x,1/4+y,3/4+z
3/4+x,1/4-y,3/4+z
1/2+x,1/2+y,z
1/2-x,1/2-y,z
3/4-x,3/4+y,1/4+z
3/4+x,3/4-y,1/4+z
loop_
_atom_site_type_symbol
_atom_site_label
_atom_site_fract_x
_atom_site_fract_y
_atom_site_fract_z
Si Si1 0.358883 0.161662 0.822160
Si Si2 0.820490 0.307696 0.560960
Si Si3 0.294279 0.615571 0.987064
Si Si4 0.311303 0.014268 0.246328
Si Si5 0.154949 0.699274 0.851643
Si Si6 0.750000 0.250000 0.191604
Si Si7 0.972139 0.350743 0.239577
O O1 0.397980 0.132682 0.704799
O O2 0.308993 0.232577 0.771045
O O3 0.401174 0.179684 0.942796
O O4 0.319045 0.079818 0.872805
O O5 0.883572 0.326612 0.523328
O O6 0.813375 0.321570 0.716313
O O7 0.801968 0.201579 0.539023
O O8 0.784493 0.370813 0.465147
O O9 0.274597 0.548753 0.868974
O O10 0.320307 0.710887 0.923980
O O11 0.341024 0.550811 0.053683
O O12 0.254725 0.660383 0.096756
O O13 0.280055 0.038870 0.115077
#
# Coordination Sequence:
#
# PCOD9370362 Si02
#       7
#    16  16  16  16  16   8  16
#     4  10  22  38  62  91 132 162 219 259 330 367
#     4   9  19  36  59  90 118 157 220 253 304 388
#     4  10  22  39  67  89 127 162 225 254 321 373
#     4  10  20  36  62  93 118 167 206 269 314 382
#     4  10  21  38  62  93 123 166 201 270 312 384
#     4  10  22  40  64  96 120 180 220 260 302 414
#     4  10  19  35  65  86 118 166 213 260 309 389
#
# _framework density 29.057295
#
# number of rings (size 3 to 8) (size 9 to 14) (size 15 to 20)
#    0.000    2.154    1.538    1.846    6.462    0.000 
#    0.000    0.000   20.308    0.000    0.000    0.000 
#    0.000    0.000    0.000    0.000    0.000    0.000 
#
# Total GULP energy -144838.190929 kJ/mol
# GULP energy per Si atom -5570.699651 kJ/mol
# Density = 2.899116 g / cm^3
# Si number density = 29.057295 Si / 1000 Ang^3
#
#
#
# Elastic Constant Matrix: (Units=GPa)
#
#
# Indices 1 2 3 4 5 6 
#
# 1 105.1207 41.6814 21.7247 0.0000 0.0000 0.0000
# 2 41.6814 128.7184 33.3786 0.0000 0.0000 0.0000
# 3 21.7247 33.3786 152.3782 0.0000 0.0000 0.0000
# 4 0.0000 0.0000 0.0000 11.2431 0.0000 0.0000
# 5 0.0000 0.0000 0.0000 0.0000 52.3044 0.0000
# 6 0.0000 0.0000 0.0000 0.0000 0.0000 50.4447
#
#
#
# Elastic Compliance Matrix: (Units=1/GPa)
#
#
# Indices 1 2 3 4 5 6 
#
# 1 0.011014 -0.003350 -0.000837 0.000000 0.000000 0.000000
# 2 -0.003350 0.009255 -0.001550 0.000000 0.000000 0.000000
# 3 -0.000837 -0.001550 0.007021 0.000000 0.000000 0.000000
# 4 0.000000 0.000000 0.000000 0.088943 0.000000 0.000000
# 5 0.000000 0.000000 0.000000 0.000000 0.019119 0.000000
# 6 0.000000 0.000000 0.000000 0.000000 0.000000 0.019824
#
#
# Mechanical properties :
#
#
# Convention : Reuss Voigt Hill
#
# Bulk Modulus (GPa) = 63.21597 64.42072 63.81834
# Shear Modulus (GPa) = 29.08304 42.09395 35.58850
#
# Velocity S-wave (km/s) = 3.16711 3.81025 3.50347
# Velocity P-wave (km/s) = 5.93102 6.44792 6.19486
#
# Compressibility (1/GPa) = 0.01581879
#
# Stress axis : x y z
#
# Youngs Moduli (GPa) = 90.79441 108.04440 142.42206
#
# Poissons Ratio (x) = 0.36190 0.11914
# Poissons Ratio (y) = 0.30412 0.22073
# Poissons Ratio (z) = 0.07595 0.16745
#
# Static dielectric constant tensor:
#      x y z
#    x 2.323600 0.000000 0.000000 
#    y 0.000000 2.431170 0.000000 
#    z 0.000000 0.000000 2.417910 
# 
# From -- ./inp_files/8347.got.cif
#   From: 2010.05.17/outbox.cif.g08.bks.cpg/sg43_5_cif.got.tgz:8347.got - 2010.06.03 19:21:55.
