data_PCOD9370852
_publ_section_title
;
Structure prediction by ZEFSAII (Michael W. Deem and Ramdas Pophale) SiO2 
 PCOD9370852
Probable space group: F D D 2
;
_chemical_formula_sum "Si O2"
_cell_formula_units_Z 88
_cell_length_a 17.819355
_cell_length_b 14.507910
_cell_length_c 14.824119
_cell_angle_alpha 90.000000
_cell_angle_beta 90.000000
_cell_angle_gamma 90.000000
_cell_volume 3832.354942
_symmetry_space_group_name_H-M "F D D 2"
_symmetry_group_IT_number 43
_symmetry_cell_setting 'orthorhombic'
loop_
_space_group_symop_operation_xyz
x,y,z
-x,-y,z
1/4-x,1/4+y,1/4+z
1/4+x,1/4-y,1/4+z
x,1/2+y,1/2+z
-x,1/2-y,1/2+z
1/4-x,3/4+y,3/4+z
1/4+x,3/4-y,3/4+z
1/2+x,y,1/2+z
1/2-x,-y,1/2+z
3/4-x,1/4+y,3/4+z
3/4+x,1/4-y,3/4+z
1/2+x,1/2+y,z
1/2-x,1/2-y,z
3/4-x,3/4+y,1/4+z
3/4+x,3/4-y,1/4+z
loop_
_atom_site_type_symbol
_atom_site_label
_atom_site_fract_x
_atom_site_fract_y
_atom_site_fract_z
Si Si1 0.520384 0.853288 0.859390
Si Si2 0.323725 0.565458 0.282524
Si Si3 0.571588 0.669832 0.907332
Si Si4 0.377675 0.867782 0.747590
Si Si5 0.423107 0.730620 0.591903
Si Si6 0.500000 0.000000 0.512169
O O1 0.602748 0.891822 0.830598
O O2 0.527371 0.742509 0.847780
O O3 0.457722 0.886300 0.791163
O O4 0.478040 0.869505 0.957374
O O5 0.344661 0.468884 0.235222
O O6 0.261731 0.532425 0.354669
O O7 0.637518 0.618910 0.856596
O O8 0.526872 0.584739 0.950436
O O9 0.595372 0.732450 0.992224
O O10 0.391430 0.807546 0.658851
O O11 0.321730 0.800722 0.807203
#
# Coordination Sequence:
#
# PCOD9370852 Si02
#       6
#    16  16  16  16  16   8
#     4  11  26  47  72 108 152 196 252 313 388 466
#     4  11  26  49  69 112 147 197 252 318 392 467
#     4  10  23  46  70 108 143 194 251 320 387 472
#     4  11  24  42  73 103 142 196 248 313 377 468
#     4  10  24  45  75 104 144 197 252 315 390 466
#     4  10  20  40  72  98 142 176 248 306 368 460
#
# _framework density 22.962382999999999
#
# number of rings (size 3 to 8) (size 9 to 14) (size 15 to 20)
#    0.000    1.455    3.636    0.545    7.636    3.636 
#    6.545    9.091    0.000    0.000    0.000    0.000 
#    0.000    0.000    0.000    0.000    0.000    0.000 
#
# Total GULP energy -122554.400368 kJ/mol
# GULP energy per Si atom -5570.654562 kJ/mol
# Density = 2.291012 g / cm^3
# Si number density = 22.962383 Si / 1000 Ang^3
#
#
#
# Elastic Constant Matrix: (Units=GPa)
#
#
# Indices 1 2 3 4 5 6 
#
# 1 160.5296 67.7117 33.5992 0.0000 0.0000 0.0000
# 2 67.7117 106.2162 17.6515 0.0000 0.0000 0.0000
# 3 33.5992 17.6515 47.8885 0.0000 0.0000 0.0000
# 4 0.0000 0.0000 0.0000 45.2283 0.0000 0.0000
# 5 0.0000 0.0000 0.0000 0.0000 28.6958 0.0000
# 6 0.0000 0.0000 0.0000 0.0000 0.0000 52.6370
#
#
#
# Elastic Compliance Matrix: (Units=1/GPa)
#
#
# Indices 1 2 3 4 5 6 
#
# 1 0.009411 -0.005222 -0.004678 0.000000 0.000000 0.000000
# 2 -0.005222 0.012927 -0.001101 0.000000 0.000000 0.000000
# 3 -0.004678 -0.001101 0.024570 0.000000 0.000000 0.000000
# 4 0.000000 0.000000 0.000000 0.022110 0.000000 0.000000
# 5 0.000000 0.000000 0.000000 0.000000 0.034848 0.000000
# 6 0.000000 0.000000 0.000000 0.000000 0.000000 0.018998
#
#
# Mechanical properties :
#
#
# Convention : Reuss Voigt Hill
#
# Bulk Modulus (GPa) = 40.15166 61.39546 50.77356
# Shear Modulus (GPa) = 32.64381 38.35703 35.50042
#
# Velocity S-wave (km/s) = 3.77453 4.09152 3.93622
# Velocity P-wave (km/s) = 6.04317 7.00829 6.54355
#
# Compressibility (1/GPa) = 0.02490557
#
# Stress axis : x y z
#
# Youngs Moduli (GPa) = 106.25598 77.35899 40.70021
#
# Poissons Ratio (x) = 0.40398 0.19040
# Poissons Ratio (y) = 0.55488 0.04480
# Poissons Ratio (z) = 0.49709 0.08516
#
# Static dielectric constant tensor:
#      x y z
#    x 2.053100 0.000000 0.000000 
#    y 0.000000 1.786340 0.000000 
#    z 0.000000 0.000000 1.936730 
# 
# From -- ./inp_files/14208.got.cif
#   From: 2010.05.17/outbox.cif.g08.bks.cpg/sg43_8_cif.got.tgz:14208.got - 2010.06.03 19:21:55.
