data_PCOD9370544
_publ_section_title
;
Structure prediction by ZEFSAII (Michael W. Deem and Ramdas Pophale) SiO2 
 PCOD9370544
Probable space group: F D D 2
;
_chemical_formula_sum "Si O2"
_cell_formula_units_Z 88
_cell_length_a 5.051138
_cell_length_b 21.410552
_cell_length_c 31.833784
_cell_angle_alpha 90.000000
_cell_angle_beta 90.000000
_cell_angle_gamma 90.000000
_cell_volume 3442.749020
_symmetry_space_group_name_H-M "F D D 2"
_symmetry_group_IT_number 43
_symmetry_cell_setting 'orthorhombic'
loop_
_space_group_symop_operation_xyz
x,y,z
-x,-y,z
1/4-x,1/4+y,1/4+z
1/4+x,1/4-y,1/4+z
x,1/2+y,1/2+z
-x,1/2-y,1/2+z
1/4-x,3/4+y,3/4+z
1/4+x,3/4-y,3/4+z
1/2+x,y,1/2+z
1/2-x,-y,1/2+z
3/4-x,1/4+y,3/4+z
3/4+x,1/4-y,3/4+z
1/2+x,1/2+y,z
1/2-x,1/2-y,z
3/4-x,3/4+y,1/4+z
3/4+x,3/4-y,1/4+z
loop_
_atom_site_type_symbol
_atom_site_label
_atom_site_fract_x
_atom_site_fract_y
_atom_site_fract_z
Si Si1 0.536781 0.619244 0.899250
Si Si2 0.235902 0.921104 0.040823
Si Si3 0.750000 0.750000 0.010132
Si Si4 0.487149 0.355243 0.737081
Si Si5 0.705003 0.948416 0.632234
Si Si6 0.571835 0.704729 0.582892
O O1 0.231719 0.639533 0.895763
O O2 0.589047 0.573930 0.860284
O O3 0.745311 0.678250 0.894267
O O4 0.641375 0.588638 0.942042
O O5 0.458730 0.921955 0.004124
O O6 0.290979 0.855407 0.063561
O O7 0.949504 0.919021 0.020554
O O8 0.235655 0.963400 0.082491
O O9 0.761277 0.682351 0.987854
O O10 0.514553 0.754037 0.043355
O O11 0.500000 0.000000 0.650753
O O12 0.750000 0.750000 0.610474
#
# Coordination Sequence:
#
# PCOD9370544 Si02
#       6
#    16  16   8  16  16  16
#     4  11  25  39  61  95 134 158 211 270 335 372
#     4  10  21  40  61  87 119 161 215 250 309 379
#     4  10  20  34  64  88 118 160 214 244 316 374
#     4  11  22  38  59  92 129 154 201 277 315 366
#     4  11  23  42  64  88 123 174 212 257 314 407
#     4  10  20  38  62  89 118 168 207 254 308 395
#
# _framework density 25.560970999999999
#
# number of rings (size 3 to 8) (size 9 to 14) (size 15 to 20)
#    0.000    1.455    1.818    4.909    5.091    0.000 
#    0.000    1.818    0.000    0.000    0.000    0.000 
#    0.000    0.000    0.000    0.000    0.000    0.000 
#
# Total GULP energy -122697.695627 kJ/mol
# GULP energy per Si atom -5577.167983 kJ/mol
# Density = 2.550279 g / cm^3
# Si number density = 25.560971 Si / 1000 Ang^3
#
#
#
# Elastic Constant Matrix: (Units=GPa)
#
#
# Indices 1 2 3 4 5 6 
#
# 1 128.2400 1.3270 -8.3766 0.0000 0.0000 0.0000
# 2 1.3270 34.7263 -11.0638 0.0000 0.0000 0.0000
# 3 -8.3766 -11.0638 96.1175 0.0000 0.0000 0.0000
# 4 0.0000 0.0000 0.0000 13.4402 0.0000 0.0000
# 5 0.0000 0.0000 0.0000 0.0000 39.1048 0.0000
# 6 0.0000 0.0000 0.0000 0.0000 0.0000 35.3112
#
#
#
# Elastic Compliance Matrix: (Units=1/GPa)
#
#
# Indices 1 2 3 4 5 6 
#
# 1 0.007843 -0.000085 0.000674 0.000000 0.000000 0.000000
# 2 -0.000085 0.029894 0.003434 0.000000 0.000000 0.000000
# 3 0.000674 0.003434 0.010858 0.000000 0.000000 0.000000
# 4 0.000000 0.000000 0.000000 0.074404 0.000000 0.000000
# 5 0.000000 0.000000 0.000000 0.000000 0.025572 0.000000
# 6 0.000000 0.000000 0.000000 0.000000 0.000000 0.028320
#
#
# Mechanical properties :
#
#
# Convention : Reuss Voigt Hill
#
# Bulk Modulus (GPa) = 17.65572 24.76189 21.20881
# Shear Modulus (GPa) = 26.63468 36.05106 31.34287
#
# Velocity S-wave (km/s) = 3.23151 3.75960 3.50551
# Velocity P-wave (km/s) = 4.56573 5.34364 4.96993
#
# Compressibility (1/GPa) = 0.05663886
#
# Stress axis : x y z
#
# Youngs Moduli (GPa) = 127.50601 33.45178 92.09906
#
# Poissons Ratio (x) = 0.00285 -0.06205
# Poissons Ratio (y) = 0.01084 -0.31623
# Poissons Ratio (z) = -0.08590 -0.11486
#
# Static dielectric constant tensor:
#      x y z
#    x 2.043660 0.000000 0.000000 
#    y 0.000000 2.233020 0.000000 
#    z 0.000000 0.000000 1.996630 
# 
# From -- ./inp_files/27252.got.cif
#   From: 2010.05.17/outbox.cif.g08.bks.cpg/sg43_14_cif.got.tgz:27252.got - 2010.06.03 19:21:55.
