data_PCOD9370378
_publ_section_title
;
Structure prediction by ZEFSAII (Michael W. Deem and Ramdas Pophale) SiO2 
 PCOD9370378
Probable space group: F D D 2
;
_chemical_formula_sum "Si O2"
_cell_formula_units_Z 112
_cell_length_a 13.501816
_cell_length_b 26.609080
_cell_length_c 14.450745
_cell_angle_alpha 90.000000
_cell_angle_beta 90.000000
_cell_angle_gamma 90.000000
_cell_volume 5191.732192
_symmetry_space_group_name_H-M "F D D 2"
_symmetry_group_IT_number 43
_symmetry_cell_setting 'orthorhombic'
loop_
_space_group_symop_operation_xyz
x,y,z
-x,-y,z
1/4-x,1/4+y,1/4+z
1/4+x,1/4-y,1/4+z
x,1/2+y,1/2+z
-x,1/2-y,1/2+z
1/4-x,3/4+y,3/4+z
1/4+x,3/4-y,3/4+z
1/2+x,y,1/2+z
1/2-x,-y,1/2+z
3/4-x,1/4+y,3/4+z
3/4+x,1/4-y,3/4+z
1/2+x,1/2+y,z
1/2-x,1/2-y,z
3/4-x,3/4+y,1/4+z
3/4+x,3/4-y,1/4+z
loop_
_atom_site_type_symbol
_atom_site_label
_atom_site_fract_x
_atom_site_fract_y
_atom_site_fract_z
Si Si1 0.452216 0.778709 0.771510
Si Si2 0.087984 0.461858 0.810670
Si Si3 0.100227 0.393869 0.643433
Si Si4 0.702382 0.892951 0.144629
Si Si5 0.907441 0.532303 0.025887
Si Si6 0.263625 0.452428 0.327393
Si Si7 0.148362 0.323659 0.294910
O O1 0.432601 0.826559 0.835118
O O2 0.560132 0.753306 0.779656
O O3 0.439591 0.792376 0.663588
O O4 0.377546 0.734713 0.800556
O O5 0.099455 0.412693 0.748259
O O6 0.187633 0.494877 0.802461
O O7 0.000000 0.500000 0.779813
O O8 0.075122 0.452266 0.919478
O O9 0.098323 0.335046 0.619359
O O10 0.994331 0.412558 0.603685
O O11 0.616992 0.918905 0.085469
O O12 0.722028 0.927347 0.235444
O O13 0.803156 0.896265 0.085019
O O14 0.671073 0.840449 0.189811
O O15 0.000000 0.500000 0.058932
#
# Coordination Sequence:
#
# PCOD9370378 Si02
#       7
#    16  16  16  16  16  16  16
#     4  10  21  40  59  94 128 160 212 264 319 389
#     4  10  19  36  61  86 124 163 204 262 319 375
#     4  11  22  36  67  95 126 166 211 264 331 386
#     4  10  21  40  63  89 128 167 211 263 324 382
#     4   9  20  41  63  84 129 173 208 263 320 382
#     4  10  23  36  62  93 124 161 209 270 317 379
#     4  10  22  39  66  93 128 167 209 271 327 386
#
# _framework density 21.572762000000001
#
# number of rings (size 3 to 8) (size 9 to 14) (size 15 to 20)
#    0.000    2.000    0.000    3.857   10.000    0.000 
#    2.571   12.857    3.143    0.000    0.000    0.000 
#    0.000    0.000    0.000    0.000    0.000    0.000 
#
# Total GULP energy -156499.601482 kJ/mol
# GULP energy per Si atom -5589.271482 kJ/mol
# Density = 2.152366 g / cm^3
# Si number density = 21.572762 Si / 1000 Ang^3
#
#
#
# Elastic Constant Matrix: (Units=GPa)
#
#
# Indices 1 2 3 4 5 6 
#
# 1 57.8535 1.7562 13.2823 0.0000 0.0000 0.0000
# 2 1.7562 60.5914 18.4213 0.0000 0.0000 0.0000
# 3 13.2823 18.4213 70.3699 0.0000 0.0000 0.0000
# 4 0.0000 0.0000 0.0000 44.3556 0.0000 0.0000
# 5 0.0000 0.0000 0.0000 0.0000 28.6872 0.0000
# 6 0.0000 0.0000 0.0000 0.0000 0.0000 19.2992
#
#
#
# Elastic Compliance Matrix: (Units=1/GPa)
#
#
# Indices 1 2 3 4 5 6 
#
# 1 0.018085 0.000558 -0.003560 0.000000 0.000000 0.000000
# 2 0.000558 0.017948 -0.004804 0.000000 0.000000 0.000000
# 3 -0.003560 -0.004804 0.016140 0.000000 0.000000 0.000000
# 4 0.000000 0.000000 0.000000 0.022545 0.000000 0.000000
# 5 0.000000 0.000000 0.000000 0.000000 0.034859 0.000000
# 6 0.000000 0.000000 0.000000 0.000000 0.000000 0.051816
#
#
# Mechanical properties :
#
#
# Convention : Reuss Voigt Hill
#
# Bulk Modulus (GPa) = 27.35019 28.41492 27.88256
# Shear Modulus (GPa) = 26.42825 28.82541 27.62683
#
# Velocity S-wave (km/s) = 3.50390 3.65937 3.58248
# Velocity P-wave (km/s) = 5.39216 5.57269 5.48317
#
# Compressibility (1/GPa) = 0.03656281
#
# Stress axis : x y z
#
# Youngs Moduli (GPa) = 55.29344 55.71555 61.95774
#
# Poissons Ratio (x) = -0.03109 0.22055
# Poissons Ratio (y) = -0.03086 0.29763
# Poissons Ratio (z) = 0.19683 0.26765
#
# Static dielectric constant tensor:
#      x y z
#    x 1.792540 0.000000 0.000000 
#    y 0.000000 1.811760 0.000000 
#    z 0.000000 0.000000 1.787570 
# 
# From -- ./inp_files/10266.got.cif
#   From: 2010.05.17/outbox.cif.g08.bks.cpg/sg43_6_cif.got.tgz:10266.got - 2010.06.03 19:21:55.
