data_PCOD9370748
_publ_section_title
;
Structure prediction by ZEFSAII (Michael W. Deem and Ramdas Pophale) SiO2 
 PCOD9370748
Probable space group: F D D 2
;
_chemical_formula_sum "Si O2"
_cell_formula_units_Z 88
_cell_length_a 11.549019
_cell_length_b 10.804427
_cell_length_c 33.888450
_cell_angle_alpha 90.000000
_cell_angle_beta 90.000000
_cell_angle_gamma 90.000000
_cell_volume 4228.618844
_symmetry_space_group_name_H-M "F D D 2"
_symmetry_group_IT_number 43
_symmetry_cell_setting 'orthorhombic'
loop_
_space_group_symop_operation_xyz
x,y,z
-x,-y,z
1/4-x,1/4+y,1/4+z
1/4+x,1/4-y,1/4+z
x,1/2+y,1/2+z
-x,1/2-y,1/2+z
1/4-x,3/4+y,3/4+z
1/4+x,3/4-y,3/4+z
1/2+x,y,1/2+z
1/2-x,-y,1/2+z
3/4-x,1/4+y,3/4+z
3/4+x,1/4-y,3/4+z
1/2+x,1/2+y,z
1/2-x,1/2-y,z
3/4-x,3/4+y,1/4+z
3/4+x,3/4-y,1/4+z
loop_
_atom_site_type_symbol
_atom_site_label
_atom_site_fract_x
_atom_site_fract_y
_atom_site_fract_z
Si Si1 0.614540 0.420896 0.921930
Si Si2 0.977076 0.644507 0.744528
Si Si3 0.262560 0.431351 0.645666
Si Si4 0.538218 0.356612 0.099139
Si Si5 0.750000 0.250000 0.207906
Si Si6 0.602601 0.090224 0.069882
O O1 0.500000 0.500000 0.917579
O O2 0.681722 0.448703 0.962839
O O3 0.560307 0.284378 0.918747
O O4 0.698076 0.429357 0.883920
O O5 0.848749 0.678178 0.730438
O O6 0.964333 0.674637 0.790957
O O7 0.000000 0.500000 0.741811
O O8 0.162037 0.366765 0.620182
O O9 0.314754 0.345088 0.679105
O O10 0.358462 0.458441 0.613024
O O11 0.500000 0.500000 0.085850
O O12 0.556239 0.233894 0.071508
O O13 0.500000 0.000000 0.056828
#
# Coordination Sequence:
#
# PCOD9370748 Si02
#       6
#    16  16  16  16   8  16
#     4  11  22  40  68  97 135 180 226 286 347 416
#     4  12  23  42  66  96 138 180 224 279 358 413
#     4  11  20  39  69  95 125 179 233 275 332 417
#     4  10  20  39  65  95 129 176 228 274 341 416
#     4  12  20  40  70  98 124 176 238 278 318 440
#     4  12  24  39  66 105 135 174 231 294 344 411
#
# _framework density 20.810576000000001
#
# number of rings (size 3 to 8) (size 9 to 14) (size 15 to 20)
#    0.000    0.727    6.364    2.727    0.000    0.000 
#    0.000    7.273    0.000    6.545    0.000    0.000 
#    0.000    0.000    0.000    0.000    0.000    0.000 
#
# Total GULP energy -122483.023674 kJ/mol
# GULP energy per Si atom -5567.410167 kJ/mol
# Density = 2.076321 g / cm^3
# Si number density = 20.810576 Si / 1000 Ang^3
#
#
#
# Elastic Constant Matrix: (Units=GPa)
#
#
# Indices 1 2 3 4 5 6 
#
# 1 95.7626 32.5882 30.2868 0.0000 0.0000 0.0000
# 2 32.5882 74.7501 26.6945 0.0000 0.0000 0.0000
# 3 30.2868 26.6945 94.1476 0.0000 0.0000 0.0000
# 4 0.0000 0.0000 0.0000 16.3101 0.0000 0.0000
# 5 0.0000 0.0000 0.0000 0.0000 45.4986 0.0000
# 6 0.0000 0.0000 0.0000 0.0000 0.0000 45.6290
#
#
#
# Elastic Compliance Matrix: (Units=1/GPa)
#
#
# Indices 1 2 3 4 5 6 
#
# 1 0.012912 -0.004613 -0.002846 0.000000 0.000000 0.000000
# 2 -0.004613 0.016533 -0.003204 0.000000 0.000000 0.000000
# 3 -0.002846 -0.003204 0.012446 0.000000 0.000000 0.000000
# 4 0.000000 0.000000 0.000000 0.061312 0.000000 0.000000
# 5 0.000000 0.000000 0.000000 0.000000 0.021979 0.000000
# 6 0.000000 0.000000 0.000000 0.000000 0.000000 0.021916
#
#
# Mechanical properties :
#
#
# Convention : Reuss Voigt Hill
#
# Bulk Modulus (GPa) = 48.62473 49.31103 48.96788
# Shear Modulus (GPa) = 28.52611 33.16026 30.84318
#
# Velocity S-wave (km/s) = 3.70638 3.99611 3.85397
# Velocity P-wave (km/s) = 6.46007 6.71107 6.58677
#
# Compressibility (1/GPa) = 0.02056567
#
# Stress axis : x y z
#
# Youngs Moduli (GPa) = 77.44521 60.48461 80.35016
#
# Poissons Ratio (x) = 0.27901 0.22867
# Poissons Ratio (y) = 0.35725 0.25743
# Poissons Ratio (z) = 0.22040 0.19378
#
# Static dielectric constant tensor:
#      x y z
#    x 1.690850 0.000000 0.000000 
#    y 0.000000 1.725800 0.000000 
#    z 0.000000 0.000000 1.824850 
# 
# From -- ./inp_files/28461.got.cif
#   From: 2010.05.17/outbox.cif.g08.bks.cpg/sg43_15_cif.got.tgz:28461.got - 2010.06.03 19:21:55.
