data_PCOD9370033
_publ_section_title
;
Structure prediction by ZEFSAII (Michael W. Deem and Ramdas Pophale) SiO2 
 PCOD9370033
Probable space group: F D D 2
;
_chemical_formula_sum "Si O2"
_cell_formula_units_Z 128
_cell_length_a 16.908935
_cell_length_b 27.809904
_cell_length_c 10.982777
_cell_angle_alpha 90.000000
_cell_angle_beta 90.000000
_cell_angle_gamma 90.000000
_cell_volume 5164.495578
_symmetry_space_group_name_H-M "F D D 2"
_symmetry_group_IT_number 43
_symmetry_cell_setting 'orthorhombic'
loop_
_space_group_symop_operation_xyz
x,y,z
-x,-y,z
1/4-x,1/4+y,1/4+z
1/4+x,1/4-y,1/4+z
x,1/2+y,1/2+z
-x,1/2-y,1/2+z
1/4-x,3/4+y,3/4+z
1/4+x,3/4-y,3/4+z
1/2+x,y,1/2+z
1/2-x,-y,1/2+z
3/4-x,1/4+y,3/4+z
3/4+x,1/4-y,3/4+z
1/2+x,1/2+y,z
1/2-x,1/2-y,z
3/4-x,3/4+y,1/4+z
3/4+x,3/4-y,1/4+z
loop_
_atom_site_type_symbol
_atom_site_label
_atom_site_fract_x
_atom_site_fract_y
_atom_site_fract_z
Si Si1 0.038588 0.681886 0.155360
Si Si2 0.606757 0.508008 0.517530
Si Si3 0.038588 0.318115 0.418724
Si Si4 0.356759 0.758008 0.806557
Si Si5 0.500001 0.832528 0.787044
Si Si6 0.295633 0.646618 0.226074
Si Si7 0.587899 0.750000 0.037043
Si Si8 0.454366 0.103382 0.598012
O O1 0.116444 0.714745 0.178874
O O2 0.000000 0.681556 0.287042
O O3 0.975740 0.707553 0.064834
O O4 0.047720 0.628126 0.107056
O O5 0.680778 0.545362 0.507230
O O6 0.538594 0.546061 0.481712
O O7 0.609605 0.498954 0.663552
O O8 0.116444 0.285255 0.395210
O O9 0.047719 0.371875 0.467028
O O10 0.975740 0.292447 0.509251
O O11 0.430782 0.795361 0.816857
O O12 0.359605 0.748955 0.660534
O O13 0.288597 0.796061 0.842377
O O14 0.519457 0.869774 0.895023
O O15 0.480545 0.869774 0.679065
O O16 0.374999 0.625000 0.162040
#
# Coordination Sequence:
#
# PCOD9370033 Si02
#       8
#    16  16  16  16  16  16  16  16
#     4  10  18  32  56  82 107 139 179 230 275 319
#     4  10  18  30  54  82 106 136 178 230 270 323
#     4  10  18  32  56  82 107 139 179 230 275 319
#     4  10  18  30  54  82 106 136 178 230 270 323
#     4  10  16  30  50  77 110 136 166 223 272 316
#     4  10  20  31  53  85 107 135 181 227 276 328
#     4  10  14  30  54  78 107 135 176 222 276 310
#     4  10  20  31  53  85 107 135 181 227 276 328
#
# _framework density 24.784607000000001
#
# number of rings (size 3 to 8) (size 9 to 14) (size 15 to 20)
#    0.000    2.000    6.250    1.500    0.000    0.000 
#    0.000    5.000    0.000   12.000    0.000    0.000 
#    0.000    0.000    0.000    0.000    0.000    0.000 
#
# Total GULP energy -178259.338417 kJ/mol
# GULP energy per Si atom -5570.604326 kJ/mol
# Density = 2.472820 g / cm^3
# Si number density = 24.784607 Si / 1000 Ang^3
#
#
#
# Elastic Constant Matrix: (Units=GPa)
#
#
# Indices 1 2 3 4 5 6 
#
# 1 37.7157 -11.1534 -14.7667 0.0000 0.0000 0.0000
# 2 -11.1534 138.3480 25.8056 0.0000 0.0000 0.0000
# 3 -14.7667 25.8056 75.2210 0.0000 0.0000 0.0000
# 4 0.0000 0.0000 0.0000 35.6247 0.0000 0.0000
# 5 0.0000 0.0000 0.0000 0.0000 6.0581 0.0000
# 6 0.0000 0.0000 0.0000 0.0000 0.0000 9.6981
#
#
#
# Elastic Compliance Matrix: (Units=1/GPa)
#
#
# Indices 1 2 3 4 5 6 
#
# 1 0.028960 0.001361 0.005218 0.000000 0.000000 0.000000
# 2 0.001361 0.007786 -0.002404 0.000000 0.000000 0.000000
# 3 0.005218 -0.002404 0.015143 0.000000 0.000000 0.000000
# 4 0.000000 0.000000 0.000000 0.028070 0.000000 0.000000
# 5 0.000000 0.000000 0.000000 0.000000 0.165068 0.000000
# 6 0.000000 0.000000 0.000000 0.000000 0.000000 0.103113
#
#
# Mechanical properties :
#
#
# Convention : Reuss Voigt Hill
#
# Bulk Modulus (GPa) = 16.60019 27.89510 22.24765
# Shear Modulus (GPa) = 13.89391 27.03612 20.46501
#
# Velocity S-wave (km/s) = 2.37024 3.30637 2.87664
# Velocity P-wave (km/s) = 3.76869 5.08484 4.47541
#
# Compressibility (1/GPa) = 0.06024026
#
# Stress axis : x y z
#
# Youngs Moduli (GPa) = 34.53068 128.43067 66.03607
#
# Poissons Ratio (x) = -0.17484 -0.34458
# Poissons Ratio (y) = -0.04701 0.15875
# Poissons Ratio (z) = -0.18018 0.30874
#
# Static dielectric constant tensor:
#      x y z
#    x 2.459110 0.000000 0.000000 
#    y 0.000000 1.974350 0.000000 
#    z 0.000000 0.000000 2.096970 
# 
# From -- ./inp_files/8071.got.cif
#   From: 2010.05.17/outbox.cif.g08.bks.cpg/sg43_5_cif.got.tgz:8071.got - 2010.06.03 19:21:55.
