data_PCOD9370653
_publ_section_title
;
Structure prediction by ZEFSAII (Michael W. Deem and Ramdas Pophale) SiO2 
 PCOD9370653
Probable space group: F D D 2
;
_chemical_formula_sum "Si O2"
_cell_formula_units_Z 88
_cell_length_a 12.667369
_cell_length_b 13.596094
_cell_length_c 25.308394
_cell_angle_alpha 90.000000
_cell_angle_beta 90.000000
_cell_angle_gamma 90.000000
_cell_volume 4358.782185
_symmetry_space_group_name_H-M "F D D 2"
_symmetry_group_IT_number 43
_symmetry_cell_setting 'orthorhombic'
loop_
_space_group_symop_operation_xyz
x,y,z
-x,-y,z
1/4-x,1/4+y,1/4+z
1/4+x,1/4-y,1/4+z
x,1/2+y,1/2+z
-x,1/2-y,1/2+z
1/4-x,3/4+y,3/4+z
1/4+x,3/4-y,3/4+z
1/2+x,y,1/2+z
1/2-x,-y,1/2+z
3/4-x,1/4+y,3/4+z
3/4+x,1/4-y,3/4+z
1/2+x,1/2+y,z
1/2-x,1/2-y,z
3/4-x,3/4+y,1/4+z
3/4+x,3/4-y,1/4+z
loop_
_atom_site_type_symbol
_atom_site_label
_atom_site_fract_x
_atom_site_fract_y
_atom_site_fract_z
Si Si1 0.628369 0.274897 0.764520
Si Si2 0.868315 0.934090 0.681174
Si Si3 0.654440 0.108879 0.399052
Si Si4 0.657148 0.485597 0.793073
Si Si5 0.402146 0.438275 0.294025
Si Si6 0.000000 0.500000 0.897134
O O1 0.750000 0.250000 0.775058
O O2 0.615999 0.296630 0.702225
O O3 0.606676 0.376726 0.794599
O O4 0.572195 0.175406 0.782408
O O5 0.786744 0.845087 0.678294
O O6 0.974376 0.894715 0.653742
O O7 0.839337 0.038519 0.654011
O O8 0.887683 0.958756 0.742209
O O9 0.640438 0.046187 0.346372
O O10 0.782807 0.468980 0.779729
O O11 0.500000 0.500000 0.269897
O O12 0.410669 0.462325 0.356370
#
# Coordination Sequence:
#
# PCOD9370653 Si02
#       6
#    16  16  16  16  16   8
#     4   9  20  39  57  85 121 150 202 249 296 374
#     4  10  22  36  60  90 117 155 207 251 298 371
#     4  10  20  40  59  85 120 159 200 251 307 361
#     4  10  20  40  61  84 121 162 197 255 309 352
#     4   9  19  38  59  86 120 159 198 251 305 361
#     4  10  20  38  58  90 118 152 202 246 302 360
#
# _framework density 20.189126000000002
#
# number of rings (size 3 to 8) (size 9 to 14) (size 15 to 20)
#    0.545    1.818    1.818    0.000    0.000    4.364 
#   16.364    0.909    0.000    0.000    0.000    0.000 
#    0.000    0.000    0.000    0.000    0.000    0.000 
#
# Total GULP energy -122583.310911 kJ/mol
# GULP energy per Si atom -5571.968678 kJ/mol
# Density = 2.014317 g / cm^3
# Si number density = 20.189126 Si / 1000 Ang^3
#
#
#
# Elastic Constant Matrix: (Units=GPa)
#
#
# Indices 1 2 3 4 5 6 
#
# 1 50.5202 32.2176 0.3438 0.0000 0.0000 0.0000
# 2 32.2176 197.4844 93.1022 0.0000 0.0000 0.0000
# 3 0.3438 93.1022 107.9068 0.0000 0.0000 0.0000
# 4 0.0000 0.0000 0.0000 191.0039 0.0000 0.0000
# 5 0.0000 0.0000 0.0000 0.0000 17.4936 0.0000
# 6 0.0000 0.0000 0.0000 0.0000 0.0000 32.1156
#
#
#
# Elastic Compliance Matrix: (Units=1/GPa)
#
#
# Indices 1 2 3 4 5 6 
#
# 1 0.023911 -0.006515 0.005545 0.000000 0.000000 0.000000
# 2 -0.006515 0.010311 -0.008875 0.000000 0.000000 0.000000
# 3 0.005545 -0.008875 0.016907 0.000000 0.000000 0.000000
# 4 0.000000 0.000000 0.000000 0.005235 0.000000 0.000000
# 5 0.000000 0.000000 0.000000 0.000000 0.057164 0.000000
# 6 0.000000 0.000000 0.000000 0.000000 0.000000 0.031137
#
#
# Mechanical properties :
#
#
# Convention : Reuss Voigt Hill
#
# Bulk Modulus (GPa) = 31.80837 67.47095 49.63966
# Shear Modulus (GPa) = 28.59823 63.47249 46.03536
#
# Velocity S-wave (km/s) = 3.76775 5.61313 4.78033
# Velocity P-wave (km/s) = 5.89214 8.68917 7.42357
#
# Compressibility (1/GPa) = 0.03143827
#
# Stress axis : x y z
#
# Youngs Moduli (GPa) = 41.82174 96.98604 59.14603
#
# Poissons Ratio (x) = 0.63186 -0.32796
# Poissons Ratio (y) = 0.27247 0.52494
# Poissons Ratio (z) = -0.23190 0.86079
#
# Static dielectric constant tensor:
#      x y z
#    x 1.791920 0.000000 0.000000 
#    y 0.000000 1.695770 0.000000 
#    z 0.000000 0.000000 1.677260 
# 
# From -- ./inp_files/17548.got.cif
#   From: 2010.05.17/outbox.cif.g08.bks.cpg/sg43_9_cif.got.tgz:17548.got - 2010.06.03 19:21:55.
