data_PCOD9370367
_publ_section_title
;
Structure prediction by ZEFSAII (Michael W. Deem and Ramdas Pophale) SiO2 
 PCOD9370367
Probable space group: F D D 2
;
_chemical_formula_sum "Si O2"
_cell_formula_units_Z 96
_cell_length_a 33.165969
_cell_length_b 11.694355
_cell_length_c 11.705950
_cell_angle_alpha 90.000000
_cell_angle_beta 90.000000
_cell_angle_gamma 90.000000
_cell_volume 4540.206735
_symmetry_space_group_name_H-M "F D D 2"
_symmetry_group_IT_number 43
_symmetry_cell_setting 'orthorhombic'
loop_
_space_group_symop_operation_xyz
x,y,z
-x,-y,z
1/4-x,1/4+y,1/4+z
1/4+x,1/4-y,1/4+z
x,1/2+y,1/2+z
-x,1/2-y,1/2+z
1/4-x,3/4+y,3/4+z
1/4+x,3/4-y,3/4+z
1/2+x,y,1/2+z
1/2-x,-y,1/2+z
3/4-x,1/4+y,3/4+z
3/4+x,1/4-y,3/4+z
1/2+x,1/2+y,z
1/2-x,1/2-y,z
3/4-x,3/4+y,1/4+z
3/4+x,3/4-y,1/4+z
loop_
_atom_site_type_symbol
_atom_site_label
_atom_site_fract_x
_atom_site_fract_y
_atom_site_fract_z
Si Si1 0.833167 0.669015 0.654740
Si Si2 0.086849 0.005689 0.831740
Si Si3 0.750932 0.443412 0.387208
Si Si4 0.500000 0.000000 0.332626
Si Si5 0.163337 0.442622 0.893072
Si Si6 0.083225 0.266542 0.220204
Si Si7 0.000000 0.500000 0.945313
O O1 0.834426 0.648578 0.790280
O O2 0.874257 0.731626 0.622152
O O3 0.830810 0.548896 0.589866
O O4 0.791876 0.736501 0.628449
O O5 0.043200 0.002652 0.893826
O O6 0.084703 0.902044 0.741490
O O7 0.091200 0.123269 0.761226
O O8 0.125688 0.984513 0.907798
O O9 0.749190 0.359252 0.497638
O O10 0.707222 0.503194 0.387997
O O11 0.792465 0.511268 0.400357
O O12 0.753783 0.361291 0.276885
#
# Coordination Sequence:
#
# PCOD9370367 Si02
#       7
#    16  16  16   8  16  16   8
#     4  11  22  35  55  85 118 146 183 241 298 342
#     4  10  19  36  58  79 106 146 190 227 273 340
#     4   8  16  33  55  75  99 140 192 229 262 327
#     4   7  14  30  54  75  96 130 184 231 252 301
#     4  10  20  37  59  81 108 151 197 235 279 352
#     4  11  21  35  54  84 116 142 177 236 292 332
#     4   9  18  36  56  75 102 150 198 229 272 353
#
# _framework density 21.144411999999999
#
# number of rings (size 3 to 8) (size 9 to 14) (size 15 to 20)
#    0.000    2.333    0.000    6.000    0.000    1.333 
#    0.000   13.333    0.000    1.000    0.000    0.000 
#    0.000    0.000    0.000    0.000    0.000    0.000 
#
# Total GULP energy -133811.554774 kJ/mol
# GULP energy per Si atom -5575.481449 kJ/mol
# Density = 2.109629 g / cm^3
# Si number density = 21.144412 Si / 1000 Ang^3
#
#
#
# Elastic Constant Matrix: (Units=GPa)
#
#
# Indices 1 2 3 4 5 6 
#
# 1 227.3031 23.0136 24.2405 0.0000 0.0000 0.0000
# 2 23.0136 24.8711 -5.0736 0.0000 0.0000 0.0000
# 3 24.2405 -5.0736 26.6999 0.0000 0.0000 0.0000
# 4 0.0000 0.0000 0.0000 19.5993 0.0000 0.0000
# 5 0.0000 0.0000 0.0000 0.0000 23.5661 0.0000
# 6 0.0000 0.0000 0.0000 0.0000 0.0000 26.1576
#
#
#
# Elastic Compliance Matrix: (Units=1/GPa)
#
#
# Indices 1 2 3 4 5 6 
#
# 1 0.005767 -0.006663 -0.006502 0.000000 0.000000 0.000000
# 2 -0.006663 0.049527 0.015461 0.000000 0.000000 0.000000
# 3 -0.006502 0.015461 0.046295 0.000000 0.000000 0.000000
# 4 0.000000 0.000000 0.000000 0.051022 0.000000 0.000000
# 5 0.000000 0.000000 0.000000 0.000000 0.042434 0.000000
# 6 0.000000 0.000000 0.000000 0.000000 0.000000 0.038230
#
#
# Mechanical properties :
#
#
# Convention : Reuss Voigt Hill
#
# Bulk Modulus (GPa) = 9.41806 40.35945 24.88876
# Shear Modulus (GPa) = 18.93384 29.64418 24.28901
#
# Velocity S-wave (km/s) = 2.99566 3.74837 3.39295
# Velocity P-wave (km/s) = 4.05329 6.15327 5.21017
#
# Compressibility (1/GPa) = 0.10617892
#
# Stress axis : x y z
#
# Youngs Moduli (GPa) = 173.38621 20.19114 21.60076
#
# Poissons Ratio (x) = 0.13454 0.14046
# Poissons Ratio (y) = 1.15530 -0.33396
# Poissons Ratio (z) = 1.12742 -0.31217
#
# Static dielectric constant tensor:
#      x y z
#    x 1.852600 0.000000 0.000000 
#    y 0.000000 1.750350 0.000000 
#    z 0.000000 0.000000 1.740720 
# 
# From -- ./inp_files/6289.got.cif
#   From: 2010.05.17/outbox.cif.g08.bks.cpg/sg43_4_cif.got.tgz:6289.got - 2010.06.03 19:21:55.
