data_PCOD9370687
_publ_section_title
;
Structure prediction by ZEFSAII (Michael W. Deem and Ramdas Pophale) SiO2 
 PCOD9370687
Probable space group: F D D 2
;
_chemical_formula_sum "Si O2"
_cell_formula_units_Z 72
_cell_length_a 7.889491
_cell_length_b 14.165201
_cell_length_c 29.066680
_cell_angle_alpha 90.000000
_cell_angle_beta 90.000000
_cell_angle_gamma 90.000000
_cell_volume 3248.382453
_symmetry_space_group_name_H-M "F D D 2"
_symmetry_group_IT_number 43
_symmetry_cell_setting 'orthorhombic'
loop_
_space_group_symop_operation_xyz
x,y,z
-x,-y,z
1/4-x,1/4+y,1/4+z
1/4+x,1/4-y,1/4+z
x,1/2+y,1/2+z
-x,1/2-y,1/2+z
1/4-x,3/4+y,3/4+z
1/4+x,3/4-y,3/4+z
1/2+x,y,1/2+z
1/2-x,-y,1/2+z
3/4-x,1/4+y,3/4+z
3/4+x,1/4-y,3/4+z
1/2+x,1/2+y,z
1/2-x,1/2-y,z
3/4-x,3/4+y,1/4+z
3/4+x,3/4-y,1/4+z
loop_
_atom_site_type_symbol
_atom_site_label
_atom_site_fract_x
_atom_site_fract_y
_atom_site_fract_z
Si Si1 0.161701 0.105911 0.695130
Si Si2 0.761927 0.533311 0.433723
Si Si3 0.500000 0.000000 0.515904
Si Si4 0.498997 0.607880 0.796717
Si Si5 0.062467 0.801799 0.884192
O O1 0.031731 0.176507 0.669296
O O2 0.339188 0.159899 0.690334
O O3 0.101603 0.103702 0.748360
O O4 0.202526 0.006464 0.671315
O O5 0.883607 0.595978 0.402843
O O6 0.844914 0.526618 0.483550
O O7 0.438996 0.901943 0.538363
O O8 0.500000 0.500000 0.812524
O O9 0.544859 0.680819 0.837610
O O10 0.250000 0.750000 0.877474
#
# Coordination Sequence:
#
# PCOD9370687 Si02
#       5
#    16  16   8  16  16
#     4   9  20  40  63  91 129 172 218 270 337 400
#     4   9  19  37  66  88 123 175 215 268 337 396
#     4  10  20  38  64  90 128 170 216 278 338 390
#     4  11  22  38  63  96 130 167 226 274 332 407
#     4  10  20  39  66  94 132 176 219 275 334 400
#
# _framework density 22.164878000000002
#
# number of rings (size 3 to 8) (size 9 to 14) (size 15 to 20)
#    0.000    2.222    1.111    1.333    1.556    0.000 
#    0.000    8.889    4.889    0.000    0.000    0.000 
#    0.000    0.000    0.000    0.000    0.000    0.000 
#
# Total GULP energy -100238.356588 kJ/mol
# GULP energy per Si atom -5568.797588 kJ/mol
# Density = 2.211443 g / cm^3
# Si number density = 22.164878 Si / 1000 Ang^3
#
#
#
# Elastic Constant Matrix: (Units=GPa)
#
#
# Indices 1 2 3 4 5 6 
#
# 1 88.1394 58.1962 32.5605 0.0000 0.0000 0.0000
# 2 58.1962 159.6922 64.8213 0.0000 0.0000 0.0000
# 3 32.5605 64.8213 117.5302 0.0000 0.0000 0.0000
# 4 0.0000 0.0000 0.0000 38.9723 0.0000 0.0000
# 5 0.0000 0.0000 0.0000 0.0000 14.6029 0.0000
# 6 0.0000 0.0000 0.0000 0.0000 0.0000 35.5876
#
#
#
# Elastic Compliance Matrix: (Units=1/GPa)
#
#
# Indices 1 2 3 4 5 6 
#
# 1 0.015139 -0.004915 -0.001483 0.000000 0.000000 0.000000
# 2 -0.004915 0.009664 -0.003968 0.000000 0.000000 0.000000
# 3 -0.001483 -0.003968 0.011108 0.000000 0.000000 0.000000
# 4 0.000000 0.000000 0.000000 0.025659 0.000000 0.000000
# 5 0.000000 0.000000 0.000000 0.000000 0.068480 0.000000
# 6 0.000000 0.000000 0.000000 0.000000 0.000000 0.028100
#
#
# Mechanical properties :
#
#
# Convention : Reuss Voigt Hill
#
# Bulk Modulus (GPa) = 65.88618 75.16866 70.52742
# Shear Modulus (GPa) = 27.18252 31.81814 29.50033
#
# Velocity S-wave (km/s) = 3.50577 3.79294 3.65218
# Velocity P-wave (km/s) = 6.79538 7.29170 7.04791
#
# Compressibility (1/GPa) = 0.01517769
#
# Stress axis : x y z
#
# Youngs Moduli (GPa) = 66.05531 103.47703 90.02472
#
# Poissons Ratio (x) = 0.50858 0.13354
# Poissons Ratio (y) = 0.32466 0.35725
# Poissons Ratio (z) = 0.09798 0.41063
#
# Static dielectric constant tensor:
#      x y z
#    x 1.857110 0.000000 0.000000 
#    y 0.000000 1.857640 0.000000 
#    z 0.000000 0.000000 1.898840 
# 
# From -- ./inp_files/23955.got.cif
#   From: 2010.05.17/outbox.cif.g08.bks.cpg/sg43_12_cif.got.tgz:23955.got - 2010.06.03 19:21:55.
