data_PCOD9370465
_publ_section_title
;
Structure prediction by ZEFSAII (Michael W. Deem and Ramdas Pophale) SiO2 
 PCOD9370465
Probable space group: F D D 2
;
_chemical_formula_sum "Si O2"
_cell_formula_units_Z 120
_cell_length_a 13.464591
_cell_length_b 14.189168
_cell_length_c 34.224667
_cell_angle_alpha 90.000000
_cell_angle_beta 90.000000
_cell_angle_gamma 90.000000
_cell_volume 6538.668620
_symmetry_space_group_name_H-M "F D D 2"
_symmetry_group_IT_number 43
_symmetry_cell_setting 'orthorhombic'
loop_
_space_group_symop_operation_xyz
x,y,z
-x,-y,z
1/4-x,1/4+y,1/4+z
1/4+x,1/4-y,1/4+z
x,1/2+y,1/2+z
-x,1/2-y,1/2+z
1/4-x,3/4+y,3/4+z
1/4+x,3/4-y,3/4+z
1/2+x,y,1/2+z
1/2-x,-y,1/2+z
3/4-x,1/4+y,3/4+z
3/4+x,1/4-y,3/4+z
1/2+x,1/2+y,z
1/2-x,1/2-y,z
3/4-x,3/4+y,1/4+z
3/4+x,3/4-y,1/4+z
loop_
_atom_site_type_symbol
_atom_site_label
_atom_site_fract_x
_atom_site_fract_y
_atom_site_fract_z
Si Si1 0.400680 0.558827 0.085470
Si Si2 0.750000 0.750000 0.109042
Si Si3 0.586125 0.580353 0.403292
Si Si4 0.693087 0.114217 0.544267
Si Si5 0.253349 0.141917 0.733967
Si Si6 0.720017 0.357569 0.461199
Si Si7 0.500628 0.743986 0.051729
Si Si8 0.036313 0.778600 0.637300
O O1 0.500000 0.500000 0.098144
O O2 0.329944 0.587033 0.121479
O O3 0.347317 0.485823 0.057364
O O4 0.429597 0.655721 0.062950
O O5 0.755882 0.660265 0.079698
O O6 0.850316 0.757320 0.134367
O O7 0.500000 0.500000 0.397095
O O8 0.579038 0.610994 0.448020
O O9 0.698341 0.544736 0.396402
O O10 0.744281 0.102469 0.502781
O O11 0.603118 0.190022 0.540971
O O12 0.250000 0.250000 0.749080
O O13 0.147963 0.121694 0.712699
O O14 0.274303 0.064957 0.766991
O O15 0.750000 0.250000 0.462579
O O16 0.770710 0.399085 0.422448
O O17 0.513491 0.803024 0.091931
#
# Coordination Sequence:
#
# PCOD9370465 Si02
#       8
#    16   8  16  16  16  16  16  16
#     4   9  20  39  66  90 121 173 213 259 323 379
#     4  10  20  40  64  92 124 164 212 274 314 384
#     4  10  20  41  63  88 133 168 210 259 321 383
#     4  10  19  39  63  87 127 166 210 267 328 370
#     4  11  21  39  65  87 126 177 207 253 333 379
#     4  12  21  37  60  91 125 165 206 268 320 371
#     4   9  19  40  63  91 125 165 216 265 310 390
#     4  10  21  39  61  92 125 160 211 265 315 375
#
# _framework density 18.352360000000001
#
# number of rings (size 3 to 8) (size 9 to 14) (size 15 to 20)
#    0.000    1.867    4.667    1.600    0.000    1.600 
#    8.400    4.000    0.000    0.000    0.000    0.000 
#    0.000    0.000    0.000    0.000    0.000    0.000 
#
# Total GULP energy -167016.985231 kJ/mol
# GULP energy per Si atom -5567.232841 kJ/mol
# Density = 1.831059 g / cm^3
# Si number density = 18.352360 Si / 1000 Ang^3
#
#
#
# Elastic Constant Matrix: (Units=GPa)
#
#
# Indices 1 2 3 4 5 6 
#
# 1 74.2566 26.4191 50.4274 0.0000 0.0000 0.0000
# 2 26.4191 95.2240 47.8942 0.0000 0.0000 0.0000
# 3 50.4274 47.8942 127.2715 0.0000 0.0000 0.0000
# 4 0.0000 0.0000 0.0000 26.5882 0.0000 0.0000
# 5 0.0000 0.0000 0.0000 0.0000 13.0244 0.0000
# 6 0.0000 0.0000 0.0000 0.0000 0.0000 13.8250
#
#
#
# Elastic Compliance Matrix: (Units=1/GPa)
#
#
# Indices 1 2 3 4 5 6 
#
# 1 0.018671 -0.001800 -0.006720 0.000000 0.000000 0.000000
# 2 -0.001800 0.013127 -0.004227 0.000000 0.000000 0.000000
# 3 -0.006720 -0.004227 0.012111 0.000000 0.000000 0.000000
# 4 0.000000 0.000000 0.000000 0.037611 0.000000 0.000000
# 5 0.000000 0.000000 0.000000 0.000000 0.076779 0.000000
# 6 0.000000 0.000000 0.000000 0.000000 0.000000 0.072333
#
#
# Mechanical properties :
#
#
# Convention : Reuss Voigt Hill
#
# Bulk Modulus (GPa) = 54.30579 60.69260 57.49919
# Shear Modulus (GPa) = 19.06486 22.15496 20.60991
#
# Velocity S-wave (km/s) = 3.22657 3.47825 3.35477
# Velocity P-wave (km/s) = 6.59818 7.01951 6.81210
#
# Compressibility (1/GPa) = 0.01841424
#
# Stress axis : x y z
#
# Youngs Moduli (GPa) = 53.55880 76.18021 82.57276
#
# Poissons Ratio (x) = 0.13712 0.55493
# Poissons Ratio (y) = 0.09640 0.34900
# Poissons Ratio (z) = 0.35994 0.32198
#
# Static dielectric constant tensor:
#      x y z
#    x 1.694420 0.000000 0.000000 
#    y 0.000000 1.661620 0.000000 
#    z 0.000000 0.000000 1.681090 
# 
# From -- ./inp_files/29223.got.cif
#   From: 2010.05.17/outbox.cif.g08.bks.cpg/sg43_15_cif.got.tgz:29223.got - 2010.06.03 19:21:55.
