data_PCOD9370512
_publ_section_title
;
Structure prediction by ZEFSAII (Michael W. Deem and Ramdas Pophale) SiO2 
 PCOD9370512
Probable space group: F D D 2
;
_chemical_formula_sum "Si O2"
_cell_formula_units_Z 120
_cell_length_a 16.451310
_cell_length_b 11.968995
_cell_length_c 29.830415
_cell_angle_alpha 90.000000
_cell_angle_beta 90.000000
_cell_angle_gamma 90.000000
_cell_volume 5873.777170
_symmetry_space_group_name_H-M "F D D 2"
_symmetry_group_IT_number 43
_symmetry_cell_setting 'orthorhombic'
loop_
_space_group_symop_operation_xyz
x,y,z
-x,-y,z
1/4-x,1/4+y,1/4+z
1/4+x,1/4-y,1/4+z
x,1/2+y,1/2+z
-x,1/2-y,1/2+z
1/4-x,3/4+y,3/4+z
1/4+x,3/4-y,3/4+z
1/2+x,y,1/2+z
1/2-x,-y,1/2+z
3/4-x,1/4+y,3/4+z
3/4+x,1/4-y,3/4+z
1/2+x,1/2+y,z
1/2-x,1/2-y,z
3/4-x,3/4+y,1/4+z
3/4+x,3/4-y,1/4+z
loop_
_atom_site_type_symbol
_atom_site_label
_atom_site_fract_x
_atom_site_fract_y
_atom_site_fract_z
Si Si1 0.683767 0.939218 0.143690
Si Si2 0.167530 0.605485 0.324153
Si Si3 0.418212 0.232315 0.751100
Si Si4 0.250000 0.750000 0.706397
Si Si5 0.809966 0.344134 0.572226
Si Si6 0.607417 0.200383 0.770005
Si Si7 0.334025 0.314739 0.662470
Si Si8 0.398282 0.784897 0.061570
O O1 0.598467 0.934854 0.116784
O O2 0.701904 0.839843 0.177237
O O3 0.754076 0.918231 0.105552
O O4 0.686017 0.055108 0.169438
O O5 0.122502 0.671009 0.283146
O O6 0.122701 0.493817 0.342296
O O7 0.256523 0.566708 0.311129
O O8 0.515622 0.217162 0.752062
O O9 0.390099 0.262402 0.701126
O O10 0.388307 0.117882 0.774172
O O11 0.319822 0.808931 0.735013
O O12 0.750000 0.250000 0.549229
O O13 0.864144 0.430629 0.545010
O O14 0.619415 0.090881 0.800361
O O15 0.250000 0.250000 0.664257
O O16 0.368251 0.307233 0.612075
#
# Coordination Sequence:
#
# PCOD9370512 Si02
#       8
#    16  16  16   8  16  16  16  16
#     4  11  23  45  69 104 147 190 245 306 363 446
#     4  11  22  44  73 104 145 194 238 309 378 434
#     4  12  26  46  73 108 147 194 250 311 369 453
#     4  12  28  42  70 106 148 186 240 306 370 442
#     4  10  19  42  72  97 138 194 236 297 370 429
#     4  12  26  46  71 106 146 192 239 306 377 439
#     4  12  27  44  75 107 143 198 254 303 375 453
#     4  12  26  48  74 106 150 190 246 311 381 443
#
# _framework density 20.429784999999999
#
# number of rings (size 3 to 8) (size 9 to 14) (size 15 to 20)
#    0.000    0.533    6.000    4.000    7.467    0.000 
#    0.000    0.000    2.933    0.000    0.000    0.000 
#    0.000    0.000    0.000    0.000    0.000    0.000 
#
# Total GULP energy -167160.669376 kJ/mol
# GULP energy per Si atom -5572.022313 kJ/mol
# Density = 2.038329 g / cm^3
# Si number density = 20.429785 Si / 1000 Ang^3
#
#
#
# Elastic Constant Matrix: (Units=GPa)
#
#
# Indices 1 2 3 4 5 6 
#
# 1 104.8962 27.2304 7.2821 0.0000 0.0000 0.0000
# 2 27.2304 127.4448 45.8498 0.0000 0.0000 0.0000
# 3 7.2821 45.8498 63.5039 0.0000 0.0000 0.0000
# 4 0.0000 0.0000 0.0000 10.1053 0.0000 0.0000
# 5 0.0000 0.0000 0.0000 0.0000 11.8793 0.0000
# 6 0.0000 0.0000 0.0000 0.0000 0.0000 26.0635
#
#
#
# Elastic Compliance Matrix: (Units=1/GPa)
#
#
# Indices 1 2 3 4 5 6 
#
# 1 0.010107 -0.002354 0.000541 0.000000 0.000000 0.000000
# 2 -0.002354 0.011148 -0.007779 0.000000 0.000000 0.000000
# 3 0.000541 -0.007779 0.021301 0.000000 0.000000 0.000000
# 4 0.000000 0.000000 0.000000 0.098958 0.000000 0.000000
# 5 0.000000 0.000000 0.000000 0.000000 0.084180 0.000000
# 6 0.000000 0.000000 0.000000 0.000000 0.000000 0.038368
#
#
# Mechanical properties :
#
#
# Convention : Reuss Voigt Hill
#
# Bulk Modulus (GPa) = 42.78683 50.72993 46.75838
# Shear Modulus (GPa) = 17.17993 23.97514 20.57753
#
# Velocity S-wave (km/s) = 2.90302 3.42941 3.17713
# Velocity P-wave (km/s) = 5.67675 6.36918 6.03291
#
# Compressibility (1/GPa) = 0.02337168
#
# Stress axis : x y z
#
# Youngs Moduli (GPa) = 98.94353 89.70171 46.94513
#
# Poissons Ratio (x) = 0.21115 -0.02538
# Poissons Ratio (y) = 0.23291 0.36518
# Poissons Ratio (z) = -0.05349 0.69779
#
# Static dielectric constant tensor:
#      x y z
#    x 1.818080 0.000000 0.000000 
#    y 0.000000 1.787220 0.000000 
#    z 0.000000 0.000000 1.784410 
# 
# From -- ./inp_files/26055.got.cif
#   From: 2010.05.17/outbox.cif.g08.bks.cpg/sg43_14_cif.got.tgz:26055.got - 2010.06.03 19:21:55.
