data_PCOD9370102
_publ_section_title
;
Structure prediction by ZEFSAII (Michael W. Deem and Ramdas Pophale) SiO2 
 PCOD9370102
Probable space group: F D D 2
;
_chemical_formula_sum "Si O2"
_cell_formula_units_Z 120
_cell_length_a 26.844464
_cell_length_b 26.123648
_cell_length_c 7.230506
_cell_angle_alpha 90.000000
_cell_angle_beta 90.000000
_cell_angle_gamma 90.000000
_cell_volume 5070.575469
_symmetry_space_group_name_H-M "F D D 2"
_symmetry_group_IT_number 43
_symmetry_cell_setting 'orthorhombic'
loop_
_space_group_symop_operation_xyz
x,y,z
-x,-y,z
1/4-x,1/4+y,1/4+z
1/4+x,1/4-y,1/4+z
x,1/2+y,1/2+z
-x,1/2-y,1/2+z
1/4-x,3/4+y,3/4+z
1/4+x,3/4-y,3/4+z
1/2+x,y,1/2+z
1/2-x,-y,1/2+z
3/4-x,1/4+y,3/4+z
3/4+x,1/4-y,3/4+z
1/2+x,1/2+y,z
1/2-x,1/2-y,z
3/4-x,3/4+y,1/4+z
3/4+x,3/4-y,1/4+z
loop_
_atom_site_type_symbol
_atom_site_label
_atom_site_fract_x
_atom_site_fract_y
_atom_site_fract_z
Si Si1 0.955582 0.802088 0.980070
Si Si2 0.633680 0.087019 0.744871
Si Si3 0.384451 0.783836 0.985917
Si Si4 0.529416 0.592365 0.057675
Si Si5 0.562017 0.388800 0.320764
Si Si6 0.345202 0.311927 0.070906
Si Si7 0.250000 0.250000 0.075281
Si Si8 0.258120 0.054191 0.655790
O O1 0.982375 0.751220 0.914529
O O2 0.969835 0.859367 0.918270
O O3 0.896291 0.797531 0.968218
O O4 0.973961 0.807692 0.193316
O O5 0.576161 0.095115 0.694954
O O6 0.650352 0.104530 0.947786
O O7 0.659629 0.126269 0.598792
O O8 0.642836 0.026844 0.737279
O O9 0.345096 0.811995 0.120758
O O10 0.360966 0.795284 0.782104
O O11 0.439884 0.806356 0.014919
O O12 0.480272 0.591338 0.180652
O O13 0.531028 0.540368 0.945514
O O14 0.531326 0.349252 0.447996
O O15 0.294982 0.285316 0.996328
#
# Coordination Sequence:
#
# PCOD9370102 Si02
#       8
#    16  16  16  16  16  16   8  16
#     4   9  20  36  53  83 111 146 182 228 269 331
#     4  10  17  29  49  77 108 138 173 225 272 327
#     4  10  17  29  50  76 105 139 173 224 274 321
#     4  10  17  28  51  82 111 137 176 229 281 311
#     4  10  18  30  47  78 107 138 178 220 271 322
#     4   9  19  29  49  80 112 134 179 226 278 314
#     4  12  16  30  52  86 108 140 178 242 278 308
#     4  10  20  34  57  76 111 145 185 226 274 322
#
# _framework density 23.665953999999999
#
# number of rings (size 3 to 8) (size 9 to 14) (size 15 to 20)
#    0.000    2.133    4.000    4.000    0.000    0.000 
#    0.000    0.000    5.867    0.000    0.000    0.933 
#    0.000    0.000    0.000    0.000    0.000    0.000 
#
# Total GULP energy -167264.854415 kJ/mol
# GULP energy per Si atom -5575.495147 kJ/mol
# Density = 2.361209 g / cm^3
# Si number density = 23.665954 Si / 1000 Ang^3
#
#
#
# Elastic Constant Matrix: (Units=GPa)
#
#
# Indices 1 2 3 4 5 6 
#
# 1 187.5924 72.9533 31.2425 0.0020 -0.0045 0.0002
# 2 72.9533 173.5632 13.9637 0.0089 -0.0143 -0.0013
# 3 31.2425 13.9637 33.3150 0.0192 -0.0293 -0.0053
# 4 0.0020 0.0089 0.0192 11.9526 -0.0193 -0.0022
# 5 -0.0045 -0.0143 -0.0293 -0.0193 17.8104 0.0045
# 6 0.0002 -0.0013 -0.0053 -0.0022 0.0045 44.7018
#
#
#
# Elastic Compliance Matrix: (Units=1/GPa)
#
#
# Indices 1 2 3 4 5 6 
#
# 1 0.007303 -0.002607 -0.005756 0.000010 -0.000010 -0.000001
# 2 -0.002607 0.006893 -0.000445 -0.000004 0.000004 0.000000
# 3 -0.005756 -0.000445 0.035601 -0.000056 0.000057 0.000004
# 4 0.000010 -0.000004 -0.000056 0.083664 0.000091 0.000004
# 5 -0.000010 0.000004 0.000057 0.000091 0.056147 -0.000006
# 6 -0.000001 0.000000 0.000004 0.000004 -0.000006 0.022370
#
#
# Mechanical properties :
#
#
# Convention : Reuss Voigt Hill
#
# Bulk Modulus (GPa) = 31.07309 70.08774 50.58041
# Shear Modulus (GPa) = 20.80551 33.31371 27.05961
#
# Velocity S-wave (km/s) = 2.96823 3.75596 3.38509
# Velocity P-wave (km/s) = 4.99055 6.96343 6.05784
#
# Compressibility (1/GPa) = 0.03218219
#
# Stress axis : x y z
#
# Youngs Moduli (GPa) = 136.92902 145.07518 28.08894
#
# Poissons Ratio (x) = 0.37815 0.16169
# Poissons Ratio (y) = 0.35691 0.01249
# Poissons Ratio (z) = 0.78820 0.06452
#
# Static dielectric constant tensor:
#      x y z
#    x 1.909130 0.000000 0.000000 
#    y 0.000000 1.981870 -0.000010 
#    z 0.000000 -0.000010 2.001580 
# 
# From -- ./inp_files/8077.got.cif
#   From: 2010.05.17/outbox.cif.g08.bks.cpg/sg43_5_cif.got.tgz:8077.got - 2010.06.03 19:21:55.
