data_PCOD9370707
_publ_section_title
;
Structure prediction by ZEFSAII (Michael W. Deem and Ramdas Pophale) SiO2 
 PCOD9370707
Probable space group: F D D 2
;
_chemical_formula_sum "Si O2"
_cell_formula_units_Z 112
_cell_length_a 25.355245
_cell_length_b 14.185616
_cell_length_c 12.394913
_cell_angle_alpha 90.000000
_cell_angle_beta 90.000000
_cell_angle_gamma 90.000000
_cell_volume 4458.199447
_symmetry_space_group_name_H-M "F D D 2"
_symmetry_group_IT_number 43
_symmetry_cell_setting 'orthorhombic'
loop_
_space_group_symop_operation_xyz
x,y,z
-x,-y,z
1/4-x,1/4+y,1/4+z
1/4+x,1/4-y,1/4+z
x,1/2+y,1/2+z
-x,1/2-y,1/2+z
1/4-x,3/4+y,3/4+z
1/4+x,3/4-y,3/4+z
1/2+x,y,1/2+z
1/2-x,-y,1/2+z
3/4-x,1/4+y,3/4+z
3/4+x,1/4-y,3/4+z
1/2+x,1/2+y,z
1/2-x,1/2-y,z
3/4-x,3/4+y,1/4+z
3/4+x,3/4-y,1/4+z
loop_
_atom_site_type_symbol
_atom_site_label
_atom_site_fract_x
_atom_site_fract_y
_atom_site_fract_z
Si Si1 0.059477 0.150751 0.040480
Si Si2 0.195523 0.568553 0.872384
Si Si3 0.500000 0.500000 0.891863
Si Si4 0.461978 0.144443 0.234334
Si Si5 0.047192 0.277185 0.854339
Si Si6 0.750000 0.750000 0.810548
Si Si7 0.696701 0.397452 0.219647
Si Si8 0.120340 0.987846 0.051578
O O1 0.098535 0.084409 0.107943
O O2 0.009292 0.181689 0.109923
O O3 0.079372 0.226526 0.951554
O O4 0.034858 0.070637 0.961751
O O5 0.181240 0.470340 0.814680
O O6 0.175024 0.657626 0.802711
O O7 0.178556 0.576268 0.998100
O O8 0.457881 0.557082 0.818325
O O9 0.509003 0.201927 0.292969
O O10 0.483013 0.090035 0.130783
O O11 0.409763 0.208714 0.216308
O O12 0.005842 0.338925 0.921530
O O13 0.698379 0.788600 0.750246
O O14 0.661357 0.430457 0.122526
#
# Coordination Sequence:
#
# PCOD9370707 Si02
#       8
#    16  16   8  16  16   8  16  16
#     4  10  20  38  67  95 133 182 223 274 340 406
#     4  11  21  43  67  97 140 182 220 283 349 409
#     4   9  16  38  61  92 118 172 229 270 325 382
#     4   9  20  37  69  90 122 178 236 278 319 403
#     4   9  20  41  63  92 130 180 227 267 340 409
#     4  11  20  46  69  90 134 192 229 274 351 406
#     4  10  24  42  64  97 132 179 231 282 334 413
#     4  11  23  38  63 105 134 167 230 290 338 393
#
# _framework density 25.122250000000001
#
# number of rings (size 3 to 8) (size 9 to 14) (size 15 to 20)
#    0.000    2.000    2.857    0.857    0.000    3.429 
#    5.143    0.000    0.000    0.000    0.000    0.000 
#    0.000    0.000    0.000    0.000    0.000    0.000 
#
# Total GULP energy -155883.719571 kJ/mol
# GULP energy per Si atom -5567.275699 kJ/mol
# Density = 2.506507 g / cm^3
# Si number density = 25.122250 Si / 1000 Ang^3
#
#
#
# Elastic Constant Matrix: (Units=GPa)
#
#
# Indices 1 2 3 4 5 6 
#
# 1 51.7694 22.8737 0.9520 0.0000 0.0000 0.0000
# 2 22.8737 87.3486 23.2924 0.0000 0.0000 0.0000
# 3 0.9520 23.2924 104.7619 0.0000 0.0000 0.0000
# 4 0.0000 0.0000 0.0000 44.6050 0.0000 0.0000
# 5 0.0000 0.0000 0.0000 0.0000 19.5875 0.0000
# 6 0.0000 0.0000 0.0000 0.0000 0.0000 40.9405
#
#
#
# Elastic Compliance Matrix: (Units=1/GPa)
#
#
# Indices 1 2 3 4 5 6 
#
# 1 0.021973 -0.006060 0.001148 0.000000 0.000000 0.000000
# 2 -0.006060 0.013841 -0.003022 0.000000 0.000000 0.000000
# 3 0.001148 -0.003022 0.010207 0.000000 0.000000 0.000000
# 4 0.000000 0.000000 0.000000 0.022419 0.000000 0.000000
# 5 0.000000 0.000000 0.000000 0.000000 0.051053 0.000000
# 6 0.000000 0.000000 0.000000 0.000000 0.000000 0.024426
#
#
# Mechanical properties :
#
#
# Convention : Reuss Voigt Hill
#
# Bulk Modulus (GPa) = 33.16555 37.56845 35.36700
# Shear Modulus (GPa) = 29.43970 34.14405 31.79187
#
# Velocity S-wave (km/s) = 3.42695 3.69062 3.56123
# Velocity P-wave (km/s) = 5.37485 5.75740 5.56941
#
# Compressibility (1/GPa) = 0.03015177
#
# Stress axis : x y z
#
# Youngs Moduli (GPa) = 45.51068 72.24789 97.97196
#
# Poissons Ratio (x) = 0.43782 -0.11244
# Poissons Ratio (y) = 0.27580 0.29610
# Poissons Ratio (z) = -0.05223 0.21836
#
# Static dielectric constant tensor:
#      x y z
#    x 2.202720 0.000000 0.000000 
#    y 0.000000 2.103800 0.000000 
#    z 0.000000 0.000000 2.094000 
# 
# From -- ./inp_files/8308.got.cif
#   From: 2010.05.17/outbox.cif.g08.bks.cpg/sg43_5_cif.got.tgz:8308.got - 2010.06.03 19:21:55.
