data_PCOD9370305
_publ_section_title
;
Structure prediction by ZEFSAII (Michael W. Deem and Ramdas Pophale) SiO2 
 PCOD9370305
Probable space group: F D D 2
;
_chemical_formula_sum "Si O2"
_cell_formula_units_Z 88
_cell_length_a 5.721409
_cell_length_b 28.878136
_cell_length_c 20.423611
_cell_angle_alpha 90.000000
_cell_angle_beta 90.000000
_cell_angle_gamma 90.000000
_cell_volume 3374.463090
_symmetry_space_group_name_H-M "F D D 2"
_symmetry_group_IT_number 43
_symmetry_cell_setting 'orthorhombic'
loop_
_space_group_symop_operation_xyz
x,y,z
-x,-y,z
1/4-x,1/4+y,1/4+z
1/4+x,1/4-y,1/4+z
x,1/2+y,1/2+z
-x,1/2-y,1/2+z
1/4-x,3/4+y,3/4+z
1/4+x,3/4-y,3/4+z
1/2+x,y,1/2+z
1/2-x,-y,1/2+z
3/4-x,1/4+y,3/4+z
3/4+x,1/4-y,3/4+z
1/2+x,1/2+y,z
1/2-x,1/2-y,z
3/4-x,3/4+y,1/4+z
3/4+x,3/4-y,1/4+z
loop_
_atom_site_type_symbol
_atom_site_label
_atom_site_fract_x
_atom_site_fract_y
_atom_site_fract_z
Si Si1 0.997959 0.446132 0.925540
Si Si2 0.248557 0.803413 0.674140
Si Si3 0.253581 0.154694 0.533982
Si Si4 0.996687 0.873034 0.805551
Si Si5 0.750000 0.750000 0.456959
Si Si6 0.000521 0.767542 0.833154
O O1 0.249123 0.440599 0.959927
O O2 0.998659 0.413190 0.862385
O O3 0.000000 0.500000 0.902973
O O4 0.747388 0.440128 0.958567
O O5 0.250000 0.750000 0.650142
O O6 0.246150 0.837365 0.612152
O O7 0.504999 0.131481 0.519400
O O8 0.258527 0.204255 0.499463
O O9 0.001421 0.131571 0.518967
O O10 0.000294 0.822891 0.839727
O O11 0.966922 0.752931 0.406384
O O12 0.250000 0.750000 0.801911
O O13 0.750000 0.750000 0.806428
#
# Coordination Sequence:
#
# PCOD9370305 Si02
#       6
#    16  16  16  16   8  16
#     4   8  12  21  33  60  96 128 152 210 281 317
#     4   8  14  22  39  65 100 132 164 228 282 329
#     4  10  19  30  55  84 119 146 205 258 303 358
#     4  10  20  33  54  83 118 158 208 246 305 371
#     4  10  24  36  62  90 136 158 200 264 342 352
#     4  10  23  40  58  79 131 175 199 244 327 391
#
# _framework density 26.078223000000001
#
# number of rings (size 3 to 8) (size 9 to 14) (size 15 to 20)
#    0.545    2.182    0.909    1.091    5.091    0.000 
#    0.000    0.000    0.000    0.000    0.000    3.818 
#   10.909    0.000    0.000    0.000    0.000    0.000 
#
# Total GULP energy -122957.420573 kJ/mol
# GULP energy per Si atom -5588.973662 kJ/mol
# Density = 2.601887 g / cm^3
# Si number density = 26.078223 Si / 1000 Ang^3
#
#
#
# Elastic Constant Matrix: (Units=GPa)
#
#
# Indices 1 2 3 4 5 6 
#
# 1 357.6949 100.2437 39.5865 0.0000 0.0000 0.0000
# 2 100.2437 164.7768 17.6401 0.0000 0.0000 0.0000
# 3 39.5865 17.6401 54.8958 0.0000 0.0000 0.0000
# 4 0.0000 0.0000 0.0000 31.0537 0.0000 0.0000
# 5 0.0000 0.0000 0.0000 0.0000 64.6117 0.0000
# 6 0.0000 0.0000 0.0000 0.0000 0.0000 49.2678
#
#
#
# Elastic Compliance Matrix: (Units=1/GPa)
#
#
# Indices 1 2 3 4 5 6 
#
# 1 0.003559 -0.001958 -0.001937 0.000000 0.000000 0.000000
# 2 -0.001958 0.007362 -0.000954 0.000000 0.000000 0.000000
# 3 -0.001937 -0.000954 0.019920 0.000000 0.000000 0.000000
# 4 0.000000 0.000000 0.000000 0.032202 0.000000 0.000000
# 5 0.000000 0.000000 0.000000 0.000000 0.015477 0.000000
# 6 0.000000 0.000000 0.000000 0.000000 0.000000 0.020297
#
#
# Mechanical properties :
#
#
# Convention : Reuss Voigt Hill
#
# Bulk Modulus (GPa) = 47.29737 99.14534 73.22135
# Shear Modulus (GPa) = 43.26679 56.97979 50.12329
#
# Velocity S-wave (km/s) = 4.07764 4.67942 4.38886
# Velocity P-wave (km/s) = 6.35182 8.20347 7.33630
#
# Compressibility (1/GPa) = 0.02114283
#
# Stress axis : x y z
#
# Youngs Moduli (GPa) = 281.00326 135.83534 50.20127
#
# Poissons Ratio (x) = 0.26591 0.09725
# Poissons Ratio (y) = 0.55008 0.04789
# Poissons Ratio (z) = 0.54436 0.12959
#
# Static dielectric constant tensor:
#      x y z
#    x 2.037960 0.000000 0.000000 
#    y 0.000000 2.033060 0.000000 
#    z 0.000000 0.000000 2.009920 
# 
# From -- ./inp_files/23629.got.cif
#   From: 2010.05.17/outbox.cif.g08.bks.cpg/sg43_12_cif.got.tgz:23629.got - 2010.06.03 19:21:55.
