data_PCOD9370916
_publ_section_title
;
Structure prediction by ZEFSAII (Michael W. Deem and Ramdas Pophale) SiO2 
 PCOD9370916
Probable space group: F D D 2
;
_chemical_formula_sum "Si O2"
_cell_formula_units_Z 88
_cell_length_a 9.653628
_cell_length_b 15.172695
_cell_length_c 28.461360
_cell_angle_alpha 90.000000
_cell_angle_beta 90.000000
_cell_angle_gamma 90.000000
_cell_volume 4168.779608
_symmetry_space_group_name_H-M "F D D 2"
_symmetry_group_IT_number 43
_symmetry_cell_setting 'orthorhombic'
loop_
_space_group_symop_operation_xyz
x,y,z
-x,-y,z
1/4-x,1/4+y,1/4+z
1/4+x,1/4-y,1/4+z
x,1/2+y,1/2+z
-x,1/2-y,1/2+z
1/4-x,3/4+y,3/4+z
1/4+x,3/4-y,3/4+z
1/2+x,y,1/2+z
1/2-x,-y,1/2+z
3/4-x,1/4+y,3/4+z
3/4+x,1/4-y,3/4+z
1/2+x,1/2+y,z
1/2-x,1/2-y,z
3/4-x,3/4+y,1/4+z
3/4+x,3/4-y,1/4+z
loop_
_atom_site_type_symbol
_atom_site_label
_atom_site_fract_x
_atom_site_fract_y
_atom_site_fract_z
Si Si1 0.667639 0.326488 0.809800
Si Si2 0.292105 0.429077 0.924743
Si Si3 0.257554 0.476475 0.822016
Si Si4 0.184943 0.141448 0.208909
Si Si5 0.250000 0.250000 0.503655
Si Si6 0.879924 0.817812 0.768617
O O1 0.750000 0.250000 0.836921
O O2 0.678726 0.425534 0.829745
O O3 0.746766 0.340166 0.759938
O O4 0.517090 0.287922 0.796940
O O5 0.233618 0.433491 0.872747
O O6 0.360841 0.523610 0.937293
O O7 0.428233 0.366094 0.928783
O O8 0.178311 0.415597 0.965026
O O9 0.354362 0.411964 0.792456
O O10 0.122363 0.476209 0.789506
O O11 0.065332 0.072727 0.219730
O O12 0.750000 0.750000 0.771402
#
# Coordination Sequence:
#
# PCOD9370916 Si02
#       6
#    16  16  16  16   8  16
#     4  10  20  42  67  93 134 184 223 269 345 418
#     4  10  21  41  67  94 134 180 223 284 342 413
#     4  11  25  39  71  99 135 180 239 279 348 411
#     4   9  18  39  66  88 130 177 222 264 345 407
#     4  10  22  42  64  98 132 182 226 282 336 428
#     4  11  23  41  67  97 138 179 223 290 346 397
#
# _framework density 21.109296000000001
#
# number of rings (size 3 to 8) (size 9 to 14) (size 15 to 20)
#    0.000    1.818    3.636    1.636    8.909    0.000 
#    1.636    5.455    0.000    0.000    0.000    0.000 
#    0.000    0.000    0.000    0.000    0.000    0.000 
#
# Total GULP energy -122588.064086 kJ/mol
# GULP energy per Si atom -5572.184731 kJ/mol
# Density = 2.106125 g / cm^3
# Si number density = 21.109296 Si / 1000 Ang^3
#
#
#
# Elastic Constant Matrix: (Units=GPa)
#
#
# Indices 1 2 3 4 5 6 
#
# 1 114.1105 48.0894 14.8307 0.0000 0.0000 0.0000
# 2 48.0894 75.7850 43.6842 0.0000 0.0000 0.0000
# 3 14.8307 43.6842 79.5899 0.0000 0.0000 0.0000
# 4 0.0000 0.0000 0.0000 22.1306 0.0000 0.0000
# 5 0.0000 0.0000 0.0000 0.0000 40.6323 0.0000
# 6 0.0000 0.0000 0.0000 0.0000 0.0000 40.6621
#
#
#
# Elastic Compliance Matrix: (Units=1/GPa)
#
#
# Indices 1 2 3 4 5 6 
#
# 1 0.012416 -0.009574 0.002941 0.000000 0.000000 0.000000
# 2 -0.009574 0.026684 -0.012862 0.000000 0.000000 0.000000
# 3 0.002941 -0.012862 0.019076 0.000000 0.000000 0.000000
# 4 0.000000 0.000000 0.000000 0.045186 0.000000 0.000000
# 5 0.000000 0.000000 0.000000 0.000000 0.024611 0.000000
# 6 0.000000 0.000000 0.000000 0.000000 0.000000 0.024593
#
#
# Mechanical properties :
#
#
# Convention : Reuss Voigt Hill
#
# Bulk Modulus (GPa) = 52.11984 53.63267 52.87626
# Shear Modulus (GPa) = 25.25868 31.54373 28.40121
#
# Velocity S-wave (km/s) = 3.46289 3.86982 3.67200
# Velocity P-wave (km/s) = 6.38224 6.74015 6.56363
#
# Compressibility (1/GPa) = 0.01918655
#
# Stress axis : x y z
#
# Youngs Moduli (GPa) = 80.54193 37.47502 52.42192
#
# Poissons Ratio (x) = 0.35878 -0.15419
# Poissons Ratio (y) = 0.77110 0.67426
# Poissons Ratio (z) = -0.23689 0.48201
#
# Static dielectric constant tensor:
#      x y z
#    x 1.895560 0.000000 0.000000 
#    y 0.000000 1.853200 0.000000 
#    z 0.000000 0.000000 1.754170 
# 
# From -- ./inp_files/27863.got.cif
#   From: 2010.05.17/outbox.cif.g08.bks.cpg/sg43_14_cif.got.tgz:27863.got - 2010.06.03 19:21:55.
