data_PCOD9370793
_publ_section_title
;
Structure prediction by ZEFSAII (Michael W. Deem and Ramdas Pophale) SiO2 
 PCOD9370793
Probable space group: F D D 2
;
_chemical_formula_sum "Si O2"
_cell_formula_units_Z 120
_cell_length_a 25.375710
_cell_length_b 23.170489
_cell_length_c 8.813934
_cell_angle_alpha 90.000000
_cell_angle_beta 90.000000
_cell_angle_gamma 90.000000
_cell_volume 5182.307704
_symmetry_space_group_name_H-M "F D D 2"
_symmetry_group_IT_number 43
_symmetry_cell_setting 'orthorhombic'
loop_
_space_group_symop_operation_xyz
x,y,z
-x,-y,z
1/4-x,1/4+y,1/4+z
1/4+x,1/4-y,1/4+z
x,1/2+y,1/2+z
-x,1/2-y,1/2+z
1/4-x,3/4+y,3/4+z
1/4+x,3/4-y,3/4+z
1/2+x,y,1/2+z
1/2-x,-y,1/2+z
3/4-x,1/4+y,3/4+z
3/4+x,1/4-y,3/4+z
1/2+x,1/2+y,z
1/2-x,1/2-y,z
3/4-x,3/4+y,1/4+z
3/4+x,3/4-y,1/4+z
loop_
_atom_site_type_symbol
_atom_site_label
_atom_site_fract_x
_atom_site_fract_y
_atom_site_fract_z
Si Si1 0.855432 0.459274 0.359760
Si Si2 0.598751 0.413719 0.587880
Si Si3 0.664298 0.273814 0.128884
Si Si4 0.682528 0.024919 0.682486
Si Si5 0.250000 0.750000 0.871945
Si Si6 0.792667 0.566960 0.260276
Si Si7 0.182578 0.690133 0.651356
Si Si8 0.172978 0.398376 0.570445
O O1 0.848843 0.400343 0.268465
O O2 0.850459 0.451109 0.540288
O O3 0.808768 0.502661 0.316338
O O4 0.908382 0.497147 0.348984
O O5 0.582495 0.469141 0.490155
O O6 0.659106 0.418429 0.648922
O O7 0.561983 0.411679 0.737531
O O8 0.603543 0.278411 0.079636
O O9 0.700550 0.259770 0.982736
O O10 0.678712 0.340178 0.167177
O O11 0.690615 0.956625 0.653872
O O12 0.735483 0.060940 0.692504
O O13 0.232488 0.699833 0.755967
O O14 0.795127 0.604956 0.412507
O O15 0.136378 0.661412 0.755200
#
# Coordination Sequence:
#
# PCOD9370793 Si02
#       8
#    16  16  16  16   8  16  16  16
#     4   9  19  42  63  89 132 167 222 272 307 415
#     4  10  23  41  64  97 135 170 213 279 334 386
#     4  12  25  39  64  99 140 165 223 281 336 384
#     4  10  20  40  64 100 128 172 231 266 328 399
#     4  12  24  44  64  92 130 182 216 272 330 412
#     4   9  21  38  68  96 128 175 225 262 334 396
#     4   9  21  43  63  88 127 175 227 252 328 404
#     4   9  21  41  62  94 132 171 217 276 315 411
#
# _framework density 23.155708000000001
#
# number of rings (size 3 to 8) (size 9 to 14) (size 15 to 20)
#    0.000    2.667    2.667    1.600    3.733    5.867 
#    0.000    0.000    0.000    0.000    0.000    0.000 
#    0.000    0.000    0.000    0.000    0.000    0.000 
#
# Total GULP energy -167336.964498 kJ/mol
# GULP energy per Si atom -5577.898817 kJ/mol
# Density = 2.310300 g / cm^3
# Si number density = 23.155708 Si / 1000 Ang^3
#
#
#
# Elastic Constant Matrix: (Units=GPa)
#
#
# Indices 1 2 3 4 5 6 
#
# 1 53.0244 -2.6471 14.3623 0.0009 -0.0011 -0.0009
# 2 -2.6471 167.0510 29.3337 0.0013 -0.0008 -0.0011
# 3 14.3623 29.3337 37.4358 0.0037 -0.0029 -0.0023
# 4 0.0009 0.0013 0.0037 27.0392 -0.0017 -0.0018
# 5 -0.0011 -0.0008 -0.0029 -0.0017 20.1765 0.0014
# 6 -0.0009 -0.0011 -0.0023 -0.0018 0.0014 8.4210
#
#
#
# Elastic Compliance Matrix: (Units=1/GPa)
#
#
# Indices 1 2 3 4 5 6 
#
# 1 0.021658 0.002090 -0.009947 0.000001 0.000000 0.000000
# 2 0.002090 0.007143 -0.006399 0.000000 -0.000001 -0.000001
# 3 -0.009947 -0.006399 0.035542 -0.000004 0.000004 0.000008
# 4 0.000001 0.000000 -0.000004 0.036983 0.000003 0.000008
# 5 0.000000 -0.000001 0.000004 0.000003 0.049563 -0.000008
# 6 0.000000 -0.000001 0.000008 0.000008 -0.000008 0.118751
#
#
# Mechanical properties :
#
#
# Convention : Reuss Voigt Hill
#
# Bulk Modulus (GPa) = 27.90805 37.73434 32.82120
# Shear Modulus (GPa) = 16.12409 25.55814 20.84112
#
# Velocity S-wave (km/s) = 2.64168 3.32588 3.00333
# Velocity P-wave (km/s) = 4.62419 5.57494 5.12167
#
# Compressibility (1/GPa) = 0.03583195
#
# Stress axis : x y z
#
# Youngs Moduli (GPa) = 46.17294 139.99887 28.13548
#
# Poissons Ratio (x) = -0.29256 0.27985
# Poissons Ratio (y) = -0.09649 0.18003
# Poissons Ratio (z) = 0.45926 0.89582
#
# Static dielectric constant tensor:
#      x y z
#    x 1.864750 0.000000 0.000000 
#    y 0.000000 1.988970 0.000000 
#    z 0.000000 0.000000 1.890190 
# 
# From -- ./inp_files/4831.got.cif
#   From: 2010.05.17/outbox.cif.g08.bks.cpg/sg43_3_cif.got.tgz:4831.got - 2010.06.03 19:21:55.
