data_PCOD9370871
_publ_section_title
;
Structure prediction by ZEFSAII (Michael W. Deem and Ramdas Pophale) SiO2 
 PCOD9370871
Probable space group: F D D 2
;
_chemical_formula_sum "Si O2"
_cell_formula_units_Z 112
_cell_length_a 18.132032
_cell_length_b 13.014549
_cell_length_c 22.544654
_cell_angle_alpha 90.000000
_cell_angle_beta 90.000000
_cell_angle_gamma 90.000000
_cell_volume 5320.092387
_symmetry_space_group_name_H-M "F D D 2"
_symmetry_group_IT_number 43
_symmetry_cell_setting 'orthorhombic'
loop_
_space_group_symop_operation_xyz
x,y,z
-x,-y,z
1/4-x,1/4+y,1/4+z
1/4+x,1/4-y,1/4+z
x,1/2+y,1/2+z
-x,1/2-y,1/2+z
1/4-x,3/4+y,3/4+z
1/4+x,3/4-y,3/4+z
1/2+x,y,1/2+z
1/2-x,-y,1/2+z
3/4-x,1/4+y,3/4+z
3/4+x,1/4-y,3/4+z
1/2+x,1/2+y,z
1/2-x,1/2-y,z
3/4-x,3/4+y,1/4+z
3/4+x,3/4-y,1/4+z
loop_
_atom_site_type_symbol
_atom_site_label
_atom_site_fract_x
_atom_site_fract_y
_atom_site_fract_z
Si Si1 0.959425 0.340721 0.024660
Si Si2 0.250000 0.750000 0.482574
Si Si3 0.976356 0.813485 0.394513
Si Si4 0.618560 0.795779 0.075537
Si Si5 0.354481 0.873263 0.805711
Si Si6 0.500000 0.000000 0.643141
Si Si7 0.133856 0.629870 0.677025
Si Si8 0.857434 0.225417 0.374478
O O1 0.910895 0.241342 0.041285
O O2 0.931973 0.429829 0.066923
O O3 0.042892 0.305948 0.038647
O O4 0.952730 0.367787 0.955662
O O5 0.315965 0.740981 0.532251
O O6 0.196081 0.797845 0.429968
O O7 0.931237 0.853356 0.338392
O O8 0.950150 0.695101 0.406298
O O9 0.062757 0.823072 0.385304
O O10 0.615724 0.711567 0.127038
O O11 0.624162 0.905103 0.109622
O O12 0.293633 0.827905 0.850177
O O13 0.350930 0.820839 0.740967
O O14 0.438782 0.941600 0.681160
#
# Coordination Sequence:
#
# PCOD9370871 Si02
#       8
#    16   8  16  16  16   8  16  16
#     4  11  23  45  68  96 141 179 226 286 345 418
#     4  12  26  43  70  97 136 184 236 284 354 422
#     4  10  24  45  68 101 136 176 234 281 349 422
#     4  12  24  44  69  99 135 183 228 290 351 417
#     4  10  23  42  69 101 129 179 222 287 349 410
#     4  10  20  41  66  91 132 168 212 280 350 386
#     4  10  23  41  69 101 131 170 228 289 339 410
#     4  12  26  46  66  99 142 186 230 286 351 430
#
# _framework density 21.052264999999998
#
# number of rings (size 3 to 8) (size 9 to 14) (size 15 to 20)
#    0.000    1.143    4.286    0.857    0.000   11.429 
#    2.571    0.000    0.000    0.000    0.000    0.000 
#    0.000    0.000    0.000    0.000    0.000    0.000 
#
# Total GULP energy -156021.688730 kJ/mol
# GULP energy per Si atom -5572.203169 kJ/mol
# Density = 2.100435 g / cm^3
# Si number density = 21.052265 Si / 1000 Ang^3
#
#
#
# Elastic Constant Matrix: (Units=GPa)
#
#
# Indices 1 2 3 4 5 6 
#
# 1 121.5377 8.1283 21.1893 0.0000 0.0000 0.0000
# 2 8.1283 30.6727 11.4374 0.0000 0.0000 0.0000
# 3 21.1893 11.4374 81.9302 0.0000 0.0000 0.0000
# 4 0.0000 0.0000 0.0000 18.1365 0.0000 0.0000
# 5 0.0000 0.0000 0.0000 0.0000 25.1800 0.0000
# 6 0.0000 0.0000 0.0000 0.0000 0.0000 14.1274
#
#
#
# Elastic Compliance Matrix: (Units=1/GPa)
#
#
# Indices 1 2 3 4 5 6 
#
# 1 0.008685 -0.001544 -0.002031 0.000000 0.000000 0.000000
# 2 -0.001544 0.034667 -0.004440 0.000000 0.000000 0.000000
# 3 -0.002031 -0.004440 0.013351 0.000000 0.000000 0.000000
# 4 0.000000 0.000000 0.000000 0.055137 0.000000 0.000000
# 5 0.000000 0.000000 0.000000 0.000000 0.039714 0.000000
# 6 0.000000 0.000000 0.000000 0.000000 0.000000 0.070784
#
#
# Mechanical properties :
#
#
# Convention : Reuss Voigt Hill
#
# Bulk Modulus (GPa) = 24.58652 35.07227 29.82940
# Shear Modulus (GPa) = 19.84708 24.38118 22.11413
#
# Velocity S-wave (km/s) = 3.07376 3.40682 3.24456
# Velocity P-wave (km/s) = 4.92965 5.67195 5.31378
#
# Compressibility (1/GPa) = 0.04067269
#
# Stress axis : x y z
#
# Youngs Moduli (GPa) = 115.13823 28.84573 74.90348
#
# Poissons Ratio (x) = 0.04455 0.15210
# Poissons Ratio (y) = 0.17782 0.33258
# Poissons Ratio (z) = 0.23380 0.12808
#
# Static dielectric constant tensor:
#      x y z
#    x 1.762820 0.000000 0.000000 
#    y 0.000000 1.829770 0.000000 
#    z 0.000000 0.000000 1.741320 
# 
# From -- ./inp_files/22433.got.cif
#   From: 2010.05.17/outbox.cif.g08.bks.cpg/sg43_12_cif.got.tgz:22433.got - 2010.06.03 19:21:55.
