data_PCOD9370441
_publ_section_title
;
Structure prediction by ZEFSAII (Michael W. Deem and Ramdas Pophale) SiO2 
 PCOD9370441
Probable space group: F D D 2
;
_chemical_formula_sum "Si O2"
_cell_formula_units_Z 96
_cell_length_a 15.242876
_cell_length_b 25.823534
_cell_length_c 10.418768
_cell_angle_alpha 90.000000
_cell_angle_beta 90.000000
_cell_angle_gamma 90.000000
_cell_volume 4101.086790
_symmetry_space_group_name_H-M "F D D 2"
_symmetry_group_IT_number 43
_symmetry_cell_setting 'orthorhombic'
loop_
_space_group_symop_operation_xyz
x,y,z
-x,-y,z
1/4-x,1/4+y,1/4+z
1/4+x,1/4-y,1/4+z
x,1/2+y,1/2+z
-x,1/2-y,1/2+z
1/4-x,3/4+y,3/4+z
1/4+x,3/4-y,3/4+z
1/2+x,y,1/2+z
1/2-x,-y,1/2+z
3/4-x,1/4+y,3/4+z
3/4+x,1/4-y,3/4+z
1/2+x,1/2+y,z
1/2-x,1/2-y,z
3/4-x,3/4+y,1/4+z
3/4+x,3/4-y,1/4+z
loop_
_atom_site_type_symbol
_atom_site_label
_atom_site_fract_x
_atom_site_fract_y
_atom_site_fract_z
Si Si1 0.094521 0.360575 0.077450
Si Si2 0.185873 0.034758 0.593113
Si Si3 0.541956 0.944989 0.728367
Si Si4 0.137983 0.100663 0.339434
Si Si5 0.021819 0.819088 0.829900
Si Si6 0.566080 0.957381 0.991210
O O1 0.182045 0.396424 0.058081
O O2 0.024720 0.406743 0.052821
O O3 0.086921 0.337501 0.217893
O O4 0.073288 0.319372 0.968156
O O5 0.166186 0.067501 0.464810
O O6 0.264713 0.993647 0.574021
O O7 0.111955 0.990213 0.601131
O O8 0.460215 0.911688 0.788465
O O9 0.590676 0.910191 0.623203
O O10 0.500000 0.000000 0.683610
O O11 0.609451 0.947909 0.850680
O O12 0.197201 0.083336 0.220674
O O13 0.500000 0.000000 0.940208
#
# Coordination Sequence:
#
# PCOD9370441 Si02
#       6
#    16  16  16  16  16  16
#     4  11  23  43  66  98 137 185 228 294 351 424
#     4  11  22  39  72  96 131 180 240 287 347 419
#     4  11  24  42  71 101 140 180 241 290 355 422
#     4  12  24  44  67 103 139 186 231 295 352 432
#     4  11  26  42  65 101 145 178 237 292 365 424
#     4  10  19  38  64  97 126 171 225 279 337 412
#
# _framework density 23.408429000000002
#
# number of rings (size 3 to 8) (size 9 to 14) (size 15 to 20)
#    0.000    1.000    5.000    3.000    0.000    1.333 
#    0.000    9.167    0.000    0.000    0.000    0.000 
#    0.000    0.000    0.000    0.000    0.000    0.000 
#
# Total GULP energy -133704.476611 kJ/mol
# GULP energy per Si atom -5571.019859 kJ/mol
# Density = 2.335515 g / cm^3
# Si number density = 23.408429 Si / 1000 Ang^3
#
#
#
# Elastic Constant Matrix: (Units=GPa)
#
#
# Indices 1 2 3 4 5 6 
#
# 1 40.0186 37.8148 18.2420 0.0000 0.0000 0.0000
# 2 37.8148 185.4364 64.7360 0.0000 0.0000 0.0000
# 3 18.2420 64.7360 121.2727 0.0000 0.0000 0.0000
# 4 0.0000 0.0000 0.0000 32.3272 0.0000 0.0000
# 5 0.0000 0.0000 0.0000 0.0000 18.3836 0.0000
# 6 0.0000 0.0000 0.0000 0.0000 0.0000 25.1473
#
#
#
# Elastic Compliance Matrix: (Units=1/GPa)
#
#
# Indices 1 2 3 4 5 6 
#
# 1 0.031201 -0.005806 -0.001594 0.000000 0.000000 0.000000
# 2 -0.005806 0.007708 -0.003241 0.000000 0.000000 0.000000
# 3 -0.001594 -0.003241 0.010216 0.000000 0.000000 0.000000
# 4 0.000000 0.000000 0.000000 0.030934 0.000000 0.000000
# 5 0.000000 0.000000 0.000000 0.000000 0.054396 0.000000
# 6 0.000000 0.000000 0.000000 0.000000 0.000000 0.039766
#
#
# Mechanical properties :
#
#
# Convention : Reuss Voigt Hill
#
# Bulk Modulus (GPa) = 35.91628 65.36813 50.64220
# Shear Modulus (GPa) = 24.41583 30.23395 27.32489
#
# Velocity S-wave (km/s) = 3.23311 3.59776 3.42030
# Velocity P-wave (km/s) = 5.41424 6.72638 6.10566
#
# Compressibility (1/GPa) = 0.02784253
#
# Stress axis : x y z
#
# Youngs Moduli (GPa) = 32.04982 129.73096 97.88681
#
# Poissons Ratio (x) = 0.75325 0.15603
# Poissons Ratio (y) = 0.18609 0.31728
# Poissons Ratio (z) = 0.05109 0.42050
#
# Static dielectric constant tensor:
#      x y z
#    x 2.551060 0.000000 0.000000 
#    y 0.000000 1.998930 0.000000 
#    z 0.000000 0.000000 1.972820 
# 
# From -- ./inp_files/3313.got.cif
#   From: 2010.05.17/outbox.cif.g08.bks.cpg/sg43_2_cif.got.tgz:3313.got - 2010.06.03 19:21:55.
