data_PCOD9370937
_publ_section_title
;
Structure prediction by ZEFSAII (Michael W. Deem and Ramdas Pophale) SiO2 
 PCOD9370937
Probable space group: F D D 2
;
_chemical_formula_sum "Si O2"
_cell_formula_units_Z 112
_cell_length_a 30.820022
_cell_length_b 15.022611
_cell_length_c 10.765622
_cell_angle_alpha 90.000000
_cell_angle_beta 90.000000
_cell_angle_gamma 90.000000
_cell_volume 4984.452859
_symmetry_space_group_name_H-M "F D D 2"
_symmetry_group_IT_number 43
_symmetry_cell_setting 'orthorhombic'
loop_
_space_group_symop_operation_xyz
x,y,z
-x,-y,z
1/4-x,1/4+y,1/4+z
1/4+x,1/4-y,1/4+z
x,1/2+y,1/2+z
-x,1/2-y,1/2+z
1/4-x,3/4+y,3/4+z
1/4+x,3/4-y,3/4+z
1/2+x,y,1/2+z
1/2-x,-y,1/2+z
3/4-x,1/4+y,3/4+z
3/4+x,1/4-y,3/4+z
1/2+x,1/2+y,z
1/2-x,1/2-y,z
3/4-x,3/4+y,1/4+z
3/4+x,3/4-y,1/4+z
loop_
_atom_site_type_symbol
_atom_site_label
_atom_site_fract_x
_atom_site_fract_y
_atom_site_fract_z
Si Si1 0.609245 0.196717 0.738710
Si Si2 0.909928 0.646424 0.057018
Si Si3 0.531018 0.075705 0.759638
Si Si4 0.951994 0.472336 0.033725
Si Si5 0.482465 0.737965 0.391447
Si Si6 0.075642 0.799055 0.974388
Si Si7 0.078001 0.681850 0.188530
O O1 0.604701 0.287015 0.662457
O O2 0.571738 0.125440 0.697503
O O3 0.654087 0.146830 0.711806
O O4 0.599021 0.229261 0.879491
O O5 0.922203 0.546436 0.096270
O O6 0.951533 0.691081 0.992038
O O7 0.870240 0.625728 0.966384
O O8 0.501272 0.157652 0.806794
O O9 0.500000 0.000000 0.699732
O O10 0.550810 0.029143 0.884166
O O11 0.946680 0.374684 0.085208
O O12 0.000000 0.500000 0.064731
O O13 0.524279 0.789870 0.445778
O O14 0.451625 0.799705 0.307286
O O15 0.087186 0.772809 0.116136
#
# Coordination Sequence:
#
# PCOD9370937 Si02
#       7
#    16  16  16  16  16  16  16
#     4  11  27  45  71 105 149 190 234 315 382 432
#     4  12  26  45  72 104 149 187 250 303 372 437
#     4  10  20  42  72  99 134 186 243 299 352 443
#     4  11  21  42  69  98 130 186 242 291 352 437
#     4  11  25  44  74 107 144 189 250 304 365 433
#     4  11  27  48  73 107 149 193 248 303 373 447
#     4  12  26  42  75 105 138 198 244 305 363 447
#
# _framework density 22.469868999999999
#
# number of rings (size 3 to 8) (size 9 to 14) (size 15 to 20)
#    0.000    0.857    5.714    1.714   14.000    0.000 
#    0.000    0.000    0.000    0.000    0.000    0.000 
#    0.000    0.000    0.000    0.000    0.000    0.000 
#
# Total GULP energy -156430.028883 kJ/mol
# GULP energy per Si atom -5586.786746 kJ/mol
# Density = 2.241873 g / cm^3
# Si number density = 22.469869 Si / 1000 Ang^3
#
#
#
# Elastic Constant Matrix: (Units=GPa)
#
#
# Indices 1 2 3 4 5 6 
#
# 1 98.9249 24.4707 16.0310 0.0000 0.0000 0.0000
# 2 24.4707 86.0253 9.6575 0.0000 0.0000 0.0000
# 3 16.0310 9.6575 26.9681 0.0000 0.0000 0.0000
# 4 0.0000 0.0000 0.0000 17.7490 0.0000 0.0000
# 5 0.0000 0.0000 0.0000 0.0000 12.6219 0.0000
# 6 0.0000 0.0000 0.0000 0.0000 0.0000 33.4890
#
#
#
# Elastic Compliance Matrix: (Units=1/GPa)
#
#
# Indices 1 2 3 4 5 6 
#
# 1 0.011744 -0.002664 -0.006027 0.000000 0.000000 0.000000
# 2 -0.002664 0.012716 -0.002970 0.000000 0.000000 0.000000
# 3 -0.006027 -0.002970 0.041727 0.000000 0.000000 0.000000
# 4 0.000000 0.000000 0.000000 0.056341 0.000000 0.000000
# 5 0.000000 0.000000 0.000000 0.000000 0.079227 0.000000
# 6 0.000000 0.000000 0.000000 0.000000 0.000000 0.029861
#
#
# Mechanical properties :
#
#
# Convention : Reuss Voigt Hill
#
# Bulk Modulus (GPa) = 23.32924 34.69299 29.01111
# Shear Modulus (GPa) = 18.57164 23.55591 21.06378
#
# Velocity S-wave (km/s) = 2.87803 3.24131 3.06506
# Velocity P-wave (km/s) = 4.63132 5.42968 5.04631
#
# Compressibility (1/GPa) = 0.04286467
#
# Stress axis : x y z
#
# Youngs Moduli (GPa) = 85.14657 78.64261 23.96506
#
# Poissons Ratio (x) = 0.20952 0.14445
# Poissons Ratio (y) = 0.22684 0.07117
# Poissons Ratio (z) = 0.51321 0.23356
#
# Static dielectric constant tensor:
#      x y z
#    x 1.164640 0.000000 0.000000 
#    y 0.000000 1.919910 0.000000 
#    z 0.000000 0.000000 1.860220 
# 
# From -- ./inp_files/8298.got.cif
#   From: 2010.05.17/outbox.cif.g08.bks.cpg/sg43_5_cif.got.tgz:8298.got - 2010.06.03 19:21:55.
