data_PCOD9370636
_publ_section_title
;
Structure prediction by ZEFSAII (Michael W. Deem and Ramdas Pophale) SiO2 
 PCOD9370636
Probable space group: F D D 2
;
_chemical_formula_sum "Si O2"
_cell_formula_units_Z 120
_cell_length_a 14.957443
_cell_length_b 23.370276
_cell_length_c 14.098931
_cell_angle_alpha 90.000000
_cell_angle_beta 90.000000
_cell_angle_gamma 90.000000
_cell_volume 4928.416274
_symmetry_space_group_name_H-M "F D D 2"
_symmetry_group_IT_number 43
_symmetry_cell_setting 'orthorhombic'
loop_
_space_group_symop_operation_xyz
x,y,z
-x,-y,z
1/4-x,1/4+y,1/4+z
1/4+x,1/4-y,1/4+z
x,1/2+y,1/2+z
-x,1/2-y,1/2+z
1/4-x,3/4+y,3/4+z
1/4+x,3/4-y,3/4+z
1/2+x,y,1/2+z
1/2-x,-y,1/2+z
3/4-x,1/4+y,3/4+z
3/4+x,1/4-y,3/4+z
1/2+x,1/2+y,z
1/2-x,1/2-y,z
3/4-x,3/4+y,1/4+z
3/4+x,3/4-y,1/4+z
loop_
_atom_site_type_symbol
_atom_site_label
_atom_site_fract_x
_atom_site_fract_y
_atom_site_fract_z
Si Si1 0.356534 0.638695 0.542930
Si Si2 0.567941 0.384774 0.228598
Si Si3 0.580600 0.802489 0.403810
Si Si4 0.656426 0.776261 0.213415
Si Si5 0.247107 0.566241 0.150592
Si Si6 0.301303 0.811764 0.439813
Si Si7 0.750000 0.250000 0.010672
Si Si8 0.851850 0.087175 0.884311
O O1 0.329813 0.685406 0.621914
O O2 0.440782 0.663655 0.489392
O O3 0.276331 0.641480 0.466337
O O4 0.391405 0.582742 0.598955
O O5 0.656713 0.402158 0.169698
O O6 0.557602 0.334466 0.306192
O O7 0.541003 0.439829 0.295594
O O8 0.492538 0.368635 0.150394
O O9 0.610207 0.810931 0.295485
O O10 0.509444 0.752162 0.406149
O O11 0.664744 0.774268 0.455477
O O12 0.575698 0.868780 0.432143
O O13 0.750000 0.750000 0.245965
O O14 0.596921 0.721052 0.193136
O O15 0.250000 0.750000 0.430806
O O16 0.366306 0.815534 0.531500
#
# Coordination Sequence:
#
# PCOD9370636 Si02
#       8
#    16  16  16  16  16  16   8  16
#     4  12  26  46  68  97 151 198 238 293 364 448
#     4  10  22  41  68  93 131 173 234 291 355 419
#     4  10  20  37  64  97 128 164 225 290 358 406
#     4  12  21  41  69 101 133 174 233 302 358 416
#     4  11  24  45  63  94 140 188 235 287 353 450
#     4  12  26  47  73 108 147 191 248 310 367 443
#     4   8  18  36  58  94 124 162 200 294 354 396
#     4  11  21  40  70 105 133 170 232 308 366 410
#
# _framework density 24.348593999999999
#
# number of rings (size 3 to 8) (size 9 to 14) (size 15 to 20)
#    0.000    1.067    6.000    0.800    0.000    2.133 
#   10.800    0.000    0.000    0.000    0.000    0.000 
#    0.000    0.000    0.000    0.000    0.000    0.000 
#
# Total GULP energy -167331.627355 kJ/mol
# GULP energy per Si atom -5577.720912 kJ/mol
# Density = 2.429318 g / cm^3
# Si number density = 24.348594 Si / 1000 Ang^3
#
#
#
# Elastic Constant Matrix: (Units=GPa)
#
#
# Indices 1 2 3 4 5 6 
#
# 1 103.0009 40.5856 18.8295 0.0000 0.0000 0.0000
# 2 40.5856 104.2736 14.1456 0.0000 0.0000 0.0000
# 3 18.8295 14.1456 55.3123 0.0000 0.0000 0.0000
# 4 0.0000 0.0000 0.0000 52.9001 0.0000 0.0000
# 5 0.0000 0.0000 0.0000 0.0000 27.3518 0.0000
# 6 0.0000 0.0000 0.0000 0.0000 0.0000 45.6248
#
#
#
# Elastic Compliance Matrix: (Units=1/GPa)
#
#
# Indices 1 2 3 4 5 6 
#
# 1 0.011922 -0.004237 -0.002975 0.000000 0.000000 0.000000
# 2 -0.004237 0.011440 -0.001484 0.000000 0.000000 0.000000
# 3 -0.002975 -0.001484 0.019471 0.000000 0.000000 0.000000
# 4 0.000000 0.000000 0.000000 0.018904 0.000000 0.000000
# 5 0.000000 0.000000 0.000000 0.000000 0.036561 0.000000
# 6 0.000000 0.000000 0.000000 0.000000 0.000000 0.021918
#
#
# Mechanical properties :
#
#
# Convention : Reuss Voigt Hill
#
# Bulk Modulus (GPa) = 39.30318 45.52315 42.41317
# Shear Modulus (GPa) = 34.22615 37.77709 36.00162
#
# Velocity S-wave (km/s) = 3.75330 3.94319 3.84942
# Velocity P-wave (km/s) = 5.91269 6.28241 6.10035
#
# Compressibility (1/GPa) = 0.02544323
#
# Stress axis : x y z
#
# Youngs Moduli (GPa) = 83.87934 87.40944 51.35765
#
# Poissons Ratio (x) = 0.37033 0.15279
# Poissons Ratio (y) = 0.35537 0.07619
# Poissons Ratio (z) = 0.24954 0.12967
#
# Static dielectric constant tensor:
#      x y z
#    x 2.025120 0.000000 0.000000 
#    y 0.000000 1.173660 0.000000 
#    z 0.000000 0.000000 1.920810 
# 
# From -- ./inp_files/13964.got.cif
#   From: 2010.05.17/outbox.cif.g08.bks.cpg/sg43_7_cif.got.tgz:13964.got - 2010.06.03 19:21:55.
