data_PCOD9370915
_publ_section_title
;
Structure prediction by ZEFSAII (Michael W. Deem and Ramdas Pophale) SiO2 
 PCOD9370915
Probable space group: F D D 2
;
_chemical_formula_sum "Si O2"
_cell_formula_units_Z 96
_cell_length_a 22.004965
_cell_length_b 9.143643
_cell_length_c 23.109650
_cell_angle_alpha 90.000000
_cell_angle_beta 90.000000
_cell_angle_gamma 90.000000
_cell_volume 4649.789704
_symmetry_space_group_name_H-M "F D D 2"
_symmetry_group_IT_number 43
_symmetry_cell_setting 'orthorhombic'
loop_
_space_group_symop_operation_xyz
x,y,z
-x,-y,z
1/4-x,1/4+y,1/4+z
1/4+x,1/4-y,1/4+z
x,1/2+y,1/2+z
-x,1/2-y,1/2+z
1/4-x,3/4+y,3/4+z
1/4+x,3/4-y,3/4+z
1/2+x,y,1/2+z
1/2-x,-y,1/2+z
3/4-x,1/4+y,3/4+z
3/4+x,1/4-y,3/4+z
1/2+x,1/2+y,z
1/2-x,1/2-y,z
3/4-x,3/4+y,1/4+z
3/4+x,3/4-y,1/4+z
loop_
_atom_site_type_symbol
_atom_site_label
_atom_site_fract_x
_atom_site_fract_y
_atom_site_fract_z
Si Si1 0.341745 0.993015 0.413690
Si Si2 0.368346 0.065895 0.646063
Si Si3 0.313342 0.668469 0.259528
Si Si4 0.915324 0.856170 0.824904
Si Si5 0.696772 0.562639 0.042575
Si Si6 0.231920 0.588204 0.836069
O O1 0.374141 0.149916 0.418312
O O2 0.290861 0.011381 0.363631
O O3 0.389683 0.873189 0.390375
O O4 0.310479 0.961428 0.474561
O O5 0.329249 0.151465 0.692319
O O6 0.434800 0.133795 0.638251
O O7 0.340399 0.050177 0.582164
O O8 0.250000 0.750000 0.267083
O O9 0.368112 0.755764 0.290274
O O10 0.301006 0.512382 0.289511
O O11 0.984098 0.803852 0.815222
O O12 0.919520 0.025221 0.803826
O O13 0.250000 0.750000 0.813852
#
# Coordination Sequence:
#
# PCOD9370915 Si02
#       6
#    16  16  16  16  16  16
#     4  10  20  42  67  90 129 181 229 271 345 425
#     4  10  23  40  61  96 128 173 225 279 341 420
#     4  12  24  41  64 103 136 166 230 296 350 407
#     4  10  23  40  62  99 131 171 233 276 345 418
#     4  10  22  42  64  94 134 181 221 282 351 413
#     4  10  22  43  67  93 128 181 228 271 347 430
#
# _framework density 20.646094000000002
#
# number of rings (size 3 to 8) (size 9 to 14) (size 15 to 20)
#    0.000    1.667    1.667    2.000    0.000    6.667 
#    6.000    4.167    0.000    0.000    0.000    0.000 
#    0.000    0.000    0.000    0.000    0.000    0.000 
#
# Total GULP energy -134007.491333 kJ/mol
# GULP energy per Si atom -5583.645472 kJ/mol
# Density = 2.059910 g / cm^3
# Si number density = 20.646094 Si / 1000 Ang^3
#
#
#
# Elastic Constant Matrix: (Units=GPa)
#
#
# Indices 1 2 3 4 5 6 
#
# 1 129.5442 41.3983 42.4457 0.0000 0.0000 0.0000
# 2 41.3983 55.7473 26.3780 0.0000 0.0000 0.0000
# 3 42.4457 26.3780 70.2175 0.0000 0.0000 0.0000
# 4 0.0000 0.0000 0.0000 12.5266 0.0000 0.0000
# 5 0.0000 0.0000 0.0000 0.0000 26.9473 0.0000
# 6 0.0000 0.0000 0.0000 0.0000 0.0000 27.7519
#
#
#
# Elastic Compliance Matrix: (Units=1/GPa)
#
#
# Indices 1 2 3 4 5 6 
#
# 1 0.011142 -0.006187 -0.004411 0.000000 0.000000 0.000000
# 2 -0.006187 0.025251 -0.005746 0.000000 0.000000 0.000000
# 3 -0.004411 -0.005746 0.019066 0.000000 0.000000 0.000000
# 4 0.000000 0.000000 0.000000 0.079830 0.000000 0.000000
# 5 0.000000 0.000000 0.000000 0.000000 0.037109 0.000000
# 6 0.000000 0.000000 0.000000 0.000000 0.000000 0.036034
#
#
# Mechanical properties :
#
#
# Convention : Reuss Voigt Hill
#
# Bulk Modulus (GPa) = 43.91389 52.88368 48.39878
# Shear Modulus (GPa) = 20.10368 23.13097 21.61733
#
# Velocity S-wave (km/s) = 3.12385 3.35080 3.23931
# Velocity P-wave (km/s) = 5.85894 6.37499 6.12241
#
# Compressibility (1/GPa) = 0.02277184
#
# Stress axis : x y z
#
# Youngs Moduli (GPa) = 89.75256 39.60184 52.44827
#
# Poissons Ratio (x) = 0.24501 0.23135
# Poissons Ratio (y) = 0.55528 0.30137
# Poissons Ratio (z) = 0.39589 0.22756
#
# Static dielectric constant tensor:
#      x y z
#    x 1.739550 0.000000 0.000000 
#    y 0.000000 1.743330 0.000000 
#    z 0.000000 0.000000 1.708700 
# 
# From -- ./inp_files/22573.got.cif
#   From: 2010.05.17/outbox.cif.g08.bks.cpg/sg43_12_cif.got.tgz:22573.got - 2010.06.03 19:21:55.
