data_PCOD9370746
_publ_section_title
;
Structure prediction by ZEFSAII (Michael W. Deem and Ramdas Pophale) SiO2 
 PCOD9370746
Probable space group: F D D 2
;
_chemical_formula_sum "Si O2"
_cell_formula_units_Z 120
_cell_length_a 13.745720
_cell_length_b 22.714041
_cell_length_c 15.050854
_cell_angle_alpha 90.000000
_cell_angle_beta 90.000000
_cell_angle_gamma 90.000000
_cell_volume 4699.190394
_symmetry_space_group_name_H-M "F D D 2"
_symmetry_group_IT_number 43
_symmetry_cell_setting 'orthorhombic'
loop_
_space_group_symop_operation_xyz
x,y,z
-x,-y,z
1/4-x,1/4+y,1/4+z
1/4+x,1/4-y,1/4+z
x,1/2+y,1/2+z
-x,1/2-y,1/2+z
1/4-x,3/4+y,3/4+z
1/4+x,3/4-y,3/4+z
1/2+x,y,1/2+z
1/2-x,-y,1/2+z
3/4-x,1/4+y,3/4+z
3/4+x,1/4-y,3/4+z
1/2+x,1/2+y,z
1/2-x,1/2-y,z
3/4-x,3/4+y,1/4+z
3/4+x,3/4-y,1/4+z
loop_
_atom_site_type_symbol
_atom_site_label
_atom_site_fract_x
_atom_site_fract_y
_atom_site_fract_z
Si Si1 0.627858 0.768378 0.322300
Si Si2 0.166335 0.948058 0.404228
Si Si3 0.362928 0.656800 0.514669
Si Si4 0.229763 0.618389 0.652641
Si Si5 0.831486 0.633142 0.762047
Si Si6 0.556687 0.398288 0.101587
Si Si7 0.000000 0.000000 0.527245
Si Si8 0.614463 0.238139 0.620958
O O1 0.539197 0.805853 0.357462
O O2 0.613007 0.700047 0.344053
O O3 0.714326 0.808100 0.365544
O O4 0.649341 0.764046 0.216979
O O5 0.200456 0.887795 0.454811
O O6 0.119390 0.919344 0.316979
O O7 0.251135 0.993353 0.379388
O O8 0.084808 0.974823 0.465384
O O9 0.335068 0.634951 0.614493
O O10 0.474448 0.643141 0.490714
O O11 0.351371 0.726310 0.533187
O O12 0.214530 0.616935 0.758231
O O13 0.155196 0.671254 0.620330
O O14 0.902262 0.642605 0.678758
O O15 0.805526 0.693066 0.815859
#
# Coordination Sequence:
#
# PCOD9370746 Si02
#       8
#    16  16  16  16  16  16   8  16
#     4  10  21  39  65  97 136 174 224 297 365 425
#     4  10  22  43  68  93 138 187 241 290 363 441
#     4  10  20  41  64  92 132 180 227 284 352 432
#     4  11  21  38  69  96 132 177 229 293 362 421
#     4  10  24  44  66  96 138 188 236 285 357 442
#     4  10  23  41  63  98 139 176 227 296 359 431
#     4  10  24  46  68  94 140 192 232 308 356 430
#     4  10  20  39  64  98 134 172 231 307 355 424
#
# _framework density 25.536314999999998
#
# number of rings (size 3 to 8) (size 9 to 14) (size 15 to 20)
#    0.000    1.867    2.667    0.400    1.867    4.267 
#    9.600    0.000    0.000    0.000    0.000    0.000 
#    0.000    0.000    0.000    0.000    0.000    0.000 
#
# Total GULP energy -167031.546284 kJ/mol
# GULP energy per Si atom -5567.718209 kJ/mol
# Density = 2.547819 g / cm^3
# Si number density = 25.536315 Si / 1000 Ang^3
#
#
#
# Elastic Constant Matrix: (Units=GPa)
#
#
# Indices 1 2 3 4 5 6 
#
# 1 32.6702 32.4327 21.5177 0.0000 0.0000 0.0000
# 2 32.4327 72.7683 22.9910 0.0000 0.0000 0.0000
# 3 21.5177 22.9910 61.0298 0.0000 0.0000 0.0000
# 4 0.0000 0.0000 0.0000 22.5484 0.0000 0.0000
# 5 0.0000 0.0000 0.0000 0.0000 30.2783 0.0000
# 6 0.0000 0.0000 0.0000 0.0000 0.0000 32.3102
#
#
#
# Elastic Compliance Matrix: (Units=1/GPa)
#
#
# Indices 1 2 3 4 5 6 
#
# 1 0.063082 -0.023937 -0.013224 0.000000 0.000000 0.000000
# 2 -0.023937 0.024682 -0.000858 0.000000 0.000000 0.000000
# 3 -0.013224 -0.000858 0.021371 0.000000 0.000000 0.000000
# 4 0.000000 0.000000 0.000000 0.044349 0.000000 0.000000
# 5 0.000000 0.000000 0.000000 0.000000 0.033027 0.000000
# 6 0.000000 0.000000 0.000000 0.000000 0.000000 0.030950
#
#
# Mechanical properties :
#
#
# Convention : Reuss Voigt Hill
#
# Bulk Modulus (GPa) = 30.21482 35.59457 32.90470
# Shear Modulus (GPa) = 16.41863 22.99585 19.70724
#
# Velocity S-wave (km/s) = 2.53840 3.00412 2.78102
# Velocity P-wave (km/s) = 4.52207 5.09922 4.81929
#
# Compressibility (1/GPa) = 0.03309634
#
# Stress axis : x y z
#
# Youngs Moduli (GPa) = 15.85246 40.51482 46.79199
#
# Poissons Ratio (x) = 0.96982 0.61876
# Poissons Ratio (y) = 0.37947 0.04017
# Poissons Ratio (z) = 0.20963 0.03478
#
# Static dielectric constant tensor:
#      x y z
#    x 2.123730 0.000000 0.000000 
#    y 0.000000 2.202010 0.000000 
#    z 0.000000 0.000000 2.101300 
# 
# From -- ./inp_files/10707.got.cif
#   From: 2010.05.17/outbox.cif.g08.bks.cpg/sg43_6_cif.got.tgz:10707.got - 2010.06.03 19:21:55.
