data_PCOD9370150
_publ_section_title
;
Structure prediction by ZEFSAII (Michael W. Deem and Ramdas Pophale) SiO2 
 PCOD9370150
Probable space group: F D D 2
;
_chemical_formula_sum "Si O2"
_cell_formula_units_Z 112
_cell_length_a 31.768069
_cell_length_b 14.278296
_cell_length_c 9.306366
_cell_angle_alpha 90.000000
_cell_angle_beta 90.000000
_cell_angle_gamma 90.000000
_cell_volume 4221.310779
_symmetry_space_group_name_H-M "F D D 2"
_symmetry_group_IT_number 43
_symmetry_cell_setting 'orthorhombic'
loop_
_space_group_symop_operation_xyz
x,y,z
-x,-y,z
1/4-x,1/4+y,1/4+z
1/4+x,1/4-y,1/4+z
x,1/2+y,1/2+z
-x,1/2-y,1/2+z
1/4-x,3/4+y,3/4+z
1/4+x,3/4-y,3/4+z
1/2+x,y,1/2+z
1/2-x,-y,1/2+z
3/4-x,1/4+y,3/4+z
3/4+x,1/4-y,3/4+z
1/2+x,1/2+y,z
1/2-x,1/2-y,z
3/4-x,3/4+y,1/4+z
3/4+x,3/4-y,1/4+z
loop_
_atom_site_type_symbol
_atom_site_label
_atom_site_fract_x
_atom_site_fract_y
_atom_site_fract_z
Si Si1 0.375818 0.943888 0.314530
Si Si2 0.929815 0.539637 0.068822
Si Si3 0.579515 0.957990 0.678983
Si Si4 0.206152 0.825789 0.700748
Si Si5 0.017978 0.622463 0.137375
Si Si6 0.493914 0.674466 0.205936
Si Si7 0.667246 0.919271 0.546147
O O1 0.351323 0.859390 0.235384
O O2 0.410032 0.888331 0.410899
O O3 0.403158 0.008209 0.208985
O O4 0.347784 0.006097 0.422370
O O5 0.951621 0.439633 0.036173
O O6 0.970218 0.604663 0.094600
O O7 0.542825 0.896492 0.753144
O O8 0.627354 0.924591 0.655270
O O9 0.556830 0.976648 0.522556
O O10 0.582920 0.061548 0.744251
O O11 0.228688 0.832404 0.549203
O O12 0.231312 0.882787 0.819113
O O13 0.028121 0.730521 0.155932
O O14 0.532733 0.693853 0.316122
#
# Coordination Sequence:
#
# PCOD9370150 Si02
#       7
#    16  16  16  16  16  16  16
#     4  10  18  31  55  86 115 144 188 251 303 356
#     4  10  20  33  54  85 114 147 193 242 305 360
#     4  10  22  34  59  87 119 156 201 250 310 364
#     4   9  20  34  56  85 116 149 199 249 303 363
#     4  10  22  35  55  86 120 153 194 247 307 372
#     4  11  21  36  57  89 125 159 198 256 319 368
#     4  10  19  34  55  88 117 146 195 254 298 362
#
# _framework density 26.532042000000001
#
# number of rings (size 3 to 8) (size 9 to 14) (size 15 to 20)
#    0.000    2.000    1.429    4.286   10.000    0.000 
#    0.000    2.857    0.000    0.000   22.286    0.000 
#    0.000    0.000    0.000    0.000    0.000    0.000 
#
# Total GULP energy -156253.717484 kJ/mol
# GULP energy per Si atom -5580.489910 kJ/mol
# Density = 2.647165 g / cm^3
# Si number density = 26.532042 Si / 1000 Ang^3
#
#
#
# Elastic Constant Matrix: (Units=GPa)
#
#
# Indices 1 2 3 4 5 6 
#
# 1 139.8364 71.1428 39.9082 0.0000 0.0000 0.0000
# 2 71.1428 118.3711 -3.7893 0.0000 0.0000 0.0000
# 3 39.9082 -3.7893 92.0479 0.0000 0.0000 0.0000
# 4 0.0000 0.0000 0.0000 13.4557 0.0000 0.0000
# 5 0.0000 0.0000 0.0000 0.0000 38.9874 0.0000
# 6 0.0000 0.0000 0.0000 0.0000 0.0000 58.6985
#
#
#
# Elastic Compliance Matrix: (Units=1/GPa)
#
#
# Indices 1 2 3 4 5 6 
#
# 1 0.012867 -0.007922 -0.005905 0.000000 0.000000 0.000000
# 2 -0.007922 0.013337 0.003984 0.000000 0.000000 0.000000
# 3 -0.005905 0.003984 0.013588 0.000000 0.000000 0.000000
# 4 0.000000 0.000000 0.000000 0.074318 0.000000 0.000000
# 5 0.000000 0.000000 0.000000 0.000000 0.025649 0.000000
# 6 0.000000 0.000000 0.000000 0.000000 0.000000 0.017036
#
#
# Mechanical properties :
#
#
# Convention : Reuss Voigt Hill
#
# Bulk Modulus (GPa) = 49.73763 62.75318 56.24540
# Shear Modulus (GPa) = 27.29510 38.42792 32.86151
#
# Velocity S-wave (km/s) = 3.21091 3.80986 3.52314
# Velocity P-wave (km/s) = 5.70382 6.56175 6.14777
#
# Compressibility (1/GPa) = 0.02010550
#
# Stress axis : x y z
#
# Youngs Moduli (GPa) = 77.71925 74.98002 73.59477
#
# Poissons Ratio (x) = 0.59400 0.43455
# Poissons Ratio (y) = 0.61571 -0.29318
# Poissons Ratio (z) = 0.45891 -0.29870
#
# Static dielectric constant tensor:
#      x y z
#    x 2.081110 0.000000 0.000000 
#    y 0.000000 2.043330 0.000000 
#    z 0.000000 0.000000 2.248200 
# 
# From -- ./inp_files/11710.got.cif
#   From: 2010.05.17/outbox.cif.g08.bks.cpg/sg43_6_cif.got.tgz:11710.got - 2010.06.03 19:21:55.
