data_PCOD9370089
_publ_section_title
;
Structure prediction by ZEFSAII (Michael W. Deem and Ramdas Pophale) SiO2 
 PCOD9370089
Probable space group: F D D 2
;
_chemical_formula_sum "Si O2"
_cell_formula_units_Z 112
_cell_length_a 10.972923
_cell_length_b 16.764958
_cell_length_c 24.515705
_cell_angle_alpha 90.000000
_cell_angle_beta 90.000000
_cell_angle_gamma 90.000000
_cell_volume 4509.923635
_symmetry_space_group_name_H-M "F D D 2"
_symmetry_group_IT_number 43
_symmetry_cell_setting 'orthorhombic'
loop_
_space_group_symop_operation_xyz
x,y,z
-x,-y,z
1/4-x,1/4+y,1/4+z
1/4+x,1/4-y,1/4+z
x,1/2+y,1/2+z
-x,1/2-y,1/2+z
1/4-x,3/4+y,3/4+z
1/4+x,3/4-y,3/4+z
1/2+x,y,1/2+z
1/2-x,-y,1/2+z
3/4-x,1/4+y,3/4+z
3/4+x,1/4-y,3/4+z
1/2+x,1/2+y,z
1/2-x,1/2-y,z
3/4-x,3/4+y,1/4+z
3/4+x,3/4-y,1/4+z
loop_
_atom_site_type_symbol
_atom_site_label
_atom_site_fract_x
_atom_site_fract_y
_atom_site_fract_z
Si Si1 0.352005 0.346447 0.413130
Si Si2 0.242287 0.551449 0.820649
Si Si3 0.357845 0.896653 0.136849
Si Si4 0.750000 0.250000 0.461970
Si Si5 0.626722 0.336371 0.613961
Si Si6 0.728990 0.507530 0.075195
Si Si7 0.500000 0.500000 0.262072
Si Si8 0.610404 0.593018 0.985408
O O1 0.268473 0.405544 0.378657
O O2 0.486907 0.388218 0.414735
O O3 0.386500 0.269550 0.373937
O O4 0.295418 0.317786 0.469327
O O5 0.355050 0.489373 0.824752
O O6 0.262572 0.618956 0.775492
O O7 0.114767 0.514883 0.801353
O O8 0.483928 0.852650 0.129069
O O9 0.387178 0.974617 0.173548
O O10 0.319473 0.932540 0.078483
O O11 0.709933 0.165287 0.485387
O O12 0.698056 0.410854 0.588275
O O13 0.680541 0.325492 0.674376
O O14 0.666594 0.519103 0.017436
#
# Coordination Sequence:
#
# PCOD9370089 Si02
#       8
#    16  16  16   8  16  16   8  16
#     4  10  23  42  64  94 138 180 228 281 348 426
#     4  12  26  42  68 107 135 184 237 292 352 432
#     4   9  17  38  67  87 130 176 215 280 336 409
#     4  10  16  36  64  93 121 170 224 274 338 404
#     4  11  22  43  67 101 137 170 238 298 333 428
#     4  10  20  40  68  94 130 183 225 281 355 427
#     4  12  24  46  70  93 143 196 224 290 374 416
#     4  11  22  38  66  95 134 177 225 284 356 409
#
# _framework density 24.834123000000002
#
# number of rings (size 3 to 8) (size 9 to 14) (size 15 to 20)
#    0.857    0.571    2.857    4.286    0.000    2.286 
#    0.000    1.429    6.286    0.000    0.000    0.000 
#    0.000    0.000    0.000    0.000    0.000    0.000 
#
# Total GULP energy -156226.971714 kJ/mol
# GULP energy per Si atom -5579.534704 kJ/mol
# Density = 2.477760 g / cm^3
# Si number density = 24.834123 Si / 1000 Ang^3
#
#
#
# Elastic Constant Matrix: (Units=GPa)
#
#
# Indices 1 2 3 4 5 6 
#
# 1 48.2932 19.8229 -3.6765 0.0000 0.0000 0.0000
# 2 19.8229 77.8771 18.7621 0.0000 0.0000 0.0000
# 3 -3.6765 18.7621 84.3323 0.0000 0.0000 0.0000
# 4 0.0000 0.0000 0.0000 26.3361 0.0000 0.0000
# 5 0.0000 0.0000 0.0000 0.0000 14.6010 0.0000
# 6 0.0000 0.0000 0.0000 0.0000 0.0000 36.7091
#
#
#
# Elastic Compliance Matrix: (Units=1/GPa)
#
#
# Indices 1 2 3 4 5 6 
#
# 1 0.023611 -0.006612 0.002500 0.000000 0.000000 0.000000
# 2 -0.006612 0.015420 -0.003719 0.000000 0.000000 0.000000
# 3 0.002500 -0.003719 0.012794 0.000000 0.000000 0.000000
# 4 0.000000 0.000000 0.000000 0.037971 0.000000 0.000000
# 5 0.000000 0.000000 0.000000 0.000000 0.068488 0.000000
# 6 0.000000 0.000000 0.000000 0.000000 0.000000 0.027241
#
#
# Mechanical properties :
#
#
# Convention : Reuss Voigt Hill
#
# Bulk Modulus (GPa) = 27.65199 31.14663 29.39931
# Shear Modulus (GPa) = 23.44754 27.23551 25.34152
#
# Velocity S-wave (km/s) = 3.07606 3.31523 3.19788
# Velocity P-wave (km/s) = 4.87597 5.21761 5.04968
#
# Compressibility (1/GPa) = 0.03616376
#
# Stress axis : x y z
#
# Youngs Moduli (GPa) = 42.35242 64.85160 78.16027
#
# Poissons Ratio (x) = 0.42883 -0.19544
# Poissons Ratio (y) = 0.28005 0.29067
# Poissons Ratio (z) = -0.10590 0.24117
#
# Static dielectric constant tensor:
#      x y z
#    x 2.099340 0.000000 0.000000 
#    y 0.000000 2.058120 0.000000 
#    z 0.000000 0.000000 1.987090 
# 
# From -- ./inp_files/21197.got.cif
#   From: 2010.05.17/outbox.cif.g08.bks.cpg/sg43_11_cif.got.tgz:21197.got - 2010.06.03 19:21:55.
