data_PCOD9370424
_publ_section_title
;
Structure prediction by ZEFSAII (Michael W. Deem and Ramdas Pophale) SiO2 
 PCOD9370424
Probable space group: F D D 2
;
_chemical_formula_sum "Si O2"
_cell_formula_units_Z 88
_cell_length_a 27.171157
_cell_length_b 10.512475
_cell_length_c 15.239078
_cell_angle_alpha 90.000000
_cell_angle_beta 90.000000
_cell_angle_gamma 90.000000
_cell_volume 4352.830940
_symmetry_space_group_name_H-M "F D D 2"
_symmetry_group_IT_number 43
_symmetry_cell_setting 'orthorhombic'
loop_
_space_group_symop_operation_xyz
x,y,z
-x,-y,z
1/4-x,1/4+y,1/4+z
1/4+x,1/4-y,1/4+z
x,1/2+y,1/2+z
-x,1/2-y,1/2+z
1/4-x,3/4+y,3/4+z
1/4+x,3/4-y,3/4+z
1/2+x,y,1/2+z
1/2-x,-y,1/2+z
3/4-x,1/4+y,3/4+z
3/4+x,1/4-y,3/4+z
1/2+x,1/2+y,z
1/2-x,1/2-y,z
3/4-x,3/4+y,1/4+z
3/4+x,3/4-y,1/4+z
loop_
_atom_site_type_symbol
_atom_site_label
_atom_site_fract_x
_atom_site_fract_y
_atom_site_fract_z
Si Si1 0.250000 0.750000 0.030131
Si Si2 0.130858 0.102028 0.817494
Si Si3 0.953814 0.092345 0.842484
Si Si4 0.736354 0.602380 0.264891
Si Si5 0.436461 0.685501 0.402860
Si Si6 0.031764 0.228719 0.181225
O O1 0.282710 0.843096 0.090444
O O2 0.214815 0.836106 0.968957
O O3 0.101398 0.221733 0.854260
O O4 0.156376 0.139595 0.726761
O O5 0.091711 0.987873 0.806566
O O6 0.172279 0.041694 0.881105
O O7 0.972631 0.189315 0.769279
O O8 0.943205 0.145013 0.941254
O O9 0.000000 0.000000 0.855285
O O10 0.750000 0.750000 0.283729
O O11 0.778117 0.528981 0.208846
O O12 0.737569 0.530765 0.358923
#
# Coordination Sequence:
#
# PCOD9370424 Si02
#       6
#     8  16  16  16  16  16
#     4  12  24  46  62 100 140 180 210 294 346 396
#     4  11  22  43  67  98 129 179 230 278 321 416
#     4  11  20  40  69  94 128 179 222 268 338 406
#     4  10  19  37  67  93 122 179 217 266 320 414
#     4  11  23  42  66  94 137 171 228 277 338 397
#     4  11  23  40  65  95 134 172 223 275 337 393
#
# _framework density 20.216729000000001
#
# number of rings (size 3 to 8) (size 9 to 14) (size 15 to 20)
#    0.000    1.091    8.182    0.000    0.000    0.000 
#    9.818    1.818    0.000    0.000    0.000    0.000 
#    0.000    0.000    0.000    0.000    0.000    0.000 
#
# Total GULP energy -122491.358400 kJ/mol
# GULP energy per Si atom -5567.789018 kJ/mol
# Density = 2.017071 g / cm^3
# Si number density = 20.216729 Si / 1000 Ang^3
#
#
#
# Elastic Constant Matrix: (Units=GPa)
#
#
# Indices 1 2 3 4 5 6 
#
# 1 43.1377 24.1661 24.5564 0.0000 0.0000 0.0000
# 2 24.1661 89.7819 57.8433 0.0000 0.0000 0.0000
# 3 24.5564 57.8433 136.2912 0.0000 0.0000 0.0000
# 4 0.0000 0.0000 0.0000 32.8929 0.0000 0.0000
# 5 0.0000 0.0000 0.0000 0.0000 16.6703 0.0000
# 6 0.0000 0.0000 0.0000 0.0000 0.0000 27.5473
#
#
#
# Elastic Compliance Matrix: (Units=1/GPa)
#
#
# Indices 1 2 3 4 5 6 
#
# 1 0.027919 -0.005882 -0.002534 0.000000 0.000000 0.000000
# 2 -0.005882 0.016569 -0.005972 0.000000 0.000000 0.000000
# 3 -0.002534 -0.005972 0.010328 0.000000 0.000000 0.000000
# 4 0.000000 0.000000 0.000000 0.030402 0.000000 0.000000
# 5 0.000000 0.000000 0.000000 0.000000 0.059987 0.000000
# 6 0.000000 0.000000 0.000000 0.000000 0.000000 0.036301
#
#
# Mechanical properties :
#
#
# Convention : Reuss Voigt Hill
#
# Bulk Modulus (GPa) = 38.40253 53.59358 45.99805
# Shear Modulus (GPa) = 22.83482 26.26510 24.54996
#
# Velocity S-wave (km/s) = 3.36445 3.60832 3.48852
# Velocity P-wave (km/s) = 5.84203 6.62775 6.24726
#
# Compressibility (1/GPa) = 0.02603995
#
# Stress axis : x y z
#
# Youngs Moduli (GPa) = 35.81740 60.35319 96.82010
#
# Poissons Ratio (x) = 0.35502 0.24533
# Poissons Ratio (y) = 0.21069 0.57823
# Poissons Ratio (z) = 0.09076 0.36044
#
# Static dielectric constant tensor:
#      x y z
#    x 1.725930 0.000000 0.000000 
#    y 0.000000 1.734810 0.000000 
#    z 0.000000 0.000000 1.814010 
# 
# From -- ./inp_files/11637.got.cif
#   From: 2010.05.17/outbox.cif.g08.bks.cpg/sg43_6_cif.got.tgz:11637.got - 2010.06.03 19:21:55.
