data_PCOD9370631
_publ_section_title
;
Structure prediction by ZEFSAII (Michael W. Deem and Ramdas Pophale) SiO2 
 PCOD9370631
Probable space group: F D D 2
;
_chemical_formula_sum "Si O2"
_cell_formula_units_Z 80
_cell_length_a 14.172549
_cell_length_b 9.694183
_cell_length_c 25.798992
_cell_angle_alpha 90.000000
_cell_angle_beta 90.000000
_cell_angle_gamma 90.000000
_cell_volume 3544.556626
_symmetry_space_group_name_H-M "F D D 2"
_symmetry_group_IT_number 43
_symmetry_cell_setting 'orthorhombic'
loop_
_space_group_symop_operation_xyz
x,y,z
-x,-y,z
1/4-x,1/4+y,1/4+z
1/4+x,1/4-y,1/4+z
x,1/2+y,1/2+z
-x,1/2-y,1/2+z
1/4-x,3/4+y,3/4+z
1/4+x,3/4-y,3/4+z
1/2+x,y,1/2+z
1/2-x,-y,1/2+z
3/4-x,1/4+y,3/4+z
3/4+x,1/4-y,3/4+z
1/2+x,1/2+y,z
1/2-x,1/2-y,z
3/4-x,3/4+y,1/4+z
3/4+x,3/4-y,1/4+z
loop_
_atom_site_type_symbol
_atom_site_label
_atom_site_fract_x
_atom_site_fract_y
_atom_site_fract_z
Si Si1 0.501271 0.334266 0.309090
Si Si2 0.979718 0.718371 0.197732
Si Si3 0.330213 0.143769 0.353946
Si Si4 0.681783 0.117189 0.161100
Si Si5 0.200571 0.400453 0.241292
O O1 0.500000 0.500000 0.309678
O O2 0.510614 0.301775 0.248913
O O3 0.413303 0.243844 0.332112
O O4 0.576144 0.299644 0.353913
O O5 0.076691 0.663733 0.174777
O O6 0.916541 0.794771 0.153617
O O7 0.907609 0.610692 0.223015
O O8 0.250000 0.250000 0.370080
O O9 0.296815 0.063090 0.302005
O O10 0.750000 0.250000 0.160153
O O11 0.734606 0.014860 0.201314
O O12 0.250000 0.250000 0.237027
#
# Coordination Sequence:
#
# PCOD9370631 Si02
#       5
#    16  16  16  16  16
#     4  10  22  38  60  94 131 167 212 262 316 382
#     4  11  23  40  66  92 127 170 213 265 321 377
#     4  10  20  37  63  93 126 169 214 261 321 381
#     4  11  24  41  63  95 131 168 214 263 315 379
#     4  10  23  42  65  94 128 168 213 261 321 385
#
# _framework density 22.569817
#
# number of rings (size 3 to 8) (size 9 to 14) (size 15 to 20)
#    0.000    1.600    0.000    4.800    0.000    8.000 
#    0.000    2.000    0.000    0.000    0.000    0.000 
#    0.000    0.000    0.000    0.000    0.000    0.000 
#
# Total GULP energy -111364.737511 kJ/mol
# GULP energy per Si atom -5568.236876 kJ/mol
# Density = 2.251845 g / cm^3
# Si number density = 22.569817 Si / 1000 Ang^3
#
#
#
# Elastic Constant Matrix: (Units=GPa)
#
#
# Indices 1 2 3 4 5 6 
#
# 1 74.9414 5.1259 7.4643 0.0000 0.0000 0.0000
# 2 5.1259 61.3369 58.8114 0.0000 0.0000 0.0000
# 3 7.4643 58.8114 182.4430 0.0000 0.0000 0.0000
# 4 0.0000 0.0000 0.0000 -415.3818 0.0000 0.0000
# 5 0.0000 0.0000 0.0000 0.0000 16.4760 0.0000
# 6 0.0000 0.0000 0.0000 0.0000 0.0000 18.3383
#
#
#
# Elastic Compliance Matrix: (Units=1/GPa)
#
#
# Indices 1 2 3 4 5 6 
#
# 1 0.013430 -0.000862 -0.000272 0.000000 0.000000 0.000000
# 2 -0.000862 0.023652 -0.007589 0.000000 0.000000 0.000000
# 3 -0.000272 -0.007589 0.007939 0.000000 0.000000 0.000000
# 4 0.000000 0.000000 0.000000 -0.002407 0.000000 0.000000
# 5 0.000000 0.000000 0.000000 0.000000 0.060695 0.000000
# 6 0.000000 0.000000 0.000000 0.000000 0.000000 0.054531
#
#
# Mechanical properties :
#
#
# Convention : Reuss Voigt Hill
#
# Bulk Modulus (GPa) = 36.26433 51.28049 43.77241
# Shear Modulus (GPa) = 27.10393 -59.62552 -16.26079
#
# Velocity S-wave (km/s) = 3.46915 -5.14545 -2.68706
# Velocity P-wave (km/s) = 5.67002 3.53987 3.13197
#
# Compressibility (1/GPa) = 0.02757530
#
# Stress axis : x y z
#
# Youngs Moduli (GPa) = 74.46148 42.27962 125.96589
#
# Poissons Ratio (x) = 0.03644 0.03422
# Poissons Ratio (y) = 0.06418 0.95597
# Poissons Ratio (z) = 0.02023 0.32086
#
# Static dielectric constant tensor:
#      x y z
#    x 2.042290 0.000000 0.000000 
#    y 0.000000 1.958510 0.000000 
#    z 0.000000 0.000000 1.918970 
# 
# From -- ./inp_files/20938.got.cif
#   From: 2010.05.17/outbox.cif.g08.bks.cpg/sg43_11_cif.got.tgz:20938.got - 2010.06.03 19:21:55.
