data_PCOD9370559
_publ_section_title
;
Structure prediction by ZEFSAII (Michael W. Deem and Ramdas Pophale) SiO2 
 PCOD9370559
Probable space group: F D D 2
;
_chemical_formula_sum "Si O2"
_cell_formula_units_Z 120
_cell_length_a 22.093141
_cell_length_b 9.783858
_cell_length_c 27.791688
_cell_angle_alpha 90.000000
_cell_angle_beta 90.000000
_cell_angle_gamma 90.000000
_cell_volume 6007.344400
_symmetry_space_group_name_H-M "F D D 2"
_symmetry_group_IT_number 43
_symmetry_cell_setting 'orthorhombic'
loop_
_space_group_symop_operation_xyz
x,y,z
-x,-y,z
1/4-x,1/4+y,1/4+z
1/4+x,1/4-y,1/4+z
x,1/2+y,1/2+z
-x,1/2-y,1/2+z
1/4-x,3/4+y,3/4+z
1/4+x,3/4-y,3/4+z
1/2+x,y,1/2+z
1/2-x,-y,1/2+z
3/4-x,1/4+y,3/4+z
3/4+x,1/4-y,3/4+z
1/2+x,1/2+y,z
1/2-x,1/2-y,z
3/4-x,3/4+y,1/4+z
3/4+x,3/4-y,1/4+z
loop_
_atom_site_type_symbol
_atom_site_label
_atom_site_fract_x
_atom_site_fract_y
_atom_site_fract_z
Si Si1 0.250000 0.750000 0.937001
Si Si2 0.679130 0.222016 0.378263
Si Si3 0.093985 0.507067 0.602720
Si Si4 0.598702 0.207504 0.060040
Si Si5 0.103673 0.504642 0.231849
Si Si6 0.964188 0.130785 0.822518
Si Si7 0.701829 0.543736 0.508223
Si Si8 0.540625 0.756963 0.048001
O O1 0.191779 0.742996 0.902428
O O2 0.253807 0.881049 0.971297
O O3 0.750000 0.250000 0.387022
O O4 0.649582 0.357603 0.356196
O O5 0.651870 0.188735 0.429750
O O6 0.677649 0.107584 0.336978
O O7 0.105747 0.363125 0.576583
O O8 0.160209 0.573221 0.606673
O O9 0.052041 0.607552 0.570465
O O10 0.648161 0.147442 0.023459
O O11 0.528861 0.200725 0.042549
O O12 0.068309 0.418994 0.272757
O O13 0.074656 0.656189 0.234148
O O14 0.172265 0.516614 0.249253
O O15 0.011400 0.245758 0.805522
O O16 0.000000 0.000000 0.841667
#
# Coordination Sequence:
#
# PCOD9370559 Si02
#       8
#     8  16  16  16  16  16  16  16
#     4  12  24  38  62  94 126 162 222 266 320 386
#     4  10  20  35  63  92 122 165 222 264 319 390
#     4  11  22  39  64  90 128 166 214 266 317 389
#     4  11  21  39  63  94 131 168 211 265 334 387
#     4  10  20  36  62  95 127 166 219 271 313 389
#     4   9  21  40  62  92 128 168 211 264 330 381
#     4  11  22  38  61  92 128 166 213 267 327 391
#     4  10  21  39  61  94 130 171 212 266 324 387
#
# _framework density 19.975549000000001
#
# number of rings (size 3 to 8) (size 9 to 14) (size 15 to 20)
#    0.000    1.600    2.667    2.800    3.733    0.000 
#    0.000    1.333    0.000    3.200    0.000    0.000 
#    0.000    0.000    0.000    0.000    0.000    0.000 
#
# Total GULP energy -167558.043293 kJ/mol
# GULP energy per Si atom -5585.268110 kJ/mol
# Density = 1.993008 g / cm^3
# Si number density = 19.975549 Si / 1000 Ang^3
#
#
#
# Elastic Constant Matrix: (Units=GPa)
#
#
# Indices 1 2 3 4 5 6 
#
# 1 86.4408 17.5708 17.3663 0.0000 0.0000 0.0000
# 2 17.5708 83.7866 11.1369 0.0000 0.0000 0.0000
# 3 17.3663 11.1369 52.4879 0.0000 0.0000 0.0000
# 4 0.0000 0.0000 0.0000 10.0431 0.0000 0.0000
# 5 0.0000 0.0000 0.0000 0.0000 -52.9775 0.0000
# 6 0.0000 0.0000 0.0000 0.0000 0.0000 28.4617
#
#
#
# Elastic Compliance Matrix: (Units=1/GPa)
#
#
# Indices 1 2 3 4 5 6 
#
# 1 0.012767 -0.002177 -0.003762 0.000000 0.000000 0.000000
# 2 -0.002177 0.012653 -0.001964 0.000000 0.000000 0.000000
# 3 -0.003762 -0.001964 0.020714 0.000000 0.000000 0.000000
# 4 0.000000 0.000000 0.000000 0.099571 0.000000 0.000000
# 5 0.000000 0.000000 0.000000 0.000000 -0.018876 0.000000
# 6 0.000000 0.000000 0.000000 0.000000 0.000000 0.035135
#
#
# Mechanical properties :
#
#
# Convention : Reuss Voigt Hill
#
# Bulk Modulus (GPa) = 32.97511 34.98478 33.97994
# Shear Modulus (GPa) = 26.61280 8.88155 17.74717
#
# Velocity S-wave (km/s) = 3.65399 2.11089 2.98391
# Velocity P-wave (km/s) = 5.86052 4.84695 5.37767
#
# Compressibility (1/GPa) = 0.03032591
#
# Stress axis : x y z
#
# Youngs Moduli (GPa) = 78.32682 79.03405 48.27759
#
# Poissons Ratio (x) = 0.17208 0.18163
# Poissons Ratio (y) = 0.17054 0.09483
# Poissons Ratio (z) = 0.29468 0.15524
#
# Static dielectric constant tensor:
#      x y z
#    x 1.730590 0.000000 0.000000 
#    y 0.000000 1.736980 0.000000 
#    z 0.000000 0.000000 1.671530 
# 
# From -- ./inp_files/29871.got.cif
#   From: 2010.05.17/outbox.cif.g08.bks.cpg/sg43_15_cif.got.tgz:29871.got - 2010.06.03 19:21:55.
