data_PCOD9370412
_publ_section_title
;
Structure prediction by ZEFSAII (Michael W. Deem and Ramdas Pophale) SiO2 
 PCOD9370412
Probable space group: F D D 2
;
_chemical_formula_sum "Si O2"
_cell_formula_units_Z 112
_cell_length_a 17.148177
_cell_length_b 11.948977
_cell_length_c 25.040212
_cell_angle_alpha 90.000000
_cell_angle_beta 90.000000
_cell_angle_gamma 90.000000
_cell_volume 5130.818880
_symmetry_space_group_name_H-M "F D D 2"
_symmetry_group_IT_number 43
_symmetry_cell_setting 'orthorhombic'
loop_
_space_group_symop_operation_xyz
x,y,z
-x,-y,z
1/4-x,1/4+y,1/4+z
1/4+x,1/4-y,1/4+z
x,1/2+y,1/2+z
-x,1/2-y,1/2+z
1/4-x,3/4+y,3/4+z
1/4+x,3/4-y,3/4+z
1/2+x,y,1/2+z
1/2-x,-y,1/2+z
3/4-x,1/4+y,3/4+z
3/4+x,1/4-y,3/4+z
1/2+x,1/2+y,z
1/2-x,1/2-y,z
3/4-x,3/4+y,1/4+z
3/4+x,3/4-y,1/4+z
loop_
_atom_site_type_symbol
_atom_site_label
_atom_site_fract_x
_atom_site_fract_y
_atom_site_fract_z
Si Si1 0.324679 0.606191 0.051210
Si Si2 0.554029 0.364623 0.675275
Si Si3 0.153211 0.164306 0.586532
Si Si4 0.867174 0.149208 0.454173
Si Si5 0.840467 0.801529 0.812423
Si Si6 0.985448 0.132278 0.841614
Si Si7 0.573495 0.430736 0.953344
O O1 0.233431 0.639472 0.054597
O O2 0.361540 0.702519 0.088918
O O3 0.323052 0.471848 0.063277
O O4 0.374258 0.627011 0.997890
O O5 0.469188 0.341687 0.700459
O O6 0.593517 0.470180 0.705086
O O7 0.545496 0.400543 0.613644
O O8 0.614299 0.264928 0.677251
O O9 0.158824 0.126087 0.648227
O O10 0.089671 0.083435 0.558589
O O11 0.915182 0.109739 0.505255
O O12 0.929227 0.822363 0.830682
O O13 0.962292 0.137009 0.903925
O O14 0.000000 0.000000 0.827496
O O15 0.500000 0.500000 0.976775
#
# Coordination Sequence:
#
# PCOD9370412 Si02
#       7
#    16  16  16  16  16  16  16
#     4  10  22  41  65  87 128 177 204 263 329 374
#     4  10  20  36  58  95 126 151 213 266 316 385
#     4   9  21  43  60  89 127 166 222 256 308 403
#     4  10  22  36  63  92 122 164 213 266 318 372
#     4  10  19  37  63  88 122 161 201 265 323 364
#     4  10  20  37  61  93 122 157 209 257 313 380
#     4  11  22  39  63  98 131 166 209 262 327 397
#
# _framework density 21.828875
#
# number of rings (size 3 to 8) (size 9 to 14) (size 15 to 20)
#    0.000    2.000    2.857    1.714    4.000    1.143 
#    5.143    5.714    0.000    0.000    0.000    0.000 
#    0.000    0.000    0.000    0.000    0.000    0.000 
#
# Total GULP energy -155881.869277 kJ/mol
# GULP energy per Si atom -5567.209617 kJ/mol
# Density = 2.177919 g / cm^3
# Si number density = 21.828875 Si / 1000 Ang^3
#
#
#
# Elastic Constant Matrix: (Units=GPa)
#
#
# Indices 1 2 3 4 5 6 
#
# 1 57.9136 -1.8633 15.5145 0.0000 0.0000 0.0000
# 2 -1.8633 94.3249 26.3738 0.0000 0.0000 0.0000
# 3 15.5145 26.3738 106.2206 0.0000 0.0000 0.0000
# 4 0.0000 0.0000 0.0000 17.9842 0.0000 0.0000
# 5 0.0000 0.0000 0.0000 0.0000 30.3194 0.0000
# 6 0.0000 0.0000 0.0000 0.0000 0.0000 11.4047
#
#
#
# Elastic Compliance Matrix: (Units=1/GPa)
#
#
# Indices 1 2 3 4 5 6 
#
# 1 0.018091 0.001178 -0.002935 0.000000 0.000000 0.000000
# 2 0.001178 0.011469 -0.003020 0.000000 0.000000 0.000000
# 3 -0.002935 -0.003020 0.010593 0.000000 0.000000 0.000000
# 4 0.000000 0.000000 0.000000 0.055604 0.000000 0.000000
# 5 0.000000 0.000000 0.000000 0.000000 0.032982 0.000000
# 6 0.000000 0.000000 0.000000 0.000000 0.000000 0.087683
#
#
# Mechanical properties :
#
#
# Convention : Reuss Voigt Hill
#
# Bulk Modulus (GPa) = 32.67977 37.61212 35.14594
# Shear Modulus (GPa) = 21.17066 26.50395 23.83730
#
# Velocity S-wave (km/s) = 3.11761 3.48827 3.30814
# Velocity P-wave (km/s) = 5.28798 5.78722 5.54322
#
# Compressibility (1/GPa) = 0.03059997
#
# Stress axis : x y z
#
# Youngs Moduli (GPa) = 55.27542 87.18940 94.40347
#
# Poissons Ratio (x) = -0.10271 0.27706
# Poissons Ratio (y) = -0.06511 0.28508
# Poissons Ratio (z) = 0.16223 0.26329
#
# Static dielectric constant tensor:
#      x y z
#    x 1.835690 0.000000 0.000000 
#    y 0.000000 1.959980 0.000000 
#    z 0.000000 0.000000 1.825300 
# 
# From -- ./inp_files/22422.got.cif
#   From: 2010.05.17/outbox.cif.g08.bks.cpg/sg43_12_cif.got.tgz:22422.got - 2010.06.03 19:21:55.
