data_PCOD9370297
_publ_section_title
;
Structure prediction by ZEFSAII (Michael W. Deem and Ramdas Pophale) SiO2 
 PCOD9370297
Probable space group: F D D 2
;
_chemical_formula_sum "Si O2"
_cell_formula_units_Z 104
_cell_length_a 17.657866
_cell_length_b 17.860944
_cell_length_c 16.769263
_cell_angle_alpha 90.000000
_cell_angle_beta 90.000000
_cell_angle_gamma 90.000000
_cell_volume 5288.793393
_symmetry_space_group_name_H-M "F D D 2"
_symmetry_group_IT_number 43
_symmetry_cell_setting 'orthorhombic'
loop_
_space_group_symop_operation_xyz
x,y,z
-x,-y,z
1/4-x,1/4+y,1/4+z
1/4+x,1/4-y,1/4+z
x,1/2+y,1/2+z
-x,1/2-y,1/2+z
1/4-x,3/4+y,3/4+z
1/4+x,3/4-y,3/4+z
1/2+x,y,1/2+z
1/2-x,-y,1/2+z
3/4-x,1/4+y,3/4+z
3/4+x,1/4-y,3/4+z
1/2+x,1/2+y,z
1/2-x,1/2-y,z
3/4-x,3/4+y,1/4+z
3/4+x,3/4-y,1/4+z
loop_
_atom_site_type_symbol
_atom_site_label
_atom_site_fract_x
_atom_site_fract_y
_atom_site_fract_z
Si Si1 0.158947 0.995092 0.412260
Si Si2 0.039983 0.614623 0.422493
Si Si3 0.429753 0.087988 0.695222
Si Si4 0.500000 0.000000 0.303604
Si Si5 0.250000 0.250000 0.301135
Si Si6 0.730909 0.979898 0.745198
Si Si7 0.500000 0.500000 0.323752
Si Si8 0.627554 0.854945 0.017696
O O1 0.170015 0.074253 0.452804
O O2 0.074960 0.998763 0.375104
O O3 0.217745 0.991341 0.339481
O O4 0.161767 0.924175 0.469739
O O5 0.982112 0.570497 0.361961
O O6 0.048968 0.555108 0.494296
O O7 0.008958 0.693332 0.453971
O O8 0.111846 0.620936 0.362679
O O9 0.455368 0.056416 0.609575
O O10 0.350227 0.047312 0.713477
O O11 0.492695 0.067478 0.761066
O O12 0.428982 0.969476 0.255312
O O13 0.794294 0.915670 0.738436
#
# Coordination Sequence:
#
# PCOD9370297 Si02
#       8
#    16  16  16   8   8  16   8  16
#     4  11  22  41  63  92 130 175 219 260 332 386
#     4   9  20  42  64  95 129 163 218 263 327 382
#     4  10  22  39  65  96 129 171 218 278 326 384
#     4   7  20  43  60  91 132 161 208 269 314 373
#     4  10  18  44  66  94 127 171 210 281 327 376
#     4  11  23  40  65  98 126 173 220 262 329 393
#     4   9  22  41  58  91 137 162 220 278 315 393
#     4  10  23  41  63  94 131 171 213 269 321 392
#
# _framework density 19.66422
#
# number of rings (size 3 to 8) (size 9 to 14) (size 15 to 20)
#    0.923    1.231    1.538    0.923    0.000    6.154 
#    8.308    0.000    0.000    0.000    0.000    0.000 
#    0.000    0.000    0.000    0.000    0.000    0.000 
#
# Total GULP energy -144738.248991 kJ/mol
# GULP energy per Si atom -5566.855730 kJ/mol
# Density = 1.961946 g / cm^3
# Si number density = 19.664220 Si / 1000 Ang^3
#
#
#
# Elastic Constant Matrix: (Units=GPa)
#
#
# Indices 1 2 3 4 5 6 
#
# 1 32.4403 9.4182 16.7528 0.0000 0.0000 0.0000
# 2 9.4182 111.5309 34.0262 0.0000 0.0000 0.0000
# 3 16.7528 34.0262 71.1699 0.0000 0.0000 0.0000
# 4 0.0000 0.0000 0.0000 42.5747 0.0000 0.0000
# 5 0.0000 0.0000 0.0000 0.0000 16.3953 0.0000
# 6 0.0000 0.0000 0.0000 0.0000 0.0000 17.0823
#
#
#
# Elastic Compliance Matrix: (Units=1/GPa)
#
#
# Indices 1 2 3 4 5 6 
#
# 1 0.035117 -0.000519 -0.008018 0.000000 0.000000 0.000000
# 2 -0.000519 0.010505 -0.004900 0.000000 0.000000 0.000000
# 3 -0.008018 -0.004900 0.018281 0.000000 0.000000 0.000000
# 4 0.000000 0.000000 0.000000 0.023488 0.000000 0.000000
# 5 0.000000 0.000000 0.000000 0.000000 0.060993 0.000000
# 6 0.000000 0.000000 0.000000 0.000000 0.000000 0.058540
#
#
# Mechanical properties :
#
#
# Convention : Reuss Voigt Hill
#
# Bulk Modulus (GPa) = 27.00638 37.28173 32.14406
# Shear Modulus (GPa) = 20.31342 25.54002 22.92672
#
# Velocity S-wave (km/s) = 3.21754 3.60781 3.41825
# Velocity P-wave (km/s) = 5.25043 6.02954 5.65342
#
# Compressibility (1/GPa) = 0.03702828
#
# Stress axis : x y z
#
# Youngs Moduli (GPa) = 28.47599 95.19332 54.70159
#
# Poissons Ratio (x) = 0.04944 0.43860
# Poissons Ratio (y) = 0.01479 0.26805
# Poissons Ratio (z) = 0.22832 0.46646
#
# Static dielectric constant tensor:
#      x y z
#    x 1.719010 0.000000 0.000000 
#    y 0.000000 1.680860 0.000000 
#    z 0.000000 0.000000 1.723090 
# 
# From -- ./inp_files/14264.got.cif
#   From: 2010.05.17/outbox.cif.g08.bks.cpg/sg43_8_cif.got.tgz:14264.got - 2010.06.03 19:21:55.
