data_PCOD9370935
_publ_section_title
;
Structure prediction by ZEFSAII (Michael W. Deem and Ramdas Pophale) SiO2 
 PCOD9370935
Probable space group: F D D 2
;
_chemical_formula_sum "Si O2"
_cell_formula_units_Z 96
_cell_length_a 23.172678
_cell_length_b 15.752349
_cell_length_c 13.036757
_cell_angle_alpha 90.000000
_cell_angle_beta 90.000000
_cell_angle_gamma 90.000000
_cell_volume 4758.730636
_symmetry_space_group_name_H-M "F D D 2"
_symmetry_group_IT_number 43
_symmetry_cell_setting 'orthorhombic'
loop_
_space_group_symop_operation_xyz
x,y,z
-x,-y,z
1/4-x,1/4+y,1/4+z
1/4+x,1/4-y,1/4+z
x,1/2+y,1/2+z
-x,1/2-y,1/2+z
1/4-x,3/4+y,3/4+z
1/4+x,3/4-y,3/4+z
1/2+x,y,1/2+z
1/2-x,-y,1/2+z
3/4-x,1/4+y,3/4+z
3/4+x,1/4-y,3/4+z
1/2+x,1/2+y,z
1/2-x,1/2-y,z
3/4-x,3/4+y,1/4+z
3/4+x,3/4-y,1/4+z
loop_
_atom_site_type_symbol
_atom_site_label
_atom_site_fract_x
_atom_site_fract_y
_atom_site_fract_z
Si Si1 0.292040 0.385122 0.370850
Si Si2 0.750000 0.250000 0.035658
Si Si3 0.750000 0.250000 0.548133
Si Si4 0.603159 0.560265 0.665769
Si Si5 0.903389 0.527243 0.453328
Si Si6 0.326868 0.086494 0.276545
Si Si7 0.393700 0.500214 0.437166
O O1 0.265054 0.329712 0.462610
O O2 0.334401 0.322594 0.309416
O O3 0.241505 0.412164 0.293126
O O4 0.331758 0.461580 0.406775
O O5 0.805517 0.231609 0.106425
O O6 0.707176 0.304728 0.477748
O O7 0.793719 0.296217 0.625183
O O8 0.645473 0.486254 0.706629
O O9 0.591563 0.540692 0.546946
O O10 0.634249 0.648809 0.688102
O O11 0.903357 0.426869 0.478957
O O12 0.850330 0.564901 0.390624
#
# Coordination Sequence:
#
# PCOD9370935 Si02
#       7
#    16   8   8  16  16  16  16
#     4  12  24  45  71 101 136 185 241 292 351 428
#     4  12  24  50  70  98 148 182 234 306 348 428
#     4  10  20  42  72  90 138 176 228 300 338 420
#     4  11  25  44  67 104 141 185 237 287 363 427
#     4  11  22  41  71 102 135 181 238 296 357 411
#     4  11  23  43  70 102 139 183 234 299 348 430
#     4  12  27  46  70 104 143 191 235 293 361 434
#
# _framework density 20.173448
#
# number of rings (size 3 to 8) (size 9 to 14) (size 15 to 20)
#    0.000    0.667    5.000    3.500    0.000    5.333 
#    0.000    0.000    0.000    0.000    0.000    0.000 
#    0.000    0.000    0.000    0.000    0.000    0.000 
#
# Total GULP energy -134039.003036 kJ/mol
# GULP energy per Si atom -5584.958460 kJ/mol
# Density = 2.012753 g / cm^3
# Si number density = 20.173448 Si / 1000 Ang^3
#
#
#
# Elastic Constant Matrix: (Units=GPa)
#
#
# Indices 1 2 3 4 5 6 
#
# 1 60.7830 35.9284 7.5725 0.0000 0.0000 0.0000
# 2 35.9284 89.9224 21.1572 0.0000 0.0000 0.0000
# 3 7.5725 21.1572 71.0333 0.0000 0.0000 0.0000
# 4 0.0000 0.0000 0.0000 27.1436 0.0000 0.0000
# 5 0.0000 0.0000 0.0000 0.0000 39.0655 0.0000
# 6 0.0000 0.0000 0.0000 0.0000 0.0000 30.5753
#
#
#
# Elastic Compliance Matrix: (Units=1/GPa)
#
#
# Indices 1 2 3 4 5 6 
#
# 1 0.021544 -0.008676 0.000287 0.000000 0.000000 0.000000
# 2 -0.008676 0.015452 -0.003678 0.000000 0.000000 0.000000
# 3 0.000287 -0.003678 0.015143 0.000000 0.000000 0.000000
# 4 0.000000 0.000000 0.000000 0.036841 0.000000 0.000000
# 5 0.000000 0.000000 0.000000 0.000000 0.025598 0.000000
# 6 0.000000 0.000000 0.000000 0.000000 0.000000 0.032706
#
#
# Mechanical properties :
#
#
# Convention : Reuss Voigt Hill
#
# Bulk Modulus (GPa) = 35.70481 39.00611 37.35546
# Shear Modulus (GPa) = 27.66220 29.82891 28.74556
#
# Velocity S-wave (km/s) = 3.70701 3.84946 3.77891
# Velocity P-wave (km/s) = 6.00499 6.25581 6.13168
#
# Compressibility (1/GPa) = 0.02800743
#
# Stress axis : x y z
#
# Youngs Moduli (GPa) = 46.41606 64.71533 66.03862
#
# Poissons Ratio (x) = 0.56144 -0.01897
# Poissons Ratio (y) = 0.40269 0.24286
# Poissons Ratio (z) = -0.01333 0.23800
#
# Static dielectric constant tensor:
#      x y z
#    x 1.799490 0.000000 0.000000 
#    y 0.000000 1.716950 0.000000 
#    z 0.000000 0.000000 1.728140 
# 
# From -- ./inp_files/7537.got.cif
#   From: 2010.05.17/outbox.cif.g08.bks.cpg/sg43_4_cif.got.tgz:7537.got - 2010.06.03 19:21:55.
