data_PCOD9370684
_publ_section_title
;
Structure prediction by ZEFSAII (Michael W. Deem and Ramdas Pophale) SiO2 
 PCOD9370684
Probable space group: F D D 2
;
_chemical_formula_sum "Si O2"
_cell_formula_units_Z 72
_cell_length_a 18.237937
_cell_length_b 6.558188
_cell_length_c 20.753795
_cell_angle_alpha 90.000000
_cell_angle_beta 90.000000
_cell_angle_gamma 90.000000
_cell_volume 2482.316168
_symmetry_space_group_name_H-M "F D D 2"
_symmetry_group_IT_number 43
_symmetry_cell_setting 'orthorhombic'
loop_
_space_group_symop_operation_xyz
x,y,z
-x,-y,z
1/4-x,1/4+y,1/4+z
1/4+x,1/4-y,1/4+z
x,1/2+y,1/2+z
-x,1/2-y,1/2+z
1/4-x,3/4+y,3/4+z
1/4+x,3/4-y,3/4+z
1/2+x,y,1/2+z
1/2-x,-y,1/2+z
3/4-x,1/4+y,3/4+z
3/4+x,1/4-y,3/4+z
1/2+x,1/2+y,z
1/2-x,1/2-y,z
3/4-x,3/4+y,1/4+z
3/4+x,3/4-y,1/4+z
loop_
_atom_site_type_symbol
_atom_site_label
_atom_site_fract_x
_atom_site_fract_y
_atom_site_fract_z
Si Si1 0.412017 0.781477 0.650210
Si Si2 0.750000 0.750000 0.984641
Si Si3 0.750000 0.250000 0.801264
Si Si4 0.621634 0.482439 0.265971
Si Si5 0.774951 0.505444 0.601176
Si Si6 0.500000 0.500000 0.470989
O O1 0.434415 0.580506 0.689707
O O2 0.473030 0.815951 0.596010
O O3 0.418490 0.975734 0.698896
O O4 0.333418 0.823525 0.617175
O O5 0.735618 0.936817 0.034520
O O6 0.679825 0.172303 0.764376
O O7 0.573994 0.548060 0.327535
O O8 0.676082 0.292124 0.260734
O O9 0.741722 0.563397 0.670158
#
# Coordination Sequence:
#
# PCOD9370684 Si02
#       6
#    16   8   8  16  16   8
#     4   9  20  39  60  86 122 162 200 251 304 356
#     4  10  20  38  64  90 122 164 202 248 308 362
#     4  10  20  40  60  80 128 164 196 258 304 350
#     4   9  20  39  60  86 122 162 200 251 304 356
#     4   9  20  41  62  90 128 157 198 255 300 358
#     4  10  20  38  64  90 122 164 202 248 308 362
#
# _framework density 29.005168000000001
#
# number of rings (size 3 to 8) (size 9 to 14) (size 15 to 20)
#    0.000    2.667    0.000    0.000    0.000    8.000 
#    0.000   40.000    0.000    0.000    0.000    0.000 
#    0.000    0.000    0.000    0.000    0.000    0.000 
#
# Total GULP energy -100605.133284 kJ/mol
# GULP energy per Si atom -5589.174071 kJ/mol
# Density = 2.893915 g / cm^3
# Si number density = 29.005168 Si / 1000 Ang^3
#
#
#
# Elastic Constant Matrix: (Units=GPa)
#
#
# Indices 1 2 3 4 5 6 
#
# 1 129.5730 25.5621 44.2578 0.0000 0.0000 -0.0001
# 2 25.5621 109.2303 43.3765 0.0001 0.0000 -0.0002
# 3 44.2578 43.3765 99.6078 0.0000 0.0000 0.0000
# 4 0.0000 0.0001 0.0000 76.0521 0.0000 0.0000
# 5 0.0000 0.0000 0.0000 0.0000 49.9760 0.0000
# 6 -0.0001 -0.0002 0.0000 0.0000 0.0000 45.3669
#
#
#
# Elastic Compliance Matrix: (Units=1/GPa)
#
#
# Indices 1 2 3 4 5 6 
#
# 1 0.009135 -0.000636 -0.003782 0.000000 0.000000 0.000000
# 2 -0.000636 0.011113 -0.004557 0.000000 0.000000 0.000000
# 3 -0.003782 -0.004557 0.013704 0.000000 0.000000 0.000000
# 4 0.000000 0.000000 0.000000 0.013149 0.000000 0.000000
# 5 0.000000 0.000000 0.000000 0.000000 0.020010 0.000000
# 6 0.000000 0.000000 0.000000 0.000000 0.000000 0.022043
#
#
# Mechanical properties :
#
#
# Convention : Reuss Voigt Hill
#
# Bulk Modulus (GPa) = 62.48899 62.75599 62.62249
# Shear Modulus (GPa) = 44.46914 49.29331 46.88122
#
# Velocity S-wave (km/s) = 3.91979 4.12693 4.02469
# Velocity P-wave (km/s) = 6.48669 6.66272 6.57530
#
# Compressibility (1/GPa) = 0.01600282
#
# Stress axis : x y z
#
# Youngs Moduli (GPa) = 109.47055 89.98108 72.97026
#
# Poissons Ratio (x) = 0.05722 0.27597
# Poissons Ratio (y) = 0.06961 0.33253
# Poissons Ratio (z) = 0.41401 0.41005
#
# Static dielectric constant tensor:
#      x y z
#    x 2.301450 0.000000 0.000000 
#    y 0.000000 2.435680 0.000000 
#    z 0.000000 0.000000 2.129090 
# 
# From -- ./inp_files/26496.got.cif
#   From: 2010.05.17/outbox.cif.g08.bks.cpg/sg43_14_cif.got.tgz:26496.got - 2010.06.03 19:21:55.
