data_PCOD9370076
_publ_section_title
;
Structure prediction by ZEFSAII (Michael W. Deem and Ramdas Pophale) SiO2 
 PCOD9370076
Probable space group: F D D 2
;
_chemical_formula_sum "Si O2"
_cell_formula_units_Z 96
_cell_length_a 17.660126
_cell_length_b 8.250613
_cell_length_c 26.919745
_cell_angle_alpha 90.000000
_cell_angle_beta 90.000000
_cell_angle_gamma 90.000000
_cell_volume 3922.391655
_symmetry_space_group_name_H-M "F D D 2"
_symmetry_group_IT_number 43
_symmetry_cell_setting 'orthorhombic'
loop_
_space_group_symop_operation_xyz
x,y,z
-x,-y,z
1/4-x,1/4+y,1/4+z
1/4+x,1/4-y,1/4+z
x,1/2+y,1/2+z
-x,1/2-y,1/2+z
1/4-x,3/4+y,3/4+z
1/4+x,3/4-y,3/4+z
1/2+x,y,1/2+z
1/2-x,-y,1/2+z
3/4-x,1/4+y,3/4+z
3/4+x,1/4-y,3/4+z
1/2+x,1/2+y,z
1/2-x,1/2-y,z
3/4-x,3/4+y,1/4+z
3/4+x,3/4-y,1/4+z
loop_
_atom_site_type_symbol
_atom_site_label
_atom_site_fract_x
_atom_site_fract_y
_atom_site_fract_z
Si Si1 0.750000 0.250000 0.390821
Si Si2 0.254397 0.917320 0.882989
Si Si3 0.809244 0.395901 0.557775
Si Si4 0.143526 0.984621 0.715459
Si Si5 0.250000 0.250000 0.532561
Si Si6 0.591889 0.912861 0.422030
Si Si7 0.869504 0.650648 0.714025
O O1 0.752849 0.410346 0.357687
O O2 0.679516 0.255769 0.428578
O O3 0.250000 0.750000 0.853804
O O4 0.186096 0.916270 0.923972
O O5 0.333121 0.917136 0.912466
O O6 0.750000 0.250000 0.545258
O O7 0.872034 0.357247 0.516399
O O8 0.784727 0.585801 0.557242
O O9 0.831277 0.362219 0.613953
O O10 0.185984 0.841592 0.685866
O O11 0.164768 0.172502 0.724854
O O12 0.318956 0.338608 0.503647
O O13 0.568567 0.756733 0.454126
#
# Coordination Sequence:
#
# PCOD9370076 Si02
#       7
#     8  16  16  16   8  16  16
#     4   8  12  22  46  72  90 132 168 210 264 320
#     4   8  13  24  45  71  98 127 170 223 269 322
#     4  12  23  34  56  88 120 152 196 245 293 355
#     4  10  17  33  54  77 113 149 186 236 291 340
#     4  12  18  34  60  84 116 150 196 248 294 346
#     4  10  20  32  51  87 114 143 196 242 295 350
#     4  10  16  32  60  80 106 152 190 238 297 340
#
# _framework density 24.474864
#
# number of rings (size 3 to 8) (size 9 to 14) (size 15 to 20)
#    0.000    2.000    6.667    1.000    0.000    1.333 
#    0.000    0.000    0.000    3.000    0.000    0.000 
#    0.000    0.000    0.000    0.000    0.000    0.000 
#
# Total GULP energy -133625.998994 kJ/mol
# GULP energy per Si atom -5567.749958 kJ/mol
# Density = 2.441916 g / cm^3
# Si number density = 24.474864 Si / 1000 Ang^3
#
#
#
# Elastic Constant Matrix: (Units=GPa)
#
#
# Indices 1 2 3 4 5 6 
#
# 1 44.2251 45.1321 9.7942 0.0000 0.0000 0.0000
# 2 45.1321 325.1325 51.6482 0.0000 0.0000 0.0000
# 3 9.7942 51.6482 85.6943 0.0000 0.0000 0.0000
# 4 0.0000 0.0000 0.0000 27.0882 0.0000 0.0000
# 5 0.0000 0.0000 0.0000 0.0000 7.1723 0.0000
# 6 0.0000 0.0000 0.0000 0.0000 0.0000 44.9670
#
#
#
# Elastic Compliance Matrix: (Units=1/GPa)
#
#
# Indices 1 2 3 4 5 6 
#
# 1 0.026405 -0.003523 -0.000894 0.000000 0.000000 0.000000
# 2 -0.003523 0.003871 -0.001931 0.000000 0.000000 0.000000
# 3 -0.000894 -0.001931 0.012935 0.000000 0.000000 0.000000
# 4 0.000000 0.000000 0.000000 0.036916 0.000000 0.000000
# 5 0.000000 0.000000 0.000000 0.000000 0.139425 0.000000
# 6 0.000000 0.000000 0.000000 0.000000 0.000000 0.022239
#
#
# Mechanical properties :
#
#
# Convention : Reuss Voigt Hill
#
# Bulk Modulus (GPa) = 32.77055 74.24453 53.50754
# Shear Modulus (GPa) = 18.89217 39.07733 28.98475
#
# Velocity S-wave (km/s) = 2.78132 4.00012 3.44505
# Velocity P-wave (km/s) = 4.87164 7.19274 6.14282
#
# Compressibility (1/GPa) = 0.03051521
#
# Stress axis : x y z
#
# Youngs Moduli (GPa) = 37.87129 258.30283 77.30831
#
# Poissons Ratio (x) = 0.91007 0.06915
# Poissons Ratio (y) = 0.13343 0.14925
# Poissons Ratio (z) = 0.03387 0.49869
#
# Static dielectric constant tensor:
#      x y z
#    x 2.090750 0.000000 0.000000 
#    y 0.000000 2.060170 0.000000 
#    z 0.000000 0.000000 1.856250 
# 
# From -- ./inp_files/24397.got.cif
#   From: 2010.05.17/outbox.cif.g08.bks.cpg/sg43_13_cif.got.tgz:24397.got - 2010.06.03 19:21:55.
