data_PCOD9370230
_publ_section_title
;
Structure prediction by ZEFSAII (Michael W. Deem and Ramdas Pophale) SiO2 
 PCOD9370230
Probable space group: F D D 2
;
_chemical_formula_sum "Si O2"
_cell_formula_units_Z 112
_cell_length_a 14.031569
_cell_length_b 14.031573
_cell_length_c 22.049033
_cell_angle_alpha 90.000000
_cell_angle_beta 90.000000
_cell_angle_gamma 90.000000
_cell_volume 4341.123525
_symmetry_space_group_name_H-M "F D D 2"
_symmetry_group_IT_number 43
_symmetry_cell_setting 'orthorhombic'
loop_
_space_group_symop_operation_xyz
x,y,z
-x,-y,z
1/4-x,1/4+y,1/4+z
1/4+x,1/4-y,1/4+z
x,1/2+y,1/2+z
-x,1/2-y,1/2+z
1/4-x,3/4+y,3/4+z
1/4+x,3/4-y,3/4+z
1/2+x,y,1/2+z
1/2-x,-y,1/2+z
3/4-x,1/4+y,3/4+z
3/4+x,1/4-y,3/4+z
1/2+x,1/2+y,z
1/2-x,1/2-y,z
3/4-x,3/4+y,1/4+z
3/4+x,3/4-y,1/4+z
loop_
_atom_site_type_symbol
_atom_site_label
_atom_site_fract_x
_atom_site_fract_y
_atom_site_fract_z
Si Si1 0.893969 0.606031 0.042270
Si Si2 0.208111 0.490601 0.765976
Si Si3 0.918191 0.581810 0.875943
Si Si4 0.676029 0.823971 0.283878
Si Si5 0.750000 0.250000 0.393801
Si Si6 0.000000 0.000000 0.854249
Si Si7 0.103904 0.103904 0.167843
Si Si8 0.509399 0.791889 0.765976
O O1 0.815699 0.684301 0.061002
O O2 0.854581 0.516038 0.007159
O O3 0.983962 0.645418 0.007159
O O4 0.931469 0.568531 0.106967
O O5 0.150677 0.478063 0.828789
O O6 0.288825 0.572007 0.768253
O O7 0.146567 0.521714 0.709540
O O8 0.838683 0.661317 0.908770
O O9 0.000000 0.500000 0.895719
O O10 0.978063 0.650677 0.828789
O O11 0.750000 0.750000 0.257064
O O12 0.682674 0.817326 0.355241
O O13 0.572007 0.788826 0.268253
O O14 0.068062 0.931938 0.894426
O O15 0.021715 0.146567 0.209540
#
# Coordination Sequence:
#
# PCOD9370230 Si02
#       8
#    16  16  16  16   8   8  16  16
#     4  10  20  42  60  85 123 173 211 272 343 394
#     4  11  22  41  63  92 133 174 222 284 340 413
#     4  10  18  36  63  89 120 178 220 266 348 411
#     4  12  23  40  63  98 136 168 221 289 340 407
#     4   8  20  32  62  85 114 162 224 259 324 422
#     4  12  22  38  64  93 124 174 218 275 346 418
#     4  12  24  37  65 100 126 176 228 274 349 422
#     4  11  22  41  63  92 133 174 222 284 340 413
#
# _framework density 25.799773999999999
#
# number of rings (size 3 to 8) (size 9 to 14) (size 15 to 20)
#    0.000    1.143    5.714    0.857    2.000    0.000 
#    0.000    2.857    0.000    0.000    0.000    0.000 
#    0.000    0.000    0.000    0.000    0.000    0.000 
#
# Total GULP energy -155952.720918 kJ/mol
# GULP energy per Si atom -5569.740033 kJ/mol
# Density = 2.574105 g / cm^3
# Si number density = 25.799774 Si / 1000 Ang^3
#
#
#
# Elastic Constant Matrix: (Units=GPa)
#
#
# Indices 1 2 3 4 5 6 
#
# 1 113.1272 100.3724 20.9491 0.0000 0.0000 0.0000
# 2 100.3724 113.1267 20.9491 0.0000 0.0000 0.0000
# 3 20.9491 20.9491 70.7066 0.0000 0.0000 0.0000
# 4 0.0000 0.0000 0.0000 -38.8870 0.0000 0.0000
# 5 0.0000 0.0000 0.0000 0.0000 -38.8967 0.0000
# 6 0.0000 0.0000 0.0000 0.0000 0.0000 85.0973
#
#
#
# Elastic Compliance Matrix: (Units=1/GPa)
#
#
# Indices 1 2 3 4 5 6 
#
# 1 0.041688 -0.036715 -0.001473 0.000000 0.000000 0.000000
# 2 -0.036715 0.041688 -0.001473 0.000000 0.000000 0.000000
# 3 -0.001473 -0.001473 0.015016 0.000000 0.000000 0.000000
# 4 0.000000 0.000000 0.000000 -0.025716 0.000000 0.000000
# 5 0.000000 0.000000 0.000000 0.000000 -0.025709 0.000000
# 6 0.000000 0.000000 0.000000 0.000000 0.000000 0.011751
#
#
# Mechanical properties :
#
#
# Convention : Reuss Voigt Hill
#
# Bulk Modulus (GPa) = 52.44279 64.61130 58.52705
# Shear Modulus (GPa) = 34.62629 11.77537 23.20083
#
# Velocity S-wave (km/s) = 3.66746 2.13870 3.00203
# Velocity P-wave (km/s) = 6.18908 5.58538 5.89496
#
# Compressibility (1/GPa) = 0.01906840
#
# Stress axis : x y z
#
# Youngs Moduli (GPa) = 23.98771 23.98758 66.59545
#
# Poissons Ratio (x) = 0.88071 0.09812
# Poissons Ratio (y) = 0.88071 0.09813
# Poissons Ratio (z) = 0.03534 0.03534
#
# Static dielectric constant tensor:
#      x y z
#    x 5.869550 0.000000 0.000000 
#    y 0.000000 5.868870 0.000000 
#    z 0.000000 0.000000 2.050590 
# 
# From -- ./inp_files/21764.got.cif
#   From: 2010.05.17/outbox.cif.g08.bks.cpg/sg43_11_cif.got.tgz:21764.got - 2010.06.03 19:21:55.
