data_PCOD9370938
_publ_section_title
;
Structure prediction by ZEFSAII (Michael W. Deem and Ramdas Pophale) SiO2 
 PCOD9370938
Probable space group: F D D 2
;
_chemical_formula_sum "Si O2"
_cell_formula_units_Z 88
_cell_length_a 28.599179
_cell_length_b 5.106051
_cell_length_c 25.385716
_cell_angle_alpha 90.000000
_cell_angle_beta 90.000000
_cell_angle_gamma 90.000000
_cell_volume 3707.047334
_symmetry_space_group_name_H-M "F D D 2"
_symmetry_group_IT_number 43
_symmetry_cell_setting 'orthorhombic'
loop_
_space_group_symop_operation_xyz
x,y,z
-x,-y,z
1/4-x,1/4+y,1/4+z
1/4+x,1/4-y,1/4+z
x,1/2+y,1/2+z
-x,1/2-y,1/2+z
1/4-x,3/4+y,3/4+z
1/4+x,3/4-y,3/4+z
1/2+x,y,1/2+z
1/2-x,-y,1/2+z
3/4-x,1/4+y,3/4+z
3/4+x,1/4-y,3/4+z
1/2+x,1/2+y,z
1/2-x,1/2-y,z
3/4-x,3/4+y,1/4+z
3/4+x,3/4-y,1/4+z
loop_
_atom_site_type_symbol
_atom_site_label
_atom_site_fract_x
_atom_site_fract_y
_atom_site_fract_z
Si Si1 0.500000 0.500000 0.034981
Si Si2 0.638898 0.668928 0.925506
Si Si3 0.315781 0.858066 0.879577
Si Si4 0.801326 0.378687 0.645200
Si Si5 0.750000 0.750000 0.713009
Si Si6 0.447512 0.626868 0.774684
Si Si7 0.750000 0.250000 0.961947
O O1 0.543157 0.420632 0.072660
O O2 0.489156 0.247072 0.999909
O O3 0.668155 0.427546 0.899528
O O4 0.587580 0.547716 0.926703
O O5 0.659700 0.731520 0.983463
O O6 0.645283 0.922665 0.888677
O O7 0.274157 0.944848 0.920062
O O8 0.750000 0.250000 0.642640
O O9 0.791648 0.649996 0.675025
O O10 0.817994 0.392392 0.584772
O O11 0.500000 0.500000 0.772172
O O12 0.459258 0.910375 0.750762
#
# Coordination Sequence:
#
# PCOD9370938 Si02
#       7
#     8  16  16  16   8  16   8
#     4  11  24  44  77 108 153 204 238 311 402 458
#     4  11  24  44  72 108 146 187 251 315 370 461
#     4  10  22  41  71 112 145 181 248 309 378 450
#     4  11  27  47  72 102 153 200 257 309 380 460
#     4  12  25  48  69  98 149 216 257 296 378 474
#     4  10  20  42  73 105 140 192 236 312 386 446
#     4   9  17  36  70 104 146 180 231 305 374 454
#
# _framework density 23.738569999999999
#
# number of rings (size 3 to 8) (size 9 to 14) (size 15 to 20)
#    0.000    1.455    2.727    1.636    2.545    1.455 
#    3.273    0.000    0.000    0.000    0.000    0.000 
#    0.000    0.000    0.000    0.000    0.000    0.000 
#
# Total GULP energy -122884.575468 kJ/mol
# GULP energy per Si atom -5585.662521 kJ/mol
# Density = 2.368454 g / cm^3
# Si number density = 23.738570 Si / 1000 Ang^3
#
#
#
# Elastic Constant Matrix: (Units=GPa)
#
#
# Indices 1 2 3 4 5 6 
#
# 1 106.1760 31.0721 54.1513 0.0035 0.0058 -0.0034
# 2 31.0721 128.4674 64.7222 -0.0025 0.0007 -0.0091
# 3 54.1513 64.7222 185.5942 0.0009 -0.0011 -0.0022
# 4 0.0035 -0.0025 0.0009 31.4136 0.0001 -0.0040
# 5 0.0058 0.0007 -0.0011 0.0001 18.2547 -0.0026
# 6 -0.0034 -0.0091 -0.0022 -0.0040 -0.0026 44.9579
#
#
#
# Elastic Compliance Matrix: (Units=1/GPa)
#
#
# Indices 1 2 3 4 5 6 
#
# 1 0.011239 -0.001294 -0.002828 -0.000001 -0.000004 0.000000
# 2 -0.001294 0.009592 -0.002968 0.000001 0.000000 0.000002
# 3 -0.002828 -0.002968 0.007248 0.000000 0.000001 0.000000
# 4 -0.000001 0.000001 0.000000 0.031833 0.000000 0.000003
# 5 -0.000004 0.000000 0.000001 0.000000 0.054780 0.000003
# 6 0.000000 0.000002 0.000000 0.000003 0.000003 0.022243
#
#
# Mechanical properties :
#
#
# Convention : Reuss Voigt Hill
#
# Bulk Modulus (GPa) = 71.93849 80.01434 75.97642
# Shear Modulus (GPa) = 32.10299 36.94469 34.52384
#
# Velocity S-wave (km/s) = 3.68143 3.94930 3.81771
# Velocity P-wave (km/s) = 6.95994 7.38753 7.17692
#
# Compressibility (1/GPa) = 0.01390076
#
# Stress axis : x y z
#
# Youngs Moduli (GPa) = 88.97335 104.25323 137.96554
#
# Poissons Ratio (x) = 0.13486 0.39020
# Poissons Ratio (y) = 0.11509 0.40943
# Poissons Ratio (z) = 0.25164 0.30938
#
# Static dielectric constant tensor:
#      x y z
#    x 2.030600 0.000000 0.000000 
#    y 0.000000 1.981770 0.000000 
#    z 0.000000 0.000000 1.876940 
# 
# From -- ./inp_files/22953.got.cif
#   From: 2010.05.17/outbox.cif.g08.bks.cpg/sg43_12_cif.got.tgz:22953.got - 2010.06.03 19:21:55.
