data_PCOD9370090
_publ_section_title
;
Structure prediction by ZEFSAII (Michael W. Deem and Ramdas Pophale) SiO2 
 PCOD9370090
Probable space group: F D D 2
;
_chemical_formula_sum "Si O2"
_cell_formula_units_Z 88
_cell_length_a 26.174689
_cell_length_b 11.193309
_cell_length_c 11.288728
_cell_angle_alpha 90.000000
_cell_angle_beta 90.000000
_cell_angle_gamma 90.000000
_cell_volume 3307.387130
_symmetry_space_group_name_H-M "F D D 2"
_symmetry_group_IT_number 43
_symmetry_cell_setting 'orthorhombic'
loop_
_space_group_symop_operation_xyz
x,y,z
-x,-y,z
1/4-x,1/4+y,1/4+z
1/4+x,1/4-y,1/4+z
x,1/2+y,1/2+z
-x,1/2-y,1/2+z
1/4-x,3/4+y,3/4+z
1/4+x,3/4-y,3/4+z
1/2+x,y,1/2+z
1/2-x,-y,1/2+z
3/4-x,1/4+y,3/4+z
3/4+x,1/4-y,3/4+z
1/2+x,1/2+y,z
1/2-x,1/2-y,z
3/4-x,3/4+y,1/4+z
3/4+x,3/4-y,1/4+z
loop_
_atom_site_type_symbol
_atom_site_label
_atom_site_fract_x
_atom_site_fract_y
_atom_site_fract_z
Si Si1 0.396869 0.594367 0.299920
Si Si2 0.250000 0.750000 0.039154
Si Si3 0.895146 0.883596 0.991557
Si Si4 0.675772 0.104356 0.692935
Si Si5 0.735024 0.970013 0.360000
Si Si6 0.818574 0.588896 0.976245
O O1 0.448407 0.538417 0.356406
O O2 0.365722 0.493005 0.233226
O O3 0.415017 0.699094 0.214347
O O4 0.357385 0.654576 0.390332
O O5 0.263391 0.638443 0.954902
O O6 0.916584 0.865146 0.859074
O O7 0.916312 0.019251 0.006297
O O8 0.838921 0.882422 0.052934
O O9 0.926952 0.785071 0.067565
O O10 0.730346 0.058209 0.742039
O O11 0.761704 0.083098 0.424016
#
# Coordination Sequence:
#
# PCOD9370090 Si02
#       6
#    16   8  16  16  16  16
#     4  10  20  40  61  88 121 171 208 262 323 400
#     4  10  16  38  64  82 112 162 222 264 286 410
#     4  12  22  39  63  95 131 163 221 280 335 386
#     4  11  21  37  68  89 124 173 220 269 323 398
#     4  10  20  39  60  91 121 169 219 267 314 413
#     4  10  23  39  59  91 134 160 206 277 338 390
#
# _framework density 26.607106000000002
#
# number of rings (size 3 to 8) (size 9 to 14) (size 15 to 20)
#    0.000    1.455    3.636    3.273    0.000    1.455 
#   13.091    0.000    4.000    0.000    0.000    0.000 
#    0.000    0.000    0.000    0.000    0.000    0.000 
#
# Total GULP energy -122830.689796 kJ/mol
# GULP energy per Si atom -5583.213173 kJ/mol
# Density = 2.654655 g / cm^3
# Si number density = 26.607106 Si / 1000 Ang^3
#
#
#
# Elastic Constant Matrix: (Units=GPa)
#
#
# Indices 1 2 3 4 5 6 
#
# 1 130.8986 -6.3416 25.7314 0.0000 0.0000 0.0000
# 2 -6.3416 43.0941 -9.2670 0.0000 0.0000 0.0000
# 3 25.7314 -9.2670 121.9160 0.0000 0.0000 0.0000
# 4 0.0000 0.0000 0.0000 20.7134 0.0000 0.0000
# 5 0.0000 0.0000 0.0000 0.0000 41.2103 0.0000
# 6 0.0000 0.0000 0.0000 0.0000 0.0000 22.3797
#
#
#
# Elastic Compliance Matrix: (Units=1/GPa)
#
#
# Indices 1 2 3 4 5 6 
#
# 1 0.007999 0.000828 -0.001625 0.000000 0.000000 0.000000
# 2 0.000828 0.023676 0.001625 0.000000 0.000000 0.000000
# 3 -0.001625 0.001625 0.008669 0.000000 0.000000 0.000000
# 4 0.000000 0.000000 0.000000 0.048278 0.000000 0.000000
# 5 0.000000 0.000000 0.000000 0.000000 0.024266 0.000000
# 6 0.000000 0.000000 0.000000 0.000000 0.000000 0.044683
#
#
# Mechanical properties :
#
#
# Convention : Reuss Voigt Hill
#
# Bulk Modulus (GPa) = 23.81023 35.12825 29.46924
# Shear Modulus (GPa) = 29.42621 35.91307 32.66964
#
# Velocity S-wave (km/s) = 3.32920 3.67789 3.50788
# Velocity P-wave (km/s) = 4.87302 5.59169 5.24468
#
# Compressibility (1/GPa) = 0.04199876
#
# Stress axis : x y z
#
# Youngs Moduli (GPa) = 125.01406 42.23638 115.35447
#
# Poissons Ratio (x) = -0.03495 0.18749
# Poissons Ratio (y) = -0.10346 -0.18745
# Poissons Ratio (z) = 0.20319 -0.06863
#
# Static dielectric constant tensor:
#      x y z
#    x 2.165800 0.000000 0.000000 
#    y 0.000000 2.165640 0.000000 
#    z 0.000000 0.000000 2.159550 
# 
# From -- ./inp_files/5753.got.cif
#   From: 2010.05.17/outbox.cif.g08.bks.cpg/sg43_3_cif.got.tgz:5753.got - 2010.06.03 19:21:55.
