data_PCOD9370744
_publ_section_title
;
Structure prediction by ZEFSAII (Michael W. Deem and Ramdas Pophale) SiO2 
 PCOD9370744
Probable space group: F D D 2
;
_chemical_formula_sum "Si O2"
_cell_formula_units_Z 88
_cell_length_a 10.811955
_cell_length_b 16.178460
_cell_length_c 25.303902
_cell_angle_alpha 90.000000
_cell_angle_beta 90.000000
_cell_angle_gamma 90.000000
_cell_volume 4426.178313
_symmetry_space_group_name_H-M "F D D 2"
_symmetry_group_IT_number 43
_symmetry_cell_setting 'orthorhombic'
loop_
_space_group_symop_operation_xyz
x,y,z
-x,-y,z
1/4-x,1/4+y,1/4+z
1/4+x,1/4-y,1/4+z
x,1/2+y,1/2+z
-x,1/2-y,1/2+z
1/4-x,3/4+y,3/4+z
1/4+x,3/4-y,3/4+z
1/2+x,y,1/2+z
1/2-x,-y,1/2+z
3/4-x,1/4+y,3/4+z
3/4+x,1/4-y,3/4+z
1/2+x,1/2+y,z
1/2-x,1/2-y,z
3/4-x,3/4+y,1/4+z
3/4+x,3/4-y,1/4+z
loop_
_atom_site_type_symbol
_atom_site_label
_atom_site_fract_x
_atom_site_fract_y
_atom_site_fract_z
Si Si1 0.339293 0.329909 0.035050
Si Si2 0.187037 0.060939 0.936383
Si Si3 0.312750 0.010109 0.727598
Si Si4 0.287570 0.335382 0.664210
Si Si5 0.411476 0.113853 0.405833
Si Si6 0.250000 0.750000 0.065280
O O1 0.250000 0.250000 0.038940
O O2 0.460248 0.294142 0.007380
O O3 0.363558 0.362570 0.093623
O O4 0.294067 0.401244 0.994946
O O5 0.314076 0.083003 0.906348
O O6 0.060529 0.099748 0.912501
O O7 0.159147 0.963444 0.932637
O O8 0.254120 0.085567 0.696033
O O9 0.400120 0.035870 0.775369
O O10 0.373276 0.947282 0.685747
O O11 0.250000 0.250000 0.693572
O O12 0.219676 0.322397 0.607592
#
# Coordination Sequence:
#
# PCOD9370744 Si02
#       6
#    16  16  16  16  16   8
#     4  11  20  38  68  92 126 170 213 274 329 386
#     4  10  20  39  64  95 127 165 218 265 327 383
#     4  11  24  43  64  98 128 178 219 269 333 394
#     4  10  24  42  64  93 132 171 216 271 320 399
#     4  10  23  38  68  95 131 166 217 279 318 393
#     4  10  26  40  64  88 138 172 214 274 334 388
#
# _framework density 19.881710999999999
#
# number of rings (size 3 to 8) (size 9 to 14) (size 15 to 20)
#    0.545    1.091    3.636    1.091    2.545    1.455 
#    0.000    1.818    0.000    0.000    0.000    0.000 
#    0.000    0.000    0.000    0.000    0.000    0.000 
#
# Total GULP energy -122593.779070 kJ/mol
# GULP energy per Si atom -5572.444503 kJ/mol
# Density = 1.983646 g / cm^3
# Si number density = 19.881711 Si / 1000 Ang^3
#
#
#
# Elastic Constant Matrix: (Units=GPa)
#
#
# Indices 1 2 3 4 5 6 
#
# 1 48.2043 20.6349 25.5058 0.0000 0.0000 0.0000
# 2 20.6349 87.1868 68.0792 0.0000 0.0000 0.0000
# 3 25.5058 68.0792 150.8544 0.0000 0.0000 0.0000
# 4 0.0000 0.0000 0.0000 1.8382 0.0000 0.0000
# 5 0.0000 0.0000 0.0000 0.0000 30.9661 0.0000
# 6 0.0000 0.0000 0.0000 0.0000 0.0000 21.4101
#
#
#
# Elastic Compliance Matrix: (Units=1/GPa)
#
#
# Indices 1 2 3 4 5 6 
#
# 1 0.023575 -0.003810 -0.002267 0.000000 0.000000 0.000000
# 2 -0.003810 0.018326 -0.007626 0.000000 0.000000 0.000000
# 3 -0.002267 -0.007626 0.010454 0.000000 0.000000 0.000000
# 4 0.000000 0.000000 0.000000 0.544018 0.000000 0.000000
# 5 0.000000 0.000000 0.000000 0.000000 0.032293 0.000000
# 6 0.000000 0.000000 0.000000 0.000000 0.000000 0.046707
#
#
# Mechanical properties :
#
#
# Convention : Reuss Voigt Hill
#
# Bulk Modulus (GPa) = 40.08045 57.18725 48.63385
# Shear Modulus (GPa) = 7.03140 22.31125 14.67133
#
# Velocity S-wave (km/s) = 1.88263 3.35356 2.71944
# Velocity P-wave (km/s) = 4.99289 6.61977 5.86303
#
# Compressibility (1/GPa) = 0.02494982
#
# Stress axis : x y z
#
# Youngs Moduli (GPa) = 42.41741 54.56651 95.65854
#
# Poissons Ratio (x) = 0.20788 0.21683
# Poissons Ratio (y) = 0.16160 0.72952
# Poissons Ratio (z) = 0.09615 0.41614
#
# Static dielectric constant tensor:
#      x y z
#    x 1.731930 0.000000 0.000000 
#    y 0.000000 1.701690 0.000000 
#    z 0.000000 0.000000 1.688960 
# 
# From -- ./inp_files/21019.got.cif
#   From: 2010.05.17/outbox.cif.g08.bks.cpg/sg43_11_cif.got.tgz:21019.got - 2010.06.03 19:21:55.
