data_PCOD9370807
_publ_section_title
;
Structure prediction by ZEFSAII (Michael W. Deem and Ramdas Pophale) SiO2 
 PCOD9370807
Probable space group: F D D 2
;
_chemical_formula_sum "Si O2"
_cell_formula_units_Z 88
_cell_length_a 19.338848
_cell_length_b 8.079738
_cell_length_c 23.511581
_cell_angle_alpha 90.000000
_cell_angle_beta 90.000000
_cell_angle_gamma 90.000000
_cell_volume 3673.750953
_symmetry_space_group_name_H-M "F D D 2"
_symmetry_group_IT_number 43
_symmetry_cell_setting 'orthorhombic'
loop_
_space_group_symop_operation_xyz
x,y,z
-x,-y,z
1/4-x,1/4+y,1/4+z
1/4+x,1/4-y,1/4+z
x,1/2+y,1/2+z
-x,1/2-y,1/2+z
1/4-x,3/4+y,3/4+z
1/4+x,3/4-y,3/4+z
1/2+x,y,1/2+z
1/2-x,-y,1/2+z
3/4-x,1/4+y,3/4+z
3/4+x,1/4-y,3/4+z
1/2+x,1/2+y,z
1/2-x,1/2-y,z
3/4-x,3/4+y,1/4+z
3/4+x,3/4-y,1/4+z
loop_
_atom_site_type_symbol
_atom_site_label
_atom_site_fract_x
_atom_site_fract_y
_atom_site_fract_z
Si Si1 0.523058 0.308420 0.689670
Si Si2 0.636561 0.524440 0.385435
Si Si3 0.829536 0.731504 0.751225
Si Si4 0.113423 0.648915 0.353546
Si Si5 0.871891 0.858240 0.266147
Si Si6 0.000000 0.000000 0.929769
O O1 0.500000 0.500000 0.697820
O O2 0.457560 0.205651 0.669271
O O3 0.579371 0.299446 0.638967
O O4 0.559468 0.229872 0.744145
O O5 0.578487 0.508568 0.433222
O O6 0.637404 0.338186 0.361310
O O7 0.631984 0.655553 0.334628
O O8 0.750000 0.750000 0.771755
O O9 0.874949 0.868728 0.785496
O O10 0.866200 0.554578 0.757888
O O11 0.040839 0.619119 0.385155
O O12 0.809658 0.800503 0.224823
#
# Coordination Sequence:
#
# PCOD9370807 Si02
#       6
#    16  16  16  16  16   8
#     4   9  19  40  65  95 133 173 226 282 351 411
#     4  10  21  40  63  92 133 180 218 274 342 408
#     4  11  22  40  63  93 131 182 227 279 340 407
#     4   9  19  39  65  94 131 171 222 280 337 415
#     4  10  22  39  64  97 133 174 226 279 340 423
#     4  10  20  40  66 102 132 164 226 286 346 404
#
# _framework density 23.953720000000001
#
# number of rings (size 3 to 8) (size 9 to 14) (size 15 to 20)
#    0.000    2.182    0.000    3.818    0.000    2.182 
#   14.727    5.455    0.000    0.000    0.000    0.000 
#    0.000    0.000    0.000    0.000    0.000    0.000 
#
# Total GULP energy -122621.063172 kJ/mol
# GULP energy per Si atom -5573.684690 kJ/mol
# Density = 2.389920 g / cm^3
# Si number density = 23.953720 Si / 1000 Ang^3
#
#
#
# Elastic Constant Matrix: (Units=GPa)
#
#
# Indices 1 2 3 4 5 6 
#
# 1 109.0417 29.9957 80.6322 0.0000 0.0000 0.0000
# 2 29.9957 42.2167 43.2782 0.0000 0.0000 0.0000
# 3 80.6322 43.2782 181.6365 0.0000 0.0000 0.0000
# 4 0.0000 0.0000 0.0000 46.9972 0.0000 0.0000
# 5 0.0000 0.0000 0.0000 0.0000 24.9761 0.0000
# 6 0.0000 0.0000 0.0000 0.0000 0.0000 26.4594
#
#
#
# Elastic Compliance Matrix: (Units=1/GPa)
#
#
# Indices 1 2 3 4 5 6 
#
# 1 0.014367 -0.004856 -0.005221 0.000000 0.000000 0.000000
# 2 -0.004856 0.032984 -0.005703 0.000000 0.000000 0.000000
# 3 -0.005221 -0.005703 0.009182 0.000000 0.000000 0.000000
# 4 0.000000 0.000000 0.000000 0.021278 0.000000 0.000000
# 5 0.000000 0.000000 0.000000 0.000000 0.040038 0.000000
# 6 0.000000 0.000000 0.000000 0.000000 0.000000 0.037794
#
#
# Mechanical properties :
#
#
# Convention : Reuss Voigt Hill
#
# Bulk Modulus (GPa) = 40.04312 71.18967 55.61640
# Shear Modulus (GPa) = 25.57168 31.61912 28.59540
#
# Velocity S-wave (km/s) = 3.27088 3.63713 3.45886
# Velocity P-wave (km/s) = 5.56938 6.88640 6.26261
#
# Compressibility (1/GPa) = 0.02497308
#
# Stress axis : x y z
#
# Youngs Moduli (GPa) = 69.60262 30.31735 108.90743
#
# Poissons Ratio (x) = 0.14722 0.56859
# Poissons Ratio (y) = 0.33799 0.62115
# Poissons Ratio (z) = 0.36339 0.17291
#
# Static dielectric constant tensor:
#      x y z
#    x 1.880980 0.000000 0.000000 
#    y 0.000000 1.896000 0.000000 
#    z 0.000000 0.000000 2.351290 
# 
# From -- ./inp_files/22334.got.cif
#   From: 2010.05.17/outbox.cif.g08.bks.cpg/sg43_12_cif.got.tgz:22334.got - 2010.06.03 19:21:55.
