data_PCOD9370969
_publ_section_title
;
Structure prediction by ZEFSAII (Michael W. Deem and Ramdas Pophale) SiO2 
 PCOD9370969
Probable space group: F D D 2
;
_chemical_formula_sum "Si O2"
_cell_formula_units_Z 120
_cell_length_a 12.688690
_cell_length_b 27.357249
_cell_length_c 14.043716
_cell_angle_alpha 90.000000
_cell_angle_beta 90.000000
_cell_angle_gamma 90.000000
_cell_volume 4874.962158
_symmetry_space_group_name_H-M "F D D 2"
_symmetry_group_IT_number 43
_symmetry_cell_setting 'orthorhombic'
loop_
_space_group_symop_operation_xyz
x,y,z
-x,-y,z
1/4-x,1/4+y,1/4+z
1/4+x,1/4-y,1/4+z
x,1/2+y,1/2+z
-x,1/2-y,1/2+z
1/4-x,3/4+y,3/4+z
1/4+x,3/4-y,3/4+z
1/2+x,y,1/2+z
1/2-x,-y,1/2+z
3/4-x,1/4+y,3/4+z
3/4+x,1/4-y,3/4+z
1/2+x,1/2+y,z
1/2-x,1/2-y,z
3/4-x,3/4+y,1/4+z
3/4+x,3/4-y,1/4+z
loop_
_atom_site_type_symbol
_atom_site_label
_atom_site_fract_x
_atom_site_fract_y
_atom_site_fract_z
Si Si1 0.601655 0.377628 0.136310
Si Si2 0.479926 0.742646 0.621694
Si Si3 0.663437 0.286186 0.026732
Si Si4 0.192933 0.905925 0.502518
Si Si5 0.241438 0.806883 0.385993
Si Si6 0.750000 0.250000 0.656469
Si Si7 0.273689 0.432316 0.541038
Si Si8 0.922289 0.925763 0.066716
O O1 0.660901 0.330023 0.101318
O O2 0.556914 0.368447 0.239884
O O3 0.680429 0.421837 0.115250
O O4 0.498133 0.379287 0.070108
O O5 0.550262 0.760828 0.535309
O O6 0.531950 0.692759 0.663252
O O7 0.357393 0.748030 0.597309
O O8 0.485770 0.779983 0.711508
O O9 0.750000 0.250000 0.064511
O O10 0.689552 0.299227 0.918584
O O11 0.207214 0.850164 0.461899
O O12 0.299899 0.914334 0.562155
O O13 0.089659 0.921604 0.567566
O O14 0.250000 0.750000 0.417626
O O15 0.134284 0.800519 0.327362
O O16 0.779877 0.206432 0.730079
#
# Coordination Sequence:
#
# PCOD9370969 Si02
#       8
#    16  16  16  16  16   8  16  16
#     4  11  23  39  68 109 143 194 251 324 382 457
#     4  10  23  43  73 109 153 198 256 330 394 463
#     4  11  25  42  74 109 149 196 260 324 389 465
#     4  11  28  50  76 112 158 210 257 329 398 488
#     4  12  27  53  79 110 160 212 263 330 402 480
#     4  10  20  44  70 104 152 202 250 314 382 454
#     4  11  22  40  72 104 145 193 255 319 387 453
#     4  11  23  45  72 104 154 199 260 313 382 469
#
# _framework density 24.615575
#
# number of rings (size 3 to 8) (size 9 to 14) (size 15 to 20)
#    0.000    1.067    4.667    0.800    7.467    0.000 
#    4.800    0.000    1.467    0.000    0.000    0.000 
#    0.000    0.000    0.000    0.000    0.000    0.000 
#
# Total GULP energy -167307.733608 kJ/mol
# GULP energy per Si atom -5576.924454 kJ/mol
# Density = 2.455955 g / cm^3
# Si number density = 24.615575 Si / 1000 Ang^3
#
#
#
# Elastic Constant Matrix: (Units=GPa)
#
#
# Indices 1 2 3 4 5 6 
#
# 1 132.4335 39.4176 26.3521 0.0000 0.0000 0.0000
# 2 39.4176 119.7161 38.9408 0.0000 0.0000 0.0000
# 3 26.3521 38.9408 43.2960 0.0000 0.0000 0.0000
# 4 0.0000 0.0000 0.0000 16.1848 0.0000 0.0000
# 5 0.0000 0.0000 0.0000 0.0000 -37.2597 0.0000
# 6 0.0000 0.0000 0.0000 0.0000 0.0000 32.2888
#
#
#
# Elastic Compliance Matrix: (Units=1/GPa)
#
#
# Indices 1 2 3 4 5 6 
#
# 1 0.008812 -0.001635 -0.003893 0.000000 0.000000 0.000000
# 2 -0.001635 0.012111 -0.009897 0.000000 0.000000 0.000000
# 3 -0.003893 -0.009897 0.034368 0.000000 0.000000 0.000000
# 4 0.000000 0.000000 0.000000 0.061786 0.000000 0.000000
# 5 0.000000 0.000000 0.000000 0.000000 -0.026839 0.000000
# 6 0.000000 0.000000 0.000000 0.000000 0.000000 0.030970
#
#
# Mechanical properties :
#
#
# Convention : Reuss Voigt Hill
#
# Bulk Modulus (GPa) = 40.91610 56.09630 48.50620
# Shear Modulus (GPa) = 31.20963 14.95844 23.08403
#
# Velocity S-wave (km/s) = 3.56460 2.46779 3.06564
# Velocity P-wave (km/s) = 5.79654 5.56403 5.68148
#
# Compressibility (1/GPa) = 0.02444026
#
# Stress axis : x y z
#
# Youngs Moduli (GPa) = 113.47780 82.57020 29.09688
#
# Poissons Ratio (x) = 0.13503 0.11327
# Poissons Ratio (y) = 0.18557 0.28798
# Poissons Ratio (z) = 0.44175 0.81723
#
# Static dielectric constant tensor:
#      x y z
#    x 2.268210 0.000000 0.000000 
#    y 0.000000 2.004270 0.000000 
#    z 0.000000 0.000000 1.998380 
# 
# From -- ./inp_files/13489.got.cif
#   From: 2010.05.17/outbox.cif.g08.bks.cpg/sg43_7_cif.got.tgz:13489.got - 2010.06.03 19:21:55.
