data_PCOD9370035
_publ_section_title
;
Structure prediction by ZEFSAII (Michael W. Deem and Ramdas Pophale) SiO2 
 PCOD9370035
Probable space group: F D D 2
;
_chemical_formula_sum "Si O2"
_cell_formula_units_Z 120
_cell_length_a 18.499013
_cell_length_b 11.632991
_cell_length_c 25.311403
_cell_angle_alpha 90.000000
_cell_angle_beta 90.000000
_cell_angle_gamma 90.000000
_cell_volume 5446.984861
_symmetry_space_group_name_H-M "F D D 2"
_symmetry_group_IT_number 43
_symmetry_cell_setting 'orthorhombic'
loop_
_space_group_symop_operation_xyz
x,y,z
-x,-y,z
1/4-x,1/4+y,1/4+z
1/4+x,1/4-y,1/4+z
x,1/2+y,1/2+z
-x,1/2-y,1/2+z
1/4-x,3/4+y,3/4+z
1/4+x,3/4-y,3/4+z
1/2+x,y,1/2+z
1/2-x,-y,1/2+z
3/4-x,1/4+y,3/4+z
3/4+x,1/4-y,3/4+z
1/2+x,1/2+y,z
1/2-x,1/2-y,z
3/4-x,3/4+y,1/4+z
3/4+x,3/4-y,1/4+z
loop_
_atom_site_type_symbol
_atom_site_label
_atom_site_fract_x
_atom_site_fract_y
_atom_site_fract_z
Si Si1 0.519648 0.787678 0.349520
Si Si2 0.248108 0.374142 0.869600
Si Si3 0.611265 0.335710 0.299084
Si Si4 0.358815 0.053235 0.349724
Si Si5 0.671462 0.343202 0.032805
Si Si6 0.306179 0.350569 0.201760
Si Si7 0.000000 0.500000 0.616615
Si Si8 0.206001 0.577079 0.947652
O O1 0.441096 0.756873 0.327252
O O2 0.564631 0.899216 0.326999
O O3 0.567503 0.680726 0.330398
O O4 0.518676 0.807822 0.412377
O O5 0.250000 0.250000 0.896887
O O6 0.188026 0.350676 0.825398
O O7 0.318646 0.432443 0.842361
O O8 0.223454 0.467207 0.912670
O O9 0.575162 0.463047 0.302828
O O10 0.610510 0.309498 0.236867
O O11 0.381606 0.053424 0.411823
O O12 0.298697 0.152646 0.339125
O O13 0.594185 0.354379 0.003946
O O14 0.728917 0.385372 0.987801
O O15 0.250000 0.250000 0.213213
O O16 0.947626 0.569292 0.656613
#
# Coordination Sequence:
#
# PCOD9370035 Si02
#       8
#    16  16  16  16  16  16   8  16
#     4   9  22  38  63  92 129 170 221 280 345 411
#     4  11  25  41  65  93 135 188 232 285 360 420
#     4  11  23  38  67 100 133 170 230 294 352 423
#     4   9  21  37  64  91 126 177 222 284 344 408
#     4  11  20  39  62 100 129 168 226 290 355 421
#     4  10  21  39  66  93 127 173 236 287 335 408
#     4  10  14  34  66  88 122 160 226 268 338 414
#     4  10  18  40  64  87 126 175 217 278 338 433
#
# _framework density 22.030536999999999
#
# number of rings (size 3 to 8) (size 9 to 14) (size 15 to 20)
#    0.800    1.067    4.000    1.200    5.600    1.067 
#    0.000    6.667    0.000    0.000    0.000    0.000 
#    0.000    0.000    0.000    0.000    0.000    0.000 
#
# Total GULP energy -167061.481913 kJ/mol
# GULP energy per Si atom -5568.716064 kJ/mol
# Density = 2.198039 g / cm^3
# Si number density = 22.030537 Si / 1000 Ang^3
#
#
#
# Elastic Constant Matrix: (Units=GPa)
#
#
# Indices 1 2 3 4 5 6 
#
# 1 95.3783 50.5492 20.5894 0.0000 0.0000 0.0000
# 2 50.5492 131.6285 31.2179 0.0000 0.0000 0.0000
# 3 20.5894 31.2179 36.0688 0.0000 0.0000 0.0000
# 4 0.0000 0.0000 0.0000 18.0186 0.0000 0.0000
# 5 0.0000 0.0000 0.0000 0.0000 20.5879 0.0000
# 6 0.0000 0.0000 0.0000 0.0000 0.0000 41.9895
#
#
#
# Elastic Compliance Matrix: (Units=1/GPa)
#
#
# Indices 1 2 3 4 5 6 
#
# 1 0.013627 -0.004263 -0.004089 0.000000 0.000000 0.000000
# 2 -0.004263 0.010893 -0.006995 0.000000 0.000000 0.000000
# 3 -0.004089 -0.006995 0.036113 0.000000 0.000000 0.000000
# 4 0.000000 0.000000 0.000000 0.055498 0.000000 0.000000
# 5 0.000000 0.000000 0.000000 0.000000 0.048572 0.000000
# 6 0.000000 0.000000 0.000000 0.000000 0.000000 0.023815
#
#
# Mechanical properties :
#
#
# Convention : Reuss Voigt Hill
#
# Bulk Modulus (GPa) = 33.40076 51.97653 42.68865
# Shear Modulus (GPa) = 21.81584 26.83382 24.32483
#
# Velocity S-wave (km/s) = 3.15025 3.49381 3.32647
# Velocity P-wave (km/s) = 5.33161 6.31821 5.84576
#
# Compressibility (1/GPa) = 0.02993944
#
# Stress axis : x y z
#
# Youngs Moduli (GPa) = 73.38526 91.79982 27.69121
#
# Poissons Ratio (x) = 0.39138 0.11322
# Poissons Ratio (y) = 0.31287 0.19369
# Poissons Ratio (z) = 0.30005 0.64210
#
# Static dielectric constant tensor:
#      x y z
#    x 1.949110 0.000000 0.000000 
#    y 0.000000 1.832900 0.000000 
#    z 0.000000 0.000000 1.809980 
# 
# From -- ./inp_files/29726.got.cif
#   From: 2010.05.17/outbox.cif.g08.bks.cpg/sg43_15_cif.got.tgz:29726.got - 2010.06.03 19:21:55.
