data_PCOD9370554
_publ_section_title
;
Structure prediction by ZEFSAII (Michael W. Deem and Ramdas Pophale) SiO2 
 PCOD9370554
Probable space group: F D D 2
;
_chemical_formula_sum "Si O2"
_cell_formula_units_Z 112
_cell_length_a 30.346901
_cell_length_b 21.426366
_cell_length_c 6.922822
_cell_angle_alpha 90.000000
_cell_angle_beta 90.000000
_cell_angle_gamma 90.000000
_cell_volume 4501.383682
_symmetry_space_group_name_H-M "F D D 2"
_symmetry_group_IT_number 43
_symmetry_cell_setting 'orthorhombic'
loop_
_space_group_symop_operation_xyz
x,y,z
-x,-y,z
1/4-x,1/4+y,1/4+z
1/4+x,1/4-y,1/4+z
x,1/2+y,1/2+z
-x,1/2-y,1/2+z
1/4-x,3/4+y,3/4+z
1/4+x,3/4-y,3/4+z
1/2+x,y,1/2+z
1/2-x,-y,1/2+z
3/4-x,1/4+y,3/4+z
3/4+x,1/4-y,3/4+z
1/2+x,1/2+y,z
1/2-x,1/2-y,z
3/4-x,3/4+y,1/4+z
3/4+x,3/4-y,1/4+z
loop_
_atom_site_type_symbol
_atom_site_label
_atom_site_fract_x
_atom_site_fract_y
_atom_site_fract_z
Si Si1 0.287380 0.938461 0.536980
Si Si2 0.104972 0.999131 0.382665
Si Si3 0.866696 0.516897 0.429863
Si Si4 0.311144 0.118805 0.603325
Si Si5 0.024813 0.936140 0.271936
Si Si6 0.801992 0.008442 0.406503
Si Si7 0.288945 0.796825 0.566251
O O1 0.326679 0.967784 0.409615
O O2 0.242878 0.979070 0.517031
O O3 0.281517 0.866381 0.487288
O O4 0.299306 0.949448 0.762454
O O5 0.070154 0.942134 0.391176
O O6 0.150147 0.994666 0.502135
O O7 0.117088 0.997885 0.151666
O O8 0.083003 0.066255 0.414063
O O9 0.842009 0.584376 0.444455
O O10 0.911304 0.519865 0.303694
O O11 0.261087 0.132605 0.543478
O O12 0.307495 0.069975 0.775026
O O13 0.000000 0.000000 0.326582
O O14 0.034064 0.943053 0.046131
O O15 0.250000 0.750000 0.505867
#
# Coordination Sequence:
#
# PCOD9370554 Si02
#       7
#    16  16  16  16  16  16  16
#     4  10  22  39  59  84 120 150 193 238 292 348
#     4   8  15  31  54  83 111 145 198 236 272 335
#     4   9  18  33  54  86 109 149 199 235 280 331
#     4   9  16  31  55  80 116 146 186 245 277 329
#     4   8  15  28  54  87 107 144 198 234 279 331
#     4  10  22  37  55  87 115 152 189 235 295 338
#     4  10  20  35  60  85 113 154 192 239 287 345
#
# _framework density 24.881239999999998
#
# number of rings (size 3 to 8) (size 9 to 14) (size 15 to 20)
#    0.000    3.143    0.000    2.571    4.000    0.000 
#    0.000    3.571    0.000    0.000    0.000    0.000 
#    0.000    0.000    0.000    0.000    0.000    0.000 
#
# Total GULP energy -156362.622868 kJ/mol
# GULP energy per Si atom -5584.379388 kJ/mol
# Density = 2.482461 g / cm^3
# Si number density = 24.881240 Si / 1000 Ang^3
#
#
#
# Elastic Constant Matrix: (Units=GPa)
#
#
# Indices 1 2 3 4 5 6 
#
# 1 205.7719 77.4416 30.2914 -0.0001 -0.0001 -0.0002
# 2 77.4416 146.8447 10.7939 0.0006 0.0001 0.0003
# 3 30.2914 10.7939 50.9933 0.0039 -0.0002 0.0009
# 4 -0.0001 0.0006 0.0039 19.1278 -0.0002 0.0006
# 5 -0.0001 0.0001 -0.0002 -0.0002 39.1917 -0.0001
# 6 -0.0002 0.0003 0.0009 0.0006 -0.0001 52.6266
#
#
#
# Elastic Compliance Matrix: (Units=1/GPa)
#
#
# Indices 1 2 3 4 5 6 
#
# 1 0.006541 -0.003214 -0.003205 0.000001 0.000000 0.000000
# 2 -0.003214 0.008497 0.000111 0.000000 0.000000 0.000000
# 3 -0.003205 0.000111 0.021491 -0.000004 0.000000 0.000000
# 4 0.000001 0.000000 -0.000004 0.052280 0.000000 -0.000001
# 5 0.000000 0.000000 0.000000 0.000000 0.025516 0.000000
# 6 0.000000 0.000000 0.000000 -0.000001 0.000000 0.019002
#
#
# Mechanical properties :
#
#
# Convention : Reuss Voigt Hill
#
# Bulk Modulus (GPa) = 41.82056 71.18485 56.50271
# Shear Modulus (GPa) = 32.48560 41.19475 36.84018
#
# Velocity S-wave (km/s) = 3.61727 4.07339 3.85208
# Velocity P-wave (km/s) = 5.85583 7.12708 6.52250
#
# Compressibility (1/GPa) = 0.02391168
#
# Stress axis : x y z
#
# Youngs Moduli (GPa) = 152.87740 117.69193 46.53097
#
# Poissons Ratio (x) = 0.37826 0.14915
# Poissons Ratio (y) = 0.49135 -0.00515
# Poissons Ratio (z) = 0.49002 -0.01303
#
# Static dielectric constant tensor:
#      x y z
#    x 2.067770 0.000000 0.000000 
#    y 0.000000 1.915560 0.000000 
#    z 0.000000 0.000000 2.053450 
# 
# From -- ./inp_files/8003.got.cif
#   From: 2010.05.17/outbox.cif.g08.bks.cpg/sg43_5_cif.got.tgz:8003.got - 2010.06.03 19:21:55.
