data_PCOD9370154
_publ_section_title
;
Structure prediction by ZEFSAII (Michael W. Deem and Ramdas Pophale) SiO2 
 PCOD9370154
Probable space group: F D D 2
;
_chemical_formula_sum "Si O2"
_cell_formula_units_Z 128
_cell_length_a 12.891086
_cell_length_b 20.102664
_cell_length_c 24.757553
_cell_angle_alpha 90.000000
_cell_angle_beta 90.000000
_cell_angle_gamma 90.000000
_cell_volume 6415.800292
_symmetry_space_group_name_H-M "F D D 2"
_symmetry_group_IT_number 43
_symmetry_cell_setting 'orthorhombic'
loop_
_space_group_symop_operation_xyz
x,y,z
-x,-y,z
1/4-x,1/4+y,1/4+z
1/4+x,1/4-y,1/4+z
x,1/2+y,1/2+z
-x,1/2-y,1/2+z
1/4-x,3/4+y,3/4+z
1/4+x,3/4-y,3/4+z
1/2+x,y,1/2+z
1/2-x,-y,1/2+z
3/4-x,1/4+y,3/4+z
3/4+x,1/4-y,3/4+z
1/2+x,1/2+y,z
1/2-x,1/2-y,z
3/4-x,3/4+y,1/4+z
3/4+x,3/4-y,1/4+z
loop_
_atom_site_type_symbol
_atom_site_label
_atom_site_fract_x
_atom_site_fract_y
_atom_site_fract_z
Si Si1 0.116848 0.516996 0.408090
Si Si2 0.015698 0.924128 0.453552
Si Si3 0.105416 0.459530 0.219919
Si Si4 0.671109 0.379514 0.306070
Si Si5 0.741306 0.424508 0.492547
Si Si6 0.625268 0.664648 0.855097
Si Si7 0.250557 0.975654 0.816914
Si Si8 0.462956 0.925686 0.829003
O O1 0.195391 0.520309 0.458926
O O2 0.109593 0.588324 0.376112
O O3 0.166720 0.466742 0.364297
O O4 0.000000 0.500000 0.424047
O O5 0.955242 0.877085 0.494287
O O6 0.972475 0.922690 0.393598
O O7 0.137797 0.908525 0.457519
O O8 0.000000 0.000000 0.473241
O O9 0.142065 0.458240 0.158133
O O10 0.191473 0.483816 0.260954
O O11 0.000000 0.500000 0.224558
O O12 0.071077 0.386383 0.239456
O O13 0.753127 0.333014 0.337423
O O14 0.695724 0.453095 0.328914
O O15 0.547779 0.372382 0.309496
O O16 0.695413 0.431766 0.553104
O O17 0.342422 0.922135 0.813890
O O18 0.500000 0.000000 0.810537
#
# Coordination Sequence:
#
# PCOD9370154 Si02
#       8
#    16  16  16  16  16  16  16  16
#     4  10  18  32  55  76 101 142 183 214 255 310
#     4  10  18  32  53  76 101 129 162 206 257 306
#     4  11  20  33  55  78 104 140 176 214 261 312
#     4   9  18  33  53  77 102 129 164 210 260 312
#     4  10  20  35  53  79 108 133 170 222 265 308
#     4   9  19  32  51  80 108 131 169 223 269 309
#     4  10  19  33  54  78 101 135 177 216 254 307
#     4   9  17  32  52  74 101 129 166 209 252 300
#
# _framework density 19.950745000000001
#
# number of rings (size 3 to 8) (size 9 to 14) (size 15 to 20)
#    0.000    2.250    0.000    7.125    0.000    2.000 
#    0.000    6.250    0.000    2.250    0.000    0.000 
#    0.000    0.000    0.000    0.000    0.000    0.000 
#
# Total GULP energy -178353.365630 kJ/mol
# GULP energy per Si atom -5573.542676 kJ/mol
# Density = 1.990534 g / cm^3
# Si number density = 19.950745 Si / 1000 Ang^3
#
#
#
# Elastic Constant Matrix: (Units=GPa)
#
#
# Indices 1 2 3 4 5 6 
#
# 1 96.0156 9.3939 74.0819 0.0000 0.0000 0.0000
# 2 9.3939 12.0267 6.2048 0.0000 0.0000 0.0000
# 3 74.0819 6.2048 123.7413 0.0000 0.0000 0.0000
# 4 0.0000 0.0000 0.0000 36.6096 0.0000 0.0000
# 5 0.0000 0.0000 0.0000 0.0000 14.7702 0.0000
# 6 0.0000 0.0000 0.0000 0.0000 0.0000 18.6219
#
#
#
# Elastic Compliance Matrix: (Units=1/GPa)
#
#
# Indices 1 2 3 4 5 6 
#
# 1 0.020445 -0.009911 -0.011743 0.000000 0.000000 0.000000
# 2 -0.009911 0.090161 0.001413 0.000000 0.000000 0.000000
# 3 -0.011743 0.001413 0.015041 0.000000 0.000000 0.000000
# 4 0.000000 0.000000 0.000000 0.027315 0.000000 0.000000
# 5 0.000000 0.000000 0.000000 0.000000 0.067704 0.000000
# 6 0.000000 0.000000 0.000000 0.000000 0.000000 0.053700
#
#
# Mechanical properties :
#
#
# Convention : Reuss Voigt Hill
#
# Bulk Modulus (GPa) = 11.74206 45.68275 28.71241
# Shear Modulus (GPa) = 14.56714 23.47386 19.02050
#
# Velocity S-wave (km/s) = 2.70507 3.43387 3.09102
# Velocity P-wave (km/s) = 3.95662 6.21847 5.21173
#
# Compressibility (1/GPa) = 0.08516392
#
# Stress axis : x y z
#
# Youngs Moduli (GPa) = 48.91090 11.09127 66.48463
#
# Poissons Ratio (x) = 0.10993 0.78075
# Poissons Ratio (y) = 0.48476 -0.09392
# Poissons Ratio (z) = 0.57438 -0.01567
#
# Static dielectric constant tensor:
#      x y z
#    x 1.746180 0.000000 0.000000 
#    y 0.000000 1.751740 0.000000 
#    z 0.000000 0.000000 1.704990 
# 
# From -- ./inp_files/21322.got.cif
#   From: 2010.05.17/outbox.cif.g08.bks.cpg/sg43_11_cif.got.tgz:21322.got - 2010.06.03 19:21:55.
