data_PCOD9370682
_publ_section_title
;
Structure prediction by ZEFSAII (Michael W. Deem and Ramdas Pophale) SiO2 
 PCOD9370682
Probable space group: F D D 2
;
_chemical_formula_sum "Si O2"
_cell_formula_units_Z 104
_cell_length_a 27.636412
_cell_length_b 18.859281
_cell_length_c 8.125701
_cell_angle_alpha 90.000000
_cell_angle_beta 90.000000
_cell_angle_gamma 90.000000
_cell_volume 4235.138599
_symmetry_space_group_name_H-M "F D D 2"
_symmetry_group_IT_number 43
_symmetry_cell_setting 'orthorhombic'
loop_
_space_group_symop_operation_xyz
x,y,z
-x,-y,z
1/4-x,1/4+y,1/4+z
1/4+x,1/4-y,1/4+z
x,1/2+y,1/2+z
-x,1/2-y,1/2+z
1/4-x,3/4+y,3/4+z
1/4+x,3/4-y,3/4+z
1/2+x,y,1/2+z
1/2-x,-y,1/2+z
3/4-x,1/4+y,3/4+z
3/4+x,1/4-y,3/4+z
1/2+x,1/2+y,z
1/2-x,1/2-y,z
3/4-x,3/4+y,1/4+z
3/4+x,3/4-y,1/4+z
loop_
_atom_site_type_symbol
_atom_site_label
_atom_site_fract_x
_atom_site_fract_y
_atom_site_fract_z
Si Si1 0.366491 0.175141 0.589850
Si Si2 0.000000 0.000000 0.843053
Si Si3 0.193274 0.368003 0.887823
Si Si4 0.777019 0.978171 0.902698
Si Si5 0.961465 0.176938 0.317287
Si Si6 0.919921 0.098185 0.829425
Si Si7 0.345346 0.317974 0.721350
O O1 0.322594 0.152072 0.705222
O O2 0.417606 0.172528 0.689025
O O3 0.374871 0.124135 0.436382
O O4 0.357663 0.259353 0.584761
O O5 0.974112 0.940468 0.732110
O O6 0.041726 0.951643 0.927903
O O7 0.224897 0.438997 0.886847
O O8 0.141212 0.379640 0.971607
O O9 0.796980 0.982777 0.717546
O O10 0.807730 0.923641 0.014348
O O11 0.761267 0.051865 0.982301
O O12 0.954808 0.104206 0.417853
O O13 0.909139 0.052443 0.664992
#
# Coordination Sequence:
#
# PCOD9370682 Si02
#       7
#    16   8  16  16  16  16  16
#     4  11  21  42  64  95 129 176 224 285 340 426
#     4  10  20  42  66  98 128 186 224 296 348 422
#     4  10  21  39  66  87 130 171 225 275 347 404
#     4  10  20  38  63  95 120 176 218 277 341 408
#     4  10  21  38  62  89 130 163 226 276 336 413
#     4  10  22  40  69  94 134 178 235 280 355 421
#     4  10  21  41  64  96 128 179 220 287 341 430
#
# _framework density 24.556457999999999
#
# number of rings (size 3 to 8) (size 9 to 14) (size 15 to 20)
#    0.000    1.846    3.077    0.923    0.000    0.000 
#    8.308    0.000    0.000    0.923    0.000    0.000 
#    0.000    0.000    0.000    0.000    0.000    0.000 
#
# Total GULP energy -145018.646955 kJ/mol
# GULP energy per Si atom -5577.640268 kJ/mol
# Density = 2.450057 g / cm^3
# Si number density = 24.556458 Si / 1000 Ang^3
#
#
#
# Elastic Constant Matrix: (Units=GPa)
#
#
# Indices 1 2 3 4 5 6 
#
# 1 67.6402 21.2369 -1.5942 0.0000 0.0000 0.0000
# 2 21.2369 63.5869 13.9940 -0.0003 0.0001 -0.0001
# 3 -1.5942 13.9940 38.2244 -0.0007 0.0002 -0.0001
# 4 0.0000 -0.0003 -0.0007 20.9698 0.0001 -0.0001
# 5 0.0000 0.0001 0.0002 0.0001 37.0327 0.0000
# 6 0.0000 -0.0001 -0.0001 -0.0001 0.0000 46.2254
#
#
#
# Elastic Compliance Matrix: (Units=1/GPa)
#
#
# Indices 1 2 3 4 5 6 
#
# 1 0.016827 -0.006280 0.003001 0.000000 0.000000 0.000000
# 2 -0.006280 0.019449 -0.007382 0.000000 0.000000 0.000000
# 3 0.003001 -0.007382 0.028989 0.000001 0.000000 0.000000
# 4 0.000000 0.000000 0.000001 0.047688 0.000000 0.000000
# 5 0.000000 0.000000 0.000000 0.000000 0.027003 0.000000
# 6 0.000000 0.000000 0.000000 0.000000 0.000000 0.021633
#
#
# Mechanical properties :
#
#
# Convention : Reuss Voigt Hill
#
# Bulk Modulus (GPa) = 22.75749 26.30278 24.53014
# Shear Modulus (GPa) = 25.30901 29.89991 27.60446
#
# Velocity S-wave (km/s) = 3.21385 3.49320 3.35643
# Velocity P-wave (km/s) = 4.80201 5.19656 5.00318
#
# Compressibility (1/GPa) = 0.04394157
#
# Stress axis : x y z
#
# Youngs Moduli (GPa) = 59.42960 51.41751 34.49581
#
# Poissons Ratio (x) = 0.32291 -0.10352
# Poissons Ratio (y) = 0.37323 0.25465
# Poissons Ratio (z) = -0.17835 0.37957
#
# Static dielectric constant tensor:
#      x y z
#    x 1.964100 0.000000 0.000000 
#    y 0.000000 2.077960 0.000000 
#    z 0.000000 0.000000 2.023050 
# 
# From -- ./inp_files/4250.got.cif
#   From: 2010.05.17/outbox.cif.g08.bks.cpg/sg43_3_cif.got.tgz:4250.got - 2010.06.03 19:21:55.
