data_PCOD9370356
_publ_section_title
;
Structure prediction by ZEFSAII (Michael W. Deem and Ramdas Pophale) SiO2 
 PCOD9370356
Probable space group: F D D 2
;
_chemical_formula_sum "Si O2"
_cell_formula_units_Z 120
_cell_length_a 12.043113
_cell_length_b 16.752657
_cell_length_c 25.496545
_cell_angle_alpha 90.000000
_cell_angle_beta 90.000000
_cell_angle_gamma 90.000000
_cell_volume 5144.033543
_symmetry_space_group_name_H-M "F D D 2"
_symmetry_group_IT_number 43
_symmetry_cell_setting 'orthorhombic'
loop_
_space_group_symop_operation_xyz
x,y,z
-x,-y,z
1/4-x,1/4+y,1/4+z
1/4+x,1/4-y,1/4+z
x,1/2+y,1/2+z
-x,1/2-y,1/2+z
1/4-x,3/4+y,3/4+z
1/4+x,3/4-y,3/4+z
1/2+x,y,1/2+z
1/2-x,-y,1/2+z
3/4-x,1/4+y,3/4+z
3/4+x,1/4-y,3/4+z
1/2+x,1/2+y,z
1/2-x,1/2-y,z
3/4-x,3/4+y,1/4+z
3/4+x,3/4-y,1/4+z
loop_
_atom_site_type_symbol
_atom_site_label
_atom_site_fract_x
_atom_site_fract_y
_atom_site_fract_z
Si Si1 0.924107 0.218465 0.448270
Si Si2 0.818849 0.649920 0.206941
Si Si3 0.750000 0.750000 0.687614
Si Si4 0.031883 0.369551 0.562270
Si Si5 0.505435 0.355015 0.354243
Si Si6 0.969852 0.590703 0.341114
Si Si7 0.953090 0.319578 0.241740
Si Si8 0.137834 0.711639 0.017459
O O1 0.896354 0.307414 0.464831
O O2 0.839706 0.152324 0.466893
O O3 0.933829 0.214002 0.385780
O O4 0.042796 0.196927 0.475157
O O5 0.736017 0.659239 0.255489
O O6 0.764323 0.656205 0.150426
O O7 0.929469 0.701125 0.215072
O O8 0.750055 0.675885 0.647478
O O9 0.857996 0.757826 0.724693
O O10 0.129118 0.417111 0.591011
O O11 0.085138 0.281246 0.554086
O O12 0.912120 0.357906 0.588413
O O13 0.571572 0.389149 0.304209
O O14 0.000000 0.500000 0.322979
O O15 0.025224 0.655312 0.301817
O O16 0.250000 0.750000 0.993841
#
# Coordination Sequence:
#
# PCOD9370356 Si02
#       8
#    16  16   8  16  16  16  16  16
#     4  10  21  36  59  90 123 167 205 262 330 377
#     4  10  22  41  60  89 124 167 216 263 308 392
#     4  10  20  36  62  96 122 158 204 278 310 372
#     4   9  19  37  60  83 122 161 215 257 310 375
#     4  10  19  35  61  95 123 164 213 264 324 373
#     4  11  23  39  64  88 120 181 213 256 330 393
#     4  10  22  41  61  92 129 157 214 268 323 385
#     4   9  17  34  58  82 121 166 209 256 308 382
#
# _framework density 23.327997
#
# number of rings (size 3 to 8) (size 9 to 14) (size 15 to 20)
#    0.000    2.133    2.000    2.800    1.867    5.333 
#    7.200    2.667    0.000    0.000    0.000    0.000 
#    0.000    0.000    0.000    0.000    0.000    0.000 
#
# Total GULP energy -167640.057076 kJ/mol
# GULP energy per Si atom -5588.001903 kJ/mol
# Density = 2.327490 g / cm^3
# Si number density = 23.327997 Si / 1000 Ang^3
#
#
#
# Elastic Constant Matrix: (Units=GPa)
#
#
# Indices 1 2 3 4 5 6 
#
# 1 152.2427 7.4810 64.0666 0.0000 0.0000 0.0000
# 2 7.4810 46.0028 4.1311 0.0000 0.0000 0.0000
# 3 64.0666 4.1311 115.3242 0.0000 0.0000 0.0000
# 4 0.0000 0.0000 0.0000 21.3966 0.0000 0.0000
# 5 0.0000 0.0000 0.0000 0.0000 10.7739 0.0000
# 6 0.0000 0.0000 0.0000 0.0000 0.0000 27.9337
#
#
#
# Elastic Compliance Matrix: (Units=1/GPa)
#
#
# Indices 1 2 3 4 5 6 
#
# 1 0.008616 -0.000974 -0.004752 0.000000 0.000000 0.000000
# 2 -0.000974 0.021918 -0.000244 0.000000 0.000000 0.000000
# 3 -0.004752 -0.000244 0.011320 0.000000 0.000000 0.000000
# 4 0.000000 0.000000 0.000000 0.046736 0.000000 0.000000
# 5 0.000000 0.000000 0.000000 0.000000 0.092817 0.000000
# 6 0.000000 0.000000 0.000000 0.000000 0.000000 0.035799
#
#
# Mechanical properties :
#
#
# Convention : Reuss Voigt Hill
#
# Bulk Modulus (GPa) = 33.42906 51.65857 42.54382
# Shear Modulus (GPa) = 20.91026 27.88024 24.39525
#
# Velocity S-wave (km/s) = 2.99717 3.46083 3.23731
# Velocity P-wave (km/s) = 5.13211 6.17757 5.67895
#
# Compressibility (1/GPa) = 0.02991409
#
# Stress axis : x y z
#
# Youngs Moduli (GPa) = 116.06502 45.62425 88.34258
#
# Poissons Ratio (x) = 0.04446 0.41976
# Poissons Ratio (y) = 0.11310 0.02154
# Poissons Ratio (z) = 0.55148 0.01112
#
# Static dielectric constant tensor:
#      x y z
#    x 1.875450 0.000000 0.000000 
#    y 0.000000 2.003370 0.000000 
#    z 0.000000 0.000000 1.860990 
# 
# From -- ./inp_files/21259.got.cif
#   From: 2010.05.17/outbox.cif.g08.bks.cpg/sg43_11_cif.got.tgz:21259.got - 2010.06.03 19:21:55.
