data_PCOD9370872
_publ_section_title
;
Structure prediction by ZEFSAII (Michael W. Deem and Ramdas Pophale) SiO2 
 PCOD9370872
Probable space group: F D D 2
;
_chemical_formula_sum "Si O2"
_cell_formula_units_Z 96
_cell_length_a 12.537312
_cell_length_b 15.539927
_cell_length_c 25.092656
_cell_angle_alpha 90.000000
_cell_angle_beta 90.000000
_cell_angle_gamma 90.000000
_cell_volume 4888.774899
_symmetry_space_group_name_H-M "F D D 2"
_symmetry_group_IT_number 43
_symmetry_cell_setting 'orthorhombic'
loop_
_space_group_symop_operation_xyz
x,y,z
-x,-y,z
1/4-x,1/4+y,1/4+z
1/4+x,1/4-y,1/4+z
x,1/2+y,1/2+z
-x,1/2-y,1/2+z
1/4-x,3/4+y,3/4+z
1/4+x,3/4-y,3/4+z
1/2+x,y,1/2+z
1/2-x,-y,1/2+z
3/4-x,1/4+y,3/4+z
3/4+x,1/4-y,3/4+z
1/2+x,1/2+y,z
1/2-x,1/2-y,z
3/4-x,3/4+y,1/4+z
3/4+x,3/4-y,1/4+z
loop_
_atom_site_type_symbol
_atom_site_label
_atom_site_fract_x
_atom_site_fract_y
_atom_site_fract_z
Si Si1 0.752551 0.519792 0.603120
Si Si2 0.891850 0.557348 0.826748
Si Si3 0.355360 0.808473 0.953389
Si Si4 0.739514 0.472533 0.911853
Si Si5 0.614987 0.534288 0.008283
Si Si6 0.809010 0.338603 0.586202
O O1 0.668211 0.593870 0.591770
O O2 0.806729 0.533101 0.660161
O O3 0.840907 0.528400 0.555529
O O4 0.727581 0.418011 0.597334
O O5 0.860828 0.551321 0.764699
O O6 0.802403 0.521000 0.865692
O O7 0.000000 0.500000 0.833590
O O8 0.250000 0.750000 0.946093
O O9 0.317745 0.904584 0.939588
O O10 0.639789 0.423162 0.885162
O O11 0.692193 0.531789 0.958111
O O12 0.500000 0.500000 0.992821
O O13 0.620782 0.626524 0.036790
O O14 0.750000 0.250000 0.576256
#
# Coordination Sequence:
#
# PCOD9370872 Si02
#       6
#    16  16  16  16  16  16
#     4  10  20  41  66  97 132 173 225 275 340 401
#     4  11  24  37  66 103 133 176 225 280 346 397
#     4  11  19  37  62  99 130 168 229 283 323 394
#     4  12  22  41  66 101 138 174 226 283 337 415
#     4  10  22  41  71  96 131 173 226 287 338 401
#     4  10  23  44  66  98 137 172 223 277 341 407
#
# _framework density 19.636821999999999
#
# number of rings (size 3 to 8) (size 9 to 14) (size 15 to 20)
#    1.000    0.333    5.000    2.000    0.000    0.000 
#    6.000    0.833    0.000    0.000    0.000    0.000 
#    0.000    0.000    0.000    0.000    0.000    0.000 
#
# Total GULP energy -133874.718694 kJ/mol
# GULP energy per Si atom -5578.113279 kJ/mol
# Density = 1.959213 g / cm^3
# Si number density = 19.636822 Si / 1000 Ang^3
#
#
#
# Elastic Constant Matrix: (Units=GPa)
#
#
# Indices 1 2 3 4 5 6 
#
# 1 25.1013 11.9578 30.0707 0.0000 0.0000 0.0000
# 2 11.9578 75.7136 18.9337 0.0000 0.0000 0.0000
# 3 30.0707 18.9337 141.4328 0.0000 0.0000 0.0000
# 4 0.0000 0.0000 0.0000 13.5961 0.0000 0.0000
# 5 0.0000 0.0000 0.0000 0.0000 12.2855 0.0000
# 6 0.0000 0.0000 0.0000 0.0000 0.0000 27.5616
#
#
#
# Elastic Compliance Matrix: (Units=1/GPa)
#
#
# Indices 1 2 3 4 5 6 
#
# 1 0.056029 -0.006073 -0.011099 0.000000 0.000000 0.000000
# 2 -0.006073 0.014323 -0.000626 0.000000 0.000000 0.000000
# 3 -0.011099 -0.000626 0.009514 0.000000 0.000000 0.000000
# 4 0.000000 0.000000 0.000000 0.073551 0.000000 0.000000
# 5 0.000000 0.000000 0.000000 0.000000 0.081397 0.000000
# 6 0.000000 0.000000 0.000000 0.000000 0.000000 0.036282
#
#
# Mechanical properties :
#
#
# Convention : Reuss Voigt Hill
#
# Bulk Modulus (GPa) = 22.58950 40.46357 31.52653
# Shear Modulus (GPa) = 15.55451 22.77432 19.16442
#
# Velocity S-wave (km/s) = 2.81750 3.40924 3.12740
# Velocity P-wave (km/s) = 4.70245 6.01232 5.39727
#
# Compressibility (1/GPa) = 0.04426836
#
# Stress axis : x y z
#
# Youngs Moduli (GPa) = 17.84805 69.81566 105.10557
#
# Poissons Ratio (x) = 0.42401 1.16662
# Poissons Ratio (y) = 0.10840 0.06582
# Poissons Ratio (z) = 0.19810 0.04372
#
# Static dielectric constant tensor:
#      x y z
#    x 1.684930 0.000000 0.000000 
#    y 0.000000 1.714360 0.000000 
#    z 0.000000 0.000000 1.683990 
# 
# From -- ./inp_files/21061.got.cif
#   From: 2010.05.17/outbox.cif.g08.bks.cpg/sg43_11_cif.got.tgz:21061.got - 2010.06.03 19:21:55.
