data_PCOD9370229
_publ_section_title
;
Structure prediction by ZEFSAII (Michael W. Deem and Ramdas Pophale) SiO2 
 PCOD9370229
Probable space group: F D D 2
;
_chemical_formula_sum "Si O2"
_cell_formula_units_Z 64
_cell_length_a 11.791394
_cell_length_b 7.339222
_cell_length_c 26.243647
_cell_angle_alpha 90.000000
_cell_angle_beta 90.000000
_cell_angle_gamma 90.000000
_cell_volume 2271.116243
_symmetry_space_group_name_H-M "F D D 2"
_symmetry_group_IT_number 43
_symmetry_cell_setting 'orthorhombic'
loop_
_space_group_symop_operation_xyz
x,y,z
-x,-y,z
1/4-x,1/4+y,1/4+z
1/4+x,1/4-y,1/4+z
x,1/2+y,1/2+z
-x,1/2-y,1/2+z
1/4-x,3/4+y,3/4+z
1/4+x,3/4-y,3/4+z
1/2+x,y,1/2+z
1/2-x,-y,1/2+z
3/4-x,1/4+y,3/4+z
3/4+x,1/4-y,3/4+z
1/2+x,1/2+y,z
1/2-x,1/2-y,z
3/4-x,3/4+y,1/4+z
3/4+x,3/4-y,1/4+z
loop_
_atom_site_type_symbol
_atom_site_label
_atom_site_fract_x
_atom_site_fract_y
_atom_site_fract_z
Si Si1 0.449023 0.253342 0.461490
Si Si2 0.501015 0.785330 0.344805
Si Si3 0.001801 0.703784 0.677734
Si Si4 0.440494 0.761921 0.071503
O O1 0.508895 0.238652 0.406762
O O2 0.368463 0.437971 0.456441
O O3 0.363413 0.073086 0.461565
O O4 0.502107 0.254115 0.517267
O O5 0.612906 0.670193 0.328693
O O6 0.401379 0.673085 0.318801
O O7 0.500000 0.000000 0.333347
O O8 0.005927 0.804103 0.624380
O O9 0.000000 0.500000 0.656566
#
# Coordination Sequence:
#
# PCOD9370229 Si02
#       4
#    16  16  16  16
#     4   8  17  34  57  81 110 148 189 236 292 348
#     4  10  20  35  55  87 117 144 205 245 282 362
#     4   7  15  31  53  76 105 136 192 219 273 351
#     4  10  18  36  63  72 117 163 176 242 317 334
#
# _framework density 28.179977000000001
#
# number of rings (size 3 to 8) (size 9 to 14) (size 15 to 20)
#    1.500    1.500    0.000    3.000    0.000    1.000 
#    0.000   11.250    5.500    0.000    0.000    0.000 
#    0.000    0.000    0.000    0.000    0.000    0.000 
#
# Total GULP energy -89079.501852 kJ/mol
# GULP energy per Si atom -5567.468866 kJ/mol
# Density = 2.811584 g / cm^3
# Si number density = 28.179977 Si / 1000 Ang^3
#
#
#
# Elastic Constant Matrix: (Units=GPa)
#
#
# Indices 1 2 3 4 5 6 
#
# 1 56.4309 17.3359 34.2414 0.0000 0.0000 0.0000
# 2 17.3359 180.8528 38.5004 0.0000 0.0000 0.0000
# 3 34.2414 38.5004 231.8678 0.0000 0.0000 0.0000
# 4 0.0000 0.0000 0.0000 29.7476 0.0000 0.0000
# 5 0.0000 0.0000 0.0000 0.0000 18.3917 0.0000
# 6 0.0000 0.0000 0.0000 0.0000 0.0000 31.4605
#
#
#
# Elastic Compliance Matrix: (Units=1/GPa)
#
#
# Indices 1 2 3 4 5 6 
#
# 1 0.019764 -0.001320 -0.002700 0.000000 0.000000 0.000000
# 2 -0.001320 0.005820 -0.000771 0.000000 0.000000 0.000000
# 3 -0.002700 -0.000771 0.004840 0.000000 0.000000 0.000000
# 4 0.000000 0.000000 0.000000 0.033616 0.000000 0.000000
# 5 0.000000 0.000000 0.000000 0.000000 0.054372 0.000000
# 6 0.000000 0.000000 0.000000 0.000000 0.000000 0.031786
#
#
# Mechanical properties :
#
#
# Convention : Reuss Voigt Hill
#
# Bulk Modulus (GPa) = 47.97958 72.14519 60.06239
# Shear Modulus (GPa) = 29.98903 41.19155 35.59029
#
# Velocity S-wave (km/s) = 3.26574 3.82741 3.55768
# Velocity P-wave (km/s) = 5.59314 6.72229 6.18354
#
# Compressibility (1/GPa) = 0.02084220
#
# Stress axis : x y z
#
# Youngs Moduli (GPa) = 50.59623 171.81802 206.63011
#
# Poissons Ratio (x) = 0.22677 0.55781
# Poissons Ratio (y) = 0.06678 0.15941
# Poissons Ratio (z) = 0.13659 0.13256
#
# Static dielectric constant tensor:
#      x y z
#    x 2.698860 0.000000 0.000000 
#    y 0.000000 2.202090 0.000000 
#    z 0.000000 0.000000 2.102480 
# 
# From -- ./inp_files/22271.got.cif
#   From: 2010.05.17/outbox.cif.g08.bks.cpg/sg43_12_cif.got.tgz:22271.got - 2010.06.03 19:21:55.
