data_PCOD9370439
_publ_section_title
;
Structure prediction by ZEFSAII (Michael W. Deem and Ramdas Pophale) SiO2 
 PCOD9370439
Probable space group: F D D 2
;
_chemical_formula_sum "Si O2"
_cell_formula_units_Z 72
_cell_length_a 25.779460
_cell_length_b 15.814755
_cell_length_c 7.493029
_cell_angle_alpha 90.000000
_cell_angle_beta 90.000000
_cell_angle_gamma 90.000000
_cell_volume 3054.876782
_symmetry_space_group_name_H-M "F D D 2"
_symmetry_group_IT_number 43
_symmetry_cell_setting 'orthorhombic'
loop_
_space_group_symop_operation_xyz
x,y,z
-x,-y,z
1/4-x,1/4+y,1/4+z
1/4+x,1/4-y,1/4+z
x,1/2+y,1/2+z
-x,1/2-y,1/2+z
1/4-x,3/4+y,3/4+z
1/4+x,3/4-y,3/4+z
1/2+x,y,1/2+z
1/2-x,-y,1/2+z
3/4-x,1/4+y,3/4+z
3/4+x,1/4-y,3/4+z
1/2+x,1/2+y,z
1/2-x,1/2-y,z
3/4-x,3/4+y,1/4+z
3/4+x,3/4-y,1/4+z
loop_
_atom_site_type_symbol
_atom_site_label
_atom_site_fract_x
_atom_site_fract_y
_atom_site_fract_z
Si Si1 0.336955 0.197437 0.556630
Si Si2 0.699504 0.993763 0.104201
Si Si3 0.697036 0.086369 0.724578
Si Si4 0.250000 0.750000 0.814138
Si Si5 0.626642 0.874150 0.924150
O O1 0.363438 0.425314 0.183485
O O2 0.285531 0.191880 0.441840
O O3 0.341511 0.147154 0.742278
O O4 0.342746 0.294220 0.621197
O O5 0.758688 0.971382 0.138680
O O6 0.662370 0.049549 0.232352
O O7 0.668541 0.907389 0.064549
O O8 0.697320 0.052047 0.928205
O O9 0.714281 0.183843 0.708821
#
# Coordination Sequence:
#
# PCOD9370439 Si02
#       5
#    16  16  16   8  16
#     4  10  19  38  63  94 116 170 211 255 306 391
#     4  10  20  42  61  94 126 170 207 264 311 379
#     4  10  24  39  64  92 130 160 216 258 318 372
#     4  12  22  40  64  90 128 168 210 256 324 374
#     4   8  18  37  63  89 125 157 219 247 312 376
#
# _framework density 23.568871000000001
#
# number of rings (size 3 to 8) (size 9 to 14) (size 15 to 20)
#    0.000    2.667    4.444    0.000    6.222    0.000 
#    8.000    3.333    0.000    0.000    0.000    0.000 
#    0.000    0.000    0.000    0.000    0.000    0.000 
#
# Total GULP energy -100449.683480 kJ/mol
# GULP energy per Si atom -5580.537971 kJ/mol
# Density = 2.351523 g / cm^3
# Si number density = 23.568871 Si / 1000 Ang^3
#
#
#
# Elastic Constant Matrix: (Units=GPa)
#
#
# Indices 1 2 3 4 5 6 
#
# 1 143.1726 25.0519 5.6048 0.0000 0.0000 0.0000
# 2 25.0519 79.3698 8.4010 0.0000 0.0000 0.0000
# 3 5.6048 8.4010 14.1311 0.0000 0.0000 0.0000
# 4 0.0000 0.0000 0.0000 11.2023 0.0000 0.0000
# 5 0.0000 0.0000 0.0000 0.0000 24.6670 0.0000
# 6 0.0000 0.0000 0.0000 0.0000 0.0000 35.9634
#
#
#
# Elastic Compliance Matrix: (Units=1/GPa)
#
#
# Indices 1 2 3 4 5 6 
#
# 1 0.007429 -0.002170 -0.001657 0.000000 0.000000 0.000000
# 2 -0.002170 0.014079 -0.007509 0.000000 0.000000 0.000000
# 3 -0.001657 -0.007509 0.075887 0.000000 0.000000 0.000000
# 4 0.000000 0.000000 0.000000 0.089268 0.000000 0.000000
# 5 0.000000 0.000000 0.000000 0.000000 0.040540 0.000000
# 6 0.000000 0.000000 0.000000 0.000000 0.000000 0.027806
#
#
# Mechanical properties :
#
#
# Convention : Reuss Voigt Hill
#
# Bulk Modulus (GPa) = 13.38262 34.97654 24.17958
# Shear Modulus (GPa) = 16.52410 27.54092 22.03251
#
# Velocity S-wave (km/s) = 2.65070 3.42208 3.06079
# Velocity P-wave (km/s) = 3.88055 5.52147 4.77207
#
# Compressibility (1/GPa) = 0.07472376
#
# Stress axis : x y z
#
# Youngs Moduli (GPa) = 134.60675 71.02838 13.17744
#
# Poissons Ratio (x) = 0.15410 0.02183
# Poissons Ratio (y) = 0.29203 0.09896
# Poissons Ratio (z) = 0.22301 0.53338
#
# Static dielectric constant tensor:
#      x y z
#    x 1.997770 0.000000 0.000000 
#    y 0.000000 1.934970 0.000000 
#    z 0.000000 0.000000 1.959610 
# 
# From -- ./inp_files/4108.got.cif
#   From: 2010.05.17/outbox.cif.g08.bks.cpg/sg43_3_cif.got.tgz:4108.got - 2010.06.03 19:21:55.
