data_PCOD9370250
_publ_section_title
;
Structure prediction by ZEFSAII (Michael W. Deem and Ramdas Pophale) SiO2 
 PCOD9370250
Probable space group: F D D 2
;
_chemical_formula_sum "Si O2"
_cell_formula_units_Z 88
_cell_length_a 11.046373
_cell_length_b 12.028702
_cell_length_c 35.854790
_cell_angle_alpha 90.000000
_cell_angle_beta 90.000000
_cell_angle_gamma 90.000000
_cell_volume 4764.152479
_symmetry_space_group_name_H-M "F D D 2"
_symmetry_group_IT_number 43
_symmetry_cell_setting 'orthorhombic'
loop_
_space_group_symop_operation_xyz
x,y,z
-x,-y,z
1/4-x,1/4+y,1/4+z
1/4+x,1/4-y,1/4+z
x,1/2+y,1/2+z
-x,1/2-y,1/2+z
1/4-x,3/4+y,3/4+z
1/4+x,3/4-y,3/4+z
1/2+x,y,1/2+z
1/2-x,-y,1/2+z
3/4-x,1/4+y,3/4+z
3/4+x,1/4-y,3/4+z
1/2+x,1/2+y,z
1/2-x,1/2-y,z
3/4-x,3/4+y,1/4+z
3/4+x,3/4-y,1/4+z
loop_
_atom_site_type_symbol
_atom_site_label
_atom_site_fract_x
_atom_site_fract_y
_atom_site_fract_z
Si Si1 0.863947 0.949497 0.560150
Si Si2 0.796264 0.876654 0.478116
Si Si3 0.385580 0.762083 0.856396
Si Si4 0.500000 0.500000 0.436099
Si Si5 0.376523 0.561349 0.911905
Si Si6 0.838053 0.018561 0.371104
O O1 0.809192 0.922882 0.519765
O O2 0.755131 0.013169 0.582096
O O3 0.884964 0.839333 0.584970
O O4 0.000000 0.000000 0.557273
O O5 0.750000 0.750000 0.480062
O O6 0.700914 0.931462 0.449599
O O7 0.925967 0.909030 0.459715
O O8 0.250000 0.750000 0.838633
O O9 0.387146 0.683084 0.892806
O O10 0.384268 0.892337 0.866389
O O11 0.404487 0.559897 0.408531
O O12 0.500000 0.500000 0.919184
O O13 0.302173 0.490723 0.881208
#
# Coordination Sequence:
#
# PCOD9370250 Si02
#       6
#    16  16  16   8  16  16
#     4  12  23  38  60  97 129 163 212 275 325 379
#     4  11  23  38  61  87 126 171 208 264 330 397
#     4  10  20  37  63  92 117 164 212 254 318 397
#     4  10  18  38  60  86 118 152 224 260 302 402
#     4  10  21  38  61  92 121 162 208 266 328 390
#     4  10  19  36  63  87 118 159 213 260 309 389
#
# _framework density 18.471281000000001
#
# number of rings (size 3 to 8) (size 9 to 14) (size 15 to 20)
#    0.000    1.455    2.727    4.909    0.000    0.727 
#    0.000    0.000    0.000    0.000    0.000    0.000 
#    0.000    0.000    0.000    0.000    0.000    0.000 
#
# Total GULP energy -122485.374928 kJ/mol
# GULP energy per Si atom -5567.517042 kJ/mol
# Density = 1.842924 g / cm^3
# Si number density = 18.471281 Si / 1000 Ang^3
#
#
#
# Elastic Constant Matrix: (Units=GPa)
#
#
# Indices 1 2 3 4 5 6 
#
# 1 149.3788 50.8803 56.4465 0.0000 0.0000 0.0000
# 2 50.8803 63.1846 42.0994 0.0000 0.0000 0.0000
# 3 56.4465 42.0994 133.9473 0.0000 0.0000 0.0000
# 4 0.0000 0.0000 0.0000 15.2716 0.0000 0.0000
# 5 0.0000 0.0000 0.0000 0.0000 24.5266 0.0000
# 6 0.0000 0.0000 0.0000 0.0000 0.0000 27.0269
#
#
#
# Elastic Compliance Matrix: (Units=1/GPa)
#
#
# Indices 1 2 3 4 5 6 
#
# 1 0.009652 -0.006403 -0.002055 0.000000 0.000000 0.000000
# 2 -0.006403 0.024267 -0.004929 0.000000 0.000000 0.000000
# 3 -0.002055 -0.004929 0.009881 0.000000 0.000000 0.000000
# 4 0.000000 0.000000 0.000000 0.065481 0.000000 0.000000
# 5 0.000000 0.000000 0.000000 0.000000 0.040772 0.000000
# 6 0.000000 0.000000 0.000000 0.000000 0.000000 0.037000
#
#
# Mechanical properties :
#
#
# Convention : Reuss Voigt Hill
#
# Bulk Modulus (GPa) = 58.73400 71.70700 65.22050
# Shear Modulus (GPa) = 22.77887 26.50396 24.64141
#
# Velocity S-wave (km/s) = 3.51551 3.79208 3.65641
# Velocity P-wave (km/s) = 6.95305 7.62091 7.29463
#
# Compressibility (1/GPa) = 0.01702591
#
# Stress axis : x y z
#
# Youngs Moduli (GPa) = 103.60677 41.20850 101.20805
#
# Poissons Ratio (x) = 0.26387 0.20797
# Poissons Ratio (y) = 0.66341 0.49882
# Poissons Ratio (z) = 0.21290 0.20310
#
# Static dielectric constant tensor:
#      x y z
#    x 1.719820 0.000000 0.000000 
#    y 0.000000 1.651260 0.000000 
#    z 0.000000 0.000000 1.635100 
# 
# From -- ./inp_files/28463.got.cif
#   From: 2010.05.17/outbox.cif.g08.bks.cpg/sg43_15_cif.got.tgz:28463.got - 2010.06.03 19:21:55.
