data_PCOD9370358
_publ_section_title
;
Structure prediction by ZEFSAII (Michael W. Deem and Ramdas Pophale) SiO2 
 PCOD9370358
Probable space group: F D D 2
;
_chemical_formula_sum "Si O2"
_cell_formula_units_Z 88
_cell_length_a 19.114369
_cell_length_b 26.011448
_cell_length_c 8.524642
_cell_angle_alpha 90.000000
_cell_angle_beta 90.000000
_cell_angle_gamma 90.000000
_cell_volume 4238.387346
_symmetry_space_group_name_H-M "F D D 2"
_symmetry_group_IT_number 43
_symmetry_cell_setting 'orthorhombic'
loop_
_space_group_symop_operation_xyz
x,y,z
-x,-y,z
1/4-x,1/4+y,1/4+z
1/4+x,1/4-y,1/4+z
x,1/2+y,1/2+z
-x,1/2-y,1/2+z
1/4-x,3/4+y,3/4+z
1/4+x,3/4-y,3/4+z
1/2+x,y,1/2+z
1/2-x,-y,1/2+z
3/4-x,1/4+y,3/4+z
3/4+x,1/4-y,3/4+z
1/2+x,1/2+y,z
1/2-x,1/2-y,z
3/4-x,3/4+y,1/4+z
3/4+x,3/4-y,1/4+z
loop_
_atom_site_type_symbol
_atom_site_label
_atom_site_fract_x
_atom_site_fract_y
_atom_site_fract_z
Si Si1 0.887914 0.319416 0.898590
Si Si2 0.640494 0.275749 0.694273
Si Si3 0.387917 0.680583 0.013836
Si Si4 0.390494 0.525746 0.468155
Si Si5 0.250000 0.750000 0.456216
Si Si6 0.981133 0.249997 0.456212
O O1 0.848505 0.277914 0.788445
O O2 0.874994 0.374999 0.831214
O O3 0.966825 0.296099 0.904720
O O4 0.863427 0.316512 0.079087
O O5 0.700548 0.283399 0.567683
O O6 0.569115 0.268921 0.595843
O O7 0.636574 0.316516 0.833340
O O8 0.348502 0.722082 0.123983
O O9 0.466823 0.703907 0.007700
O O10 0.450547 0.533398 0.594747
O O11 0.319115 0.518916 0.566583
#
# Coordination Sequence:
#
# PCOD9370358 Si02
#       6
#    16  16  16  16   8  16
#     4  10  19  35  61  97 114 155 213 269 303 374
#     4   9  20  40  61  83 127 173 200 252 326 381
#     4  10  19  35  61  97 114 155 213 269 303 374
#     4   9  20  40  61  83 127 173 200 252 326 381
#     4  10  20  42  56  84 124 176 196 254 320 368
#     4   9  18  41  64  83 124 171 204 252 322 383
#
# _framework density 20.762613999999999
#
# number of rings (size 3 to 8) (size 9 to 14) (size 15 to 20)
#    0.000    2.909    0.000    4.364    0.000    2.909 
#   19.636    3.636    0.000    0.000    0.000    0.000 
#    0.000    0.000    0.000    0.000    0.000    0.000 
#
# Total GULP energy -122750.234068 kJ/mol
# GULP energy per Si atom -5579.556094 kJ/mol
# Density = 2.071536 g / cm^3
# Si number density = 20.762614 Si / 1000 Ang^3
#
#
#
# Elastic Constant Matrix: (Units=GPa)
#
#
# Indices 1 2 3 4 5 6 
#
# 1 121.0138 38.4363 78.0534 0.0000 0.0000 0.0000
# 2 38.4363 126.3432 71.7963 0.0000 0.0000 0.0000
# 3 78.0534 71.7963 189.0608 0.0000 0.0000 0.0000
# 4 0.0000 0.0000 0.0000 36.9525 0.0000 0.0000
# 5 0.0000 0.0000 0.0000 0.0000 34.8660 0.0000
# 6 0.0000 0.0000 0.0000 0.0000 0.0000 -5.9321
#
#
#
# Elastic Compliance Matrix: (Units=1/GPa)
#
#
# Indices 1 2 3 4 5 6 
#
# 1 0.011363 -0.001009 -0.004308 0.000000 0.000000 0.000000
# 2 -0.001009 0.010183 -0.003450 0.000000 0.000000 0.000000
# 3 -0.004308 -0.003450 0.008378 0.000000 0.000000 0.000000
# 4 0.000000 0.000000 0.000000 0.027062 0.000000 0.000000
# 5 0.000000 0.000000 0.000000 0.000000 0.028681 0.000000
# 6 0.000000 0.000000 0.000000 0.000000 0.000000 -0.168573
#
#
# Mechanical properties :
#
#
# Convention : Reuss Voigt Hill
#
# Bulk Modulus (GPa) = 80.71595 90.33221 85.52408
# Shear Modulus (GPa) = -81.64131 29.71939 -25.96096
#
# Velocity S-wave (km/s) = -6.27747 3.78748 -3.53989
# Velocity P-wave (km/s) = 3.68541 7.92012 4.95712
#
# Compressibility (1/GPa) = 0.01238913
#
# Stress axis : x y z
#
# Youngs Moduli (GPa) = 88.00878 98.20706 119.35824
#
# Poissons Ratio (x) = 0.09906 0.51419
# Poissons Ratio (y) = 0.08877 0.41184
# Poissons Ratio (z) = 0.37914 0.33886
#
# Static dielectric constant tensor:
#      x y z
#    x 1.800430 0.000000 0.000000 
#    y 0.000000 1.697270 0.000000 
#    z 0.000000 0.000000 1.785450 
# 
# From -- ./inp_files/3226.got.cif
#   From: 2010.05.17/outbox.cif.g08.bks.cpg/sg43_2_cif.got.tgz:3226.got - 2010.06.03 19:21:55.
