data_PCOD9370634
_publ_section_title
;
Structure prediction by ZEFSAII (Michael W. Deem and Ramdas Pophale) SiO2 
 PCOD9370634
Probable space group: F D D 2
;
_chemical_formula_sum "Si O2"
_cell_formula_units_Z 64
_cell_length_a 12.262056
_cell_length_b 14.950916
_cell_length_c 12.524102
_cell_angle_alpha 90.000000
_cell_angle_beta 90.000000
_cell_angle_gamma 90.000000
_cell_volume 2296.030710
_symmetry_space_group_name_H-M "F D D 2"
_symmetry_group_IT_number 43
_symmetry_cell_setting 'orthorhombic'
loop_
_space_group_symop_operation_xyz
x,y,z
-x,-y,z
1/4-x,1/4+y,1/4+z
1/4+x,1/4-y,1/4+z
x,1/2+y,1/2+z
-x,1/2-y,1/2+z
1/4-x,3/4+y,3/4+z
1/4+x,3/4-y,3/4+z
1/2+x,y,1/2+z
1/2-x,-y,1/2+z
3/4-x,1/4+y,3/4+z
3/4+x,1/4-y,3/4+z
1/2+x,1/2+y,z
1/2-x,1/2-y,z
3/4-x,3/4+y,1/4+z
3/4+x,3/4-y,1/4+z
loop_
_atom_site_type_symbol
_atom_site_label
_atom_site_fract_x
_atom_site_fract_y
_atom_site_fract_z
Si Si1 0.250000 0.250000 0.647550
Si Si2 0.750000 0.750000 0.916576
Si Si3 0.634329 0.661925 0.462748
Si Si4 0.573159 0.616475 0.859384
Si Si5 0.858913 0.557169 0.473884
O O1 0.348643 0.278009 0.567420
O O2 0.209781 0.336584 0.712773
O O3 0.708110 0.830145 0.993248
O O4 0.639715 0.707929 0.865804
O O5 0.749037 0.610615 0.457028
O O6 0.620938 0.710596 0.349788
O O7 0.463394 0.611980 0.930748
O O8 0.641446 0.534594 0.909619
#
# Coordination Sequence:
#
# PCOD9370634 Si02
#       5
#     8   8  16  16  16
#     4  10  22  41  68  99 132 174 224 280 334 401
#     4  10  22  41  68  97 136 176 224 276 336 399
#     4  10  20  38  66  95 132 175 225 273 332 401
#     4  10  20  37  64  96 130 173 222 275 328 397
#     4   9  18  36  62  96 128 175 223 270 325 408
#
# _framework density 27.874189999999999
#
# number of rings (size 3 to 8) (size 9 to 14) (size 15 to 20)
#    0.000    2.500    0.000    4.500    0.000    4.000 
#    0.000   15.000    0.000   21.000    0.000    3.500 
#    0.000    0.000    0.000    0.000    0.000    0.000 
#
# Total GULP energy -89803.118766 kJ/mol
# GULP energy per Si atom -5612.694923 kJ/mol
# Density = 2.781075 g / cm^3
# Si number density = 27.874190 Si / 1000 Ang^3
#
#
#
# Elastic Constant Matrix: (Units=GPa)
#
#
# Indices 1 2 3 4 5 6 
#
# 1 109.1029 39.8393 32.2456 0.0000 0.0000 0.0000
# 2 39.8393 87.2909 44.1477 0.0000 0.0000 0.0000
# 3 32.2456 44.1477 91.8917 0.0000 0.0000 0.0000
# 4 0.0000 0.0000 0.0000 45.0202 0.0000 0.0000
# 5 0.0000 0.0000 0.0000 0.0000 28.5879 0.0000
# 6 0.0000 0.0000 0.0000 0.0000 0.0000 76.5121
#
#
#
# Elastic Compliance Matrix: (Units=1/GPa)
#
#
# Indices 1 2 3 4 5 6 
#
# 1 0.011259 -0.004148 -0.001958 0.000000 0.000000 0.000000
# 2 -0.004148 0.016661 -0.006549 0.000000 0.000000 0.000000
# 3 -0.001958 -0.006549 0.014716 0.000000 0.000000 0.000000
# 4 0.000000 0.000000 0.000000 0.022212 0.000000 0.000000
# 5 0.000000 0.000000 0.000000 0.000000 0.034980 0.000000
# 6 0.000000 0.000000 0.000000 0.000000 0.000000 0.013070
#
#
# Mechanical properties :
#
#
# Convention : Reuss Voigt Hill
#
# Bulk Modulus (GPa) = 57.71755 57.86120 57.78937
# Shear Modulus (GPa) = 34.72607 41.49424 38.11016
#
# Velocity S-wave (km/s) = 3.53344 3.86246 3.70161
# Velocity P-wave (km/s) = 6.11542 6.37922 6.24871
#
# Compressibility (1/GPa) = 0.01732575
#
# Stress axis : x y z
#
# Youngs Moduli (GPa) = 88.81683 60.01879 67.95434
#
# Poissons Ratio (x) = 0.24898 0.13305
# Poissons Ratio (y) = 0.36845 0.44503
# Poissons Ratio (z) = 0.17389 0.39306
#
# Static dielectric constant tensor:
#      x y z
#    x 2.234760 0.000000 0.000000 
#    y 0.000000 2.218200 0.000000 
#    z 0.000000 0.000000 2.249800 
# 
# From -- ./inp_files/9410.got.cif
#   From: 2010.05.17/outbox.cif.g08.bks.cpg/sg43_5_cif.got.tgz:9410.got - 2010.06.03 19:21:55.
