data_PCOD9370616
_publ_section_title
;
Structure prediction by ZEFSAII (Michael W. Deem and Ramdas Pophale) SiO2 
 PCOD9370616
Probable space group: F D D 2
;
_chemical_formula_sum "Si O2"
_cell_formula_units_Z 128
_cell_length_a 10.229224
_cell_length_b 25.643558
_cell_length_c 21.709064
_cell_angle_alpha 90.000000
_cell_angle_beta 90.000000
_cell_angle_gamma 90.000000
_cell_volume 5694.584878
_symmetry_space_group_name_H-M "F D D 2"
_symmetry_group_IT_number 43
_symmetry_cell_setting 'orthorhombic'
loop_
_space_group_symop_operation_xyz
x,y,z
-x,-y,z
1/4-x,1/4+y,1/4+z
1/4+x,1/4-y,1/4+z
x,1/2+y,1/2+z
-x,1/2-y,1/2+z
1/4-x,3/4+y,3/4+z
1/4+x,3/4-y,3/4+z
1/2+x,y,1/2+z
1/2-x,-y,1/2+z
3/4-x,1/4+y,3/4+z
3/4+x,1/4-y,3/4+z
1/2+x,1/2+y,z
1/2-x,1/2-y,z
3/4-x,3/4+y,1/4+z
3/4+x,3/4-y,1/4+z
loop_
_atom_site_type_symbol
_atom_site_label
_atom_site_fract_x
_atom_site_fract_y
_atom_site_fract_z
Si Si1 0.145291 0.389106 0.298830
Si Si2 0.244593 0.935409 0.001831
Si Si3 0.895291 0.639106 0.101653
Si Si4 0.693907 0.045491 0.467107
Si Si5 0.279963 0.841633 0.231114
Si Si6 0.720037 0.841633 0.419369
Si Si7 0.056093 0.204509 0.933376
Si Si8 0.755407 0.435409 0.148652
O O1 0.139049 0.335986 0.258227
O O2 0.232155 0.377592 0.358332
O O3 0.181720 0.435704 0.253476
O O4 0.000000 0.398385 0.325241
O O5 0.392819 0.937190 0.975268
O O6 0.192565 0.880759 0.975726
O O7 0.165386 0.985208 0.977756
O O8 0.250000 0.937415 0.075241
O O9 0.931720 0.685704 0.147007
O O10 0.889049 0.585986 0.142256
O O11 0.982155 0.627592 0.042151
O O12 0.843779 0.055634 0.488680
O O13 0.307435 0.880759 0.174756
O O14 0.593779 0.805634 0.411803
O O15 0.857181 0.812810 0.425215
O O16 0.084614 0.264792 0.922726
#
# Coordination Sequence:
#
# PCOD9370616 Si02
#       8
#    16  16  16  16  16  16  16  16
#     4   9  19  38  58  83 117 146 181 233 287 341
#     4  11  22  36  57  82 110 150 194 234 282 336
#     4   9  19  38  58  83 117 146 181 233 287 341
#     4  10  20  37  60  83 112 148 185 231 285 343
#     4  10  21  37  56  81 114 146 187 237 280 337
#     4  10  21  37  56  81 114 146 187 237 280 337
#     4  10  20  37  60  83 112 148 185 231 285 343
#     4  11  22  36  57  82 110 150 194 234 282 336
#
# _framework density 22.477495999999999
#
# number of rings (size 3 to 8) (size 9 to 14) (size 15 to 20)
#    0.000    2.000    0.000    4.500    0.000    1.000 
#    0.000   22.500    0.000    4.500    0.000    0.000 
#    0.000    0.000    0.000    0.000    0.000    0.000 
#
# Total GULP energy -178975.407056 kJ/mol
# GULP energy per Si atom -5592.981471 kJ/mol
# Density = 2.242634 g / cm^3
# Si number density = 22.477496 Si / 1000 Ang^3
#
#
#
# Elastic Constant Matrix: (Units=GPa)
#
#
# Indices 1 2 3 4 5 6 
#
# 1 50.3890 3.6213 -8.4002 0.0000 0.0000 0.0000
# 2 3.6213 111.9985 45.1582 0.0000 0.0000 0.0000
# 3 -8.4002 45.1582 101.9280 0.0000 0.0000 0.0000
# 4 0.0000 0.0000 0.0000 11.1539 0.0000 0.0000
# 5 0.0000 0.0000 0.0000 0.0000 28.3739 0.0000
# 6 0.0000 0.0000 0.0000 0.0000 0.0000 21.6628
#
#
#
# Elastic Compliance Matrix: (Units=1/GPa)
#
#
# Indices 1 2 3 4 5 6 
#
# 1 0.020362 -0.001625 0.002398 0.000000 0.000000 0.000000
# 2 -0.001625 0.011000 -0.005008 0.000000 0.000000 0.000000
# 3 0.002398 -0.005008 0.012227 0.000000 0.000000 0.000000
# 4 0.000000 0.000000 0.000000 0.089655 0.000000 0.000000
# 5 0.000000 0.000000 0.000000 0.000000 0.035244 0.000000
# 6 0.000000 0.000000 0.000000 0.000000 0.000000 0.046162
#
#
# Mechanical properties :
#
#
# Convention : Reuss Voigt Hill
#
# Bulk Modulus (GPa) = 28.47365 38.34155 33.40760
# Shear Modulus (GPa) = 21.29233 27.16720 24.22976
#
# Velocity S-wave (km/s) = 3.08112 3.48032 3.28679
# Velocity P-wave (km/s) = 5.03516 5.76584 5.41285
#
# Compressibility (1/GPa) = 0.03512020
#
# Stress axis : x y z
#
# Youngs Moduli (GPa) = 49.11063 90.90670 81.78611
#
# Poissons Ratio (x) = 0.14775 -0.19614
# Poissons Ratio (y) = 0.07982 0.40955
# Poissons Ratio (z) = -0.11778 0.45522
#
# Static dielectric constant tensor:
#      x y z
#    x 1.880570 0.000000 0.000000 
#    y 0.000000 1.801500 0.000000 
#    z 0.000000 0.000000 1.815200 
# 
# From -- ./inp_files/21325.got.cif
#   From: 2010.05.17/outbox.cif.g08.bks.cpg/sg43_11_cif.got.tgz:21325.got - 2010.06.03 19:21:55.
