data_PCOD9370716
_publ_section_title
;
Structure prediction by ZEFSAII (Michael W. Deem and Ramdas Pophale) SiO2 
 PCOD9370716
Probable space group: F D D 2
;
_chemical_formula_sum "Si O2"
_cell_formula_units_Z 72
_cell_length_a 13.662883
_cell_length_b 7.294073
_cell_length_c 31.573521
_cell_angle_alpha 90.000000
_cell_angle_beta 90.000000
_cell_angle_gamma 90.000000
_cell_volume 3146.556039
_symmetry_space_group_name_H-M "F D D 2"
_symmetry_group_IT_number 43
_symmetry_cell_setting 'orthorhombic'
loop_
_space_group_symop_operation_xyz
x,y,z
-x,-y,z
1/4-x,1/4+y,1/4+z
1/4+x,1/4-y,1/4+z
x,1/2+y,1/2+z
-x,1/2-y,1/2+z
1/4-x,3/4+y,3/4+z
1/4+x,3/4-y,3/4+z
1/2+x,y,1/2+z
1/2-x,-y,1/2+z
3/4-x,1/4+y,3/4+z
3/4+x,1/4-y,3/4+z
1/2+x,1/2+y,z
1/2-x,1/2-y,z
3/4-x,3/4+y,1/4+z
3/4+x,3/4-y,1/4+z
loop_
_atom_site_type_symbol
_atom_site_label
_atom_site_fract_x
_atom_site_fract_y
_atom_site_fract_z
Si Si1 0.890833 0.923921 0.952110
Si Si2 0.250000 0.250000 0.475584
Si Si3 0.881916 0.216073 0.050406
Si Si4 0.635610 0.957470 0.290096
Si Si5 0.381958 0.010243 0.111806
O O1 0.901526 0.824988 0.907433
O O2 0.808559 0.087986 0.951048
O O3 0.862253 0.785888 0.990191
O O4 0.000000 0.000000 0.963021
O O5 0.167852 0.187458 0.509814
O O6 0.853067 0.313690 0.093634
O O7 0.997595 0.229876 0.044284
O O8 0.858564 0.001733 0.051044
O O9 0.599208 0.098795 0.325035
O O10 0.500000 0.000000 0.114708
#
# Coordination Sequence:
#
# PCOD9370716 Si02
#       5
#    16   8  16  16  16
#     4  11  22  40  64  98 135 176 226 286 342 414
#     4  10  20  38  68  92 126 182 230 274 360 414
#     4   9  18  38  64  88 119 173 219 266 338 414
#     4   9  18  41  65  81 130 169 208 281 341 396
#     4  10  23  38  63  96 128 169 226 272 340 410
#
# _framework density 22.882161
#
# number of rings (size 3 to 8) (size 9 to 14) (size 15 to 20)
#    0.000    2.222    4.444    0.000    0.000    8.889 
#    0.000    2.222    7.333    0.000    0.000    0.000 
#    0.000    0.000    0.000    0.000    0.000    0.000 
#
# Total GULP energy -100426.855455 kJ/mol
# GULP energy per Si atom -5579.269747 kJ/mol
# Density = 2.283008 g / cm^3
# Si number density = 22.882161 Si / 1000 Ang^3
#
#
#
# Elastic Constant Matrix: (Units=GPa)
#
#
# Indices 1 2 3 4 5 6 
#
# 1 123.9151 24.8262 3.2950 0.0000 0.0000 0.0000
# 2 24.8262 51.8602 65.5904 0.0000 0.0000 0.0000
# 3 3.2950 65.5904 185.9545 0.0000 0.0000 0.0000
# 4 0.0000 0.0000 0.0000 805.9974 0.0000 0.0000
# 5 0.0000 0.0000 0.0000 0.0000 20.8735 0.0000
# 6 0.0000 0.0000 0.0000 0.0000 0.0000 27.7462
#
#
#
# Elastic Compliance Matrix: (Units=1/GPa)
#
#
# Indices 1 2 3 4 5 6 
#
# 1 0.009582 -0.007894 0.002615 0.000000 0.000000 0.000000
# 2 -0.007894 0.041316 -0.014433 0.000000 0.000000 0.000000
# 3 0.002615 -0.014433 0.010422 0.000000 0.000000 0.000000
# 4 0.000000 0.000000 0.000000 0.001241 0.000000 0.000000
# 5 0.000000 0.000000 0.000000 0.000000 0.047908 0.000000
# 6 0.000000 0.000000 0.000000 0.000000 0.000000 0.036041
#
#
# Mechanical properties :
#
#
# Convention : Reuss Voigt Hill
#
# Bulk Modulus (GPa) = 45.67190 61.01700 53.34445
# Shear Modulus (GPa) = 25.87552 188.79129 107.33341
#
# Velocity S-wave (km/s) = 3.36641 9.09313 6.85630
# Velocity P-wave (km/s) = 5.92564 11.70343 9.27587
#
# Compressibility (1/GPa) = 0.02189530
#
# Stress axis : x y z
#
# Youngs Moduli (GPa) = 104.36208 24.20373 95.94850
#
# Poissons Ratio (x) = 0.19106 -0.25086
# Poissons Ratio (y) = 0.82381 1.38485
# Poissons Ratio (z) = -0.27286 0.34934
#
# Static dielectric constant tensor:
#      x y z
#    x 1.940990 0.000000 0.000000 
#    y 0.000000 1.654660 0.000000 
#    z 0.000000 0.000000 1.850580 
# 
# From -- ./inp_files/25493.got.cif
#   From: 2010.05.17/outbox.cif.g08.bks.cpg/sg43_13_cif.got.tgz:25493.got - 2010.06.03 19:21:55.
