data_PCOD9370272
_publ_section_title
;
Structure prediction by ZEFSAII (Michael W. Deem and Ramdas Pophale) SiO2 
 PCOD9370272
Probable space group: F D D 2
;
_chemical_formula_sum "Si O2"
_cell_formula_units_Z 96
_cell_length_a 21.615327
_cell_length_b 10.974330
_cell_length_c 18.624395
_cell_angle_alpha 90.000000
_cell_angle_beta 90.000000
_cell_angle_gamma 90.000000
_cell_volume 4417.962236
_symmetry_space_group_name_H-M "F D D 2"
_symmetry_group_IT_number 43
_symmetry_cell_setting 'orthorhombic'
loop_
_space_group_symop_operation_xyz
x,y,z
-x,-y,z
1/4-x,1/4+y,1/4+z
1/4+x,1/4-y,1/4+z
x,1/2+y,1/2+z
-x,1/2-y,1/2+z
1/4-x,3/4+y,3/4+z
1/4+x,3/4-y,3/4+z
1/2+x,y,1/2+z
1/2-x,-y,1/2+z
3/4-x,1/4+y,3/4+z
3/4+x,1/4-y,3/4+z
1/2+x,1/2+y,z
1/2-x,1/2-y,z
3/4-x,3/4+y,1/4+z
3/4+x,3/4-y,1/4+z
loop_
_atom_site_type_symbol
_atom_site_label
_atom_site_fract_x
_atom_site_fract_y
_atom_site_fract_z
Si Si1 0.007486 0.853481 0.879060
Si Si2 0.662103 0.524453 0.004581
Si Si3 0.026418 0.364682 0.686289
Si Si4 0.425413 0.987253 0.174076
Si Si5 0.356202 0.517437 0.532510
Si Si6 0.458865 0.122552 0.527928
O O1 0.068293 0.820197 0.833369
O O2 0.949773 0.799210 0.836960
O O3 0.014169 0.806806 0.960086
O O4 0.000000 0.000000 0.880163
O O5 0.608714 0.425918 0.008421
O O6 0.722378 0.467876 0.968254
O O7 0.644801 0.641507 0.957924
O O8 0.086042 0.350223 0.736654
O O9 0.040207 0.319268 0.605960
O O10 0.000000 0.500000 0.686090
O O11 0.397242 0.875659 0.221970
O O12 0.500000 0.000000 0.186937
O O13 0.411288 0.991199 0.088606
O O14 0.500000 0.000000 0.534962
#
# Coordination Sequence:
#
# PCOD9370272 Si02
#       6
#    16  16  16  16  16  16
#     4  10  18  40  61  96 127 161 223 276 334 391
#     4  11  22  39  70  91 133 174 215 297 334 404
#     4  10  24  45  62  94 140 179 225 278 347 412
#     4  12  23  45  75 104 137 181 234 289 359 416
#     4  11  24  44  69 101 140 182 224 292 342 424
#     4  10  23  36  62  98 123 173 228 267 336 411
#
# _framework density 21.729475000000001
#
# number of rings (size 3 to 8) (size 9 to 14) (size 15 to 20)
#    0.000    1.333    5.000    2.000    4.667    2.667 
#    0.000    2.500    0.000    0.000    0.000    0.000 
#    0.000    0.000    0.000    0.000    0.000    0.000 
#
# Total GULP energy -133990.118889 kJ/mol
# GULP energy per Si atom -5582.921620 kJ/mol
# Density = 2.168002 g / cm^3
# Si number density = 21.729475 Si / 1000 Ang^3
#
#
#
# Elastic Constant Matrix: (Units=GPa)
#
#
# Indices 1 2 3 4 5 6 
#
# 1 56.1470 0.4267 30.5975 0.0000 0.0000 0.0000
# 2 0.4267 62.6497 34.9980 0.0000 0.0000 0.0000
# 3 30.5975 34.9980 179.6862 0.0000 0.0000 0.0000
# 4 0.0000 0.0000 0.0000 9.0591 0.0000 0.0000
# 5 0.0000 0.0000 0.0000 0.0000 40.5364 0.0000
# 6 0.0000 0.0000 0.0000 0.0000 0.0000 7.0573
#
#
#
# Elastic Compliance Matrix: (Units=1/GPa)
#
#
# Indices 1 2 3 4 5 6 
#
# 1 0.019846 0.001967 -0.003762 0.000000 0.000000 0.000000
# 2 0.001967 0.018105 -0.003861 0.000000 0.000000 0.000000
# 3 -0.003762 -0.003861 0.006958 0.000000 0.000000 0.000000
# 4 0.000000 0.000000 0.000000 0.110386 0.000000 0.000000
# 5 0.000000 0.000000 0.000000 0.000000 0.024669 0.000000
# 6 0.000000 0.000000 0.000000 0.000000 0.000000 0.141697
#
#
# Mechanical properties :
#
#
# Convention : Reuss Voigt Hill
#
# Bulk Modulus (GPa) = 29.76636 47.83638 38.80137
# Shear Modulus (GPa) = 14.52751 26.82794 20.67773
#
# Velocity S-wave (km/s) = 2.58846 3.51755 3.08815
# Velocity P-wave (km/s) = 4.76045 6.20966 5.53271
#
# Compressibility (1/GPa) = 0.03359497
#
# Stress axis : x y z
#
# Youngs Moduli (GPa) = 50.38850 55.23206 143.71894
#
# Poissons Ratio (x) = -0.10862 0.54074
# Poissons Ratio (y) = -0.09910 0.55495
# Poissons Ratio (z) = 0.18958 0.21327
#
# Static dielectric constant tensor:
#      x y z
#    x 1.808150 0.000000 0.000000 
#    y 0.000000 1.819570 0.000000 
#    z 0.000000 0.000000 1.840560 
# 
# From -- ./inp_files/13301.got.cif
#   From: 2010.05.17/outbox.cif.g08.bks.cpg/sg43_7_cif.got.tgz:13301.got - 2010.06.03 19:21:55.
