data_PCOD9370795
_publ_section_title
;
Structure prediction by ZEFSAII (Michael W. Deem and Ramdas Pophale) SiO2 
 PCOD9370795
Probable space group: F D D 2
;
_chemical_formula_sum "Si O2"
_cell_formula_units_Z 72
_cell_length_a 7.513198
_cell_length_b 14.339110
_cell_length_c 30.220803
_cell_angle_alpha 90.000000
_cell_angle_beta 90.000000
_cell_angle_gamma 90.000000
_cell_volume 3255.764852
_symmetry_space_group_name_H-M "F D D 2"
_symmetry_group_IT_number 43
_symmetry_cell_setting 'orthorhombic'
loop_
_space_group_symop_operation_xyz
x,y,z
-x,-y,z
1/4-x,1/4+y,1/4+z
1/4+x,1/4-y,1/4+z
x,1/2+y,1/2+z
-x,1/2-y,1/2+z
1/4-x,3/4+y,3/4+z
1/4+x,3/4-y,3/4+z
1/2+x,y,1/2+z
1/2-x,-y,1/2+z
3/4-x,1/4+y,3/4+z
3/4+x,1/4-y,3/4+z
1/2+x,1/2+y,z
1/2-x,1/2-y,z
3/4-x,3/4+y,1/4+z
3/4+x,3/4-y,1/4+z
loop_
_atom_site_type_symbol
_atom_site_label
_atom_site_fract_x
_atom_site_fract_y
_atom_site_fract_z
Si Si1 0.750000 0.750000 0.924690
Si Si2 0.759655 0.603465 0.344362
Si Si3 0.414561 0.132480 0.095414
Si Si4 0.220098 0.636022 0.027306
Si Si5 0.364748 0.084615 0.685835
O O1 0.789594 0.835882 0.892026
O O2 0.573957 0.787226 0.948938
O O3 0.196997 0.506647 0.345482
O O4 0.647312 0.640892 0.303174
O O5 0.636228 0.618447 0.387911
O O6 0.957795 0.644799 0.340851
O O7 0.552325 0.104966 0.056928
O O8 0.250000 0.750000 0.025939
O O9 0.185406 0.605517 0.977085
O O10 0.500000 0.000000 0.680398
#
# Coordination Sequence:
#
# PCOD9370795 Si02
#       5
#     8  16  16  16  16
#     4  12  22  36  64  92 122 158 204 256 314 358
#     4  10  20  40  64  83 122 162 202 246 310 368
#     4  10  21  38  63  87 118 162 201 249 308 367
#     4   9  20  37  60  89 120 158 202 246 307 363
#     4  11  22  37  64  92 125 159 206 256 306 369
#
# _framework density 22.114619000000001
#
# number of rings (size 3 to 8) (size 9 to 14) (size 15 to 20)
#    0.000    1.778    4.444    0.000    0.000    5.333 
#    0.000    2.222    9.778    0.000    0.000    0.000 
#    0.000    0.000    0.000    0.000    0.000    0.000 
#
# Total GULP energy -100294.468993 kJ/mol
# GULP energy per Si atom -5571.914944 kJ/mol
# Density = 2.206429 g / cm^3
# Si number density = 22.114619 Si / 1000 Ang^3
#
#
#
# Elastic Constant Matrix: (Units=GPa)
#
#
# Indices 1 2 3 4 5 6 
#
# 1 152.5290 10.8188 41.8654 0.0000 0.0000 0.0000
# 2 10.8188 37.2705 -10.0916 0.0000 0.0000 0.0000
# 3 41.8654 -10.0916 84.2157 0.0000 0.0000 0.0000
# 4 0.0000 0.0000 0.0000 29.6987 0.0000 0.0000
# 5 0.0000 0.0000 0.0000 0.0000 126.0552 0.0000
# 6 0.0000 0.0000 0.0000 0.0000 0.0000 21.6331
#
#
#
# Elastic Compliance Matrix: (Units=1/GPa)
#
#
# Indices 1 2 3 4 5 6 
#
# 1 0.008015 -0.003520 -0.004406 0.000000 0.000000 0.000000
# 2 -0.003520 0.029276 0.005258 0.000000 0.000000 0.000000
# 3 -0.004406 0.005258 0.014695 0.000000 0.000000 0.000000
# 4 0.000000 0.000000 0.000000 0.033671 0.000000 0.000000
# 5 0.000000 0.000000 0.000000 0.000000 0.007933 0.000000
# 6 0.000000 0.000000 0.000000 0.000000 0.000000 0.046225
#
#
# Mechanical properties :
#
#
# Convention : Reuss Voigt Hill
#
# Bulk Modulus (GPa) = 21.43622 39.91114 30.67368
# Shear Modulus (GPa) = 31.11341 50.90558 41.00949
#
# Velocity S-wave (km/s) = 3.75496 4.80301 4.31095
# Velocity P-wave (km/s) = 5.33984 6.98893 6.21929
#
# Compressibility (1/GPa) = 0.04665002
#
# Stress axis : x y z
#
# Youngs Moduli (GPa) = 124.76296 34.15742 68.05133
#
# Poissons Ratio (x) = 0.12022 0.29985
# Poissons Ratio (y) = 0.43913 -0.35781
# Poissons Ratio (z) = 0.54974 -0.17960
#
# Static dielectric constant tensor:
#      x y z
#    x 1.704500 0.000000 0.000000 
#    y 0.000000 1.847960 0.000000 
#    z 0.000000 0.000000 1.865420 
# 
# From -- ./inp_files/19494.got.cif
#   From: 2010.05.17/outbox.cif.g08.bks.cpg/sg43_10_cif.got.tgz:19494.got - 2010.06.03 19:21:55.
