data_PCOD9370677
_publ_section_title
;
Structure prediction by ZEFSAII (Michael W. Deem and Ramdas Pophale) SiO2 
 PCOD9370677
Probable space group: F D D 2
;
_chemical_formula_sum "Si O2"
_cell_formula_units_Z 88
_cell_length_a 29.219365
_cell_length_b 18.966232
_cell_length_c 7.136052
_cell_angle_alpha 90.000000
_cell_angle_beta 90.000000
_cell_angle_gamma 90.000000
_cell_volume 3954.666257
_symmetry_space_group_name_H-M "F D D 2"
_symmetry_group_IT_number 43
_symmetry_cell_setting 'orthorhombic'
loop_
_space_group_symop_operation_xyz
x,y,z
-x,-y,z
1/4-x,1/4+y,1/4+z
1/4+x,1/4-y,1/4+z
x,1/2+y,1/2+z
-x,1/2-y,1/2+z
1/4-x,3/4+y,3/4+z
1/4+x,3/4-y,3/4+z
1/2+x,y,1/2+z
1/2-x,-y,1/2+z
3/4-x,1/4+y,3/4+z
3/4+x,1/4-y,3/4+z
1/2+x,1/2+y,z
1/2-x,1/2-y,z
3/4-x,3/4+y,1/4+z
3/4+x,3/4-y,1/4+z
loop_
_atom_site_type_symbol
_atom_site_label
_atom_site_fract_x
_atom_site_fract_y
_atom_site_fract_z
Si Si1 0.000000 0.500000 0.703280
Si Si2 0.875983 0.819918 0.115287
Si Si3 0.244381 0.587065 0.576434
Si Si4 0.427319 0.937003 0.409923
Si Si5 0.300070 0.467101 0.730829
Si Si6 0.933265 0.114370 0.181817
O O1 0.038591 0.538068 0.575615
O O2 0.032604 0.439845 0.789753
O O3 0.839478 0.758533 0.059446
O O4 0.885252 0.891612 0.998180
O O5 0.923110 0.778536 0.088051
O O6 0.861836 0.834732 0.330006
O O7 0.289809 0.634178 0.548901
O O8 0.259621 0.507494 0.623371
O O9 0.217200 0.586345 0.385295
O O10 0.213208 0.612056 0.750091
O O11 0.328281 0.427029 0.571671
#
# Coordination Sequence:
#
# PCOD9370677 Si02
#       6
#     8  16  16  16  16  16
#     4   8  18  38  62  86 120 168 206 258 322 374
#     4  10  21  39  59  93 128 167 210 270 331 394
#     4  10  20  38  62  91 123 162 216 264 316 396
#     4   9  19  38  62  88 130 166 206 271 331 384
#     4  11  21  38  63  93 121 166 217 262 325 392
#     4  10  20  40  62  87 128 169 203 269 328 385
#
# _framework density 22.252195
#
# number of rings (size 3 to 8) (size 9 to 14) (size 15 to 20)
#    0.000    2.182    1.818    1.091    0.000    0.000 
#    3.273   18.182    0.000    0.000    0.000    0.000 
#    0.000    0.000    0.000    0.000    0.000    0.000 
#
# Total GULP energy -122528.793994 kJ/mol
# GULP energy per Si atom -5569.490636 kJ/mol
# Density = 2.220155 g / cm^3
# Si number density = 22.252195 Si / 1000 Ang^3
#
#
#
# Elastic Constant Matrix: (Units=GPa)
#
#
# Indices 1 2 3 4 5 6 
#
# 1 72.9868 27.1222 31.5688 0.0000 0.0000 0.0000
# 2 27.1222 94.4495 36.3639 0.0000 0.0000 0.0000
# 3 31.5688 36.3639 74.3666 -0.0001 0.0000 0.0000
# 4 0.0000 0.0000 -0.0001 21.9829 0.0000 0.0000
# 5 0.0000 0.0000 0.0000 0.0000 19.4337 0.0000
# 6 0.0000 0.0000 0.0000 0.0000 0.0000 37.3515
#
#
#
# Elastic Compliance Matrix: (Units=1/GPa)
#
#
# Indices 1 2 3 4 5 6 
#
# 1 0.017300 -0.002637 -0.006054 0.000000 0.000000 0.000000
# 2 -0.002637 0.013445 -0.005455 0.000000 0.000000 0.000000
# 3 -0.006054 -0.005455 0.018684 0.000000 0.000000 0.000000
# 4 0.000000 0.000000 0.000000 0.045490 0.000000 0.000000
# 5 0.000000 0.000000 0.000000 0.000000 0.051457 0.000000
# 6 0.000000 0.000000 0.000000 0.000000 0.000000 0.026773
#
#
# Mechanical properties :
#
#
# Convention : Reuss Voigt Hill
#
# Bulk Modulus (GPa) = 47.31119 47.99029 47.65074
# Shear Modulus (GPa) = 23.98234 25.53684 24.75959
#
# Velocity S-wave (km/s) = 3.28647 3.39131 3.33931
# Velocity P-wave (km/s) = 5.97568 6.07849 6.02730
#
# Compressibility (1/GPa) = 0.02113665
#
# Stress axis : x y z
#
# Youngs Moduli (GPa) = 57.80464 74.37658 53.52047
#
# Poissons Ratio (x) = 0.19611 0.32403
# Poissons Ratio (y) = 0.15242 0.29196
# Poissons Ratio (z) = 0.34997 0.40573
#
# Static dielectric constant tensor:
#      x y z
#    x 1.866510 0.000000 0.000000 
#    y 0.000000 1.921680 0.000000 
#    z 0.000000 0.000000 1.774630 
# 
# From -- ./inp_files/4734.got.cif
#   From: 2010.05.17/outbox.cif.g08.bks.cpg/sg43_3_cif.got.tgz:4734.got - 2010.06.03 19:21:55.
