data_PCOD9370254
_publ_section_title
;
Structure prediction by ZEFSAII (Michael W. Deem and Ramdas Pophale) SiO2 
 PCOD9370254
Probable space group: F D D 2
;
_chemical_formula_sum "Si O2"
_cell_formula_units_Z 64
_cell_length_a 9.977636
_cell_length_b 9.863603
_cell_length_c 22.251647
_cell_angle_alpha 90.000000
_cell_angle_beta 90.000000
_cell_angle_gamma 90.000000
_cell_volume 2189.905639
_symmetry_space_group_name_H-M "F D D 2"
_symmetry_group_IT_number 43
_symmetry_cell_setting 'orthorhombic'
loop_
_space_group_symop_operation_xyz
x,y,z
-x,-y,z
1/4-x,1/4+y,1/4+z
1/4+x,1/4-y,1/4+z
x,1/2+y,1/2+z
-x,1/2-y,1/2+z
1/4-x,3/4+y,3/4+z
1/4+x,3/4-y,3/4+z
1/2+x,y,1/2+z
1/2-x,-y,1/2+z
3/4-x,1/4+y,3/4+z
3/4+x,1/4-y,3/4+z
1/2+x,1/2+y,z
1/2-x,1/2-y,z
3/4-x,3/4+y,1/4+z
3/4+x,3/4-y,1/4+z
loop_
_atom_site_type_symbol
_atom_site_label
_atom_site_fract_x
_atom_site_fract_y
_atom_site_fract_z
Si Si1 0.178887 0.890339 0.535450
Si Si2 0.779847 0.049354 0.662441
Si Si3 0.408201 0.734779 0.041213
Si Si4 0.042034 0.223914 0.665104
O O1 0.250000 0.750000 0.513944
O O2 0.264140 0.929098 0.593723
O O3 0.183409 0.006112 0.484894
O O4 0.024586 0.851665 0.548118
O O5 0.892975 0.165452 0.666083
O O6 0.694672 0.063108 0.723272
O O7 0.853469 0.902627 0.659486
O O8 0.250000 0.750000 0.042919
O O9 0.435292 0.675676 0.109801
#
# Coordination Sequence:
#
# PCOD9370254 Si02
#       4
#    16  16  16  16
#     4  10  18  38  63  83 114 164 201 239 304 378
#     4   9  18  36  60  84 115 154 202 243 297 363
#     4  10  20  37  58  90 125 146 201 260 294 351
#     4   9  17  37  59  83 115 160 197 237 304 367
#
# _framework density 29.225003000000001
#
# number of rings (size 3 to 8) (size 9 to 14) (size 15 to 20)
#    0.000    2.500    5.000    0.000    0.000    0.000 
#   22.500    2.500    0.000    1.500    0.000    0.000 
#    0.000    0.000    0.000    0.000    0.000    0.000 
#
# Total GULP energy -89297.644663 kJ/mol
# GULP energy per Si atom -5581.102791 kJ/mol
# Density = 2.915849 g / cm^3
# Si number density = 29.225003 Si / 1000 Ang^3
#
#
#
# Elastic Constant Matrix: (Units=GPa)
#
#
# Indices 1 2 3 4 5 6 
#
# 1 194.4895 36.9573 81.2167 0.0000 0.0000 0.0000
# 2 36.9573 93.8784 30.3713 0.0000 0.0000 0.0000
# 3 81.2167 30.3713 356.5390 0.0000 0.0000 0.0000
# 4 0.0000 0.0000 0.0000 16.3419 0.0000 0.0000
# 5 0.0000 0.0000 0.0000 0.0000 53.8616 0.0000
# 6 0.0000 0.0000 0.0000 0.0000 0.0000 43.7185
#
#
#
# Elastic Compliance Matrix: (Units=1/GPa)
#
#
# Indices 1 2 3 4 5 6 
#
# 1 0.006020 -0.001981 -0.001203 0.000000 0.000000 0.000000
# 2 -0.001981 0.011606 -0.000537 0.000000 0.000000 0.000000
# 3 -0.001203 -0.000537 0.003124 0.000000 0.000000 0.000000
# 4 0.000000 0.000000 0.000000 0.061192 0.000000 0.000000
# 5 0.000000 0.000000 0.000000 0.000000 0.018566 0.000000
# 6 0.000000 0.000000 0.000000 0.000000 0.000000 0.022874
#
#
# Mechanical properties :
#
#
# Convention : Reuss Voigt Hill
#
# Bulk Modulus (GPa) = 75.13925 104.66638 89.90282
# Shear Modulus (GPa) = 36.96565 55.87519 46.42042
#
# Velocity S-wave (km/s) = 3.56035 4.37727 3.98977
# Velocity P-wave (km/s) = 6.53207 7.83831 7.21481
#
# Compressibility (1/GPa) = 0.01330862
#
# Stress axis : x y z
#
# Youngs Moduli (GPa) = 166.10480 86.16399 320.05458
#
# Poissons Ratio (x) = 0.17069 0.38491
# Poissons Ratio (y) = 0.32905 0.17199
# Poissons Ratio (z) = 0.19976 0.04630
#
# Static dielectric constant tensor:
#      x y z
#    x 2.232510 0.000000 0.000000 
#    y 0.000000 2.359720 0.000000 
#    z 0.000000 0.000000 2.526930 
# 
# From -- ./inp_files/13162.got.cif
#   From: 2010.05.17/outbox.cif.g08.bks.cpg/sg43_7_cif.got.tgz:13162.got - 2010.06.03 19:21:55.
