data_PCOD9370906
_publ_section_title
;
Structure prediction by ZEFSAII (Michael W. Deem and Ramdas Pophale) SiO2 
 PCOD9370906
Probable space group: F D D 2
;
_chemical_formula_sum "Si O2"
_cell_formula_units_Z 88
_cell_length_a 25.857462
_cell_length_b 16.835939
_cell_length_c 9.401629
_cell_angle_alpha 90.000000
_cell_angle_beta 90.000000
_cell_angle_gamma 90.000000
_cell_volume 4092.854898
_symmetry_space_group_name_H-M "F D D 2"
_symmetry_group_IT_number 43
_symmetry_cell_setting 'orthorhombic'
loop_
_space_group_symop_operation_xyz
x,y,z
-x,-y,z
1/4-x,1/4+y,1/4+z
1/4+x,1/4-y,1/4+z
x,1/2+y,1/2+z
-x,1/2-y,1/2+z
1/4-x,3/4+y,3/4+z
1/4+x,3/4-y,3/4+z
1/2+x,y,1/2+z
1/2-x,-y,1/2+z
3/4-x,1/4+y,3/4+z
3/4+x,1/4-y,3/4+z
1/2+x,1/2+y,z
1/2-x,1/2-y,z
3/4-x,3/4+y,1/4+z
3/4+x,3/4-y,1/4+z
loop_
_atom_site_type_symbol
_atom_site_label
_atom_site_fract_x
_atom_site_fract_y
_atom_site_fract_z
Si Si1 0.676651 0.096593 0.405570
Si Si2 0.121201 0.260963 0.906842
Si Si3 0.500000 0.500000 0.325540
Si Si4 0.535032 0.333293 0.217710
Si Si5 0.206851 0.855803 0.312823
Si Si6 0.454380 0.739729 0.922496
O O1 0.639130 0.171449 0.383452
O O2 0.662607 0.026880 0.296197
O O3 0.735577 0.123267 0.367994
O O4 0.672365 0.064366 0.565279
O O5 0.089903 0.301100 0.776588
O O6 0.173404 0.311629 0.928872
O O7 0.526529 0.426978 0.243830
O O8 0.460975 0.455541 0.432385
O O9 0.495800 0.283019 0.318507
O O10 0.525769 0.313092 0.053353
O O11 0.180190 0.935466 0.255240
#
# Coordination Sequence:
#
# PCOD9370906 Si02
#       6
#    16  16   8  16  16  16
#     4  12  25  43  69 106 134 191 231 293 350 424
#     4  12  23  43  72 100 138 182 239 280 355 422
#     4  10  20  42  66 102 138 176 238 278 358 412
#     4  11  22  43  70  98 135 190 220 298 345 422
#     4  11  21  43  70  97 137 183 231 286 353 421
#     4  11  23  44  65  96 139 178 231 286 356 403
#
# _framework density 21.500883000000002
#
# number of rings (size 3 to 8) (size 9 to 14) (size 15 to 20)
#    0.000    0.727    7.273    1.091    0.000    1.455 
#    3.273    5.455    0.000    0.000    0.000    0.000 
#    0.000    0.000    0.000    0.000    0.000    0.000 
#
# Total GULP energy -122800.895181 kJ/mol
# GULP energy per Si atom -5581.858872 kJ/mol
# Density = 2.145195 g / cm^3
# Si number density = 21.500883 Si / 1000 Ang^3
#
#
#
# Elastic Constant Matrix: (Units=GPa)
#
#
# Indices 1 2 3 4 5 6 
#
# 1 44.7940 23.5845 2.6665 0.0000 0.0000 0.0000
# 2 23.5845 155.4112 46.1713 0.0000 0.0000 0.0000
# 3 2.6665 46.1713 114.1482 0.0000 0.0000 0.0000
# 4 0.0000 0.0000 0.0000 36.2322 0.0000 0.0000
# 5 0.0000 0.0000 0.0000 0.0000 13.3922 0.0000
# 6 0.0000 0.0000 0.0000 0.0000 0.0000 18.7336
#
#
#
# Elastic Compliance Matrix: (Units=1/GPa)
#
#
# Indices 1 2 3 4 5 6 
#
# 1 0.024374 -0.004012 0.001053 0.000000 0.000000 0.000000
# 2 -0.004012 0.007974 -0.003132 0.000000 0.000000 0.000000
# 3 0.001053 -0.003132 0.010003 0.000000 0.000000 0.000000
# 4 0.000000 0.000000 0.000000 0.027600 0.000000 0.000000
# 5 0.000000 0.000000 0.000000 0.000000 0.074670 0.000000
# 6 0.000000 0.000000 0.000000 0.000000 0.000000 0.053380
#
#
# Mechanical properties :
#
#
# Convention : Reuss Voigt Hill
#
# Bulk Modulus (GPa) = 33.14522 51.02200 42.08361
# Shear Modulus (GPa) = 22.70279 29.80034 26.25157
#
# Velocity S-wave (km/s) = 3.25299 3.72695 3.49800
# Velocity P-wave (km/s) = 5.43677 6.50399 5.99418
#
# Compressibility (1/GPa) = 0.03017026
#
# Stress axis : x y z
#
# Youngs Moduli (GPa) = 41.02737 125.41216 99.97409
#
# Poissons Ratio (x) = 0.50313 -0.10531
# Poissons Ratio (y) = 0.16459 0.31307
# Poissons Ratio (z) = -0.04322 0.39273
#
# Static dielectric constant tensor:
#      x y z
#    x 1.850140 0.000000 0.000000 
#    y 0.000000 1.794270 0.000000 
#    z 0.000000 0.000000 1.770780 
# 
# From -- ./inp_files/2936.got.cif
#   From: 2010.05.17/outbox.cif.g08.bks.cpg/sg43_2_cif.got.tgz:2936.got - 2010.06.03 19:21:55.
