data_PCOD9370375
_publ_section_title
;
Structure prediction by ZEFSAII (Michael W. Deem and Ramdas Pophale) SiO2 
 PCOD9370375
Probable space group: F D D 2
;
_chemical_formula_sum "Si O2"
_cell_formula_units_Z 112
_cell_length_a 17.372212
_cell_length_b 10.779995
_cell_length_c 27.405774
_cell_angle_alpha 90.000000
_cell_angle_beta 90.000000
_cell_angle_gamma 90.000000
_cell_volume 5132.343933
_symmetry_space_group_name_H-M "F D D 2"
_symmetry_group_IT_number 43
_symmetry_cell_setting 'orthorhombic'
loop_
_space_group_symop_operation_xyz
x,y,z
-x,-y,z
1/4-x,1/4+y,1/4+z
1/4+x,1/4-y,1/4+z
x,1/2+y,1/2+z
-x,1/2-y,1/2+z
1/4-x,3/4+y,3/4+z
1/4+x,3/4-y,3/4+z
1/2+x,y,1/2+z
1/2-x,-y,1/2+z
3/4-x,1/4+y,3/4+z
3/4+x,1/4-y,3/4+z
1/2+x,1/2+y,z
1/2-x,1/2-y,z
3/4-x,3/4+y,1/4+z
3/4+x,3/4-y,1/4+z
loop_
_atom_site_type_symbol
_atom_site_label
_atom_site_fract_x
_atom_site_fract_y
_atom_site_fract_z
Si Si1 0.422645 0.621909 0.696660
Si Si2 0.632755 0.841945 0.426297
Si Si3 0.250000 0.750000 0.264961
Si Si4 0.000000 0.000000 0.250584
Si Si5 0.867245 0.841945 0.839248
Si Si6 0.987836 0.723815 0.284885
Si Si7 0.762164 0.526185 0.230660
Si Si8 0.327355 0.628091 0.818885
O O1 0.398342 0.764897 0.688540
O O2 0.421932 0.569134 0.641649
O O3 0.494454 0.642270 0.734153
O O4 0.351630 0.547633 0.719472
O O5 0.675796 0.758275 0.465916
O O6 0.542579 0.822625 0.437236
O O7 0.671932 0.819134 0.373896
O O8 0.175796 0.741725 0.299629
O O9 0.252509 0.619736 0.237193
O O10 0.002509 0.869736 0.278351
O O11 0.957421 0.822625 0.828309
O O12 0.851658 0.985103 0.827005
O O13 0.898369 0.702367 0.296073
O O14 0.755546 0.607730 0.281392
#
# Coordination Sequence:
#
# PCOD9370375 Si02
#       8
#    16  16   8   8  16  16  16  16
#     4   9  20  36  60  88 107 148 210 239 288 350
#     4  10  19  38  59  82 117 148 195 252 284 342
#     4  10  22  36  53  84 120 152 189 224 306 366
#     4  10  22  36  53  84 120 152 189 224 306 366
#     4  10  19  38  59  82 117 148 195 252 284 342
#     4  10  19  36  60  84 114 154 188 244 298 350
#     4  10  19  36  60  84 114 154 188 244 298 350
#     4   9  20  36  60  88 107 148 210 239 288 350
#
# _framework density 21.822388
#
# number of rings (size 3 to 8) (size 9 to 14) (size 15 to 20)
#    0.000    2.286    0.000    2.571    0.000    2.286 
#   15.429    2.857    6.286    0.000    0.000    0.000 
#    0.000    0.000    0.000    0.000    0.000    0.000 
#
# Total GULP energy -155932.202002 kJ/mol
# GULP energy per Si atom -5569.007214 kJ/mol
# Density = 2.177272 g / cm^3
# Si number density = 21.822388 Si / 1000 Ang^3
#
#
#
# Elastic Constant Matrix: (Units=GPa)
#
#
# Indices 1 2 3 4 5 6 
#
# 1 73.6355 25.2115 20.5874 0.0000 0.0000 0.0000
# 2 25.2115 80.2019 24.8859 0.0000 0.0000 0.0000
# 3 20.5874 24.8859 96.9393 0.0000 0.0000 0.0000
# 4 0.0000 0.0000 0.0000 18.7553 0.0000 0.0000
# 5 0.0000 0.0000 0.0000 0.0000 9.2863 0.0000
# 6 0.0000 0.0000 0.0000 0.0000 0.0000 28.8934
#
#
#
# Elastic Compliance Matrix: (Units=1/GPa)
#
#
# Indices 1 2 3 4 5 6 
#
# 1 0.015653 -0.004226 -0.002240 0.000000 0.000000 0.000000
# 2 -0.004226 0.014688 -0.002873 0.000000 0.000000 0.000000
# 3 -0.002240 -0.002873 0.011529 0.000000 0.000000 0.000000
# 4 0.000000 0.000000 0.000000 0.053318 0.000000 0.000000
# 5 0.000000 0.000000 0.000000 0.000000 0.107685 0.000000
# 6 0.000000 0.000000 0.000000 0.000000 0.000000 0.034610
#
#
# Mechanical properties :
#
#
# Convention : Reuss Voigt Hill
#
# Bulk Modulus (GPa) = 43.11537 43.57180 43.34359
# Shear Modulus (GPa) = 18.94708 23.39311 21.17010
#
# Velocity S-wave (km/s) = 2.94979 3.27766 3.11804
# Velocity P-wave (km/s) = 5.60375 5.85952 5.73306
#
# Compressibility (1/GPa) = 0.02319359
#
# Stress axis : x y z
#
# Youngs Moduli (GPa) = 63.88400 68.08063 86.73789
#
# Poissons Ratio (x) = 0.28769 0.19425
# Poissons Ratio (y) = 0.26996 0.24923
# Poissons Ratio (z) = 0.14307 0.19562
#
# Static dielectric constant tensor:
#      x y z
#    x 1.905240 0.000000 0.000000 
#    y 0.000000 1.789650 0.000000 
#    z 0.000000 0.000000 1.964560 
# 
# From -- ./inp_files/29121.got.cif
#   From: 2010.05.17/outbox.cif.g08.bks.cpg/sg43_15_cif.got.tgz:29121.got - 2010.06.03 19:21:55.
