data_PCOD9370463
_publ_section_title
;
Structure prediction by ZEFSAII (Michael W. Deem and Ramdas Pophale) SiO2 
 PCOD9370463
Probable space group: F D D 2
;
_chemical_formula_sum "Si O2"
_cell_formula_units_Z 80
_cell_length_a 23.757216
_cell_length_b 8.407707
_cell_length_c 13.690249
_cell_angle_alpha 90.000000
_cell_angle_beta 90.000000
_cell_angle_gamma 90.000000
_cell_volume 2734.541143
_symmetry_space_group_name_H-M "F D D 2"
_symmetry_group_IT_number 43
_symmetry_cell_setting 'orthorhombic'
loop_
_space_group_symop_operation_xyz
x,y,z
-x,-y,z
1/4-x,1/4+y,1/4+z
1/4+x,1/4-y,1/4+z
x,1/2+y,1/2+z
-x,1/2-y,1/2+z
1/4-x,3/4+y,3/4+z
1/4+x,3/4-y,3/4+z
1/2+x,y,1/2+z
1/2-x,-y,1/2+z
3/4-x,1/4+y,3/4+z
3/4+x,1/4-y,3/4+z
1/2+x,1/2+y,z
1/2-x,1/2-y,z
3/4-x,3/4+y,1/4+z
3/4+x,3/4-y,1/4+z
loop_
_atom_site_type_symbol
_atom_site_label
_atom_site_fract_x
_atom_site_fract_y
_atom_site_fract_z
Si Si1 0.964044 0.850174 0.330130
Si Si2 0.414260 0.239076 0.080409
Si Si3 0.932499 0.389768 0.050183
Si Si4 0.455497 0.385454 0.888244
Si Si5 0.158152 0.671688 0.899274
O O1 0.965579 0.869113 0.449252
O O2 0.896763 0.821860 0.325038
O O3 0.003646 0.699930 0.311792
O O4 0.000000 0.000000 0.292708
O O5 0.500000 0.500000 0.942500
O O6 0.347468 0.225541 0.095106
O O7 0.572383 0.729608 0.967525
O O8 0.432182 0.399173 0.138935
O O9 0.938350 0.561823 0.099848
O O10 0.868546 0.376761 0.004268
O O11 0.941618 0.231353 0.112229
#
# Coordination Sequence:
#
# PCOD9370463 Si02
#       5
#    16  16  16  16  16
#     4  10  19  39  62  91 127 175 221 285 351 414
#     4  12  22  40  73  98 136 190 241 293 370 432
#     4  10  21  37  64  96 131 173 232 285 347 426
#     4  12  23  43  72 101 139 193 239 299 362 443
#     4  10  21  37  61  96 128 172 228 282 345 420
#
# _framework density 29.255368000000001
#
# number of rings (size 3 to 8) (size 9 to 14) (size 15 to 20)
#    1.200    0.000    4.000    4.800    0.000    0.000 
#    0.000    0.000   13.200    7.200    0.000    0.000 
#    0.000    0.000    0.000    0.000    0.000    0.000 
#
# Total GULP energy -111835.874272 kJ/mol
# GULP energy per Si atom -5591.793714 kJ/mol
# Density = 2.918878 g / cm^3
# Si number density = 29.255368 Si / 1000 Ang^3
#
#
#
# Elastic Constant Matrix: (Units=GPa)
#
#
# Indices 1 2 3 4 5 6 
#
# 1 143.1695 47.9694 13.9139 0.0000 0.0000 0.0000
# 2 47.9694 267.7621 42.0367 0.0000 0.0000 0.0000
# 3 13.9139 42.0367 70.9977 0.0000 0.0000 0.0000
# 4 0.0000 0.0000 0.0000 22.3113 0.0000 0.0000
# 5 0.0000 0.0000 0.0000 0.0000 30.2706 0.0000
# 6 0.0000 0.0000 0.0000 0.0000 0.0000 54.4396
#
#
#
# Elastic Compliance Matrix: (Units=1/GPa)
#
#
# Indices 1 2 3 4 5 6 
#
# 1 0.007466 -0.001221 -0.000740 0.000000 0.000000 0.000000
# 2 -0.001221 0.004317 -0.002317 0.000000 0.000000 0.000000
# 3 -0.000740 -0.002317 0.015602 0.000000 0.000000 0.000000
# 4 0.000000 0.000000 0.000000 0.044820 0.000000 0.000000
# 5 0.000000 0.000000 0.000000 0.000000 0.033035 0.000000
# 6 0.000000 0.000000 0.000000 0.000000 0.000000 0.018369
#
#
# Mechanical properties :
#
#
# Convention : Reuss Voigt Hill
#
# Bulk Modulus (GPa) = 53.11094 76.64105 64.87600
# Shear Modulus (GPa) = 36.11623 46.60491 41.36057
#
# Velocity S-wave (km/s) = 3.51738 3.99562 3.76410
# Velocity P-wave (km/s) = 5.88979 6.89498 6.41211
#
# Compressibility (1/GPa) = 0.01882851
#
# Stress axis : x y z
#
# Youngs Moduli (GPa) = 133.94318 231.63283 64.09550
#
# Poissons Ratio (x) = 0.28290 0.04743
# Poissons Ratio (y) = 0.16359 0.14850
# Poissons Ratio (z) = 0.09912 0.53664
#
# Static dielectric constant tensor:
#      x y z
#    x 2.293060 0.000000 0.000000 
#    y 0.000000 2.335690 0.000000 
#    z 0.000000 0.000000 2.381240 
# 
# From -- ./inp_files/18942.got.cif
#   From: 2010.05.17/outbox.cif.g08.bks.cpg/sg43_10_cif.got.tgz:18942.got - 2010.06.03 19:21:55.
