data_PCOD9370891
_publ_section_title
;
Structure prediction by ZEFSAII (Michael W. Deem and Ramdas Pophale) SiO2 
 PCOD9370891
Probable space group: F D D 2
;
_chemical_formula_sum "Si O2"
_cell_formula_units_Z 80
_cell_length_a 26.922287
_cell_length_b 11.325629
_cell_length_c 10.173978
_cell_angle_alpha 90.000000
_cell_angle_beta 90.000000
_cell_angle_gamma 90.000000
_cell_volume 3102.166295
_symmetry_space_group_name_H-M "F D D 2"
_symmetry_group_IT_number 43
_symmetry_cell_setting 'orthorhombic'
loop_
_space_group_symop_operation_xyz
x,y,z
-x,-y,z
1/4-x,1/4+y,1/4+z
1/4+x,1/4-y,1/4+z
x,1/2+y,1/2+z
-x,1/2-y,1/2+z
1/4-x,3/4+y,3/4+z
1/4+x,3/4-y,3/4+z
1/2+x,y,1/2+z
1/2-x,-y,1/2+z
3/4-x,1/4+y,3/4+z
3/4+x,1/4-y,3/4+z
1/2+x,1/2+y,z
1/2-x,1/2-y,z
3/4-x,3/4+y,1/4+z
3/4+x,3/4-y,1/4+z
loop_
_atom_site_type_symbol
_atom_site_label
_atom_site_fract_x
_atom_site_fract_y
_atom_site_fract_z
Si Si1 0.426602 0.431304 0.306450
Si Si2 0.747919 0.884836 0.789059
Si Si3 0.193967 0.241574 0.122027
Si Si4 0.659558 0.960739 0.288996
Si Si5 0.816310 0.411710 0.883530
O O1 0.534354 0.626864 0.405083
O O2 0.416910 0.340778 0.186372
O O3 0.441599 0.555414 0.237386
O O4 0.374272 0.446622 0.382516
O O5 0.750000 0.750000 0.828139
O O6 0.803930 0.930244 0.770671
O O7 0.719743 0.975692 0.886728
O O8 0.250000 0.250000 0.080018
O O9 0.149401 0.221083 0.021001
O O10 0.179099 0.362755 0.191079
O O11 0.193020 0.144743 0.239106
#
# Coordination Sequence:
#
# PCOD9370891 Si02
#       5
#    16  16  16  16  16
#     4  10  22  43  80 108 156 210 255 337 399 476
#     4  12  26  44  69 115 161 201 266 330 394 478
#     4  10  20  41  75 102 149 203 251 338 395 466
#     4  10  24  43  72 115 150 197 276 321 405 487
#     4  10  20  42  72 115 146 201 273 320 407 482
#
# _framework density 25.788432
#
# number of rings (size 3 to 8) (size 9 to 14) (size 15 to 20)
#    0.000    1.600    4.000    0.000    5.600    0.000 
#    3.600    3.000    0.000    0.000    0.000    0.000 
#    0.000    0.000    0.000    0.000    0.000    0.000 
#
# Total GULP energy -112146.989902 kJ/mol
# GULP energy per Si atom -5607.349495 kJ/mol
# Density = 2.572974 g / cm^3
# Si number density = 25.788432 Si / 1000 Ang^3
#
#
#
# Elastic Constant Matrix: (Units=GPa)
#
#
# Indices 1 2 3 4 5 6 
#
# 1 235.6345 75.0388 47.4463 0.0000 0.0000 0.0000
# 2 75.0388 171.5233 19.6199 0.0000 0.0000 0.0000
# 3 47.4463 19.6199 76.6422 0.0000 0.0000 0.0000
# 4 0.0000 0.0000 0.0000 10.7945 0.0000 0.0000
# 5 0.0000 0.0000 0.0000 0.0000 43.6814 0.0000
# 6 0.0000 0.0000 0.0000 0.0000 0.0000 42.1666
#
#
#
# Elastic Compliance Matrix: (Units=1/GPa)
#
#
# Indices 1 2 3 4 5 6 
#
# 1 0.005479 -0.002070 -0.002862 0.000000 0.000000 0.000000
# 2 -0.002070 0.006788 -0.000456 0.000000 0.000000 0.000000
# 3 -0.002862 -0.000456 0.014936 0.000000 0.000000 0.000000
# 4 0.000000 0.000000 0.000000 0.092640 0.000000 0.000000
# 5 0.000000 0.000000 0.000000 0.000000 0.022893 0.000000
# 6 0.000000 0.000000 0.000000 0.000000 0.000000 0.023715
#
#
# Mechanical properties :
#
#
# Convention : Reuss Voigt Hill
#
# Bulk Modulus (GPa) = 60.87572 85.33444 73.10508
# Shear Modulus (GPa) = 27.36672 42.10817 34.73744
#
# Velocity S-wave (km/s) = 3.26114 4.04521 3.67415
# Velocity P-wave (km/s) = 6.15119 7.41488 6.81240
#
# Compressibility (1/GPa) = 0.01642691
#
# Stress axis : x y z
#
# Youngs Moduli (GPa) = 182.50556 147.32367 66.95082
#
# Poissons Ratio (x) = 0.30492 0.19163
# Poissons Ratio (y) = 0.37773 0.03055
# Poissons Ratio (z) = 0.52236 0.06723
#
# Static dielectric constant tensor:
#      x y z
#    x 1.959670 0.000000 0.000000 
#    y 0.000000 2.003220 0.000000 
#    z 0.000000 0.000000 2.069060 
# 
# From -- ./inp_files/8186.got.cif
#   From: 2010.05.17/outbox.cif.g08.bks.cpg/sg43_5_cif.got.tgz:8186.got - 2010.06.03 19:21:55.
