data_PCOD9370145
_publ_section_title
;
Structure prediction by ZEFSAII (Michael W. Deem and Ramdas Pophale) SiO2 
 PCOD9370145
Probable space group: F D D 2
;
_chemical_formula_sum "Si O2"
_cell_formula_units_Z 112
_cell_length_a 11.460904
_cell_length_b 20.008379
_cell_length_c 20.395909
_cell_angle_alpha 90.000000
_cell_angle_beta 90.000000
_cell_angle_gamma 90.000000
_cell_volume 4677.069739
_symmetry_space_group_name_H-M "F D D 2"
_symmetry_group_IT_number 43
_symmetry_cell_setting 'orthorhombic'
loop_
_space_group_symop_operation_xyz
x,y,z
-x,-y,z
1/4-x,1/4+y,1/4+z
1/4+x,1/4-y,1/4+z
x,1/2+y,1/2+z
-x,1/2-y,1/2+z
1/4-x,3/4+y,3/4+z
1/4+x,3/4-y,3/4+z
1/2+x,y,1/2+z
1/2-x,-y,1/2+z
3/4-x,1/4+y,3/4+z
3/4+x,1/4-y,3/4+z
1/2+x,1/2+y,z
1/2-x,1/2-y,z
3/4-x,3/4+y,1/4+z
3/4+x,3/4-y,1/4+z
loop_
_atom_site_type_symbol
_atom_site_label
_atom_site_fract_x
_atom_site_fract_y
_atom_site_fract_z
Si Si1 0.277905 0.676362 0.429770
Si Si2 0.884279 0.956371 0.465312
Si Si3 0.321382 0.835090 0.036589
Si Si4 0.997818 0.711791 0.131825
Si Si5 0.351982 0.859027 0.838635
Si Si6 0.719935 0.477898 0.177926
Si Si7 0.341885 0.067727 0.278150
O O1 0.250000 0.750000 0.402213
O O2 0.216322 0.614979 0.393139
O O3 0.419016 0.676295 0.432159
O O4 0.222931 0.673641 0.503014
O O5 0.880230 0.907938 0.527613
O O6 0.868054 0.905414 0.403617
O O7 0.773343 0.004145 0.451625
O O8 0.000000 0.000000 0.467629
O O9 0.373682 0.797278 0.098789
O O10 0.187362 0.853322 0.038312
O O11 0.367245 0.790973 0.977700
O O12 0.926254 0.757945 0.081599
O O13 0.407500 0.787884 0.858796
O O14 0.223167 0.869151 0.810473
O O15 0.775893 0.543736 0.210748
#
# Coordination Sequence:
#
# PCOD9370145 Si02
#       7
#    16  16  16  16  16  16  16
#     4  10  19  37  58  84 122 156 202 246 293 372
#     4  10  18  31  55  87 107 142 199 247 297 347
#     4  10  18  30  58  86 111 145 191 252 300 342
#     4  10  18  34  57  83 113 154 189 246 293 357
#     4  10  18  35  58  85 116 148 191 250 298 351
#     4   9  18  33  58  87 109 151 201 244 291 368
#     4   9  21  33  62  88 119 159 193 250 311 343
#
# _framework density 23.946615999999999
#
# number of rings (size 3 to 8) (size 9 to 14) (size 15 to 20)
#    0.000    2.286    2.857    0.857    0.000    0.571 
#    0.000    0.000   40.857    3.429    0.000    0.000 
#    0.000    0.000    0.000    0.000    0.000    0.000 
#
# Total GULP energy -155881.938122 kJ/mol
# GULP energy per Si atom -5567.212076 kJ/mol
# Density = 2.389211 g / cm^3
# Si number density = 23.946616 Si / 1000 Ang^3
#
#
#
# Elastic Constant Matrix: (Units=GPa)
#
#
# Indices 1 2 3 4 5 6 
#
# 1 61.3100 13.4669 23.9977 0.0000 0.0000 0.0000
# 2 13.4669 81.1380 24.3268 0.0000 0.0000 0.0000
# 3 23.9977 24.3268 48.9757 0.0000 0.0000 0.0000
# 4 0.0000 0.0000 0.0000 22.4997 0.0000 0.0000
# 5 0.0000 0.0000 0.0000 0.0000 30.2697 0.0000
# 6 0.0000 0.0000 0.0000 0.0000 0.0000 25.2942
#
#
#
# Elastic Compliance Matrix: (Units=1/GPa)
#
#
# Indices 1 2 3 4 5 6 
#
# 1 0.020195 -0.000452 -0.009671 0.000000 0.000000 0.000000
# 2 -0.000452 0.014491 -0.006976 0.000000 0.000000 0.000000
# 3 -0.009671 -0.006976 0.028622 0.000000 0.000000 0.000000
# 4 0.000000 0.000000 0.000000 0.044445 0.000000 0.000000
# 5 0.000000 0.000000 0.000000 0.000000 0.033036 0.000000
# 6 0.000000 0.000000 0.000000 0.000000 0.000000 0.039535
#
#
# Mechanical properties :
#
#
# Convention : Reuss Voigt Hill
#
# Bulk Modulus (GPa) = 34.35289 35.00073 34.67681
# Shear Modulus (GPa) = 22.29880 24.25488 23.27684
#
# Velocity S-wave (km/s) = 3.05485 3.18602 3.12112
# Velocity P-wave (km/s) = 5.17876 5.30869 5.24413
#
# Compressibility (1/GPa) = 0.02910963
#
# Stress axis : x y z
#
# Youngs Moduli (GPa) = 49.51669 69.00628 34.93797
#
# Poissons Ratio (x) = 0.03122 0.33788
# Poissons Ratio (y) = 0.02240 0.24374
# Poissons Ratio (z) = 0.47887 0.48142
#
# Static dielectric constant tensor:
#      x y z
#    x 1.927690 0.000000 0.000000 
#    y 0.000000 2.038910 0.000000 
#    z 0.000000 0.000000 1.965590 
# 
# From -- ./inp_files/21290.got.cif
#   From: 2010.05.17/outbox.cif.g08.bks.cpg/sg43_11_cif.got.tgz:21290.got - 2010.06.03 19:21:55.
