data_PCOD9370986
_publ_section_title
;
Structure prediction by ZEFSAII (Michael W. Deem and Ramdas Pophale) SiO2 
 PCOD9370986
Probable space group: F D D 2
;
_chemical_formula_sum "Si O2"
_cell_formula_units_Z 80
_cell_length_a 10.988166
_cell_length_b 11.725910
_cell_length_c 28.241806
_cell_angle_alpha 90.000000
_cell_angle_beta 90.000000
_cell_angle_gamma 90.000000
_cell_volume 3638.850672
_symmetry_space_group_name_H-M "F D D 2"
_symmetry_group_IT_number 43
_symmetry_cell_setting 'orthorhombic'
loop_
_space_group_symop_operation_xyz
x,y,z
-x,-y,z
1/4-x,1/4+y,1/4+z
1/4+x,1/4-y,1/4+z
x,1/2+y,1/2+z
-x,1/2-y,1/2+z
1/4-x,3/4+y,3/4+z
1/4+x,3/4-y,3/4+z
1/2+x,y,1/2+z
1/2-x,-y,1/2+z
3/4-x,1/4+y,3/4+z
3/4+x,1/4-y,3/4+z
1/2+x,1/2+y,z
1/2-x,1/2-y,z
3/4-x,3/4+y,1/4+z
3/4+x,3/4-y,1/4+z
loop_
_atom_site_type_symbol
_atom_site_label
_atom_site_fract_x
_atom_site_fract_y
_atom_site_fract_z
Si Si1 0.000000 0.000000 0.466020
Si Si2 0.000000 0.000000 0.790037
Si Si3 0.730242 0.614007 0.515494
Si Si4 0.567094 0.884529 0.436546
Si Si5 0.867373 0.458275 0.586399
Si Si6 0.380292 0.453936 0.700525
O O1 0.902960 0.925328 0.496713
O O2 0.069512 0.909767 0.432765
O O3 0.087764 0.918712 0.818431
O O4 0.928021 0.920768 0.752920
O O5 0.750000 0.750000 0.523002
O O6 0.825971 0.586744 0.472958
O O7 0.771437 0.543647 0.561918
O O8 0.611117 0.807168 0.392781
O O9 0.462005 0.806394 0.458826
O O10 0.500000 0.000000 0.420741
O O11 0.000000 0.500000 0.571644
O O12 0.500000 0.500000 0.674132
#
# Coordination Sequence:
#
# PCOD9370986 Si02
#       6
#     8   8  16  16  16  16
#     4  12  22  42  77 100 144 186 248 307 370 450
#     4  10  20  46  65  96 138 184 240 293 370 442
#     4  12  25  46  74 108 143 202 249 313 386 448
#     4  12  24  47  74 108 147 198 254 309 383 456
#     4  12  26  44  71 106 145 195 248 308 371 451
#     4  10  22  42  71 100 134 194 236 299 375 441
#
# _framework density 21.984964000000002
#
# number of rings (size 3 to 8) (size 9 to 14) (size 15 to 20)
#    0.600    0.000    5.000    4.800    0.000    0.000 
#    3.600    0.000    0.000    0.000    0.000    0.000 
#    0.000    0.000    0.000    0.000    0.000    0.000 
#
# Total GULP energy -111589.092173 kJ/mol
# GULP energy per Si atom -5579.454609 kJ/mol
# Density = 2.193492 g / cm^3
# Si number density = 21.984964 Si / 1000 Ang^3
#
#
#
# Elastic Constant Matrix: (Units=GPa)
#
#
# Indices 1 2 3 4 5 6 
#
# 1 119.8044 46.7368 8.6647 0.0000 0.0000 0.0000
# 2 46.7368 135.7222 5.2827 0.0000 0.0000 0.0000
# 3 8.6647 5.2827 59.7536 0.0000 0.0000 0.0000
# 4 0.0000 0.0000 0.0000 30.2012 0.0000 0.0000
# 5 0.0000 0.0000 0.0000 0.0000 -5.1206 0.0000
# 6 0.0000 0.0000 0.0000 0.0000 0.0000 52.4227
#
#
#
# Elastic Compliance Matrix: (Units=1/GPa)
#
#
# Indices 1 2 3 4 5 6 
#
# 1 0.009716 -0.003302 -0.001117 0.000000 0.000000 0.000000
# 2 -0.003302 0.008516 -0.000274 0.000000 0.000000 0.000000
# 3 -0.001117 -0.000274 0.016922 0.000000 0.000000 0.000000
# 4 0.000000 0.000000 0.000000 0.033111 0.000000 0.000000
# 5 0.000000 0.000000 0.000000 0.000000 -0.195291 0.000000
# 6 0.000000 0.000000 0.000000 0.000000 0.000000 0.019076
#
#
# Mechanical properties :
#
#
# Convention : Reuss Voigt Hill
#
# Bulk Modulus (GPa) = 38.80947 48.51653 43.66300
# Shear Modulus (GPa) = -55.57079 32.47374 -11.54853
#
# Velocity S-wave (km/s) = -5.03305 3.84746 -2.29441
# Velocity P-wave (km/s) = 4.01054 6.46941 3.58949
#
# Compressibility (1/GPa) = 0.02576691
#
# Stress axis : x y z
#
# Youngs Moduli (GPa) = 102.92327 117.42853 59.09610
#
# Poissons Ratio (x) = 0.38778 0.06601
# Poissons Ratio (y) = 0.33988 0.01619
# Poissons Ratio (z) = 0.11496 0.03218
#
# Static dielectric constant tensor:
#      x y z
#    x 1.922330 0.000000 0.000000 
#    y 0.000000 1.884980 0.000000 
#    z 0.000000 0.000000 1.786350 
# 
# From -- ./inp_files/28418.got.cif
#   From: 2010.05.17/outbox.cif.g08.bks.cpg/sg43_15_cif.got.tgz:28418.got - 2010.06.03 19:21:55.
