data_PCOD9370777
_publ_section_title
;
Structure prediction by ZEFSAII (Michael W. Deem and Ramdas Pophale) SiO2 
 PCOD9370777
Probable space group: F D D 2
;
_chemical_formula_sum "Si O2"
_cell_formula_units_Z 120
_cell_length_a 25.345070
_cell_length_b 27.404220
_cell_length_c 7.300345
_cell_angle_alpha 90.000000
_cell_angle_beta 90.000000
_cell_angle_gamma 90.000000
_cell_volume 5070.541305
_symmetry_space_group_name_H-M "F D D 2"
_symmetry_group_IT_number 43
_symmetry_cell_setting 'orthorhombic'
loop_
_space_group_symop_operation_xyz
x,y,z
-x,-y,z
1/4-x,1/4+y,1/4+z
1/4+x,1/4-y,1/4+z
x,1/2+y,1/2+z
-x,1/2-y,1/2+z
1/4-x,3/4+y,3/4+z
1/4+x,3/4-y,3/4+z
1/2+x,y,1/2+z
1/2-x,-y,1/2+z
3/4-x,1/4+y,3/4+z
3/4+x,1/4-y,3/4+z
1/2+x,1/2+y,z
1/2-x,1/2-y,z
3/4-x,3/4+y,1/4+z
3/4+x,3/4-y,1/4+z
loop_
_atom_site_type_symbol
_atom_site_label
_atom_site_fract_x
_atom_site_fract_y
_atom_site_fract_z
Si Si1 0.393768 0.633191 0.924810
Si Si2 0.311481 0.540584 0.249909
Si Si3 0.219633 0.043404 0.011667
Si Si4 0.220266 0.146478 0.496728
Si Si5 0.868848 0.127970 0.436478
Si Si6 0.500000 0.500000 0.359782
Si Si7 0.639357 0.284263 0.191936
Si Si8 0.946657 0.840552 0.025433
O O1 0.426941 0.663454 0.774738
O O2 0.361324 0.585974 0.862126
O O3 0.434805 0.615106 0.072551
O O4 0.360899 0.676519 0.024440
O O5 0.252442 0.544846 0.327168
O O6 0.306218 0.508458 0.065078
O O7 0.339882 0.592230 0.285955
O O8 0.345279 0.504856 0.386084
O O9 0.263813 0.054949 0.169807
O O10 0.180353 0.139788 0.669250
O O11 0.239061 0.201657 0.495515
O O12 0.269555 0.111783 0.446796
O O13 0.872705 0.183164 0.367131
O O14 0.827531 0.124157 0.606467
O O15 0.553759 0.510529 0.466903
#
# Coordination Sequence:
#
# PCOD9370777 Si02
#       8
#    16  16  16  16  16   8  16  16
#     4   9  19  39  60  85 119 163 212 258 324 395
#     4  10  20  40  57  88 121 158 209 265 314 388
#     4   9  21  36  56  85 120 155 208 258 311 389
#     4  10  21  39  62  90 120 170 212 265 328 396
#     4  10  22  41  62  91 128 167 218 272 329 399
#     4  12  20  40  66  90 128 170 216 268 336 404
#     4  10  21  38  62  87 122 163 216 260 326 402
#     4  10  20  41  61  88 126 164 212 271 328 392
#
# _framework density 23.666112999999999
#
# number of rings (size 3 to 8) (size 9 to 14) (size 15 to 20)
#    0.000    2.133    2.667    0.800    0.000    3.200 
#   12.000    3.333    0.000    0.000    0.000    0.000 
#    0.000    0.000    0.000    0.000    0.000    0.000 
#
# Total GULP energy -167041.396739 kJ/mol
# GULP energy per Si atom -5568.046558 kJ/mol
# Density = 2.361225 g / cm^3
# Si number density = 23.666113 Si / 1000 Ang^3
#
#
#
# Elastic Constant Matrix: (Units=GPa)
#
#
# Indices 1 2 3 4 5 6 
#
# 1 116.8303 31.4831 7.7889 -0.0320 0.0192 0.0196
# 2 31.4831 86.2612 -0.0424 -0.0383 0.0208 0.0254
# 3 7.7889 -0.0424 45.8283 -0.0494 0.0295 0.0279
# 4 -0.0320 -0.0383 -0.0494 22.2520 0.0267 0.0293
# 5 0.0192 0.0208 0.0295 0.0267 41.7404 -0.0176
# 6 0.0196 0.0254 0.0279 0.0293 -0.0176 48.0777
#
#
#
# Elastic Compliance Matrix: (Units=1/GPa)
#
#
# Indices 1 2 3 4 5 6 
#
# 1 0.009614 -0.003510 -0.001637 0.000004 -0.000002 -0.000001
# 2 -0.003510 0.012874 0.000608 0.000018 -0.000005 -0.000006
# 3 -0.001637 0.000608 0.022099 0.000048 -0.000015 -0.000013
# 4 0.000004 0.000018 0.000048 0.044940 -0.000029 -0.000027
# 5 -0.000002 -0.000005 -0.000015 -0.000029 0.023958 0.000009
# 6 -0.000001 -0.000006 -0.000013 -0.000027 0.000009 0.020800
#
#
# Mechanical properties :
#
#
# Convention : Reuss Voigt Hill
#
# Bulk Modulus (GPa) = 28.16061 36.37544 32.26803
# Shear Modulus (GPa) = 32.21662 36.39335 34.30499
#
# Velocity S-wave (km/s) = 3.69358 3.92571 3.81141
# Velocity P-wave (km/s) = 5.48771 5.99599 5.74747
#
# Compressibility (1/GPa) = 0.03551059
#
# Stress axis : x y z
#
# Youngs Moduli (GPa) = 104.01071 77.67595 45.24996
#
# Poissons Ratio (x) = 0.27263 0.07409
# Poissons Ratio (y) = 0.36506 -0.02753
# Poissons Ratio (z) = 0.17030 -0.04726
#
# Static dielectric constant tensor:
#      x y z
#    x 1.933080 0.000010 0.000020 
#    y 0.000010 1.940060 0.000010 
#    z 0.000020 0.000010 2.032530 
# 
# From -- ./inp_files/3905.got.cif
#   From: 2010.05.17/outbox.cif.g08.bks.cpg/sg43_2_cif.got.tgz:3905.got - 2010.06.03 19:21:55.
