data_PCOD9370606
_publ_section_title
;
Structure prediction by ZEFSAII (Michael W. Deem and Ramdas Pophale) SiO2 
 PCOD9370606
Probable space group: F D D 2
;
_chemical_formula_sum "Si O2"
_cell_formula_units_Z 120
_cell_length_a 27.089150
_cell_length_b 17.502103
_cell_length_c 11.806835
_cell_angle_alpha 90.000000
_cell_angle_beta 90.000000
_cell_angle_gamma 90.000000
_cell_volume 5597.822293
_symmetry_space_group_name_H-M "F D D 2"
_symmetry_group_IT_number 43
_symmetry_cell_setting 'orthorhombic'
loop_
_space_group_symop_operation_xyz
x,y,z
-x,-y,z
1/4-x,1/4+y,1/4+z
1/4+x,1/4-y,1/4+z
x,1/2+y,1/2+z
-x,1/2-y,1/2+z
1/4-x,3/4+y,3/4+z
1/4+x,3/4-y,3/4+z
1/2+x,y,1/2+z
1/2-x,-y,1/2+z
3/4-x,1/4+y,3/4+z
3/4+x,1/4-y,3/4+z
1/2+x,1/2+y,z
1/2-x,1/2-y,z
3/4-x,3/4+y,1/4+z
3/4+x,3/4-y,1/4+z
loop_
_atom_site_type_symbol
_atom_site_label
_atom_site_fract_x
_atom_site_fract_y
_atom_site_fract_z
Si Si1 0.764085 0.520568 0.382110
Si Si2 0.377683 0.580544 0.181450
Si Si3 0.000000 0.000000 0.456794
Si Si4 0.757029 0.616915 0.049058
Si Si5 0.176518 0.803576 0.360995
Si Si6 0.175135 0.490979 0.174819
Si Si7 0.574840 0.825234 0.474928
Si Si8 0.477508 0.120714 0.791708
O O1 0.759067 0.452639 0.469230
O O2 0.809386 0.505255 0.303255
O O3 0.715450 0.531406 0.304374
O O4 0.765093 0.599553 0.448736
O O5 0.345582 0.630000 0.275715
O O6 0.354015 0.496237 0.168016
O O7 0.432101 0.574044 0.238872
O O8 0.390642 0.626301 0.063552
O O9 0.006643 0.073213 0.381906
O O10 0.047718 0.991431 0.531627
O O11 0.803055 0.587384 0.125135
O O12 0.709753 0.624559 0.136089
O O13 0.783352 0.672005 0.956141
O O14 0.131234 0.760223 0.414941
O O15 0.203071 0.556732 0.103157
#
# Coordination Sequence:
#
# PCOD9370606 Si02
#       8
#    16  16   8  16  16  16  16  16
#     4   9  17  36  59  90 124 170 215 257 319 398
#     4  10  20  38  62  97 129 172 224 277 325 400
#     4  12  24  36  60 100 128 158 206 278 328 380
#     4  10  20  37  62  93 127 176 214 264 338 393
#     4  11  23  36  64  91 132 163 217 274 324 394
#     4   9  20  36  62  91 120 165 217 262 309 391
#     4  10  20  36  65  94 136 175 223 281 333 403
#     4   9  20  33  60  93 128 153 211 268 321 371
#
# _framework density 21.436907999999999
#
# number of rings (size 3 to 8) (size 9 to 14) (size 15 to 20)
#    0.000    2.133    1.333    2.400    7.467    0.000 
#    0.000    1.333    2.933    7.200    0.000    0.000 
#    0.000    0.000    0.000    0.000    0.000    0.000 
#
# Total GULP energy -167079.427263 kJ/mol
# GULP energy per Si atom -5569.314242 kJ/mol
# Density = 2.138812 g / cm^3
# Si number density = 21.436908 Si / 1000 Ang^3
#
#
#
# Elastic Constant Matrix: (Units=GPa)
#
#
# Indices 1 2 3 4 5 6 
#
# 1 98.5144 40.6821 62.1419 0.0000 0.0000 0.0000
# 2 40.6821 29.6941 22.6918 0.0000 0.0000 0.0000
# 3 62.1419 22.6918 102.0011 0.0000 0.0000 0.0000
# 4 0.0000 0.0000 0.0000 -104.7978 0.0000 0.0000
# 5 0.0000 0.0000 0.0000 0.0000 30.6646 0.0000
# 6 0.0000 0.0000 0.0000 0.0000 0.0000 5.4818
#
#
#
# Elastic Compliance Matrix: (Units=1/GPa)
#
#
# Indices 1 2 3 4 5 6 
#
# 1 0.031859 -0.034718 -0.011686 0.000000 0.000000 0.000000
# 2 -0.034718 0.078409 0.003708 0.000000 0.000000 0.000000
# 3 -0.011686 0.003708 0.016098 0.000000 0.000000 0.000000
# 4 0.000000 0.000000 0.000000 -0.009542 0.000000 0.000000
# 5 0.000000 0.000000 0.000000 0.000000 0.032611 0.000000
# 6 0.000000 0.000000 0.000000 0.000000 0.000000 0.182420
#
#
# Mechanical properties :
#
#
# Convention : Reuss Voigt Hill
#
# Bulk Modulus (GPa) = 24.40574 53.47124 38.93849
# Shear Modulus (GPa) = 11.60346 -6.75070 2.42638
#
# Velocity S-wave (km/s) = 2.32908 -1.77650 1.06505
# Velocity P-wave (km/s) = 4.31769 4.55958 4.44028
#
# Compressibility (1/GPa) = 0.04097396
#
# Stress axis : x y z
#
# Youngs Moduli (GPa) = 31.38792 12.75367 62.11844
#
# Poissons Ratio (x) = 0.44279 0.72591
# Poissons Ratio (y) = 1.08974 -0.23035
# Poissons Ratio (z) = 0.36680 -0.04729
#
# Static dielectric constant tensor:
#      x y z
#    x 1.777580 0.000000 0.000000 
#    y 0.000000 1.829400 0.000000 
#    z 0.000000 0.000000 1.814170 
# 
# From -- ./inp_files/6884.got.cif
#   From: 2010.05.17/outbox.cif.g08.bks.cpg/sg43_4_cif.got.tgz:6884.got - 2010.06.03 19:21:55.
