data_PCOD9370584
_publ_section_title
;
Structure prediction by ZEFSAII (Michael W. Deem and Ramdas Pophale) SiO2 
 PCOD9370584
Probable space group: F D D 2
;
_chemical_formula_sum "Si O2"
_cell_formula_units_Z 104
_cell_length_a 19.652793
_cell_length_b 27.942729
_cell_length_c 7.409827
_cell_angle_alpha 90.000000
_cell_angle_beta 90.000000
_cell_angle_gamma 90.000000
_cell_volume 4069.126273
_symmetry_space_group_name_H-M "F D D 2"
_symmetry_group_IT_number 43
_symmetry_cell_setting 'orthorhombic'
loop_
_space_group_symop_operation_xyz
x,y,z
-x,-y,z
1/4-x,1/4+y,1/4+z
1/4+x,1/4-y,1/4+z
x,1/2+y,1/2+z
-x,1/2-y,1/2+z
1/4-x,3/4+y,3/4+z
1/4+x,3/4-y,3/4+z
1/2+x,y,1/2+z
1/2-x,-y,1/2+z
3/4-x,1/4+y,3/4+z
3/4+x,1/4-y,3/4+z
1/2+x,1/2+y,z
1/2-x,1/2-y,z
3/4-x,3/4+y,1/4+z
3/4+x,3/4-y,1/4+z
loop_
_atom_site_type_symbol
_atom_site_label
_atom_site_fract_x
_atom_site_fract_y
_atom_site_fract_z
Si Si1 0.784223 0.055549 0.509910
Si Si2 0.700749 0.049192 0.039664
Si Si3 0.333013 0.607932 0.050933
Si Si4 0.250000 0.250000 0.814962
Si Si5 0.654159 0.212744 0.997142
Si Si6 0.321549 0.656880 0.420856
Si Si7 0.638369 0.056190 0.635708
O O1 0.828179 0.045483 0.330199
O O2 0.803585 0.111062 0.542998
O O3 0.703141 0.054980 0.508745
O O4 0.800436 0.005505 0.613018
O O5 0.775812 0.069326 0.004676
O O6 0.652069 0.082404 0.160343
O O7 0.666348 0.051613 0.841828
O O8 0.404037 0.583608 0.119189
O O9 0.303795 0.639119 0.217141
O O10 0.348885 0.644457 0.891398
O O11 0.300830 0.277075 0.673605
O O12 0.285027 0.208332 0.933230
O O13 0.657823 0.259419 0.872379
#
# Coordination Sequence:
#
# PCOD9370584 Si02
#       7
#    16  16  16   8  16  16  16
#     4  10  20  40  57  88 130 155 206 251 317 366
#     4  10  20  39  62  88 121 163 208 250 310 376
#     4  10  20  36  61  89 121 154 209 248 305 373
#     4  12  20  40  62  92 118 156 218 266 300 360
#     4  10  21  36  63  89 116 163 207 262 297 369
#     4  10  23  34  64  93 116 159 207 267 303 361
#     4  10  20  37  58  91 117 166 200 247 308 377
#
# _framework density 25.558312000000001
#
# number of rings (size 3 to 8) (size 9 to 14) (size 15 to 20)
#    0.000    1.846    6.154    0.000    6.462    0.000 
#    2.769    0.000    0.000    2.769    0.000    0.000 
#    0.000    0.000    0.000    0.000    0.000    0.000 
#
# Total GULP energy -144897.502663 kJ/mol
# GULP energy per Si atom -5572.980872 kJ/mol
# Density = 2.550014 g / cm^3
# Si number density = 25.558312 Si / 1000 Ang^3
#
#
#
# Elastic Constant Matrix: (Units=GPa)
#
#
# Indices 1 2 3 4 5 6 
#
# 1 67.8047 50.1297 11.1480 -0.0002 -0.0002 0.0000
# 2 50.1297 207.3125 17.7801 -0.0001 0.0002 -0.0001
# 3 11.1480 17.7801 39.7740 0.0002 -0.0006 -0.0001
# 4 -0.0002 -0.0001 0.0002 4.2658 0.0001 -0.0002
# 5 -0.0002 0.0002 -0.0006 0.0001 16.9546 0.0000
# 6 0.0000 -0.0001 -0.0001 -0.0002 0.0000 43.4182
#
#
#
# Elastic Compliance Matrix: (Units=1/GPa)
#
#
# Indices 1 2 3 4 5 6 
#
# 1 0.018363 -0.004158 -0.003288 0.000001 0.000000 0.000000
# 2 -0.004158 0.005958 -0.001498 0.000000 0.000000 0.000000
# 3 -0.003288 -0.001498 0.026733 -0.000001 0.000001 0.000000
# 4 0.000001 0.000000 -0.000001 0.234425 -0.000001 0.000001
# 5 0.000000 0.000000 0.000001 -0.000001 0.058981 0.000000
# 6 0.000000 0.000000 0.000000 0.000001 0.000000 0.023032
#
#
# Mechanical properties :
#
#
# Convention : Reuss Voigt Hill
#
# Bulk Modulus (GPa) = 30.15149 52.55632 41.35390
# Shear Modulus (GPa) = 12.61241 28.64994 20.63117
#
# Velocity S-wave (km/s) = 2.22384 3.35171 2.84424
# Velocity P-wave (km/s) = 4.29147 5.96545 5.19631
#
# Compressibility (1/GPa) = 0.03316585
#
# Stress axis : x y z
#
# Youngs Moduli (GPa) = 54.45665 167.85247 37.40673
#
# Poissons Ratio (x) = 0.69799 0.12299
# Poissons Ratio (y) = 0.22645 0.05602
# Poissons Ratio (z) = 0.17905 0.25139
#
# Static dielectric constant tensor:
#      x y z
#    x 2.013440 0.000000 0.000000 
#    y 0.000000 2.159580 0.000000 
#    z 0.000000 0.000000 2.049670 
# 
# From -- ./inp_files/4750.got.cif
#   From: 2010.05.17/outbox.cif.g08.bks.cpg/sg43_3_cif.got.tgz:4750.got - 2010.06.03 19:21:55.
