data_PCOD9370582
_publ_section_title
;
Structure prediction by ZEFSAII (Michael W. Deem and Ramdas Pophale) SiO2 
 PCOD9370582
Probable space group: F D D 2
;
_chemical_formula_sum "Si O2"
_cell_formula_units_Z 112
_cell_length_a 34.309596
_cell_length_b 13.309725
_cell_length_c 10.203267
_cell_angle_alpha 90.000000
_cell_angle_beta 90.000000
_cell_angle_gamma 90.000000
_cell_volume 4659.335013
_symmetry_space_group_name_H-M "F D D 2"
_symmetry_group_IT_number 43
_symmetry_cell_setting 'orthorhombic'
loop_
_space_group_symop_operation_xyz
x,y,z
-x,-y,z
1/4-x,1/4+y,1/4+z
1/4+x,1/4-y,1/4+z
x,1/2+y,1/2+z
-x,1/2-y,1/2+z
1/4-x,3/4+y,3/4+z
1/4+x,3/4-y,3/4+z
1/2+x,y,1/2+z
1/2-x,-y,1/2+z
3/4-x,1/4+y,3/4+z
3/4+x,1/4-y,3/4+z
1/2+x,1/2+y,z
1/2-x,1/2-y,z
3/4-x,3/4+y,1/4+z
3/4+x,3/4-y,1/4+z
loop_
_atom_site_type_symbol
_atom_site_label
_atom_site_fract_x
_atom_site_fract_y
_atom_site_fract_z
Si Si1 0.492404 0.663744 0.944260
Si Si2 0.000000 0.500000 0.670652
Si Si3 0.829868 0.316616 0.013183
Si Si4 0.662599 0.524566 0.278052
Si Si5 0.682808 0.028192 0.253407
Si Si6 0.750000 0.250000 0.472781
Si Si7 0.620222 0.630401 0.871462
Si Si8 0.078533 0.551839 0.125337
O O1 0.522052 0.754280 0.977551
O O2 0.503473 0.597370 0.817216
O O3 0.498215 0.593959 0.071951
O O4 0.447088 0.693100 0.929827
O O5 0.039566 0.494644 0.753526
O O6 0.833367 0.392775 0.891275
O O7 0.866979 0.242561 0.999316
O O8 0.827437 0.389701 0.140126
O O9 0.674981 0.412481 0.320873
O O10 0.660510 0.068235 0.384003
O O11 0.659819 0.922664 0.226957
O O12 0.712281 0.247143 0.382362
O O13 0.594349 0.565808 0.773082
O O14 0.638082 0.733939 0.811223
#
# Coordination Sequence:
#
# PCOD9370582 Si02
#       8
#    16   8  16  16  16   8  16  16
#     4  10  23  41  56  82 120 155 185 237 292 343
#     4   9  24  42  57  80 122 154 183 232 296 341
#     4  11  20  40  60  85 114 152 189 239 283 342
#     4  11  21  38  60  84 116 150 191 236 287 341
#     4  11  19  39  61  84 115 149 193 235 291 331
#     4  11  22  40  57  84 116 154 191 238 286 341
#     4  10  20  36  61  87 112 149 186 243 287 334
#     4  11  20  38  61  84 116 147 194 235 289 335
#
# _framework density 24.037765
#
# number of rings (size 3 to 8) (size 9 to 14) (size 15 to 20)
#    0.000    1.429    5.714    0.000    2.000    1.143 
#    5.143    0.000    0.000    0.000    0.000    0.000 
#    0.000    0.000    0.000    0.000    0.000    0.000 
#
# Total GULP energy -156103.201643 kJ/mol
# GULP energy per Si atom -5575.114344 kJ/mol
# Density = 2.398305 g / cm^3
# Si number density = 24.037765 Si / 1000 Ang^3
#
#
#
# Elastic Constant Matrix: (Units=GPa)
#
#
# Indices 1 2 3 4 5 6 
#
# 1 209.7178 39.9369 25.4588 0.0000 0.0000 0.0000
# 2 39.9369 46.7011 -0.4233 0.0000 0.0000 0.0000
# 3 25.4588 -0.4233 19.8704 0.0000 0.0000 0.0000
# 4 0.0000 0.0000 0.0000 5.7246 0.0000 0.0000
# 5 0.0000 0.0000 0.0000 0.0000 28.8054 0.0000
# 6 0.0000 0.0000 0.0000 0.0000 0.0000 36.2634
#
#
#
# Elastic Compliance Matrix: (Units=1/GPa)
#
#
# Indices 1 2 3 4 5 6 
#
# 1 0.007042 -0.006105 -0.009153 0.000000 0.000000 0.000000
# 2 -0.006105 0.026710 0.008391 0.000000 0.000000 0.000000
# 3 -0.009153 0.008391 0.062231 0.000000 0.000000 0.000000
# 4 0.000000 0.000000 0.000000 0.174685 0.000000 0.000000
# 5 0.000000 0.000000 0.000000 0.000000 0.034716 0.000000
# 6 0.000000 0.000000 0.000000 0.000000 0.000000 0.027576
#
#
# Mechanical properties :
#
#
# Convention : Reuss Voigt Hill
#
# Bulk Modulus (GPa) = 12.15807 45.13712 28.64759
# Shear Modulus (GPa) = 13.36506 28.24646 20.80576
#
# Velocity S-wave (km/s) = 2.36053 3.43167 2.94521
# Velocity P-wave (km/s) = 3.53530 5.87539 4.84864
#
# Compressibility (1/GPa) = 0.08224988
#
# Stress axis : x y z
#
# Youngs Moduli (GPa) = 142.00579 37.43980 16.06906
#
# Poissons Ratio (x) = 0.22857 0.14707
# Poissons Ratio (y) = 0.86694 -0.13483
# Poissons Ratio (z) = 1.29971 -0.31416
#
# Static dielectric constant tensor:
#      x y z
#    x 2.035570 0.000000 0.000000 
#    y 0.000000 1.946680 0.000000 
#    z 0.000000 0.000000 1.946060 
# 
# From -- ./inp_files/11726.got.cif
#   From: 2010.05.17/outbox.cif.g08.bks.cpg/sg43_6_cif.got.tgz:11726.got - 2010.06.03 19:21:55.
