data_PCOD9370481
_publ_section_title
;
Structure prediction by ZEFSAII (Michael W. Deem and Ramdas Pophale) SiO2 
 PCOD9370481
Probable space group: F D D 2
;
_chemical_formula_sum "Si O2"
_cell_formula_units_Z 72
_cell_length_a 7.003739
_cell_length_b 14.023024
_cell_length_c 27.763050
_cell_angle_alpha 90.000000
_cell_angle_beta 90.000000
_cell_angle_gamma 90.000000
_cell_volume 2726.709090
_symmetry_space_group_name_H-M "F D D 2"
_symmetry_group_IT_number 43
_symmetry_cell_setting 'orthorhombic'
loop_
_space_group_symop_operation_xyz
x,y,z
-x,-y,z
1/4-x,1/4+y,1/4+z
1/4+x,1/4-y,1/4+z
x,1/2+y,1/2+z
-x,1/2-y,1/2+z
1/4-x,3/4+y,3/4+z
1/4+x,3/4-y,3/4+z
1/2+x,y,1/2+z
1/2-x,-y,1/2+z
3/4-x,1/4+y,3/4+z
3/4+x,1/4-y,3/4+z
1/2+x,1/2+y,z
1/2-x,1/2-y,z
3/4-x,3/4+y,1/4+z
3/4+x,3/4-y,1/4+z
loop_
_atom_site_type_symbol
_atom_site_label
_atom_site_fract_x
_atom_site_fract_y
_atom_site_fract_z
Si Si1 0.172247 0.357139 0.267930
Si Si2 0.250000 0.750000 0.016612
Si Si3 0.021827 0.106300 0.123901
Si Si4 0.666669 0.353553 0.336591
Si Si5 0.217344 0.462860 0.929324
O O1 0.250000 0.250000 0.271260
O O2 0.342161 0.424513 0.248639
O O3 0.112705 0.375167 0.323720
O O4 0.012748 0.344006 0.227667
O O5 0.098183 0.681052 0.044794
O O6 0.807022 0.109552 0.102045
O O7 0.065725 0.188155 0.162209
O O8 0.000000 0.000000 0.145585
O O9 0.750000 0.250000 0.324029
O O10 0.759579 0.391483 0.385462
O O11 0.000000 0.500000 0.931804
#
# Coordination Sequence:
#
# PCOD9370481 Si02
#       5
#    16   8  16  16  16
#     4  10  21  41  73 103 147 198 258 313 391 465
#     4  10  20  48  72 104 150 210 250 326 382 474
#     4   9  19  41  72  98 144 203 246 314 392 458
#     4  10  19  39  75 100 137 195 254 309 386 458
#     4  10  20  42  72 109 150 193 263 322 382 478
#
# _framework density 26.405455
#
# number of rings (size 3 to 8) (size 9 to 14) (size 15 to 20)
#    0.000    2.222    5.556    0.000    0.000    1.778 
#   10.000   10.000   19.556    0.000    0.000    0.000 
#    0.000    0.000    0.000    0.000    0.000    0.000 
#
# Total GULP energy -100379.434291 kJ/mol
# GULP energy per Si atom -5576.635238 kJ/mol
# Density = 2.634536 g / cm^3
# Si number density = 26.405455 Si / 1000 Ang^3
#
#
#
# Elastic Constant Matrix: (Units=GPa)
#
#
# Indices 1 2 3 4 5 6 
#
# 1 78.0966 38.5094 60.6366 0.0000 0.0000 0.0000
# 2 38.5094 174.5868 77.6602 0.0000 0.0000 0.0000
# 3 60.6366 77.6602 120.6744 0.0000 0.0000 0.0000
# 4 0.0000 0.0000 0.0000 356.8961 0.0000 0.0000
# 5 0.0000 0.0000 0.0000 0.0000 84.3001 0.0000
# 6 0.0000 0.0000 0.0000 0.0000 0.0000 54.7197
#
#
#
# Elastic Compliance Matrix: (Units=1/GPa)
#
#
# Indices 1 2 3 4 5 6 
#
# 1 0.020997 0.000087 -0.010606 0.000000 0.000000 0.000000
# 2 0.000087 0.008025 -0.005208 0.000000 0.000000 0.000000
# 3 -0.010606 -0.005208 0.016968 0.000000 0.000000 0.000000
# 4 0.000000 0.000000 0.000000 0.002802 0.000000 0.000000
# 5 0.000000 0.000000 0.000000 0.000000 0.011862 0.000000
# 6 0.000000 0.000000 0.000000 0.000000 0.000000 0.018275
#
#
# Mechanical properties :
#
#
# Convention : Reuss Voigt Hill
#
# Bulk Modulus (GPa) = 68.80218 80.77446 74.78832
# Shear Modulus (GPa) = 43.39117 112.28663 77.83890
#
# Velocity S-wave (km/s) = 4.05812 6.52812 5.43529
# Velocity P-wave (km/s) = 6.93328 9.35298 8.23252
#
# Compressibility (1/GPa) = 0.01453442
#
# Stress axis : x y z
#
# Youngs Moduli (GPa) = 47.62571 124.60292 58.93435
#
# Poissons Ratio (x) = -0.01078 0.62508
# Poissons Ratio (y) = -0.00412 0.30695
# Poissons Ratio (z) = 0.50513 0.64897
#
# Static dielectric constant tensor:
#      x y z
#    x 2.176470 0.000000 0.000000 
#    y 0.000000 1.167490 0.000000 
#    z 0.000000 0.000000 2.186530 
# 
# From -- ./inp_files/23967.got.cif
#   From: 2010.05.17/outbox.cif.g08.bks.cpg/sg43_12_cif.got.tgz:23967.got - 2010.06.03 19:21:55.
