data_PCOD9370728
_publ_section_title
;
Structure prediction by ZEFSAII (Michael W. Deem and Ramdas Pophale) SiO2 
 PCOD9370728
Probable space group: F D D 2
;
_chemical_formula_sum "Si O2"
_cell_formula_units_Z 120
_cell_length_a 22.243278
_cell_length_b 13.077478
_cell_length_c 19.304922
_cell_angle_alpha 90.000000
_cell_angle_beta 90.000000
_cell_angle_gamma 90.000000
_cell_volume 5615.531130
_symmetry_space_group_name_H-M "F D D 2"
_symmetry_group_IT_number 43
_symmetry_cell_setting 'orthorhombic'
loop_
_space_group_symop_operation_xyz
x,y,z
-x,-y,z
1/4-x,1/4+y,1/4+z
1/4+x,1/4-y,1/4+z
x,1/2+y,1/2+z
-x,1/2-y,1/2+z
1/4-x,3/4+y,3/4+z
1/4+x,3/4-y,3/4+z
1/2+x,y,1/2+z
1/2-x,-y,1/2+z
3/4-x,1/4+y,3/4+z
3/4+x,1/4-y,3/4+z
1/2+x,1/2+y,z
1/2-x,1/2-y,z
3/4-x,3/4+y,1/4+z
3/4+x,3/4-y,1/4+z
loop_
_atom_site_type_symbol
_atom_site_label
_atom_site_fract_x
_atom_site_fract_y
_atom_site_fract_z
Si Si1 0.594190 0.301826 0.250000
Si Si2 0.180867 0.270141 0.465812
Si Si3 0.152523 0.298664 0.322862
Si Si4 0.250000 0.750000 0.462128
Si Si5 0.263999 0.940843 0.556035
Si Si6 0.726845 0.366440 0.697533
Si Si7 0.821250 0.925966 0.299371
Si Si8 0.344516 0.609412 0.389019
O O1 0.598218 0.406495 0.206378
O O2 0.524715 0.270819 0.262298
O O3 0.618737 0.337489 0.325847
O O4 0.621491 0.205381 0.205701
O O5 0.250000 0.250000 0.481711
O O6 0.171997 0.340274 0.397923
O O7 0.140707 0.314966 0.527083
O O8 0.081444 0.280078 0.325880
O O9 0.173451 0.359079 0.254152
O O10 0.187983 0.190966 0.320478
O O11 0.273422 0.839680 0.510922
O O12 0.302057 0.697413 0.418018
O O13 0.221321 0.912089 0.621222
O O14 0.750000 0.250000 0.687299
O O15 0.778526 0.434541 0.733128
O O16 0.808513 0.016328 0.352195
#
# Coordination Sequence:
#
# PCOD9370728 Si02
#       8
#    16  16  16   8  16  16  16  16
#     4  10  23  41  66  89 130 168 218 271 328 395
#     4  11  20  36  60  91 123 163 211 264 331 388
#     4  11  22  36  63  90 126 165 212 265 333 384
#     4  10  24  44  62  88 130 170 216 258 338 404
#     4  11  22  42  62  93 127 167 215 268 320 407
#     4  10  21  38  59  94 124 160 205 263 322 390
#     4  10  20  39  61  88 126 158 213 269 317 396
#     4  10  22  44  65  91 125 173 211 272 327 396
#
# _framework density 21.369306000000002
#
# number of rings (size 3 to 8) (size 9 to 14) (size 15 to 20)
#    0.000    1.600    3.333    2.000    1.867    0.000 
#    2.400    0.000    1.467    0.000    0.000    0.000 
#    0.000    0.000    0.000    0.000    0.000    0.000 
#
# Total GULP energy -167054.635490 kJ/mol
# GULP energy per Si atom -5568.487850 kJ/mol
# Density = 2.132067 g / cm^3
# Si number density = 21.369306 Si / 1000 Ang^3
#
#
#
# Elastic Constant Matrix: (Units=GPa)
#
#
# Indices 1 2 3 4 5 6 
#
# 1 57.2326 21.0391 37.0785 0.0000 0.0000 0.0000
# 2 21.0391 86.7680 32.1538 0.0000 0.0000 0.0000
# 3 37.0785 32.1538 110.4486 0.0000 0.0000 0.0000
# 4 0.0000 0.0000 0.0000 1.8120 0.0000 0.0000
# 5 0.0000 0.0000 0.0000 0.0000 22.6912 0.0000
# 6 0.0000 0.0000 0.0000 0.0000 0.0000 23.1176
#
#
#
# Elastic Compliance Matrix: (Units=1/GPa)
#
#
# Indices 1 2 3 4 5 6 
#
# 1 0.023026 -0.003047 -0.006843 0.000000 0.000000 0.000000
# 2 -0.003047 0.013322 -0.002855 0.000000 0.000000 0.000000
# 3 -0.006843 -0.002855 0.012182 0.000000 0.000000 0.000000
# 4 0.000000 0.000000 0.000000 0.551869 0.000000 0.000000
# 5 0.000000 0.000000 0.000000 0.000000 0.044070 0.000000
# 6 0.000000 0.000000 0.000000 0.000000 0.000000 0.043257
#
#
# Mechanical properties :
#
#
# Convention : Reuss Voigt Hill
#
# Bulk Modulus (GPa) = 43.40406 48.33242 45.86824
# Shear Modulus (GPa) = 6.93580 20.46935 13.70258
#
# Velocity S-wave (km/s) = 1.80353 3.09833 2.53499
# Velocity P-wave (km/s) = 4.96915 5.95536 5.48447
#
# Compressibility (1/GPa) = 0.02303932
#
# Stress axis : x y z
#
# Youngs Moduli (GPa) = 43.42913 75.06387 82.08562
#
# Poissons Ratio (x) = 0.22875 0.56170
# Poissons Ratio (y) = 0.13235 0.23437
# Poissons Ratio (z) = 0.29718 0.21433
#
# Static dielectric constant tensor:
#      x y z
#    x 1.807880 0.000000 0.000000 
#    y 0.000000 1.783830 0.000000 
#    z 0.000000 0.000000 1.898930 
# 
# From -- ./inp_files/13462.got.cif
#   From: 2010.05.17/outbox.cif.g08.bks.cpg/sg43_7_cif.got.tgz:13462.got - 2010.06.03 19:21:55.
