data_PCOD9370630
_publ_section_title
;
Structure prediction by ZEFSAII (Michael W. Deem and Ramdas Pophale) SiO2 
 PCOD9370630
Probable space group: F D D 2
;
_chemical_formula_sum "Si O2"
_cell_formula_units_Z 112
_cell_length_a 23.343889
_cell_length_b 15.082957
_cell_length_c 13.835083
_cell_angle_alpha 90.000000
_cell_angle_beta 90.000000
_cell_angle_gamma 90.000000
_cell_volume 4871.261806
_symmetry_space_group_name_H-M "F D D 2"
_symmetry_group_IT_number 43
_symmetry_cell_setting 'orthorhombic'
loop_
_space_group_symop_operation_xyz
x,y,z
-x,-y,z
1/4-x,1/4+y,1/4+z
1/4+x,1/4-y,1/4+z
x,1/2+y,1/2+z
-x,1/2-y,1/2+z
1/4-x,3/4+y,3/4+z
1/4+x,3/4-y,3/4+z
1/2+x,y,1/2+z
1/2-x,-y,1/2+z
3/4-x,1/4+y,3/4+z
3/4+x,1/4-y,3/4+z
1/2+x,1/2+y,z
1/2-x,1/2-y,z
3/4-x,3/4+y,1/4+z
3/4+x,3/4-y,1/4+z
loop_
_atom_site_type_symbol
_atom_site_label
_atom_site_fract_x
_atom_site_fract_y
_atom_site_fract_z
Si Si1 0.661967 0.075717 0.471710
Si Si2 0.589129 0.445822 0.537841
Si Si3 0.959437 0.263233 0.196899
Si Si4 0.802494 0.802066 0.462684
Si Si5 0.838488 0.470221 0.678442
Si Si6 0.278029 0.116784 0.747478
Si Si7 0.943325 0.541177 0.483196
O O1 0.659919 0.157845 0.397746
O O2 0.727333 0.042575 0.481186
O O3 0.644540 0.085526 0.583137
O O4 0.614528 0.002435 0.441101
O O5 0.653131 0.443104 0.495774
O O6 0.563015 0.544473 0.524146
O O7 0.539399 0.387029 0.486084
O O8 0.951798 0.157765 0.215455
O O9 0.963534 0.300585 0.087838
O O10 0.750000 0.750000 0.508951
O O11 0.859842 0.753092 0.496558
O O12 0.805990 0.777554 0.348803
O O13 0.805588 0.562399 0.659087
O O14 0.800757 0.396023 0.727331
O O15 0.000000 0.500000 0.437667
#
# Coordination Sequence:
#
# PCOD9370630 Si02
#       7
#    16  16  16  16  16  16  16
#     4  10  25  40  63 100 132 173 233 279 342 424
#     4  10  23  43  64  96 138 181 229 289 347 418
#     4  11  21  41  67  93 134 179 225 286 351 412
#     4  10  20  37  63  93 125 166 215 281 344 400
#     4  11  21  41  65  93 133 172 226 288 338 418
#     4  10  22  42  67  96 134 181 237 285 345 420
#     4  10  22  40  62  91 130 173 222 282 351 406
#
# _framework density 22.991990000000001
#
# number of rings (size 3 to 8) (size 9 to 14) (size 15 to 20)
#    0.000    1.714    2.857    0.857    2.000    2.286 
#    2.571    0.000    0.000    0.000    0.000    0.000 
#    0.000    0.000    0.000    0.000    0.000    0.000 
#
# Total GULP energy -155931.416421 kJ/mol
# GULP energy per Si atom -5568.979158 kJ/mol
# Density = 2.293966 g / cm^3
# Si number density = 22.991990 Si / 1000 Ang^3
#
#
#
# Elastic Constant Matrix: (Units=GPa)
#
#
# Indices 1 2 3 4 5 6 
#
# 1 162.6281 70.5011 5.5910 0.0000 0.0000 0.0000
# 2 70.5011 113.9861 7.9179 0.0000 0.0000 0.0000
# 3 5.5910 7.9179 21.5321 0.0000 0.0000 0.0000
# 4 0.0000 0.0000 0.0000 13.9014 0.0000 0.0000
# 5 0.0000 0.0000 0.0000 0.0000 2.0661 0.0000
# 6 0.0000 0.0000 0.0000 0.0000 0.0000 26.8271
#
#
#
# Elastic Compliance Matrix: (Units=1/GPa)
#
#
# Indices 1 2 3 4 5 6 
#
# 1 0.008403 -0.005178 -0.000278 0.000000 0.000000 0.000000
# 2 -0.005178 0.012194 -0.003139 0.000000 0.000000 0.000000
# 3 -0.000278 -0.003139 0.047669 0.000000 0.000000 0.000000
# 4 0.000000 0.000000 0.000000 0.071935 0.000000 0.000000
# 5 0.000000 0.000000 0.000000 0.000000 0.484012 0.000000
# 6 0.000000 0.000000 0.000000 0.000000 0.000000 0.037276
#
#
# Mechanical properties :
#
#
# Convention : Reuss Voigt Hill
#
# Bulk Modulus (GPa) = 19.57901 51.79623 35.68762
# Shear Modulus (GPa) = 7.18695 22.83466 15.01080
#
# Velocity S-wave (km/s) = 1.76993 3.15486 2.55791
# Velocity P-wave (km/s) = 3.56524 5.98729 4.92740
#
# Compressibility (1/GPa) = 0.05107511
#
# Stress axis : x y z
#
# Youngs Moduli (GPa) = 118.99982 82.00854 20.97806
#
# Poissons Ratio (x) = 0.42466 0.00583
# Poissons Ratio (y) = 0.61621 0.06586
# Poissons Ratio (z) = 0.03306 0.25746
#
# Static dielectric constant tensor:
#      x y z
#    x 2.127870 0.000000 0.000000 
#    y 0.000000 2.733010 0.000000 
#    z 0.000000 0.000000 1.979930 
# 
# From -- ./inp_files/11267.got.cif
#   From: 2010.05.17/outbox.cif.g08.bks.cpg/sg43_6_cif.got.tgz:11267.got - 2010.06.03 19:21:55.
