data_PCOD9370124
_publ_section_title
;
Structure prediction by ZEFSAII (Michael W. Deem and Ramdas Pophale) SiO2 
 PCOD9370124
Probable space group: F D D 2
;
_chemical_formula_sum "Si O2"
_cell_formula_units_Z 112
_cell_length_a 11.482704
_cell_length_b 16.316605
_cell_length_c 27.921746
_cell_angle_alpha 90.000000
_cell_angle_beta 90.000000
_cell_angle_gamma 90.000000
_cell_volume 5231.383303
_symmetry_space_group_name_H-M "F D D 2"
_symmetry_group_IT_number 43
_symmetry_cell_setting 'orthorhombic'
loop_
_space_group_symop_operation_xyz
x,y,z
-x,-y,z
1/4-x,1/4+y,1/4+z
1/4+x,1/4-y,1/4+z
x,1/2+y,1/2+z
-x,1/2-y,1/2+z
1/4-x,3/4+y,3/4+z
1/4+x,3/4-y,3/4+z
1/2+x,y,1/2+z
1/2-x,-y,1/2+z
3/4-x,1/4+y,3/4+z
3/4+x,1/4-y,3/4+z
1/2+x,1/2+y,z
1/2-x,1/2-y,z
3/4-x,3/4+y,1/4+z
3/4+x,3/4-y,1/4+z
loop_
_atom_site_type_symbol
_atom_site_label
_atom_site_fract_x
_atom_site_fract_y
_atom_site_fract_z
Si Si1 0.765668 0.154026 0.724440
Si Si2 0.315605 0.902713 0.625787
Si Si3 0.498082 0.746945 0.120418
Si Si4 0.016845 0.689119 0.226513
Si Si5 0.750000 0.750000 0.416369
Si Si6 0.587446 0.576845 0.796462
Si Si7 0.737418 0.876194 0.502216
Si Si8 0.500000 0.500000 0.331959
O O1 0.750000 0.250000 0.712699
O O2 0.755018 0.106161 0.675042
O O3 0.654711 0.128545 0.755675
O O4 0.894125 0.150221 0.744891
O O5 0.411858 0.829084 0.625305
O O6 0.390580 0.984347 0.631957
O O7 0.228627 0.889256 0.582543
O O8 0.497912 0.798805 0.169710
O O9 0.550617 0.795567 0.075198
O O10 0.363995 0.725258 0.111439
O O11 0.110016 0.625790 0.247428
O O12 0.029356 0.780946 0.246772
O O13 0.763698 0.825847 0.453334
O O14 0.500000 0.500000 0.789793
O O15 0.782337 0.825148 0.546840
#
# Coordination Sequence:
#
# PCOD9370124 Si02
#       8
#    16  16  16  16   8  16  16   8
#     4   9  14  31  62  93 121 157 202 272 329 378
#     4  10  17  35  62  94 132 159 213 279 334 379
#     4  11  22  44  62  90 135 177 215 275 337 394
#     4  11  20  40  68  96 129 176 215 271 349 399
#     4   9  16  32  60 100 124 164 208 274 321 392
#     4  10  23  39  63  98 129 170 217 280 334 392
#     4   9  20  37  59  97 130 165 218 266 324 389
#     4  11  26  42  62  92 134 182 214 274 327 404
#
# _framework density 21.409251000000001
#
# number of rings (size 3 to 8) (size 9 to 14) (size 15 to 20)
#    0.000    2.000    5.714    0.429    4.000    1.143 
#    3.857    1.429    0.000    0.000    0.000    0.000 
#    0.000    0.000    0.000    0.000    0.000    0.000 
#
# Total GULP energy -156216.552514 kJ/mol
# GULP energy per Si atom -5579.162590 kJ/mol
# Density = 2.136052 g / cm^3
# Si number density = 21.409251 Si / 1000 Ang^3
#
#
#
# Elastic Constant Matrix: (Units=GPa)
#
#
# Indices 1 2 3 4 5 6 
#
# 1 49.3381 18.5480 6.9827 0.0000 0.0000 0.0000
# 2 18.5480 65.6086 16.3310 0.0000 0.0000 0.0000
# 3 6.9827 16.3310 28.0444 0.0000 0.0000 0.0000
# 4 0.0000 0.0000 0.0000 20.3638 0.0000 0.0000
# 5 0.0000 0.0000 0.0000 0.0000 10.6016 0.0000
# 6 0.0000 0.0000 0.0000 0.0000 0.0000 29.5030
#
#
#
# Elastic Compliance Matrix: (Units=1/GPa)
#
#
# Indices 1 2 3 4 5 6 
#
# 1 0.022799 -0.005886 -0.002249 0.000000 0.000000 0.000000
# 2 -0.005886 0.019345 -0.009800 0.000000 0.000000 0.000000
# 3 -0.002249 -0.009800 0.041924 0.000000 0.000000 0.000000
# 4 0.000000 0.000000 0.000000 0.049107 0.000000 0.000000
# 5 0.000000 0.000000 0.000000 0.000000 0.094326 0.000000
# 6 0.000000 0.000000 0.000000 0.000000 0.000000 0.033895
#
#
# Mechanical properties :
#
#
# Convention : Reuss Voigt Hill
#
# Bulk Modulus (GPa) = 20.74716 25.19052 22.96884
# Shear Modulus (GPa) = 15.95750 18.83561 17.39656
#
# Velocity S-wave (km/s) = 2.73308 2.96934 2.85366
# Velocity P-wave (km/s) = 4.43525 4.85260 4.64861
#
# Compressibility (1/GPa) = 0.04819937
#
# Stress axis : x y z
#
# Youngs Moduli (GPa) = 43.86108 51.69265 23.85243
#
# Poissons Ratio (x) = 0.30424 0.05365
# Poissons Ratio (y) = 0.25815 0.23375
# Poissons Ratio (z) = 0.09866 0.50658
#
# Static dielectric constant tensor:
#      x y z
#    x 1.818670 0.000000 0.000000 
#    y 0.000000 1.784260 0.000000 
#    z 0.000000 0.000000 1.809310 
# 
# From -- ./inp_files/25248.got.cif
#   From: 2010.05.17/outbox.cif.g08.bks.cpg/sg43_13_cif.got.tgz:25248.got - 2010.06.03 19:21:55.
