data_PCOD9370732
_publ_section_title
;
Structure prediction by ZEFSAII (Michael W. Deem and Ramdas Pophale) SiO2 
 PCOD9370732
Probable space group: F D D 2
;
_chemical_formula_sum "Si O2"
_cell_formula_units_Z 96
_cell_length_a 33.229767
_cell_length_b 11.535667
_cell_length_c 12.600566
_cell_angle_alpha 90.000000
_cell_angle_beta 90.000000
_cell_angle_gamma 90.000000
_cell_volume 4830.143799
_symmetry_space_group_name_H-M "F D D 2"
_symmetry_group_IT_number 43
_symmetry_cell_setting 'orthorhombic'
loop_
_space_group_symop_operation_xyz
x,y,z
-x,-y,z
1/4-x,1/4+y,1/4+z
1/4+x,1/4-y,1/4+z
x,1/2+y,1/2+z
-x,1/2-y,1/2+z
1/4-x,3/4+y,3/4+z
1/4+x,3/4-y,3/4+z
1/2+x,y,1/2+z
1/2-x,-y,1/2+z
3/4-x,1/4+y,3/4+z
3/4+x,1/4-y,3/4+z
1/2+x,1/2+y,z
1/2-x,1/2-y,z
3/4-x,3/4+y,1/4+z
3/4+x,3/4-y,1/4+z
loop_
_atom_site_type_symbol
_atom_site_label
_atom_site_fract_x
_atom_site_fract_y
_atom_site_fract_z
Si Si1 0.500000 0.500000 0.539950
Si Si2 0.851001 0.089904 0.608610
Si Si3 0.330141 0.676133 0.378039
Si Si4 0.915054 0.467149 0.579099
Si Si5 0.200079 0.145667 0.607207
Si Si6 0.875327 0.957038 0.292367
Si Si7 0.500000 0.000000 0.675671
O O1 0.533203 0.563417 0.609033
O O2 0.476527 0.585908 0.461064
O O3 0.840154 0.154811 0.500821
O O4 0.844296 0.161388 0.715869
O O5 0.896532 0.043775 0.598533
O O6 0.824069 0.973348 0.610549
O O7 0.348109 0.571380 0.307372
O O8 0.888625 0.415810 0.675252
O O9 0.900484 0.601102 0.587192
O O10 0.962313 0.456817 0.606478
O O11 0.167478 0.251037 0.595742
O O12 0.229644 0.156914 0.505825
#
# Coordination Sequence:
#
# PCOD9370732 Si02
#       7
#     8  16  16  16  16  16   8
#     4  11  22  37  62  88 112 147 202 247 288 344
#     4  11  23  39  60  86 123 157 195 245 302 358
#     4  11  22  40  61  86 118 161 199 241 298 367
#     4  11  22  38  61  90 118 153 200 253 297 351
#     4   9  20  40  61  86 116 156 198 244 296 360
#     4  10  20  39  63  83 114 160 200 234 297 371
#     4   9  20  37  58  84 118 155 202 245 296 362
#
# _framework density 19.875184000000001
#
# number of rings (size 3 to 8) (size 9 to 14) (size 15 to 20)
#    0.000    1.667    0.000    7.000    0.000    3.333 
#    0.000    6.667    0.000    0.000    0.000    0.000 
#    0.000    0.000    0.000    0.000    0.000    0.000 
#
# Total GULP energy -133988.462101 kJ/mol
# GULP energy per Si atom -5582.852588 kJ/mol
# Density = 1.982995 g / cm^3
# Si number density = 19.875184 Si / 1000 Ang^3
#
#
#
# Elastic Constant Matrix: (Units=GPa)
#
#
# Indices 1 2 3 4 5 6 
#
# 1 142.3680 38.5461 47.2495 0.0000 0.0000 0.0000
# 2 38.5461 45.7680 22.9906 0.0000 0.0000 0.0000
# 3 47.2495 22.9906 117.8206 0.0000 0.0000 0.0000
# 4 0.0000 0.0000 0.0000 25.2179 0.0000 0.0000
# 5 0.0000 0.0000 0.0000 0.0000 34.3406 0.0000
# 6 0.0000 0.0000 0.0000 0.0000 0.0000 21.4498
#
#
#
# Elastic Compliance Matrix: (Units=1/GPa)
#
#
# Indices 1 2 3 4 5 6 
#
# 1 0.009748 -0.006925 -0.002558 0.000000 0.000000 0.000000
# 2 -0.006925 0.029143 -0.002910 0.000000 0.000000 0.000000
# 3 -0.002558 -0.002910 0.010081 0.000000 0.000000 0.000000
# 4 0.000000 0.000000 0.000000 0.039654 0.000000 0.000000
# 5 0.000000 0.000000 0.000000 0.000000 0.029120 0.000000
# 6 0.000000 0.000000 0.000000 0.000000 0.000000 0.046621
#
#
# Mechanical properties :
#
#
# Convention : Reuss Voigt Hill
#
# Bulk Modulus (GPa) = 41.34433 58.16990 49.75712
# Shear Modulus (GPa) = 25.35315 29.34635 27.34975
#
# Velocity S-wave (km/s) = 3.57545 3.84674 3.71357
# Velocity P-wave (km/s) = 6.15567 7.00435 6.59368
#
# Compressibility (1/GPa) = 0.02418711
#
# Stress axis : x y z
#
# Youngs Moduli (GPa) = 102.58654 34.31350 99.19594
#
# Poissons Ratio (x) = 0.23761 0.25374
# Poissons Ratio (y) = 0.71039 0.28863
# Poissons Ratio (z) = 0.26241 0.09984
#
# Static dielectric constant tensor:
#      x y z
#    x 1.688190 0.000000 0.000000 
#    y 0.000000 1.704020 0.000000 
#    z 0.000000 0.000000 1.731220 
# 
# From -- ./inp_files/11658.got.cif
#   From: 2010.05.17/outbox.cif.g08.bks.cpg/sg43_6_cif.got.tgz:11658.got - 2010.06.03 19:21:55.
