data_PCOD9370921
_publ_section_title
;
Structure prediction by ZEFSAII (Michael W. Deem and Ramdas Pophale) SiO2 
 PCOD9370921
Probable space group: F D D 2
;
_chemical_formula_sum "Si O2"
_cell_formula_units_Z 72
_cell_length_a 9.716424
_cell_length_b 11.400853
_cell_length_c 30.514172
_cell_angle_alpha 90.000000
_cell_angle_beta 90.000000
_cell_angle_gamma 90.000000
_cell_volume 3380.223323
_symmetry_space_group_name_H-M "F D D 2"
_symmetry_group_IT_number 43
_symmetry_cell_setting 'orthorhombic'
loop_
_space_group_symop_operation_xyz
x,y,z
-x,-y,z
1/4-x,1/4+y,1/4+z
1/4+x,1/4-y,1/4+z
x,1/2+y,1/2+z
-x,1/2-y,1/2+z
1/4-x,3/4+y,3/4+z
1/4+x,3/4-y,3/4+z
1/2+x,y,1/2+z
1/2-x,-y,1/2+z
3/4-x,1/4+y,3/4+z
3/4+x,1/4-y,3/4+z
1/2+x,1/2+y,z
1/2-x,1/2-y,z
3/4-x,3/4+y,1/4+z
3/4+x,3/4-y,1/4+z
loop_
_atom_site_type_symbol
_atom_site_label
_atom_site_fract_x
_atom_site_fract_y
_atom_site_fract_z
Si Si1 0.203141 0.119869 0.996150
Si Si2 0.535765 0.310008 0.929912
Si Si3 0.159334 0.998264 0.087282
Si Si4 0.250000 0.250000 0.609170
Si Si5 0.324396 0.438878 0.437967
O O1 0.250000 0.250000 0.006839
O O2 0.085013 0.139726 0.959669
O O3 0.319879 0.035994 0.975613
O O4 0.156679 0.061736 0.041187
O O5 0.507377 0.306047 0.877659
O O6 0.578152 0.175715 0.942268
O O7 0.670982 0.387934 0.936692
O O8 0.221446 0.867646 0.082303
O O9 0.000000 0.000000 0.103226
O O10 0.378857 0.251730 0.642955
#
# Coordination Sequence:
#
# PCOD9370921 Si02
#       5
#    16  16  16   8  16
#     4  12  26  39  65 103 139 179 233 286 345 426
#     4  10  21  44  71  92 136 180 223 290 352 405
#     4  11  22  43  65 100 132 178 234 284 348 419
#     4  10  20  42  74  90 136 178 230 282 350 414
#     4  10  20  42  68  95 127 181 227 283 354 409
#
# _framework density 21.300369
#
# number of rings (size 3 to 8) (size 9 to 14) (size 15 to 20)
#    0.000    1.333    4.444    4.667    0.000    5.333 
#    0.000    0.000    7.333    0.000    0.000    0.000 
#    0.000    0.000    0.000    0.000    0.000    0.000 
#
# Total GULP energy -100495.525010 kJ/mol
# GULP energy per Si atom -5583.084723 kJ/mol
# Density = 2.125189 g / cm^3
# Si number density = 21.300369 Si / 1000 Ang^3
#
#
#
# Elastic Constant Matrix: (Units=GPa)
#
#
# Indices 1 2 3 4 5 6 
#
# 1 65.0615 35.5066 31.9799 0.0000 0.0000 0.0000
# 2 35.5066 142.9987 55.0729 0.0000 0.0000 0.0000
# 3 31.9799 55.0729 134.2919 0.0000 0.0000 0.0000
# 4 0.0000 0.0000 0.0000 48.9005 0.0000 0.0000
# 5 0.0000 0.0000 0.0000 0.0000 21.9987 0.0000
# 6 0.0000 0.0000 0.0000 0.0000 0.0000 30.2241
#
#
#
# Elastic Compliance Matrix: (Units=1/GPa)
#
#
# Indices 1 2 3 4 5 6 
#
# 1 0.018768 -0.003490 -0.003038 0.000000 0.000000 0.000000
# 2 -0.003490 0.008954 -0.002841 0.000000 0.000000 0.000000
# 3 -0.003038 -0.002841 0.009335 0.000000 0.000000 0.000000
# 4 0.000000 0.000000 0.000000 0.020450 0.000000 0.000000
# 5 0.000000 0.000000 0.000000 0.000000 0.045457 0.000000
# 6 0.000000 0.000000 0.000000 0.000000 0.000000 0.033086
#
#
# Mechanical properties :
#
#
# Convention : Reuss Voigt Hill
#
# Bulk Modulus (GPa) = 54.58865 65.27454 59.93159
# Shear Modulus (GPa) = 31.07636 34.87752 32.97694
#
# Velocity S-wave (km/s) = 3.82378 4.05089 3.93897
# Velocity P-wave (km/s) = 6.72151 7.25196 6.99177
#
# Compressibility (1/GPa) = 0.01831883
#
# Stress axis : x y z
#
# Youngs Moduli (GPa) = 53.28205 111.68548 107.12424
#
# Poissons Ratio (x) = 0.38979 0.32546
# Poissons Ratio (y) = 0.18596 0.30432
# Poissons Ratio (z) = 0.16188 0.31728
#
# Static dielectric constant tensor:
#      x y z
#    x 1.766200 0.000000 0.000000 
#    y 0.000000 1.811900 0.000000 
#    z 0.000000 0.000000 1.765650 
# 
# From -- ./inp_files/24850.got.cif
#   From: 2010.05.17/outbox.cif.g08.bks.cpg/sg43_13_cif.got.tgz:24850.got - 2010.06.03 19:21:55.
