data_PCOD9370466
_publ_section_title
;
Structure prediction by ZEFSAII (Michael W. Deem and Ramdas Pophale) SiO2 
 PCOD9370466
Probable space group: F D D 2
;
_chemical_formula_sum "Si O2"
_cell_formula_units_Z 112
_cell_length_a 14.591930
_cell_length_b 13.640394
_cell_length_c 26.251377
_cell_angle_alpha 90.000000
_cell_angle_beta 90.000000
_cell_angle_gamma 90.000000
_cell_volume 5225.065531
_symmetry_space_group_name_H-M "F D D 2"
_symmetry_group_IT_number 43
_symmetry_cell_setting 'orthorhombic'
loop_
_space_group_symop_operation_xyz
x,y,z
-x,-y,z
1/4-x,1/4+y,1/4+z
1/4+x,1/4-y,1/4+z
x,1/2+y,1/2+z
-x,1/2-y,1/2+z
1/4-x,3/4+y,3/4+z
1/4+x,3/4-y,3/4+z
1/2+x,y,1/2+z
1/2-x,-y,1/2+z
3/4-x,1/4+y,3/4+z
3/4+x,1/4-y,3/4+z
1/2+x,1/2+y,z
1/2-x,1/2-y,z
3/4-x,3/4+y,1/4+z
3/4+x,3/4-y,1/4+z
loop_
_atom_site_type_symbol
_atom_site_label
_atom_site_fract_x
_atom_site_fract_y
_atom_site_fract_z
Si Si1 0.158484 0.961751 0.614230
Si Si2 0.500000 0.000000 0.712921
Si Si3 0.188808 0.848117 0.716439
Si Si4 0.901533 0.181088 0.219143
Si Si5 0.151459 0.194495 0.628092
Si Si6 0.806274 0.997846 0.043742
Si Si7 0.662530 0.064768 0.787795
Si Si8 0.000000 0.500000 0.036617
O O1 0.153950 0.899378 0.665386
O O2 0.257052 0.939835 0.588547
O O3 0.075039 0.950055 0.573967
O O4 0.161465 0.078299 0.626036
O O5 0.551835 0.908093 0.687623
O O6 0.417838 0.964068 0.748821
O O7 0.250000 0.750000 0.705742
O O8 0.105014 0.815980 0.751430
O O9 0.250003 0.917867 0.752611
O O10 0.890711 0.271036 0.181177
O O11 0.804091 0.175441 0.248555
O O12 0.971876 0.200108 0.264817
O O13 0.250000 0.250000 0.622469
O O14 0.088822 0.235768 0.582463
O O15 0.878954 0.080373 0.060500
#
# Coordination Sequence:
#
# PCOD9370466 Si02
#       8
#    16   8  16  16  16  16  16   8
#     4  11  24  42  70  96 138 180 230 294 357 419
#     4  10  20  39  62  96 134 170 221 282 338 408
#     4  10  24  45  68  93 138 185 238 284 353 424
#     4  10  22  39  66  99 138 175 221 283 354 421
#     4  12  22  38  66 106 136 169 230 285 362 424
#     4   9  20  44  62  92 133 175 227 286 339 414
#     4  10  19  39  64  92 131 176 217 285 335 412
#     4  10  22  41  66  98 134 178 225 282 354 420
#
# _framework density 21.435137999999998
#
# number of rings (size 3 to 8) (size 9 to 14) (size 15 to 20)
#    0.000    1.714    2.857    1.714    4.000    1.143 
#   11.571    2.857    0.000    0.000    0.000    0.000 
#    0.000    0.000    0.000    0.000    0.000    0.000 
#
# Total GULP energy -156207.825586 kJ/mol
# GULP energy per Si atom -5578.850914 kJ/mol
# Density = 2.138635 g / cm^3
# Si number density = 21.435138 Si / 1000 Ang^3
#
#
#
# Elastic Constant Matrix: (Units=GPa)
#
#
# Indices 1 2 3 4 5 6 
#
# 1 69.6343 29.2546 14.3043 0.0000 0.0000 0.0000
# 2 29.2546 82.9617 45.1233 0.0000 0.0000 0.0000
# 3 14.3043 45.1233 81.7335 0.0000 0.0000 0.0000
# 4 0.0000 0.0000 0.0000 34.9644 0.0000 0.0000
# 5 0.0000 0.0000 0.0000 0.0000 42.8904 0.0000
# 6 0.0000 0.0000 0.0000 0.0000 0.0000 21.8509
#
#
#
# Elastic Compliance Matrix: (Units=1/GPa)
#
#
# Indices 1 2 3 4 5 6 
#
# 1 0.016871 -0.006207 0.000474 0.000000 0.000000 0.000000
# 2 -0.006207 0.019510 -0.009685 0.000000 0.000000 0.000000
# 3 0.000474 -0.009685 0.017499 0.000000 0.000000 0.000000
# 4 0.000000 0.000000 0.000000 0.028601 0.000000 0.000000
# 5 0.000000 0.000000 0.000000 0.000000 0.023315 0.000000
# 6 0.000000 0.000000 0.000000 0.000000 0.000000 0.045765
#
#
# Mechanical properties :
#
#
# Convention : Reuss Voigt Hill
#
# Bulk Modulus (GPa) = 43.39452 45.74379 44.56915
# Shear Modulus (GPa) = 26.30506 29.65094 27.97800
#
# Velocity S-wave (km/s) = 3.50693 3.72329 3.61673
# Velocity P-wave (km/s) = 6.05695 6.31433 6.18698
#
# Compressibility (1/GPa) = 0.02304438
#
# Stress axis : x y z
#
# Youngs Moduli (GPa) = 59.27314 51.25530 57.14712
#
# Poissons Ratio (x) = 0.31815 -0.02710
# Poissons Ratio (y) = 0.36791 0.55346
# Poissons Ratio (z) = -0.02811 0.49640
#
# Static dielectric constant tensor:
#      x y z
#    x 1.560330 0.000000 0.000000 
#    y 0.000000 1.721480 0.000000 
#    z 0.000000 0.000000 1.760860 
# 
# From -- ./inp_files/21768.got.cif
#   From: 2010.05.17/outbox.cif.g08.bks.cpg/sg43_11_cif.got.tgz:21768.got - 2010.06.03 19:21:55.
