data_PCOD9370066
_publ_section_title
;
Structure prediction by ZEFSAII (Michael W. Deem and Ramdas Pophale) SiO2 
 PCOD9370066
Probable space group: F D D 2
;
_chemical_formula_sum "Si O2"
_cell_formula_units_Z 88
_cell_length_a 8.714483
_cell_length_b 26.766995
_cell_length_c 12.978354
_cell_angle_alpha 90.000000
_cell_angle_beta 90.000000
_cell_angle_gamma 90.000000
_cell_volume 3027.337640
_symmetry_space_group_name_H-M "F D D 2"
_symmetry_group_IT_number 43
_symmetry_cell_setting 'orthorhombic'
loop_
_space_group_symop_operation_xyz
x,y,z
-x,-y,z
1/4-x,1/4+y,1/4+z
1/4+x,1/4-y,1/4+z
x,1/2+y,1/2+z
-x,1/2-y,1/2+z
1/4-x,3/4+y,3/4+z
1/4+x,3/4-y,3/4+z
1/2+x,y,1/2+z
1/2-x,-y,1/2+z
3/4-x,1/4+y,3/4+z
3/4+x,1/4-y,3/4+z
1/2+x,1/2+y,z
1/2-x,1/2-y,z
3/4-x,3/4+y,1/4+z
3/4+x,3/4-y,1/4+z
loop_
_atom_site_type_symbol
_atom_site_label
_atom_site_fract_x
_atom_site_fract_y
_atom_site_fract_z
Si Si1 0.537319 0.293737 0.010180
Si Si2 0.126836 0.187496 0.263301
Si Si3 0.296459 0.446810 0.013323
Si Si4 0.457335 0.921065 0.033171
Si Si5 0.388191 0.569911 0.260674
Si Si6 0.250000 0.750000 0.461249
O O1 0.684478 0.324991 0.044640
O O2 0.586544 0.236515 0.031855
O O3 0.533867 0.305979 0.887838
O O4 0.356611 0.286293 0.030544
O O5 0.296432 0.168491 0.229604
O O6 0.096076 0.246271 0.245260
O O7 0.133450 0.179055 0.386381
O O8 0.959658 0.168781 0.227258
O O9 0.118799 0.437432 0.982629
O O10 0.472232 0.862278 0.055871
O O11 0.432456 0.959197 0.129189
#
# Coordination Sequence:
#
# PCOD9370066 Si02
#       6
#    16  16  16  16  16   8
#     4   8  15  31  45  65  94 136 151 215 242 300
#     4   9  15  30  44  64  99 134 148 208 254 292
#     4   8  15  27  48  66  92 125 166 194 252 284
#     4  11  16  27  48  78  91 125 168 216 236 310
#     4   9  17  27  47  71 100 117 175 205 254 289
#     4  10  16  30  56  66 100 132 180 202 266 284
#
# _framework density 29.068446999999999
#
# number of rings (size 3 to 8) (size 9 to 14) (size 15 to 20)
#    0.000    2.909    5.455    2.182    0.000    0.000 
#    3.273    0.000    0.000    2.182    0.000    0.000 
#    0.000    0.000    0.000    0.000    0.000    0.000 
#
# Total GULP energy -122656.911871 kJ/mol
# GULP energy per Si atom -5575.314176 kJ/mol
# Density = 2.900229 g / cm^3
# Si number density = 29.068447 Si / 1000 Ang^3
#
#
#
# Elastic Constant Matrix: (Units=GPa)
#
#
# Indices 1 2 3 4 5 6 
#
# 1 312.6393 39.2233 42.6026 0.0000 0.0000 0.0000
# 2 39.2233 114.2944 10.5891 0.0000 0.0000 0.0000
# 3 42.6026 10.5891 86.1198 0.0000 0.0000 0.0000
# 4 0.0000 0.0000 0.0000 8.3090 0.0000 0.0000
# 5 0.0000 0.0000 0.0000 0.0000 92.9329 0.0000
# 6 0.0000 0.0000 0.0000 0.0000 0.0000 47.4849
#
#
#
# Elastic Compliance Matrix: (Units=1/GPa)
#
#
# Indices 1 2 3 4 5 6 
#
# 1 0.003554 -0.001069 -0.001627 0.000000 0.000000 0.000000
# 2 -0.001069 0.009172 -0.000599 0.000000 0.000000 0.000000
# 3 -0.001627 -0.000599 0.012490 0.000000 0.000000 0.000000
# 4 0.000000 0.000000 0.000000 0.120352 0.000000 0.000000
# 5 0.000000 0.000000 0.000000 0.000000 0.010760 0.000000
# 6 0.000000 0.000000 0.000000 0.000000 0.000000 0.021059
#
#
# Mechanical properties :
#
#
# Convention : Reuss Voigt Hill
#
# Bulk Modulus (GPa) = 53.68658 77.54263 65.61460
# Shear Modulus (GPa) = 26.28999 57.78793 42.03896
#
# Velocity S-wave (km/s) = 3.01061 4.46353 3.80703
# Velocity P-wave (km/s) = 5.53120 7.30054 6.47658
#
# Compressibility (1/GPa) = 0.01862663
#
# Stress axis : x y z
#
# Youngs Moduli (GPa) = 281.34247 109.03106 80.06301
#
# Poissons Ratio (x) = 0.11656 0.13025
# Poissons Ratio (y) = 0.30077 0.04795
# Poissons Ratio (z) = 0.45771 0.06530
#
# Static dielectric constant tensor:
#      x y z
#    x 2.358540 0.000000 0.000000 
#    y 0.000000 2.741350 0.000000 
#    z 0.000000 0.000000 2.392730 
# 
# From -- ./inp_files/20484.got.cif
#   From: 2010.05.17/outbox.cif.g08.bks.cpg/sg43_11_cif.got.tgz:20484.got - 2010.06.03 19:21:55.
