data_PCOD9370703
_publ_section_title
;
Structure prediction by ZEFSAII (Michael W. Deem and Ramdas Pophale) SiO2 
 PCOD9370703
Probable space group: F D D 2
;
_chemical_formula_sum "Si O2"
_cell_formula_units_Z 72
_cell_length_a 7.504380
_cell_length_b 17.013590
_cell_length_c 21.177042
_cell_angle_alpha 90.000000
_cell_angle_beta 90.000000
_cell_angle_gamma 90.000000
_cell_volume 2703.809428
_symmetry_space_group_name_H-M "F D D 2"
_symmetry_group_IT_number 43
_symmetry_cell_setting 'orthorhombic'
loop_
_space_group_symop_operation_xyz
x,y,z
-x,-y,z
1/4-x,1/4+y,1/4+z
1/4+x,1/4-y,1/4+z
x,1/2+y,1/2+z
-x,1/2-y,1/2+z
1/4-x,3/4+y,3/4+z
1/4+x,3/4-y,3/4+z
1/2+x,y,1/2+z
1/2-x,-y,1/2+z
3/4-x,1/4+y,3/4+z
3/4+x,1/4-y,3/4+z
1/2+x,1/2+y,z
1/2-x,1/2-y,z
3/4-x,3/4+y,1/4+z
3/4+x,3/4-y,1/4+z
loop_
_atom_site_type_symbol
_atom_site_label
_atom_site_fract_x
_atom_site_fract_y
_atom_site_fract_z
Si Si1 0.250000 0.250000 0.400030
Si Si2 0.983839 0.223558 0.600136
Si Si3 0.880557 0.115881 0.805825
Si Si4 0.583754 0.311876 0.369208
Si Si5 0.213813 0.499797 0.983016
O O1 0.171465 0.321243 0.358385
O O2 0.435111 0.290645 0.421880
O O3 0.010016 0.294705 0.550722
O O4 0.814099 0.175232 0.576703
O O5 0.117785 0.153663 0.617925
O O6 0.962045 0.272598 0.665274
O O7 0.936497 0.166785 0.745612
O O8 0.750000 0.250000 0.375543
O O9 0.507539 0.297904 0.297595
O O10 0.000000 0.500000 0.978686
#
# Coordination Sequence:
#
# PCOD9370703 Si02
#       5
#     8  16  16  16  16
#     4  10  20  38  66  88 134 182 210 286 348 392
#     4  11  22  41  69 101 134 183 233 288 351 414
#     4  10  23  43  67 102 139 174 238 294 341 424
#     4  10  20  43  65  98 139 177 229 291 342 411
#     4  10  21  43  69  99 137 192 221 287 370 416
#
# _framework density 26.629095
#
# number of rings (size 3 to 8) (size 9 to 14) (size 15 to 20)
#    0.000    1.778    6.667    0.000    3.111    7.111 
#    4.000    2.222    0.000    0.000    2.889    0.000 
#    0.000    0.000    0.000    0.000    0.000    0.000 
#
# Total GULP energy -100335.988254 kJ/mol
# GULP energy per Si atom -5574.221570 kJ/mol
# Density = 2.656849 g / cm^3
# Si number density = 26.629095 Si / 1000 Ang^3
#
#
#
# Elastic Constant Matrix: (Units=GPa)
#
#
# Indices 1 2 3 4 5 6 
#
# 1 68.0676 34.4415 -21.0198 0.0000 0.0000 0.0000
# 2 34.4415 193.1189 18.7396 0.0000 0.0000 0.0000
# 3 -21.0198 18.7396 69.4488 0.0000 0.0000 0.0000
# 4 0.0000 0.0000 0.0000 25.9623 0.0000 0.0000
# 5 0.0000 0.0000 0.0000 0.0000 17.5974 0.0000
# 6 0.0000 0.0000 0.0000 0.0000 0.0000 58.3379
#
#
#
# Elastic Compliance Matrix: (Units=1/GPa)
#
#
# Indices 1 2 3 4 5 6 
#
# 1 0.018815 -0.004013 0.006778 0.000000 0.000000 0.000000
# 2 -0.004013 0.006173 -0.002880 0.000000 0.000000 0.000000
# 3 0.006778 -0.002880 0.017228 0.000000 0.000000 0.000000
# 4 0.000000 0.000000 0.000000 0.038517 0.000000 0.000000
# 5 0.000000 0.000000 0.000000 0.000000 0.056826 0.000000
# 6 0.000000 0.000000 0.000000 0.000000 0.000000 0.017142
#
#
# Mechanical properties :
#
#
# Convention : Reuss Voigt Hill
#
# Bulk Modulus (GPa) = 23.81879 43.88422 33.85150
# Shear Modulus (GPa) = 29.59840 40.27779 34.93809
#
# Velocity S-wave (km/s) = 3.33754 3.89337 3.62612
# Velocity P-wave (km/s) = 4.88020 6.06025 5.50195
#
# Compressibility (1/GPa) = 0.04198367
#
# Stress axis : x y z
#
# Youngs Moduli (GPa) = 53.14957 161.98565 58.04617
#
# Poissons Ratio (x) = 0.65008 -0.39341
# Poissons Ratio (y) = 0.21330 0.16720
# Poissons Ratio (z) = -0.36022 0.46659
#
# Static dielectric constant tensor:
#      x y z
#    x 2.262970 0.000000 0.000000 
#    y 0.000000 2.138670 0.000000 
#    z 0.000000 0.000000 2.002220 
# 
# From -- ./inp_files/20075.got.cif
#   From: 2010.05.17/outbox.cif.g08.bks.cpg/sg43_11_cif.got.tgz:20075.got - 2010.06.03 19:21:55.
