data_PCOD9370866
_publ_section_title
;
Structure prediction by ZEFSAII (Michael W. Deem and Ramdas Pophale) SiO2 
 PCOD9370866
Probable space group: F D D 2
;
_chemical_formula_sum "Si O2"
_cell_formula_units_Z 64
_cell_length_a 10.129683
_cell_length_b 20.395918
_cell_length_c 17.371685
_cell_angle_alpha 90.000000
_cell_angle_beta 90.000000
_cell_angle_gamma 90.000000
_cell_volume 3589.062801
_symmetry_space_group_name_H-M "F D D 2"
_symmetry_group_IT_number 43
_symmetry_cell_setting 'orthorhombic'
loop_
_space_group_symop_operation_xyz
x,y,z
-x,-y,z
1/4-x,1/4+y,1/4+z
1/4+x,1/4-y,1/4+z
x,1/2+y,1/2+z
-x,1/2-y,1/2+z
1/4-x,3/4+y,3/4+z
1/4+x,3/4-y,3/4+z
1/2+x,y,1/2+z
1/2-x,-y,1/2+z
3/4-x,1/4+y,3/4+z
3/4+x,1/4-y,3/4+z
1/2+x,1/2+y,z
1/2-x,1/2-y,z
3/4-x,3/4+y,1/4+z
3/4+x,3/4-y,1/4+z
loop_
_atom_site_type_symbol
_atom_site_label
_atom_site_fract_x
_atom_site_fract_y
_atom_site_fract_z
Si Si1 0.000000 0.500000 0.093270
Si Si2 0.103856 0.637604 0.121312
Si Si3 0.891959 0.119925 0.191781
Si Si4 0.750000 0.750000 0.341278
Si Si5 0.000728 0.242508 0.733039
O O1 0.954171 0.435019 0.137213
O O2 0.876989 0.517331 0.038623
O O3 0.016935 0.690762 0.165091
O O4 0.106683 0.648792 0.029667
O O5 0.254983 0.639381 0.150364
O O6 0.984247 0.183934 0.199912
O O7 0.959232 0.061255 0.144920
O O8 0.627313 0.765222 0.285446
#
# Coordination Sequence:
#
# PCOD9370866 Si02
#       5
#     8  16  16   8  16
#     4  10  20  41  65  92 124 168 212 256 316 379
#     4  11  21  44  70  91 127 177 219 253 329 385
#     4  11  23  42  67  94 125 180 211 265 323 386
#     4  12  26  41  65 104 134 156 224 276 314 377
#     4  11  23  44  65  95 133 165 216 272 313 384
#
# _framework density 17.831952000000001
#
# number of rings (size 3 to 8) (size 9 to 14) (size 15 to 20)
#    0.000    1.000   10.000    0.000    3.500    2.000 
#    4.500    0.000    0.000    0.000    0.000    0.000 
#    0.000    0.000    0.000    0.000    0.000    0.000 
#
# Total GULP energy -89314.021522 kJ/mol
# GULP energy per Si atom -5582.126345 kJ/mol
# Density = 1.779137 g / cm^3
# Si number density = 17.831952 Si / 1000 Ang^3
#
#
#
# Elastic Constant Matrix: (Units=GPa)
#
#
# Indices 1 2 3 4 5 6 
#
# 1 99.4911 20.1217 42.8252 0.0000 0.0000 0.0000
# 2 20.1217 125.0151 62.0325 0.0000 0.0000 0.0000
# 3 42.8252 62.0325 111.0461 0.0000 0.0000 0.0000
# 4 0.0000 0.0000 0.0000 39.3472 0.0000 0.0000
# 5 0.0000 0.0000 0.0000 0.0000 51.7572 0.0000
# 6 0.0000 0.0000 0.0000 0.0000 0.0000 28.3317
#
#
#
# Elastic Compliance Matrix: (Units=1/GPa)
#
#
# Indices 1 2 3 4 5 6 
#
# 1 0.012075 0.000508 -0.004941 0.000000 0.000000 0.000000
# 2 0.000508 0.011088 -0.006390 0.000000 0.000000 0.000000
# 3 -0.004941 -0.006390 0.014480 0.000000 0.000000 0.000000
# 4 0.000000 0.000000 0.000000 0.025415 0.000000 0.000000
# 5 0.000000 0.000000 0.000000 0.000000 0.019321 0.000000
# 6 0.000000 0.000000 0.000000 0.000000 0.000000 0.035296
#
#
# Mechanical properties :
#
#
# Convention : Reuss Voigt Hill
#
# Bulk Modulus (GPa) = 62.50684 65.05678 63.78181
# Shear Modulus (GPa) = 34.56562 37.92541 36.24552
#
# Velocity S-wave (km/s) = 4.40751 4.61675 4.51335
# Velocity P-wave (km/s) = 7.81223 8.06112 7.93765
#
# Compressibility (1/GPa) = 0.01599825
#
# Stress axis : x y z
#
# Youngs Moduli (GPa) = 82.81563 90.18840 69.06044
#
# Poissons Ratio (x) = -0.04581 0.34119
# Poissons Ratio (y) = -0.04207 0.44128
# Poissons Ratio (z) = 0.40915 0.57629
#
# Static dielectric constant tensor:
#      x y z
#    x 1.585080 0.000000 0.000000 
#    y 0.000000 1.633510 0.000000 
#    z 0.000000 0.000000 1.591320 
# 
# From -- ./inp_files/11599.got.cif
#   From: 2010.05.17/outbox.cif.g08.bks.cpg/sg43_6_cif.got.tgz:11599.got - 2010.06.03 19:21:55.
