data_PCOD9370349
_publ_section_title
;
Structure prediction by ZEFSAII (Michael W. Deem and Ramdas Pophale) SiO2 
 PCOD9370349
Probable space group: F D D 2
;
_chemical_formula_sum "Si O2"
_cell_formula_units_Z 112
_cell_length_a 10.655667
_cell_length_b 15.535025
_cell_length_c 26.441064
_cell_angle_alpha 90.000000
_cell_angle_beta 90.000000
_cell_angle_gamma 90.000000
_cell_volume 4376.949378
_symmetry_space_group_name_H-M "F D D 2"
_symmetry_group_IT_number 43
_symmetry_cell_setting 'orthorhombic'
loop_
_space_group_symop_operation_xyz
x,y,z
-x,-y,z
1/4-x,1/4+y,1/4+z
1/4+x,1/4-y,1/4+z
x,1/2+y,1/2+z
-x,1/2-y,1/2+z
1/4-x,3/4+y,3/4+z
1/4+x,3/4-y,3/4+z
1/2+x,y,1/2+z
1/2-x,-y,1/2+z
3/4-x,1/4+y,3/4+z
3/4+x,1/4-y,3/4+z
1/2+x,1/2+y,z
1/2-x,1/2-y,z
3/4-x,3/4+y,1/4+z
3/4+x,3/4-y,1/4+z
loop_
_atom_site_type_symbol
_atom_site_label
_atom_site_fract_x
_atom_site_fract_y
_atom_site_fract_z
Si Si1 0.932125 0.908590 0.454540
Si Si2 0.646410 0.054298 0.355929
Si Si3 0.237873 0.972441 0.588484
Si Si4 0.666593 0.676469 0.270796
Si Si5 0.365784 0.009671 0.779067
Si Si6 0.679455 0.823732 0.912996
Si Si7 0.298224 0.624964 0.877240
O O1 0.879191 0.846318 0.497401
O O2 0.818464 0.902701 0.413210
O O3 0.055455 0.859396 0.436383
O O4 0.000000 0.000000 0.467203
O O5 0.565541 0.127343 0.327325
O O6 0.753368 0.025558 0.316629
O O7 0.717793 0.105508 0.400123
O O8 0.613436 0.959816 0.376739
O O9 0.350191 0.953676 0.629801
O O10 0.294683 0.022278 0.540670
O O11 0.126882 0.027714 0.612777
O O12 0.750000 0.750000 0.244180
O O13 0.649059 0.580904 0.248159
O O14 0.737285 0.650220 0.323118
O O15 0.500000 0.000000 0.806982
O O16 0.750000 0.750000 0.944263
#
# Coordination Sequence:
#
# PCOD9370349 Si02
#       7
#    16  16  16  16  16  16  16
#     4  12  25  42  63  95 142 185 223 279 349 407
#     4  10  21  40  65  97 127 171 223 280 333 410
#     4  10  19  34  68  99 127 155 225 285 334 391
#     4   9  19  38  65  96 126 172 222 275 331 396
#     4  11  26  40  64  98 137 179 226 276 347 409
#     4  10  21  37  62  91 124 171 222 277 328 393
#     4  10  20  36  66  99 127 171 222 283 325 401
#
# _framework density 25.588598000000001
#
# number of rings (size 3 to 8) (size 9 to 14) (size 15 to 20)
#    0.000    1.714    2.857    1.286    4.000    2.857 
#    0.000    5.714    0.000    0.000    0.000    0.000 
#    0.000    0.000    0.000    0.000    0.000    0.000 
#
# Total GULP energy -156106.013306 kJ/mol
# GULP energy per Si atom -5575.214761 kJ/mol
# Density = 2.553036 g / cm^3
# Si number density = 25.588598 Si / 1000 Ang^3
#
#
#
# Elastic Constant Matrix: (Units=GPa)
#
#
# Indices 1 2 3 4 5 6 
#
# 1 47.6582 60.2532 -7.2947 0.0000 0.0000 0.0000
# 2 60.2532 189.1756 19.9608 0.0000 0.0000 0.0000
# 3 -7.2947 19.9608 24.9449 0.0000 0.0000 0.0000
# 4 0.0000 0.0000 0.0000 15.6910 0.0000 0.0000
# 5 0.0000 0.0000 0.0000 0.0000 50.1559 0.0000
# 6 0.0000 0.0000 0.0000 0.0000 0.0000 68.1147
#
#
#
# Elastic Compliance Matrix: (Units=1/GPa)
#
#
# Indices 1 2 3 4 5 6 
#
# 1 0.049246 -0.018791 0.029438 0.000000 0.000000 0.000000
# 2 -0.018791 0.012944 -0.015853 0.000000 0.000000 0.000000
# 3 0.029438 -0.015853 0.061382 0.000000 0.000000 0.000000
# 4 0.000000 0.000000 0.000000 0.063731 0.000000 0.000000
# 5 0.000000 0.000000 0.000000 0.000000 0.019938 0.000000
# 6 0.000000 0.000000 0.000000 0.000000 0.000000 0.014681
#
#
# Mechanical properties :
#
#
# Convention : Reuss Voigt Hill
#
# Bulk Modulus (GPa) = 8.83709 45.29081 27.06395
# Shear Modulus (GPa) = 18.51483 39.38294 28.94888
#
# Velocity S-wave (km/s) = 2.69282 3.92737 3.36716
# Velocity P-wave (km/s) = 3.62345 6.18900 5.07115
#
# Compressibility (1/GPa) = 0.11315945
#
# Stress axis : x y z
#
# Youngs Moduli (GPa) = 20.30636 77.25695 16.29134
#
# Poissons Ratio (x) = 1.45174 -0.47958
# Poissons Ratio (y) = 0.38158 0.25826
# Poissons Ratio (z) = -0.59777 1.22474
#
# Static dielectric constant tensor:
#      x y z
#    x 2.070460 0.000000 0.000000 
#    y 0.000000 2.143560 0.000000 
#    z 0.000000 0.000000 2.118750 
# 
# From -- ./inp_files/28624.got.cif
#   From: 2010.05.17/outbox.cif.g08.bks.cpg/sg43_15_cif.got.tgz:28624.got - 2010.06.03 19:21:55.
