data_PCOD9370680
_publ_section_title
;
Structure prediction by ZEFSAII (Michael W. Deem and Ramdas Pophale) SiO2 
 PCOD9370680
Probable space group: F D D 2
;
_chemical_formula_sum "Si O2"
_cell_formula_units_Z 112
_cell_length_a 14.891999
_cell_length_b 12.087313
_cell_length_c 28.535255
_cell_angle_alpha 90.000000
_cell_angle_beta 90.000000
_cell_angle_gamma 90.000000
_cell_volume 5136.467264
_symmetry_space_group_name_H-M "F D D 2"
_symmetry_group_IT_number 43
_symmetry_cell_setting 'orthorhombic'
loop_
_space_group_symop_operation_xyz
x,y,z
-x,-y,z
1/4-x,1/4+y,1/4+z
1/4+x,1/4-y,1/4+z
x,1/2+y,1/2+z
-x,1/2-y,1/2+z
1/4-x,3/4+y,3/4+z
1/4+x,3/4-y,3/4+z
1/2+x,y,1/2+z
1/2-x,-y,1/2+z
3/4-x,1/4+y,3/4+z
3/4+x,1/4-y,3/4+z
1/2+x,1/2+y,z
1/2-x,1/2-y,z
3/4-x,3/4+y,1/4+z
3/4+x,3/4-y,1/4+z
loop_
_atom_site_type_symbol
_atom_site_label
_atom_site_fract_x
_atom_site_fract_y
_atom_site_fract_z
Si Si1 0.806286 0.635209 0.666830
Si Si2 0.876082 0.207342 0.796654
Si Si3 0.552934 0.340746 0.082257
Si Si4 0.725234 0.120457 0.365539
Si Si5 0.702254 0.976874 0.102346
Si Si6 0.248885 0.118069 0.970443
Si Si7 0.102704 0.538214 0.013868
O O1 0.750000 0.750000 0.664417
O O2 0.889596 0.637887 0.629985
O O3 0.734981 0.543855 0.648030
O O4 0.842694 0.626812 0.720245
O O5 0.792060 0.150208 0.821751
O O6 0.863882 0.340763 0.795734
O O7 0.907414 0.168019 0.746163
O O8 0.959294 0.179426 0.829413
O O9 0.525335 0.212596 0.080643
O O10 0.750000 0.250000 0.366635
O O11 0.619020 0.129769 0.359169
O O12 0.747392 0.078568 0.417164
O O13 0.657875 0.057235 0.062274
O O14 0.250000 0.250000 0.972474
O O15 0.337077 0.063247 0.993318
O O16 0.000000 0.500000 0.023039
#
# Coordination Sequence:
#
# PCOD9370680 Si02
#       7
#    16  16  16  16  16  16  16
#     4  10  20  38  63  89 133 183 214 283 352 420
#     4   9  22  41  63  90 123 186 228 282 353 422
#     4  10  20  40  65  87 132 177 225 281 356 424
#     4  11  22  37  63 101 133 175 226 296 356 423
#     4  10  22  38  62  96 131 169 240 279 348 431
#     4  10  22  39  63  97 134 176 240 301 353 433
#     4  10  21  38  62  95 134 178 228 287 354 423
#
# _framework density 21.804870000000001
#
# number of rings (size 3 to 8) (size 9 to 14) (size 15 to 20)
#    0.000    2.000    1.429    1.286   10.000    0.000 
#    0.000    2.857    6.286   10.286    0.000    0.000 
#    0.000    0.000    0.000    0.000    0.000    0.000 
#
# Total GULP energy -155885.020322 kJ/mol
# GULP energy per Si atom -5567.322154 kJ/mol
# Density = 2.175524 g / cm^3
# Si number density = 21.804870 Si / 1000 Ang^3
#
#
#
# Elastic Constant Matrix: (Units=GPa)
#
#
# Indices 1 2 3 4 5 6 
#
# 1 124.5622 22.3674 18.4548 0.0000 0.0000 0.0000
# 2 22.3674 78.8025 22.8207 0.0000 0.0000 0.0000
# 3 18.4548 22.8207 86.1039 0.0000 0.0000 0.0000
# 4 0.0000 0.0000 0.0000 10.7112 0.0000 0.0000
# 5 0.0000 0.0000 0.0000 0.0000 251.9896 0.0000
# 6 0.0000 0.0000 0.0000 0.0000 0.0000 34.9099
#
#
#
# Elastic Compliance Matrix: (Units=1/GPa)
#
#
# Indices 1 2 3 4 5 6 
#
# 1 0.008590 -0.002063 -0.001294 0.000000 0.000000 0.000000
# 2 -0.002063 0.014241 -0.003332 0.000000 0.000000 0.000000
# 3 -0.001294 -0.003332 0.012774 0.000000 0.000000 0.000000
# 4 0.000000 0.000000 0.000000 0.093360 0.000000 0.000000
# 5 0.000000 0.000000 0.000000 0.000000 0.003968 0.000000
# 6 0.000000 0.000000 0.000000 0.000000 0.000000 0.028645
#
#
# Mechanical properties :
#
#
# Convention : Reuss Voigt Hill
#
# Bulk Modulus (GPa) = 44.99275 46.30603 45.64939
# Shear Modulus (GPa) = 27.41718 74.57717 50.99717
#
# Velocity S-wave (km/s) = 3.54981 5.85460 4.84136
# Velocity P-wave (km/s) = 6.12214 8.18440 7.22721
#
# Compressibility (1/GPa) = 0.02222581
#
# Stress axis : x y z
#
# Youngs Moduli (GPa) = 116.40886 70.22180 78.28162
#
# Poissons Ratio (x) = 0.14490 0.10132
# Poissons Ratio (y) = 0.24021 0.26083
# Poissons Ratio (z) = 0.15067 0.23398
#
# Static dielectric constant tensor:
#      x y z
#    x 1.579150 0.000000 0.000000 
#    y 0.000000 -1.785550 0.000000 
#    z 0.000000 0.000000 1.861800 
# 
# From -- ./inp_files/29086.got.cif
#   From: 2010.05.17/outbox.cif.g08.bks.cpg/sg43_15_cif.got.tgz:29086.got - 2010.06.03 19:21:55.
