data_PCOD9370553
_publ_section_title
;
Structure prediction by ZEFSAII (Michael W. Deem and Ramdas Pophale) SiO2 
 PCOD9370553
Probable space group: F D D 2
;
_chemical_formula_sum "Si O2"
_cell_formula_units_Z 112
_cell_length_a 23.576309
_cell_length_b 15.850003
_cell_length_c 14.654212
_cell_angle_alpha 90.000000
_cell_angle_beta 90.000000
_cell_angle_gamma 90.000000
_cell_volume 5476.052886
_symmetry_space_group_name_H-M "F D D 2"
_symmetry_group_IT_number 43
_symmetry_cell_setting 'orthorhombic'
loop_
_space_group_symop_operation_xyz
x,y,z
-x,-y,z
1/4-x,1/4+y,1/4+z
1/4+x,1/4-y,1/4+z
x,1/2+y,1/2+z
-x,1/2-y,1/2+z
1/4-x,3/4+y,3/4+z
1/4+x,3/4-y,3/4+z
1/2+x,y,1/2+z
1/2-x,-y,1/2+z
3/4-x,1/4+y,3/4+z
3/4+x,1/4-y,3/4+z
1/2+x,1/2+y,z
1/2-x,1/2-y,z
3/4-x,3/4+y,1/4+z
3/4+x,3/4-y,1/4+z
loop_
_atom_site_type_symbol
_atom_site_label
_atom_site_fract_x
_atom_site_fract_y
_atom_site_fract_z
Si Si1 0.300235 0.083819 0.911070
Si Si2 0.390337 0.083550 0.063050
Si Si3 0.000000 0.000000 0.624843
Si Si4 0.924966 0.768875 0.469522
Si Si5 0.250000 0.750000 0.726517
Si Si6 0.060677 0.238979 0.136726
Si Si7 0.289542 0.075242 0.192871
Si Si8 0.388722 0.587192 0.044166
O O1 0.270386 0.171726 0.934608
O O2 0.251753 0.013159 0.924253
O O3 0.312383 0.080897 0.803305
O O4 0.356864 0.077594 0.968850
O O5 0.410214 0.176913 0.094434
O O6 0.344897 0.050278 0.137084
O O7 0.447252 0.030202 0.065470
O O8 0.888510 0.813541 0.391282
O O9 0.897343 0.685465 0.517193
O O10 0.985081 0.734641 0.429693
O O11 0.273656 0.671341 0.668876
O O12 0.300648 0.790967 0.784689
O O13 0.098981 0.201912 0.215735
O O14 0.053219 0.177402 0.050662
#
# Coordination Sequence:
#
# PCOD9370553 Si02
#       8
#    16  16   8  16   8  16  16  16
#     4  10  23  42  62  96 126 176 220 272 323 403
#     4  11  21  39  65  93 129 171 213 273 328 398
#     4  10  24  41  67  92 136 166 226 271 335 382
#     4  10  24  39  66  89 133 173 226 268 335 397
#     4  10  20  35  59  90 128 160 220 267 335 372
#     4  10  21  38  62  92 129 162 215 274 332 384
#     4  10  20  38  59  95 127 166 213 276 326 399
#     4  11  21  40  62  93 127 176 213 284 327 405
#
# _framework density 20.452687000000001
#
# number of rings (size 3 to 8) (size 9 to 14) (size 15 to 20)
#    0.000    1.714    1.429    2.571    2.000    0.571 
#    2.571    0.714    0.000    0.000    0.000    0.000 
#    0.000    0.000    0.000    0.000    0.000    0.000 
#
# Total GULP energy -156390.232175 kJ/mol
# GULP energy per Si atom -5585.365435 kJ/mol
# Density = 2.040614 g / cm^3
# Si number density = 20.452687 Si / 1000 Ang^3
#
#
#
# Elastic Constant Matrix: (Units=GPa)
#
#
# Indices 1 2 3 4 5 6 
#
# 1 139.6687 24.7906 47.7769 0.0000 0.0000 0.0000
# 2 24.7906 73.4430 28.7144 0.0000 0.0000 0.0000
# 3 47.7769 28.7144 68.8735 0.0000 0.0000 0.0000
# 4 0.0000 0.0000 0.0000 0.2191 0.0000 0.0000
# 5 0.0000 0.0000 0.0000 0.0000 9.1630 0.0000
# 6 0.0000 0.0000 0.0000 0.0000 0.0000 19.6021
#
#
#
# Elastic Compliance Matrix: (Units=1/GPa)
#
#
# Indices 1 2 3 4 5 6 
#
# 1 0.009422 -0.000747 -0.006224 0.000000 0.000000 0.000000
# 2 -0.000747 0.016327 -0.006289 0.000000 0.000000 0.000000
# 3 -0.006224 -0.006289 0.021459 0.000000 0.000000 0.000000
# 4 0.000000 0.000000 0.000000 4.563262 0.000000 0.000000
# 5 0.000000 0.000000 0.000000 0.000000 0.109135 0.000000
# 6 0.000000 0.000000 0.000000 0.000000 0.000000 0.051015
#
#
# Mechanical properties :
#
#
# Convention : Reuss Voigt Hill
#
# Bulk Modulus (GPa) = 48.33822 53.83879 51.08851
# Shear Modulus (GPa) = 1.04079 17.84374 9.44227
#
# Velocity S-wave (km/s) = 0.71413 2.95691 2.15097
# Velocity P-wave (km/s) = 4.93614 6.16754 5.58587
#
# Compressibility (1/GPa) = 0.02068756
#
# Stress axis : x y z
#
# Youngs Moduli (GPa) = 106.14020 61.24877 46.60031
#
# Poissons Ratio (x) = 0.04573 0.29006
# Poissons Ratio (y) = 0.07925 0.29307
# Poissons Ratio (z) = 0.66065 0.38519
#
# Static dielectric constant tensor:
#      x y z
#    x 1.732420 0.000000 0.000000 
#    y 0.000000 1.770240 0.000000 
#    z 0.000000 0.000000 1.693410 
# 
# From -- ./inp_files/10230.got.cif
#   From: 2010.05.17/outbox.cif.g08.bks.cpg/sg43_6_cif.got.tgz:10230.got - 2010.06.03 19:21:55.
