data_PCOD9370538
_publ_section_title
;
Structure prediction by ZEFSAII (Michael W. Deem and Ramdas Pophale) SiO2 
 PCOD9370538
Probable space group: F D D 2
;
_chemical_formula_sum "Si O2"
_cell_formula_units_Z 104
_cell_length_a 9.716770
_cell_length_b 18.612083
_cell_length_c 26.546325
_cell_angle_alpha 90.000000
_cell_angle_beta 90.000000
_cell_angle_gamma 90.000000
_cell_volume 4800.885083
_symmetry_space_group_name_H-M "F D D 2"
_symmetry_group_IT_number 43
_symmetry_cell_setting 'orthorhombic'
loop_
_space_group_symop_operation_xyz
x,y,z
-x,-y,z
1/4-x,1/4+y,1/4+z
1/4+x,1/4-y,1/4+z
x,1/2+y,1/2+z
-x,1/2-y,1/2+z
1/4-x,3/4+y,3/4+z
1/4+x,3/4-y,3/4+z
1/2+x,y,1/2+z
1/2-x,-y,1/2+z
3/4-x,1/4+y,3/4+z
3/4+x,1/4-y,3/4+z
1/2+x,1/2+y,z
1/2-x,1/2-y,z
3/4-x,3/4+y,1/4+z
3/4+x,3/4-y,1/4+z
loop_
_atom_site_type_symbol
_atom_site_label
_atom_site_fract_x
_atom_site_fract_y
_atom_site_fract_z
Si Si1 0.171524 0.327023 0.051390
Si Si2 0.497596 0.412503 0.152685
Si Si3 0.529856 0.630666 0.044833
Si Si4 0.032598 0.697534 0.446146
Si Si5 0.279173 0.923178 0.409093
Si Si6 0.500000 0.500000 0.973542
Si Si7 0.774389 0.390499 0.198407
O O1 0.250000 0.250000 0.045293
O O2 0.305893 0.378211 0.053593
O O3 0.081353 0.324787 0.101910
O O4 0.079820 0.354234 0.005172
O O5 0.500000 0.500000 0.146203
O O6 0.529466 0.372340 0.100491
O O7 0.341506 0.403883 0.170637
O O8 0.610478 0.384777 0.192151
O O9 0.504473 0.696728 0.006484
O O10 0.476592 0.565605 0.011258
O O11 0.166672 0.651320 0.434498
O O12 0.046779 0.778173 0.427110
O O13 0.116715 0.917708 0.418919
O O14 0.367372 0.982594 0.439133
#
# Coordination Sequence:
#
# PCOD9370538 Si02
#       7
#    16  16  16  16  16   8  16
#     4  12  21  36  64  93 118 166 218 264 320 387
#     4  10  22  37  58  89 125 164 204 261 329 385
#     4  11  20  36  62  87 119 163 212 256 313 396
#     4  10  20  37  61  87 120 165 211 257 313 390
#     4  11  21  35  62  88 121 157 209 268 310 377
#     4  10  20  34  56  92 114 154 208 256 316 368
#     4  11  22  39  58  93 127 158 213 273 313 380
#
# _framework density 21.662673000000002
#
# number of rings (size 3 to 8) (size 9 to 14) (size 15 to 20)
#    0.000    1.231    7.692    0.462    0.000    1.231 
#    0.000    0.000    0.000    7.385    0.000    0.000 
#    0.000    0.000    0.000    0.000    0.000    0.000 
#
# Total GULP energy -144995.581462 kJ/mol
# GULP energy per Si atom -5576.753133 kJ/mol
# Density = 2.161337 g / cm^3
# Si number density = 21.662673 Si / 1000 Ang^3
#
#
#
# Elastic Constant Matrix: (Units=GPa)
#
#
# Indices 1 2 3 4 5 6 
#
# 1 94.7458 12.5495 35.2931 0.0000 0.0000 0.0000
# 2 12.5495 38.9107 -3.5528 0.0000 0.0000 0.0000
# 3 35.2931 -3.5528 135.3908 0.0000 0.0000 0.0000
# 4 0.0000 0.0000 0.0000 15.3675 0.0000 0.0000
# 5 0.0000 0.0000 0.0000 0.0000 32.5485 0.0000
# 6 0.0000 0.0000 0.0000 0.0000 0.0000 31.4660
#
#
#
# Elastic Compliance Matrix: (Units=1/GPa)
#
#
# Indices 1 2 3 4 5 6 
#
# 1 0.012366 -0.004293 -0.003336 0.000000 0.000000 0.000000
# 2 -0.004293 0.027252 0.001834 0.000000 0.000000 0.000000
# 3 -0.003336 0.001834 0.008304 0.000000 0.000000 0.000000
# 4 0.000000 0.000000 0.000000 0.065073 0.000000 0.000000
# 5 0.000000 0.000000 0.000000 0.000000 0.030723 0.000000
# 6 0.000000 0.000000 0.000000 0.000000 0.000000 0.031780
#
#
# Mechanical properties :
#
#
# Convention : Reuss Voigt Hill
#
# Bulk Modulus (GPa) = 27.52404 39.73633 33.63019
# Shear Modulus (GPa) = 25.10065 30.86024 27.98044
#
# Velocity S-wave (km/s) = 3.40767 3.77846 3.59784
# Velocity P-wave (km/s) = 5.31190 6.11708 5.72865
#
# Compressibility (1/GPa) = 0.03633187
#
# Stress axis : x y z
#
# Youngs Moduli (GPa) = 80.86763 36.69476 120.42674
#
# Poissons Ratio (x) = 0.15753 0.40176
# Poissons Ratio (y) = 0.34715 -0.22088
# Poissons Ratio (z) = 0.26979 -0.06730
#
# Static dielectric constant tensor:
#      x y z
#    x 1.790490 0.000000 0.000000 
#    y 0.000000 1.874080 0.000000 
#    z 0.000000 0.000000 1.793590 
# 
# From -- ./inp_files/26339.got.cif
#   From: 2010.05.17/outbox.cif.g08.bks.cpg/sg43_14_cif.got.tgz:26339.got - 2010.06.03 19:21:55.
