data_PCOD9370119
_publ_section_title
;
Structure prediction by ZEFSAII (Michael W. Deem and Ramdas Pophale) SiO2 
 PCOD9370119
Probable space group: F D D 2
;
_chemical_formula_sum "Si O2"
_cell_formula_units_Z 96
_cell_length_a 13.426285
_cell_length_b 13.838345
_cell_length_c 24.002982
_cell_angle_alpha 90.000000
_cell_angle_beta 90.000000
_cell_angle_gamma 90.000000
_cell_volume 4459.695582
_symmetry_space_group_name_H-M "F D D 2"
_symmetry_group_IT_number 43
_symmetry_cell_setting 'orthorhombic'
loop_
_space_group_symop_operation_xyz
x,y,z
-x,-y,z
1/4-x,1/4+y,1/4+z
1/4+x,1/4-y,1/4+z
x,1/2+y,1/2+z
-x,1/2-y,1/2+z
1/4-x,3/4+y,3/4+z
1/4+x,3/4-y,3/4+z
1/2+x,y,1/2+z
1/2-x,-y,1/2+z
3/4-x,1/4+y,3/4+z
3/4+x,1/4-y,3/4+z
1/2+x,1/2+y,z
1/2-x,1/2-y,z
3/4-x,3/4+y,1/4+z
3/4+x,3/4-y,1/4+z
loop_
_atom_site_type_symbol
_atom_site_label
_atom_site_fract_x
_atom_site_fract_y
_atom_site_fract_z
Si Si1 0.738496 0.966796 0.667760
Si Si2 0.223899 0.146756 0.429821
Si Si3 0.414584 0.418649 0.747654
Si Si4 0.404890 0.634253 0.998090
Si Si5 0.554643 0.213489 0.583536
Si Si6 0.690391 0.535088 0.048007
O O1 0.715151 0.072931 0.695312
O O2 0.732975 0.978051 0.601404
O O3 0.643900 0.900726 0.685219
O O4 0.837419 0.927415 0.696900
O O5 0.250000 0.250000 0.398696
O O6 0.289499 0.155497 0.485014
O O7 0.269929 0.056899 0.396130
O O8 0.500000 0.500000 0.739104
O O9 0.354701 0.443325 0.805309
O O10 0.471380 0.318976 0.757608
O O11 0.455451 0.690306 0.048471
O O12 0.394050 0.523607 0.015189
O O13 0.636233 0.130936 0.570554
#
# Coordination Sequence:
#
# PCOD9370119 Si02
#       6
#    16  16  16  16  16  16
#     4  10  20  38  64  87 124 161 206 260 309 369
#     4  10  17  33  59  91 118 147 208 262 305 363
#     4   9  22  38  54  86 132 155 202 254 313 377
#     4  10  19  31  62  92 114 153 200 256 317 359
#     4  10  17  36  57  92 118 155 200 258 306 367
#     4  11  19  38  61  87 124 163 202 255 310 374
#
# _framework density 21.526133000000002
#
# number of rings (size 3 to 8) (size 9 to 14) (size 15 to 20)
#    0.000    2.000    5.000    0.500    0.000    0.000 
#   12.000    2.500   11.000    0.000    0.000    0.000 
#    0.000    0.000    0.000    0.000    0.000    0.000 
#
# Total GULP energy -133663.769777 kJ/mol
# GULP energy per Si atom -5569.323741 kJ/mol
# Density = 2.147714 g / cm^3
# Si number density = 21.526133 Si / 1000 Ang^3
#
#
#
# Elastic Constant Matrix: (Units=GPa)
#
#
# Indices 1 2 3 4 5 6 
#
# 1 151.4557 20.0805 53.5918 0.0000 0.0000 0.0000
# 2 20.0805 28.6981 14.5531 0.0000 0.0000 0.0000
# 3 53.5918 14.5531 81.9812 0.0000 0.0000 0.0000
# 4 0.0000 0.0000 0.0000 11.4354 0.0000 0.0000
# 5 0.0000 0.0000 0.0000 0.0000 25.7911 0.0000
# 6 0.0000 0.0000 0.0000 0.0000 0.0000 16.6451
#
#
#
# Elastic Compliance Matrix: (Units=1/GPa)
#
#
# Indices 1 2 3 4 5 6 
#
# 1 0.008917 -0.003608 -0.005189 0.000000 0.000000 0.000000
# 2 -0.003608 0.039753 -0.004698 0.000000 0.000000 0.000000
# 3 -0.005189 -0.004698 0.016424 0.000000 0.000000 0.000000
# 4 0.000000 0.000000 0.000000 0.087448 0.000000 0.000000
# 5 0.000000 0.000000 0.000000 0.000000 0.038773 0.000000
# 6 0.000000 0.000000 0.000000 0.000000 0.000000 0.060078
#
#
# Mechanical properties :
#
#
# Convention : Reuss Voigt Hill
#
# Bulk Modulus (GPa) = 26.24419 48.73178 37.48799
# Shear Modulus (GPa) = 17.17724 22.36828 19.77276
#
# Velocity S-wave (km/s) = 2.82790 3.22704 3.03404
# Velocity P-wave (km/s) = 4.78341 6.04753 5.45223
#
# Compressibility (1/GPa) = 0.03810367
#
# Stress axis : x y z
#
# Youngs Moduli (GPa) = 112.14645 25.15551 60.88754
#
# Poissons Ratio (x) = 0.09076 0.31592
# Poissons Ratio (y) = 0.40464 0.28606
# Poissons Ratio (z) = 0.58188 0.11818
#
# Static dielectric constant tensor:
#      x y z
#    x 1.785420 0.000000 0.000000 
#    y 0.000000 1.913050 0.000000 
#    z 0.000000 0.000000 1.845090 
# 
# From -- ./inp_files/25074.got.cif
#   From: 2010.05.17/outbox.cif.g08.bks.cpg/sg43_13_cif.got.tgz:25074.got - 2010.06.03 19:21:55.
