data_PCOD9370609
_publ_section_title
;
Structure prediction by ZEFSAII (Michael W. Deem and Ramdas Pophale) SiO2 
 PCOD9370609
Probable space group: F D D 2
;
_chemical_formula_sum "Si O2"
_cell_formula_units_Z 88
_cell_length_a 20.855203
_cell_length_b 20.656730
_cell_length_c 7.445662
_cell_angle_alpha 90.000000
_cell_angle_beta 90.000000
_cell_angle_gamma 90.000000
_cell_volume 3207.593404
_symmetry_space_group_name_H-M "F D D 2"
_symmetry_group_IT_number 43
_symmetry_cell_setting 'orthorhombic'
loop_
_space_group_symop_operation_xyz
x,y,z
-x,-y,z
1/4-x,1/4+y,1/4+z
1/4+x,1/4-y,1/4+z
x,1/2+y,1/2+z
-x,1/2-y,1/2+z
1/4-x,3/4+y,3/4+z
1/4+x,3/4-y,3/4+z
1/2+x,y,1/2+z
1/2-x,-y,1/2+z
3/4-x,1/4+y,3/4+z
3/4+x,1/4-y,3/4+z
1/2+x,1/2+y,z
1/2-x,1/2-y,z
3/4-x,3/4+y,1/4+z
3/4+x,3/4-y,1/4+z
loop_
_atom_site_type_symbol
_atom_site_label
_atom_site_fract_x
_atom_site_fract_y
_atom_site_fract_z
Si Si1 0.898909 0.208338 0.888770
Si Si2 0.000000 0.500000 0.186596
Si Si3 0.211880 0.365502 0.680797
Si Si4 0.918994 0.079100 0.258074
Si Si5 0.382239 0.076650 0.180166
Si Si6 0.484529 0.251285 0.064741
O O1 0.878046 0.145131 0.779877
O O2 0.944731 0.247632 0.747960
O O3 0.842021 0.255125 0.949830
O O4 0.950742 0.207330 0.050715
O O5 0.966539 0.445423 0.063944
O O6 0.940903 0.537546 0.275893
O O7 0.257123 0.349638 0.511936
O O8 0.137486 0.382334 0.655640
O O9 0.244509 0.427703 0.775033
O O10 0.899774 0.084861 0.470379
O O11 0.317818 0.034959 0.186833
#
# Coordination Sequence:
#
# PCOD9370609 Si02
#       6
#    16   8  16  16  16  16
#     4  11  24  45  69 113 148 216 273 340 425 512
#     4  10  20  36  70 102 134 208 268 318 408 498
#     4  10  20  41  71 108 149 209 275 333 414 506
#     4  10  22  43  74 105 155 211 278 334 432 504
#     4  11  24  42  72 109 156 210 283 348 419 513
#     4  11  22  44  69 104 154 201 270 346 417 501
#
# _framework density 27.434899000000001
#
# number of rings (size 3 to 8) (size 9 to 14) (size 15 to 20)
#    0.000    1.455    3.636    3.273    0.000    0.000 
#   22.909    0.000    0.000    4.364    0.000    0.000 
#    0.000    0.000    0.000    0.000    0.000    0.000 
#
# Total GULP energy -123265.127822 kJ/mol
# GULP energy per Si atom -5602.960356 kJ/mol
# Density = 2.737246 g / cm^3
# Si number density = 27.434899 Si / 1000 Ang^3
#
#
#
# Elastic Constant Matrix: (Units=GPa)
#
#
# Indices 1 2 3 4 5 6 
#
# 1 195.6641 78.3706 25.1605 -0.0004 -0.0003 -0.0005
# 2 78.3706 166.3488 52.5057 0.0003 0.0002 0.0005
# 3 25.1605 52.5057 97.7553 0.0041 -0.0020 0.0006
# 4 -0.0004 0.0003 0.0041 54.5021 -0.0004 0.0009
# 5 -0.0003 0.0002 -0.0020 -0.0004 49.4790 0.0003
# 6 -0.0005 0.0005 0.0006 0.0009 0.0003 65.9851
#
#
#
# Elastic Compliance Matrix: (Units=1/GPa)
#
#
# Indices 1 2 3 4 5 6 
#
# 1 0.006300 -0.002958 -0.000033 0.000000 0.000000 0.000000
# 2 -0.002958 0.008627 -0.003873 0.000000 0.000000 0.000000
# 3 -0.000033 -0.003873 0.012318 -0.000001 0.000001 0.000000
# 4 0.000000 0.000000 -0.000001 0.018348 0.000000 0.000000
# 5 0.000000 0.000000 0.000001 0.000000 0.020211 0.000000
# 6 0.000000 0.000000 0.000000 0.000000 0.000000 0.015155
#
#
# Mechanical properties :
#
#
# Convention : Reuss Voigt Hill
#
# Bulk Modulus (GPa) = 73.97022 85.76021 79.86521
# Shear Modulus (GPa) = 50.40806 54.24200 52.32503
#
# Velocity S-wave (km/s) = 4.29111 4.45130 4.37194
# Velocity P-wave (km/s) = 7.18137 7.59909 7.39318
#
# Compressibility (1/GPa) = 0.01351895
#
# Stress axis : x y z
#
# Youngs Moduli (GPa) = 158.73972 115.91341 81.18142
#
# Poissons Ratio (x) = 0.34282 0.00267
# Poissons Ratio (y) = 0.46947 0.31438
# Poissons Ratio (z) = 0.00522 0.44888
#
# Static dielectric constant tensor:
#      x y z
#    x 2.141000 0.000000 0.000000 
#    y 0.000000 2.133560 0.000000 
#    z 0.000000 0.000000 2.297570 
# 
# From -- ./inp_files/3694.got.cif
#   From: 2010.05.17/outbox.cif.g08.bks.cpg/sg43_2_cif.got.tgz:3694.got - 2010.06.03 19:21:55.
