data_PCOD9370088
_publ_section_title
;
Structure prediction by ZEFSAII (Michael W. Deem and Ramdas Pophale) SiO2 
 PCOD9370088
Probable space group: F D D 2
;
_chemical_formula_sum "Si O2"
_cell_formula_units_Z 88
_cell_length_a 30.486765
_cell_length_b 17.633009
_cell_length_c 8.248037
_cell_angle_alpha 90.000000
_cell_angle_beta 90.000000
_cell_angle_gamma 90.000000
_cell_volume 4433.925307
_symmetry_space_group_name_H-M "F D D 2"
_symmetry_group_IT_number 43
_symmetry_cell_setting 'orthorhombic'
loop_
_space_group_symop_operation_xyz
x,y,z
-x,-y,z
1/4-x,1/4+y,1/4+z
1/4+x,1/4-y,1/4+z
x,1/2+y,1/2+z
-x,1/2-y,1/2+z
1/4-x,3/4+y,3/4+z
1/4+x,3/4-y,3/4+z
1/2+x,y,1/2+z
1/2-x,-y,1/2+z
3/4-x,1/4+y,3/4+z
3/4+x,1/4-y,3/4+z
1/2+x,1/2+y,z
1/2-x,1/2-y,z
3/4-x,3/4+y,1/4+z
3/4+x,3/4-y,1/4+z
loop_
_atom_site_type_symbol
_atom_site_label
_atom_site_fract_x
_atom_site_fract_y
_atom_site_fract_z
Si Si1 0.500000 0.500000 0.919920
Si Si2 0.270260 0.349007 0.444464
Si Si3 0.941396 0.103187 0.703128
Si Si4 0.576744 0.003149 0.926272
Si Si5 0.025061 0.152277 0.497894
Si Si6 0.164912 0.549781 0.749808
O O1 0.461621 0.534400 0.810812
O O2 0.490733 0.431719 0.046304
O O3 0.291074 0.283870 0.556919
O O4 0.244119 0.402271 0.565711
O O5 0.311855 0.389411 0.365593
O O6 0.916772 0.162010 0.821058
O O7 0.983822 0.143302 0.619433
O O8 0.914148 0.061740 0.560893
O O9 0.554495 0.076355 0.008732
O O10 0.617692 0.029045 0.819791
O O11 0.054726 0.225703 0.514401
#
# Coordination Sequence:
#
# PCOD9370088 Si02
#       6
#     8  16  16  16  16  16
#     4  10  16  36  62  92 102 160 226 248 280 402
#     4  10  20  38  63  86 122 167 214 251 316 391
#     4  10  21  40  65  89 123 174 223 250 322 413
#     4  11  21  42  61  89 129 171 204 268 331 383
#     4  11  20  41  64  89 122 172 212 267 316 385
#     4  11  24  37  60  99 129 154 211 284 323 370
#
# _framework density 19.846973999999999
#
# number of rings (size 3 to 8) (size 9 to 14) (size 15 to 20)
#    0.000    1.455    3.636    3.273    0.000    0.000 
#    3.273   12.727    0.000    0.000    0.000    0.000 
#    0.000    0.000    0.000    0.000    0.000    0.000 
#
# Total GULP energy -122698.293695 kJ/mol
# GULP energy per Si atom -5577.195168 kJ/mol
# Density = 1.980180 g / cm^3
# Si number density = 19.846974 Si / 1000 Ang^3
#
#
#
# Elastic Constant Matrix: (Units=GPa)
#
#
# Indices 1 2 3 4 5 6 
#
# 1 73.8274 32.2281 41.7818 0.0000 0.0000 0.0000
# 2 32.2281 89.6340 43.1544 0.0000 0.0000 0.0000
# 3 41.7818 43.1544 114.2267 0.0000 0.0000 0.0000
# 4 0.0000 0.0000 0.0000 14.3013 0.0000 0.0000
# 5 0.0000 0.0000 0.0000 0.0000 14.2064 0.0000
# 6 0.0000 0.0000 0.0000 0.0000 0.0000 -31.9728
#
#
#
# Elastic Compliance Matrix: (Units=1/GPa)
#
#
# Indices 1 2 3 4 5 6 
#
# 1 0.018229 -0.004088 -0.005124 0.000000 0.000000 0.000000
# 2 -0.004088 0.014553 -0.004003 0.000000 0.000000 0.000000
# 3 -0.005124 -0.004003 0.012141 0.000000 0.000000 0.000000
# 4 0.000000 0.000000 0.000000 0.069924 0.000000 0.000000
# 5 0.000000 0.000000 0.000000 0.000000 0.070391 0.000000
# 6 0.000000 0.000000 0.000000 0.000000 0.000000 -0.031277
#
#
# Mechanical properties :
#
#
# Convention : Reuss Voigt Hill
#
# Bulk Modulus (GPa) = 54.06844 56.89074 55.47959
# Shear Modulus (GPa) = 26.80176 10.00858 18.40517
#
# Velocity S-wave (km/s) = 3.67879 2.24807 3.04855
# Velocity P-wave (km/s) = 6.73398 5.95528 6.35657
#
# Compressibility (1/GPa) = 0.01849508
#
# Stress axis : x y z
#
# Youngs Moduli (GPa) = 54.85739 68.71216 82.36577
#
# Poissons Ratio (x) = 0.28087 0.42201
# Poissons Ratio (y) = 0.22423 0.32972
# Poissons Ratio (z) = 0.28107 0.27506
#
# Static dielectric constant tensor:
#      x y z
#    x 1.673680 0.000000 0.000000 
#    y 0.000000 1.733130 0.000000 
#    z 0.000000 0.000000 1.735290 
# 
# From -- ./inp_files/2893.got.cif
#   From: 2010.05.17/outbox.cif.g08.bks.cpg/sg43_2_cif.got.tgz:2893.got - 2010.06.03 19:21:55.
