data_PCOD9370599
_publ_section_title
;
Structure prediction by ZEFSAII (Michael W. Deem and Ramdas Pophale) SiO2 
 PCOD9370599
Probable space group: F D D 2
;
_chemical_formula_sum "Si O2"
_cell_formula_units_Z 120
_cell_length_a 14.159552
_cell_length_b 25.391433
_cell_length_c 17.876711
_cell_angle_alpha 90.000000
_cell_angle_beta 90.000000
_cell_angle_gamma 90.000000
_cell_volume 6427.237430
_symmetry_space_group_name_H-M "F D D 2"
_symmetry_group_IT_number 43
_symmetry_cell_setting 'orthorhombic'
loop_
_space_group_symop_operation_xyz
x,y,z
-x,-y,z
1/4-x,1/4+y,1/4+z
1/4+x,1/4-y,1/4+z
x,1/2+y,1/2+z
-x,1/2-y,1/2+z
1/4-x,3/4+y,3/4+z
1/4+x,3/4-y,3/4+z
1/2+x,y,1/2+z
1/2-x,-y,1/2+z
3/4-x,1/4+y,3/4+z
3/4+x,1/4-y,3/4+z
1/2+x,1/2+y,z
1/2-x,1/2-y,z
3/4-x,3/4+y,1/4+z
3/4+x,3/4-y,1/4+z
loop_
_atom_site_type_symbol
_atom_site_label
_atom_site_fract_x
_atom_site_fract_y
_atom_site_fract_z
Si Si1 0.491896 0.853025 0.931530
Si Si2 0.074026 0.394244 0.286305
Si Si3 0.770280 0.900237 0.196358
Si Si4 0.431945 0.747552 0.366589
Si Si5 0.673579 0.328281 0.061939
Si Si6 0.000000 0.000000 0.717113
Si Si7 0.336100 0.570980 0.474814
Si Si8 0.615292 0.207224 0.058857
O O1 0.520388 0.810069 0.867608
O O2 0.418312 0.892818 0.892059
O O3 0.574758 0.889015 0.967538
O O4 0.452302 0.816618 0.997063
O O5 0.050191 0.383268 0.373219
O O6 0.178487 0.388013 0.249149
O O7 0.035943 0.451843 0.266243
O O8 0.006455 0.353509 0.244190
O O9 0.744312 0.958203 0.161079
O O10 0.860523 0.894784 0.249668
O O11 0.337428 0.736711 0.413666
O O12 0.405298 0.775486 0.287866
O O13 0.637014 0.268711 0.056081
O O14 0.785744 0.323657 0.049755
O O15 0.325920 0.550093 0.391539
#
# Coordination Sequence:
#
# PCOD9370599 Si02
#       8
#    16  16  16  16  16   8  16  16
#     4  11  22  40  67  93 125 173 208 266 329 372
#     4  10  22  39  63  92 125 165 207 264 326 382
#     4  10  22  42  61  89 126 168 212 264 313 389
#     4  10  21  38  61  94 127 160 208 260 320 383
#     4  10  23  41  60  88 121 173 213 258 317 375
#     4  10  20  36  64  90 126 162 202 266 328 382
#     4  10  23  38  63  96 126 162 210 263 325 382
#     4  10  23  40  60  89 127 162 216 266 306 387
#
# _framework density 18.670541
#
# number of rings (size 3 to 8) (size 9 to 14) (size 15 to 20)
#    0.000    1.867    2.667    0.000    7.467    4.267 
#    0.000    1.333    0.000    0.000    0.000    0.000 
#    0.000    0.000    0.000    0.000    0.000    0.000 
#
# Total GULP energy -167032.730780 kJ/mol
# GULP energy per Si atom -5567.757693 kJ/mol
# Density = 1.862805 g / cm^3
# Si number density = 18.670541 Si / 1000 Ang^3
#
#
#
# Elastic Constant Matrix: (Units=GPa)
#
#
# Indices 1 2 3 4 5 6 
#
# 1 43.5322 27.8695 62.9185 0.0000 0.0000 0.0000
# 2 27.8695 60.7134 51.6399 0.0000 0.0000 0.0000
# 3 62.9185 51.6399 128.9189 0.0000 0.0000 0.0000
# 4 0.0000 0.0000 0.0000 16.6052 0.0000 0.0000
# 5 0.0000 0.0000 0.0000 0.0000 35.4370 0.0000
# 6 0.0000 0.0000 0.0000 0.0000 0.0000 16.8174
#
#
#
# Elastic Compliance Matrix: (Units=1/GPa)
#
#
# Indices 1 2 3 4 5 6 
#
# 1 0.079068 -0.005268 -0.036479 0.000000 0.000000 0.000000
# 2 -0.005268 0.025333 -0.007577 0.000000 0.000000 0.000000
# 3 -0.036479 -0.007577 0.028595 0.000000 0.000000 0.000000
# 4 0.000000 0.000000 0.000000 0.060222 0.000000 0.000000
# 5 0.000000 0.000000 0.000000 0.000000 0.028219 0.000000
# 6 0.000000 0.000000 0.000000 0.000000 0.000000 0.059462
#
#
# Mechanical properties :
#
#
# Convention : Reuss Voigt Hill
#
# Bulk Modulus (GPa) = 29.11214 57.55784 43.33499
# Shear Modulus (GPa) = 12.78787 19.82105 16.30446
#
# Velocity S-wave (km/s) = 2.61994 3.26179 2.95832
# Velocity P-wave (km/s) = 4.97780 6.71422 5.91013
#
# Compressibility (1/GPa) = 0.03434994
#
# Stress axis : x y z
#
# Youngs Moduli (GPa) = 12.64736 39.47396 34.97100
#
# Poissons Ratio (x) = 0.20793 1.27570
# Poissons Ratio (y) = 0.06662 0.26496
# Poissons Ratio (z) = 0.46136 0.29908
#
# Static dielectric constant tensor:
#      x y z
#    x 1.641440 0.000000 0.000000 
#    y 0.000000 1.691040 0.000000 
#    z 0.000000 0.000000 1.677440 
# 
# From -- ./inp_files/13456.got.cif
#   From: 2010.05.17/outbox.cif.g08.bks.cpg/sg43_7_cif.got.tgz:13456.got - 2010.06.03 19:21:55.
