data_PCOD9370490
_publ_section_title
;
Structure prediction by ZEFSAII (Michael W. Deem and Ramdas Pophale) SiO2 
 PCOD9370490
Probable space group: F D D 2
;
_chemical_formula_sum "Si O2"
_cell_formula_units_Z 112
_cell_length_a 28.892543
_cell_length_b 12.552190
_cell_length_c 12.306465
_cell_angle_alpha 90.000000
_cell_angle_beta 90.000000
_cell_angle_gamma 90.000000
_cell_volume 4463.120306
_symmetry_space_group_name_H-M "F D D 2"
_symmetry_group_IT_number 43
_symmetry_cell_setting 'orthorhombic'
loop_
_space_group_symop_operation_xyz
x,y,z
-x,-y,z
1/4-x,1/4+y,1/4+z
1/4+x,1/4-y,1/4+z
x,1/2+y,1/2+z
-x,1/2-y,1/2+z
1/4-x,3/4+y,3/4+z
1/4+x,3/4-y,3/4+z
1/2+x,y,1/2+z
1/2-x,-y,1/2+z
3/4-x,1/4+y,3/4+z
3/4+x,1/4-y,3/4+z
1/2+x,1/2+y,z
1/2-x,1/2-y,z
3/4-x,3/4+y,1/4+z
3/4+x,3/4-y,1/4+z
loop_
_atom_site_type_symbol
_atom_site_label
_atom_site_fract_x
_atom_site_fract_y
_atom_site_fract_z
Si Si1 0.603523 0.608410 0.193000
Si Si2 0.478779 0.264856 0.561276
Si Si3 0.928268 0.790144 0.971193
Si Si4 0.717566 0.647364 0.961830
Si Si5 0.048696 0.433829 0.457142
Si Si6 0.619097 0.910860 0.044151
Si Si7 0.097567 0.628127 0.932853
O O1 0.577898 0.639776 0.081001
O O2 0.645217 0.695372 0.204878
O O3 0.578937 0.616519 0.309683
O O4 0.622779 0.487537 0.187782
O O5 0.520886 0.256285 0.475746
O O6 0.502412 0.298189 0.671595
O O7 0.455789 0.150220 0.555360
O O8 0.443325 0.351333 0.518311
O O9 0.892341 0.692321 0.972772
O O10 0.916506 0.852252 0.861666
O O11 0.750000 0.750000 0.949247
O O12 0.673002 0.657174 0.882845
O O13 0.704912 0.634635 0.086357
O O14 0.000000 0.500000 0.465802
O O15 0.620438 0.017325 0.971905
#
# Coordination Sequence:
#
# PCOD9370490 Si02
#       7
#    16  16  16  16  16  16  16
#     4  11  24  43  68  96 136 184 220 287 352 412
#     4  10  24  39  65  98 130 168 227 279 344 397
#     4  11  24  40  68  99 128 174 236 280 335 418
#     4  10  19  40  68  92 129 170 221 282 329 405
#     4  10  23  41  66  98 128 174 223 282 333 404
#     4  11  22  40  66  97 132 178 224 280 338 414
#     4  11  24  45  65  95 141 180 226 283 360 412
#
# _framework density 25.094550999999999
#
# number of rings (size 3 to 8) (size 9 to 14) (size 15 to 20)
#    0.000    1.429    2.857    1.714   10.000    0.000 
#    5.143    0.000    0.000    0.857    0.000    0.000 
#    0.000    0.000    0.000    0.000    0.000    0.000 
#
# Total GULP energy -156475.911878 kJ/mol
# GULP energy per Si atom -5588.425424 kJ/mol
# Density = 2.503743 g / cm^3
# Si number density = 25.094551 Si / 1000 Ang^3
#
#
#
# Elastic Constant Matrix: (Units=GPa)
#
#
# Indices 1 2 3 4 5 6 
#
# 1 44.3822 -21.4601 7.0239 0.0000 0.0000 0.0000
# 2 -21.4601 94.6912 15.4602 0.0000 0.0000 0.0000
# 3 7.0239 15.4602 82.5355 0.0000 0.0000 0.0000
# 4 0.0000 0.0000 0.0000 39.8067 0.0000 0.0000
# 5 0.0000 0.0000 0.0000 0.0000 39.8786 0.0000
# 6 0.0000 0.0000 0.0000 0.0000 0.0000 27.1261
#
#
#
# Elastic Compliance Matrix: (Units=1/GPa)
#
#
# Indices 1 2 3 4 5 6 
#
# 1 0.026224 0.006507 -0.003450 0.000000 0.000000 0.000000
# 2 0.006507 0.012508 -0.002897 0.000000 0.000000 0.000000
# 3 -0.003450 -0.002897 0.012952 0.000000 0.000000 0.000000
# 4 0.000000 0.000000 0.000000 0.025121 0.000000 0.000000
# 5 0.000000 0.000000 0.000000 0.000000 0.025076 0.000000
# 6 0.000000 0.000000 0.000000 0.000000 0.000000 0.036865
#
#
# Mechanical properties :
#
#
# Convention : Reuss Voigt Hill
#
# Bulk Modulus (GPa) = 19.22973 24.85077 22.04025
# Shear Modulus (GPa) = 32.10028 36.06798 34.08413
#
# Velocity S-wave (km/s) = 3.58043 3.79526 3.68941
# Velocity P-wave (km/s) = 4.97717 5.39720 5.19143
#
# Compressibility (1/GPa) = 0.05200282
#
# Stress axis : x y z
#
# Youngs Moduli (GPa) = 38.13344 79.94776 77.20680
#
# Poissons Ratio (x) = -0.52018 0.26640
# Poissons Ratio (y) = -0.24812 0.22364
# Poissons Ratio (z) = 0.13158 0.23158
#
# Static dielectric constant tensor:
#      x y z
#    x 2.025440 0.000000 0.000000 
#    y 0.000000 2.097820 0.000000 
#    z 0.000000 0.000000 1.924590 
# 
# From -- ./inp_files/8268.got.cif
#   From: 2010.05.17/outbox.cif.g08.bks.cpg/sg43_5_cif.got.tgz:8268.got - 2010.06.03 19:21:55.
