data_PCOD9370673
_publ_section_title
;
Structure prediction by ZEFSAII (Michael W. Deem and Ramdas Pophale) SiO2 
 PCOD9370673
Probable space group: F D D 2
;
_chemical_formula_sum "Si O2"
_cell_formula_units_Z 120
_cell_length_a 22.863146
_cell_length_b 9.149313
_cell_length_c 25.894690
_cell_angle_alpha 90.000000
_cell_angle_beta 90.000000
_cell_angle_gamma 90.000000
_cell_volume 5416.705087
_symmetry_space_group_name_H-M "F D D 2"
_symmetry_group_IT_number 43
_symmetry_cell_setting 'orthorhombic'
loop_
_space_group_symop_operation_xyz
x,y,z
-x,-y,z
1/4-x,1/4+y,1/4+z
1/4+x,1/4-y,1/4+z
x,1/2+y,1/2+z
-x,1/2-y,1/2+z
1/4-x,3/4+y,3/4+z
1/4+x,3/4-y,3/4+z
1/2+x,y,1/2+z
1/2-x,-y,1/2+z
3/4-x,1/4+y,3/4+z
3/4+x,1/4-y,3/4+z
1/2+x,1/2+y,z
1/2-x,1/2-y,z
3/4-x,3/4+y,1/4+z
3/4+x,3/4-y,1/4+z
loop_
_atom_site_type_symbol
_atom_site_label
_atom_site_fract_x
_atom_site_fract_y
_atom_site_fract_z
Si Si1 0.644876 0.427662 0.389340
Si Si2 0.780500 0.394724 0.203617
Si Si3 0.899357 0.212518 0.696114
Si Si4 0.321449 0.585201 0.782065
Si Si5 0.265125 0.406824 0.116498
Si Si6 0.397533 0.476081 0.128008
Si Si7 0.856550 0.581953 0.084028
Si Si8 0.500000 0.000000 0.184919
O O1 0.596451 0.390899 0.433940
O O2 0.648611 0.601204 0.384085
O O3 0.623770 0.337853 0.338591
O O4 0.706999 0.355914 0.402886
O O5 0.750000 0.250000 0.222013
O O6 0.771826 0.517664 0.246673
O O7 0.749413 0.457888 0.153058
O O8 0.855984 0.190722 0.743350
O O9 0.907834 0.380407 0.679504
O O10 0.873274 0.140710 0.642524
O O11 0.955921 0.115726 0.710789
O O12 0.308545 0.665092 0.834955
O O13 0.358001 0.437330 0.796605
O O14 0.250000 0.250000 0.142640
O O15 0.333285 0.426457 0.105451
O O16 0.213014 0.406985 0.074434
#
# Coordination Sequence:
#
# PCOD9370673 Si02
#       8
#    16  16  16  16  16  16  16   8
#     4  10  21  43  64  90 128 179 217 276 334 404
#     4  11  21  39  68  96 129 170 222 273 344 401
#     4  10  20  38  62  86 124 169 209 268 334 399
#     4  11  20  40  62 100 128 165 223 277 333 421
#     4  11  17  36  66  94 125 171 212 278 338 389
#     4  11  23  38  65  96 133 168 230 279 341 403
#     4   9  20  36  61  90 127 169 218 264 333 403
#     4  10  20  40  70  78 122 180 218 254 336 410
#
# _framework density 22.153690000000001
#
# number of rings (size 3 to 8) (size 9 to 14) (size 15 to 20)
#    0.000    1.600    8.000    0.000    0.000    1.600 
#   13.200    0.000    8.800    3.200    0.000    0.000 
#    0.000    0.000    0.000    0.000    0.000    0.000 
#
# Total GULP energy -167180.009732 kJ/mol
# GULP energy per Si atom -5572.666991 kJ/mol
# Density = 2.210327 g / cm^3
# Si number density = 22.153690 Si / 1000 Ang^3
#
#
#
# Elastic Constant Matrix: (Units=GPa)
#
#
# Indices 1 2 3 4 5 6 
#
# 1 66.7483 12.1337 -18.5722 0.0000 0.0000 0.0000
# 2 12.1337 166.5969 17.9658 0.0000 0.0000 0.0000
# 3 -18.5722 17.9658 50.9662 0.0000 0.0000 0.0000
# 4 0.0000 0.0000 0.0000 25.1055 0.0000 0.0000
# 5 0.0000 0.0000 0.0000 0.0000 -0.2825 0.0000
# 6 0.0000 0.0000 0.0000 0.0000 0.0000 33.1925
#
#
#
# Elastic Compliance Matrix: (Units=1/GPa)
#
#
# Indices 1 2 3 4 5 6 
#
# 1 0.017300 -0.002017 0.007015 0.000000 0.000000 0.000000
# 2 -0.002017 0.006475 -0.003017 0.000000 0.000000 0.000000
# 3 0.007015 -0.003017 0.023241 0.000000 0.000000 0.000000
# 4 0.000000 0.000000 0.000000 0.039832 0.000000 0.000000
# 5 0.000000 0.000000 0.000000 0.000000 -3.539383 0.000000
# 6 0.000000 0.000000 0.000000 0.000000 0.000000 0.030127
#
#
# Mechanical properties :
#
#
# Convention : Reuss Voigt Hill
#
# Bulk Modulus (GPa) = 19.61622 34.15175 26.88399
# Shear Modulus (GPa) = -1.46654 29.78871 14.16108
#
# Velocity S-wave (km/s) = -0.81451 3.67091 2.53102
# Velocity P-wave (km/s) = 2.82653 5.78072 4.55005
#
# Compressibility (1/GPa) = 0.05097821
#
# Stress axis : x y z
#
# Youngs Moduli (GPa) = 57.80314 154.44600 43.02795
#
# Poissons Ratio (x) = 0.31144 -0.30184
# Poissons Ratio (y) = 0.11656 0.12982
# Poissons Ratio (z) = -0.40549 0.46599
#
# Static dielectric constant tensor:
#      x y z
#    x 1.927930 0.000000 0.000000 
#    y 0.000000 1.840320 0.000000 
#    z 0.000000 0.000000 1.805800 
# 
# From -- ./inp_files/26591.got.cif
#   From: 2010.05.17/outbox.cif.g08.bks.cpg/sg43_14_cif.got.tgz:26591.got - 2010.06.03 19:21:55.
