data_PCOD9370543
_publ_section_title
;
Structure prediction by ZEFSAII (Michael W. Deem and Ramdas Pophale) SiO2 
 PCOD9370543
Probable space group: F D D 2
;
_chemical_formula_sum "Si O2"
_cell_formula_units_Z 104
_cell_length_a 14.019064
_cell_length_b 17.439079
_cell_length_c 20.581751
_cell_angle_alpha 90.000000
_cell_angle_beta 90.000000
_cell_angle_gamma 90.000000
_cell_volume 5031.817523
_symmetry_space_group_name_H-M "F D D 2"
_symmetry_group_IT_number 43
_symmetry_cell_setting 'orthorhombic'
loop_
_space_group_symop_operation_xyz
x,y,z
-x,-y,z
1/4-x,1/4+y,1/4+z
1/4+x,1/4-y,1/4+z
x,1/2+y,1/2+z
-x,1/2-y,1/2+z
1/4-x,3/4+y,3/4+z
1/4+x,3/4-y,3/4+z
1/2+x,y,1/2+z
1/2-x,-y,1/2+z
3/4-x,1/4+y,3/4+z
3/4+x,1/4-y,3/4+z
1/2+x,1/2+y,z
1/2-x,1/2-y,z
3/4-x,3/4+y,1/4+z
3/4+x,3/4-y,1/4+z
loop_
_atom_site_type_symbol
_atom_site_label
_atom_site_fract_x
_atom_site_fract_y
_atom_site_fract_z
Si Si1 0.611248 0.782943 0.990970
Si Si2 0.549975 0.399751 0.674827
Si Si3 0.447164 0.260074 0.127813
Si Si4 0.250000 0.250000 0.802463
Si Si5 0.652312 0.295772 0.082613
Si Si6 0.579022 0.620888 0.464196
Si Si7 0.530617 0.580708 0.198475
O O1 0.616275 0.702508 0.952839
O O2 0.702874 0.829482 0.964029
O O3 0.515021 0.830171 0.978204
O O4 0.617553 0.759248 0.065997
O O5 0.568760 0.309792 0.677020
O O6 0.534612 0.432962 0.601464
O O7 0.556980 0.251649 0.103592
O O8 0.440621 0.346248 0.155459
O O9 0.178530 0.290568 0.752505
O O10 0.750000 0.250000 0.092024
O O11 0.660968 0.362152 0.136553
O O12 0.645507 0.319579 0.007448
O O13 0.681002 0.651980 0.485584
O O14 0.500000 0.500000 0.164795
#
# Coordination Sequence:
#
# PCOD9370543 Si02
#       7
#    16  16  16   8  16  16  16
#     4  10  21  39  60  89 133 159 203 256 315 370
#     4  10  24  39  60  96 127 161 210 260 305 384
#     4  11  22  43  64  84 130 168 207 264 312 372
#     4  10  20  34  62  96 122 152 198 254 322 366
#     4  10  20  35  61  93 119 152 208 257 313 370
#     4  11  20  35  65  93 121 160 193 263 321 367
#     4  10  24  39  59  91 123 161 213 261 307 384
#
# _framework density 20.668476999999999
#
# number of rings (size 3 to 8) (size 9 to 14) (size 15 to 20)
#    0.000    1.846    2.308    2.769    6.462    0.000 
#    5.538    4.615    0.000    0.000    0.000    0.000 
#    0.000    0.000    0.000    0.000    0.000    0.000 
#
# Total GULP energy -144858.305936 kJ/mol
# GULP energy per Si atom -5571.473305 kJ/mol
# Density = 2.062143 g / cm^3
# Si number density = 20.668477 Si / 1000 Ang^3
#
#
#
# Elastic Constant Matrix: (Units=GPa)
#
#
# Indices 1 2 3 4 5 6 
#
# 1 31.6300 -0.4622 4.3051 0.0000 0.0000 0.0000
# 2 -0.4622 126.0558 40.3696 0.0000 0.0000 0.0000
# 3 4.3051 40.3696 81.2630 0.0000 0.0000 0.0000
# 4 0.0000 0.0000 0.0000 27.2254 0.0000 0.0000
# 5 0.0000 0.0000 0.0000 0.0000 14.7796 0.0000
# 6 0.0000 0.0000 0.0000 0.0000 0.0000 32.7800
#
#
#
# Elastic Compliance Matrix: (Units=1/GPa)
#
#
# Indices 1 2 3 4 5 6 
#
# 1 0.031910 0.000783 -0.002079 0.000000 0.000000 0.000000
# 2 0.000783 0.009453 -0.004738 0.000000 0.000000 0.000000
# 3 -0.002079 -0.004738 0.014769 0.000000 0.000000 0.000000
# 4 0.000000 0.000000 0.000000 0.036730 0.000000 0.000000
# 5 0.000000 0.000000 0.000000 0.000000 0.067661 0.000000
# 6 0.000000 0.000000 0.000000 0.000000 0.000000 0.030506
#
#
# Mechanical properties :
#
#
# Convention : Reuss Voigt Hill
#
# Bulk Modulus (GPa) = 22.69405 36.37487 29.53446
# Shear Modulus (GPa) = 22.95828 27.93942 25.44885
#
# Velocity S-wave (km/s) = 3.33646 3.68066 3.51278
# Velocity P-wave (km/s) = 5.08395 5.97498 5.54738
#
# Compressibility (1/GPa) = 0.04406441
#
# Stress axis : x y z
#
# Youngs Moduli (GPa) = 31.33807 105.78566 67.70760
#
# Poissons Ratio (x) = -0.08283 0.14080
# Poissons Ratio (y) = -0.02454 0.32077
# Poissons Ratio (z) = 0.06517 0.50117
#
# Static dielectric constant tensor:
#      x y z
#    x 1.736870 0.000000 0.000000 
#    y 0.000000 1.823760 0.000000 
#    z 0.000000 0.000000 1.781270 
# 
# From -- ./inp_files/17652.got.cif
#   From: 2010.05.17/outbox.cif.g08.bks.cpg/sg43_9_cif.got.tgz:17652.got - 2010.06.03 19:21:55.
