data_PCOD9370816
_publ_section_title
;
Structure prediction by ZEFSAII (Michael W. Deem and Ramdas Pophale) SiO2 
 PCOD9370816
Probable space group: F D D 2
;
_chemical_formula_sum "Si O2"
_cell_formula_units_Z 104
_cell_length_a 9.691614
_cell_length_b 27.748572
_cell_length_c 17.920545
_cell_angle_alpha 90.000000
_cell_angle_beta 90.000000
_cell_angle_gamma 90.000000
_cell_volume 4819.344370
_symmetry_space_group_name_H-M "F D D 2"
_symmetry_group_IT_number 43
_symmetry_cell_setting 'orthorhombic'
loop_
_space_group_symop_operation_xyz
x,y,z
-x,-y,z
1/4-x,1/4+y,1/4+z
1/4+x,1/4-y,1/4+z
x,1/2+y,1/2+z
-x,1/2-y,1/2+z
1/4-x,3/4+y,3/4+z
1/4+x,3/4-y,3/4+z
1/2+x,y,1/2+z
1/2-x,-y,1/2+z
3/4-x,1/4+y,3/4+z
3/4+x,1/4-y,3/4+z
1/2+x,1/2+y,z
1/2-x,1/2-y,z
3/4-x,3/4+y,1/4+z
3/4+x,3/4-y,1/4+z
loop_
_atom_site_type_symbol
_atom_site_label
_atom_site_fract_x
_atom_site_fract_y
_atom_site_fract_z
Si Si1 0.604628 0.128236 0.331900
Si Si2 0.106429 0.651517 0.668874
Si Si3 0.331727 0.654459 0.429207
Si Si4 0.000000 0.500000 0.109850
Si Si5 0.250000 0.750000 0.113704
Si Si6 0.701702 0.474956 0.496390
Si Si7 0.319923 0.143724 0.582080
Si Si8 0.500000 0.000000 0.455393
O O1 0.460043 0.132113 0.372908
O O2 0.611792 0.089696 0.266161
O O3 0.716285 0.117830 0.395762
O O4 0.613022 0.174925 0.277019
O O5 0.092520 0.633336 0.753750
O O6 0.178890 0.704202 0.665181
O O7 0.960278 0.649432 0.628631
O O8 0.248896 0.702835 0.408821
O O9 0.465029 0.637742 0.382831
O O10 0.132626 0.509601 0.057811
O O11 0.119483 0.740035 0.168921
O O12 0.269234 0.699285 0.071013
O O13 0.866047 0.478163 0.497507
#
# Coordination Sequence:
#
# PCOD9370816 Si02
#       8
#    16  16  16   8   8  16  16   8
#     4  11  23  42  65  96 137 182 223 292 350 420
#     4  12  27  44  68 105 144 185 237 300 366 428
#     4  11  22  42  69  97 133 184 235 282 350 422
#     4   9  22  37  66 102 136 174 236 294 341 433
#     4  11  22  44  73 101 135 186 246 298 347 448
#     4  10  20  40  66  97 132 181 232 282 363 422
#     4  12  25  46  72 106 139 190 243 297 360 432
#     4  12  22  41  67  99 139 194 228 294 362 445
#
# _framework density 21.579696999999999
#
# number of rings (size 3 to 8) (size 9 to 14) (size 15 to 20)
#    0.000    0.923    3.077    4.615    2.154    0.615 
#    0.000   10.769    0.000    0.000    0.000    0.000 
#    0.000    0.000    0.000    0.000    0.000    0.000 
#
# Total GULP energy -144871.336952 kJ/mol
# GULP energy per Si atom -5571.974498 kJ/mol
# Density = 2.153058 g / cm^3
# Si number density = 21.579697 Si / 1000 Ang^3
#
#
#
# Elastic Constant Matrix: (Units=GPa)
#
#
# Indices 1 2 3 4 5 6 
#
# 1 139.1687 12.3109 25.0975 0.0000 0.0000 0.0000
# 2 12.3109 41.5538 17.5792 0.0000 0.0000 0.0000
# 3 25.0975 17.5792 93.9445 0.0000 0.0000 0.0000
# 4 0.0000 0.0000 0.0000 4.6942 0.0000 0.0000
# 5 0.0000 0.0000 0.0000 0.0000 46.2335 0.0000
# 6 0.0000 0.0000 0.0000 0.0000 0.0000 8.2406
#
#
#
# Elastic Compliance Matrix: (Units=1/GPa)
#
#
# Indices 1 2 3 4 5 6 
#
# 1 0.007637 -0.001520 -0.001756 0.000000 0.000000 0.000000
# 2 -0.001520 0.026436 -0.004541 0.000000 0.000000 0.000000
# 3 -0.001756 -0.004541 0.011963 0.000000 0.000000 0.000000
# 4 0.000000 0.000000 0.000000 0.213029 0.000000 0.000000
# 5 0.000000 0.000000 0.000000 0.000000 0.021629 0.000000
# 6 0.000000 0.000000 0.000000 0.000000 0.000000 0.121351
#
#
# Mechanical properties :
#
#
# Convention : Reuss Voigt Hill
#
# Bulk Modulus (GPa) = 32.89072 42.73804 37.81438
# Shear Modulus (GPa) = 11.68736 26.47893 19.08315
#
# Velocity S-wave (km/s) = 2.32973 3.50670 2.97696
# Velocity P-wave (km/s) = 4.74463 6.02027 5.42011
#
# Compressibility (1/GPa) = 0.03040371
#
# Stress axis : x y z
#
# Youngs Moduli (GPa) = 130.94852 37.82655 83.58864
#
# Poissons Ratio (x) = 0.05748 0.14676
# Poissons Ratio (y) = 0.19900 0.37957
# Poissons Ratio (z) = 0.22992 0.17177
#
# Static dielectric constant tensor:
#      x y z
#    x 1.680380 0.000000 0.000000 
#    y 0.000000 1.950380 0.000000 
#    z 0.000000 0.000000 1.829660 
# 
# From -- ./inp_files/16582.got.cif
#   From: 2010.05.17/outbox.cif.g08.bks.cpg/sg43_9_cif.got.tgz:16582.got - 2010.06.03 19:21:55.
