data_PCOD9370661
_publ_section_title
;
Structure prediction by ZEFSAII (Michael W. Deem and Ramdas Pophale) SiO2 
 PCOD9370661
Probable space group: F D D 2
;
_chemical_formula_sum "Si O2"
_cell_formula_units_Z 96
_cell_length_a 15.409693
_cell_length_b 24.049477
_cell_length_c 10.124435
_cell_angle_alpha 90.000000
_cell_angle_beta 90.000000
_cell_angle_gamma 90.000000
_cell_volume 3752.065570
_symmetry_space_group_name_H-M "F D D 2"
_symmetry_group_IT_number 43
_symmetry_cell_setting 'orthorhombic'
loop_
_space_group_symop_operation_xyz
x,y,z
-x,-y,z
1/4-x,1/4+y,1/4+z
1/4+x,1/4-y,1/4+z
x,1/2+y,1/2+z
-x,1/2-y,1/2+z
1/4-x,3/4+y,3/4+z
1/4+x,3/4-y,3/4+z
1/2+x,y,1/2+z
1/2-x,-y,1/2+z
3/4-x,1/4+y,3/4+z
3/4+x,1/4-y,3/4+z
1/2+x,1/2+y,z
1/2-x,1/2-y,z
3/4-x,3/4+y,1/4+z
3/4+x,3/4-y,1/4+z
loop_
_atom_site_type_symbol
_atom_site_label
_atom_site_fract_x
_atom_site_fract_y
_atom_site_fract_z
Si Si1 0.500000 0.500000 0.914580
Si Si2 0.628154 0.061581 0.608440
Si Si3 0.911218 0.889749 0.582355
Si Si4 0.000000 0.000000 0.479420
Si Si5 0.064308 0.733419 0.083780
Si Si6 0.259068 0.094638 0.401107
Si Si7 0.984421 0.887315 0.842881
O O1 0.532987 0.446895 0.836650
O O2 0.567121 0.530066 0.008227
O O3 0.580826 0.109760 0.697866
O O4 0.701721 0.092887 0.528982
O O5 0.667978 0.014923 0.698458
O O6 0.953048 0.830157 0.550311
O O7 0.825190 0.892363 0.491112
O O8 0.969561 0.943820 0.552426
O O9 0.903704 0.890337 0.743625
O O10 0.089876 0.984807 0.403084
O O11 0.995518 0.776905 0.150834
O O12 0.266623 0.113732 0.244186
#
# Coordination Sequence:
#
# PCOD9370661 Si02
#       7
#     8  16  16   8  16  16  16
#     4  10  20  38  60  86 132 182 222 294 364 424
#     4  10  20  40  66  93 130 184 241 295 359 439
#     4  11  22  40  64  95 136 182 234 297 368 440
#     4  10  22  38  60  94 134 176 236 302 366 438
#     4  10  20  38  63  93 130 181 239 297 363 442
#     4   9  21  40  64  95 133 179 233 295 362 436
#     4  10  22  38  61  95 132 175 234 291 359 435
#
# _framework density 25.585906999999999
#
# number of rings (size 3 to 8) (size 9 to 14) (size 15 to 20)
#    0.000    2.000    0.000    4.000    0.000    4.000 
#    0.000   11.667    0.000    0.000    0.000    0.000 
#    0.000    0.000    0.000    0.000    0.000    0.000 
#
# Total GULP energy -133639.399287 kJ/mol
# GULP energy per Si atom -5568.308304 kJ/mol
# Density = 2.552767 g / cm^3
# Si number density = 25.585907 Si / 1000 Ang^3
#
#
#
# Elastic Constant Matrix: (Units=GPa)
#
#
# Indices 1 2 3 4 5 6 
#
# 1 62.1786 13.5097 41.6449 0.0000 0.0000 0.0000
# 2 13.5097 222.0093 41.1891 0.0000 0.0000 0.0000
# 3 41.6449 41.1891 101.0483 0.0000 0.0000 0.0000
# 4 0.0000 0.0000 0.0000 11.6219 0.0000 0.0000
# 5 0.0000 0.0000 0.0000 0.0000 31.3102 0.0000
# 6 0.0000 0.0000 0.0000 0.0000 0.0000 39.6640
#
#
#
# Elastic Compliance Matrix: (Units=1/GPa)
#
#
# Indices 1 2 3 4 5 6 
#
# 1 0.022243 0.000376 -0.009320 0.000000 0.000000 0.000000
# 2 0.000376 0.004879 -0.002144 0.000000 0.000000 0.000000
# 3 -0.009320 -0.002144 0.014611 0.000000 0.000000 0.000000
# 4 0.000000 0.000000 0.000000 0.086044 0.000000 0.000000
# 5 0.000000 0.000000 0.000000 0.000000 0.031938 0.000000
# 6 0.000000 0.000000 0.000000 0.000000 0.000000 0.025212
#
#
# Mechanical properties :
#
#
# Convention : Reuss Voigt Hill
#
# Bulk Modulus (GPa) = 51.13201 64.21375 57.67288
# Shear Modulus (GPa) = 23.40561 35.77873 29.59217
#
# Velocity S-wave (km/s) = 3.02782 3.74354 3.40454
# Velocity P-wave (km/s) = 5.67904 6.62097 6.16801
#
# Compressibility (1/GPa) = 0.01955722
#
# Stress axis : x y z
#
# Youngs Moduli (GPa) = 44.95703 204.95315 68.44065
#
# Poissons Ratio (x) = -0.07698 0.63789
# Poissons Ratio (y) = -0.01689 0.14671
# Poissons Ratio (z) = 0.41901 0.43934
#
# Static dielectric constant tensor:
#      x y z
#    x 2.158430 0.000000 0.000000 
#    y 0.000000 2.010250 0.000000 
#    z 0.000000 0.000000 2.182460 
# 
# From -- ./inp_files/6720.got.cif
#   From: 2010.05.17/outbox.cif.g08.bks.cpg/sg43_4_cif.got.tgz:6720.got - 2010.06.03 19:21:55.
