data_PCOD9370757
_publ_section_title
;
Structure prediction by ZEFSAII (Michael W. Deem and Ramdas Pophale) SiO2 
 PCOD9370757
Probable space group: F D D 2
;
_chemical_formula_sum "Si O2"
_cell_formula_units_Z 120
_cell_length_a 22.267023
_cell_length_b 9.419717
_cell_length_c 26.417592
_cell_angle_alpha 90.000000
_cell_angle_beta 90.000000
_cell_angle_gamma 90.000000
_cell_volume 5541.064960
_symmetry_space_group_name_H-M "F D D 2"
_symmetry_group_IT_number 43
_symmetry_cell_setting 'orthorhombic'
loop_
_space_group_symop_operation_xyz
x,y,z
-x,-y,z
1/4-x,1/4+y,1/4+z
1/4+x,1/4-y,1/4+z
x,1/2+y,1/2+z
-x,1/2-y,1/2+z
1/4-x,3/4+y,3/4+z
1/4+x,3/4-y,3/4+z
1/2+x,y,1/2+z
1/2-x,-y,1/2+z
3/4-x,1/4+y,3/4+z
3/4+x,1/4-y,3/4+z
1/2+x,1/2+y,z
1/2-x,1/2-y,z
3/4-x,3/4+y,1/4+z
3/4+x,3/4-y,1/4+z
loop_
_atom_site_type_symbol
_atom_site_label
_atom_site_fract_x
_atom_site_fract_y
_atom_site_fract_z
Si Si1 0.872571 0.117095 0.808670
Si Si2 0.623148 0.142226 0.372730
Si Si3 0.662924 0.619150 0.368551
Si Si4 0.250000 0.750000 0.322641
Si Si5 0.136681 0.699963 0.723048
Si Si6 0.690586 0.659391 0.588095
Si Si7 0.741943 0.548816 0.281038
Si Si8 0.939022 0.580179 0.722498
O O1 0.857753 0.220573 0.855932
O O2 0.901558 0.220371 0.767467
O O3 0.812416 0.074090 0.777660
O O4 0.897467 0.971819 0.830135
O O5 0.691034 0.197567 0.355717
O O6 0.577566 0.274408 0.371573
O O7 0.618691 0.052554 0.424680
O O8 0.614163 0.518230 0.343239
O O9 0.723468 0.599375 0.337264
O O10 0.672342 0.570627 0.425879
O O11 0.269272 0.619662 0.286006
O O12 0.201915 0.644195 0.743652
O O13 0.107870 0.546360 0.717875
O O14 0.750000 0.750000 0.600824
O O15 0.693180 0.613156 0.529177
O O16 0.000000 0.500000 0.709347
#
# Coordination Sequence:
#
# PCOD9370757 Si02
#       8
#    16  16  16   8  16  16  16  16
#     4  10  21  39  67  95 126 165 225 286 330 385
#     4  11  23  42  67 100 132 173 228 287 340 390
#     4  11  19  39  67  94 125 169 225 276 327 400
#     4  10  20  40  72  98 134 168 230 302 336 376
#     4  11  21  39  64  97 134 166 218 276 339 407
#     4  11  25  46  62  92 145 184 218 265 342 420
#     4  10  20  39  67  98 128 170 221 286 336 393
#     4  11  22  37  69  95 124 175 225 267 334 406
#
# _framework density 21.656488
#
# number of rings (size 3 to 8) (size 9 to 14) (size 15 to 20)
#    0.000    1.333    5.333    2.400    1.867    1.067 
#    4.800    0.667    2.933    0.000    0.000    0.000 
#    0.000    0.000    0.000    0.000    0.000    0.000 
#
# Total GULP energy -167072.716919 kJ/mol
# GULP energy per Si atom -5569.090564 kJ/mol
# Density = 2.160720 g / cm^3
# Si number density = 21.656488 Si / 1000 Ang^3
#
#
#
# Elastic Constant Matrix: (Units=GPa)
#
#
# Indices 1 2 3 4 5 6 
#
# 1 33.5280 1.5374 12.4329 0.0000 0.0000 0.0000
# 2 1.5374 101.2283 6.6395 0.0000 0.0000 0.0000
# 3 12.4329 6.6395 57.3764 0.0000 0.0000 0.0000
# 4 0.0000 0.0000 0.0000 26.1671 0.0000 0.0000
# 5 0.0000 0.0000 0.0000 0.0000 1.8612 0.0000
# 6 0.0000 0.0000 0.0000 0.0000 0.0000 23.1937
#
#
#
# Elastic Compliance Matrix: (Units=1/GPa)
#
#
# Indices 1 2 3 4 5 6 
#
# 1 0.032432 -0.000032 -0.007024 0.000000 0.000000 0.000000
# 2 -0.000032 0.009954 -0.001145 0.000000 0.000000 0.000000
# 3 -0.007024 -0.001145 0.019083 0.000000 0.000000 0.000000
# 4 0.000000 0.000000 0.000000 0.038216 0.000000 0.000000
# 5 0.000000 0.000000 0.000000 0.000000 0.537276 0.000000
# 6 0.000000 0.000000 0.000000 0.000000 0.000000 0.043115
#
#
# Mechanical properties :
#
#
# Convention : Reuss Voigt Hill
#
# Bulk Modulus (GPa) = 22.18880 25.92804 24.05842
# Shear Modulus (GPa) = 7.02740 21.67927 14.35333
#
# Velocity S-wave (km/s) = 1.80333 3.16737 2.57723
# Velocity P-wave (km/s) = 3.82152 5.03733 4.47095
#
# Compressibility (1/GPa) = 0.04506779
#
# Stress axis : x y z
#
# Youngs Moduli (GPa) = 30.83380 100.45969 52.40185
#
# Poissons Ratio (x) = 0.00320 0.36807
# Poissons Ratio (y) = 0.00098 0.06000
# Poissons Ratio (z) = 0.21658 0.11502
#
# Static dielectric constant tensor:
#      x y z
#    x 1.838700 0.000000 0.000000 
#    y 0.000000 1.875820 0.000000 
#    z 0.000000 0.000000 1.846560 
# 
# From -- ./inp_files/26598.got.cif
#   From: 2010.05.17/outbox.cif.g08.bks.cpg/sg43_14_cif.got.tgz:26598.got - 2010.06.03 19:21:55.
