data_PCOD9370888
_publ_section_title
;
Structure prediction by ZEFSAII (Michael W. Deem and Ramdas Pophale) SiO2 
 PCOD9370888
Probable space group: F D D 2
;
_chemical_formula_sum "Si O2"
_cell_formula_units_Z 104
_cell_length_a 24.381010
_cell_length_b 15.637155
_cell_length_c 11.521231
_cell_angle_alpha 90.000000
_cell_angle_beta 90.000000
_cell_angle_gamma 90.000000
_cell_volume 4392.465084
_symmetry_space_group_name_H-M "F D D 2"
_symmetry_group_IT_number 43
_symmetry_cell_setting 'orthorhombic'
loop_
_space_group_symop_operation_xyz
x,y,z
-x,-y,z
1/4-x,1/4+y,1/4+z
1/4+x,1/4-y,1/4+z
x,1/2+y,1/2+z
-x,1/2-y,1/2+z
1/4-x,3/4+y,3/4+z
1/4+x,3/4-y,3/4+z
1/2+x,y,1/2+z
1/2-x,-y,1/2+z
3/4-x,1/4+y,3/4+z
3/4+x,1/4-y,3/4+z
1/2+x,1/2+y,z
1/2-x,1/2-y,z
3/4-x,3/4+y,1/4+z
3/4+x,3/4-y,1/4+z
loop_
_atom_site_type_symbol
_atom_site_label
_atom_site_fract_x
_atom_site_fract_y
_atom_site_fract_z
Si Si1 0.912335 0.602126 0.837110
Si Si2 0.463333 0.833640 0.127256
Si Si3 0.500000 0.500000 0.485231
Si Si4 0.067818 0.250540 0.014489
Si Si5 0.198289 0.688850 0.841379
Si Si6 0.373229 0.672041 0.730337
Si Si7 0.982177 0.599255 0.339576
O O1 0.850076 0.569328 0.848360
O O2 0.951842 0.536046 0.904116
O O3 0.931689 0.612349 0.704939
O O4 0.920884 0.691135 0.903386
O O5 0.508655 0.770534 0.071616
O O6 0.474295 0.846033 0.264539
O O7 0.478274 0.924232 0.066391
O O8 0.112249 0.285356 0.108044
O O9 0.077812 0.151605 0.987580
O O10 0.250000 0.750000 0.869240
O O11 0.147419 0.751335 0.811024
O O12 0.213697 0.639912 0.723213
O O13 0.427499 0.623321 0.769675
O O14 0.000000 0.500000 0.333238
#
# Coordination Sequence:
#
# PCOD9370888 Si02
#       7
#    16  16   8  16  16  16  16
#     4  11  24  45  70 106 146 208 235 320 385 463
#     4  10  22  42  73 102 144 190 262 308 378 452
#     4  10  22  44  66 100 144 190 252 306 378 452
#     4  10  24  44  72 108 143 195 265 307 380 461
#     4  11  25  46  72 104 156 200 248 315 399 441
#     4  11  22  47  72 106 146 201 254 319 370 461
#     4  10  20  41  73 102 139 196 249 308 367 448
#
# _framework density 23.676908999999998
#
# number of rings (size 3 to 8) (size 9 to 14) (size 15 to 20)
#    0.000    1.538    3.077    0.923    6.462    1.231 
#    8.308    0.000    0.000    0.000    0.000    0.000 
#    0.000    0.000    0.000    0.000    0.000    0.000 
#
# Total GULP energy -145557.711115 kJ/mol
# GULP energy per Si atom -5598.373504 kJ/mol
# Density = 2.362302 g / cm^3
# Si number density = 23.676909 Si / 1000 Ang^3
#
#
#
# Elastic Constant Matrix: (Units=GPa)
#
#
# Indices 1 2 3 4 5 6 
#
# 1 120.4346 4.8844 26.3278 0.0000 0.0000 0.0000
# 2 4.8844 70.7277 26.3286 0.0000 0.0000 0.0000
# 3 26.3278 26.3286 157.4709 0.0000 0.0000 0.0000
# 4 0.0000 0.0000 0.0000 19.3842 0.0000 0.0000
# 5 0.0000 0.0000 0.0000 0.0000 40.2224 0.0000
# 6 0.0000 0.0000 0.0000 0.0000 0.0000 21.8312
#
#
#
# Elastic Compliance Matrix: (Units=1/GPa)
#
#
# Indices 1 2 3 4 5 6 
#
# 1 0.008619 -0.000063 -0.001430 0.000000 0.000000 0.000000
# 2 -0.000063 0.015078 -0.002510 0.000000 0.000000 0.000000
# 3 -0.001430 -0.002510 0.007009 0.000000 0.000000 0.000000
# 4 0.000000 0.000000 0.000000 0.051588 0.000000 0.000000
# 5 0.000000 0.000000 0.000000 0.000000 0.024862 0.000000
# 6 0.000000 0.000000 0.000000 0.000000 0.000000 0.045806
#
#
# Mechanical properties :
#
#
# Convention : Reuss Voigt Hill
#
# Bulk Modulus (GPa) = 44.05639 51.52387 47.79013
# Shear Modulus (GPa) = 29.66747 35.69372 32.68060
#
# Velocity S-wave (km/s) = 3.54363 3.88691 3.71923
# Velocity P-wave (km/s) = 5.94902 6.47708 6.21866
#
# Compressibility (1/GPa) = 0.02269818
#
# Stress axis : x y z
#
# Youngs Moduli (GPa) = 116.02932 66.32364 142.66802
#
# Poissons Ratio (x) = 0.00416 0.20408
# Poissons Ratio (y) = 0.00727 0.35816
# Poissons Ratio (z) = 0.16598 0.16650
#
# Static dielectric constant tensor:
#      x y z
#    x 1.912830 0.000000 0.000000 
#    y 0.000000 1.869770 0.000000 
#    z 0.000000 0.000000 1.873880 
# 
# From -- ./inp_files/7961.got.cif
#   From: 2010.05.17/outbox.cif.g08.bks.cpg/sg43_4_cif.got.tgz:7961.got - 2010.06.03 19:21:55.
