data_PCOD9370681
_publ_section_title
;
Structure prediction by ZEFSAII (Michael W. Deem and Ramdas Pophale) SiO2 
 PCOD9370681
Probable space group: F D D 2
;
_chemical_formula_sum "Si O2"
_cell_formula_units_Z 120
_cell_length_a 32.090658
_cell_length_b 7.798395
_cell_length_c 18.721950
_cell_angle_alpha 90.000000
_cell_angle_beta 90.000000
_cell_angle_gamma 90.000000
_cell_volume 4685.273334
_symmetry_space_group_name_H-M "F D D 2"
_symmetry_group_IT_number 43
_symmetry_cell_setting 'orthorhombic'
loop_
_space_group_symop_operation_xyz
x,y,z
-x,-y,z
1/4-x,1/4+y,1/4+z
1/4+x,1/4-y,1/4+z
x,1/2+y,1/2+z
-x,1/2-y,1/2+z
1/4-x,3/4+y,3/4+z
1/4+x,3/4-y,3/4+z
1/2+x,y,1/2+z
1/2-x,-y,1/2+z
3/4-x,1/4+y,3/4+z
3/4+x,1/4-y,3/4+z
1/2+x,1/2+y,z
1/2-x,1/2-y,z
3/4-x,3/4+y,1/4+z
3/4+x,3/4-y,1/4+z
loop_
_atom_site_type_symbol
_atom_site_label
_atom_site_fract_x
_atom_site_fract_y
_atom_site_fract_z
Si Si1 0.313959 0.421417 0.901510
Si Si2 0.016455 0.319436 0.693281
Si Si3 0.945775 0.151691 0.032493
Si Si4 0.435223 0.049583 0.007777
Si Si5 0.101726 0.682947 0.199857
Si Si6 0.716791 0.109968 0.618307
Si Si7 0.378391 0.475389 0.110437
Si Si8 0.250000 0.750000 0.136093
O O1 0.272648 0.443150 0.947760
O O2 0.294840 0.403882 0.821868
O O3 0.338270 0.245291 0.914002
O O4 0.343819 0.586142 0.903293
O O5 0.030522 0.352653 0.609230
O O6 0.058746 0.258102 0.729914
O O7 0.000000 0.500000 0.718288
O O8 0.933092 0.349651 0.025926
O O9 0.906048 0.027318 0.041940
O O10 0.965840 0.119292 0.955480
O O11 0.388243 0.113258 0.003115
O O12 0.462534 0.065640 0.937447
O O13 0.121488 0.840023 0.152607
O O14 0.750000 0.250000 0.592250
O O15 0.667590 0.100658 0.597548
O O16 0.733538 0.921004 0.600270
#
# Coordination Sequence:
#
# PCOD9370681 Si02
#       8
#    16  16  16  16  16  16  16   8
#     4  12  23  38  66  91 126 165 207 263 321 373
#     4  11  20  38  64  97 126 157 206 267 321 376
#     4  10  20  38  63  91 132 157 207 265 322 371
#     4  11  22  39  63  96 125 165 208 265 318 380
#     4  11  23  40  58  96 130 162 208 261 322 380
#     4  11  24  39  64  96 129 162 215 265 318 377
#     4  11  23  39  60  98 126 166 205 261 317 384
#     4  10  22  36  62  90 126 154 206 258 326 362
#
# _framework density 25.612165999999998
#
# number of rings (size 3 to 8) (size 9 to 14) (size 15 to 20)
#    0.000    1.067    8.000    2.400    3.733    0.000 
#    0.000    0.000    0.000    4.800    1.733    0.000 
#    0.000    0.000    0.000    0.000    0.000    0.000 
#
# Total GULP energy -167806.809537 kJ/mol
# GULP energy per Si atom -5593.560318 kJ/mol
# Density = 2.555387 g / cm^3
# Si number density = 25.612166 Si / 1000 Ang^3
#
#
#
# Elastic Constant Matrix: (Units=GPa)
#
#
# Indices 1 2 3 4 5 6 
#
# 1 194.3247 69.7119 26.8656 0.0000 0.0000 0.0000
# 2 69.7119 96.1609 24.1668 0.0001 0.0000 -0.0001
# 3 26.8656 24.1668 71.9827 0.0000 0.0000 0.0000
# 4 0.0000 0.0001 0.0000 -7.7801 0.0000 0.0000
# 5 0.0000 0.0000 0.0000 0.0000 33.8165 0.0000
# 6 0.0000 -0.0001 0.0000 0.0000 0.0000 52.6184
#
#
#
# Elastic Compliance Matrix: (Units=1/GPa)
#
#
# Indices 1 2 3 4 5 6 
#
# 1 0.007019 -0.004839 -0.000995 0.000000 0.000000 0.000000
# 2 -0.004839 0.014693 -0.003127 0.000000 0.000000 0.000000
# 3 -0.000995 -0.003127 0.015314 0.000000 0.000000 0.000000
# 4 0.000000 0.000000 0.000000 -0.128534 0.000000 0.000000
# 5 0.000000 0.000000 0.000000 0.000000 0.029571 0.000000
# 6 0.000000 0.000000 0.000000 0.000000 0.000000 0.019005
#
#
# Mechanical properties :
#
#
# Convention : Reuss Voigt Hill
#
# Bulk Modulus (GPa) = 52.34507 67.10630 59.72569
# Shear Modulus (GPa) = -268.21050 31.84591 -118.18230
#
# Velocity S-wave (km/s) = -10.24438 3.53000 -6.80024
# Velocity P-wave (km/s) = 10.92922 6.54770 6.18771
#
# Compressibility (1/GPa) = 0.01910399
#
# Stress axis : x y z
#
# Youngs Moduli (GPa) = 142.46180 68.06044 65.30170
#
# Poissons Ratio (x) = 0.32932 0.06500
# Poissons Ratio (y) = 0.68931 0.20420
# Poissons Ratio (z) = 0.14180 0.21282
#
# Static dielectric constant tensor:
#      x y z
#    x 2.059130 0.000000 0.000000 
#    y 0.000000 1.966770 0.000000 
#    z 0.000000 0.000000 2.114870 
# 
# From -- ./inp_files/26745.got.cif
#   From: 2010.05.17/outbox.cif.g08.bks.cpg/sg43_14_cif.got.tgz:26745.got - 2010.06.03 19:21:55.
