data_PCOD9370486
_publ_section_title
;
Structure prediction by ZEFSAII (Michael W. Deem and Ramdas Pophale) SiO2 
 PCOD9370486
Probable space group: F D D 2
;
_chemical_formula_sum "Si O2"
_cell_formula_units_Z 104
_cell_length_a 17.654041
_cell_length_b 25.815742
_cell_length_c 8.281579
_cell_angle_alpha 90.000000
_cell_angle_beta 90.000000
_cell_angle_gamma 90.000000
_cell_volume 3774.347581
_symmetry_space_group_name_H-M "F D D 2"
_symmetry_group_IT_number 43
_symmetry_cell_setting 'orthorhombic'
loop_
_space_group_symop_operation_xyz
x,y,z
-x,-y,z
1/4-x,1/4+y,1/4+z
1/4+x,1/4-y,1/4+z
x,1/2+y,1/2+z
-x,1/2-y,1/2+z
1/4-x,3/4+y,3/4+z
1/4+x,3/4-y,3/4+z
1/2+x,y,1/2+z
1/2-x,-y,1/2+z
3/4-x,1/4+y,3/4+z
3/4+x,1/4-y,3/4+z
1/2+x,1/2+y,z
1/2-x,1/2-y,z
3/4-x,3/4+y,1/4+z
3/4+x,3/4-y,1/4+z
loop_
_atom_site_type_symbol
_atom_site_label
_atom_site_fract_x
_atom_site_fract_y
_atom_site_fract_z
Si Si1 0.107001 0.479622 0.658220
Si Si2 0.795441 0.170674 0.826868
Si Si3 0.795178 0.851197 0.868474
Si Si4 0.967352 0.827613 0.838510
Si Si5 0.598722 0.273099 0.262140
Si Si6 0.750000 0.750000 0.963755
Si Si7 0.093373 0.119116 0.397970
O O1 0.091010 0.525734 0.526643
O O2 0.130918 0.503462 0.830696
O O3 0.161158 0.430677 0.638415
O O4 0.027998 0.447657 0.654643
O O5 0.773001 0.117913 0.734702
O O6 0.848987 0.148529 0.965207
O O7 0.878987 0.843015 0.801422
O O8 0.773943 0.808671 0.011304
O O9 0.734081 0.848093 0.727420
O O10 0.775835 0.905141 0.952154
O O11 0.963820 0.765215 0.840869
O O12 0.673612 0.261780 0.365667
O O13 0.593626 0.335316 0.246585
#
# Coordination Sequence:
#
# PCOD9370486 Si02
#       7
#    16  16  16  16  16   8  16
#     4  10  19  40  64  86 121 171 212 247 312 396
#     4  10  23  37  62  92 126 164 210 258 316 380
#     4  10  21  38  66  87 122 167 217 255 325 383
#     4  11  22  39  61  95 133 162 203 278 319 385
#     4   9  17  36  62  90 117 162 215 256 308 379
#     4   8  16  32  60  88 106 156 220 248 288 376
#     4  10  20  38  67  87 116 169 217 260 305 390
#
# _framework density 27.554431000000001
#
# number of rings (size 3 to 8) (size 9 to 14) (size 15 to 20)
#    0.000    2.154    1.538    3.692    2.154    1.231 
#    5.538    1.538    3.385    0.000    0.000    0.000 
#    0.000    0.000    0.000    0.000    0.000    0.000 
#
# Total GULP energy -144805.833757 kJ/mol
# GULP energy per Si atom -5569.455145 kJ/mol
# Density = 2.749172 g / cm^3
# Si number density = 27.554431 Si / 1000 Ang^3
#
#
#
# Elastic Constant Matrix: (Units=GPa)
#
#
# Indices 1 2 3 4 5 6 
#
# 1 63.8916 51.9174 0.7991 0.0000 0.0000 0.0000
# 2 51.9174 170.1390 36.6792 0.0000 0.0000 0.0000
# 3 0.7991 36.6792 34.5019 -0.0001 0.0000 0.0000
# 4 0.0000 0.0000 -0.0001 71.5058 0.0000 0.0000
# 5 0.0000 0.0000 0.0000 0.0000 5.0748 0.0000
# 6 0.0000 0.0000 0.0000 0.0000 0.0000 47.6452
#
#
#
# Elastic Compliance Matrix: (Units=1/GPa)
#
#
# Indices 1 2 3 4 5 6 
#
# 1 0.022734 -0.008853 0.008885 0.000000 0.000000 0.000000
# 2 -0.008853 0.011072 -0.011566 0.000000 0.000000 0.000000
# 3 0.008885 -0.011566 0.041074 0.000000 0.000000 0.000000
# 4 0.000000 0.000000 0.000000 0.013985 0.000000 0.000000
# 5 0.000000 0.000000 0.000000 0.000000 0.197053 0.000000
# 6 0.000000 0.000000 0.000000 0.000000 0.000000 0.020988
#
#
# Mechanical properties :
#
#
# Convention : Reuss Voigt Hill
#
# Bulk Modulus (GPa) = 19.30036 49.70265 34.50151
# Shear Modulus (GPa) = 14.39902 36.78762 25.59332
#
# Velocity S-wave (km/s) = 2.28845 3.65785 3.05097
# Velocity P-wave (km/s) = 3.74197 5.99308 4.99596
#
# Compressibility (1/GPa) = 0.05181249
#
# Stress axis : x y z
#
# Youngs Moduli (GPa) = 43.98729 90.31521 24.34622
#
# Poissons Ratio (x) = 0.79952 -0.21631
# Poissons Ratio (y) = 0.38940 0.28159
# Poissons Ratio (z) = -0.39081 1.04459
#
# Static dielectric constant tensor:
#      x y z
#    x 2.258650 0.000000 0.000000 
#    y 0.000000 1.874400 0.000000 
#    z 0.000000 0.000000 2.245760 
# 
# From -- ./inp_files/3460.got.cif
#   From: 2010.05.17/outbox.cif.g08.bks.cpg/sg43_2_cif.got.tgz:3460.got - 2010.06.03 19:21:55.
