data_PCOD9370671
_publ_section_title
;
Structure prediction by ZEFSAII (Michael W. Deem and Ramdas Pophale) SiO2 
 PCOD9370671
Probable space group: F D D 2
;
_chemical_formula_sum "Si O2"
_cell_formula_units_Z 120
_cell_length_a 18.141057
_cell_length_b 12.531219
_cell_length_c 26.060883
_cell_angle_alpha 90.000000
_cell_angle_beta 90.000000
_cell_angle_gamma 90.000000
_cell_volume 5924.409018
_symmetry_space_group_name_H-M "F D D 2"
_symmetry_group_IT_number 43
_symmetry_cell_setting 'orthorhombic'
loop_
_space_group_symop_operation_xyz
x,y,z
-x,-y,z
1/4-x,1/4+y,1/4+z
1/4+x,1/4-y,1/4+z
x,1/2+y,1/2+z
-x,1/2-y,1/2+z
1/4-x,3/4+y,3/4+z
1/4+x,3/4-y,3/4+z
1/2+x,y,1/2+z
1/2-x,-y,1/2+z
3/4-x,1/4+y,3/4+z
3/4+x,1/4-y,3/4+z
1/2+x,1/2+y,z
1/2-x,1/2-y,z
3/4-x,3/4+y,1/4+z
3/4+x,3/4-y,1/4+z
loop_
_atom_site_type_symbol
_atom_site_label
_atom_site_fract_x
_atom_site_fract_y
_atom_site_fract_z
Si Si1 0.820258 0.927235 0.564690
Si Si2 0.031661 0.193080 0.577744
Si Si3 0.535185 0.330006 0.684346
Si Si4 0.423965 0.774982 0.426026
Si Si5 0.455892 0.393447 0.236078
Si Si6 0.250000 0.250000 0.021352
Si Si7 0.782377 0.369722 0.756979
Si Si8 0.114185 0.863986 0.521245
O O1 0.885325 0.840679 0.565417
O O2 0.807654 0.976049 0.621000
O O3 0.746358 0.884146 0.539586
O O4 0.852430 0.020011 0.528287
O O5 0.018703 0.314820 0.559726
O O6 0.017823 0.158621 0.635974
O O7 0.966698 0.135193 0.545849
O O8 0.613434 0.381821 0.668690
O O9 0.533428 0.206338 0.698210
O O10 0.515686 0.399512 0.734409
O O11 0.489155 0.825088 0.459770
O O12 0.392702 0.682775 0.463934
O O13 0.500000 0.500000 0.218222
O O14 0.368341 0.388894 0.245084
O O15 0.173686 0.283112 0.048494
O O16 0.750000 0.250000 0.760859
#
# Coordination Sequence:
#
# PCOD9370671 Si02
#       8
#    16  16  16  16  16   8  16  16
#     4  12  23  43  70 101 139 177 234 303 363 438
#     4  11  23  40  69  99 132 176 225 297 361 423
#     4  11  21  41  70  97 133 173 230 295 354 422
#     4  10  23  43  70 102 132 178 238 302 360 427
#     4  12  26  48  67  96 145 196 233 288 363 444
#     4  10  20  38  62 100 134 160 230 288 344 418
#     4  11  24  49  67  95 144 189 235 289 362 437
#     4  10  21  37  65 101 131 173 221 289 363 416
#
# _framework density 20.255185000000001
#
# number of rings (size 3 to 8) (size 9 to 14) (size 15 to 20)
#    0.000    1.067    5.333    2.000    0.000    0.533 
#    8.400    2.667    0.000    0.000    0.000    0.000 
#    0.000    0.000    0.000    0.000    0.000    0.000 
#
# Total GULP energy -167292.946330 kJ/mol
# GULP energy per Si atom -5576.431544 kJ/mol
# Density = 2.020908 g / cm^3
# Si number density = 20.255185 Si / 1000 Ang^3
#
#
#
# Elastic Constant Matrix: (Units=GPa)
#
#
# Indices 1 2 3 4 5 6 
#
# 1 112.0322 16.5662 23.4762 0.0000 0.0000 0.0000
# 2 16.5662 113.7399 27.9144 0.0000 0.0000 0.0000
# 3 23.4762 27.9144 60.6765 0.0000 0.0000 0.0000
# 4 0.0000 0.0000 0.0000 21.5943 0.0000 0.0000
# 5 0.0000 0.0000 0.0000 0.0000 30.9637 0.0000
# 6 0.0000 0.0000 0.0000 0.0000 0.0000 27.3500
#
#
#
# Elastic Compliance Matrix: (Units=1/GPa)
#
#
# Indices 1 2 3 4 5 6 
#
# 1 0.009745 -0.000557 -0.003514 0.000000 0.000000 0.000000
# 2 -0.000557 0.009943 -0.004359 0.000000 0.000000 0.000000
# 3 -0.003514 -0.004359 0.019846 0.000000 0.000000 0.000000
# 4 0.000000 0.000000 0.000000 0.046309 0.000000 0.000000
# 5 0.000000 0.000000 0.000000 0.000000 0.032296 0.000000
# 6 0.000000 0.000000 0.000000 0.000000 0.000000 0.036563
#
#
# Mechanical properties :
#
#
# Convention : Reuss Voigt Hill
#
# Bulk Modulus (GPa) = 44.10378 46.92914 45.51646
# Shear Modulus (GPa) = 27.91451 30.54771 29.23111
#
# Velocity S-wave (km/s) = 3.71636 3.88769 3.80299
# Velocity P-wave (km/s) = 6.34322 6.58570 6.46560
#
# Compressibility (1/GPa) = 0.02267379
#
# Stress axis : x y z
#
# Youngs Moduli (GPa) = 102.61962 100.57484 50.38859
#
# Poissons Ratio (x) = 0.05601 0.17707
# Poissons Ratio (y) = 0.05715 0.21963
# Poissons Ratio (z) = 0.36062 0.43838
#
# Static dielectric constant tensor:
#      x y z
#    x 1.781650 0.000000 0.000000 
#    y 0.000000 1.761920 0.000000 
#    z 0.000000 0.000000 1.699300 
# 
# From -- ./inp_files/25193.got.cif
#   From: 2010.05.17/outbox.cif.g08.bks.cpg/sg43_13_cif.got.tgz:25193.got - 2010.06.03 19:21:55.
