data_PCOD9370347
_publ_section_title
;
Structure prediction by ZEFSAII (Michael W. Deem and Ramdas Pophale) SiO2 
 PCOD9370347
Probable space group: F D D 2
;
_chemical_formula_sum "Si O2"
_cell_formula_units_Z 104
_cell_length_a 16.684084
_cell_length_b 9.023234
_cell_length_c 27.725806
_cell_angle_alpha 90.000000
_cell_angle_beta 90.000000
_cell_angle_gamma 90.000000
_cell_volume 4173.964663
_symmetry_space_group_name_H-M "F D D 2"
_symmetry_group_IT_number 43
_symmetry_cell_setting 'orthorhombic'
loop_
_space_group_symop_operation_xyz
x,y,z
-x,-y,z
1/4-x,1/4+y,1/4+z
1/4+x,1/4-y,1/4+z
x,1/2+y,1/2+z
-x,1/2-y,1/2+z
1/4-x,3/4+y,3/4+z
1/4+x,3/4-y,3/4+z
1/2+x,y,1/2+z
1/2-x,-y,1/2+z
3/4-x,1/4+y,3/4+z
3/4+x,1/4-y,3/4+z
1/2+x,1/2+y,z
1/2-x,1/2-y,z
3/4-x,3/4+y,1/4+z
3/4+x,3/4-y,1/4+z
loop_
_atom_site_type_symbol
_atom_site_label
_atom_site_fract_x
_atom_site_fract_y
_atom_site_fract_z
Si Si1 0.632775 0.898241 0.337300
Si Si2 0.880171 0.780785 0.428624
Si Si3 0.873018 0.288465 0.109798
Si Si4 0.000000 0.000000 0.662741
Si Si5 0.248620 0.006348 0.476105
Si Si6 0.803934 0.072110 0.570616
Si Si7 0.660836 0.645630 0.268932
O O1 0.656519 0.832528 0.389027
O O2 0.536500 0.865734 0.335049
O O3 0.674927 0.813477 0.291878
O O4 0.627515 0.075063 0.337828
O O5 0.809392 0.873721 0.453156
O O6 0.934021 0.690601 0.468431
O O7 0.914354 0.914303 0.395046
O O8 0.935808 0.395993 0.136453
O O9 0.813761 0.403797 0.085798
O O10 0.918244 0.205594 0.066048
O O11 0.958975 0.128759 0.694945
O O12 0.316978 0.088051 0.505836
O O13 0.193405 0.916156 0.513187
#
# Coordination Sequence:
#
# PCOD9370347 Si02
#       7
#    16  16  16   8  16  16  16
#     4   9  21  34  58  88 116 146 195 255 298 347
#     4  10  20  33  54  89 116 151 197 245 297 360
#     4  10  22  37  57  85 127 149 199 250 309 355
#     4  10  22  38  56  96 120 156 194 260 300 356
#     4  10  19  34  64  88 112 153 212 242 287 357
#     4  10  19  39  58  86 117 154 198 250 298 358
#     4  10  19  36  58  85 115 152 197 248 289 362
#
# _framework density 24.916357999999999
#
# number of rings (size 3 to 8) (size 9 to 14) (size 15 to 20)
#    0.000    2.154    1.538    2.308    4.308    1.846 
#    0.000    1.538    0.000    0.000    0.000    0.000 
#    0.000    0.000    0.000    0.000    0.000    0.000 
#
# Total GULP energy -144838.218243 kJ/mol
# GULP energy per Si atom -5570.700702 kJ/mol
# Density = 2.485965 g / cm^3
# Si number density = 24.916358 Si / 1000 Ang^3
#
#
#
# Elastic Constant Matrix: (Units=GPa)
#
#
# Indices 1 2 3 4 5 6 
#
# 1 22.5855 8.9506 -2.6411 0.0000 0.0000 0.0000
# 2 8.9506 152.9177 57.0618 0.0000 0.0000 0.0000
# 3 -2.6411 57.0618 129.2624 0.0000 0.0000 0.0000
# 4 0.0000 0.0000 0.0000 50.3056 0.0000 0.0000
# 5 0.0000 0.0000 0.0000 0.0000 23.1223 0.0000
# 6 0.0000 0.0000 0.0000 0.0000 0.0000 41.2973
#
#
#
# Elastic Compliance Matrix: (Units=1/GPa)
#
#
# Indices 1 2 3 4 5 6 
#
# 1 0.046019 -0.003645 0.002549 0.000000 0.000000 0.000000
# 2 -0.003645 0.008118 -0.003658 0.000000 0.000000 0.000000
# 3 0.002549 -0.003658 0.009403 0.000000 0.000000 0.000000
# 4 0.000000 0.000000 0.000000 0.019879 0.000000 0.000000
# 5 0.000000 0.000000 0.000000 0.000000 0.043248 0.000000
# 6 0.000000 0.000000 0.000000 0.000000 0.000000 0.024215
#
#
# Mechanical properties :
#
#
# Convention : Reuss Voigt Hill
#
# Bulk Modulus (GPa) = 18.50741 47.94537 33.22639
# Shear Modulus (GPa) = 28.02703 39.03798 33.53251
#
# Velocity S-wave (km/s) = 3.35751 3.96253 3.67250
# Velocity P-wave (km/s) = 4.74072 6.34191 5.59885
#
# Compressibility (1/GPa) = 0.05403241
#
# Stress axis : x y z
#
# Youngs Moduli (GPa) = 21.73028 123.18591 106.34804
#
# Poissons Ratio (x) = 0.44899 -0.27111
# Poissons Ratio (y) = 0.07920 0.38902
# Poissons Ratio (z) = -0.05540 0.45062
#
# Static dielectric constant tensor:
#      x y z
#    x 1.980890 0.000000 0.000000 
#    y 0.000000 2.053360 0.000000 
#    z 0.000000 0.000000 2.142660 
# 
# From -- ./inp_files/26552.got.cif
#   From: 2010.05.17/outbox.cif.g08.bks.cpg/sg43_14_cif.got.tgz:26552.got - 2010.06.03 19:21:55.
