data_PCOD9370843
_publ_section_title
;
Structure prediction by ZEFSAII (Michael W. Deem and Ramdas Pophale) SiO2 
 PCOD9370843
Probable space group: F D D 2
;
_chemical_formula_sum "Si O2"
_cell_formula_units_Z 72
_cell_length_a 21.660886
_cell_length_b 15.750642
_cell_length_c 9.432597
_cell_angle_alpha 90.000000
_cell_angle_beta 90.000000
_cell_angle_gamma 90.000000
_cell_volume 3218.146103
_symmetry_space_group_name_H-M "F D D 2"
_symmetry_group_IT_number 43
_symmetry_cell_setting 'orthorhombic'
loop_
_space_group_symop_operation_xyz
x,y,z
-x,-y,z
1/4-x,1/4+y,1/4+z
1/4+x,1/4-y,1/4+z
x,1/2+y,1/2+z
-x,1/2-y,1/2+z
1/4-x,3/4+y,3/4+z
1/4+x,3/4-y,3/4+z
1/2+x,y,1/2+z
1/2-x,-y,1/2+z
3/4-x,1/4+y,3/4+z
3/4+x,1/4-y,3/4+z
1/2+x,1/2+y,z
1/2-x,1/2-y,z
3/4-x,3/4+y,1/4+z
3/4+x,3/4-y,1/4+z
loop_
_atom_site_type_symbol
_atom_site_label
_atom_site_fract_x
_atom_site_fract_y
_atom_site_fract_z
Si Si1 0.448016 0.746705 0.943760
Si Si2 0.750000 0.750000 0.300483
Si Si3 0.080429 0.127427 0.194219
Si Si4 0.016766 0.643939 0.210701
Si Si5 0.665014 0.233369 0.531839
O O1 0.386653 0.689343 0.961463
O O2 0.430308 0.822638 0.837713
O O3 0.497677 0.691987 0.854569
O O4 0.471086 0.788615 0.088546
O O5 0.730680 0.828036 0.396879
O O6 0.694732 0.735023 0.190335
O O7 0.100338 0.191622 0.067772
O O8 0.957481 0.580989 0.190264
O O9 0.074143 0.578412 0.226710
#
# Coordination Sequence:
#
# PCOD9370843 Si02
#       5
#    16   8  16  16  16
#     4  11  24  41  68 104 134 179 226 290 343 411
#     4  10  20  40  70  92 130 186 214 286 330 414
#     4  11  23  41  67  97 137 177 229 268 354 405
#     4   9  22  41  67  93 133 169 228 278 342 397
#     4   9  21  46  64  92 134 179 230 266 348 407
#
# _framework density 22.373128000000001
#
# number of rings (size 3 to 8) (size 9 to 14) (size 15 to 20)
#    0.000    2.222    2.222    0.000    9.333    1.778 
#    8.000    2.222    0.000    0.000    0.000    0.000 
#    0.000    0.000    0.000    0.000    0.000    0.000 
#
# Total GULP energy -100568.164446 kJ/mol
# GULP energy per Si atom -5587.120247 kJ/mol
# Density = 2.232221 g / cm^3
# Si number density = 22.373128 Si / 1000 Ang^3
#
#
#
# Elastic Constant Matrix: (Units=GPa)
#
#
# Indices 1 2 3 4 5 6 
#
# 1 46.9712 34.6148 26.7641 0.0000 0.0000 0.0000
# 2 34.6148 143.6287 57.6484 0.0000 0.0000 0.0000
# 3 26.7641 57.6484 68.0558 0.0000 0.0000 0.0000
# 4 0.0000 0.0000 0.0000 55.3104 0.0000 0.0000
# 5 0.0000 0.0000 0.0000 0.0000 15.4498 0.0000
# 6 0.0000 0.0000 0.0000 0.0000 0.0000 41.5632
#
#
#
# Elastic Compliance Matrix: (Units=1/GPa)
#
#
# Indices 1 2 3 4 5 6 
#
# 1 0.028620 -0.003606 -0.008201 0.000000 0.000000 0.000000
# 2 -0.003606 0.011003 -0.007903 0.000000 0.000000 0.000000
# 3 -0.008201 -0.007903 0.024613 0.000000 0.000000 0.000000
# 4 0.000000 0.000000 0.000000 0.018080 0.000000 0.000000
# 5 0.000000 0.000000 0.000000 0.000000 0.064726 0.000000
# 6 0.000000 0.000000 0.000000 0.000000 0.000000 0.024060
#
#
# Mechanical properties :
#
#
# Convention : Reuss Voigt Hill
#
# Bulk Modulus (GPa) = 40.29391 55.19003 47.74197
# Shear Modulus (GPa) = 22.85275 31.77324 27.31300
#
# Velocity S-wave (km/s) = 3.19946 3.77258 3.49778
# Velocity P-wave (km/s) = 5.63008 6.61045 6.13986
#
# Compressibility (1/GPa) = 0.02481764
#
# Stress axis : x y z
#
# Youngs Moduli (GPa) = 34.94094 90.88210 40.62900
#
# Poissons Ratio (x) = 0.32771 0.33319
# Poissons Ratio (y) = 0.12599 0.32107
# Poissons Ratio (z) = 0.28654 0.71820
#
# Static dielectric constant tensor:
#      x y z
#    x 1.947660 0.000000 0.000000 
#    y 0.000000 1.885150 0.000000 
#    z 0.000000 0.000000 1.776450 
# 
# From -- ./inp_files/4102.got.cif
#   From: 2010.05.17/outbox.cif.g08.bks.cpg/sg43_3_cif.got.tgz:4102.got - 2010.06.03 19:21:55.
