data_PCOD9370572
_publ_section_title
;
Structure prediction by ZEFSAII (Michael W. Deem and Ramdas Pophale) SiO2 
 PCOD9370572
Probable space group: F D D 2
;
_chemical_formula_sum "Si O2"
_cell_formula_units_Z 120
_cell_length_a 17.255260
_cell_length_b 12.011179
_cell_length_c 23.762888
_cell_angle_alpha 90.000000
_cell_angle_beta 90.000000
_cell_angle_gamma 90.000000
_cell_volume 4925.001509
_symmetry_space_group_name_H-M "F D D 2"
_symmetry_group_IT_number 43
_symmetry_cell_setting 'orthorhombic'
loop_
_space_group_symop_operation_xyz
x,y,z
-x,-y,z
1/4-x,1/4+y,1/4+z
1/4+x,1/4-y,1/4+z
x,1/2+y,1/2+z
-x,1/2-y,1/2+z
1/4-x,3/4+y,3/4+z
1/4+x,3/4-y,3/4+z
1/2+x,y,1/2+z
1/2-x,-y,1/2+z
3/4-x,1/4+y,3/4+z
3/4+x,1/4-y,3/4+z
1/2+x,1/2+y,z
1/2-x,1/2-y,z
3/4-x,3/4+y,1/4+z
3/4+x,3/4-y,1/4+z
loop_
_atom_site_type_symbol
_atom_site_label
_atom_site_fract_x
_atom_site_fract_y
_atom_site_fract_z
Si Si1 0.614267 0.601823 0.193840
Si Si2 0.797830 0.556635 0.542182
Si Si3 0.421047 0.570910 0.474495
Si Si4 0.740059 0.009166 0.151736
Si Si5 0.119643 0.855519 0.596188
Si Si6 0.744726 0.883158 0.946253
Si Si7 0.750000 0.750000 0.233035
Si Si8 0.672484 0.865889 0.326663
O O1 0.572327 0.592596 0.252801
O O2 0.675507 0.509101 0.177448
O O3 0.673611 0.708840 0.199959
O O4 0.554434 0.614067 0.142384
O O5 0.744934 0.583799 0.595414
O O6 0.772118 0.459762 0.498398
O O7 0.871312 0.494182 0.568856
O O8 0.500000 0.500000 0.464247
O O9 0.442426 0.693222 0.452766
O O10 0.400689 0.571584 0.540746
O O11 0.340976 0.561385 0.439022
O O12 0.696554 0.901586 0.126393
O O13 0.125774 0.729541 0.573891
O O14 0.049060 0.859720 0.641019
O O15 0.750000 0.750000 0.960597
O O16 0.731448 0.852042 0.275683
#
# Coordination Sequence:
#
# PCOD9370572 Si02
#       8
#    16  16  16  16  16  16   8  16
#     4  10  20  39  61  97 136 174 220 280 349 417
#     4  10  22  40  65 102 140 178 225 289 355 427
#     4  12  28  49  68 103 143 188 238 302 370 448
#     4  11  24  44  72 101 142 185 241 300 364 433
#     4  12  23  41  73 105 136 184 246 302 360 430
#     4  12  23  43  72 104 140 178 238 299 358 427
#     4  10  20  36  58  90 142 168 216 278 340 420
#     4  10  21  35  62  99 135 177 221 283 348 410
#
# _framework density 24.365476000000001
#
# number of rings (size 3 to 8) (size 9 to 14) (size 15 to 20)
#    0.000    1.067    4.000    2.800    1.867    1.067 
#    9.600    0.000    1.467    0.000    0.000    0.000 
#    0.000    0.000    0.000    0.000    0.000    0.000 
#
# Total GULP energy -167115.780864 kJ/mol
# GULP energy per Si atom -5570.526029 kJ/mol
# Density = 2.431002 g / cm^3
# Si number density = 24.365476 Si / 1000 Ang^3
#
#
#
# Elastic Constant Matrix: (Units=GPa)
#
#
# Indices 1 2 3 4 5 6 
#
# 1 77.4529 12.9516 23.7558 0.0000 0.0000 0.0000
# 2 12.9516 27.9048 16.7571 0.0000 0.0000 0.0000
# 3 23.7558 16.7571 113.8208 0.0000 0.0000 0.0000
# 4 0.0000 0.0000 0.0000 20.5519 0.0000 0.0000
# 5 0.0000 0.0000 0.0000 0.0000 35.5711 0.0000
# 6 0.0000 0.0000 0.0000 0.0000 0.0000 30.8092
#
#
#
# Elastic Compliance Matrix: (Units=1/GPa)
#
#
# Indices 1 2 3 4 5 6 
#
# 1 0.014497 -0.005388 -0.002232 0.000000 0.000000 0.000000
# 2 -0.005388 0.041314 -0.004958 0.000000 0.000000 0.000000
# 3 -0.002232 -0.004958 0.009982 0.000000 0.000000 0.000000
# 4 0.000000 0.000000 0.000000 0.048657 0.000000 0.000000
# 5 0.000000 0.000000 0.000000 0.000000 0.028113 0.000000
# 6 0.000000 0.000000 0.000000 0.000000 0.000000 0.032458
#
#
# Mechanical properties :
#
#
# Convention : Reuss Voigt Hill
#
# Bulk Modulus (GPa) = 24.60869 36.23414 30.42142
# Shear Modulus (GPa) = 23.39490 28.43405 25.91448
#
# Velocity S-wave (km/s) = 3.10202 3.41982 3.26479
# Velocity P-wave (km/s) = 4.79080 5.52240 5.16956
#
# Compressibility (1/GPa) = 0.04063606
#
# Stress axis : x y z
#
# Youngs Moduli (GPa) = 68.98105 24.20486 100.18437
#
# Poissons Ratio (x) = 0.13041 0.22365
# Poissons Ratio (y) = 0.37166 0.49670
# Poissons Ratio (z) = 0.15400 0.12001
#
# Static dielectric constant tensor:
#      x y z
#    x 2.055280 0.000000 0.000000 
#    y 0.000000 2.020120 0.000000 
#    z 0.000000 0.000000 1.985230 
# 
# From -- ./inp_files/26063.got.cif
#   From: 2010.05.17/outbox.cif.g08.bks.cpg/sg43_14_cif.got.tgz:26063.got - 2010.06.03 19:21:55.
