data_PCOD9370246
_publ_section_title
;
Structure prediction by ZEFSAII (Michael W. Deem and Ramdas Pophale) SiO2 
 PCOD9370246
Probable space group: F D D 2
;
_chemical_formula_sum "Si O2"
_cell_formula_units_Z 104
_cell_length_a 8.178463
_cell_length_b 21.811545
_cell_length_c 28.758891
_cell_angle_alpha 90.000000
_cell_angle_beta 90.000000
_cell_angle_gamma 90.000000
_cell_volume 5130.152291
_symmetry_space_group_name_H-M "F D D 2"
_symmetry_group_IT_number 43
_symmetry_cell_setting 'orthorhombic'
loop_
_space_group_symop_operation_xyz
x,y,z
-x,-y,z
1/4-x,1/4+y,1/4+z
1/4+x,1/4-y,1/4+z
x,1/2+y,1/2+z
-x,1/2-y,1/2+z
1/4-x,3/4+y,3/4+z
1/4+x,3/4-y,3/4+z
1/2+x,y,1/2+z
1/2-x,-y,1/2+z
3/4-x,1/4+y,3/4+z
3/4+x,1/4-y,3/4+z
1/2+x,1/2+y,z
1/2-x,1/2-y,z
3/4-x,3/4+y,1/4+z
3/4+x,3/4-y,1/4+z
loop_
_atom_site_type_symbol
_atom_site_label
_atom_site_fract_x
_atom_site_fract_y
_atom_site_fract_z
Si Si1 0.167868 0.527203 0.789410
Si Si2 0.095262 0.294104 0.748806
Si Si3 0.500000 0.000000 0.504497
Si Si4 0.755547 0.471597 0.890594
Si Si5 0.640430 0.881056 0.224581
Si Si6 0.434446 0.147064 0.029364
Si Si7 0.413020 0.401211 0.879489
O O1 0.142915 0.544068 0.843886
O O2 0.246080 0.580679 0.759143
O O3 0.290878 0.469511 0.786191
O O4 0.000000 0.500000 0.770313
O O5 0.250000 0.250000 0.758271
O O6 0.152355 0.361057 0.765291
O O7 0.927967 0.271144 0.773875
O O8 0.067488 0.293470 0.692505
O O9 0.551518 0.060591 0.476738
O O10 0.587698 0.434906 0.881168
O O11 0.719250 0.544545 0.888586
O O12 0.455551 0.885383 0.241814
O O13 0.655076 0.897713 0.170759
O O14 0.369747 0.123968 0.079055
#
# Coordination Sequence:
#
# PCOD9370246 Si02
#       7
#    16  16   8  16  16  16  16
#     4  11  24  39  64  97 133 168 217 275 332 391
#     4  12  21  38  66  99 133 165 223 277 333 387
#     4  12  22  38  66  96 124 174 212 274 332 374
#     4  10  18  37  66  96 124 168 227 275 314 386
#     4  12  21  41  69  91 131 170 220 267 328 387
#     4  11  24  41  66  99 128 174 221 270 334 397
#     4  10  19  38  66  95 127 174 219 270 326 385
#
# _framework density 20.272303999999998
#
# number of rings (size 3 to 8) (size 9 to 14) (size 15 to 20)
#    0.000    0.923    6.154    1.846    0.000    1.231 
#    0.000    1.538    5.077    0.000    0.000    0.000 
#    0.000    0.000    0.000    0.000    0.000    0.000 
#
# Total GULP energy -145020.349601 kJ/mol
# GULP energy per Si atom -5577.705754 kJ/mol
# Density = 2.022616 g / cm^3
# Si number density = 20.272304 Si / 1000 Ang^3
#
#
#
# Elastic Constant Matrix: (Units=GPa)
#
#
# Indices 1 2 3 4 5 6 
#
# 1 102.2316 11.4446 16.6244 0.0000 0.0000 0.0000
# 2 11.4446 61.0615 24.7428 0.0000 0.0000 0.0000
# 3 16.6244 24.7428 79.8823 0.0000 0.0000 0.0000
# 4 0.0000 0.0000 0.0000 15.4199 0.0000 0.0000
# 5 0.0000 0.0000 0.0000 0.0000 31.6182 0.0000
# 6 0.0000 0.0000 0.0000 0.0000 0.0000 36.4823
#
#
#
# Elastic Compliance Matrix: (Units=1/GPa)
#
#
# Indices 1 2 3 4 5 6 
#
# 1 0.010201 -0.001203 -0.001750 0.000000 0.000000 0.000000
# 2 -0.001203 0.018869 -0.005594 0.000000 0.000000 0.000000
# 3 -0.001750 -0.005594 0.014615 0.000000 0.000000 0.000000
# 4 0.000000 0.000000 0.000000 0.064851 0.000000 0.000000
# 5 0.000000 0.000000 0.000000 0.000000 0.031627 0.000000
# 6 0.000000 0.000000 0.000000 0.000000 0.000000 0.027411
#
#
# Mechanical properties :
#
#
# Convention : Reuss Voigt Hill
#
# Bulk Modulus (GPa) = 37.60677 38.75545 38.18111
# Shear Modulus (GPa) = 25.83537 29.39499 27.61518
#
# Velocity S-wave (km/s) = 3.57377 3.81203 3.69482
# Velocity P-wave (km/s) = 5.96827 6.20760 6.08911
#
# Compressibility (1/GPa) = 0.02659096
#
# Stress axis : x y z
#
# Youngs Moduli (GPa) = 98.02964 52.99639 68.42059
#
# Poissons Ratio (x) = 0.06374 0.11977
# Poissons Ratio (y) = 0.11789 0.38276
# Poissons Ratio (z) = 0.17159 0.29648
#
# Static dielectric constant tensor:
#      x y z
#    x 1.742870 0.000000 0.000000 
#    y 0.000000 1.727930 0.000000 
#    z 0.000000 0.000000 1.749870 
# 
# From -- ./inp_files/24417.got.cif
#   From: 2010.05.17/outbox.cif.g08.bks.cpg/sg43_13_cif.got.tgz:24417.got - 2010.06.03 19:21:55.
