data_PCOD9370442
_publ_section_title
;
Structure prediction by ZEFSAII (Michael W. Deem and Ramdas Pophale) SiO2 
 PCOD9370442
Probable space group: F D D 2
;
_chemical_formula_sum "Si O2"
_cell_formula_units_Z 120
_cell_length_a 12.085524
_cell_length_b 19.936256
_cell_length_c 20.822705
_cell_angle_alpha 90.000000
_cell_angle_beta 90.000000
_cell_angle_gamma 90.000000
_cell_volume 5017.024632
_symmetry_space_group_name_H-M "F D D 2"
_symmetry_group_IT_number 43
_symmetry_cell_setting 'orthorhombic'
loop_
_space_group_symop_operation_xyz
x,y,z
-x,-y,z
1/4-x,1/4+y,1/4+z
1/4+x,1/4-y,1/4+z
x,1/2+y,1/2+z
-x,1/2-y,1/2+z
1/4-x,3/4+y,3/4+z
1/4+x,3/4-y,3/4+z
1/2+x,y,1/2+z
1/2-x,-y,1/2+z
3/4-x,1/4+y,3/4+z
3/4+x,1/4-y,3/4+z
1/2+x,1/2+y,z
1/2-x,1/2-y,z
3/4-x,3/4+y,1/4+z
3/4+x,3/4-y,1/4+z
loop_
_atom_site_type_symbol
_atom_site_label
_atom_site_fract_x
_atom_site_fract_y
_atom_site_fract_z
Si Si1 0.661330 0.170855 0.200350
Si Si2 0.870697 0.864191 0.495136
Si Si3 0.807613 0.679233 0.033269
Si Si4 0.500000 0.500000 0.972829
Si Si5 0.363714 0.234520 0.829289
Si Si6 0.534155 0.731933 0.582600
Si Si7 0.918670 0.196934 0.829167
Si Si8 0.824172 0.097417 0.909285
O O1 0.786382 0.144376 0.197231
O O2 0.593649 0.103850 0.216417
O O3 0.645998 0.218864 0.263581
O O4 0.611389 0.210263 0.141470
O O5 0.898802 0.788629 0.517858
O O6 0.754695 0.890629 0.469902
O O7 0.888063 0.907600 0.559708
O O8 0.750000 0.750000 0.027401
O O9 0.727123 0.623777 0.062324
O O10 0.919712 0.689675 0.074485
O O11 0.433626 0.555548 0.930954
O O12 0.403094 0.471248 0.018888
O O13 0.250000 0.250000 0.865550
O O14 0.484223 0.254682 0.853283
O O15 0.489705 0.805152 0.603543
O O16 0.840654 0.173052 0.885508
#
# Coordination Sequence:
#
# PCOD9370442 Si02
#       8
#    16  16  16   8  16  16  16  16
#     4   9  19  35  62  95 133 173 222 284 352 398
#     4  10  21  38  65 101 136 178 236 284 336 435
#     4  10  19  38  64  99 133 169 234 289 332 432
#     4  12  26  46  70 104 144 190 238 288 352 442
#     4   9  17  37  64  94 131 171 230 292 335 413
#     4  11  21  39  69 102 134 186 228 289 362 411
#     4  11  23  41  69 101 141 184 233 288 358 414
#     4  12  23  43  72 101 142 192 233 284 365 426
#
# _framework density 23.918559999999999
#
# number of rings (size 3 to 8) (size 9 to 14) (size 15 to 20)
#    0.000    1.600    4.000    2.400    0.000    1.067 
#    0.000    7.333    2.933    0.000    0.000    0.000 
#    0.000    0.000    0.000    0.000    0.000    0.000 
#
# Total GULP energy -167449.264885 kJ/mol
# GULP energy per Si atom -5581.642163 kJ/mol
# Density = 2.386412 g / cm^3
# Si number density = 23.918560 Si / 1000 Ang^3
#
#
#
# Elastic Constant Matrix: (Units=GPa)
#
#
# Indices 1 2 3 4 5 6 
#
# 1 84.5095 35.3096 26.2659 0.0000 0.0000 0.0000
# 2 35.3096 74.7213 18.5255 0.0000 0.0000 0.0000
# 3 26.2659 18.5255 46.6762 0.0000 0.0000 0.0000
# 4 0.0000 0.0000 0.0000 38.9805 0.0000 0.0000
# 5 0.0000 0.0000 0.0000 0.0000 14.7953 0.0000
# 6 0.0000 0.0000 0.0000 0.0000 0.0000 31.9915
#
#
#
# Elastic Compliance Matrix: (Units=1/GPa)
#
#
# Indices 1 2 3 4 5 6 
#
# 1 0.016519 -0.006102 -0.006874 0.000000 0.000000 0.000000
# 2 -0.006102 0.017098 -0.003352 0.000000 0.000000 0.000000
# 3 -0.006874 -0.003352 0.026623 0.000000 0.000000 0.000000
# 4 0.000000 0.000000 0.000000 0.025654 0.000000 0.000000
# 5 0.000000 0.000000 0.000000 0.000000 0.067589 0.000000
# 6 0.000000 0.000000 0.000000 0.000000 0.000000 0.031258
#
#
# Mechanical properties :
#
#
# Convention : Reuss Voigt Hill
#
# Bulk Modulus (GPa) = 36.25368 40.67878 38.46623
# Shear Modulus (GPa) = 22.06624 25.54054 23.80339
#
# Velocity S-wave (km/s) = 3.04066 3.27129 3.15808
# Velocity P-wave (km/s) = 5.24571 5.59576 5.42356
#
# Compressibility (1/GPa) = 0.02758340
#
# Stress axis : x y z
#
# Youngs Moduli (GPa) = 60.53701 58.48776 37.56178
#
# Poissons Ratio (x) = 0.35688 0.25819
# Poissons Ratio (y) = 0.36938 0.12592
# Poissons Ratio (z) = 0.41612 0.19607
#
# Static dielectric constant tensor:
#      x y z
#    x 2.030940 0.000000 0.000000 
#    y 0.000000 1.927640 0.000000 
#    z 0.000000 0.000000 1.991210 
# 
# From -- ./inp_files/17292.got.cif
#   From: 2010.05.17/outbox.cif.g08.bks.cpg/sg43_9_cif.got.tgz:17292.got - 2010.06.03 19:21:55.
