data_PCOD9370862
_publ_section_title
;
Structure prediction by ZEFSAII (Michael W. Deem and Ramdas Pophale) SiO2 
 PCOD9370862
Probable space group: F D D 2
;
_chemical_formula_sum "Si O2"
_cell_formula_units_Z 88
_cell_length_a 21.955858
_cell_length_b 7.148954
_cell_length_c 23.716974
_cell_angle_alpha 90.000000
_cell_angle_beta 90.000000
_cell_angle_gamma 90.000000
_cell_volume 3722.649890
_symmetry_space_group_name_H-M "F D D 2"
_symmetry_group_IT_number 43
_symmetry_cell_setting 'orthorhombic'
loop_
_space_group_symop_operation_xyz
x,y,z
-x,-y,z
1/4-x,1/4+y,1/4+z
1/4+x,1/4-y,1/4+z
x,1/2+y,1/2+z
-x,1/2-y,1/2+z
1/4-x,3/4+y,3/4+z
1/4+x,3/4-y,3/4+z
1/2+x,y,1/2+z
1/2-x,-y,1/2+z
3/4-x,1/4+y,3/4+z
3/4+x,1/4-y,3/4+z
1/2+x,1/2+y,z
1/2-x,1/2-y,z
3/4-x,3/4+y,1/4+z
3/4+x,3/4-y,1/4+z
loop_
_atom_site_type_symbol
_atom_site_label
_atom_site_fract_x
_atom_site_fract_y
_atom_site_fract_z
Si Si1 0.372765 0.107261 0.046800
Si Si2 0.934879 0.599417 0.384239
Si Si3 0.930386 0.983204 0.334117
Si Si4 0.834605 0.099718 0.967904
Si Si5 0.500000 0.500000 0.587790
Si Si6 0.955783 0.259485 0.190725
O O1 0.347025 0.290997 0.075998
O O2 0.344271 0.942842 0.087331
O O3 0.445521 0.090099 0.051502
O O4 0.343807 0.088421 0.984767
O O5 0.935143 0.827223 0.382654
O O6 0.890661 0.524780 0.432772
O O7 0.000000 0.500000 0.387455
O O8 0.894755 0.907185 0.279822
O O9 0.000000 0.000000 0.313494
O O10 0.813331 0.292184 0.936886
O O11 0.773454 0.977456 0.967981
O O12 0.466608 0.353931 0.630300
#
# Coordination Sequence:
#
# PCOD9370862 Si02
#       6
#    16  16  16  16   8  16
#     4  11  24  41  66 102 134 176 230 281 337 407
#     4  12  23  38  68 101 130 170 229 275 332 405
#     4  11  21  42  66  90 132 175 215 272 337 399
#     4  10  20  41  64  94 130 176 219 268 342 403
#     4  12  24  42  68 102 134 176 236 278 336 410
#     4  10  21  40  68  91 133 177 219 279 340 399
#
# _framework density 23.639074000000001
#
# number of rings (size 3 to 8) (size 9 to 14) (size 15 to 20)
#    0.000    1.091    7.273    1.091    3.818    0.000 
#    0.000    7.273    2.000    0.000    0.000    0.000 
#    0.000    0.000    0.000    0.000    0.000    0.000 
#
# Total GULP energy -122825.913155 kJ/mol
# GULP energy per Si atom -5582.996052 kJ/mol
# Density = 2.358527 g / cm^3
# Si number density = 23.639074 Si / 1000 Ang^3
#
#
#
# Elastic Constant Matrix: (Units=GPa)
#
#
# Indices 1 2 3 4 5 6 
#
# 1 148.2170 19.4833 47.5326 0.0000 0.0000 -0.0001
# 2 19.4833 92.1469 5.6148 0.0000 0.0000 0.0000
# 3 47.5326 5.6148 53.3113 0.0000 0.0000 0.0000
# 4 0.0000 0.0000 0.0000 20.3284 0.0000 0.0000
# 5 0.0000 0.0000 0.0000 0.0000 47.4207 0.0000
# 6 -0.0001 0.0000 0.0000 0.0000 0.0000 0.2002
#
#
#
# Elastic Compliance Matrix: (Units=1/GPa)
#
#
# Indices 1 2 3 4 5 6 
#
# 1 0.009657 -0.001527 -0.008450 0.000000 0.000000 0.000003
# 2 -0.001527 0.011164 0.000186 0.000000 0.000000 -0.000003
# 3 -0.008450 0.000186 0.026272 0.000000 0.000000 0.000000
# 4 0.000000 0.000000 0.000000 0.049192 0.000000 0.000006
# 5 0.000000 0.000000 0.000000 0.000000 0.021088 0.000000
# 6 0.000003 -0.000003 0.000000 0.000006 0.000000 4.993815
#
#
# Mechanical properties :
#
#
# Convention : Reuss Voigt Hill
#
# Bulk Modulus (GPa) = 36.34896 48.77074 42.55985
# Shear Modulus (GPa) = 0.97277 28.32616 14.64947
#
# Velocity S-wave (km/s) = 0.64219 3.46537 2.49211
# Velocity P-wave (km/s) = 3.99498 6.05705 5.13068
#
# Compressibility (1/GPa) = 0.02751110
#
# Stress axis : x y z
#
# Youngs Moduli (GPa) = 103.54752 89.57527 38.06325
#
# Poissons Ratio (x) = 0.13679 0.32163
# Poissons Ratio (y) = 0.15812 -0.00707
# Poissons Ratio (z) = 0.87495 -0.01664
#
# Static dielectric constant tensor:
#      x y z
#    x 1.892690 0.000000 0.000000 
#    y 0.000000 2.001560 0.000000 
#    z 0.000000 0.000000 1.887530 
# 
# From -- ./inp_files/22341.got.cif
#   From: 2010.05.17/outbox.cif.g08.bks.cpg/sg43_12_cif.got.tgz:22341.got - 2010.06.03 19:21:55.
