data_PCOD9370438
_publ_section_title
;
Structure prediction by ZEFSAII (Michael W. Deem and Ramdas Pophale) SiO2 
 PCOD9370438
Probable space group: F D D 2
;
_chemical_formula_sum "Si O2"
_cell_formula_units_Z 88
_cell_length_a 14.585986
_cell_length_b 10.341865
_cell_length_c 26.986230
_cell_angle_alpha 90.000000
_cell_angle_beta 90.000000
_cell_angle_gamma 90.000000
_cell_volume 4070.772895
_symmetry_space_group_name_H-M "F D D 2"
_symmetry_group_IT_number 43
_symmetry_cell_setting 'orthorhombic'
loop_
_space_group_symop_operation_xyz
x,y,z
-x,-y,z
1/4-x,1/4+y,1/4+z
1/4+x,1/4-y,1/4+z
x,1/2+y,1/2+z
-x,1/2-y,1/2+z
1/4-x,3/4+y,3/4+z
1/4+x,3/4-y,3/4+z
1/2+x,y,1/2+z
1/2-x,-y,1/2+z
3/4-x,1/4+y,3/4+z
3/4+x,1/4-y,3/4+z
1/2+x,1/2+y,z
1/2-x,1/2-y,z
3/4-x,3/4+y,1/4+z
3/4+x,3/4-y,1/4+z
loop_
_atom_site_type_symbol
_atom_site_label
_atom_site_fract_x
_atom_site_fract_y
_atom_site_fract_z
Si Si1 0.447761 0.689210 0.581420
Si Si2 0.500000 0.500000 0.503484
Si Si3 0.684612 0.960904 0.433158
Si Si4 0.897387 0.456951 0.532704
Si Si5 0.348227 0.720485 0.071504
Si Si6 0.632803 0.192634 0.957758
O O1 0.433016 0.573443 0.542611
O O2 0.415460 0.693125 0.637894
O O3 0.406919 0.817385 0.556283
O O4 0.558285 0.709371 0.587304
O O5 0.544994 0.606184 0.468278
O O6 0.623589 0.829456 0.430149
O O7 0.786474 0.896229 0.435257
O O8 0.665712 0.032087 0.484686
O O9 0.865457 0.567019 0.571123
O O10 0.000000 0.500000 0.517257
O O11 0.250000 0.750000 0.095295
O O12 0.342006 0.763034 0.013773
#
# Coordination Sequence:
#
# PCOD9370438 Si02
#       6
#    16   8  16  16  16  16
#     4  10  22  36  63  88 129 165 212 265 328 380
#     4  10  22  44  58  90 132 174 200 266 334 392
#     4  10  19  38  63  92 119 164 218 265 305 392
#     4   9  18  34  61  89 120 165 205 261 318 371
#     4   9  15  33  61  90 118 160 205 259 316 385
#     4   9  18  35  63  86 124 164 206 252 320 382
#
# _framework density 21.617516999999999
#
# number of rings (size 3 to 8) (size 9 to 14) (size 15 to 20)
#    0.000    2.545    3.636    1.091    7.636    0.000 
#    4.909    1.818    0.000    0.000    0.000    0.000 
#    0.000    0.000    0.000    0.000    0.000    0.000 
#
# Total GULP energy -122598.412086 kJ/mol
# GULP energy per Si atom -5572.655095 kJ/mol
# Density = 2.156831 g / cm^3
# Si number density = 21.617517 Si / 1000 Ang^3
#
#
#
# Elastic Constant Matrix: (Units=GPa)
#
#
# Indices 1 2 3 4 5 6 
#
# 1 38.9579 13.0430 2.7968 0.0000 0.0000 0.0000
# 2 13.0430 59.2282 -1.5050 0.0000 0.0000 0.0000
# 3 2.7968 -1.5050 51.5184 0.0000 0.0000 0.0000
# 4 0.0000 0.0000 0.0000 27.4314 0.0000 0.0000
# 5 0.0000 0.0000 0.0000 0.0000 12.7999 0.0000
# 6 0.0000 0.0000 0.0000 0.0000 0.0000 27.9813
#
#
#
# Elastic Compliance Matrix: (Units=1/GPa)
#
#
# Indices 1 2 3 4 5 6 
#
# 1 0.027859 -0.006178 -0.001693 0.000000 0.000000 0.000000
# 2 -0.006178 0.018266 0.000869 0.000000 0.000000 0.000000
# 3 -0.001693 0.000869 0.019528 0.000000 0.000000 0.000000
# 4 0.000000 0.000000 0.000000 0.036455 0.000000 0.000000
# 5 0.000000 0.000000 0.000000 0.000000 0.078125 0.000000
# 6 0.000000 0.000000 0.000000 0.000000 0.000000 0.035738
#
#
# Mechanical properties :
#
#
# Convention : Reuss Voigt Hill
#
# Bulk Modulus (GPa) = 19.36137 19.81937 19.59037
# Shear Modulus (GPa) = 20.22727 22.66718 21.44723
#
# Velocity S-wave (km/s) = 3.06222 3.24165 3.15321
# Velocity P-wave (km/s) = 4.63451 4.81655 4.72641
#
# Compressibility (1/GPa) = 0.05164924
#
# Stress axis : x y z
#
# Youngs Moduli (GPa) = 35.89553 54.74532 51.20901
#
# Poissons Ratio (x) = 0.33821 0.08669
# Poissons Ratio (y) = 0.22176 -0.04450
# Poissons Ratio (z) = 0.06077 -0.04757
#
# Static dielectric constant tensor:
#      x y z
#    x 1.862330 0.000000 0.000000 
#    y 0.000000 1.788230 0.000000 
#    z 0.000000 0.000000 1.822890 
# 
# From -- ./inp_files/29411.got.cif
#   From: 2010.05.17/outbox.cif.g08.bks.cpg/sg43_15_cif.got.tgz:29411.got - 2010.06.03 19:21:55.
