data_PCOD9370972
_publ_section_title
;
Structure prediction by ZEFSAII (Michael W. Deem and Ramdas Pophale) SiO2 
 PCOD9370972
Probable space group: F D D 2
;
_chemical_formula_sum "Si O2"
_cell_formula_units_Z 88
_cell_length_a 26.058383
_cell_length_b 12.688559
_cell_length_c 12.278949
_cell_angle_alpha 90.000000
_cell_angle_beta 90.000000
_cell_angle_gamma 90.000000
_cell_volume 4059.952588
_symmetry_space_group_name_H-M "F D D 2"
_symmetry_group_IT_number 43
_symmetry_cell_setting 'orthorhombic'
loop_
_space_group_symop_operation_xyz
x,y,z
-x,-y,z
1/4-x,1/4+y,1/4+z
1/4+x,1/4-y,1/4+z
x,1/2+y,1/2+z
-x,1/2-y,1/2+z
1/4-x,3/4+y,3/4+z
1/4+x,3/4-y,3/4+z
1/2+x,y,1/2+z
1/2-x,-y,1/2+z
3/4-x,1/4+y,3/4+z
3/4+x,1/4-y,3/4+z
1/2+x,1/2+y,z
1/2-x,1/2-y,z
3/4-x,3/4+y,1/4+z
3/4+x,3/4-y,1/4+z
loop_
_atom_site_type_symbol
_atom_site_label
_atom_site_fract_x
_atom_site_fract_y
_atom_site_fract_z
Si Si1 0.602189 0.243989 0.993550
Si Si2 0.599408 0.704544 0.148867
Si Si3 0.332369 0.598891 0.650165
Si Si4 0.636537 0.765940 0.717924
Si Si5 0.500000 0.500000 0.373822
Si Si6 0.733976 0.987007 0.572051
O O1 0.634464 0.345352 0.957175
O O2 0.627793 0.137725 0.950900
O O3 0.547963 0.249000 0.934225
O O4 0.602287 0.218420 0.121294
O O5 0.648630 0.781117 0.145297
O O6 0.555498 0.756962 0.223773
O O7 0.580541 0.684239 0.026408
O O8 0.374537 0.531457 0.584251
O O9 0.280917 0.565999 0.587057
O O10 0.696524 0.751176 0.689954
O O11 0.499518 0.613353 0.312594
#
# Coordination Sequence:
#
# PCOD9370972 Si02
#       6
#    16  16  16  16   8  16
#     4  11  21  45  71 101 140 186 237 301 351 437
#     4  12  24  49  69 105 153 181 240 306 370 435
#     4  12  27  45  70 107 146 190 235 304 374 434
#     4  11  23  43  72 104 141 187 244 295 362 440
#     4  10  20  44  74 104 130 186 246 290 342 440
#     4  11  25  43  73 103 141 191 244 290 367 435
#
# _framework density 21.675129999999999
#
# number of rings (size 3 to 8) (size 9 to 14) (size 15 to 20)
#    0.000    0.727    5.455    3.273    2.545    0.727 
#    3.273    0.000    0.000    0.000    0.000    0.000 
#    0.000    0.000    0.000    0.000    0.000    0.000 
#
# Total GULP energy -122792.598409 kJ/mol
# GULP energy per Si atom -5581.481746 kJ/mol
# Density = 2.162580 g / cm^3
# Si number density = 21.675130 Si / 1000 Ang^3
#
#
#
# Elastic Constant Matrix: (Units=GPa)
#
#
# Indices 1 2 3 4 5 6 
#
# 1 62.3471 21.7214 23.8645 0.0000 0.0000 0.0000
# 2 21.7214 62.3880 18.3350 0.0000 0.0000 0.0000
# 3 23.8645 18.3350 100.8844 0.0000 0.0000 0.0000
# 4 0.0000 0.0000 0.0000 -28.9359 0.0000 0.0000
# 5 0.0000 0.0000 0.0000 0.0000 32.7221 0.0000
# 6 0.0000 0.0000 0.0000 0.0000 0.0000 27.7871
#
#
#
# Elastic Compliance Matrix: (Units=1/GPa)
#
#
# Indices 1 2 3 4 5 6 
#
# 1 0.019386 -0.005707 -0.003549 0.000000 0.000000 0.000000
# 2 -0.005707 0.018613 -0.002033 0.000000 0.000000 0.000000
# 3 -0.003549 -0.002033 0.011121 0.000000 0.000000 0.000000
# 4 0.000000 0.000000 0.000000 -0.034559 0.000000 0.000000
# 5 0.000000 0.000000 0.000000 0.000000 0.030560 0.000000
# 6 0.000000 0.000000 0.000000 0.000000 0.000000 0.035988
#
#
# Mechanical properties :
#
#
# Convention : Reuss Voigt Hill
#
# Bulk Modulus (GPa) = 37.67357 39.27349 38.47353
# Shear Modulus (GPa) = 44.43139 17.09456 30.76298
#
# Velocity S-wave (km/s) = 4.53247 2.81138 3.77141
# Velocity P-wave (km/s) = 6.69401 5.35695 6.06246
#
# Compressibility (1/GPa) = 0.02654381
#
# Stress axis : x y z
#
# Youngs Moduli (GPa) = 51.58455 53.72590 89.91816
#
# Poissons Ratio (x) = 0.30659 0.31908
# Poissons Ratio (y) = 0.29437 0.18279
# Poissons Ratio (z) = 0.18305 0.10922
#
# Static dielectric constant tensor:
#      x y z
#    x 1.793340 0.000000 0.000000 
#    y 0.000000 2.112410 0.000000 
#    z 0.000000 0.000000 1.806690 
# 
# From -- ./inp_files/5765.got.cif
#   From: 2010.05.17/outbox.cif.g08.bks.cpg/sg43_3_cif.got.tgz:5765.got - 2010.06.03 19:21:55.
