data_PCOD9370567
_publ_section_title
;
Structure prediction by ZEFSAII (Michael W. Deem and Ramdas Pophale) SiO2 
 PCOD9370567
Probable space group: F D D 2
;
_chemical_formula_sum "Si O2"
_cell_formula_units_Z 120
_cell_length_a 18.181961
_cell_length_b 23.853058
_cell_length_c 12.236980
_cell_angle_alpha 90.000000
_cell_angle_beta 90.000000
_cell_angle_gamma 90.000000
_cell_volume 5307.121572
_symmetry_space_group_name_H-M "F D D 2"
_symmetry_group_IT_number 43
_symmetry_cell_setting 'orthorhombic'
loop_
_space_group_symop_operation_xyz
x,y,z
-x,-y,z
1/4-x,1/4+y,1/4+z
1/4+x,1/4-y,1/4+z
x,1/2+y,1/2+z
-x,1/2-y,1/2+z
1/4-x,3/4+y,3/4+z
1/4+x,3/4-y,3/4+z
1/2+x,y,1/2+z
1/2-x,-y,1/2+z
3/4-x,1/4+y,3/4+z
3/4+x,1/4-y,3/4+z
1/2+x,1/2+y,z
1/2-x,1/2-y,z
3/4-x,3/4+y,1/4+z
3/4+x,3/4-y,1/4+z
loop_
_atom_site_type_symbol
_atom_site_label
_atom_site_fract_x
_atom_site_fract_y
_atom_site_fract_z
Si Si1 0.586573 0.122071 0.821390
Si Si2 0.522071 0.905215 0.282513
Si Si3 0.025422 0.813844 0.953821
Si Si4 0.558888 0.930017 0.933327
Si Si5 0.584491 0.699349 0.503734
Si Si6 0.000000 0.500000 0.129179
Si Si7 0.178686 0.587251 0.340389
Si Si8 0.094428 0.709640 0.637758
O O1 0.650698 0.089532 0.758310
O O2 0.516994 0.087415 0.870343
O O3 0.565330 0.173385 0.740221
O O4 0.620217 0.152764 0.927056
O O5 0.496261 0.852422 0.354837
O O6 0.475300 0.950040 0.211372
O O7 0.575816 0.877223 0.194045
O O8 0.572654 0.940356 0.364365
O O9 0.052930 0.750498 0.932350
O O10 0.960842 0.807291 0.040947
O O11 0.608258 0.963349 0.847689
O O12 0.551093 0.968484 0.041193
O O13 0.593813 0.872208 0.981817
O O14 0.514957 0.672601 0.564911
O O15 0.151967 0.526944 0.381334
#
# Coordination Sequence:
#
# PCOD9370567 Si02
#       8
#    16  16  16  16  16   8  16  16
#     4  10  20  36  57  85 117 149 197 247 295 360
#     4  10  22  38  57  81 115 151 195 245 292 359
#     4  10  21  37  57  82 113 154 197 241 298 362
#     4  10  20  36  60  88 117 153 194 250 309 360
#     4  10  20  36  60  86 117 152 192 245 305 366
#     4  10  22  38  56  86 116 146 194 248 302 358
#     4   9  21  37  54  83 116 151 197 243 298 360
#     4  10  21  37  57  80 113 157 195 239 298 357
#
# _framework density 22.611125999999999
#
# number of rings (size 3 to 8) (size 9 to 14) (size 15 to 20)
#    0.000    2.133    0.000    2.400    0.000    6.400 
#    0.000    8.000    0.000    0.800    0.000    0.000 
#    0.000    0.000    0.000    0.000    0.000    0.000 
#
# Total GULP energy -167025.294515 kJ/mol
# GULP energy per Si atom -5567.509817 kJ/mol
# Density = 2.255966 g / cm^3
# Si number density = 22.611126 Si / 1000 Ang^3
#
#
#
# Elastic Constant Matrix: (Units=GPa)
#
#
# Indices 1 2 3 4 5 6 
#
# 1 34.5227 33.3073 10.9876 0.0000 0.0000 0.0000
# 2 33.3073 93.1278 37.0834 0.0000 0.0000 0.0000
# 3 10.9876 37.0834 68.7686 0.0000 0.0000 0.0000
# 4 0.0000 0.0000 0.0000 51.8859 0.0000 0.0000
# 5 0.0000 0.0000 0.0000 0.0000 8.5395 0.0000
# 6 0.0000 0.0000 0.0000 0.0000 0.0000 21.2564
#
#
#
# Elastic Compliance Matrix: (Units=1/GPa)
#
#
# Indices 1 2 3 4 5 6 
#
# 1 0.044416 -0.016631 0.001871 0.000000 0.000000 0.000000
# 2 -0.016631 0.019901 -0.008074 0.000000 0.000000 0.000000
# 3 0.001871 -0.008074 0.018597 0.000000 0.000000 0.000000
# 4 0.000000 0.000000 0.000000 0.019273 0.000000 0.000000
# 5 0.000000 0.000000 0.000000 0.000000 0.117102 0.000000
# 6 0.000000 0.000000 0.000000 0.000000 0.000000 0.047045
#
#
# Mechanical properties :
#
#
# Convention : Reuss Voigt Hill
#
# Bulk Modulus (GPa) = 26.84827 39.90840 33.37834
# Shear Modulus (GPa) = 15.41229 24.00577 19.70903
#
# Velocity S-wave (km/s) = 2.61363 3.26188 2.95558
# Velocity P-wave (km/s) = 4.58342 5.64577 5.14210
#
# Compressibility (1/GPa) = 0.03724635
#
# Stress axis : x y z
#
# Youngs Moduli (GPa) = 22.51450 50.24838 53.77309
#
# Poissons Ratio (x) = 0.83566 -0.10063
# Poissons Ratio (y) = 0.37443 0.43419
# Poissons Ratio (z) = -0.04213 0.40573
#
# Static dielectric constant tensor:
#      x y z
#    x 1.833990 0.000000 0.000000 
#    y 0.000000 1.912550 0.000000 
#    z 0.000000 0.000000 1.853780 
# 
# From -- ./inp_files/7204.got.cif
#   From: 2010.05.17/outbox.cif.g08.bks.cpg/sg43_4_cif.got.tgz:7204.got - 2010.06.03 19:21:55.
