data_PCOD9370900
_publ_section_title
;
Structure prediction by ZEFSAII (Michael W. Deem and Ramdas Pophale) SiO2 
 PCOD9370900
Probable space group: F D D 2
;
_chemical_formula_sum "Si O2"
_cell_formula_units_Z 80
_cell_length_a 13.189408
_cell_length_b 7.770938
_cell_length_c 27.589715
_cell_angle_alpha 90.000000
_cell_angle_beta 90.000000
_cell_angle_gamma 90.000000
_cell_volume 2827.782231
_symmetry_space_group_name_H-M "F D D 2"
_symmetry_group_IT_number 43
_symmetry_cell_setting 'orthorhombic'
loop_
_space_group_symop_operation_xyz
x,y,z
-x,-y,z
1/4-x,1/4+y,1/4+z
1/4+x,1/4-y,1/4+z
x,1/2+y,1/2+z
-x,1/2-y,1/2+z
1/4-x,3/4+y,3/4+z
1/4+x,3/4-y,3/4+z
1/2+x,y,1/2+z
1/2-x,-y,1/2+z
3/4-x,1/4+y,3/4+z
3/4+x,1/4-y,3/4+z
1/2+x,1/2+y,z
1/2-x,1/2-y,z
3/4-x,3/4+y,1/4+z
3/4+x,3/4-y,1/4+z
loop_
_atom_site_type_symbol
_atom_site_label
_atom_site_fract_x
_atom_site_fract_y
_atom_site_fract_z
Si Si1 0.327253 0.415865 0.561450
Si Si2 0.750000 0.750000 0.735913
Si Si3 0.250000 0.750000 0.778753
Si Si4 0.645102 0.066054 0.605618
Si Si5 0.922747 0.334135 0.703216
Si Si6 0.395102 0.816054 0.159048
O O1 0.250000 0.250000 0.557519
O O2 0.408122 0.433119 0.518705
O O3 0.243515 0.559236 0.572447
O O4 0.390681 0.423244 0.610859
O O5 0.693819 0.628998 0.696464
O O6 0.193819 0.871002 0.818202
O O7 0.158122 0.683119 0.745961
O O8 0.625000 0.875000 0.632333
O O9 0.640681 0.173244 0.653807
O O10 0.000000 0.500000 0.707147
O O11 0.006485 0.190764 0.692219
#
# Coordination Sequence:
#
# PCOD9370900 Si02
#       6
#    16   8   8  16  16  16
#     4  10  23  42  68  95 133 179 224 278 339 408
#     4  12  22  38  70 101 127 182 226 268 350 406
#     4  12  22  38  70 101 127 182 226 268 350 406
#     4  10  20  42  63  95 133 174 225 277 335 406
#     4  10  23  42  68  95 133 179 224 278 339 408
#     4  10  20  42  63  95 133 174 225 277 335 406
#
# _framework density 28.290721999999999
#
# number of rings (size 3 to 8) (size 9 to 14) (size 15 to 20)
#    0.000    1.600    6.000    1.200    0.000   12.800 
#    0.000    0.000    0.000    0.000    0.000    0.000 
#    0.000    0.000    0.000    0.000    0.000    0.000 
#
# Total GULP energy -111556.598024 kJ/mol
# GULP energy per Si atom -5577.829901 kJ/mol
# Density = 2.822633 g / cm^3
# Si number density = 28.290722 Si / 1000 Ang^3
#
#
#
# Elastic Constant Matrix: (Units=GPa)
#
#
# Indices 1 2 3 4 5 6 
#
# 1 239.6635 43.9087 130.8995 0.0000 0.0000 0.0000
# 2 43.9087 78.5414 26.0774 0.0000 0.0000 0.0000
# 3 130.8995 26.0774 256.5959 0.0000 0.0000 0.0000
# 4 0.0000 0.0000 0.0000 21.5452 0.0000 0.0000
# 5 0.0000 0.0000 0.0000 0.0000 88.2736 0.0000
# 6 0.0000 0.0000 0.0000 0.0000 0.0000 33.1547
#
#
#
# Elastic Compliance Matrix: (Units=1/GPa)
#
#
# Indices 1 2 3 4 5 6 
#
# 1 0.006229 -0.002512 -0.002922 0.000000 0.000000 0.000000
# 2 -0.002512 0.014190 -0.000161 0.000000 0.000000 0.000000
# 3 -0.002922 -0.000161 0.005404 0.000000 0.000000 0.000000
# 4 0.000000 0.000000 0.000000 0.046414 0.000000 0.000000
# 5 0.000000 0.000000 0.000000 0.000000 0.011328 0.000000
# 6 0.000000 0.000000 0.000000 0.000000 0.000000 0.030162
#
#
# Mechanical properties :
#
#
# Convention : Reuss Voigt Hill
#
# Bulk Modulus (GPa) = 68.33808 108.50798 88.42303
# Shear Modulus (GPa) = 38.52242 53.52237 46.02240
#
# Velocity S-wave (km/s) = 3.69407 4.35428 4.03769
# Velocity P-wave (km/s) = 6.51176 7.98233 7.28425
#
# Compressibility (1/GPa) = 0.01463313
#
# Stress axis : x y z
#
# Youngs Moduli (GPa) = 160.54387 70.47319 185.03884
#
# Poissons Ratio (x) = 0.17703 0.54074
# Poissons Ratio (y) = 0.40328 0.02972
# Poissons Ratio (z) = 0.46915 0.01132
#
# Static dielectric constant tensor:
#      x y z
#    x 2.244080 0.000000 0.000000 
#    y 0.000000 2.559140 0.000000 
#    z 0.000000 0.000000 2.162950 
# 
# From -- ./inp_files/24958.got.cif
#   From: 2010.05.17/outbox.cif.g08.bks.cpg/sg43_13_cif.got.tgz:24958.got - 2010.06.03 19:21:55.
