data_PCOD9370598
_publ_section_title
;
Structure prediction by ZEFSAII (Michael W. Deem and Ramdas Pophale) SiO2 
 PCOD9370598
Probable space group: F D D 2
;
_chemical_formula_sum "Si O2"
_cell_formula_units_Z 120
_cell_length_a 32.280218
_cell_length_b 22.203506
_cell_length_c 8.050292
_cell_angle_alpha 90.000000
_cell_angle_beta 90.000000
_cell_angle_gamma 90.000000
_cell_volume 5769.918099
_symmetry_space_group_name_H-M "F D D 2"
_symmetry_group_IT_number 43
_symmetry_cell_setting 'orthorhombic'
loop_
_space_group_symop_operation_xyz
x,y,z
-x,-y,z
1/4-x,1/4+y,1/4+z
1/4+x,1/4-y,1/4+z
x,1/2+y,1/2+z
-x,1/2-y,1/2+z
1/4-x,3/4+y,3/4+z
1/4+x,3/4-y,3/4+z
1/2+x,y,1/2+z
1/2-x,-y,1/2+z
3/4-x,1/4+y,3/4+z
3/4+x,1/4-y,3/4+z
1/2+x,1/2+y,z
1/2-x,1/2-y,z
3/4-x,3/4+y,1/4+z
3/4+x,3/4-y,1/4+z
loop_
_atom_site_type_symbol
_atom_site_label
_atom_site_fract_x
_atom_site_fract_y
_atom_site_fract_z
Si Si1 0.005002 0.371686 0.215850
Si Si2 0.311819 0.584882 0.253577
Si Si3 0.398231 0.621935 0.187208
Si Si4 0.573436 0.442064 0.528153
Si Si5 0.156756 0.496271 0.047706
Si Si6 0.486834 0.609812 0.085928
Si Si7 0.000000 0.500000 0.830177
Si Si8 0.253600 0.982999 0.043709
O O1 0.994868 0.393606 0.401573
O O2 0.007415 0.299181 0.228380
O O3 0.969668 0.384393 0.077597
O O4 0.046958 0.401041 0.151251
O O5 0.351782 0.601797 0.147046
O O6 0.329656 0.554459 0.418488
O O7 0.283435 0.537646 0.159513
O O8 0.410572 0.598013 0.371881
O O9 0.396682 0.693582 0.196697
O O10 0.436858 0.601545 0.076069
O O11 0.612916 0.473334 0.616980
O O12 0.540583 0.487309 0.441713
O O13 0.201013 0.511170 0.133289
O O14 0.503953 0.558885 0.210447
O O15 0.492498 0.676912 0.164344
#
# Coordination Sequence:
#
# PCOD9370598 Si02
#       8
#    16  16  16  16  16  16   8  16
#     4  11  21  37  61  93 120 153 213 261 303 359
#     4  10  20  36  64  89 112 167 210 240 305 374
#     4   9  19  38  58  82 121 160 204 246 302 372
#     4  10  22  37  62  87 117 164 203 245 309 375
#     4   9  19  35  59  87 119 149 204 258 287 359
#     4  10  22  39  59  92 128 158 201 266 306 359
#     4  10  22  40  60  86 120 168 208 238 316 384
#     4  10  20  39  67  88 120 165 208 251 309 378
#
# _framework density 20.797522000000001
#
# number of rings (size 3 to 8) (size 9 to 14) (size 15 to 20)
#    0.000    2.133    0.000    4.800    3.733    1.600 
#    0.000    8.000   23.467    0.000    0.000    0.000 
#    0.000    0.000    0.000    0.000    0.000    0.000 
#
# Total GULP energy -167115.341558 kJ/mol
# GULP energy per Si atom -5570.511385 kJ/mol
# Density = 2.075019 g / cm^3
# Si number density = 20.797522 Si / 1000 Ang^3
#
#
#
# Elastic Constant Matrix: (Units=GPa)
#
#
# Indices 1 2 3 4 5 6 
#
# 1 133.3630 41.5498 14.6558 0.0000 -0.0009 -0.0002
# 2 41.5498 80.0969 20.1321 0.0005 -0.0036 -0.0004
# 3 14.6558 20.1321 49.2078 0.0008 -0.0088 -0.0014
# 4 0.0000 0.0005 0.0008 22.2010 -0.0034 -0.0006
# 5 -0.0009 -0.0036 -0.0088 -0.0034 -609.8922 0.0035
# 6 -0.0002 -0.0004 -0.0014 -0.0006 0.0035 5.3794
#
#
#
# Elastic Compliance Matrix: (Units=1/GPa)
#
#
# Indices 1 2 3 4 5 6 
#
# 1 0.008976 -0.004441 -0.000856 0.000000 0.000000 0.000000
# 2 -0.004441 0.016113 -0.005270 0.000000 0.000000 0.000000
# 3 -0.000856 -0.005270 0.022733 -0.000001 0.000000 0.000005
# 4 0.000000 0.000000 -0.000001 0.045043 0.000000 0.000005
# 5 0.000000 0.000000 0.000000 0.000000 -0.001640 0.000001
# 6 0.000000 0.000000 0.000005 0.000005 0.000001 0.185894
#
#
# Mechanical properties :
#
#
# Convention : Reuss Voigt Hill
#
# Bulk Modulus (GPa) = 37.46997 46.14927 41.80962
# Shear Modulus (GPa) = 16.27873 -104.04037 -43.88082
#
# Velocity S-wave (km/s) = 2.80076 -7.08053 -4.59835
# Velocity P-wave (km/s) = 5.33991 6.67887 2.83661
#
# Compressibility (1/GPa) = 0.02668804
#
# Stress axis : x y z
#
# Youngs Moduli (GPa) = 111.40733 62.06121 43.98896
#
# Poissons Ratio (x) = 0.27561 0.03767
# Poissons Ratio (y) = 0.49476 0.23180
# Poissons Ratio (z) = 0.09542 0.32704
#
# Static dielectric constant tensor:
#      x y z
#    x 3.512990 0.000000 0.000000 
#    y 0.000000 1.761480 0.000000 
#    z 0.000000 0.000000 1.768650 
# 
# From -- ./inp_files/4817.got.cif
#   From: 2010.05.17/outbox.cif.g08.bks.cpg/sg43_3_cif.got.tgz:4817.got - 2010.06.03 19:21:55.
