data_PCOD9370781
_publ_section_title
;
Structure prediction by ZEFSAII (Michael W. Deem and Ramdas Pophale) SiO2 
 PCOD9370781
Probable space group: F D D 2
;
_chemical_formula_sum "Si O2"
_cell_formula_units_Z 120
_cell_length_a 14.306956
_cell_length_b 23.983037
_cell_length_c 15.152629
_cell_angle_alpha 90.000000
_cell_angle_beta 90.000000
_cell_angle_gamma 90.000000
_cell_volume 5199.234539
_symmetry_space_group_name_H-M "F D D 2"
_symmetry_group_IT_number 43
_symmetry_cell_setting 'orthorhombic'
loop_
_space_group_symop_operation_xyz
x,y,z
-x,-y,z
1/4-x,1/4+y,1/4+z
1/4+x,1/4-y,1/4+z
x,1/2+y,1/2+z
-x,1/2-y,1/2+z
1/4-x,3/4+y,3/4+z
1/4+x,3/4-y,3/4+z
1/2+x,y,1/2+z
1/2-x,-y,1/2+z
3/4-x,1/4+y,3/4+z
3/4+x,1/4-y,3/4+z
1/2+x,1/2+y,z
1/2-x,1/2-y,z
3/4-x,3/4+y,1/4+z
3/4+x,3/4-y,1/4+z
loop_
_atom_site_type_symbol
_atom_site_label
_atom_site_fract_x
_atom_site_fract_y
_atom_site_fract_z
Si Si1 0.884735 0.459444 0.916240
Si Si2 0.500000 0.500000 0.261360
Si Si3 0.934579 0.902779 0.048212
Si Si4 0.870105 0.337704 0.900230
Si Si5 0.302731 0.034953 0.321173
Si Si6 0.539357 0.768420 0.380958
Si Si7 0.662843 0.585449 0.863598
Si Si8 0.158670 0.927363 0.484573
O O1 0.897651 0.395642 0.946675
O O2 0.773707 0.464196 0.898598
O O3 0.935332 0.461734 0.822452
O O4 0.906282 0.520319 0.957395
O O5 0.432916 0.544213 0.213808
O O6 0.892922 0.842852 0.077007
O O7 0.887583 0.952304 0.104280
O O8 0.044322 0.900895 0.072643
O O9 0.907364 0.907179 0.946192
O O10 0.954256 0.298336 0.868649
O O11 0.249112 0.032665 0.227477
O O12 0.354736 0.977128 0.330182
O O13 0.471460 0.796227 0.311240
O O14 0.644581 0.627254 0.783015
O O15 0.768336 0.589389 0.906119
#
# Coordination Sequence:
#
# PCOD9370781 Si02
#       8
#    16   8  16  16  16  16  16  16
#     4  10  24  40  62  96 129 167 220 264 323 393
#     4  12  22  44  62  94 132 160 218 264 318 388
#     4  10  20  40  61 101 126 164 220 266 326 393
#     4  11  22  39  66  98 125 171 208 276 325 381
#     4  10  20  41  65  90 132 170 208 272 327 377
#     4  11  20  40  65  91 131 169 207 268 324 384
#     4  10  22  43  69  95 134 174 219 280 326 406
#     4  10  23  45  67  96 133 174 225 270 334 402
#
# _framework density 23.08032
#
# number of rings (size 3 to 8) (size 9 to 14) (size 15 to 20)
#    0.000    1.600    4.000    0.000    1.867    1.067 
#   14.400    2.667    2.933    0.000    0.000    0.000 
#    0.000    0.000    0.000    0.000    0.000    0.000 
#
# Total GULP energy -167404.105274 kJ/mol
# GULP energy per Si atom -5580.136842 kJ/mol
# Density = 2.302779 g / cm^3
# Si number density = 23.080320 Si / 1000 Ang^3
#
#
#
# Elastic Constant Matrix: (Units=GPa)
#
#
# Indices 1 2 3 4 5 6 
#
# 1 26.7270 3.8667 -0.3223 0.0000 0.0000 0.0000
# 2 3.8667 202.4035 29.6858 0.0000 0.0000 0.0000
# 3 -0.3223 29.6858 52.4268 0.0000 0.0000 0.0000
# 4 0.0000 0.0000 0.0000 35.4502 0.0000 0.0000
# 5 0.0000 0.0000 0.0000 0.0000 29.8389 0.0000
# 6 0.0000 0.0000 0.0000 0.0000 0.0000 30.3062
#
#
#
# Elastic Compliance Matrix: (Units=1/GPa)
#
#
# Indices 1 2 3 4 5 6 
#
# 1 0.037542 -0.000819 0.000695 0.000000 0.000000 0.000000
# 2 -0.000819 0.005406 -0.003066 0.000000 0.000000 0.000000
# 3 0.000695 -0.003066 0.020815 0.000000 0.000000 0.000000
# 4 0.000000 0.000000 0.000000 0.028209 0.000000 0.000000
# 5 0.000000 0.000000 0.000000 0.000000 0.033513 0.000000
# 6 0.000000 0.000000 0.000000 0.000000 0.000000 0.032997
#
#
# Mechanical properties :
#
#
# Convention : Reuss Voigt Hill
#
# Bulk Modulus (GPa) = 17.42718 38.66862 28.04790
# Shear Modulus (GPa) = 27.17547 35.67420 31.42483
#
# Velocity S-wave (km/s) = 3.43509 3.93575 3.69391
# Velocity P-wave (km/s) = 4.82703 6.11913 5.51108
#
# Compressibility (1/GPa) = 0.05738163
#
# Stress axis : x y z
#
# Youngs Moduli (GPa) = 26.63672 184.98093 48.04319
#
# Poissons Ratio (x) = 0.15151 -0.03337
# Poissons Ratio (y) = 0.02182 0.14730
# Poissons Ratio (z) = -0.01850 0.56716
#
# Static dielectric constant tensor:
#      x y z
#    x 1.986180 0.000000 0.000000 
#    y 0.000000 1.939900 0.000000 
#    z 0.000000 0.000000 1.883790 
# 
# From -- ./inp_files/13959.got.cif
#   From: 2010.05.17/outbox.cif.g08.bks.cpg/sg43_7_cif.got.tgz:13959.got - 2010.06.03 19:21:55.
