data_PCOD9370904
_publ_section_title
;
Structure prediction by ZEFSAII (Michael W. Deem and Ramdas Pophale) SiO2 
 PCOD9370904
Probable space group: F D D 2
;
_chemical_formula_sum "Si O2"
_cell_formula_units_Z 80
_cell_length_a 11.260436
_cell_length_b 25.270869
_cell_length_c 11.176064
_cell_angle_alpha 90.000000
_cell_angle_beta 90.000000
_cell_angle_gamma 90.000000
_cell_volume 3180.271982
_symmetry_space_group_name_H-M "F D D 2"
_symmetry_group_IT_number 43
_symmetry_cell_setting 'orthorhombic'
loop_
_space_group_symop_operation_xyz
x,y,z
-x,-y,z
1/4-x,1/4+y,1/4+z
1/4+x,1/4-y,1/4+z
x,1/2+y,1/2+z
-x,1/2-y,1/2+z
1/4-x,3/4+y,3/4+z
1/4+x,3/4-y,3/4+z
1/2+x,y,1/2+z
1/2-x,-y,1/2+z
3/4-x,1/4+y,3/4+z
3/4+x,1/4-y,3/4+z
1/2+x,1/2+y,z
1/2-x,1/2-y,z
3/4-x,3/4+y,1/4+z
3/4+x,3/4-y,1/4+z
loop_
_atom_site_type_symbol
_atom_site_label
_atom_site_fract_x
_atom_site_fract_y
_atom_site_fract_z
Si Si1 0.964712 0.910185 0.100400
Si Si2 0.788273 0.949492 0.412540
Si Si3 0.407656 0.552242 0.328643
Si Si4 0.429775 0.664061 0.433125
Si Si5 0.036678 0.428750 0.345914
O O1 0.054988 0.859639 0.109185
O O2 0.003603 0.943412 0.214569
O O3 0.837162 0.881692 0.101597
O O4 0.975707 0.937822 0.973623
O O5 0.659032 0.961843 0.353754
O O6 0.880444 0.995334 0.385826
O O7 0.787730 0.939430 0.554655
O O8 0.434542 0.600225 0.419345
O O9 0.280326 0.568790 0.274272
O O10 0.302069 0.681894 0.485488
#
# Coordination Sequence:
#
# PCOD9370904 Si02
#       5
#    16  16  16  16  16
#     4   9  19  41  66  94 144 184 231 312 361 434
#     4   9  23  40  69 101 144 186 253 294 372 459
#     4  11  21  45  66  99 143 191 240 318 368 451
#     4  11  23  42  72 102 148 190 249 307 377 441
#     4  10  20  42  65  99 142 187 244 302 370 440
#
# _framework density 25.155079000000001
#
# number of rings (size 3 to 8) (size 9 to 14) (size 15 to 20)
#    1.200    0.800    2.000    1.200    0.000    2.400 
#    3.600    8.000    0.000    0.000    0.000    0.000 
#    0.000    0.000    0.000    0.000    0.000    0.000 
#
# Total GULP energy -111742.595674 kJ/mol
# GULP energy per Si atom -5587.129784 kJ/mol
# Density = 2.509783 g / cm^3
# Si number density = 25.155079 Si / 1000 Ang^3
#
#
#
# Elastic Constant Matrix: (Units=GPa)
#
#
# Indices 1 2 3 4 5 6 
#
# 1 83.5617 -10.6811 13.3710 0.0000 0.0000 0.0000
# 2 -10.6811 129.1232 21.5041 0.0000 0.0000 0.0000
# 3 13.3710 21.5041 54.8216 0.0000 0.0000 0.0000
# 4 0.0000 0.0000 0.0000 23.0484 0.0000 0.0000
# 5 0.0000 0.0000 0.0000 0.0000 46.2384 0.0000
# 6 0.0000 0.0000 0.0000 0.0000 0.0000 40.1389
#
#
#
# Elastic Compliance Matrix: (Units=1/GPa)
#
#
# Indices 1 2 3 4 5 6 
#
# 1 0.012788 0.001687 -0.003781 0.000000 0.000000 0.000000
# 2 0.001687 0.008509 -0.003749 0.000000 0.000000 0.000000
# 3 -0.003781 -0.003749 0.020634 0.000000 0.000000 0.000000
# 4 0.000000 0.000000 0.000000 0.043387 0.000000 0.000000
# 5 0.000000 0.000000 0.000000 0.000000 0.021627 0.000000
# 6 0.000000 0.000000 0.000000 0.000000 0.000000 0.024914
#
#
# Mechanical properties :
#
#
# Convention : Reuss Voigt Hill
#
# Bulk Modulus (GPa) = 33.06315 35.09938 34.08127
# Shear Modulus (GPa) = 32.54689 38.10596 35.32642
#
# Velocity S-wave (km/s) = 3.60091 3.89632 3.75153
# Velocity P-wave (km/s) = 5.51915 5.85023 5.68710
#
# Compressibility (1/GPa) = 0.03024515
#
# Stress axis : x y z
#
# Youngs Moduli (GPa) = 78.19885 117.52950 48.46424
#
# Poissons Ratio (x) = -0.19833 0.18324
# Poissons Ratio (y) = -0.13196 0.18170
# Poissons Ratio (z) = 0.29566 0.44063
#
# Static dielectric constant tensor:
#      x y z
#    x 2.127060 0.000000 0.000000 
#    y 0.000000 2.047650 0.000000 
#    z 0.000000 0.000000 1.918380 
# 
# From -- ./inp_files/9636.got.cif
#   From: 2010.05.17/outbox.cif.g08.bks.cpg/sg43_5_cif.got.tgz:9636.got - 2010.06.03 19:21:55.
