data_PCOD9370749
_publ_section_title
;
Structure prediction by ZEFSAII (Michael W. Deem and Ramdas Pophale) SiO2 
 PCOD9370749
Probable space group: F D D 2
;
_chemical_formula_sum "Si O2"
_cell_formula_units_Z 104
_cell_length_a 23.398026
_cell_length_b 26.084378
_cell_length_c 7.360382
_cell_angle_alpha 90.000000
_cell_angle_beta 90.000000
_cell_angle_gamma 90.000000
_cell_volume 4492.210090
_symmetry_space_group_name_H-M "F D D 2"
_symmetry_group_IT_number 43
_symmetry_cell_setting 'orthorhombic'
loop_
_space_group_symop_operation_xyz
x,y,z
-x,-y,z
1/4-x,1/4+y,1/4+z
1/4+x,1/4-y,1/4+z
x,1/2+y,1/2+z
-x,1/2-y,1/2+z
1/4-x,3/4+y,3/4+z
1/4+x,3/4-y,3/4+z
1/2+x,y,1/2+z
1/2-x,-y,1/2+z
3/4-x,1/4+y,3/4+z
3/4+x,1/4-y,3/4+z
1/2+x,1/2+y,z
1/2-x,1/2-y,z
3/4-x,3/4+y,1/4+z
3/4+x,3/4-y,1/4+z
loop_
_atom_site_type_symbol
_atom_site_label
_atom_site_fract_x
_atom_site_fract_y
_atom_site_fract_z
Si Si1 0.893178 0.151490 0.712250
Si Si2 0.749126 0.560796 0.185065
Si Si3 0.126176 0.694824 0.270725
Si Si4 0.901431 0.506506 0.377397
Si Si5 0.540790 0.613076 0.234753
Si Si6 0.567863 0.708932 0.424255
Si Si7 0.750000 0.750000 0.402648
O O1 0.952754 0.168555 0.793620
O O2 0.901390 0.110794 0.553772
O O3 0.856452 0.196402 0.627238
O O4 0.853096 0.136259 0.884322
O O5 0.810731 0.557873 0.091807
O O6 0.751702 0.601996 0.349271
O O7 0.727519 0.502868 0.228503
O O8 0.158719 0.727087 0.421588
O O9 0.119835 0.713311 0.067441
O O10 0.843943 0.527343 0.476467
O O11 0.951978 0.520152 0.512314
O O12 0.546449 0.650322 0.409983
O O13 0.521448 0.553113 0.251650
#
# Coordination Sequence:
#
# PCOD9370749 Si02
#       7
#    16  16  16  16  16  16   8
#     4   9  20  38  60  89 127 169 210 276 327 394
#     4  10  20  39  67  90 130 176 219 279 339 383
#     4  11  22  40  63  97 127 167 222 272 330 395
#     4  10  21  43  63  90 130 170 221 263 332 390
#     4  10  20  39  65  95 131 174 223 268 343 402
#     4  11  22  39  64 100 131 167 224 284 327 398
#     4  10  22  42  74  90 136 192 210 278 342 408
#
# _framework density 23.151188000000001
#
# number of rings (size 3 to 8) (size 9 to 14) (size 15 to 20)
#    0.000    1.846    3.077    1.846    2.154    0.000 
#   11.077    0.769    0.000    0.000    0.000    0.000 
#    0.000    0.000    0.000    0.000    0.000    0.000 
#
# Total GULP energy -145038.183734 kJ/mol
# GULP energy per Si atom -5578.391682 kJ/mol
# Density = 2.309850 g / cm^3
# Si number density = 23.151188 Si / 1000 Ang^3
#
#
#
# Elastic Constant Matrix: (Units=GPa)
#
#
# Indices 1 2 3 4 5 6 
#
# 1 54.1906 10.2322 -0.5921 -0.0145 -0.0058 0.0026
# 2 10.2322 112.6893 29.0170 0.0024 0.0020 -0.0003
# 3 -0.5921 29.0170 80.7447 -0.0312 -0.0193 0.0009
# 4 -0.0145 0.0024 -0.0312 -6.0207 0.0225 0.0046
# 5 -0.0058 0.0020 -0.0193 0.0225 1.4516 0.0040
# 6 0.0026 -0.0003 0.0009 0.0046 0.0040 21.6729
#
#
#
# Elastic Compliance Matrix: (Units=1/GPa)
#
#
# Indices 1 2 3 4 5 6 
#
# 1 0.018826 -0.001923 0.000829 -0.000050 0.000089 -0.000002
# 2 -0.001923 0.009975 -0.003599 0.000027 -0.000070 0.000001
# 3 0.000829 -0.003599 0.013684 -0.000074 0.000192 -0.000001
# 4 -0.000050 0.000027 -0.000074 -0.166083 0.002568 0.000035
# 5 0.000089 -0.000070 0.000192 0.002568 0.688855 -0.000128
# 6 -0.000002 0.000001 -0.000001 0.000035 -0.000128 0.046141
#
#
# Mechanical properties :
#
#
# Convention : Reuss Voigt Hill
#
# Bulk Modulus (GPa) = 30.21187 36.10431 33.15809
# Shear Modulus (GPa) = 7.91370 17.35192 12.63281
#
# Velocity S-wave (km/s) = 1.85086 2.74068 2.33848
# Velocity P-wave (km/s) = 4.20068 5.06399 4.65240
#
# Compressibility (1/GPa) = 0.03309957
#
# Stress axis : x y z
#
# Youngs Moduli (GPa) = 53.11937 100.24811 73.07736
#
# Poissons Ratio (x) = 0.19276 -0.06059
# Poissons Ratio (y) = 0.10214 0.26300
# Poissons Ratio (z) = -0.04404 0.36078
#
# Static dielectric constant tensor:
#      x y z
#    x 1.934510 -0.000040 0.000000 
#    y -0.000040 1.983770 0.000010 
#    z 0.000000 0.000010 1.894750 
# 
# From -- ./inp_files/4393.got.cif
#   From: 2010.05.17/outbox.cif.g08.bks.cpg/sg43_3_cif.got.tgz:4393.got - 2010.06.03 19:21:55.
