data_PCOD9370205
_publ_section_title
;
Structure prediction by ZEFSAII (Michael W. Deem and Ramdas Pophale) SiO2 
 PCOD9370205
Probable space group: F D D 2
;
_chemical_formula_sum "Si O2"
_cell_formula_units_Z 104
_cell_length_a 23.380384
_cell_length_b 26.355675
_cell_length_c 8.009455
_cell_angle_alpha 90.000000
_cell_angle_beta 90.000000
_cell_angle_gamma 90.000000
_cell_volume 4935.472642
_symmetry_space_group_name_H-M "F D D 2"
_symmetry_group_IT_number 43
_symmetry_cell_setting 'orthorhombic'
loop_
_space_group_symop_operation_xyz
x,y,z
-x,-y,z
1/4-x,1/4+y,1/4+z
1/4+x,1/4-y,1/4+z
x,1/2+y,1/2+z
-x,1/2-y,1/2+z
1/4-x,3/4+y,3/4+z
1/4+x,3/4-y,3/4+z
1/2+x,y,1/2+z
1/2-x,-y,1/2+z
3/4-x,1/4+y,3/4+z
3/4+x,1/4-y,3/4+z
1/2+x,1/2+y,z
1/2-x,1/2-y,z
3/4-x,3/4+y,1/4+z
3/4+x,3/4-y,1/4+z
loop_
_atom_site_type_symbol
_atom_site_label
_atom_site_fract_x
_atom_site_fract_y
_atom_site_fract_z
Si Si1 0.536794 0.787204 0.583010
Si Si2 0.324345 0.586405 0.670561
Si Si3 0.153127 0.084987 0.052523
Si Si4 0.377876 0.519331 0.902276
Si Si5 0.034356 0.186123 0.389596
Si Si6 0.513840 0.108798 0.147773
Si Si7 0.000000 0.000000 0.801399
O O1 0.484752 0.812626 0.480316
O O2 0.588807 0.815532 0.491909
O O3 0.518698 0.797141 0.771497
O O4 0.538187 0.728055 0.536896
O O5 0.345713 0.633427 0.781236
O O6 0.367444 0.541126 0.715972
O O7 0.315362 0.612248 0.493847
O O8 0.204786 0.119496 0.979736
O O9 0.150022 0.035023 0.937772
O O10 0.445639 0.514514 0.915889
O O11 0.342366 0.555135 0.030912
O O12 0.020842 0.130863 0.462388
O O13 0.515578 0.049340 0.189782
#
# Coordination Sequence:
#
# PCOD9370205 Si02
#       7
#    16  16  16  16  16  16   8
#     4   9  19  34  63  90 124 161 230 269 309 392
#     4  10  18  35  61  87 128 168 210 258 333 389
#     4  10  19  35  62  97 122 173 215 267 330 393
#     4  10  21  38  66  94 129 168 221 266 330 405
#     4  10  20  40  65  95 126 172 229 276 317 391
#     4  11  22  37  67  95 128 171 223 268 330 404
#     4  12  22  38  68 102 130 170 214 276 350 400
#
# _framework density 21.071943000000001
#
# number of rings (size 3 to 8) (size 9 to 14) (size 15 to 20)
#    0.000    1.846    3.077    3.692    0.000    0.000 
#    0.000    3.077   13.538    9.231    0.000    0.000 
#    0.000    0.000    0.000    0.000    0.000    0.000 
#
# Total GULP energy -144790.129218 kJ/mol
# GULP energy per Si atom -5568.851124 kJ/mol
# Density = 2.102398 g / cm^3
# Si number density = 21.071943 Si / 1000 Ang^3
#
#
#
# Elastic Constant Matrix: (Units=GPa)
#
#
# Indices 1 2 3 4 5 6 
#
# 1 59.2751 19.7386 20.0230 -0.0026 0.0018 0.0018
# 2 19.7386 127.7111 51.0304 -0.0011 0.0002 0.0001
# 3 20.0230 51.0304 74.1645 -0.0011 -0.0005 0.0002
# 4 -0.0026 -0.0011 -0.0011 19.3149 0.0004 0.0010
# 5 0.0018 0.0002 -0.0005 0.0004 20.1717 0.0003
# 6 0.0018 0.0001 0.0002 0.0010 0.0003 29.1266
#
#
#
# Elastic Compliance Matrix: (Units=1/GPa)
#
#
# Indices 1 2 3 4 5 6 
#
# 1 0.018697 -0.001204 -0.004220 0.000002 -0.000002 -0.000001
# 2 -0.001204 0.010877 -0.007159 0.000000 0.000000 0.000000
# 3 -0.004220 -0.007159 0.019549 0.000000 0.000001 0.000000
# 4 0.000002 0.000000 0.000000 0.051773 -0.000001 -0.000002
# 5 -0.000002 0.000000 0.000001 -0.000001 0.049574 0.000000
# 6 -0.000001 0.000000 0.000000 -0.000002 0.000000 0.034333
#
#
# Mechanical properties :
#
#
# Convention : Reuss Voigt Hill
#
# Bulk Modulus (GPa) = 41.74037 49.19276 45.46657
# Shear Modulus (GPa) = 22.94071 25.07989 24.01030
#
# Velocity S-wave (km/s) = 3.30310 3.45367 3.37923
# Velocity P-wave (km/s) = 5.86505 6.26894 6.07036
#
# Compressibility (1/GPa) = 0.02395762
#
# Stress axis : x y z
#
# Youngs Moduli (GPa) = 53.48551 91.93889 51.15444
#
# Poissons Ratio (x) = 0.11066 0.21585
# Poissons Ratio (y) = 0.06438 0.36622
# Poissons Ratio (z) = 0.22568 0.65819
#
# Static dielectric constant tensor:
#      x y z
#    x 1.829310 0.000000 0.000000 
#    y 0.000000 1.779170 0.000000 
#    z 0.000000 0.000000 1.844720 
# 
# From -- ./inp_files/3860.got.cif
#   From: 2010.05.17/outbox.cif.g08.bks.cpg/sg43_2_cif.got.tgz:3860.got - 2010.06.03 19:21:55.
