data_PCOD9370966
_publ_section_title
;
Structure prediction by ZEFSAII (Michael W. Deem and Ramdas Pophale) SiO2 
 PCOD9370966
Probable space group: F D D 2
;
_chemical_formula_sum "Si O2"
_cell_formula_units_Z 80
_cell_length_a 12.265739
_cell_length_b 29.076108
_cell_length_c 7.829023
_cell_angle_alpha 90.000000
_cell_angle_beta 90.000000
_cell_angle_gamma 90.000000
_cell_volume 2792.142386
_symmetry_space_group_name_H-M "F D D 2"
_symmetry_group_IT_number 43
_symmetry_cell_setting 'orthorhombic'
loop_
_space_group_symop_operation_xyz
x,y,z
-x,-y,z
1/4-x,1/4+y,1/4+z
1/4+x,1/4-y,1/4+z
x,1/2+y,1/2+z
-x,1/2-y,1/2+z
1/4-x,3/4+y,3/4+z
1/4+x,3/4-y,3/4+z
1/2+x,y,1/2+z
1/2-x,-y,1/2+z
3/4-x,1/4+y,3/4+z
3/4+x,1/4-y,3/4+z
1/2+x,1/2+y,z
1/2-x,1/2-y,z
3/4-x,3/4+y,1/4+z
3/4+x,3/4-y,1/4+z
loop_
_atom_site_type_symbol
_atom_site_label
_atom_site_fract_x
_atom_site_fract_y
_atom_site_fract_z
Si Si1 0.921275 0.177951 0.600600
Si Si2 0.341240 0.015123 0.538774
Si Si3 0.358896 0.449845 0.363803
Si Si4 0.142654 0.404389 0.321431
Si Si5 0.903878 0.086124 0.446118
O O1 0.879601 0.228146 0.639399
O O2 0.894818 0.146490 0.769412
O O3 0.886823 0.141786 0.456120
O O4 0.051874 0.180151 0.587216
O O5 0.364345 0.986235 0.708155
O O6 0.395177 0.063288 0.478036
O O7 0.210264 0.024375 0.514153
O O8 0.272948 0.408293 0.336186
O O9 0.520871 0.569272 0.389397
O O10 0.111463 0.429269 0.142783
#
# Coordination Sequence:
#
# PCOD9370966 Si02
#       5
#    16  16  16  16  16
#     4  10  20  44  69 107 158 210 258 323 410 466
#     4  10  20  45  72 109 157 205 272 323 399 485
#     4  10  22  43  76 110 152 213 267 325 400 482
#     4   8  22  43  70 109 155 206 255 340 377 480
#     4  10  22  43  72 108 158 210 259 336 401 469
#
# _framework density 28.651834999999998
#
# number of rings (size 3 to 8) (size 9 to 14) (size 15 to 20)
#    2.400    0.000    2.000    0.000    0.000    4.000 
#    3.600    3.000    8.800    2.400    0.000    0.000 
#    0.000    0.000    0.000    0.000    0.000    0.000 
#
# Total GULP energy -111711.048355 kJ/mol
# GULP energy per Si atom -5585.552418 kJ/mol
# Density = 2.858662 g / cm^3
# Si number density = 28.651835 Si / 1000 Ang^3
#
#
#
# Elastic Constant Matrix: (Units=GPa)
#
#
# Indices 1 2 3 4 5 6 
#
# 1 161.6404 25.7410 10.6546 0.0000 0.0000 0.0000
# 2 25.7410 193.5487 10.7089 0.0000 0.0000 0.0000
# 3 10.6546 10.7089 95.1653 0.0000 0.0000 0.0000
# 4 0.0000 0.0000 0.0000 47.5721 0.0000 0.0000
# 5 0.0000 0.0000 0.0000 0.0000 35.5265 0.0000
# 6 0.0000 0.0000 0.0000 0.0000 0.0000 37.1017
#
#
#
# Elastic Compliance Matrix: (Units=1/GPa)
#
#
# Indices 1 2 3 4 5 6 
#
# 1 0.006357 -0.000811 -0.000620 0.000000 0.000000 0.000000
# 2 -0.000811 0.005303 -0.000506 0.000000 0.000000 0.000000
# 3 -0.000620 -0.000506 0.010634 0.000000 0.000000 0.000000
# 4 0.000000 0.000000 0.000000 0.021021 0.000000 0.000000
# 5 0.000000 0.000000 0.000000 0.000000 0.028148 0.000000
# 6 0.000000 0.000000 0.000000 0.000000 0.000000 0.026953
#
#
# Mechanical properties :
#
#
# Convention : Reuss Voigt Hill
#
# Bulk Modulus (GPa) = 54.29226 60.50704 57.39965
# Shear Modulus (GPa) = 46.11289 50.92339 48.51814
#
# Velocity S-wave (km/s) = 4.01611 4.22040 4.11952
# Velocity P-wave (km/s) = 6.36362 6.70171 6.53485
#
# Compressibility (1/GPa) = 0.01841883
#
# Stress axis : x y z
#
# Youngs Moduli (GPa) = 157.31609 188.58971 94.03432
#
# Poissons Ratio (x) = 0.15296 0.05834
# Poissons Ratio (y) = 0.12759 0.04757
# Poissons Ratio (z) = 0.09760 0.09540
#
# Static dielectric constant tensor:
#      x y z
#    x 2.164210 0.000000 0.000000 
#    y 0.000000 2.250390 0.000000 
#    z 0.000000 0.000000 2.373640 
# 
# From -- ./inp_files/3423.got.cif
#   From: 2010.05.17/outbox.cif.g08.bks.cpg/sg43_2_cif.got.tgz:3423.got - 2010.06.03 19:21:55.
