data_PCOD9370080
_publ_section_title
;
Structure prediction by ZEFSAII (Michael W. Deem and Ramdas Pophale) SiO2 
 PCOD9370080
Probable space group: F D D 2
;
_chemical_formula_sum "Si O2"
_cell_formula_units_Z 104
_cell_length_a 27.745680
_cell_length_b 8.386500
_cell_length_c 21.017530
_cell_angle_alpha 90.000000
_cell_angle_beta 90.000000
_cell_angle_gamma 90.000000
_cell_volume 4890.551092
_symmetry_space_group_name_H-M "F D D 2"
_symmetry_group_IT_number 43
_symmetry_cell_setting 'orthorhombic'
loop_
_space_group_symop_operation_xyz
x,y,z
-x,-y,z
1/4-x,1/4+y,1/4+z
1/4+x,1/4-y,1/4+z
x,1/2+y,1/2+z
-x,1/2-y,1/2+z
1/4-x,3/4+y,3/4+z
1/4+x,3/4-y,3/4+z
1/2+x,y,1/2+z
1/2-x,-y,1/2+z
3/4-x,1/4+y,3/4+z
3/4+x,1/4-y,3/4+z
1/2+x,1/2+y,z
1/2-x,1/2-y,z
3/4-x,3/4+y,1/4+z
3/4+x,3/4-y,1/4+z
loop_
_atom_site_type_symbol
_atom_site_label
_atom_site_fract_x
_atom_site_fract_y
_atom_site_fract_z
Si Si1 0.938186 0.562545 0.169090
Si Si2 0.815625 0.850151 0.064679
Si Si3 0.924200 0.273188 0.553987
Si Si4 0.445074 0.204693 0.682398
Si Si5 0.902502 0.609188 0.926784
Si Si6 0.000000 0.500000 0.578502
Si Si7 0.972777 0.735688 0.827019
O O1 0.943281 0.627473 0.239573
O O2 0.946277 0.688762 0.115220
O O3 0.881897 0.510926 0.160742
O O4 0.038250 0.612585 0.167977
O O5 0.873112 0.852809 0.072240
O O6 0.799687 0.666461 0.077583
O O7 0.778651 0.977368 0.094314
O O8 0.917408 0.142915 0.499125
O O9 0.964211 0.399814 0.534480
O O10 0.386593 0.216557 0.677317
O O11 0.465782 0.094784 0.627700
O O12 0.461921 0.172597 0.755021
O O13 0.945667 0.622340 0.877092
#
# Coordination Sequence:
#
# PCOD9370080 Si02
#       7
#    16  16  16  16  16   8  16
#     4   8  16  35  60  80 110 161 202 236 282 374
#     4   9  17  29  58  87 115 149 210 240 284 349
#     4  11  20  38  56  92 127 159 198 251 306 359
#     4   9  20  39  62  90 112 156 207 251 295 357
#     4   9  18  35  64  85 119 159 199 244 297 368
#     4  12  26  36  60  94 126 150 194 270 314 338
#     4  10  16  33  62  90 109 160 200 247 287 358
#
# _framework density 21.265497
#
# number of rings (size 3 to 8) (size 9 to 14) (size 15 to 20)
#    0.923    1.538    3.077    0.923    0.000    3.077 
#    0.000    4.615    0.000    1.846    0.000    0.000 
#    0.000    0.000    0.000    0.000    0.000    0.000 
#
# Total GULP energy -144804.493255 kJ/mol
# GULP energy per Si atom -5569.403587 kJ/mol
# Density = 2.121710 g / cm^3
# Si number density = 21.265497 Si / 1000 Ang^3
#
#
#
# Elastic Constant Matrix: (Units=GPa)
#
#
# Indices 1 2 3 4 5 6 
#
# 1 115.9902 19.1630 39.0666 0.0000 0.0000 0.0000
# 2 19.1630 21.6413 10.6004 0.0000 0.0000 0.0000
# 3 39.0666 10.6004 38.1868 0.0000 0.0000 0.0000
# 4 0.0000 0.0000 0.0000 5.4705 0.0000 0.0000
# 5 0.0000 0.0000 0.0000 0.0000 23.6177 0.0000
# 6 0.0000 0.0000 0.0000 0.0000 0.0000 29.7730
#
#
#
# Elastic Compliance Matrix: (Units=1/GPa)
#
#
# Indices 1 2 3 4 5 6 
#
# 1 0.013827 -0.006151 -0.012438 0.000000 0.000000 0.000000
# 2 -0.006151 0.056216 -0.009312 0.000000 0.000000 0.000000
# 3 -0.012438 -0.009312 0.041497 0.000000 0.000000 0.000000
# 4 0.000000 0.000000 0.000000 0.182798 0.000000 0.000000
# 5 0.000000 0.000000 0.000000 0.000000 0.042341 0.000000
# 6 0.000000 0.000000 0.000000 0.000000 0.000000 0.033587
#
#
# Mechanical properties :
#
#
# Convention : Reuss Voigt Hill
#
# Bulk Modulus (GPa) = 17.94153 34.83093 26.38623
# Shear Modulus (GPa) = 11.24486 18.90480 15.07483
#
# Velocity S-wave (km/s) = 2.30203 2.98483 2.66538
# Velocity P-wave (km/s) = 3.93967 5.31917 4.68052
#
# Compressibility (1/GPa) = 0.05573662
#
# Stress axis : x y z
#
# Youngs Moduli (GPa) = 72.32302 17.78853 24.09837
#
# Poissons Ratio (x) = 0.10942 0.29973
# Poissons Ratio (y) = 0.44486 0.22441
# Poissons Ratio (z) = 0.89955 0.16565
#
# Static dielectric constant tensor:
#      x y z
#    x 1.910990 0.000000 0.000000 
#    y 0.000000 1.781860 0.000000 
#    z 0.000000 0.000000 1.739100 
# 
# From -- ./inp_files/15266.got.cif
#   From: 2010.05.17/outbox.cif.g08.bks.cpg/sg43_8_cif.got.tgz:15266.got - 2010.06.03 19:21:55.
