data_PCOD9370771
_publ_section_title
;
Structure prediction by ZEFSAII (Michael W. Deem and Ramdas Pophale) SiO2 
 PCOD9370771
Probable space group: F D D 2
;
_chemical_formula_sum "Si O2"
_cell_formula_units_Z 96
_cell_length_a 23.357865
_cell_length_b 8.298180
_cell_length_c 22.155207
_cell_angle_alpha 90.000000
_cell_angle_beta 90.000000
_cell_angle_gamma 90.000000
_cell_volume 4294.294327
_symmetry_space_group_name_H-M "F D D 2"
_symmetry_group_IT_number 43
_symmetry_cell_setting 'orthorhombic'
loop_
_space_group_symop_operation_xyz
x,y,z
-x,-y,z
1/4-x,1/4+y,1/4+z
1/4+x,1/4-y,1/4+z
x,1/2+y,1/2+z
-x,1/2-y,1/2+z
1/4-x,3/4+y,3/4+z
1/4+x,3/4-y,3/4+z
1/2+x,y,1/2+z
1/2-x,-y,1/2+z
3/4-x,1/4+y,3/4+z
3/4+x,1/4-y,3/4+z
1/2+x,1/2+y,z
1/2-x,1/2-y,z
3/4-x,3/4+y,1/4+z
3/4+x,3/4-y,1/4+z
loop_
_atom_site_type_symbol
_atom_site_label
_atom_site_fract_x
_atom_site_fract_y
_atom_site_fract_z
Si Si1 0.845547 0.493237 0.785900
Si Si2 0.536148 0.663377 0.254716
Si Si3 0.868058 0.613369 0.017926
Si Si4 0.216599 0.908134 0.407034
Si Si5 0.526309 0.656396 0.859670
Si Si6 0.765987 0.434820 0.228141
O O1 0.897723 0.375870 0.768710
O O2 0.868231 0.671949 0.767683
O O3 0.821650 0.508729 0.854753
O O4 0.788371 0.462615 0.747657
O O5 0.500000 0.500000 0.264854
O O6 0.514471 0.730042 0.189897
O O7 0.513578 0.789367 0.304339
O O8 0.836202 0.639144 0.080412
O O9 0.826475 0.644047 0.961076
O O10 0.925492 0.715519 0.013135
O O11 0.250000 0.750000 0.383233
O O12 0.500000 0.500000 0.889738
O O13 0.529949 0.795955 0.907998
O O14 0.750000 0.250000 0.239770
#
# Coordination Sequence:
#
# PCOD9370771 Si02
#       6
#    16  16  16  16  16  16
#     4  11  23  42  67 105 131 186 231 282 348 425
#     4  11  22  41  70  99 136 186 228 285 351 423
#     4  10  20  39  71  95 130 176 229 278 341 418
#     4  11  23  42  71 103 140 182 238 292 354 420
#     4  11  23  42  65  98 133 176 226 277 343 403
#     4  10  23  41  67  99 131 173 227 277 339 419
#
# _framework density 22.355245
#
# number of rings (size 3 to 8) (size 9 to 14) (size 15 to 20)
#    0.000    1.333    3.333    5.000    4.667    0.000 
#   12.000    0.833    3.667    0.000    0.000    0.000 
#    0.000    0.000    0.000    0.000    0.000    0.000 
#
# Total GULP energy -134054.105128 kJ/mol
# GULP energy per Si atom -5585.587714 kJ/mol
# Density = 2.230436 g / cm^3
# Si number density = 22.355245 Si / 1000 Ang^3
#
#
#
# Elastic Constant Matrix: (Units=GPa)
#
#
# Indices 1 2 3 4 5 6 
#
# 1 187.9392 26.2083 58.9450 0.0000 0.0000 0.0000
# 2 26.2083 43.6519 4.4202 0.0000 0.0000 0.0000
# 3 58.9450 4.4202 96.7085 0.0000 0.0000 0.0000
# 4 0.0000 0.0000 0.0000 -3.0134 0.0000 0.0000
# 5 0.0000 0.0000 0.0000 0.0000 28.5638 0.0000
# 6 0.0000 0.0000 0.0000 0.0000 0.0000 27.8288
#
#
#
# Elastic Compliance Matrix: (Units=1/GPa)
#
#
# Indices 1 2 3 4 5 6 
#
# 1 0.007179 -0.003885 -0.004198 0.000000 0.000000 0.000000
# 2 -0.003885 0.025118 0.001220 0.000000 0.000000 0.000000
# 3 -0.004198 0.001220 0.012844 0.000000 0.000000 0.000000
# 4 0.000000 0.000000 0.000000 -0.331855 0.000000 0.000000
# 5 0.000000 0.000000 0.000000 0.000000 0.035009 0.000000
# 6 0.000000 0.000000 0.000000 0.000000 0.000000 0.035934
#
#
# Mechanical properties :
#
#
# Convention : Reuss Voigt Hill
#
# Bulk Modulus (GPa) = 31.83348 56.38296 44.10822
# Shear Modulus (GPa) = -26.09983 26.59091 0.24554
#
# Velocity S-wave (km/s) = -3.42058 3.45261 0.33178
# Velocity P-wave (km/s) = 1.15316 6.41640 4.46320
#
# Compressibility (1/GPa) = 0.03141347
#
# Stress axis : x y z
#
# Youngs Moduli (GPa) = 139.28626 39.81256 77.86015
#
# Poissons Ratio (x) = 0.15469 0.32689
# Poissons Ratio (y) = 0.54118 -0.09500
# Poissons Ratio (z) = 0.58478 -0.04858
#
# Static dielectric constant tensor:
#      x y z
#    x 1.843620 0.000000 0.000000 
#    y 0.000000 1.824520 0.000000 
#    z 0.000000 0.000000 1.810360 
# 
# From -- ./inp_files/20291.got.cif
#   From: 2010.05.17/outbox.cif.g08.bks.cpg/sg43_11_cif.got.tgz:20291.got - 2010.06.03 19:21:55.
