data_PCOD9370564
_publ_section_title
;
Structure prediction by ZEFSAII (Michael W. Deem and Ramdas Pophale) SiO2 
 PCOD9370564
Probable space group: F D D 2
;
_chemical_formula_sum "Si O2"
_cell_formula_units_Z 120
_cell_length_a 29.256137
_cell_length_b 7.927807
_cell_length_c 22.040831
_cell_angle_alpha 90.000000
_cell_angle_beta 90.000000
_cell_angle_gamma 90.000000
_cell_volume 5112.084389
_symmetry_space_group_name_H-M "F D D 2"
_symmetry_group_IT_number 43
_symmetry_cell_setting 'orthorhombic'
loop_
_space_group_symop_operation_xyz
x,y,z
-x,-y,z
1/4-x,1/4+y,1/4+z
1/4+x,1/4-y,1/4+z
x,1/2+y,1/2+z
-x,1/2-y,1/2+z
1/4-x,3/4+y,3/4+z
1/4+x,3/4-y,3/4+z
1/2+x,y,1/2+z
1/2-x,-y,1/2+z
3/4-x,1/4+y,3/4+z
3/4+x,1/4-y,3/4+z
1/2+x,1/2+y,z
1/2-x,1/2-y,z
3/4-x,3/4+y,1/4+z
3/4+x,3/4-y,1/4+z
loop_
_atom_site_type_symbol
_atom_site_label
_atom_site_fract_x
_atom_site_fract_y
_atom_site_fract_z
Si Si1 0.361541 0.800790 0.995310
Si Si2 0.639010 0.197910 0.343020
Si Si3 0.287658 0.548608 0.454883
Si Si4 0.972371 0.359747 0.807198
Si Si5 0.575891 0.942036 0.288871
Si Si6 0.000000 0.500000 0.492420
Si Si7 0.351851 0.708474 0.707913
Si Si8 0.239390 0.070375 0.824768
O O1 0.383656 0.655982 0.953095
O O2 0.335202 0.942457 0.955637
O O3 0.321821 0.704911 0.032228
O O4 0.392201 0.890556 0.048050
O O5 0.684940 0.086967 0.336646
O O6 0.593017 0.110294 0.318893
O O7 0.624537 0.180344 0.413159
O O8 0.253787 0.446556 0.499901
O O9 0.297587 0.733914 0.482308
O O10 0.266328 0.561057 0.388494
O O11 0.954568 0.180334 0.830112
O O12 0.000000 0.500000 0.844538
O O13 0.622260 0.846714 0.269634
O O14 0.952669 0.459551 0.458389
O O15 0.004890 0.336624 0.535253
O O16 0.250000 0.250000 0.794416
#
# Coordination Sequence:
#
# PCOD9370564 Si02
#       8
#    16  16  16  16  16   8  16  16
#     4   9  21  39  67  99 139 176 231 292 346 433
#     4  11  23  42  68  97 136 189 226 285 369 425
#     4  10  20  35  66 109 131 169 224 304 354 403
#     4   9  17  32  57  91 136 159 212 285 337 394
#     4  10  20  39  62  97 135 170 225 287 350 420
#     4  12  28  44  68  96 142 188 236 290 358 452
#     4  11  23  45  65  94 143 185 229 291 361 434
#     4  12  24  41  71 105 136 177 234 296 355 424
#
# _framework density 23.473792
#
# number of rings (size 3 to 8) (size 9 to 14) (size 15 to 20)
#    0.000    1.600    1.333    4.400    4.667    0.000 
#    7.200    4.000    0.000    0.000    0.000    0.000 
#    0.000    0.000    0.000    0.000    0.000    0.000 
#
# Total GULP energy -167104.755660 kJ/mol
# GULP energy per Si atom -5570.158522 kJ/mol
# Density = 2.342036 g / cm^3
# Si number density = 23.473792 Si / 1000 Ang^3
#
#
#
# Elastic Constant Matrix: (Units=GPa)
#
#
# Indices 1 2 3 4 5 6 
#
# 1 95.3367 19.2970 20.8791 0.0000 0.0000 0.0000
# 2 19.2970 113.8659 15.9049 0.0000 0.0000 0.0000
# 3 20.8791 15.9049 39.3802 0.0000 0.0000 0.0000
# 4 0.0000 0.0000 0.0000 3.6470 0.0000 0.0000
# 5 0.0000 0.0000 0.0000 0.0000 32.7865 0.0000
# 6 0.0000 0.0000 0.0000 0.0000 0.0000 47.9557
#
#
#
# Elastic Compliance Matrix: (Units=1/GPa)
#
#
# Indices 1 2 3 4 5 6 
#
# 1 0.012024 -0.001216 -0.005884 0.000000 0.000000 0.000000
# 2 -0.001216 0.009430 -0.003164 0.000000 0.000000 0.000000
# 3 -0.005884 -0.003164 0.029791 0.000000 0.000000 0.000000
# 4 0.000000 0.000000 0.000000 0.274201 0.000000 0.000000
# 5 0.000000 0.000000 0.000000 0.000000 0.030500 0.000000
# 6 0.000000 0.000000 0.000000 0.000000 0.000000 0.020853
#
#
# Mechanical properties :
#
#
# Convention : Reuss Voigt Hill
#
# Bulk Modulus (GPa) = 32.55475 40.08276 36.31876
# Shear Modulus (GPa) = 12.26795 29.71129 20.98962
#
# Velocity S-wave (km/s) = 2.28858 3.56156 2.99352
# Velocity P-wave (km/s) = 4.56969 5.83314 5.23964
#
# Compressibility (1/GPa) = 0.03071748
#
# Stress axis : x y z
#
# Youngs Moduli (GPa) = 83.16825 106.04149 33.56719
#
# Poissons Ratio (x) = 0.12893 0.19751
# Poissons Ratio (y) = 0.10112 0.10621
# Poissons Ratio (z) = 0.48935 0.33553
#
# Static dielectric constant tensor:
#      x y z
#    x 1.935790 0.000000 0.000000 
#    y 0.000000 2.025700 0.000000 
#    z 0.000000 0.000000 2.024870 
# 
# From -- ./inp_files/23024.got.cif
#   From: 2010.05.17/outbox.cif.g08.bks.cpg/sg43_12_cif.got.tgz:23024.got - 2010.06.03 19:21:55.
