data_PCOD9370004
_publ_section_title
;
Structure prediction by ZEFSAII (Michael W. Deem and Ramdas Pophale) SiO2 
 PCOD9370004
Probable space group: F M M 2
;
_chemical_formula_sum "Si O2"
_cell_formula_units_Z 24
_cell_length_a 9.000000
_cell_length_b 24.000000
_cell_length_c 24.000000
_cell_angle_alpha 90.000000
_cell_angle_beta 90.000000
_cell_angle_gamma 90.000000
_cell_volume 5184.000000
_symmetry_space_group_name_H-M "F M M 2"
_symmetry_group_IT_number 42
_symmetry_cell_setting 'orthorhombic'
loop_
_space_group_symop_operation_xyz
x,y,z
-x,-y,z
-x,y,z
x,-y,z
x,1/2+y,1/2+z
-x,1/2-y,1/2+z
-x,1/2+y,1/2+z
x,1/2-y,1/2+z
1/2+x,y,1/2+z
1/2-x,-y,1/2+z
1/2-x,y,1/2+z
1/2+x,-y,1/2+z
1/2+x,1/2+y,z
1/2-x,1/2-y,z
1/2-x,1/2+y,z
1/2+x,1/2-y,z
loop_
_atom_site_type_symbol
_atom_site_label
_atom_site_fract_x
_atom_site_fract_y
_atom_site_fract_z
Si Si1 0.824509 0.893489 0.858360
Si Si2 0.322685 0.062219 0.961288
Si Si3 0.821078 0.000000 0.783715
Si Si4 0.321549 0.595312 0.587802
Si Si5 0.822380 0.810216 0.761537
Si Si6 0.178053 0.311047 0.650648
Si Si7 0.321718 0.000000 0.662803
O O1 0.742357 0.895712 0.916631
O O2 0.794608 0.841678 0.818756
O O3 0.000000 0.896737 0.868853
O O4 0.783212 0.946550 0.820699
O O5 0.500000 0.061311 0.955739
O O6 0.264253 0.000000 0.948856
O O7 0.290090 0.076423 0.025002
O O8 0.735379 0.000000 0.725875
O O9 0.000000 0.000000 0.773154
O O10 0.500000 0.597038 0.595808
O O11 0.245038 0.653782 0.600493
O O12 0.246979 0.552390 0.630276
O O13 0.750000 0.750000 0.766082
O O14 0.741818 0.837375 0.708185
O O15 0.000000 0.808113 0.751316
O O16 0.250000 0.250000 0.648367
O O17 0.000000 0.309232 0.651311
O O18 0.500000 0.000000 0.660188
#
# Coordination Sequence:
#
# PCOD9370004 Si02
#       7
#    16  16   8  16  16  16   8
#     4  10  21  36  57  83 111 148 190 232 285 341
#     4  10  21  38  59  83 111 151 192 232 288 344
#     4  10  20  35  54  79 113 150 182 228 291 348
#     4  11  22  40  60  82 116 155 193 237 290 347
#     4  10  20  36  58  85 116 154 193 232 286 343
#     4  11  22  38  61  90 118 152 194 238 291 344
#     4  12  24  35  54  87 117 148 190 240 291 346
#
# _framework density 4.6296299999999997
#
# number of rings (size 3 to 8) (size 9 to 14) (size 15 to 20)
#    0.000    1.500    1.667    5.250    0.000    4.667 
#    0.000    0.833    0.000    2.000    0.000    0.000 
#    0.000    0.000    0.000    0.000    0.000    0.000 
#
# Total GULP energy -133974.940163 kJ/mol
# GULP energy per Si atom -5582.289173 kJ/mol
# Density = 0.461909 g / cm^3
# Si number density = 4.629630 Si / 1000 Ang^3
#
#
#
# Elastic Constant Matrix: (Units=GPa)
#
#
# Indices 1 2 3 4 5 6 
#
# 1 78.6237 30.6725 47.1366 0.0000 0.0000 0.0000
# 2 30.6725 61.0150 30.5133 0.0000 0.0000 0.0000
# 3 47.1366 30.5133 83.0575 0.0000 0.0000 0.0000
# 4 0.0000 0.0000 0.0000 12.6031 0.0000 0.0000
# 5 0.0000 0.0000 0.0000 0.0000 30.4230 0.0000
# 6 0.0000 0.0000 0.0000 0.0000 0.0000 30.8314
#
#
#
# Elastic Compliance Matrix: (Units=1/GPa)
#
#
# Indices 1 2 3 4 5 6 
#
# 1 0.020708 -0.005553 -0.009712 0.000000 0.000000 0.000000
# 2 -0.005553 0.021567 -0.004772 0.000000 0.000000 0.000000
# 3 -0.009712 -0.004772 0.019305 0.000000 0.000000 0.000000
# 4 0.000000 0.000000 0.000000 0.079345 0.000000 0.000000
# 5 0.000000 0.000000 0.000000 0.000000 0.032870 0.000000
# 6 0.000000 0.000000 0.000000 0.000000 0.000000 0.032434
#
#
# Mechanical properties :
#
#
# Convention : Reuss Voigt Hill
#
# Bulk Modulus (GPa) = 46.49864 48.81568 47.65716
# Shear Modulus (GPa) = 19.72609 22.39643 21.06126
#
# Velocity S-wave (km/s) = 3.26729 3.48143 3.37606
# Velocity P-wave (km/s) = 6.27673 6.52519 6.40217
#
# Compressibility (1/GPa) = 0.02150601
#
# Stress axis : x y z
#
# Youngs Moduli (GPa) = 48.29142 46.36648 51.80100
#
# Poissons Ratio (x) = 0.25747 0.50309
# Poissons Ratio (y) = 0.26816 0.24719
# Poissons Ratio (z) = 0.46900 0.22126
#
# Static dielectric constant tensor:
#      x y z
#    x 1.608540 0.000000 0.000000 
#    y 0.000000 1.856340 0.000000 
#    z 0.000000 0.000000 1.647530 
# 
# From -- ./inp_files/28107.got.cif
#   From: 2010.05.17/outbox.ucp.g08.bks.cvg/sg42_15_cif.got.tgz:28107.got - 2010.06.11 16:29:10.
