data_PCOD9370918
_publ_section_title
;
Structure prediction by ZEFSAII (Michael W. Deem and Ramdas Pophale) SiO2 
 PCOD9370918
Probable space group: F D D 2
;
_chemical_formula_sum "Si O2"
_cell_formula_units_Z 120
_cell_length_a 17.762694
_cell_length_b 12.305574
_cell_length_c 24.085707
_cell_angle_alpha 90.000000
_cell_angle_beta 90.000000
_cell_angle_gamma 90.000000
_cell_volume 5264.657339
_symmetry_space_group_name_H-M "F D D 2"
_symmetry_group_IT_number 43
_symmetry_cell_setting 'orthorhombic'
loop_
_space_group_symop_operation_xyz
x,y,z
-x,-y,z
1/4-x,1/4+y,1/4+z
1/4+x,1/4-y,1/4+z
x,1/2+y,1/2+z
-x,1/2-y,1/2+z
1/4-x,3/4+y,3/4+z
1/4+x,3/4-y,3/4+z
1/2+x,y,1/2+z
1/2-x,-y,1/2+z
3/4-x,1/4+y,3/4+z
3/4+x,1/4-y,3/4+z
1/2+x,1/2+y,z
1/2-x,1/2-y,z
3/4-x,3/4+y,1/4+z
3/4+x,3/4-y,1/4+z
loop_
_atom_site_type_symbol
_atom_site_label
_atom_site_fract_x
_atom_site_fract_y
_atom_site_fract_z
Si Si1 0.398921 0.768488 0.694940
Si Si2 0.677501 0.035392 0.758490
Si Si3 0.918945 0.385498 0.862133
Si Si4 0.250000 0.250000 0.038346
Si Si5 0.653667 0.924219 0.243273
Si Si6 0.730223 0.489196 0.543084
Si Si7 0.917910 0.958101 0.483845
Si Si8 0.075810 0.065293 0.108010
O O1 0.347332 0.863047 0.720953
O O2 0.357295 0.653463 0.690415
O O3 0.468003 0.751693 0.737606
O O4 0.425895 0.819133 0.637581
O O5 0.642097 0.068744 0.818112
O O6 0.766784 0.018276 0.748671
O O7 0.646802 0.917162 0.745690
O O8 0.919358 0.461062 0.916260
O O9 0.888652 0.266656 0.879255
O O10 0.995547 0.344410 0.830551
O O11 0.172500 0.241178 0.003036
O O12 0.252813 0.131858 0.068038
O O13 0.660841 0.836816 0.293538
O O14 0.646107 0.484190 0.519749
O O15 0.000000 0.000000 0.501789
O O16 0.000000 0.000000 0.117634
#
# Coordination Sequence:
#
# PCOD9370918 Si02
#       8
#    16  16  16   8  16  16  16  16
#     4  10  21  35  62  98 127 167 215 283 341 403
#     4  11  22  40  66  93 138 173 218 294 348 403
#     4  11  23  42  69 107 132 178 232 296 349 414
#     4  10  20  42  68  82 132 184 218 280 346 410
#     4  11  21  40  61  95 132 176 218 279 345 412
#     4  10  23  43  67  97 136 178 231 286 354 413
#     4  12  27  44  68  99 139 188 232 278 356 430
#     4  12  19  37  64  96 131 164 227 284 342 410
#
# _framework density 22.793506000000001
#
# number of rings (size 3 to 8) (size 9 to 14) (size 15 to 20)
#    0.000    1.067    6.667    2.000    1.867    1.067 
#    4.800    0.000    1.467    0.000    0.000    0.000 
#    0.000    0.000    0.000    0.000    0.000    0.000 
#
# Total GULP energy -167222.538946 kJ/mol
# GULP energy per Si atom -5574.084632 kJ/mol
# Density = 2.274163 g / cm^3
# Si number density = 22.793506 Si / 1000 Ang^3
#
#
#
# Elastic Constant Matrix: (Units=GPa)
#
#
# Indices 1 2 3 4 5 6 
#
# 1 116.0225 1.0821 20.5354 0.0000 0.0000 0.0000
# 2 1.0821 67.6333 13.6279 0.0000 0.0000 0.0000
# 3 20.5354 13.6279 50.6067 0.0000 0.0000 0.0000
# 4 0.0000 0.0000 0.0000 25.8438 0.0000 0.0000
# 5 0.0000 0.0000 0.0000 0.0000 5.5181 0.0000
# 6 0.0000 0.0000 0.0000 0.0000 0.0000 35.1068
#
#
#
# Elastic Compliance Matrix: (Units=1/GPa)
#
#
# Indices 1 2 3 4 5 6 
#
# 1 0.009313 0.000648 -0.003953 0.000000 0.000000 0.000000
# 2 0.000648 0.015679 -0.004485 0.000000 0.000000 0.000000
# 3 -0.003953 -0.004485 0.022572 0.000000 0.000000 0.000000
# 4 0.000000 0.000000 0.000000 0.038694 0.000000 0.000000
# 5 0.000000 0.000000 0.000000 0.000000 0.181222 0.000000
# 6 0.000000 0.000000 0.000000 0.000000 0.000000 0.028485
#
#
# Mechanical properties :
#
#
# Convention : Reuss Voigt Hill
#
# Bulk Modulus (GPa) = 31.26719 33.86147 32.56433
# Shear Modulus (GPa) = 15.51799 26.56155 21.03977
#
# Velocity S-wave (km/s) = 2.61206 3.41737 3.04149
# Velocity P-wave (km/s) = 4.77959 5.51899 5.16254
#
# Compressibility (1/GPa) = 0.03198241
#
# Stress axis : x y z
#
# Youngs Moduli (GPa) = 107.38022 63.77972 44.30232
#
# Poissons Ratio (x) = -0.04130 0.17514
# Poissons Ratio (y) = -0.06954 0.19869
# Poissons Ratio (z) = 0.42451 0.28605
#
# Static dielectric constant tensor:
#      x y z
#    x 1.929740 0.000000 0.000000 
#    y 0.000000 1.851640 0.000000 
#    z 0.000000 0.000000 1.887560 
# 
# From -- ./inp_files/26089.got.cif
#   From: 2010.05.17/outbox.cif.g08.bks.cpg/sg43_14_cif.got.tgz:26089.got - 2010.06.03 19:21:55.
