data_PCOD9370141
_publ_section_title
;
Structure prediction by ZEFSAII (Michael W. Deem and Ramdas Pophale) SiO2 
 PCOD9370141
Probable space group: F D D 2
;
_chemical_formula_sum "Si O2"
_cell_formula_units_Z 96
_cell_length_a 10.071929
_cell_length_b 22.395556
_cell_length_c 16.595074
_cell_angle_alpha 90.000000
_cell_angle_beta 90.000000
_cell_angle_gamma 90.000000
_cell_volume 3743.291929
_symmetry_space_group_name_H-M "F D D 2"
_symmetry_group_IT_number 43
_symmetry_cell_setting 'orthorhombic'
loop_
_space_group_symop_operation_xyz
x,y,z
-x,-y,z
1/4-x,1/4+y,1/4+z
1/4+x,1/4-y,1/4+z
x,1/2+y,1/2+z
-x,1/2-y,1/2+z
1/4-x,3/4+y,3/4+z
1/4+x,3/4-y,3/4+z
1/2+x,y,1/2+z
1/2-x,-y,1/2+z
3/4-x,1/4+y,3/4+z
3/4+x,1/4-y,3/4+z
1/2+x,1/2+y,z
1/2-x,1/2-y,z
3/4-x,3/4+y,1/4+z
3/4+x,3/4-y,1/4+z
loop_
_atom_site_type_symbol
_atom_site_label
_atom_site_fract_x
_atom_site_fract_y
_atom_site_fract_z
Si Si1 0.452168 0.196308 0.455530
Si Si2 0.936565 0.853246 0.115235
Si Si3 0.295892 0.087314 0.683346
Si Si4 0.500000 0.000000 0.811105
Si Si5 0.250000 0.750000 0.326448
Si Si6 0.726816 0.492485 0.444556
Si Si7 0.979053 0.372468 0.120507
O O1 0.429306 0.150289 0.383116
O O2 0.549502 0.173145 0.525630
O O3 0.307257 0.199653 0.501836
O O4 0.462018 0.176947 0.181323
O O5 0.075278 0.885517 0.139465
O O6 0.925669 0.797043 0.176698
O O7 0.282703 0.015339 0.679579
O O8 0.174744 0.119582 0.640616
O O9 0.268357 0.104549 0.776687
O O10 0.375779 0.008302 0.869099
O O11 0.120287 0.755578 0.268983
O O12 0.221443 0.690564 0.376741
#
# Coordination Sequence:
#
# PCOD9370141 Si02
#       7
#    16  16  16   8   8  16  16
#     4  11  21  33  54  90 126 160 205 258 318 366
#     4  11  19  31  57  87 124 160 201 262 310 369
#     4  12  21  34  59  92 128 156 208 268 313 368
#     4   9  14  28  44  80 120 139 184 254 302 341
#     4  11  22  34  58  90 118 153 208 256 322 377
#     4  10  18  30  53  86 116 151 196 253 304 360
#     4  12  21  36  59  91 124 159 206 266 318 372
#
# _framework density 25.645875
#
# number of rings (size 3 to 8) (size 9 to 14) (size 15 to 20)
#    0.000    1.000    8.333    3.000    0.000    0.000 
#    0.000    0.000    3.667    0.000    0.000    0.000 
#    0.000    0.000    0.000    0.000    0.000    0.000 
#
# Total GULP energy -134194.834515 kJ/mol
# GULP energy per Si atom -5591.451438 kJ/mol
# Density = 2.558750 g / cm^3
# Si number density = 25.645875 Si / 1000 Ang^3
#
#
#
# Elastic Constant Matrix: (Units=GPa)
#
#
# Indices 1 2 3 4 5 6 
#
# 1 25.1575 21.0223 12.7507 0.0000 0.0000 0.0000
# 2 21.0223 230.1307 47.7903 0.0000 0.0000 0.0000
# 3 12.7507 47.7903 96.9184 0.0000 0.0000 0.0000
# 4 0.0000 0.0000 0.0000 53.2871 0.0000 0.0000
# 5 0.0000 0.0000 0.0000 0.0000 28.2612 0.0000
# 6 0.0000 0.0000 0.0000 0.0000 0.0000 42.9747
#
#
#
# Elastic Compliance Matrix: (Units=1/GPa)
#
#
# Indices 1 2 3 4 5 6 
#
# 1 0.044585 -0.003180 -0.004297 0.000000 0.000000 0.000000
# 2 -0.003180 0.005068 -0.002081 0.000000 0.000000 0.000000
# 3 -0.004297 -0.002081 0.011909 0.000000 0.000000 0.000000
# 4 0.000000 0.000000 0.000000 0.018766 0.000000 0.000000
# 5 0.000000 0.000000 0.000000 0.000000 0.035384 0.000000
# 6 0.000000 0.000000 0.000000 0.000000 0.000000 0.023269
#
#
# Mechanical properties :
#
#
# Convention : Reuss Voigt Hill
#
# Bulk Modulus (GPa) = 23.55954 57.25924 40.40939
# Shear Modulus (GPa) = 29.02795 42.94750 35.98772
#
# Velocity S-wave (km/s) = 3.36799 4.09667 3.75007
# Velocity P-wave (km/s) = 4.93263 6.68972 5.87721
#
# Compressibility (1/GPa) = 0.04244565
#
# Stress axis : x y z
#
# Youngs Moduli (GPa) = 22.42894 197.31843 83.96831
#
# Poissons Ratio (x) = 0.62755 0.36085
# Poissons Ratio (y) = 0.07133 0.17470
# Poissons Ratio (z) = 0.09639 0.41054
#
# Static dielectric constant tensor:
#      x y z
#    x 2.091970 0.000000 0.000000 
#    y 0.000000 2.194140 0.000000 
#    z 0.000000 0.000000 1.985170 
# 
# From -- ./inp_files/6285.got.cif
#   From: 2010.05.17/outbox.cif.g08.bks.cpg/sg43_4_cif.got.tgz:6285.got - 2010.06.03 19:21:55.
