data_PCOD9370288
_publ_section_title
;
Structure prediction by ZEFSAII (Michael W. Deem and Ramdas Pophale) SiO2 
 PCOD9370288
Probable space group: F D D 2
;
_chemical_formula_sum "Si O2"
_cell_formula_units_Z 96
_cell_length_a 21.025364
_cell_length_b 9.189076
_cell_length_c 23.111432
_cell_angle_alpha 90.000000
_cell_angle_beta 90.000000
_cell_angle_gamma 90.000000
_cell_volume 4465.213429
_symmetry_space_group_name_H-M "F D D 2"
_symmetry_group_IT_number 43
_symmetry_cell_setting 'orthorhombic'
loop_
_space_group_symop_operation_xyz
x,y,z
-x,-y,z
1/4-x,1/4+y,1/4+z
1/4+x,1/4-y,1/4+z
x,1/2+y,1/2+z
-x,1/2-y,1/2+z
1/4-x,3/4+y,3/4+z
1/4+x,3/4-y,3/4+z
1/2+x,y,1/2+z
1/2-x,-y,1/2+z
3/4-x,1/4+y,3/4+z
3/4+x,1/4-y,3/4+z
1/2+x,1/2+y,z
1/2-x,1/2-y,z
3/4-x,3/4+y,1/4+z
3/4+x,3/4-y,1/4+z
loop_
_atom_site_type_symbol
_atom_site_label
_atom_site_fract_x
_atom_site_fract_y
_atom_site_fract_z
Si Si1 0.250000 0.750000 0.794180
Si Si2 0.152995 0.737207 0.254933
Si Si3 0.936438 0.408286 0.324957
Si Si4 0.403613 0.191913 0.465768
Si Si5 0.936485 0.284202 0.636449
Si Si6 0.750000 0.250000 0.360856
Si Si7 0.734272 0.598112 0.649652
O O1 0.303722 0.831690 0.755048
O O2 0.280477 0.631901 0.837252
O O3 0.092511 0.635524 0.263648
O O4 0.192010 0.752421 0.314814
O O5 0.196449 0.655715 0.206823
O O6 0.135208 0.902735 0.242492
O O7 0.881340 0.491192 0.358926
O O8 0.945788 0.259225 0.359846
O O9 0.000000 0.500000 0.322280
O O10 0.339282 0.118270 0.442533
O O11 0.454301 0.254043 0.418382
O O12 0.982495 0.145536 0.645964
O O13 0.750000 0.750000 0.618738
#
# Coordination Sequence:
#
# PCOD9370288 Si02
#       7
#     8  16  16  16  16   8  16
#     4  12  24  44  74  97 139 184 234 288 336 416
#     4  10  20  39  68  92 139 183 217 278 357 408
#     4  11  22  41  67 102 134 170 228 287 341 407
#     4  11  20  40  68 101 127 180 236 276 344 406
#     4  11  24  40  72  99 135 181 234 284 343 418
#     4  10  18  42  60  95 133 178 218 284 344 402
#     4  10  20  40  68  94 127 178 232 265 334 425
#
# _framework density 21.499533
#
# number of rings (size 3 to 8) (size 9 to 14) (size 15 to 20)
#    0.000    1.333    5.833    2.000    0.000    2.667 
#    0.000    3.333    3.667    0.000    0.000    0.000 
#    0.000    0.000    0.000    0.000    0.000    0.000 
#
# Total GULP energy -133814.715048 kJ/mol
# GULP energy per Si atom -5575.613127 kJ/mol
# Density = 2.145060 g / cm^3
# Si number density = 21.499533 Si / 1000 Ang^3
#
#
#
# Elastic Constant Matrix: (Units=GPa)
#
#
# Indices 1 2 3 4 5 6 
#
# 1 68.2441 38.2680 12.4567 0.0000 0.0000 0.0000
# 2 38.2680 110.2747 12.9890 0.0000 0.0000 0.0000
# 3 12.4567 12.9890 18.9378 0.0000 0.0000 0.0000
# 4 0.0000 0.0000 0.0000 21.9398 0.0000 0.0000
# 5 0.0000 0.0000 0.0000 0.0000 27.3383 0.0000
# 6 0.0000 0.0000 0.0000 0.0000 0.0000 43.1351
#
#
#
# Elastic Compliance Matrix: (Units=1/GPa)
#
#
# Indices 1 2 3 4 5 6 
#
# 1 0.019480 -0.005712 -0.008896 0.000000 0.000000 0.000000
# 2 -0.005712 0.011540 -0.004158 0.000000 0.000000 0.000000
# 3 -0.008896 -0.004158 0.061508 0.000000 0.000000 0.000000
# 4 0.000000 0.000000 0.000000 0.045579 0.000000 0.000000
# 5 0.000000 0.000000 0.000000 0.000000 0.036579 0.000000
# 6 0.000000 0.000000 0.000000 0.000000 0.000000 0.023183
#
#
# Mechanical properties :
#
#
# Convention : Reuss Voigt Hill
#
# Bulk Modulus (GPa) = 18.18292 36.09822 27.14057
# Shear Modulus (GPa) = 19.70578 27.39884 23.55231
#
# Velocity S-wave (km/s) = 3.03077 3.57374 3.31339
# Velocity P-wave (km/s) = 4.55227 5.81855 5.22392
#
# Compressibility (1/GPa) = 0.05499666
#
# Stress axis : x y z
#
# Youngs Moduli (GPa) = 51.33429 86.65275 16.25816
#
# Poissons Ratio (x) = 0.49499 0.14462
# Poissons Ratio (y) = 0.29324 0.06760
# Poissons Ratio (z) = 0.45664 0.36029
#
# Static dielectric constant tensor:
#      x y z
#    x 1.783420 0.000000 0.000000 
#    y 0.000000 1.811900 0.000000 
#    z 0.000000 0.000000 1.853850 
# 
# From -- ./inp_files/22603.got.cif
#   From: 2010.05.17/outbox.cif.g08.bks.cpg/sg43_12_cif.got.tgz:22603.got - 2010.06.03 19:21:55.
