data_PCOD9370310
_publ_section_title
;
Structure prediction by ZEFSAII (Michael W. Deem and Ramdas Pophale) SiO2 
 PCOD9370310
Probable space group: F D D 2
;
_chemical_formula_sum "Si O2"
_cell_formula_units_Z 128
_cell_length_a 12.801973
_cell_length_b 22.248464
_cell_length_c 24.551239
_cell_angle_alpha 90.000000
_cell_angle_beta 90.000000
_cell_angle_gamma 90.000000
_cell_volume 6992.787877
_symmetry_space_group_name_H-M "F D D 2"
_symmetry_group_IT_number 43
_symmetry_cell_setting 'orthorhombic'
loop_
_space_group_symop_operation_xyz
x,y,z
-x,-y,z
1/4-x,1/4+y,1/4+z
1/4+x,1/4-y,1/4+z
x,1/2+y,1/2+z
-x,1/2-y,1/2+z
1/4-x,3/4+y,3/4+z
1/4+x,3/4-y,3/4+z
1/2+x,y,1/2+z
1/2-x,-y,1/2+z
3/4-x,1/4+y,3/4+z
3/4+x,1/4-y,3/4+z
1/2+x,1/2+y,z
1/2-x,1/2-y,z
3/4-x,3/4+y,1/4+z
3/4+x,3/4-y,1/4+z
loop_
_atom_site_type_symbol
_atom_site_label
_atom_site_fract_x
_atom_site_fract_y
_atom_site_fract_z
Si Si1 0.295206 0.091139 0.026400
Si Si2 0.525647 0.429051 0.683391
Si Si3 0.123048 0.512691 0.743139
Si Si4 0.252680 0.045703 0.138278
Si Si5 0.983661 0.362690 0.007207
Si Si6 0.672462 0.306969 0.100443
Si Si7 0.316207 0.910106 0.134297
Si Si8 0.881663 0.474068 0.968957
O O1 0.231985 0.079593 0.081833
O O2 0.242666 0.139427 0.986806
O O3 0.412485 0.116636 0.039093
O O4 0.313534 0.027937 0.993823
O O5 0.500000 0.500000 0.693049
O O6 0.643445 0.425539 0.663877
O O7 0.441117 0.406395 0.638575
O O8 0.169844 0.537330 0.686698
O O9 0.180491 0.451794 0.763960
O O10 0.139060 0.557072 0.794059
O O11 0.000000 0.500000 0.734574
O O12 0.285184 0.977889 0.121901
O O13 0.896740 0.415200 0.006386
O O14 0.029223 0.356516 0.945701
O O15 0.750000 0.250000 0.098319
O O16 0.749040 0.363527 0.100888
O O17 0.608974 0.297772 0.156981
O O18 0.000000 0.500000 0.966732
#
# Coordination Sequence:
#
# PCOD9370310 Si02
#       8
#    16  16  16  16  16  16  16  16
#     4  10  19  31  53  80 110 140 177 226 264 314
#     4   9  18  34  54  76 104 136 173 219 274 327
#     4  10  21  35  52  75 105 144 181 214 261 325
#     4  10  21  35  52  75 104 143 183 211 258 324
#     4   8  16  31  49  76 108 135 169 216 273 319
#     4   9  16  28  50  77 107 134 167 218 271 319
#     4   8  16  32  51  75 104 132 168 219 273 319
#     4   8  15  28  48  80 109 130 164 217 276 313
#
# _framework density 18.304573999999999
#
# number of rings (size 3 to 8) (size 9 to 14) (size 15 to 20)
#    0.000    3.000    0.000    3.000    0.000    9.500 
#    0.000    3.750    0.000    1.500    0.000    0.000 
#    0.000    0.000    0.000    0.000    0.000    0.000 
#
# Total GULP energy -178177.813708 kJ/mol
# GULP energy per Si atom -5568.056678 kJ/mol
# Density = 1.826291 g / cm^3
# Si number density = 18.304574 Si / 1000 Ang^3
#
#
#
# Elastic Constant Matrix: (Units=GPa)
#
#
# Indices 1 2 3 4 5 6 
#
# 1 54.3719 27.6726 33.1657 0.0000 0.0000 0.0000
# 2 27.6726 78.4455 40.8567 0.0000 0.0000 0.0000
# 3 33.1657 40.8567 110.0670 0.0000 0.0000 0.0000
# 4 0.0000 0.0000 0.0000 16.9302 0.0000 0.0000
# 5 0.0000 0.0000 0.0000 0.0000 25.9724 0.0000
# 6 0.0000 0.0000 0.0000 0.0000 0.0000 23.6642
#
#
#
# Elastic Compliance Matrix: (Units=1/GPa)
#
#
# Indices 1 2 3 4 5 6 
#
# 1 0.024601 -0.005972 -0.005196 0.000000 0.000000 0.000000
# 2 -0.005972 0.017253 -0.004605 0.000000 0.000000 0.000000
# 3 -0.005196 -0.004605 0.012360 0.000000 0.000000 0.000000
# 4 0.000000 0.000000 0.000000 0.059066 0.000000 0.000000
# 5 0.000000 0.000000 0.000000 0.000000 0.038502 0.000000
# 6 0.000000 0.000000 0.000000 0.000000 0.000000 0.042258
#
#
# Mechanical properties :
#
#
# Convention : Reuss Voigt Hill
#
# Bulk Modulus (GPa) = 44.11423 49.58604 46.85014
# Shear Modulus (GPa) = 21.44621 22.72598 22.08609
#
# Velocity S-wave (km/s) = 3.42662 3.52738 3.47737
# Velocity P-wave (km/s) = 6.30937 6.61348 6.46321
#
# Compressibility (1/GPa) = 0.02266842
#
# Stress axis : x y z
#
# Youngs Moduli (GPa) = 40.64918 57.96216 80.90428
#
# Poissons Ratio (x) = 0.34615 0.42038
# Poissons Ratio (y) = 0.24276 0.37254
# Poissons Ratio (z) = 0.21121 0.26690
#
# Static dielectric constant tensor:
#      x y z
#    x 1.637490 0.000000 0.000000 
#    y 0.000000 1.682900 0.000000 
#    z 0.000000 0.000000 1.723180 
# 
# From -- ./inp_files/25328.got.cif
#   From: 2010.05.17/outbox.cif.g08.bks.cpg/sg43_13_cif.got.tgz:25328.got - 2010.06.03 19:21:55.
