data_PCOD9370637
_publ_section_title
;
Structure prediction by ZEFSAII (Michael W. Deem and Ramdas Pophale) SiO2 
 PCOD9370637
Probable space group: F D D 2
;
_chemical_formula_sum "Si O2"
_cell_formula_units_Z 120
_cell_length_a 17.707287
_cell_length_b 12.603525
_cell_length_c 23.861230
_cell_angle_alpha 90.000000
_cell_angle_beta 90.000000
_cell_angle_gamma 90.000000
_cell_volume 5325.211737
_symmetry_space_group_name_H-M "F D D 2"
_symmetry_group_IT_number 43
_symmetry_cell_setting 'orthorhombic'
loop_
_space_group_symop_operation_xyz
x,y,z
-x,-y,z
1/4-x,1/4+y,1/4+z
1/4+x,1/4-y,1/4+z
x,1/2+y,1/2+z
-x,1/2-y,1/2+z
1/4-x,3/4+y,3/4+z
1/4+x,3/4-y,3/4+z
1/2+x,y,1/2+z
1/2-x,-y,1/2+z
3/4-x,1/4+y,3/4+z
3/4+x,1/4-y,3/4+z
1/2+x,1/2+y,z
1/2-x,1/2-y,z
3/4-x,3/4+y,1/4+z
3/4+x,3/4-y,1/4+z
loop_
_atom_site_type_symbol
_atom_site_label
_atom_site_fract_x
_atom_site_fract_y
_atom_site_fract_z
Si Si1 0.378703 0.543880 0.313390
Si Si2 0.564064 0.731797 0.837373
Si Si3 0.783650 0.630964 0.711524
Si Si4 0.088042 0.682382 0.838110
Si Si5 0.607399 0.798527 0.025553
Si Si6 0.568564 0.929985 0.182078
Si Si7 0.000000 0.000000 0.117582
Si Si8 0.517840 0.229133 0.633997
O O1 0.425269 0.640711 0.339074
O O2 0.344667 0.599534 0.258479
O O3 0.416582 0.429092 0.304083
O O4 0.311450 0.516436 0.357160
O O5 0.474385 0.726831 0.828576
O O6 0.606566 0.662664 0.790324
O O7 0.607543 0.690455 0.892754
O O8 0.750000 0.750000 0.710584
O O9 0.820447 0.601297 0.652529
O O10 0.712113 0.564197 0.733197
O O11 0.173685 0.725239 0.832915
O O12 0.575797 0.746552 0.082318
O O13 0.665144 0.726387 0.992399
O O14 0.541761 0.809498 0.181823
O O15 0.500000 0.000000 0.155505
O O16 0.985369 0.892459 0.151233
#
# Coordination Sequence:
#
# PCOD9370637 Si02
#       8
#    16  16  16  16  16  16   8  16
#     4  10  20  37  64  98 131 185 223 283 345 404
#     4  11  20  38  64 100 137 173 227 286 344 412
#     4  11  20  38  63  96 140 176 227 290 349 410
#     4  11  24  41  67  93 140 191 234 281 351 420
#     4  10  22  35  63 103 131 177 224 285 350 415
#     4  11  21  37  64 101 133 169 220 281 351 406
#     4  10  24  48  64  88 130 190 230 280 350 412
#     4   9  21  41  66  88 134 176 227 282 341 411
#
# _framework density 22.534314999999999
#
# number of rings (size 3 to 8) (size 9 to 14) (size 15 to 20)
#    0.000    1.600    4.000    1.200    0.000    1.067 
#    2.400    6.000    0.000    0.000    0.000    0.000 
#    0.000    0.000    0.000    0.000    0.000    0.000 
#
# Total GULP energy -167442.036250 kJ/mol
# GULP energy per Si atom -5581.401208 kJ/mol
# Density = 2.248303 g / cm^3
# Si number density = 22.534315 Si / 1000 Ang^3
#
#
#
# Elastic Constant Matrix: (Units=GPa)
#
#
# Indices 1 2 3 4 5 6 
#
# 1 107.7165 31.8585 19.6903 0.0000 0.0000 0.0000
# 2 31.8585 138.0660 15.2920 0.0000 0.0000 0.0000
# 3 19.6903 15.2920 57.1815 0.0000 0.0000 0.0000
# 4 0.0000 0.0000 0.0000 16.6461 0.0000 0.0000
# 5 0.0000 0.0000 0.0000 0.0000 6.6928 0.0000
# 6 0.0000 0.0000 0.0000 0.0000 0.0000 39.4662
#
#
#
# Elastic Compliance Matrix: (Units=1/GPa)
#
#
# Indices 1 2 3 4 5 6 
#
# 1 0.010454 -0.002075 -0.003045 0.000000 0.000000 0.000000
# 2 -0.002075 0.007876 -0.001392 0.000000 0.000000 0.000000
# 3 -0.003045 -0.001392 0.018909 0.000000 0.000000 0.000000
# 4 0.000000 0.000000 0.000000 0.060074 0.000000 0.000000
# 5 0.000000 0.000000 0.000000 0.000000 0.149415 0.000000
# 6 0.000000 0.000000 0.000000 0.000000 0.000000 0.025338
#
#
# Mechanical properties :
#
#
# Convention : Reuss Voigt Hill
#
# Bulk Modulus (GPa) = 41.29588 48.51618 44.90603
# Shear Modulus (GPa) = 17.05547 28.30255 22.67901
#
# Velocity S-wave (km/s) = 2.75411 3.54782 3.17586
# Velocity P-wave (km/s) = 5.33657 6.19349 5.78093
#
# Compressibility (1/GPa) = 0.02421549
#
# Stress axis : x y z
#
# Youngs Moduli (GPa) = 95.65783 126.97034 52.88529
#
# Poissons Ratio (x) = 0.26346 0.16103
# Poissons Ratio (y) = 0.19849 0.07360
# Poissons Ratio (z) = 0.29127 0.17671
#
# Static dielectric constant tensor:
#      x y z
#    x 1.952940 0.000000 0.000000 
#    y 0.000000 1.836040 0.000000 
#    z 0.000000 0.000000 1.818200 
# 
# From -- ./inp_files/25703.got.cif
#   From: 2010.05.17/outbox.cif.g08.bks.cpg/sg43_13_cif.got.tgz:25703.got - 2010.06.03 19:21:55.
