data_PCOD9370018
_publ_section_title
;
Structure prediction by ZEFSAII (Michael W. Deem and Ramdas Pophale) SiO2 
 PCOD9370018
Probable space group: F M M 2
;
_chemical_formula_sum "Si O2"
_cell_formula_units_Z 28
_cell_length_a 24.000000
_cell_length_b 15.000000
_cell_length_c 15.000000
_cell_angle_alpha 90.000000
_cell_angle_beta 90.000000
_cell_angle_gamma 90.000000
_cell_volume 5400.000000
_symmetry_space_group_name_H-M "F M M 2"
_symmetry_group_IT_number 42
_symmetry_cell_setting 'orthorhombic'
loop_
_space_group_symop_operation_xyz
x,y,z
-x,-y,z
-x,y,z
x,-y,z
x,1/2+y,1/2+z
-x,1/2-y,1/2+z
-x,1/2+y,1/2+z
x,1/2-y,1/2+z
1/2+x,y,1/2+z
1/2-x,-y,1/2+z
1/2-x,y,1/2+z
1/2+x,-y,1/2+z
1/2+x,1/2+y,z
1/2-x,1/2-y,z
1/2-x,1/2+y,z
1/2+x,1/2-y,z
loop_
_atom_site_type_symbol
_atom_site_label
_atom_site_fract_x
_atom_site_fract_y
_atom_site_fract_z
Si Si1 0.146201 0.593597 0.219280
Si Si2 0.825364 0.901516 0.437761
Si Si3 0.748935 0.144236 0.101449
Si Si4 0.876827 0.101561 0.136116
Si Si5 0.061738 0.810431 0.977670
Si Si6 0.878905 0.226842 0.305792
Si Si7 0.435389 0.121732 0.059890
O O1 0.143610 0.500000 0.269346
O O2 0.201324 0.597563 0.159548
O O3 0.148219 0.682211 0.274712
O O4 0.091747 0.599666 0.155104
O O5 0.775448 0.871817 0.502309
O O6 0.835631 0.834173 0.358455
O O7 0.885134 0.904909 0.491694
O O8 0.813857 0.000000 0.404100
O O9 0.750000 0.250000 0.117296
O O10 0.810163 0.110277 0.124242
O O11 0.895661 0.168988 0.217215
O O12 0.891873 0.000000 0.160372
O O13 0.900252 0.124063 0.036644
O O14 0.078955 0.764557 0.882968
O O15 0.000000 0.848511 0.967024
O O16 0.061032 0.726600 0.044777
O O17 0.500000 0.091258 0.047772
#
# Coordination Sequence:
#
# PCOD9370018 Si02
#       7
#    16  16  16  16  16  16  16
#     4  11  22  38  62  93 128 170 225 279 332 399
#     4  10  21  38  62  95 134 173 219 278 342 409
#     4  11  20  42  68  94 136 178 220 280 345 415
#     4  12  24  44  73 104 139 184 237 290 356 426
#     4  10  23  44  68  96 137 180 223 282 351 418
#     4  11  23  43  65  99 133 183 230 284 341 413
#     4   9  17  35  63  92 123 165 217 275 340 402
#
# _framework density 5.1851849999999997
#
# number of rings (size 3 to 8) (size 9 to 14) (size 15 to 20)
#    0.000    1.429    2.857    4.714    0.000    3.143 
#    7.714    0.000    0.000    2.571    0.000    0.000 
#    0.000    0.000    0.000    0.000    0.000    0.000 
#
# Total GULP energy -155918.431523 kJ/mol
# GULP energy per Si atom -5568.515412 kJ/mol
# Density = 0.517338 g / cm^3
# Si number density = 5.185185 Si / 1000 Ang^3
#
#
#
# Elastic Constant Matrix: (Units=GPa)
#
#
# Indices 1 2 3 4 5 6 
#
# 1 84.0400 23.5466 40.6241 0.0000 0.0000 0.0000
# 2 23.5466 140.7492 26.3173 0.0000 0.0000 0.0000
# 3 40.6241 26.3173 80.1022 0.0000 0.0000 0.0000
# 4 0.0000 0.0000 0.0000-2253.8246 0.0000 0.0000
# 5 0.0000 0.0000 0.0000 0.0000 11.4400 0.0000
# 6 0.0000 0.0000 0.0000 0.0000 0.0000 -40.3974
#
#
#
# Elastic Compliance Matrix: (Units=1/GPa)
#
#
# Indices 1 2 3 4 5 6 
#
# 1 0.015962 -0.001232 -0.007690 0.000000 0.000000 0.000000
# 2 -0.001232 0.007665 -0.001893 0.000000 0.000000 0.000000
# 3 -0.007690 -0.001893 0.017006 0.000000 0.000000 0.000000
# 4 0.000000 0.000000 0.000000 -0.000444 0.000000 0.000000
# 5 0.000000 0.000000 0.000000 0.000000 0.087413 0.000000
# 6 0.000000 0.000000 0.000000 0.000000 0.000000 -0.024754
#
#
# Mechanical properties :
#
#
# Convention : Reuss Voigt Hill
#
# Bulk Modulus (GPa) = 52.62819 53.98527 53.30673
# Shear Modulus (GPa) = 38.22240 -442.26285 -202.02023
#
# Velocity S-wave (km/s) = 4.29752 -14.61837 -9.87998
# Velocity P-wave (km/s) = 7.07490 16.08863 10.21738
#
# Compressibility (1/GPa) = 0.01900122
#
# Stress axis : x y z
#
# Youngs Moduli (GPa) = 62.64984 130.46286 58.80218
#
# Poissons Ratio (x) = 0.16078 0.45220
# Poissons Ratio (y) = 0.07721 0.11133
# Poissons Ratio (z) = 0.48179 0.24700
#
# Static dielectric constant tensor:
#      x y z
#    x 1.736190 0.000000 0.000000 
#    y 0.000000 2.946130 0.000000 
#    z 0.000000 0.000000 1.793190 
# 
# From -- ./inp_files/16552.got.cif
#   From: 2010.05.17/outbox.ucp.g08.bks.cvg/sg42_9_cif.got.tgz:16552.got - 2010.06.11 16:29:10.
