data_PCOD9370944
_publ_section_title
;
Structure prediction by ZEFSAII (Michael W. Deem and Ramdas Pophale) SiO2 
 PCOD9370944
Probable space group: F D D 2
;
_chemical_formula_sum "Si O2"
_cell_formula_units_Z 112
_cell_length_a 14.609633
_cell_length_b 13.456930
_cell_length_c 22.902925
_cell_angle_alpha 90.000000
_cell_angle_beta 90.000000
_cell_angle_gamma 90.000000
_cell_volume 4502.733574
_symmetry_space_group_name_H-M "F D D 2"
_symmetry_group_IT_number 43
_symmetry_cell_setting 'orthorhombic'
loop_
_space_group_symop_operation_xyz
x,y,z
-x,-y,z
1/4-x,1/4+y,1/4+z
1/4+x,1/4-y,1/4+z
x,1/2+y,1/2+z
-x,1/2-y,1/2+z
1/4-x,3/4+y,3/4+z
1/4+x,3/4-y,3/4+z
1/2+x,y,1/2+z
1/2-x,-y,1/2+z
3/4-x,1/4+y,3/4+z
3/4+x,1/4-y,3/4+z
1/2+x,1/2+y,z
1/2-x,1/2-y,z
3/4-x,3/4+y,1/4+z
3/4+x,3/4-y,1/4+z
loop_
_atom_site_type_symbol
_atom_site_label
_atom_site_fract_x
_atom_site_fract_y
_atom_site_fract_z
Si Si1 0.769214 0.857091 0.072440
Si Si2 0.334010 0.676899 0.758537
Si Si3 0.383634 0.286928 0.751196
Si Si4 0.750000 0.750000 0.847148
Si Si5 0.034967 0.641269 0.770624
Si Si6 0.588578 0.104036 0.900281
Si Si7 0.567299 0.749434 0.915439
Si Si8 0.500000 0.500000 0.174755
O O1 0.750000 0.750000 0.097660
O O2 0.877486 0.870131 0.065029
O O3 0.734887 0.943750 0.113199
O O4 0.706687 0.873644 0.013641
O O5 0.250000 0.750000 0.764838
O O6 0.413230 0.758750 0.751402
O O7 0.327457 0.589039 0.712130
O O8 0.304669 0.314851 0.798178
O O9 0.430558 0.180985 0.771366
O O10 0.358068 0.247302 0.686283
O O11 0.666375 0.781938 0.889832
O O12 0.060160 0.595208 0.832685
O O13 0.058595 0.565523 0.719846
O O14 0.505241 0.164797 0.931463
O O15 0.679431 0.173614 0.896109
#
# Coordination Sequence:
#
# PCOD9370944 Si02
#       8
#    16  16  16   8  16  16  16   8
#     4  10  22  44  68 102 151 184 241 310 355 441
#     4  11  23  41  68 100 138 183 239 293 366 436
#     4   9  21  41  67  98 139 190 240 289 356 436
#     4  10  20  43  62  98 148 179 244 294 350 438
#     4  10  21  45  62  96 142 171 237 303 339 444
#     4  11  21  43  69  99 142 189 231 299 362 421
#     4  11  23  41  68 104 143 192 237 298 370 433
#     4  10  24  39  70  96 132 183 234 286 358 430
#
# _framework density 24.87378
#
# number of rings (size 3 to 8) (size 9 to 14) (size 15 to 20)
#    0.000    1.714    4.286    1.286    2.000    2.857 
#    2.571   10.000    0.000    0.000    0.000    0.000 
#    0.000    0.000    0.000    0.000    0.000    0.000 
#
# Total GULP energy -155963.361368 kJ/mol
# GULP energy per Si atom -5570.120049 kJ/mol
# Density = 2.481717 g / cm^3
# Si number density = 24.873780 Si / 1000 Ang^3
#
#
#
# Elastic Constant Matrix: (Units=GPa)
#
#
# Indices 1 2 3 4 5 6 
#
# 1 129.7940 22.4276 27.9473 0.0000 0.0000 0.0000
# 2 22.4276 82.9841 19.1433 0.0000 0.0000 0.0000
# 3 27.9473 19.1433 88.9431 0.0000 0.0000 0.0000
# 4 0.0000 0.0000 0.0000 10.5098 0.0000 0.0000
# 5 0.0000 0.0000 0.0000 0.0000 25.1446 0.0000
# 6 0.0000 0.0000 0.0000 0.0000 0.0000 20.5724
#
#
#
# Elastic Compliance Matrix: (Units=1/GPa)
#
#
# Indices 1 2 3 4 5 6 
#
# 1 0.008504 -0.001770 -0.002291 0.000000 0.000000 0.000000
# 2 -0.001770 0.013048 -0.002252 0.000000 0.000000 0.000000
# 3 -0.002291 -0.002252 0.012448 0.000000 0.000000 0.000000
# 4 0.000000 0.000000 0.000000 0.095149 0.000000 0.000000
# 5 0.000000 0.000000 0.000000 0.000000 0.039770 0.000000
# 6 0.000000 0.000000 0.000000 0.000000 0.000000 0.048609
#
#
# Mechanical properties :
#
#
# Convention : Reuss Voigt Hill
#
# Bulk Modulus (GPa) = 46.78676 48.97305 47.87991
# Shear Modulus (GPa) = 21.07228 26.72557 23.89892
#
# Velocity S-wave (km/s) = 2.91377 3.28143 3.10305
# Velocity P-wave (km/s) = 5.49278 5.83853 5.66829
#
# Compressibility (1/GPa) = 0.02137357
#
# Stress axis : x y z
#
# Youngs Moduli (GPa) = 117.59691 76.63788 80.33548
#
# Poissons Ratio (x) = 0.13563 0.18405
# Poissons Ratio (y) = 0.20811 0.18094
# Poissons Ratio (z) = 0.26942 0.17261
#
# Static dielectric constant tensor:
#      x y z
#    x 2.261540 0.000000 0.000000 
#    y 0.000000 2.073970 0.000000 
#    z 0.000000 0.000000 2.111150 
# 
# From -- ./inp_files/21761.got.cif
#   From: 2010.05.17/outbox.cif.g08.bks.cpg/sg43_11_cif.got.tgz:21761.got - 2010.06.03 19:21:55.
