data_PCOD9370958
_publ_section_title
;
Structure prediction by ZEFSAII (Michael W. Deem and Ramdas Pophale) SiO2 
 PCOD9370958
Probable space group: F D D 2
;
_chemical_formula_sum "Si O2"
_cell_formula_units_Z 64
_cell_length_a 7.661965
_cell_length_b 11.931077
_cell_length_c 28.919076
_cell_angle_alpha 90.000000
_cell_angle_beta 90.000000
_cell_angle_gamma 90.000000
_cell_volume 2643.651630
_symmetry_space_group_name_H-M "F D D 2"
_symmetry_group_IT_number 43
_symmetry_cell_setting 'orthorhombic'
loop_
_space_group_symop_operation_xyz
x,y,z
-x,-y,z
1/4-x,1/4+y,1/4+z
1/4+x,1/4-y,1/4+z
x,1/2+y,1/2+z
-x,1/2-y,1/2+z
1/4-x,3/4+y,3/4+z
1/4+x,3/4-y,3/4+z
1/2+x,y,1/2+z
1/2-x,-y,1/2+z
3/4-x,1/4+y,3/4+z
3/4+x,1/4-y,3/4+z
1/2+x,1/2+y,z
1/2-x,1/2-y,z
3/4-x,3/4+y,1/4+z
3/4+x,3/4-y,1/4+z
loop_
_atom_site_type_symbol
_atom_site_label
_atom_site_fract_x
_atom_site_fract_y
_atom_site_fract_z
Si Si1 0.010157 0.831593 0.607670
Si Si2 0.601324 0.667440 0.375967
Si Si3 0.500000 0.500000 0.932144
Si Si4 0.414709 0.707083 0.974268
Si Si5 0.750000 0.750000 0.030747
O O1 0.845294 0.913171 0.606684
O O2 0.930767 0.705983 0.616501
O O3 0.140957 0.837228 0.651157
O O4 0.138310 0.830965 0.564040
O O5 0.750000 0.750000 0.356062
O O6 0.580374 0.709351 0.429622
O O7 0.375235 0.579374 0.960668
O O8 0.250000 0.750000 0.003952
O O9 0.598688 0.700439 0.999204
#
# Coordination Sequence:
#
# PCOD9370958 Si02
#       5
#    16  16   8  16   8
#     4  10  22  41  71 101 141 186 241 298 357 436
#     4  10  20  43  73  98 134 191 245 286 352 436
#     4  11  20  44  70 100 128 192 252 280 362 456
#     4  11  23  44  71 100 141 187 236 304 357 431
#     4  11  26  44  64 106 156 182 232 322 368 410
#
# _framework density 24.208938
#
# number of rings (size 3 to 8) (size 9 to 14) (size 15 to 20)
#    0.000    1.500    5.000    1.500    3.500    0.000 
#    2.250    2.500    0.000    0.000    0.000    0.000 
#    0.000    0.000    0.000    0.000    0.000    0.000 
#
# Total GULP energy -89288.728767 kJ/mol
# GULP energy per Si atom -5580.545548 kJ/mol
# Density = 2.415384 g / cm^3
# Si number density = 24.208938 Si / 1000 Ang^3
#
#
#
# Elastic Constant Matrix: (Units=GPa)
#
#
# Indices 1 2 3 4 5 6 
#
# 1 211.9119 46.5571 41.2464 0.0000 0.0000 0.0000
# 2 46.5571 89.9192 28.4700 0.0000 0.0000 0.0000
# 3 41.2464 28.4700 68.9201 0.0000 0.0000 0.0000
# 4 0.0000 0.0000 0.0000 3.6084 0.0000 0.0000
# 5 0.0000 0.0000 0.0000 0.0000 46.3484 0.0000
# 6 0.0000 0.0000 0.0000 0.0000 0.0000 59.3608
#
#
#
# Elastic Compliance Matrix: (Units=1/GPa)
#
#
# Indices 1 2 3 4 5 6 
#
# 1 0.005679 -0.002145 -0.002513 0.000000 0.000000 0.000000
# 2 -0.002145 0.013605 -0.004336 0.000000 0.000000 0.000000
# 3 -0.002513 -0.004336 0.017805 0.000000 0.000000 0.000000
# 4 0.000000 0.000000 0.000000 0.277127 0.000000 0.000000
# 5 0.000000 0.000000 0.000000 0.000000 0.021576 0.000000
# 6 0.000000 0.000000 0.000000 0.000000 0.000000 0.016846
#
#
# Mechanical properties :
#
#
# Convention : Reuss Voigt Hill
#
# Bulk Modulus (GPa) = 52.35444 67.03315 59.69379
# Shear Modulus (GPa) = 13.26286 38.82873 26.04579
#
# Velocity S-wave (km/s) = 2.34316 4.00922 3.28361
# Velocity P-wave (km/s) = 5.38457 7.01294 6.25199
#
# Compressibility (1/GPa) = 0.01910058
#
# Stress axis : x y z
#
# Youngs Moduli (GPa) = 176.07869 73.50461 56.16523
#
# Poissons Ratio (x) = 0.15766 0.14113
# Poissons Ratio (y) = 0.37768 0.24354
# Poissons Ratio (z) = 0.44245 0.31873
#
# Static dielectric constant tensor:
#      x y z
#    x 2.003620 0.000000 0.000000 
#    y 0.000000 1.999310 0.000000 
#    z 0.000000 0.000000 2.053950 
# 
# From -- ./inp_files/27672.got.cif
#   From: 2010.05.17/outbox.cif.g08.bks.cpg/sg43_14_cif.got.tgz:27672.got - 2010.06.03 19:21:55.
