data_PCOD9370912
_publ_section_title
;
Structure prediction by ZEFSAII (Michael W. Deem and Ramdas Pophale) SiO2 
 PCOD9370912
Probable space group: F D D 2
;
_chemical_formula_sum "Si O2"
_cell_formula_units_Z 120
_cell_length_a 15.663552
_cell_length_b 16.301355
_cell_length_c 22.684965
_cell_angle_alpha 90.000000
_cell_angle_beta 90.000000
_cell_angle_gamma 90.000000
_cell_volume 5792.313669
_symmetry_space_group_name_H-M "F D D 2"
_symmetry_group_IT_number 43
_symmetry_cell_setting 'orthorhombic'
loop_
_space_group_symop_operation_xyz
x,y,z
-x,-y,z
1/4-x,1/4+y,1/4+z
1/4+x,1/4-y,1/4+z
x,1/2+y,1/2+z
-x,1/2-y,1/2+z
1/4-x,3/4+y,3/4+z
1/4+x,3/4-y,3/4+z
1/2+x,y,1/2+z
1/2-x,-y,1/2+z
3/4-x,1/4+y,3/4+z
3/4+x,1/4-y,3/4+z
1/2+x,1/2+y,z
1/2-x,1/2-y,z
3/4-x,3/4+y,1/4+z
3/4+x,3/4-y,1/4+z
loop_
_atom_site_type_symbol
_atom_site_label
_atom_site_fract_x
_atom_site_fract_y
_atom_site_fract_z
Si Si1 0.250000 0.750000 0.176630
Si Si2 0.096347 0.337861 0.890862
Si Si3 0.322010 0.813690 0.030584
Si Si4 0.193625 0.074345 0.426675
Si Si5 0.509534 0.153073 0.214683
Si Si6 0.827397 0.594197 0.189415
Si Si7 0.492758 0.210703 0.548113
Si Si8 0.669517 0.309127 0.569182
O O1 0.210639 0.656719 0.172034
O O2 0.152081 0.788587 0.180933
O O3 0.079456 0.356934 0.822458
O O4 0.193014 0.361416 0.908726
O O5 0.076640 0.247444 0.912630
O O6 0.250000 0.750000 0.055516
O O7 0.412197 0.768581 0.034232
O O8 0.298109 0.845202 0.966316
O O9 0.220013 0.084841 0.358838
O O10 0.249071 0.999339 0.452936
O O11 0.417834 0.112264 0.219667
O O12 0.567149 0.130772 0.270991
O O13 0.758493 0.596319 0.241468
O O14 0.822075 0.655264 0.134677
O O15 0.579151 0.263952 0.558532
O O16 0.750000 0.250000 0.559861
#
# Coordination Sequence:
#
# PCOD9370912 Si02
#       8
#     8  16  16  16  16  16  16  16
#     4  10  20  42  66  96 140 168 222 300 346 392
#     4  11  19  39  68 101 135 175 223 288 351 407
#     4  12  25  45  70 101 144 188 232 293 354 422
#     4  11  24  42  70 102 139 181 232 290 359 413
#     4  11  21  42  69 101 143 173 226 292 353 419
#     4  12  24  40  71 105 132 186 233 275 357 421
#     4  12  24  44  69  99 141 178 234 287 346 422
#     4  12  24  44  69  99 144 178 223 295 350 412
#
# _framework density 20.717110000000002
#
# number of rings (size 3 to 8) (size 9 to 14) (size 15 to 20)
#    0.000    0.533    7.333    2.000    1.867    1.067 
#    2.400    0.667    0.000    0.000    0.000    0.000 
#    0.000    0.000    0.000    0.000    0.000    0.000 
#
# Total GULP energy -167171.134826 kJ/mol
# GULP energy per Si atom -5572.371161 kJ/mol
# Density = 2.066996 g / cm^3
# Si number density = 20.717110 Si / 1000 Ang^3
#
#
#
# Elastic Constant Matrix: (Units=GPa)
#
#
# Indices 1 2 3 4 5 6 
#
# 1 97.0887 8.6177 7.9615 0.0000 0.0000 0.0000
# 2 8.6177 35.1921 2.6527 0.0000 0.0000 0.0000
# 3 7.9615 2.6527 115.3355 0.0000 0.0000 0.0000
# 4 0.0000 0.0000 0.0000 40.7765 0.0000 0.0000
# 5 0.0000 0.0000 0.0000 0.0000 24.4721 0.0000
# 6 0.0000 0.0000 0.0000 0.0000 0.0000 15.9187
#
#
#
# Elastic Compliance Matrix: (Units=1/GPa)
#
#
# Indices 1 2 3 4 5 6 
#
# 1 0.010580 -0.002540 -0.000672 0.000000 0.000000 0.000000
# 2 -0.002540 0.029075 -0.000493 0.000000 0.000000 0.000000
# 3 -0.000672 -0.000493 0.008728 0.000000 0.000000 0.000000
# 4 0.000000 0.000000 0.000000 0.024524 0.000000 0.000000
# 5 0.000000 0.000000 0.000000 0.000000 0.040863 0.000000
# 6 0.000000 0.000000 0.000000 0.000000 0.000000 0.062819
#
#
# Mechanical properties :
#
#
# Convention : Reuss Voigt Hill
#
# Bulk Modulus (GPa) = 24.40683 31.78668 28.09675
# Shear Modulus (GPa) = 25.29626 31.45908 28.37767
#
# Velocity S-wave (km/s) = 3.49812 3.90103 3.70506
# Velocity P-wave (km/s) = 5.30305 5.97220 5.64755
#
# Compressibility (1/GPa) = 0.04097214
#
# Stress axis : x y z
#
# Youngs Moduli (GPa) = 94.51403 34.39415 114.57265
#
# Poissons Ratio (x) = 0.08737 0.07699
# Poissons Ratio (y) = 0.24009 0.05653
# Poissons Ratio (z) = 0.06351 0.01697
#
# Static dielectric constant tensor:
#      x y z
#    x 1.722910 0.000000 0.000000 
#    y 0.000000 1.715680 0.000000 
#    z 0.000000 0.000000 1.800090 
# 
# From -- ./inp_files/21826.got.cif
#   From: 2010.05.17/outbox.cif.g08.bks.cpg/sg43_11_cif.got.tgz:21826.got - 2010.06.03 19:21:55.
