data_PCOD9370531
_publ_section_title
;
Structure prediction by ZEFSAII (Michael W. Deem and Ramdas Pophale) SiO2 
 PCOD9370531
Probable space group: F D D 2
;
_chemical_formula_sum "Si O2"
_cell_formula_units_Z 128
_cell_length_a 10.001845
_cell_length_b 19.583654
_cell_length_c 24.122916
_cell_angle_alpha 90.000000
_cell_angle_beta 90.000000
_cell_angle_gamma 90.000000
_cell_volume 4725.020010
_symmetry_space_group_name_H-M "F D D 2"
_symmetry_group_IT_number 43
_symmetry_cell_setting 'orthorhombic'
loop_
_space_group_symop_operation_xyz
x,y,z
-x,-y,z
1/4-x,1/4+y,1/4+z
1/4+x,1/4-y,1/4+z
x,1/2+y,1/2+z
-x,1/2-y,1/2+z
1/4-x,3/4+y,3/4+z
1/4+x,3/4-y,3/4+z
1/2+x,y,1/2+z
1/2-x,-y,1/2+z
3/4-x,1/4+y,3/4+z
3/4+x,1/4-y,3/4+z
1/2+x,1/2+y,z
1/2-x,1/2-y,z
3/4-x,3/4+y,1/4+z
3/4+x,3/4-y,1/4+z
loop_
_atom_site_type_symbol
_atom_site_label
_atom_site_fract_x
_atom_site_fract_y
_atom_site_fract_z
Si Si1 0.821904 0.318415 0.554690
Si Si2 0.376516 0.332545 0.411886
Si Si3 0.592371 0.897064 0.544103
Si Si4 0.372374 0.818271 0.271419
Si Si5 0.349105 0.806760 0.394709
Si Si6 0.877835 0.825444 0.531342
Si Si7 0.360231 0.072037 0.901802
Si Si8 0.833985 0.857542 0.176546
O O1 0.750000 0.250000 0.535145
O O2 0.975147 0.340744 0.549457
O O3 0.742450 0.378459 0.524421
O O4 0.794658 0.320774 0.620269
O O5 0.355492 0.306237 0.348904
O O6 0.388758 0.292205 0.470299
O O7 0.506883 0.380764 0.406282
O O8 0.239192 0.373602 0.420607
O O9 0.732222 0.858007 0.537326
O O10 0.566692 0.930307 0.484511
O O11 0.379398 0.782330 0.331285
O O12 0.236872 0.863352 0.276547
O O13 0.387090 0.783041 0.211113
O O14 0.250000 0.750000 0.418099
O O15 0.264064 0.876334 0.398049
O O16 0.487484 0.825776 0.423643
O O17 0.895672 0.787610 0.590861
#
# Coordination Sequence:
#
# PCOD9370531 Si02
#       8
#    16  16  16  16  16  16  16  16
#     4  10  20  33  51  76 104 136 174 215 262 315
#     4   8  15  29  50  72  94 127 165 201 248 301
#     4   9  16  29  52  74  98 131 168 208 254 305
#     4   9  18  32  51  74 102 133 168 212 259 306
#     4  10  20  33  51  76 104 136 174 215 262 315
#     4   8  15  29  50  72  94 127 165 201 248 301
#     4   9  16  29  52  74  98 131 168 208 254 305
#     4   9  18  32  51  74 102 133 168 212 259 306
#
# _framework density 27.089832000000001
#
# number of rings (size 3 to 8) (size 9 to 14) (size 15 to 20)
#    0.000    3.000    0.000    0.750    0.000    2.000 
#    0.000    1.250    0.000   94.500    0.000    0.000 
#    0.000    0.000    0.000    0.000    0.000    0.000 
#
# Total GULP energy -178616.581250 kJ/mol
# GULP energy per Si atom -5581.768164 kJ/mol
# Density = 2.702817 g / cm^3
# Si number density = 27.089832 Si / 1000 Ang^3
#
#
#
# Elastic Constant Matrix: (Units=GPa)
#
#
# Indices 1 2 3 4 5 6 
#
# 1 195.3871 51.6192 9.3226 0.0000 0.0000 0.0000
# 2 51.6192 40.2778 22.1685 0.0000 0.0000 0.0000
# 3 9.3226 22.1685 328.7160 0.0000 0.0000 0.0000
# 4 0.0000 0.0000 0.0000 -10.9784 0.0000 0.0000
# 5 0.0000 0.0000 0.0000 0.0000 38.5754 0.0000
# 6 0.0000 0.0000 0.0000 0.0000 0.0000 28.1792
#
#
#
# Elastic Compliance Matrix: (Units=1/GPa)
#
#
# Indices 1 2 3 4 5 6 
#
# 1 0.007808 -0.010265 0.000471 0.000000 0.000000 0.000000
# 2 -0.010265 0.039281 -0.002358 0.000000 0.000000 0.000000
# 3 0.000471 -0.002358 0.003188 0.000000 0.000000 0.000000
# 4 0.000000 0.000000 0.000000 -0.091088 0.000000 0.000000
# 5 0.000000 0.000000 0.000000 0.000000 0.025923 0.000000
# 6 0.000000 0.000000 0.000000 0.000000 0.000000 0.035487
#
#
# Mechanical properties :
#
#
# Convention : Reuss Voigt Hill
#
# Bulk Modulus (GPa) = 38.50331 81.17794 59.84062
# Shear Modulus (GPa) = 93.35270 43.23995 68.29632
#
# Velocity S-wave (km/s) = 5.87667 3.99954 5.02651
# Velocity P-wave (km/s) = 7.76473 7.16657 7.47164
#
# Compressibility (1/GPa) = 0.02597179
#
# Stress axis : x y z
#
# Youngs Moduli (GPa) = 128.08188 25.45768 313.69531
#
# Poissons Ratio (x) = 0.26133 -0.14770
# Poissons Ratio (y) = 1.31477 0.73968
# Poissons Ratio (z) = -0.06031 0.06003
#
# Static dielectric constant tensor:
#      x y z
#    x 2.030470 0.000000 0.000000 
#    y 0.000000 2.085860 0.000000 
#    z 0.000000 0.000000 2.231580 
# 
# From -- ./inp_files/21313.got.cif
#   From: 2010.05.17/outbox.cif.g08.bks.cpg/sg43_11_cif.got.tgz:21313.got - 2010.06.03 19:21:55.
