data_PCOD9370817
_publ_section_title
;
Structure prediction by ZEFSAII (Michael W. Deem and Ramdas Pophale) SiO2 
 PCOD9370817
Probable space group: F D D 2
;
_chemical_formula_sum "Si O2"
_cell_formula_units_Z 120
_cell_length_a 18.522856
_cell_length_b 28.058813
_cell_length_c 10.127314
_cell_angle_alpha 90.000000
_cell_angle_beta 90.000000
_cell_angle_gamma 90.000000
_cell_volume 5263.462350
_symmetry_space_group_name_H-M "F D D 2"
_symmetry_group_IT_number 43
_symmetry_cell_setting 'orthorhombic'
loop_
_space_group_symop_operation_xyz
x,y,z
-x,-y,z
1/4-x,1/4+y,1/4+z
1/4+x,1/4-y,1/4+z
x,1/2+y,1/2+z
-x,1/2-y,1/2+z
1/4-x,3/4+y,3/4+z
1/4+x,3/4-y,3/4+z
1/2+x,y,1/2+z
1/2-x,-y,1/2+z
3/4-x,1/4+y,3/4+z
3/4+x,1/4-y,3/4+z
1/2+x,1/2+y,z
1/2-x,1/2-y,z
3/4-x,3/4+y,1/4+z
3/4+x,3/4-y,1/4+z
loop_
_atom_site_type_symbol
_atom_site_label
_atom_site_fract_x
_atom_site_fract_y
_atom_site_fract_z
Si Si1 0.894125 0.461894 0.460950
Si Si2 0.898063 0.903097 0.198540
Si Si3 0.750000 0.250000 0.389830
Si Si4 0.422846 0.412057 0.678739
Si Si5 0.117641 0.948878 0.824500
Si Si6 0.233508 0.599138 0.101857
Si Si7 0.513794 0.184880 0.147663
Si Si8 0.279559 0.464237 0.351735
O O1 0.929670 0.436734 0.583960
O O2 0.912878 0.438793 0.319056
O O3 0.904884 0.518004 0.448283
O O4 0.808611 0.452423 0.469199
O O5 0.870569 0.855544 0.120911
O O6 0.834197 0.930555 0.273616
O O7 0.960653 0.887960 0.299531
O O8 0.796271 0.204833 0.335700
O O9 0.689950 0.216679 0.466167
O O10 0.351113 0.390130 0.613645
O O11 0.465031 0.364243 0.714869
O O12 0.199520 0.964553 0.783485
O O13 0.251821 0.581623 0.247264
O O14 0.237939 0.557984 0.993582
O O15 0.559720 0.232919 0.129423
#
# Coordination Sequence:
#
# PCOD9370817 Si02
#       8
#    16  16   8  16  16  16  16  16
#     4   9  21  40  62 100 126 173 228 288 348 419
#     4  11  22  39  70  96 134 183 231 280 360 424
#     4  10  20  40  66  98 130 178 224 286 346 412
#     4  10  21  43  65  93 142 175 229 289 355 410
#     4   9  21  39  60  96 137 164 226 294 331 407
#     4  10  23  43  61  94 139 177 225 294 341 415
#     4  10  21  40  65  89 132 181 224 287 344 411
#     4  10  23  39  65  95 129 190 227 279 354 420
#
# _framework density 22.798681999999999
#
# number of rings (size 3 to 8) (size 9 to 14) (size 15 to 20)
#    0.000    2.133    0.000    2.400    5.600    6.400 
#   12.000    0.667    2.933    0.000    0.000    0.000 
#    0.000    0.000    0.000    0.000    0.000    0.000 
#
# Total GULP energy -167226.200604 kJ/mol
# GULP energy per Si atom -5574.206687 kJ/mol
# Density = 2.274679 g / cm^3
# Si number density = 22.798682 Si / 1000 Ang^3
#
#
#
# Elastic Constant Matrix: (Units=GPa)
#
#
# Indices 1 2 3 4 5 6 
#
# 1 69.7369 18.1883 9.6738 0.0000 0.0000 0.0000
# 2 18.1883 126.1372 -7.7380 0.0000 0.0000 0.0000
# 3 9.6738 -7.7380 37.8533 0.0000 -0.0001 0.0000
# 4 0.0000 0.0000 0.0000 20.3568 0.0000 0.0000
# 5 0.0000 0.0000 -0.0001 0.0000 -348.7910 0.0000
# 6 0.0000 0.0000 0.0000 0.0000 0.0000 31.6545
#
#
#
# Elastic Compliance Matrix: (Units=1/GPa)
#
#
# Indices 1 2 3 4 5 6 
#
# 1 0.015625 -0.002530 -0.004510 0.000000 0.000000 0.000000
# 2 -0.002530 0.008438 0.002371 0.000000 0.000000 0.000000
# 3 -0.004510 0.002371 0.028055 0.000000 0.000000 0.000000
# 4 0.000000 0.000000 0.000000 0.049124 0.000000 0.000000
# 5 0.000000 0.000000 0.000000 0.000000 -0.002867 0.000000
# 6 0.000000 0.000000 0.000000 0.000000 0.000000 0.031591
#
#
# Mechanical properties :
#
#
# Convention : Reuss Voigt Hill
#
# Bulk Modulus (GPa) = 23.37475 30.44173 26.90824
# Shear Modulus (GPa) = 32.55980 -45.11573 -6.27796
#
# Velocity S-wave (km/s) = 3.78318 -4.45328 -1.66121
# Velocity P-wave (km/s) = 5.41832 3.61398 2.85459
#
# Compressibility (1/GPa) = 0.04278121
#
# Stress axis : x y z
#
# Youngs Moduli (GPa) = 63.99981 118.50971 35.64401
#
# Poissons Ratio (x) = 0.29980 0.16076
# Poissons Ratio (y) = 0.16190 -0.08453
# Poissons Ratio (z) = 0.28866 -0.28104
#
# Static dielectric constant tensor:
#      x y z
#    x 1.973720 0.000000 0.000000 
#    y 0.000000 1.889580 0.000000 
#    z 0.000000 0.000000 1.865410 
# 
# From -- ./inp_files/7270.got.cif
#   From: 2010.05.17/outbox.cif.g08.bks.cpg/sg43_4_cif.got.tgz:7270.got - 2010.06.03 19:21:55.
