data_PCOD9370259
_publ_section_title
;
Structure prediction by ZEFSAII (Michael W. Deem and Ramdas Pophale) SiO2 
 PCOD9370259
Probable space group: F D D 2
;
_chemical_formula_sum "Si O2"
_cell_formula_units_Z 104
_cell_length_a 25.308607
_cell_length_b 15.204136
_cell_length_c 11.702798
_cell_angle_alpha 90.000000
_cell_angle_beta 90.000000
_cell_angle_gamma 90.000000
_cell_volume 4503.184041
_symmetry_space_group_name_H-M "F D D 2"
_symmetry_group_IT_number 43
_symmetry_cell_setting 'orthorhombic'
loop_
_space_group_symop_operation_xyz
x,y,z
-x,-y,z
1/4-x,1/4+y,1/4+z
1/4+x,1/4-y,1/4+z
x,1/2+y,1/2+z
-x,1/2-y,1/2+z
1/4-x,3/4+y,3/4+z
1/4+x,3/4-y,3/4+z
1/2+x,y,1/2+z
1/2-x,-y,1/2+z
3/4-x,1/4+y,3/4+z
3/4+x,1/4-y,3/4+z
1/2+x,1/2+y,z
1/2-x,1/2-y,z
3/4-x,3/4+y,1/4+z
3/4+x,3/4-y,1/4+z
loop_
_atom_site_type_symbol
_atom_site_label
_atom_site_fract_x
_atom_site_fract_y
_atom_site_fract_z
Si Si1 0.460663 0.204714 0.289690
Si Si2 0.575525 0.166295 0.325856
Si Si3 0.496725 0.382630 0.401060
Si Si4 0.830674 0.962011 0.791050
Si Si5 0.000000 0.500000 0.688077
Si Si6 0.634725 0.300599 0.157894
Si Si7 0.888519 0.997217 0.149057
O O1 0.514152 0.148518 0.294532
O O2 0.475346 0.286521 0.370556
O O3 0.447078 0.233142 0.161054
O O4 0.403759 0.181431 0.343161
O O5 0.612127 0.081304 0.310214
O O6 0.580482 0.208406 0.451757
O O7 0.598665 0.245165 0.244150
O O8 0.545199 0.365610 0.483833
O O9 0.512200 0.422108 0.278049
O O10 0.446305 0.437687 0.446261
O O11 0.948606 0.474189 0.618836
O O12 0.617804 0.399545 0.123983
O O13 0.633458 0.254522 0.035649
#
# Coordination Sequence:
#
# PCOD9370259 Si02
#       7
#    16  16  16  16   8  16  16
#     4  10  24  41  60  90 133 172 208 254 330 389
#     4  11  24  40  66  95 124 173 213 266 328 379
#     4   9  20  39  64  95 118 160 203 268 320 366
#     4  11  24  42  64  92 131 168 216 262 321 399
#     4  10  18  38  64  96 120 144 222 264 306 368
#     4  10  20  37  67  92 124 150 218 259 324 373
#     4  10  21  38  62  95 121 167 201 272 314 380
#
# _framework density 23.094771000000001
#
# number of rings (size 3 to 8) (size 9 to 14) (size 15 to 20)
#    0.000    1.846    0.000    4.615    8.615    3.692 
#    2.769    0.000    0.000    0.000    0.000    0.000 
#    0.000    0.000    0.000    0.000    0.000    0.000 
#
# Total GULP energy -145132.004108 kJ/mol
# GULP energy per Si atom -5582.000158 kJ/mol
# Density = 2.304221 g / cm^3
# Si number density = 23.094771 Si / 1000 Ang^3
#
#
#
# Elastic Constant Matrix: (Units=GPa)
#
#
# Indices 1 2 3 4 5 6 
#
# 1 186.2023 4.9266 58.8189 0.0000 0.0000 0.0000
# 2 4.9266 17.5788 -6.7931 0.0000 0.0000 0.0000
# 3 58.8189 -6.7931 55.8315 0.0000 0.0000 0.0000
# 4 0.0000 0.0000 0.0000 14.7028 0.0000 0.0000
# 5 0.0000 0.0000 0.0000 0.0000 35.5901 0.0000
# 6 0.0000 0.0000 0.0000 0.0000 0.0000 17.3370
#
#
#
# Elastic Compliance Matrix: (Units=1/GPa)
#
#
# Indices 1 2 3 4 5 6 
#
# 1 0.008656 -0.006244 -0.009879 0.000000 0.000000 0.000000
# 2 -0.006244 0.064197 0.014389 0.000000 0.000000 0.000000
# 3 -0.009879 0.014389 0.030070 0.000000 0.000000 0.000000
# 4 0.000000 0.000000 0.000000 0.068014 0.000000 0.000000
# 5 0.000000 0.000000 0.000000 0.000000 0.028098 0.000000
# 6 0.000000 0.000000 0.000000 0.000000 0.000000 0.057680
#
#
# Mechanical properties :
#
#
# Convention : Reuss Voigt Hill
#
# Bulk Modulus (GPa) = 10.05482 41.50192 25.77837
# Shear Modulus (GPa) = 17.04534 27.03667 22.04100
#
# Velocity S-wave (km/s) = 2.71967 3.42524 3.09264
# Velocity P-wave (km/s) = 3.77165 5.80106 4.89273
#
# Compressibility (1/GPa) = 0.09945481
#
# Stress axis : x y z
#
# Youngs Moduli (GPa) = 115.52073 15.57701 33.25605
#
# Poissons Ratio (x) = 0.09726 0.32855
# Poissons Ratio (y) = 0.72129 -0.47852
# Poissons Ratio (z) = 1.14127 -0.22414
#
# Static dielectric constant tensor:
#      x y z
#    x 2.029790 0.000000 0.000000 
#    y 0.000000 1.891350 0.000000 
#    z 0.000000 0.000000 1.825470 
# 
# From -- ./inp_files/7944.got.cif
#   From: 2010.05.17/outbox.cif.g08.bks.cpg/sg43_4_cif.got.tgz:7944.got - 2010.06.03 19:21:55.
