data_PCOD9370841
_publ_section_title
;
Structure prediction by ZEFSAII (Michael W. Deem and Ramdas Pophale) SiO2 
 PCOD9370841
Probable space group: F D D 2
;
_chemical_formula_sum "Si O2"
_cell_formula_units_Z 96
_cell_length_a 12.104236
_cell_length_b 21.000075
_cell_length_c 16.976609
_cell_angle_alpha 90.000000
_cell_angle_beta 90.000000
_cell_angle_gamma 90.000000
_cell_volume 4315.281930
_symmetry_space_group_name_H-M "F D D 2"
_symmetry_group_IT_number 43
_symmetry_cell_setting 'orthorhombic'
loop_
_space_group_symop_operation_xyz
x,y,z
-x,-y,z
1/4-x,1/4+y,1/4+z
1/4+x,1/4-y,1/4+z
x,1/2+y,1/2+z
-x,1/2-y,1/2+z
1/4-x,3/4+y,3/4+z
1/4+x,3/4-y,3/4+z
1/2+x,y,1/2+z
1/2-x,-y,1/2+z
3/4-x,1/4+y,3/4+z
3/4+x,1/4-y,3/4+z
1/2+x,1/2+y,z
1/2-x,1/2-y,z
3/4-x,3/4+y,1/4+z
3/4+x,3/4-y,1/4+z
loop_
_atom_site_type_symbol
_atom_site_label
_atom_site_fract_x
_atom_site_fract_y
_atom_site_fract_z
Si Si1 0.548007 0.566988 0.709990
Si Si2 0.898338 0.075180 0.208137
Si Si3 0.370319 0.497281 0.002595
Si Si4 0.977559 0.651802 0.842567
Si Si5 0.395834 0.398748 0.883063
Si Si6 0.647781 0.567805 0.156749
O O1 0.500000 0.500000 0.736879
O O2 0.639718 0.557911 0.642263
O O3 0.596535 0.599398 0.788708
O O4 0.450698 0.605273 0.667395
O O5 0.913934 0.096251 0.297484
O O6 0.816080 0.119132 0.158012
O O7 0.019888 0.083929 0.170708
O O8 0.852167 0.002838 0.197867
O O9 0.500000 0.500000 0.022509
O O10 0.367706 0.469566 0.915344
O O11 0.297860 0.557589 0.028695
O O12 0.329651 0.444928 0.065008
O O13 0.509775 0.371320 0.923716
#
# Coordination Sequence:
#
# PCOD9370841 Si02
#       6
#    16  16  16  16  16  16
#     4  12  27  44  69 101 145 187 236 295 357 427
#     4  10  21  40  69  99 138 185 227 295 362 413
#     4  11  20  42  69  99 137 176 235 294 351 408
#     4  11  23  44  68  99 143 184 232 295 358 432
#     4  12  25  44  71 102 136 190 237 290 354 429
#     4  10  20  40  70 100 139 177 238 299 347 421
#
# _framework density 22.246518999999999
#
# number of rings (size 3 to 8) (size 9 to 14) (size 15 to 20)
#    0.000    1.000    5.000    4.500    0.000    0.000 
#    0.000    8.333    3.667    0.000    0.000    0.000 
#    0.000    0.000    0.000    0.000    0.000    0.000 
#
# Total GULP energy -133788.827705 kJ/mol
# GULP energy per Si atom -5574.534488 kJ/mol
# Density = 2.219589 g / cm^3
# Si number density = 22.246519 Si / 1000 Ang^3
#
#
#
# Elastic Constant Matrix: (Units=GPa)
#
#
# Indices 1 2 3 4 5 6 
#
# 1 98.2120 35.0375 32.9544 0.0000 0.0000 0.0000
# 2 35.0375 45.5729 43.6852 0.0000 0.0000 0.0000
# 3 32.9544 43.6852 107.0290 0.0000 0.0000 0.0000
# 4 0.0000 0.0000 0.0000 33.3560 0.0000 0.0000
# 5 0.0000 0.0000 0.0000 0.0000 25.9448 0.0000
# 6 0.0000 0.0000 0.0000 0.0000 0.0000 26.1800
#
#
#
# Elastic Compliance Matrix: (Units=1/GPa)
#
#
# Indices 1 2 3 4 5 6 
#
# 1 0.014032 -0.010918 0.000136 0.000000 0.000000 0.000000
# 2 -0.010918 0.044542 -0.014819 0.000000 0.000000 0.000000
# 3 0.000136 -0.014819 0.015350 0.000000 0.000000 0.000000
# 4 0.000000 0.000000 0.000000 0.029980 0.000000 0.000000
# 5 0.000000 0.000000 0.000000 0.000000 0.038543 0.000000
# 6 0.000000 0.000000 0.000000 0.000000 0.000000 0.038197
#
#
# Mechanical properties :
#
#
# Convention : Reuss Voigt Hill
#
# Bulk Modulus (GPa) = 44.01084 52.68536 48.34810
# Shear Modulus (GPa) = 20.88396 26.37195 23.62796
#
# Velocity S-wave (km/s) = 3.06723 3.44676 3.26252
# Velocity P-wave (km/s) = 5.68947 6.29080 5.99767
#
# Compressibility (1/GPa) = 0.02272168
#
# Stress axis : x y z
#
# Youngs Moduli (GPa) = 71.26817 22.45085 65.14768
#
# Poissons Ratio (x) = 0.24512 -0.00886
# Poissons Ratio (y) = 0.77812 0.96539
# Poissons Ratio (z) = -0.00970 0.33269
#
# Static dielectric constant tensor:
#      x y z
#    x 1.862640 0.000000 0.000000 
#    y 0.000000 1.879100 0.000000 
#    z 0.000000 0.000000 1.848370 
# 
# From -- ./inp_files/13317.got.cif
#   From: 2010.05.17/outbox.cif.g08.bks.cpg/sg43_7_cif.got.tgz:13317.got - 2010.06.03 19:21:55.
