data_PCOD9370276
_publ_section_title
;
Structure prediction by ZEFSAII (Michael W. Deem and Ramdas Pophale) SiO2 
 PCOD9370276
Probable space group: F D D 2
;
_chemical_formula_sum "Si O2"
_cell_formula_units_Z 104
_cell_length_a 20.422005
_cell_length_b 33.069196
_cell_length_c 6.902684
_cell_angle_alpha 90.000000
_cell_angle_beta 90.000000
_cell_angle_gamma 90.000000
_cell_volume 4661.653684
_symmetry_space_group_name_H-M "F D D 2"
_symmetry_group_IT_number 43
_symmetry_cell_setting 'orthorhombic'
loop_
_space_group_symop_operation_xyz
x,y,z
-x,-y,z
1/4-x,1/4+y,1/4+z
1/4+x,1/4-y,1/4+z
x,1/2+y,1/2+z
-x,1/2-y,1/2+z
1/4-x,3/4+y,3/4+z
1/4+x,3/4-y,3/4+z
1/2+x,y,1/2+z
1/2-x,-y,1/2+z
3/4-x,1/4+y,3/4+z
3/4+x,1/4-y,3/4+z
1/2+x,1/2+y,z
1/2-x,1/2-y,z
3/4-x,3/4+y,1/4+z
3/4+x,3/4-y,1/4+z
loop_
_atom_site_type_symbol
_atom_site_label
_atom_site_fract_x
_atom_site_fract_y
_atom_site_fract_z
Si Si1 0.424649 0.459095 0.596380
Si Si2 0.234071 0.958537 0.817129
Si Si3 0.250000 0.750000 0.688960
Si Si4 0.443384 0.073951 0.995222
Si Si5 0.325191 0.026426 0.929560
Si Si6 0.919939 0.141408 0.233455
Si Si7 0.153690 0.682808 0.701368
O O1 0.447723 0.475914 0.803851
O O2 0.492671 0.453893 0.481162
O O3 0.372834 0.491443 0.516974
O O4 0.390296 0.415563 0.580361
O O5 0.214092 0.950942 0.597428
O O6 0.282943 0.925135 0.895005
O O7 0.166996 0.954609 0.938957
O O8 0.270415 0.001998 0.813249
O O9 0.207441 0.714557 0.784227
O O10 0.380531 0.058344 0.872528
O O11 0.424770 0.074322 0.223904
O O12 0.456716 0.117266 0.903482
O O13 0.902903 0.109851 0.061901
#
# Coordination Sequence:
#
# PCOD9370276 Si02
#       7
#    16  16   8  16  16  16  16
#     4  10  18  41  65  86 124 170 206 260 312 381
#     4  10  22  40  59  95 126 160 216 261 313 387
#     4  10  18  40  66  88 122 172 216 250 316 382
#     4  10  21  40  66  87 125 169 206 257 323 376
#     4  10  20  38  63  88 123 166 209 260 312 372
#     4  11  24  38  62  99 128 162 209 269 322 371
#     4  10  22  42  60  93 128 163 212 263 309 391
#
# _framework density 22.309678000000002
#
# number of rings (size 3 to 8) (size 9 to 14) (size 15 to 20)
#    0.000    1.846    4.615    0.923    2.154    4.923 
#    8.308    1.538    0.000    0.000    0.000    0.000 
#    0.000    0.000    0.000    0.000    0.000    0.000 
#
# Total GULP energy -144997.855513 kJ/mol
# GULP energy per Si atom -5576.840597 kJ/mol
# Density = 2.225890 g / cm^3
# Si number density = 22.309678 Si / 1000 Ang^3
#
#
#
# Elastic Constant Matrix: (Units=GPa)
#
#
# Indices 1 2 3 4 5 6 
#
# 1 86.2753 21.2702 21.1640 0.0005 -0.0045 0.0001
# 2 21.2702 93.5968 28.1391 0.0002 -0.0002 -0.0003
# 3 21.1640 28.1391 56.5520 0.0025 -0.0042 -0.0006
# 4 0.0005 0.0002 0.0025 34.6930 -0.0010 0.0000
# 5 -0.0045 -0.0002 -0.0042 -0.0010 24.7353 0.0006
# 6 0.0001 -0.0003 -0.0006 0.0000 0.0006 42.1839
#
#
#
# Elastic Compliance Matrix: (Units=1/GPa)
#
#
# Indices 1 2 3 4 5 6 
#
# 1 0.013003 -0.001754 -0.003993 0.000000 0.000002 0.000000
# 2 -0.001754 0.012800 -0.005713 0.000000 -0.000001 0.000000
# 3 -0.003993 -0.005713 0.022020 -0.000001 0.000003 0.000000
# 4 0.000000 0.000000 -0.000001 0.028824 0.000001 0.000000
# 5 0.000002 -0.000001 0.000003 0.000001 0.040428 -0.000001
# 6 0.000000 0.000000 0.000000 0.000000 -0.000001 0.023706
#
#
# Mechanical properties :
#
#
# Convention : Reuss Voigt Hill
#
# Bulk Modulus (GPa) = 40.15672 41.95231 41.05451
# Shear Modulus (GPa) = 29.06942 31.37918 30.22430
#
# Velocity S-wave (km/s) = 3.61362 3.75444 3.68470
# Velocity P-wave (km/s) = 5.95397 6.13513 6.04523
#
# Compressibility (1/GPa) = 0.02490243
#
# Stress axis : x y z
#
# Youngs Moduli (GPa) = 76.90586 78.12347 45.41381
#
# Poissons Ratio (x) = 0.13706 0.18135
# Poissons Ratio (y) = 0.13493 0.25943
# Poissons Ratio (z) = 0.30710 0.44628
#
# Static dielectric constant tensor:
#      x y z
#    x 1.845250 0.000000 0.000000 
#    y 0.000000 1.844910 0.000000 
#    z 0.000000 0.000000 1.886500 
# 
# From -- ./inp_files/3477.got.cif
#   From: 2010.05.17/outbox.cif.g08.bks.cpg/sg43_2_cif.got.tgz:3477.got - 2010.06.03 19:21:55.
