data_PCOD9370206
_publ_section_title
;
Structure prediction by ZEFSAII (Michael W. Deem and Ramdas Pophale) SiO2 
 PCOD9370206
Probable space group: F D D 2
;
_chemical_formula_sum "Si O2"
_cell_formula_units_Z 96
_cell_length_a 28.355491
_cell_length_b 16.193221
_cell_length_c 7.908542
_cell_angle_alpha 90.000000
_cell_angle_beta 90.000000
_cell_angle_gamma 90.000000
_cell_volume 3631.339388
_symmetry_space_group_name_H-M "F D D 2"
_symmetry_group_IT_number 43
_symmetry_cell_setting 'orthorhombic'
loop_
_space_group_symop_operation_xyz
x,y,z
-x,-y,z
1/4-x,1/4+y,1/4+z
1/4+x,1/4-y,1/4+z
x,1/2+y,1/2+z
-x,1/2-y,1/2+z
1/4-x,3/4+y,3/4+z
1/4+x,3/4-y,3/4+z
1/2+x,y,1/2+z
1/2-x,-y,1/2+z
3/4-x,1/4+y,3/4+z
3/4+x,1/4-y,3/4+z
1/2+x,1/2+y,z
1/2-x,1/2-y,z
3/4-x,3/4+y,1/4+z
3/4+x,3/4-y,1/4+z
loop_
_atom_site_type_symbol
_atom_site_label
_atom_site_fract_x
_atom_site_fract_y
_atom_site_fract_z
Si Si1 0.715261 0.086837 0.009970
Si Si2 0.713067 0.904589 0.993043
Si Si3 0.699029 0.652523 0.871361
Si Si4 0.441815 0.890024 0.620385
Si Si5 0.864228 0.986807 0.976590
Si Si6 0.388628 0.944372 0.084818
O O1 0.716742 0.101791 0.209393
O O2 0.658558 0.077191 0.982934
O O3 0.753958 0.147096 0.928707
O O4 0.733156 0.995274 0.966497
O O5 0.753014 0.835935 0.972961
O O6 0.671619 0.884245 0.863274
O O7 0.693700 0.898687 0.182201
O O8 0.667899 0.595444 0.995566
O O9 0.671042 0.727966 0.784973
O O10 0.414217 0.822195 0.734249
O O11 0.409705 0.971646 0.595021
O O12 0.877948 0.973635 0.778628
#
# Coordination Sequence:
#
# PCOD9370206 Si02
#       6
#    16  16  16  16  16  16
#     4  11  20  37  62  94 133 177 232 285 346 413
#     4  11  20  35  63  98 126 178 236 281 340 425
#     4  11  20  36  62  93 136 181 229 280 350 427
#     4  11  21  37  64  99 132 177 229 293 350 425
#     4  10  18  35  61  94 131 174 228 276 352 422
#     4  10  20  36  62  92 128 183 231 271 341 431
#
# _framework density 26.436527000000002
#
# number of rings (size 3 to 8) (size 9 to 14) (size 15 to 20)
#    0.000    1.333    6.667    2.500    0.000    0.000 
#    0.000    1.667    0.000   12.000    0.000    0.000 
#    0.000    0.000    0.000    0.000    0.000    0.000 
#
# Total GULP energy -134056.035785 kJ/mol
# GULP energy per Si atom -5585.668158 kJ/mol
# Density = 2.637636 g / cm^3
# Si number density = 26.436527 Si / 1000 Ang^3
#
#
#
# Elastic Constant Matrix: (Units=GPa)
#
#
# Indices 1 2 3 4 5 6 
#
# 1 190.7945 60.3459 55.7378 0.0000 0.0000 0.0000
# 2 60.3459 96.9756 28.6110 0.0000 0.0000 0.0000
# 3 55.7378 28.6110 63.7527 0.0000 0.0000 0.0000
# 4 0.0000 0.0000 0.0000 12.1388 0.0000 0.0000
# 5 0.0000 0.0000 0.0000 0.0000 47.5312 0.0000
# 6 0.0000 0.0000 0.0000 0.0000 0.0000 19.6003
#
#
#
# Elastic Compliance Matrix: (Units=1/GPa)
#
#
# Indices 1 2 3 4 5 6 
#
# 1 0.007860 -0.003301 -0.005391 0.000000 0.000000 0.000000
# 2 -0.003301 0.013272 -0.003070 0.000000 0.000000 0.000000
# 3 -0.005391 -0.003070 0.021776 0.000000 0.000000 0.000000
# 4 0.000000 0.000000 0.000000 0.082381 0.000000 0.000000
# 5 0.000000 0.000000 0.000000 0.000000 0.021039 0.000000
# 6 0.000000 0.000000 0.000000 0.000000 0.000000 0.051020
#
#
# Mechanical properties :
#
#
# Convention : Reuss Voigt Hill
#
# Bulk Modulus (GPa) = 51.58660 71.21248 61.39954
# Shear Modulus (GPa) = 21.99427 29.64259 25.81843
#
# Velocity S-wave (km/s) = 2.88751 3.35218 3.12848
# Velocity P-wave (km/s) = 5.53829 6.47907 6.02707
#
# Compressibility (1/GPa) = 0.01938488
#
# Stress axis : x y z
#
# Youngs Moduli (GPa) = 127.22666 75.34839 45.92129
#
# Poissons Ratio (x) = 0.24870 0.24754
# Poissons Ratio (y) = 0.41994 0.14099
# Poissons Ratio (z) = 0.68582 0.23134
#
# Static dielectric constant tensor:
#      x y z
#    x 2.188730 0.000000 0.000000 
#    y 0.000000 2.121900 0.000000 
#    z 0.000000 0.000000 2.029530 
# 
# From -- ./inp_files/4205.got.cif
#   From: 2010.05.17/outbox.cif.g08.bks.cpg/sg43_3_cif.got.tgz:4205.got - 2010.06.03 19:21:55.
