data_PCOD9370215
_publ_section_title
;
Structure prediction by ZEFSAII (Michael W. Deem and Ramdas Pophale) SiO2 
 PCOD9370215
Probable space group: F D D 2
;
_chemical_formula_sum "Si O2"
_cell_formula_units_Z 88
_cell_length_a 17.320473
_cell_length_b 29.839934
_cell_length_c 8.662110
_cell_angle_alpha 90.000000
_cell_angle_beta 90.000000
_cell_angle_gamma 90.000000
_cell_volume 4476.940274
_symmetry_space_group_name_H-M "F D D 2"
_symmetry_group_IT_number 43
_symmetry_cell_setting 'orthorhombic'
loop_
_space_group_symop_operation_xyz
x,y,z
-x,-y,z
1/4-x,1/4+y,1/4+z
1/4+x,1/4-y,1/4+z
x,1/2+y,1/2+z
-x,1/2-y,1/2+z
1/4-x,3/4+y,3/4+z
1/4+x,3/4-y,3/4+z
1/2+x,y,1/2+z
1/2-x,-y,1/2+z
3/4-x,1/4+y,3/4+z
3/4+x,1/4-y,3/4+z
1/2+x,1/2+y,z
1/2-x,1/2-y,z
3/4-x,3/4+y,1/4+z
3/4+x,3/4-y,1/4+z
loop_
_atom_site_type_symbol
_atom_site_label
_atom_site_fract_x
_atom_site_fract_y
_atom_site_fract_z
Si Si1 0.629348 0.679800 0.215570
Si Si2 0.807419 0.399744 0.545629
Si Si3 0.029836 0.307125 0.841591
Si Si4 0.331455 0.162386 0.010478
Si Si5 0.500000 0.500000 0.885172
Si Si6 0.256852 0.030619 0.263537
O O1 0.671121 0.633150 0.187870
O O2 0.557904 0.675078 0.331716
O O3 0.688630 0.720995 0.236115
O O4 0.585070 0.692570 0.055373
O O5 0.876092 0.403363 0.423910
O O6 0.733229 0.374582 0.475695
O O7 0.785331 0.447080 0.619178
O O8 0.040776 0.285433 0.671965
O O9 0.028465 0.269450 0.972638
O O10 0.100675 0.338244 0.884776
O O11 0.291217 0.211314 0.032437
#
# Coordination Sequence:
#
# PCOD9370215 Si02
#       6
#    16  16  16  16   8  16
#     4   9  20  34  57  85 111 148 192 238 282 342
#     4  11  21  38  59  87 115 157 194 238 294 354
#     4  10  20  37  57  87 112 153 187 248 284 349
#     4  11  21  36  59  85 115 152 196 239 293 349
#     4  10  18  36  58  80 108 152 198 230 280 358
#     4  10  19  36  57  83 115 149 194 234 290 341
#
# _framework density 19.656282000000001
#
# number of rings (size 3 to 8) (size 9 to 14) (size 15 to 20)
#    1.091    0.727    3.636    2.182    0.000    1.455 
#    0.000    0.000    0.000    8.727    0.000    0.000 
#    0.000    0.000    0.000    0.000    0.000    0.000 
#
# Total GULP energy -122506.266182 kJ/mol
# GULP energy per Si atom -5568.466645 kJ/mol
# Density = 1.961154 g / cm^3
# Si number density = 19.656282 Si / 1000 Ang^3
#
#
#
# Elastic Constant Matrix: (Units=GPa)
#
#
# Indices 1 2 3 4 5 6 
#
# 1 95.3346 8.7094 12.6469 0.0000 0.0000 0.0000
# 2 8.7094 13.3653 5.9886 0.0000 0.0000 0.0000
# 3 12.6469 5.9886 38.0706 0.0000 0.0000 0.0000
# 4 0.0000 0.0000 0.0000 12.0677 0.0000 0.0000
# 5 0.0000 0.0000 0.0000 0.0000 39.0557 0.0000
# 6 0.0000 0.0000 0.0000 0.0000 0.0000 16.7669
#
#
#
# Elastic Compliance Matrix: (Units=1/GPa)
#
#
# Indices 1 2 3 4 5 6 
#
# 1 0.011429 -0.006182 -0.002824 0.000000 0.000000 0.000000
# 2 -0.006182 0.083838 -0.011134 0.000000 0.000000 0.000000
# 3 -0.002824 -0.011134 0.028957 0.000000 0.000000 0.000000
# 4 0.000000 0.000000 0.000000 0.082866 0.000000 0.000000
# 5 0.000000 0.000000 0.000000 0.000000 0.025604 0.000000
# 6 0.000000 0.000000 0.000000 0.000000 0.000000 0.059641
#
#
# Mechanical properties :
#
#
# Convention : Reuss Voigt Hill
#
# Bulk Modulus (GPa) = 11.91288 22.38446 17.14867
# Shear Modulus (GPa) = 13.86588 21.53976 17.70282
#
# Velocity S-wave (km/s) = 2.65885 3.31391 3.00429
# Velocity P-wave (km/s) = 3.93697 5.10444 4.55824
#
# Compressibility (1/GPa) = 0.08394275
#
# Stress axis : x y z
#
# Youngs Moduli (GPa) = 87.49830 11.92772 34.53447
#
# Poissons Ratio (x) = 0.07374 0.09753
# Poissons Ratio (y) = 0.54093 0.38451
# Poissons Ratio (z) = 0.24711 0.13281
#
# Static dielectric constant tensor:
#      x y z
#    x 1.753050 0.000000 0.000000 
#    y 0.000000 1.676210 0.000000 
#    z 0.000000 0.000000 1.683830 
# 
# From -- ./inp_files/2935.got.cif
#   From: 2010.05.17/outbox.cif.g08.bks.cpg/sg43_2_cif.got.tgz:2935.got - 2010.06.03 19:21:55.
