data_PCOD9370745
_publ_section_title
;
Structure prediction by ZEFSAII (Michael W. Deem and Ramdas Pophale) SiO2 
 PCOD9370745
Probable space group: F D D 2
;
_chemical_formula_sum "Si O2"
_cell_formula_units_Z 80
_cell_length_a 24.782259
_cell_length_b 19.962839
_cell_length_c 6.449981
_cell_angle_alpha 90.000000
_cell_angle_beta 90.000000
_cell_angle_gamma 90.000000
_cell_volume 3190.961990
_symmetry_space_group_name_H-M "F D D 2"
_symmetry_group_IT_number 43
_symmetry_cell_setting 'orthorhombic'
loop_
_space_group_symop_operation_xyz
x,y,z
-x,-y,z
1/4-x,1/4+y,1/4+z
1/4+x,1/4-y,1/4+z
x,1/2+y,1/2+z
-x,1/2-y,1/2+z
1/4-x,3/4+y,3/4+z
1/4+x,3/4-y,3/4+z
1/2+x,y,1/2+z
1/2-x,-y,1/2+z
3/4-x,1/4+y,3/4+z
3/4+x,1/4-y,3/4+z
1/2+x,1/2+y,z
1/2-x,1/2-y,z
3/4-x,3/4+y,1/4+z
3/4+x,3/4-y,1/4+z
loop_
_atom_site_type_symbol
_atom_site_label
_atom_site_fract_x
_atom_site_fract_y
_atom_site_fract_z
Si Si1 0.208777 0.587091 0.413420
Si Si2 0.579750 0.701476 0.139189
Si Si3 0.685088 0.158547 0.822035
Si Si4 0.529308 0.084293 0.854376
Si Si5 0.117257 0.295227 0.831286
O O1 0.212108 0.508280 0.465397
O O2 0.209096 0.638402 0.601240
O O3 0.255005 0.610152 0.259823
O O4 0.150923 0.586171 0.290081
O O5 0.595305 0.723359 0.905527
O O6 0.633768 0.705094 0.278814
O O7 0.559497 0.626911 0.175916
O O8 0.725973 0.190499 0.984537
O O9 0.665225 0.087065 0.910974
O O10 0.571943 0.044697 0.997118
#
# Coordination Sequence:
#
# PCOD9370745 Si02
#       5
#    16  16  16  16  16
#     4   9  21  38  63  95 129 175 223 271 338 395
#     4   9  21  41  62  92 133 173 215 276 335 399
#     4  10  20  39  64  95 132 174 222 280 331 400
#     4  10  20  39  65  97 134 174 226 277 330 410
#     4   8  20  41  59  94 129 171 219 274 333 397
#
# _framework density 25.070810000000002
#
# number of rings (size 3 to 8) (size 9 to 14) (size 15 to 20)
#    1.200    1.600    0.000    0.000    2.800    3.200 
#   10.800    1.000    4.400    0.000    0.000    0.000 
#    0.000    0.000    0.000    0.000    0.000    0.000 
#
# Total GULP energy -111465.193174 kJ/mol
# GULP energy per Si atom -5573.259659 kJ/mol
# Density = 2.501375 g / cm^3
# Si number density = 25.070810 Si / 1000 Ang^3
#
#
#
# Elastic Constant Matrix: (Units=GPa)
#
#
# Indices 1 2 3 4 5 6 
#
# 1 84.1850 -1.3512 32.1966 -0.0003 0.0003 0.0001
# 2 -1.3512 35.9954 12.4639 -0.0012 0.0007 0.0003
# 3 32.1966 12.4639 86.9204 -0.0025 0.0016 0.0006
# 4 -0.0003 -0.0012 -0.0025 32.5128 0.0010 0.0006
# 5 0.0003 0.0007 0.0016 0.0010 46.2371 -0.0003
# 6 0.0001 0.0003 0.0006 0.0006 -0.0003 27.9832
#
#
#
# Elastic Compliance Matrix: (Units=1/GPa)
#
#
# Indices 1 2 3 4 5 6 
#
# 1 0.014041 0.002450 -0.005552 0.000000 0.000000 0.000000
# 2 0.002450 0.029660 -0.005161 0.000001 0.000000 0.000000
# 3 -0.005552 -0.005161 0.014301 0.000001 0.000000 0.000000
# 4 0.000000 0.000001 0.000001 0.030757 -0.000001 -0.000001
# 5 0.000000 0.000000 0.000000 -0.000001 0.021628 0.000000
# 6 0.000000 0.000000 0.000000 -0.000001 0.000000 0.035736
#
#
# Mechanical properties :
#
#
# Convention : Reuss Voigt Hill
#
# Bulk Modulus (GPa) = 24.10997 32.63548 28.37273
# Shear Modulus (GPa) = 28.33253 32.26607 30.29930
#
# Velocity S-wave (km/s) = 3.36534 3.59137 3.48019
# Velocity P-wave (km/s) = 4.97377 5.49935 5.24315
#
# Compressibility (1/GPa) = 0.04147662
#
# Stress axis : x y z
#
# Youngs Moduli (GPa) = 71.21768 33.71523 69.92287
#
# Poissons Ratio (x) = -0.08259 0.38824
# Poissons Ratio (y) = -0.17446 0.36084
# Poissons Ratio (z) = 0.39543 0.17399
#
# Static dielectric constant tensor:
#      x y z
#    x 2.024450 0.000000 0.000000 
#    y 0.000000 2.097860 0.000000 
#    z 0.000000 0.000000 1.952050 
# 
# From -- ./inp_files/1197.got.cif
#   From: 2010.05.17/outbox.cif.g08.bks.cpg/sg43_1_cif.got.tgz:1197.got - 2010.06.03 19:21:55.
