data_PCOD9370924
_publ_section_title
;
Structure prediction by ZEFSAII (Michael W. Deem and Ramdas Pophale) SiO2 
 PCOD9370924
Probable space group: F D D 2
;
_chemical_formula_sum "Si O2"
_cell_formula_units_Z 120
_cell_length_a 26.135813
_cell_length_b 26.397002
_cell_length_c 8.500914
_cell_angle_alpha 90.000000
_cell_angle_beta 90.000000
_cell_angle_gamma 90.000000
_cell_volume 5864.840993
_symmetry_space_group_name_H-M "F D D 2"
_symmetry_group_IT_number 43
_symmetry_cell_setting 'orthorhombic'
loop_
_space_group_symop_operation_xyz
x,y,z
-x,-y,z
1/4-x,1/4+y,1/4+z
1/4+x,1/4-y,1/4+z
x,1/2+y,1/2+z
-x,1/2-y,1/2+z
1/4-x,3/4+y,3/4+z
1/4+x,3/4-y,3/4+z
1/2+x,y,1/2+z
1/2-x,-y,1/2+z
3/4-x,1/4+y,3/4+z
3/4+x,1/4-y,3/4+z
1/2+x,1/2+y,z
1/2-x,1/2-y,z
3/4-x,3/4+y,1/4+z
3/4+x,3/4-y,1/4+z
loop_
_atom_site_type_symbol
_atom_site_label
_atom_site_fract_x
_atom_site_fract_y
_atom_site_fract_z
Si Si1 0.292087 0.456522 0.848670
Si Si2 0.869740 0.098113 0.249558
Si Si3 0.980328 0.097754 0.108794
Si Si4 0.332352 0.291386 0.775218
Si Si5 0.000000 0.000000 0.284233
Si Si6 0.225329 0.443395 0.548593
Si Si7 0.143582 0.308166 0.939493
Si Si8 0.005010 0.394490 0.241425
O O1 0.267611 0.460931 0.675325
O O2 0.349986 0.436544 0.821604
O O3 0.290457 0.509065 0.941817
O O4 0.258762 0.413723 0.937149
O O5 0.922057 0.088304 0.159037
O O6 0.876527 0.071703 0.420908
O O7 0.822156 0.078191 0.150383
O O8 0.869048 0.157627 0.287775
O O9 0.010032 0.048890 0.176451
O O10 0.002048 0.147729 0.193920
O O11 0.980879 0.102141 0.922930
O O12 0.297079 0.261807 0.649478
O O13 0.355536 0.250363 0.891928
O O14 0.294149 0.326964 0.874189
O O15 0.199810 0.328730 0.980758
#
# Coordination Sequence:
#
# PCOD9370924 Si02
#       8
#    16  16  16  16   8  16  16  16
#     4  12  27  45  73 105 144 190 239 288 374 423
#     4  11  25  46  71 100 140 188 234 288 357 440
#     4  11  26  44  69 105 141 183 239 293 356 429
#     4  11  23  42  72 100 134 185 236 291 357 425
#     4  10  20  42  68  98 134 178 232 290 348 410
#     4  12  26  48  70 104 148 191 236 301 359 432
#     4  12  24  43  75  98 135 189 233 291 357 429
#     4  12  25  46  71 106 144 182 240 301 354 435
#
# _framework density 20.460913999999999
#
# number of rings (size 3 to 8) (size 9 to 14) (size 15 to 20)
#    0.000    0.533    5.333    2.400    5.600    4.267 
#    0.000    0.000    0.000    0.000    0.000    0.000 
#    0.000    0.000    0.000    0.000    0.000    0.000 
#
# Total GULP energy -167697.182334 kJ/mol
# GULP energy per Si atom -5589.906078 kJ/mol
# Density = 2.041434 g / cm^3
# Si number density = 20.460914 Si / 1000 Ang^3
#
#
#
# Elastic Constant Matrix: (Units=GPa)
#
#
# Indices 1 2 3 4 5 6 
#
# 1 87.6691 18.3832 27.0874 -0.0004 -0.0004 -0.0019
# 2 18.3832 92.6376 27.4294 -0.0043 0.0036 -0.0001
# 3 27.0874 27.4294 86.8008 -0.0059 0.0033 -0.0012
# 4 -0.0004 -0.0043 -0.0059 43.6925 0.0031 -0.0002
# 5 -0.0004 0.0036 0.0033 0.0031 25.2258 0.0003
# 6 -0.0019 -0.0001 -0.0012 -0.0002 0.0003 15.5560
#
#
#
# Elastic Compliance Matrix: (Units=1/GPa)
#
#
# Indices 1 2 3 4 5 6 
#
# 1 0.012810 -0.001499 -0.003524 0.000000 0.000001 0.000001
# 2 -0.001499 0.012084 -0.003351 0.000001 -0.000001 0.000000
# 3 -0.003524 -0.003351 0.013679 0.000001 -0.000001 0.000001
# 4 0.000000 0.000001 0.000001 0.022887 -0.000003 0.000000
# 5 0.000001 -0.000001 -0.000001 -0.000003 0.039642 -0.000001
# 6 0.000001 0.000000 0.000001 0.000000 -0.000001 0.064284
#
#
# Mechanical properties :
#
#
# Convention : Reuss Voigt Hill
#
# Bulk Modulus (GPa) = 45.81647 45.87860 45.84753
# Shear Modulus (GPa) = 26.39799 29.84204 28.12002
#
# Velocity S-wave (km/s) = 3.59579 3.82316 3.71122
# Velocity P-wave (km/s) = 6.29924 6.47765 6.38907
#
# Compressibility (1/GPa) = 0.02182621
#
# Stress axis : x y z
#
# Youngs Moduli (GPa) = 78.06685 82.75160 73.10346
#
# Poissons Ratio (x) = 0.12401 0.25761
# Poissons Ratio (y) = 0.11699 0.24497
# Poissons Ratio (z) = 0.27510 0.27731
#
# Static dielectric constant tensor:
#      x y z
#    x 1.764490 0.000000 0.000010 
#    y 0.000000 1.737350 -0.000010 
#    z 0.000010 -0.000010 1.720030 
# 
# From -- ./inp_files/4356.got.cif
#   From: 2010.05.17/outbox.cif.g08.bks.cpg/sg43_3_cif.got.tgz:4356.got - 2010.06.03 19:21:55.
