data_PCOD9370299
_publ_section_title
;
Structure prediction by ZEFSAII (Michael W. Deem and Ramdas Pophale) SiO2 
 PCOD9370299
Probable space group: F D D 2
;
_chemical_formula_sum "Si O2"
_cell_formula_units_Z 80
_cell_length_a 9.318232
_cell_length_b 18.088766
_cell_length_c 18.128827
_cell_angle_alpha 90.000000
_cell_angle_beta 90.000000
_cell_angle_gamma 90.000000
_cell_volume 3055.710203
_symmetry_space_group_name_H-M "F D D 2"
_symmetry_group_IT_number 43
_symmetry_cell_setting 'orthorhombic'
loop_
_space_group_symop_operation_xyz
x,y,z
-x,-y,z
1/4-x,1/4+y,1/4+z
1/4+x,1/4-y,1/4+z
x,1/2+y,1/2+z
-x,1/2-y,1/2+z
1/4-x,3/4+y,3/4+z
1/4+x,3/4-y,3/4+z
1/2+x,y,1/2+z
1/2-x,-y,1/2+z
3/4-x,1/4+y,3/4+z
3/4+x,1/4-y,3/4+z
1/2+x,1/2+y,z
1/2-x,1/2-y,z
3/4-x,3/4+y,1/4+z
3/4+x,3/4-y,1/4+z
loop_
_atom_site_type_symbol
_atom_site_label
_atom_site_fract_x
_atom_site_fract_y
_atom_site_fract_z
Si Si1 0.508212 0.342976 0.277180
Si Si2 0.040783 0.348083 0.187218
Si Si3 0.750000 0.250000 0.836824
Si Si4 0.914579 0.705156 0.618185
Si Si5 0.310440 0.870365 0.600935
Si Si6 0.500000 0.000000 0.112952
O O1 0.359887 0.297271 0.287155
O O2 0.458403 0.420085 0.315772
O O3 0.572243 0.342641 0.194580
O O4 0.627237 0.293871 0.318674
O O5 0.199947 0.331742 0.155526
O O6 0.998875 0.351397 0.272965
O O7 0.934834 0.288793 0.148654
O O8 0.047076 0.433049 0.163438
O O9 0.854845 0.193821 0.879962
O O10 0.064671 0.686680 0.579048
#
# Coordination Sequence:
#
# PCOD9370299 Si02
#       6
#    16  16   8  16  16   8
#     4  11  25  50  76 114 160 213 264 341 406 487
#     4  12  25  45  75 113 160 202 272 330 414 482
#     4  10  18  44  71 103 146 202 248 318 394 466
#     4  11  25  46  82 114 157 208 277 331 412 487
#     4  11  23  42  76 110 150 205 259 331 395 486
#     4  12  28  48  75 111 164 210 260 344 408 482
#
# _framework density 26.180493999999999
#
# number of rings (size 3 to 8) (size 9 to 14) (size 15 to 20)
#    0.000    0.800    4.000    3.000    2.800    4.000 
#    0.000    4.000    0.000    0.000    0.000    0.000 
#    0.000    0.000    0.000    0.000    0.000    0.000 
#
# Total GULP energy -111429.147671 kJ/mol
# GULP energy per Si atom -5571.457384 kJ/mol
# Density = 2.612091 g / cm^3
# Si number density = 26.180494 Si / 1000 Ang^3
#
#
#
# Elastic Constant Matrix: (Units=GPa)
#
#
# Indices 1 2 3 4 5 6 
#
# 1 85.9783 15.8031 38.2706 0.0000 0.0000 0.0000
# 2 15.8031 158.8209 28.5053 0.0000 0.0000 0.0000
# 3 38.2706 28.5053 91.3242 0.0000 0.0000 0.0000
# 4 0.0000 0.0000 0.0000 27.3592 0.0000 0.0000
# 5 0.0000 0.0000 0.0000 0.0000 73.7277 0.0000
# 6 0.0000 0.0000 0.0000 0.0000 0.0000 -40.5274
#
#
#
# Elastic Compliance Matrix: (Units=1/GPa)
#
#
# Indices 1 2 3 4 5 6 
#
# 1 0.014318 -0.000368 -0.005885 0.000000 0.000000 0.000000
# 2 -0.000368 0.006680 -0.001931 0.000000 0.000000 0.000000
# 3 -0.005885 -0.001931 0.014019 0.000000 0.000000 0.000000
# 4 0.000000 0.000000 0.000000 0.036551 0.000000 0.000000
# 5 0.000000 0.000000 0.000000 0.000000 0.013563 0.000000
# 6 0.000000 0.000000 0.000000 0.000000 0.000000 -0.024675
#
#
# Mechanical properties :
#
#
# Convention : Reuss Voigt Hill
#
# Bulk Modulus (GPa) = 53.62425 55.69792 54.66108
# Shear Modulus (GPa) = 60.21149 29.01483 44.61316
#
# Velocity S-wave (km/s) = 4.80089 3.33267 4.13251
# Velocity P-wave (km/s) = 7.15949 6.01080 6.61015
#
# Compressibility (1/GPa) = 0.01864828
#
# Stress axis : x y z
#
# Youngs Moduli (GPa) = 69.84123 149.71065 71.33248
#
# Poissons Ratio (x) = 0.05516 0.41981
# Poissons Ratio (y) = 0.02573 0.13771
# Poissons Ratio (z) = 0.41103 0.28902
#
# Static dielectric constant tensor:
#      x y z
#    x 0.950030 0.000000 0.000000 
#    y 0.000000 2.151540 0.000000 
#    z 0.000000 0.000000 2.081580 
# 
# From -- ./inp_files/12784.got.cif
#   From: 2010.05.17/outbox.cif.g08.bks.cpg/sg43_7_cif.got.tgz:12784.got - 2010.06.03 19:21:55.
