data_PCOD9370214
_publ_section_title
;
Structure prediction by ZEFSAII (Michael W. Deem and Ramdas Pophale) SiO2 
 PCOD9370214
Probable space group: F D D 2
;
_chemical_formula_sum "Si O2"
_cell_formula_units_Z 80
_cell_length_a 22.474059
_cell_length_b 27.196494
_cell_length_c 4.925531
_cell_angle_alpha 90.000000
_cell_angle_beta 90.000000
_cell_angle_gamma 90.000000
_cell_volume 3010.561438
_symmetry_space_group_name_H-M "F D D 2"
_symmetry_group_IT_number 43
_symmetry_cell_setting 'orthorhombic'
loop_
_space_group_symop_operation_xyz
x,y,z
-x,-y,z
1/4-x,1/4+y,1/4+z
1/4+x,1/4-y,1/4+z
x,1/2+y,1/2+z
-x,1/2-y,1/2+z
1/4-x,3/4+y,3/4+z
1/4+x,3/4-y,3/4+z
1/2+x,y,1/2+z
1/2-x,-y,1/2+z
3/4-x,1/4+y,3/4+z
3/4+x,1/4-y,3/4+z
1/2+x,1/2+y,z
1/2-x,1/2-y,z
3/4-x,3/4+y,1/4+z
3/4+x,3/4-y,1/4+z
loop_
_atom_site_type_symbol
_atom_site_label
_atom_site_fract_x
_atom_site_fract_y
_atom_site_fract_z
Si Si1 0.032579 0.863872 0.588710
Si Si2 0.865182 0.888342 0.302629
Si Si3 0.836093 0.736443 0.637352
Si Si4 0.814127 0.296401 0.645046
Si Si5 0.032490 0.729715 0.972976
O O1 0.074769 0.867834 0.323226
O O2 0.270392 0.834573 0.492623
O O3 0.978304 0.828332 0.526834
O O4 0.073557 0.838379 0.817781
O O5 0.871074 0.833078 0.184215
O O6 0.916797 0.927954 0.340567
O O7 0.801650 0.773089 0.434907
O O8 0.903962 0.752473 0.575873
O O9 0.823776 0.751825 0.943100
O O10 0.984536 0.757643 0.165275
#
# Coordination Sequence:
#
# PCOD9370214 Si02
#       5
#    16  16  16  16  16
#     4  10  18  36  48  70 119 136 163 219 267 317
#     4  10  19  34  51  73 111 138 172 223 253 318
#     4  12  20  32  57  80 107 142 179 212 275 328
#     4  10  21  34  48  79 109 141 184 211 256 336
#     4  12  20  32  52  84 111 139 169 216 289 340
#
# _framework density 26.573118000000001
#
# number of rings (size 3 to 8) (size 9 to 14) (size 15 to 20)
#    1.200    0.000    6.000    2.400    0.000    0.000 
#    0.000    0.000    0.000    0.000    0.000    8.400 
#    0.000    0.000    0.000    0.000    0.000    0.000 
#
# Total GULP energy -111752.209557 kJ/mol
# GULP energy per Si atom -5587.610478 kJ/mol
# Density = 2.651264 g / cm^3
# Si number density = 26.573118 Si / 1000 Ang^3
#
#
#
# Elastic Constant Matrix: (Units=GPa)
#
#
# Indices 1 2 3 4 5 6 
#
# 1 62.6013 12.0952 -4.2661 -0.3601 0.1353 0.0649
# 2 12.0952 172.9931 18.6145 -0.4079 0.2272 0.1401
# 3 -4.2661 18.6145 139.6139 -0.5021 0.2200 0.0906
# 4 -0.3601 -0.4079 -0.5021 34.2780 0.2390 0.1962
# 5 0.1353 0.2272 0.2200 0.2390 -11.6556 -0.1022
# 6 0.0649 0.1401 0.0906 0.1962 -0.1022 19.4805
#
#
#
# Elastic Compliance Matrix: (Units=1/GPa)
#
#
# Indices 1 2 3 4 5 6 
#
# 1 0.016253 -0.001207 0.000658 0.000165 0.000181 -0.000049
# 2 -0.001207 0.005954 -0.000831 0.000046 0.000088 -0.000035
# 3 0.000658 -0.000831 0.007294 0.000103 0.000132 -0.000030
# 4 0.000165 0.000046 0.000103 0.029174 0.000606 -0.000292
# 5 0.000181 0.000088 0.000132 0.000606 -0.085773 -0.000458
# 6 -0.000049 -0.000035 -0.000030 -0.000292 -0.000458 0.051334
#
#
# Mechanical properties :
#
#
# Convention : Reuss Voigt Hill
#
# Bulk Modulus (GPa) = 37.39545 47.56616 42.48080
# Shear Modulus (GPa) = 139.23524 31.67155 85.45339
#
# Velocity S-wave (km/s) = 7.24643 3.45608 5.67694
# Velocity P-wave (km/s) = 9.17156 5.81936 7.68058
#
# Compressibility (1/GPa) = 0.02674122
#
# Stress axis : x y z
#
# Youngs Moduli (GPa) = 61.52808 167.94381 137.10545
#
# Poissons Ratio (x) = 0.20270 -0.09020
# Poissons Ratio (y) = 0.07426 0.11390
# Poissons Ratio (z) = -0.04048 0.13951
#
# Static dielectric constant tensor:
#      x y z
#    x 2.192560 0.001140 0.000160 
#    y 0.001140 1.966760 -0.000820 
#    z 0.000160 -0.000820 1.983640 
# 
# From -- ./inp_files/963.got.cif
#   From: 2010.05.17/outbox.cif.g08.bks.cpg/sg43_1_cif.got.tgz:963.got - 2010.06.03 19:21:55.
