data_PCOD9370787
_publ_section_title
;
Structure prediction by ZEFSAII (Michael W. Deem and Ramdas Pophale) SiO2 
 PCOD9370787
Probable space group: F D D 2
;
_chemical_formula_sum "Si O2"
_cell_formula_units_Z 120
_cell_length_a 8.578083
_cell_length_b 24.113379
_cell_length_c 27.590628
_cell_angle_alpha 90.000000
_cell_angle_beta 90.000000
_cell_angle_gamma 90.000000
_cell_volume 5707.026669
_symmetry_space_group_name_H-M "F D D 2"
_symmetry_group_IT_number 43
_symmetry_cell_setting 'orthorhombic'
loop_
_space_group_symop_operation_xyz
x,y,z
-x,-y,z
1/4-x,1/4+y,1/4+z
1/4+x,1/4-y,1/4+z
x,1/2+y,1/2+z
-x,1/2-y,1/2+z
1/4-x,3/4+y,3/4+z
1/4+x,3/4-y,3/4+z
1/2+x,y,1/2+z
1/2-x,-y,1/2+z
3/4-x,1/4+y,3/4+z
3/4+x,1/4-y,3/4+z
1/2+x,1/2+y,z
1/2-x,1/2-y,z
3/4-x,3/4+y,1/4+z
3/4+x,3/4-y,1/4+z
loop_
_atom_site_type_symbol
_atom_site_label
_atom_site_fract_x
_atom_site_fract_y
_atom_site_fract_z
Si Si1 0.048450 0.389189 0.228730
Si Si2 0.118439 0.383916 0.852006
Si Si3 0.309595 0.811463 0.006442
Si Si4 0.303350 0.952523 0.183172
Si Si5 0.338533 0.530670 0.434961
Si Si6 0.767514 0.640827 0.088697
Si Si7 0.171415 0.574947 0.672563
Si Si8 0.250000 0.750000 0.653988
O O1 0.215806 0.384526 0.203720
O O2 0.981171 0.439788 0.196841
O O3 0.948389 0.334163 0.218245
O O4 0.047506 0.399717 0.285268
O O5 0.125617 0.441092 0.882749
O O6 0.301384 0.370536 0.841114
O O7 0.038483 0.397113 0.800810
O O8 0.036842 0.338748 0.886841
O O9 0.250000 0.750000 0.020273
O O10 0.485415 0.810596 0.987350
O O11 0.230399 0.825606 0.955312
O O12 0.232454 0.011889 0.171341
O O13 0.500000 0.500000 0.449355
O O14 0.169944 0.499230 0.431465
O O15 0.664316 0.597342 0.118665
O O16 0.758857 0.697075 0.119087
#
# Coordination Sequence:
#
# PCOD9370787 Si02
#       8
#    16  16  16  16  16  16  16   8
#     4  11  22  40  62  96 122 164 216 254 322 391
#     4  10  20  40  62  97 123 159 220 264 312 395
#     4  10  22  38  64  94 128 166 217 267 320 388
#     4  10  21  39  65  89 126 167 206 257 324 378
#     4  10  22  42  65  94 134 167 212 273 327 384
#     4  11  23  39  64  92 129 160 219 263 316 385
#     4  11  23  41  61  93 129 164 207 269 317 385
#     4  10  22  42  66  94 128 170 212 274 318 380
#
# _framework density 21.026710000000001
#
# number of rings (size 3 to 8) (size 9 to 14) (size 15 to 20)
#    0.000    1.600    5.333    0.800    1.867    5.333 
#    2.400    0.000    4.400    0.000    0.000    0.000 
#    0.000    0.000    0.000    0.000    0.000    0.000 
#
# Total GULP energy -167048.106329 kJ/mol
# GULP energy per Si atom -5568.270211 kJ/mol
# Density = 2.097885 g / cm^3
# Si number density = 21.026710 Si / 1000 Ang^3
#
#
#
# Elastic Constant Matrix: (Units=GPa)
#
#
# Indices 1 2 3 4 5 6 
#
# 1 56.7111 11.1798 0.2758 0.0000 0.0000 0.0000
# 2 11.1798 64.3223 35.0199 0.0000 0.0000 0.0000
# 3 0.2758 35.0199 86.4666 0.0000 0.0000 0.0000
# 4 0.0000 0.0000 0.0000 -5.9236 0.0000 0.0000
# 5 0.0000 0.0000 0.0000 0.0000 23.4092 0.0000
# 6 0.0000 0.0000 0.0000 0.0000 0.0000 24.0074
#
#
#
# Elastic Compliance Matrix: (Units=1/GPa)
#
#
# Indices 1 2 3 4 5 6 
#
# 1 0.018427 -0.004068 0.001589 0.000000 0.000000 0.000000
# 2 -0.004068 0.020843 -0.008429 0.000000 0.000000 0.000000
# 3 0.001589 -0.008429 0.014974 0.000000 0.000000 0.000000
# 4 0.000000 0.000000 0.000000 -0.168816 0.000000 0.000000
# 5 0.000000 0.000000 0.000000 0.000000 0.042718 0.000000
# 6 0.000000 0.000000 0.000000 0.000000 0.000000 0.041654
#
#
# Mechanical properties :
#
#
# Convention : Reuss Voigt Hill
#
# Bulk Modulus (GPa) = 30.83702 33.38344 32.11023
# Shear Modulus (GPa) = 2062.10179 19.03357 1040.56768
#
# Velocity S-wave (km/s) = 31.35020 3.01193 22.27001
# Velocity P-wave (km/s) = 36.40253 5.29215 26.01106
#
# Compressibility (1/GPa) = 0.03242856
#
# Stress axis : x y z
#
# Youngs Moduli (GPa) = 54.26689 47.97864 66.78362
#
# Poissons Ratio (x) = 0.19517 -0.10610
# Poissons Ratio (y) = 0.22075 0.56289
# Poissons Ratio (z) = -0.08622 0.40439
#
# Static dielectric constant tensor:
#      x y z
#    x 1.882870 0.000000 0.000000 
#    y 0.000000 1.791770 0.000000 
#    z 0.000000 0.000000 1.726340 
# 
# From -- ./inp_files/24465.got.cif
#   From: 2010.05.17/outbox.cif.g08.bks.cpg/sg43_13_cif.got.tgz:24465.got - 2010.06.03 19:21:55.
