data_PCOD9370608
_publ_section_title
;
Structure prediction by ZEFSAII (Michael W. Deem and Ramdas Pophale) SiO2 
 PCOD9370608
Probable space group: F D D 2
;
_chemical_formula_sum "Si O2"
_cell_formula_units_Z 120
_cell_length_a 23.676817
_cell_length_b 26.336408
_cell_length_c 10.280202
_cell_angle_alpha 90.000000
_cell_angle_beta 90.000000
_cell_angle_gamma 90.000000
_cell_volume 6410.346534
_symmetry_space_group_name_H-M "F D D 2"
_symmetry_group_IT_number 43
_symmetry_cell_setting 'orthorhombic'
loop_
_space_group_symop_operation_xyz
x,y,z
-x,-y,z
1/4-x,1/4+y,1/4+z
1/4+x,1/4-y,1/4+z
x,1/2+y,1/2+z
-x,1/2-y,1/2+z
1/4-x,3/4+y,3/4+z
1/4+x,3/4-y,3/4+z
1/2+x,y,1/2+z
1/2-x,-y,1/2+z
3/4-x,1/4+y,3/4+z
3/4+x,1/4-y,3/4+z
1/2+x,1/2+y,z
1/2-x,1/2-y,z
3/4-x,3/4+y,1/4+z
3/4+x,3/4-y,1/4+z
loop_
_atom_site_type_symbol
_atom_site_label
_atom_site_fract_x
_atom_site_fract_y
_atom_site_fract_z
Si Si1 0.026233 0.390781 0.111760
Si Si2 0.860497 0.947714 0.877494
Si Si3 0.250000 0.250000 0.758886
Si Si4 0.065686 0.629596 0.297811
Si Si5 0.422947 0.746033 0.898696
Si Si6 0.834317 0.105309 0.253769
Si Si7 0.808510 0.014153 0.649138
Si Si8 0.378955 0.962522 0.916790
O O1 0.998894 0.373641 0.247743
O O2 0.082543 0.358384 0.107054
O O3 0.021714 0.450982 0.090883
O O4 0.982833 0.368043 0.004086
O O5 0.922211 0.928150 0.840752
O O6 0.833908 0.985710 0.773463
O O7 0.851342 0.971036 0.018336
O O8 0.306374 0.233264 0.680134
O O9 0.070589 0.675633 0.397841
O O10 0.089668 0.759442 0.273130
O O11 0.095274 0.646599 0.159932
O O12 0.405796 0.804557 0.924353
O O13 0.491106 0.743471 0.893506
O O14 0.398219 0.719148 0.026293
O O15 0.867396 0.153455 0.202084
#
# Coordination Sequence:
#
# PCOD9370608 Si02
#       8
#    16  16   8  16  16  16  16  16
#     4   9  18  36  56  93 116 163 212 260 297 377
#     4  12  22  35  66  91 128 160 213 270 320 373
#     4  10  20  36  68  94 126 172 226 256 318 376
#     4  10  20  37  61  91 120 161 214 258 312 377
#     4  12  23  39  61 100 130 164 211 266 329 382
#     4   9  19  38  58  87 124 157 211 251 312 378
#     4  12  20  41  66  95 123 172 212 271 317 381
#     4  11  22  39  66  94 127 169 214 265 317 384
#
# _framework density 18.719736000000001
#
# number of rings (size 3 to 8) (size 9 to 14) (size 15 to 20)
#    0.800    0.533    5.333    1.600    0.000    1.067 
#    0.000    0.000    0.000    0.800    0.000    0.000 
#    0.000    0.000    0.000    0.000    0.000    0.000 
#
# Total GULP energy -167009.895964 kJ/mol
# GULP energy per Si atom -5566.996532 kJ/mol
# Density = 1.867713 g / cm^3
# Si number density = 18.719736 Si / 1000 Ang^3
#
#
#
# Elastic Constant Matrix: (Units=GPa)
#
#
# Indices 1 2 3 4 5 6 
#
# 1 51.7521 17.8591 31.1690 -0.0007 0.0002 0.0000
# 2 17.8591 124.0690 44.8214 -0.0002 0.0001 0.0000
# 3 31.1690 44.8214 115.0362 -0.0027 0.0006 0.0001
# 4 -0.0007 -0.0002 -0.0027 -2.4757 0.0010 0.0002
# 5 0.0002 0.0001 0.0006 0.0010 7.9507 0.0000
# 6 0.0000 0.0000 0.0001 0.0002 0.0000 23.2704
#
#
#
# Elastic Compliance Matrix: (Units=1/GPa)
#
#
# Indices 1 2 3 4 5 6 
#
# 1 0.023256 -0.001247 -0.005815 0.000000 0.000000 0.000000
# 2 -0.001247 0.009447 -0.003343 0.000003 0.000000 0.000000
# 3 -0.005815 -0.003343 0.011571 -0.000011 -0.000001 0.000000
# 4 0.000000 0.000003 -0.000011 -0.403930 0.000052 0.000003
# 5 0.000000 0.000000 -0.000001 0.000052 0.125776 0.000000
# 6 0.000000 0.000000 0.000000 0.000003 0.000000 0.042973
#
#
# Mechanical properties :
#
#
# Convention : Reuss Voigt Hill
#
# Bulk Modulus (GPa) = 42.61913 53.17296 47.89604
# Shear Modulus (GPa) = -30.81181 18.88292 -5.96444
#
# Velocity S-wave (km/s) = -4.06144 3.17948 -1.78692
# Velocity P-wave (km/s) = 0.90702 6.47651 4.62428
#
# Compressibility (1/GPa) = 0.02346364
#
# Stress axis : x y z
#
# Youngs Moduli (GPa) = 43.00055 105.85120 86.42177
#
# Poissons Ratio (x) = 0.13196 0.50257
# Poissons Ratio (y) = 0.05361 0.28892
# Poissons Ratio (z) = 0.25006 0.35387
#
# Static dielectric constant tensor:
#      x y z
#    x 1.700190 0.000000 0.000000 
#    y 0.000000 1.937940 0.000000 
#    z 0.000000 0.000000 1.634910 
# 
# From -- ./inp_files/4820.got.cif
#   From: 2010.05.17/outbox.cif.g08.bks.cpg/sg43_3_cif.got.tgz:4820.got - 2010.06.03 19:21:55.
