data_PCOD9370660
_publ_section_title
;
Structure prediction by ZEFSAII (Michael W. Deem and Ramdas Pophale) SiO2 
 PCOD9370660
Probable space group: F D D 2
;
_chemical_formula_sum "Si O2"
_cell_formula_units_Z 104
_cell_length_a 19.705487
_cell_length_b 27.780032
_cell_length_c 8.037073
_cell_angle_alpha 90.000000
_cell_angle_beta 90.000000
_cell_angle_gamma 90.000000
_cell_volume 4399.646942
_symmetry_space_group_name_H-M "F D D 2"
_symmetry_group_IT_number 43
_symmetry_cell_setting 'orthorhombic'
loop_
_space_group_symop_operation_xyz
x,y,z
-x,-y,z
1/4-x,1/4+y,1/4+z
1/4+x,1/4-y,1/4+z
x,1/2+y,1/2+z
-x,1/2-y,1/2+z
1/4-x,3/4+y,3/4+z
1/4+x,3/4-y,3/4+z
1/2+x,y,1/2+z
1/2-x,-y,1/2+z
3/4-x,1/4+y,3/4+z
3/4+x,1/4-y,3/4+z
1/2+x,1/2+y,z
1/2-x,1/2-y,z
3/4-x,3/4+y,1/4+z
3/4+x,3/4-y,1/4+z
loop_
_atom_site_type_symbol
_atom_site_label
_atom_site_fract_x
_atom_site_fract_y
_atom_site_fract_z
Si Si1 0.697963 0.898003 0.733690
Si Si2 0.887824 0.737146 0.224996
Si Si3 0.140896 0.691456 0.478327
Si Si4 0.104077 0.060043 0.316799
Si Si5 0.500000 0.000000 0.041289
Si Si6 0.608976 0.352217 0.524969
Si Si7 0.701687 0.988819 0.945768
O O1 0.664841 0.866018 0.586942
O O2 0.779723 0.894058 0.722662
O O3 0.661493 0.872274 0.891261
O O4 0.685337 0.953853 0.786683
O O5 0.855271 0.712318 0.383815
O O6 0.969137 0.737035 0.231105
O O7 0.865161 0.789529 0.164993
O O8 0.871826 0.701691 0.070716
O O9 0.210155 0.711886 0.402363
O O10 0.136640 0.635304 0.439861
O O11 0.084534 0.716397 0.357812
O O12 0.049803 0.029929 0.423350
O O13 0.174786 0.041937 0.400800
#
# Coordination Sequence:
#
# PCOD9370660 Si02
#       7
#    16  16  16  16   8  16  16
#     4  10  21  41  66  90 125 175 221 271 328 409
#     4  11  23  37  61 100 128 162 215 279 329 394
#     4  10  20  38  66  85 122 170 214 258 326 391
#     4  11  22  39  63  93 131 164 218 271 336 386
#     4  10  20  38  60  86 114 176 204 256 320 396
#     4  10  21  41  64  93 124 174 226 259 337 407
#     4   9  21  40  64  88 127 172 216 257 332 408
#
# _framework density 23.638259000000001
#
# number of rings (size 3 to 8) (size 9 to 14) (size 15 to 20)
#    0.000    1.846    1.538    2.769    0.000    3.077 
#    0.000    4.615    0.000    0.000    0.000    0.000 
#    0.000    0.000    0.000    0.000    0.000    0.000 
#
# Total GULP energy -145317.882008 kJ/mol
# GULP energy per Si atom -5589.149308 kJ/mol
# Density = 2.358446 g / cm^3
# Si number density = 23.638259 Si / 1000 Ang^3
#
#
#
# Elastic Constant Matrix: (Units=GPa)
#
#
# Indices 1 2 3 4 5 6 
#
# 1 72.3343 11.3811 29.0454 -0.0001 0.0002 0.0001
# 2 11.3811 122.7754 38.6818 0.0000 0.0001 0.0000
# 3 29.0454 38.6818 96.5843 0.0000 0.0005 0.0002
# 4 -0.0001 0.0000 0.0000 50.9588 0.0001 0.0000
# 5 0.0002 0.0001 0.0005 0.0001 11.7813 -0.0001
# 6 0.0001 0.0000 0.0002 0.0000 -0.0001 21.4306
#
#
#
# Elastic Compliance Matrix: (Units=1/GPa)
#
#
# Indices 1 2 3 4 5 6 
#
# 1 0.015724 0.000037 -0.004743 0.000000 0.000000 0.000000
# 2 0.000037 0.009321 -0.003744 0.000000 0.000000 0.000000
# 3 -0.004743 -0.003744 0.013280 0.000000 0.000000 0.000000
# 4 0.000000 0.000000 0.000000 0.019624 0.000000 0.000000
# 5 0.000000 0.000000 0.000000 0.000000 0.084880 0.000000
# 6 0.000000 0.000000 0.000000 0.000000 0.000000 0.046662
#
#
# Mechanical properties :
#
#
# Convention : Reuss Voigt Hill
#
# Bulk Modulus (GPa) = 46.67844 49.99007 48.33426
# Shear Modulus (GPa) = 23.41565 31.00652 27.21109
#
# Velocity S-wave (km/s) = 3.15077 3.62568 3.39653
# Velocity P-wave (km/s) = 5.74685 6.22264 5.98947
#
# Compressibility (1/GPa) = 0.02142317
#
# Stress axis : x y z
#
# Youngs Moduli (GPa) = 63.59897 107.28246 75.30342
#
# Poissons Ratio (x) = -0.00395 0.35718
# Poissons Ratio (y) = -0.00234 0.28195
# Poissons Ratio (z) = 0.30167 0.40169
#
# Static dielectric constant tensor:
#      x y z
#    x 1.863620 0.000000 0.000000 
#    y 0.000000 1.913340 0.000000 
#    z 0.000000 0.000000 1.943740 
# 
# From -- ./inp_files/3456.got.cif
#   From: 2010.05.17/outbox.cif.g08.bks.cpg/sg43_2_cif.got.tgz:3456.got - 2010.06.03 19:21:55.
