data_PCOD9370946
_publ_section_title
;
Structure prediction by ZEFSAII (Michael W. Deem and Ramdas Pophale) SiO2 
 PCOD9370946
Probable space group: F D D 2
;
_chemical_formula_sum "Si O2"
_cell_formula_units_Z 88
_cell_length_a 11.728259
_cell_length_b 14.847063
_cell_length_c 24.224168
_cell_angle_alpha 90.000000
_cell_angle_beta 90.000000
_cell_angle_gamma 90.000000
_cell_volume 4218.159225
_symmetry_space_group_name_H-M "F D D 2"
_symmetry_group_IT_number 43
_symmetry_cell_setting 'orthorhombic'
loop_
_space_group_symop_operation_xyz
x,y,z
-x,-y,z
1/4-x,1/4+y,1/4+z
1/4+x,1/4-y,1/4+z
x,1/2+y,1/2+z
-x,1/2-y,1/2+z
1/4-x,3/4+y,3/4+z
1/4+x,3/4-y,3/4+z
1/2+x,y,1/2+z
1/2-x,-y,1/2+z
3/4-x,1/4+y,3/4+z
3/4+x,1/4-y,3/4+z
1/2+x,1/2+y,z
1/2-x,1/2-y,z
3/4-x,3/4+y,1/4+z
3/4+x,3/4-y,1/4+z
loop_
_atom_site_type_symbol
_atom_site_label
_atom_site_fract_x
_atom_site_fract_y
_atom_site_fract_z
Si Si1 0.938356 0.711030 0.093190
Si Si2 0.877536 0.454211 0.899727
Si Si3 0.917318 0.412284 0.022027
Si Si4 0.175943 0.953275 0.075401
Si Si5 0.750000 0.750000 0.234191
Si Si6 0.782741 0.871831 0.130451
O O1 0.865427 0.803491 0.096543
O O2 0.842421 0.636631 0.104094
O O3 0.027732 0.723101 0.143215
O O4 0.012705 0.675373 0.042176
O O5 0.864342 0.384433 0.849560
O O6 0.000000 0.500000 0.893947
O O7 0.876776 0.406913 0.958808
O O8 0.804124 0.427021 0.058319
O O9 0.000000 0.500000 0.026009
O O10 0.176220 0.027606 0.123460
O O11 0.108884 0.996908 0.024173
O O12 0.768135 0.833034 0.191953
#
# Coordination Sequence:
#
# PCOD9370946 Si02
#       6
#    16  16  16  16   8  16
#     4  10  20  43  63  90 132 164 209 269 318 378
#     4  11  24  39  62  95 130 160 207 268 322 379
#     4  11  22  40  66  92 126 168 211 265 326 379
#     4  12  23  42  67  94 125 172 212 264 321 387
#     4  10  24  42  66  96 136 164 218 268 332 376
#     4  10  23  42  68  91 128 172 218 266 315 387
#
# _framework density 20.862181
#
# number of rings (size 3 to 8) (size 9 to 14) (size 15 to 20)
#    0.000    1.455    3.636    3.273    0.000    2.909 
#    0.000    0.000    4.000    0.000    0.000    0.000 
#    0.000    0.000    0.000    0.000    0.000    0.000 
#
# Total GULP energy -122732.372809 kJ/mol
# GULP energy per Si atom -5578.744219 kJ/mol
# Density = 2.081470 g / cm^3
# Si number density = 20.862181 Si / 1000 Ang^3
#
#
#
# Elastic Constant Matrix: (Units=GPa)
#
#
# Indices 1 2 3 4 5 6 
#
# 1 106.4319 14.5387 21.0930 0.0000 0.0000 0.0000
# 2 14.5387 53.6418 24.4162 0.0000 0.0000 0.0000
# 3 21.0930 24.4162 97.5896 0.0000 0.0000 0.0000
# 4 0.0000 0.0000 0.0000 28.6174 0.0000 0.0000
# 5 0.0000 0.0000 0.0000 0.0000 13.6030 0.0000
# 6 0.0000 0.0000 0.0000 0.0000 0.0000 21.7619
#
#
#
# Elastic Compliance Matrix: (Units=1/GPa)
#
#
# Indices 1 2 3 4 5 6 
#
# 1 0.009993 -0.001947 -0.001673 0.000000 0.000000 0.000000
# 2 -0.001947 0.021417 -0.004938 0.000000 0.000000 0.000000
# 3 -0.001673 -0.004938 0.011844 0.000000 0.000000 0.000000
# 4 0.000000 0.000000 0.000000 0.034944 0.000000 0.000000
# 5 0.000000 0.000000 0.000000 0.000000 0.073513 0.000000
# 6 0.000000 0.000000 0.000000 0.000000 0.000000 0.045952
#
#
# Mechanical properties :
#
#
# Convention : Reuss Voigt Hill
#
# Bulk Modulus (GPa) = 38.25631 41.97324 40.11478
# Shear Modulus (GPa) = 22.37222 25.97081 24.17151
#
# Velocity S-wave (km/s) = 3.27828 3.53211 3.40756
# Velocity P-wave (km/s) = 5.71900 6.06608 5.89509
#
# Compressibility (1/GPa) = 0.02613948
#
# Stress axis : x y z
#
# Youngs Moduli (GPa) = 100.06841 46.69102 84.43154
#
# Poissons Ratio (x) = 0.09091 0.14124
# Poissons Ratio (y) = 0.19484 0.41689
# Poissons Ratio (z) = 0.16739 0.23054
#
# Static dielectric constant tensor:
#      x y z
#    x 1.757500 0.000000 0.000000 
#    y 0.000000 1.717980 0.000000 
#    z 0.000000 0.000000 1.732380 
# 
# From -- ./inp_files/17061.got.cif
#   From: 2010.05.17/outbox.cif.g08.bks.cpg/sg43_9_cif.got.tgz:17061.got - 2010.06.03 19:21:55.
