data_PCOD9370464
_publ_section_title
;
Structure prediction by ZEFSAII (Michael W. Deem and Ramdas Pophale) SiO2 
 PCOD9370464
Probable space group: F D D 2
;
_chemical_formula_sum "Si O2"
_cell_formula_units_Z 112
_cell_length_a 23.720279
_cell_length_b 14.805243
_cell_length_c 13.673606
_cell_angle_alpha 90.000000
_cell_angle_beta 90.000000
_cell_angle_gamma 90.000000
_cell_volume 4801.958413
_symmetry_space_group_name_H-M "F D D 2"
_symmetry_group_IT_number 43
_symmetry_cell_setting 'orthorhombic'
loop_
_space_group_symop_operation_xyz
x,y,z
-x,-y,z
1/4-x,1/4+y,1/4+z
1/4+x,1/4-y,1/4+z
x,1/2+y,1/2+z
-x,1/2-y,1/2+z
1/4-x,3/4+y,3/4+z
1/4+x,3/4-y,3/4+z
1/2+x,y,1/2+z
1/2-x,-y,1/2+z
3/4-x,1/4+y,3/4+z
3/4+x,1/4-y,3/4+z
1/2+x,1/2+y,z
1/2-x,1/2-y,z
3/4-x,3/4+y,1/4+z
3/4+x,3/4-y,1/4+z
loop_
_atom_site_type_symbol
_atom_site_label
_atom_site_fract_x
_atom_site_fract_y
_atom_site_fract_z
Si Si1 0.948612 0.060621 0.317990
Si Si2 0.068482 0.744926 0.287168
Si Si3 0.615407 0.908530 0.446395
Si Si4 0.427900 0.251889 0.565908
Si Si5 0.690138 0.796674 0.052277
Si Si6 0.810933 0.240917 0.858204
Si Si7 0.058842 0.550542 0.072521
O O1 0.950666 0.165399 0.344336
O O2 0.888837 0.014742 0.336685
O O3 0.948752 0.056751 0.199580
O O4 0.000000 0.000000 0.353243
O O5 0.045508 0.752458 0.175059
O O6 0.055502 0.649908 0.338005
O O7 0.136464 0.750505 0.282698
O O8 0.572331 0.829596 0.487460
O O9 0.669650 0.853411 0.407246
O O10 0.599156 0.977819 0.360613
O O11 0.612348 0.973821 0.541476
O O12 0.445882 0.349835 0.526498
O O13 0.750000 0.750000 0.057285
O O14 0.676171 0.808388 0.938001
O O15 0.750000 0.250000 0.804435
O O16 0.000000 0.500000 0.065711
#
# Coordination Sequence:
#
# PCOD9370464 Si02
#       7
#    16  16  16  16  16  16  16
#     4   9  18  36  60  91 119 168 216 266 323 391
#     4  10  19  39  63  86 129 166 209 273 329 389
#     4  11  22  42  67  94 134 177 222 282 336 402
#     4   9  19  37  59  87 127 162 208 271 322 385
#     4  10  23  42  60  92 129 171 218 274 334 403
#     4  10  22  42  67  97 135 174 227 280 336 407
#     4   9  20  40  61  89 125 167 216 266 331 403
#
# _framework density 23.323816999999998
#
# number of rings (size 3 to 8) (size 9 to 14) (size 15 to 20)
#    0.000    2.286    1.429    0.429    2.000    0.571 
#   10.286    2.857    0.000    0.000    0.000    0.000 
#    0.000    0.000    0.000    0.000    0.000    0.000 
#
# Total GULP energy -155972.244632 kJ/mol
# GULP energy per Si atom -5570.437308 kJ/mol
# Density = 2.327073 g / cm^3
# Si number density = 23.323817 Si / 1000 Ang^3
#
#
#
# Elastic Constant Matrix: (Units=GPa)
#
#
# Indices 1 2 3 4 5 6 
#
# 1 63.6742 48.1555 8.0898 0.0000 0.0000 0.0000
# 2 48.1555 170.4560 28.5949 0.0000 0.0000 0.0000
# 3 8.0898 28.5949 71.9698 0.0000 0.0000 0.0000
# 4 0.0000 0.0000 0.0000 23.5581 0.0000 0.0000
# 5 0.0000 0.0000 0.0000 0.0000 13.3322 0.0000
# 6 0.0000 0.0000 0.0000 0.0000 0.0000 28.9690
#
#
#
# Elastic Compliance Matrix: (Units=1/GPa)
#
#
# Indices 1 2 3 4 5 6 
#
# 1 0.019972 -0.005642 -0.000003 0.000000 0.000000 0.000000
# 2 -0.005642 0.007879 -0.002496 0.000000 0.000000 0.000000
# 3 -0.000003 -0.002496 0.014887 0.000000 0.000000 0.000000
# 4 0.000000 0.000000 0.000000 0.042448 0.000000 0.000000
# 5 0.000000 0.000000 0.000000 0.000000 0.075006 0.000000
# 6 0.000000 0.000000 0.000000 0.000000 0.000000 0.034520
#
#
# Mechanical properties :
#
#
# Convention : Reuss Voigt Hill
#
# Bulk Modulus (GPa) = 37.79971 52.86450 45.33211
# Shear Modulus (GPa) = 22.74646 27.92249 25.33447
#
# Velocity S-wave (km/s) = 3.12628 3.46376 3.29934
# Velocity P-wave (km/s) = 5.41047 6.22186 5.83030
#
# Compressibility (1/GPa) = 0.02645523
#
# Stress axis : x y z
#
# Youngs Moduli (GPa) = 50.06973 126.91550 67.17279
#
# Poissons Ratio (x) = 0.71603 0.00023
# Poissons Ratio (y) = 0.28248 0.16769
# Poissons Ratio (z) = 0.00017 0.31683
#
# Static dielectric constant tensor:
#      x y z
#    x 1.895060 0.000000 0.000000 
#    y 0.000000 1.959630 0.000000 
#    z 0.000000 0.000000 2.011790 
# 
# From -- ./inp_files/11261.got.cif
#   From: 2010.05.17/outbox.cif.g08.bks.cpg/sg43_6_cif.got.tgz:11261.got - 2010.06.03 19:21:55.
