data_PCOD9370940
_publ_section_title
;
Structure prediction by ZEFSAII (Michael W. Deem and Ramdas Pophale) SiO2 
 PCOD9370940
Probable space group: F D D 2
;
_chemical_formula_sum "Si O2"
_cell_formula_units_Z 104
_cell_length_a 26.426291
_cell_length_b 29.060871
_cell_length_c 5.104564
_cell_angle_alpha 90.000000
_cell_angle_beta 90.000000
_cell_angle_gamma 90.000000
_cell_volume 3920.157292
_symmetry_space_group_name_H-M "F D D 2"
_symmetry_group_IT_number 43
_symmetry_cell_setting 'orthorhombic'
loop_
_space_group_symop_operation_xyz
x,y,z
-x,-y,z
1/4-x,1/4+y,1/4+z
1/4+x,1/4-y,1/4+z
x,1/2+y,1/2+z
-x,1/2-y,1/2+z
1/4-x,3/4+y,3/4+z
1/4+x,3/4-y,3/4+z
1/2+x,y,1/2+z
1/2-x,-y,1/2+z
3/4-x,1/4+y,3/4+z
3/4+x,1/4-y,3/4+z
1/2+x,1/2+y,z
1/2-x,1/2-y,z
3/4-x,3/4+y,1/4+z
3/4+x,3/4-y,1/4+z
loop_
_atom_site_type_symbol
_atom_site_label
_atom_site_fract_x
_atom_site_fract_y
_atom_site_fract_z
Si Si1 0.040998 0.414186 0.911860
Si Si2 0.133854 0.463532 0.042523
Si Si3 0.849874 0.905143 0.332496
Si Si4 0.550423 0.143758 0.999426
Si Si5 0.360208 0.228849 0.264721
Si Si6 0.754224 0.467163 0.938601
Si Si7 0.500000 0.500000 0.105197
O O1 0.085748 0.431012 0.096556
O O2 0.068900 0.390229 0.663948
O O3 0.011637 0.456944 0.791202
O O4 0.001820 0.381579 0.061058
O O5 0.178347 0.430051 0.955306
O O6 0.117661 0.494117 0.789972
O O7 0.250942 0.496358 0.173747
O O8 0.905325 0.893333 0.451232
O O9 0.867249 0.927842 0.056895
O O10 0.809092 0.942436 0.436588
O O11 0.535102 0.175725 0.750828
O O12 0.390440 0.255257 0.043372
O O13 0.300534 0.234205 0.201434
#
# Coordination Sequence:
#
# PCOD9370940 Si02
#       7
#    16  16  16  16  16  16   8
#     4   9  20  43  77 111 159 206 269 330 391 475
#     4  10  24  43  73 108 155 205 262 316 402 470
#     4  10  22  44  80 115 157 207 269 321 402 469
#     4  10  21  47  77 114 160 203 269 333 394 474
#     4  11  23  44  72 110 154 205 260 318 394 480
#     4  11  26  49  79 113 161 209 261 326 403 481
#     4  10  20  42  76 104 158 206 258 324 404 454
#
# _framework density 26.529548999999999
#
# number of rings (size 3 to 8) (size 9 to 14) (size 15 to 20)
#    0.000    1.846    1.538    0.923    0.000    7.385 
#    0.000   38.462    0.000    0.000    0.000    0.000 
#    0.000    0.000    0.000    0.000    0.000    0.000 
#
# Total GULP energy -145516.055575 kJ/mol
# GULP energy per Si atom -5596.771368 kJ/mol
# Density = 2.646917 g / cm^3
# Si number density = 26.529549 Si / 1000 Ang^3
#
#
#
# Elastic Constant Matrix: (Units=GPa)
#
#
# Indices 1 2 3 4 5 6 
#
# 1 152.9993 44.2350 20.7954 0.1543 -0.0258 -0.6175
# 2 44.2350 86.3512 22.3007 0.3120 -0.1979 -0.2872
# 3 20.7954 22.3007 101.6109 0.4436 -0.1579 -0.5696
# 4 0.1543 0.3120 0.4436 40.9400 -0.0248 -0.4017
# 5 -0.0258 -0.1979 -0.1579 -0.0248 10.9348 0.4641
# 6 -0.6175 -0.2872 -0.5696 -0.4017 0.4641 53.4974
#
#
#
# Elastic Compliance Matrix: (Units=1/GPa)
#
#
# Indices 1 2 3 4 5 6 
#
# 1 0.007727 -0.003763 -0.000755 0.000008 -0.000063 0.000062
# 2 -0.003763 0.014110 -0.002326 -0.000068 0.000213 0.000005
# 3 -0.000755 -0.002326 0.010508 -0.000092 0.000104 0.000089
# 4 0.000008 -0.000068 -0.000092 0.024429 0.000045 0.000182
# 5 -0.000063 0.000213 0.000104 0.000045 0.091490 -0.000792
# 6 0.000062 0.000005 0.000089 0.000182 -0.000792 0.018702
#
#
# Mechanical properties :
#
#
# Convention : Reuss Voigt Hill
#
# Bulk Modulus (GPa) = 53.60306 57.29150 55.44728
# Shear Modulus (GPa) = 26.75614 37.98311 32.36962
#
# Velocity S-wave (km/s) = 3.17920 3.78792 3.49683
# Velocity P-wave (km/s) = 5.80735 6.38540 6.10322
#
# Compressibility (1/GPa) = 0.01865565
#
# Stress axis : x y z
#
# Youngs Moduli (GPa) = 129.41869 70.87281 95.16956
#
# Poissons Ratio (x) = 0.26671 0.07188
# Poissons Ratio (y) = 0.48702 0.22135
# Poissons Ratio (z) = 0.09774 0.16484
#
# Static dielectric constant tensor:
#      x y z
#    x 2.133590 0.000040 0.000060 
#    y 0.000040 2.120300 -0.000220 
#    z 0.000060 -0.000220 2.050430 
# 
# From -- ./inp_files/3457.got.cif
#   From: 2010.05.17/outbox.cif.g08.bks.cpg/sg43_2_cif.got.tgz:3457.got - 2010.06.03 19:21:55.
