data_PCOD9370059
_publ_section_title
;
Structure prediction by ZEFSAII (Michael W. Deem and Ramdas Pophale) SiO2 
 PCOD9370059
Probable space group: F D D 2
;
_chemical_formula_sum "Si O2"
_cell_formula_units_Z 120
_cell_length_a 8.407390
_cell_length_b 21.051615
_cell_length_c 27.091446
_cell_angle_alpha 90.000000
_cell_angle_beta 90.000000
_cell_angle_gamma 90.000000
_cell_volume 4794.891659
_symmetry_space_group_name_H-M "F D D 2"
_symmetry_group_IT_number 43
_symmetry_cell_setting 'orthorhombic'
loop_
_space_group_symop_operation_xyz
x,y,z
-x,-y,z
1/4-x,1/4+y,1/4+z
1/4+x,1/4-y,1/4+z
x,1/2+y,1/2+z
-x,1/2-y,1/2+z
1/4-x,3/4+y,3/4+z
1/4+x,3/4-y,3/4+z
1/2+x,y,1/2+z
1/2-x,-y,1/2+z
3/4-x,1/4+y,3/4+z
3/4+x,1/4-y,3/4+z
1/2+x,1/2+y,z
1/2-x,1/2-y,z
3/4-x,3/4+y,1/4+z
3/4+x,3/4-y,1/4+z
loop_
_atom_site_type_symbol
_atom_site_label
_atom_site_fract_x
_atom_site_fract_y
_atom_site_fract_z
Si Si1 0.745323 0.084199 0.334230
Si Si2 0.750000 0.250000 0.439592
Si Si3 0.959171 0.814736 0.103423
Si Si4 0.229427 0.174620 0.662068
Si Si5 0.662277 0.504612 0.169876
Si Si6 0.787317 0.868389 0.014778
Si Si7 0.901049 0.614816 0.740890
Si Si8 0.789152 0.348003 0.698603
O O1 0.818048 0.099876 0.387390
O O2 0.603522 0.120594 0.306164
O O3 0.890812 0.097047 0.297217
O O4 0.719719 0.008657 0.337268
O O5 0.593813 0.260178 0.405732
O O6 0.753946 0.308571 0.478626
O O7 0.928664 0.850959 0.053005
O O8 0.818459 0.819043 0.144547
O O9 0.111565 0.844554 0.131706
O O10 0.250000 0.250000 0.659854
O O11 0.250735 0.152510 0.717830
O O12 0.500000 0.500000 0.137672
O O13 0.618707 0.452423 0.211834
O O14 0.692148 0.576071 0.188753
O O15 0.878637 0.917855 0.978269
O O16 0.049750 0.660278 0.729838
#
# Coordination Sequence:
#
# PCOD9370059 Si02
#       8
#    16   8  16  16  16  16  16  16
#     4  11  19  32  55  85 120 163 208 267 317 399
#     4  10  16  30  48  82 114 148 198 268 298 372
#     4  10  19  35  53  83 124 160 214 261 325 393
#     4   9  21  35  55  86 121 163 209 270 334 402
#     4   9  17  30  52  80 113 156 205 255 314 380
#     4  11  18  31  50  79 115 158 203 259 319 378
#     4  10  18  35  57  84 116 161 218 262 328 393
#     4   9  20  32  53  83 119 161 204 270 322 386
#
# _framework density 25.026633
#
# number of rings (size 3 to 8) (size 9 to 14) (size 15 to 20)
#    0.000    2.133    2.667    1.600    0.000    4.800 
#    0.000    0.000    0.000    1.600    0.000   20.533 
#    0.000    0.000    0.000    0.000    0.000    0.000 
#
# Total GULP energy -167065.712238 kJ/mol
# GULP energy per Si atom -5568.857075 kJ/mol
# Density = 2.496967 g / cm^3
# Si number density = 25.026633 Si / 1000 Ang^3
#
#
#
# Elastic Constant Matrix: (Units=GPa)
#
#
# Indices 1 2 3 4 5 6 
#
# 1 138.4194 10.5840 42.7306 0.0000 0.0000 0.0000
# 2 10.5840 27.4602 14.3673 0.0000 0.0000 0.0000
# 3 42.7306 14.3673 121.4262 0.0000 0.0000 0.0000
# 4 0.0000 0.0000 0.0000 17.9354 0.0000 0.0000
# 5 0.0000 0.0000 0.0000 0.0000 44.5842 0.0000
# 6 0.0000 0.0000 0.0000 0.0000 0.0000 20.9221
#
#
#
# Elastic Compliance Matrix: (Units=1/GPa)
#
#
# Indices 1 2 3 4 5 6 
#
# 1 0.008184 -0.001756 -0.002672 0.000000 0.000000 0.000000
# 2 -0.001756 0.039196 -0.004020 0.000000 0.000000 0.000000
# 3 -0.002672 -0.004020 0.009651 0.000000 0.000000 0.000000
# 4 0.000000 0.000000 0.000000 0.055756 0.000000 0.000000
# 5 0.000000 0.000000 0.000000 0.000000 0.022429 0.000000
# 6 0.000000 0.000000 0.000000 0.000000 0.000000 0.047796
#
#
# Mechanical properties :
#
#
# Convention : Reuss Voigt Hill
#
# Bulk Modulus (GPa) = 24.91570 46.96330 35.93950
# Shear Modulus (GPa) = 23.44256 31.32992 27.38624
#
# Velocity S-wave (km/s) = 3.06388 3.54201 3.31158
# Velocity P-wave (km/s) = 4.74276 5.96102 5.38645
#
# Compressibility (1/GPa) = 0.04013534
#
# Stress axis : x y z
#
# Youngs Moduli (GPa) = 122.19588 25.51259 103.61199
#
# Poissons Ratio (x) = 0.04480 0.27686
# Poissons Ratio (y) = 0.21460 0.41649
# Poissons Ratio (z) = 0.32651 0.10255
#
# Static dielectric constant tensor:
#      x y z
#    x 2.262810 0.000000 0.000000 
#    y 0.000000 1.960810 0.000000 
#    z 0.000000 0.000000 1.903350 
# 
# From -- ./inp_files/24461.got.cif
#   From: 2010.05.17/outbox.cif.g08.bks.cpg/sg43_13_cif.got.tgz:24461.got - 2010.06.03 19:21:55.
