data_PCOD9370926
_publ_section_title
;
Structure prediction by ZEFSAII (Michael W. Deem and Ramdas Pophale) SiO2 
 PCOD9370926
Probable space group: F D D 2
;
_chemical_formula_sum "Si O2"
_cell_formula_units_Z 80
_cell_length_a 20.086181
_cell_length_b 18.877439
_cell_length_c 7.897532
_cell_angle_alpha 90.000000
_cell_angle_beta 90.000000
_cell_angle_gamma 90.000000
_cell_volume 2994.551881
_symmetry_space_group_name_H-M "F D D 2"
_symmetry_group_IT_number 43
_symmetry_cell_setting 'orthorhombic'
loop_
_space_group_symop_operation_xyz
x,y,z
-x,-y,z
1/4-x,1/4+y,1/4+z
1/4+x,1/4-y,1/4+z
x,1/2+y,1/2+z
-x,1/2-y,1/2+z
1/4-x,3/4+y,3/4+z
1/4+x,3/4-y,3/4+z
1/2+x,y,1/2+z
1/2-x,-y,1/2+z
3/4-x,1/4+y,3/4+z
3/4+x,1/4-y,3/4+z
1/2+x,1/2+y,z
1/2-x,1/2-y,z
3/4-x,3/4+y,1/4+z
3/4+x,3/4-y,1/4+z
loop_
_atom_site_type_symbol
_atom_site_label
_atom_site_fract_x
_atom_site_fract_y
_atom_site_fract_z
Si Si1 0.396531 0.778046 0.346140
Si Si2 0.227802 0.514105 0.793298
Si Si3 0.250000 0.250000 0.235205
Si Si4 0.909005 0.123064 0.859016
Si Si5 0.000000 0.000000 0.518344
Si Si6 0.783066 0.143140 0.001002
O O1 0.430160 0.783197 0.160090
O O2 0.450661 0.741032 0.471239
O O3 0.380401 0.852424 0.439137
O O4 0.324762 0.740983 0.339238
O O5 0.192807 0.550885 0.630649
O O6 0.241671 0.582150 0.912303
O O7 0.286316 0.310955 0.130241
O O8 0.204531 0.293175 0.366805
O O9 0.857800 0.114601 0.017482
O O10 0.995956 0.071352 0.405380
#
# Coordination Sequence:
#
# PCOD9370926 Si02
#       6
#    16  16   8  16   8  16
#     4  11  24  45  75 109 152 197 256 318 385 471
#     4  10  23  47  69 110 151 200 244 318 391 458
#     4   9  19  36  64  98 138 198 240 308 386 462
#     4  10  20  42  69 101 150 196 253 308 385 458
#     4  11  21  46  70 116 140 194 262 312 372 468
#     4   9  20  40  68  95 147 196 237 308 388 449
#
# _framework density 26.715183
#
# number of rings (size 3 to 8) (size 9 to 14) (size 15 to 20)
#    0.000    2.000    2.000    0.600    0.000    3.200 
#   25.200    0.000    0.000    0.000    0.000    0.000 
#    0.000    0.000    0.000    0.000    0.000    0.000 
#
# Total GULP energy -111605.846445 kJ/mol
# GULP energy per Si atom -5580.292322 kJ/mol
# Density = 2.665438 g / cm^3
# Si number density = 26.715183 Si / 1000 Ang^3
#
#
#
# Elastic Constant Matrix: (Units=GPa)
#
#
# Indices 1 2 3 4 5 6 
#
# 1 180.8289 40.7855 68.2035 0.0000 0.0000 0.0000
# 2 40.7855 76.0072 42.2736 0.0000 0.0000 0.0000
# 3 68.2035 42.2736 99.7189 0.0002 -0.0001 0.0001
# 4 0.0000 0.0000 0.0002 40.6420 -0.0001 0.0000
# 5 0.0000 0.0000 -0.0001 -0.0001 38.9183 0.0000
# 6 0.0000 0.0000 0.0001 0.0000 0.0000 14.9381
#
#
#
# Elastic Compliance Matrix: (Units=1/GPa)
#
#
# Indices 1 2 3 4 5 6 
#
# 1 0.007590 -0.001551 -0.004534 0.000000 0.000000 0.000000
# 2 -0.001551 0.017533 -0.006372 0.000000 0.000000 0.000000
# 3 -0.004534 -0.006372 0.015830 0.000000 0.000000 0.000000
# 4 0.000000 0.000000 0.000000 0.024605 0.000000 0.000000
# 5 0.000000 0.000000 0.000000 0.000000 0.025695 0.000000
# 6 0.000000 0.000000 0.000000 0.000000 0.000000 0.066943
#
#
# Mechanical properties :
#
#
# Convention : Reuss Voigt Hill
#
# Bulk Modulus (GPa) = 62.34465 73.23112 67.78789
# Shear Modulus (GPa) = 26.53150 32.58583 29.55866
#
# Velocity S-wave (km/s) = 3.15481 3.49628 3.32992
# Velocity P-wave (km/s) = 6.05457 6.61589 6.34144
#
# Compressibility (1/GPa) = 0.01603987
#
# Stress axis : x y z
#
# Youngs Moduli (GPa) = 131.75404 57.03579 63.17100
#
# Poissons Ratio (x) = 0.08848 0.28639
# Poissons Ratio (y) = 0.20439 0.40250
# Poissons Ratio (z) = 0.59731 0.36341
#
# Static dielectric constant tensor:
#      x y z
#    x 2.204060 0.000000 0.000000 
#    y 0.000000 2.080140 0.000000 
#    z 0.000000 0.000000 2.243060 
# 
# From -- ./inp_files/3193.got.cif
#   From: 2010.05.17/outbox.cif.g08.bks.cpg/sg43_2_cif.got.tgz:3193.got - 2010.06.03 19:21:55.
