data_PCOD9370449
_publ_section_title
;
Structure prediction by ZEFSAII (Michael W. Deem and Ramdas Pophale) SiO2 
 PCOD9370449
Probable space group: F D D 2
;
_chemical_formula_sum "Si O2"
_cell_formula_units_Z 88
_cell_length_a 7.206115
_cell_length_b 25.291804
_cell_length_c 17.990865
_cell_angle_alpha 90.000000
_cell_angle_beta 90.000000
_cell_angle_gamma 90.000000
_cell_volume 3278.936762
_symmetry_space_group_name_H-M "F D D 2"
_symmetry_group_IT_number 43
_symmetry_cell_setting 'orthorhombic'
loop_
_space_group_symop_operation_xyz
x,y,z
-x,-y,z
1/4-x,1/4+y,1/4+z
1/4+x,1/4-y,1/4+z
x,1/2+y,1/2+z
-x,1/2-y,1/2+z
1/4-x,3/4+y,3/4+z
1/4+x,3/4-y,3/4+z
1/2+x,y,1/2+z
1/2-x,-y,1/2+z
3/4-x,1/4+y,3/4+z
3/4+x,1/4-y,3/4+z
1/2+x,1/2+y,z
1/2-x,1/2-y,z
3/4-x,3/4+y,1/4+z
3/4+x,3/4-y,1/4+z
loop_
_atom_site_type_symbol
_atom_site_label
_atom_site_fract_x
_atom_site_fract_y
_atom_site_fract_z
Si Si1 0.750000 0.250000 0.032090
Si Si2 0.803518 0.411666 0.429190
Si Si3 0.201495 0.811888 0.518829
Si Si4 0.384262 0.676084 0.144231
Si Si5 0.593728 0.436092 0.164693
Si Si6 0.219999 0.508839 0.029900
O O1 0.601315 0.272892 0.092334
O O2 0.812605 0.207771 0.968219
O O3 0.928043 0.421877 0.355938
O O4 0.815912 0.355107 0.470507
O O5 0.588373 0.416526 0.400858
O O6 0.812344 0.458320 0.490464
O O7 0.250000 0.750000 0.510386
O O8 0.996696 0.818367 0.481537
O O9 0.454619 0.618415 0.125539
O O10 0.470201 0.692862 0.222118
O O11 0.681295 0.473601 0.103780
O O12 0.000000 0.500000 0.043525
#
# Coordination Sequence:
#
# PCOD9370449 Si02
#       6
#     8  16  16  16  16  16
#     4  12  20  42  62  94 134 162 220 276 324 380
#     4  10  22  41  67  98 128 176 223 278 333 405
#     4  11  24  41  69  99 136 169 228 284 338 405
#     4  10  19  38  66  92 126 170 223 272 316 388
#     4  11  23  35  64  99 129 173 221 269 332 399
#     4  10  20  38  65  90 130 171 224 269 329 397
#
# _framework density 26.837966999999999
#
# number of rings (size 3 to 8) (size 9 to 14) (size 15 to 20)
#    0.000    1.455    4.545    1.636   15.273    0.000 
#    1.636    5.455    0.000    0.000    0.000    0.000 
#    0.000    0.000    0.000    0.000    0.000    0.000 
#
# Total GULP energy -122829.764164 kJ/mol
# GULP energy per Si atom -5583.171098 kJ/mol
# Density = 2.677688 g / cm^3
# Si number density = 26.837967 Si / 1000 Ang^3
#
#
#
# Elastic Constant Matrix: (Units=GPa)
#
#
# Indices 1 2 3 4 5 6 
#
# 1 63.4041 32.0245 37.1483 0.0000 0.0000 0.0000
# 2 32.0245 168.1122 42.2197 0.0000 0.0000 0.0000
# 3 37.1483 42.2197 140.1185 0.0000 0.0000 0.0000
# 4 0.0000 0.0000 0.0000 113.9157 0.0000 0.0000
# 5 0.0000 0.0000 0.0000 0.0000 45.7662 0.0000
# 6 0.0000 0.0000 0.0000 0.0000 0.0000 20.1104
#
#
#
# Elastic Compliance Matrix: (Units=1/GPa)
#
#
# Indices 1 2 3 4 5 6 
#
# 1 0.019699 -0.002641 -0.004427 0.000000 0.000000 0.000000
# 2 -0.002641 0.006789 -0.001346 0.000000 0.000000 0.000000
# 3 -0.004427 -0.001346 0.008716 0.000000 0.000000 0.000000
# 4 0.000000 0.000000 0.000000 0.008778 0.000000 0.000000
# 5 0.000000 0.000000 0.000000 0.000000 0.021850 0.000000
# 6 0.000000 0.000000 0.000000 0.000000 0.000000 0.049725
#
#
# Mechanical properties :
#
#
# Convention : Reuss Voigt Hill
#
# Bulk Modulus (GPa) = 54.41311 66.04663 60.22987
# Shear Modulus (GPa) = 36.09801 53.30796 44.70298
#
# Velocity S-wave (km/s) = 3.67145 4.46162 4.08568
# Velocity P-wave (km/s) = 6.18801 7.15571 6.68938
#
# Compressibility (1/GPa) = 0.01837792
#
# Stress axis : x y z
#
# Youngs Moduli (GPa) = 50.76275 147.28818 114.73202
#
# Poissons Ratio (x) = 0.38897 0.50792
# Poissons Ratio (y) = 0.13406 0.15438
# Poissons Ratio (z) = 0.22473 0.19819
#
# Static dielectric constant tensor:
#      x y z
#    x 3.050740 0.000000 0.000000 
#    y 0.000000 -1.691460 0.000000 
#    z 0.000000 0.000000 2.002640 
# 
# From -- ./inp_files/9662.got.cif
#   From: 2010.05.17/outbox.cif.g08.bks.cpg/sg43_5_cif.got.tgz:9662.got - 2010.06.03 19:21:55.
