data_PCOD9370419
_publ_section_title
;
Structure prediction by ZEFSAII (Michael W. Deem and Ramdas Pophale) SiO2 
 PCOD9370419
Probable space group: F D D 2
;
_chemical_formula_sum "Si O2"
_cell_formula_units_Z 112
_cell_length_a 19.298288
_cell_length_b 26.710674
_cell_length_c 10.013568
_cell_angle_alpha 90.000000
_cell_angle_beta 90.000000
_cell_angle_gamma 90.000000
_cell_volume 5161.696696
_symmetry_space_group_name_H-M "F D D 2"
_symmetry_group_IT_number 43
_symmetry_cell_setting 'orthorhombic'
loop_
_space_group_symop_operation_xyz
x,y,z
-x,-y,z
1/4-x,1/4+y,1/4+z
1/4+x,1/4-y,1/4+z
x,1/2+y,1/2+z
-x,1/2-y,1/2+z
1/4-x,3/4+y,3/4+z
1/4+x,3/4-y,3/4+z
1/2+x,y,1/2+z
1/2-x,-y,1/2+z
3/4-x,1/4+y,3/4+z
3/4+x,1/4-y,3/4+z
1/2+x,1/2+y,z
1/2-x,1/2-y,z
3/4-x,3/4+y,1/4+z
3/4+x,3/4-y,1/4+z
loop_
_atom_site_type_symbol
_atom_site_label
_atom_site_fract_x
_atom_site_fract_y
_atom_site_fract_z
Si Si1 0.102221 0.718816 0.912190
Si Si2 0.889608 0.438840 0.522484
Si Si3 0.512100 0.925584 0.713308
Si Si4 0.238126 0.431191 0.461934
Si Si5 0.378960 0.074496 0.232811
Si Si6 0.250000 0.250000 0.698419
Si Si7 0.250000 0.250000 0.089727
Si Si8 0.350074 0.516155 0.478241
O O1 0.086855 0.769770 0.830640
O O2 0.182779 0.708110 0.882056
O O3 0.056766 0.676133 0.846324
O O4 0.096697 0.719844 0.071049
O O5 0.859119 0.384790 0.482704
O O6 0.936644 0.428091 0.651921
O O7 0.942919 0.464629 0.417185
O O8 0.533123 0.868583 0.697756
O O9 0.510234 0.950854 0.856873
O O10 0.182163 0.436843 0.342198
O O11 0.290179 0.475919 0.487028
O O12 0.447701 0.041129 0.268120
O O13 0.347789 0.059358 0.088597
O O14 0.324556 0.242274 0.761964
#
# Coordination Sequence:
#
# PCOD9370419 Si02
#       8
#    16  16  16  16  16   8   8  16
#     4  11  21  43  70  96 140 183 238 288 340 427
#     4  11  20  42  73 100 130 184 247 279 344 429
#     4  10  19  37  66 102 121 179 237 290 328 412
#     4  11  24  39  70  98 141 177 238 284 353 424
#     4  11  26  43  70 107 139 188 230 296 372 410
#     4  10  20  42  64  88 139 177 228 274 363 411
#     4  12  22  48  70 102 149 183 234 298 355 437
#     4  11  24  44  65 102 140 179 226 301 349 425
#
# _framework density 21.698291999999999
#
# number of rings (size 3 to 8) (size 9 to 14) (size 15 to 20)
#    0.000    1.143    5.714    1.286    2.000    3.429 
#    5.143    2.857    0.000    0.000    0.000    0.000 
#    0.000    0.000    0.000    0.000    0.000    0.000 
#
# Total GULP energy -155904.550843 kJ/mol
# GULP energy per Si atom -5568.019673 kJ/mol
# Density = 2.164891 g / cm^3
# Si number density = 21.698292 Si / 1000 Ang^3
#
#
#
# Elastic Constant Matrix: (Units=GPa)
#
#
# Indices 1 2 3 4 5 6 
#
# 1 79.4057 37.5310 31.2525 0.0000 0.0000 0.0000
# 2 37.5310 129.9647 54.5201 0.0000 0.0000 0.0000
# 3 31.2525 54.5201 89.5163 0.0000 0.0000 0.0000
# 4 0.0000 0.0000 0.0000 15.1213 0.0000 0.0000
# 5 0.0000 0.0000 0.0000 0.0000 -3.5246 0.0000
# 6 0.0000 0.0000 0.0000 0.0000 0.0000 26.6309
#
#
#
# Elastic Compliance Matrix: (Units=1/GPa)
#
#
# Indices 1 2 3 4 5 6 
#
# 1 0.015394 -0.002943 -0.003582 0.000000 0.000000 0.000000
# 2 -0.002943 0.010897 -0.005610 0.000000 0.000000 0.000000
# 3 -0.003582 -0.005610 0.015838 0.000000 0.000000 0.000000
# 4 0.000000 0.000000 0.000000 0.066132 0.000000 0.000000
# 5 0.000000 0.000000 0.000000 0.000000 -0.283721 0.000000
# 6 0.000000 0.000000 0.000000 0.000000 0.000000 0.037550
#
#
# Mechanical properties :
#
#
# Convention : Reuss Voigt Hill
#
# Bulk Modulus (GPa) = 55.98881 60.61042 58.29962
# Shear Modulus (GPa) = -46.43166 19.35107 -13.54030
#
# Velocity S-wave (km/s) = -4.63090 2.98958 -2.50076
# Velocity P-wave (km/s) = 1.65357 6.31749 4.31141
#
# Compressibility (1/GPa) = 0.01786071
#
# Stress axis : x y z
#
# Youngs Moduli (GPa) = 64.95880 91.76417 63.13751
#
# Poissons Ratio (x) = 0.27004 0.22617
# Poissons Ratio (y) = 0.19116 0.35419
# Poissons Ratio (z) = 0.23270 0.51477
#
# Static dielectric constant tensor:
#      x y z
#    x 1.806380 0.000000 0.000000 
#    y 0.000000 2.230170 0.000000 
#    z 0.000000 0.000000 1.839100 
# 
# From -- ./inp_files/7259.got.cif
#   From: 2010.05.17/outbox.cif.g08.bks.cpg/sg43_4_cif.got.tgz:7259.got - 2010.06.03 19:21:55.
