data_PCOD9370701
_publ_section_title
;
Structure prediction by ZEFSAII (Michael W. Deem and Ramdas Pophale) SiO2 
 PCOD9370701
Probable space group: F D D 2
;
_chemical_formula_sum "Si O2"
_cell_formula_units_Z 96
_cell_length_a 19.885853
_cell_length_b 11.775002
_cell_length_c 19.460223
_cell_angle_alpha 90.000000
_cell_angle_beta 90.000000
_cell_angle_gamma 90.000000
_cell_volume 4556.727176
_symmetry_space_group_name_H-M "F D D 2"
_symmetry_group_IT_number 43
_symmetry_cell_setting 'orthorhombic'
loop_
_space_group_symop_operation_xyz
x,y,z
-x,-y,z
1/4-x,1/4+y,1/4+z
1/4+x,1/4-y,1/4+z
x,1/2+y,1/2+z
-x,1/2-y,1/2+z
1/4-x,3/4+y,3/4+z
1/4+x,3/4-y,3/4+z
1/2+x,y,1/2+z
1/2-x,-y,1/2+z
3/4-x,1/4+y,3/4+z
3/4+x,1/4-y,3/4+z
1/2+x,1/2+y,z
1/2-x,1/2-y,z
3/4-x,3/4+y,1/4+z
3/4+x,3/4-y,1/4+z
loop_
_atom_site_type_symbol
_atom_site_label
_atom_site_fract_x
_atom_site_fract_y
_atom_site_fract_z
Si Si1 0.392901 0.466019 0.897630
Si Si2 0.700130 0.558599 0.087925
Si Si3 0.063616 0.417417 0.598335
Si Si4 0.747061 0.991564 0.941164
Si Si5 0.289727 0.353286 0.822739
Si Si6 0.014760 0.189955 0.979060
O O1 0.431479 0.558945 0.852454
O O2 0.324429 0.528423 0.922380
O O3 0.363337 0.355678 0.857455
O O4 0.436046 0.414682 0.960005
O O5 0.632248 0.484605 0.088568
O O6 0.738905 0.521022 0.155841
O O7 0.744871 0.542391 0.019958
O O8 0.000000 0.500000 0.606580
O O9 0.056348 0.333344 0.664292
O O10 0.045658 0.348335 0.528949
O O11 0.741621 0.886891 0.887729
O O12 0.250000 0.250000 0.789460
O O13 0.297236 0.457856 0.770618
#
# Coordination Sequence:
#
# PCOD9370701 Si02
#       6
#    16  16  16  16  16  16
#     4  10  20  38  65  96 118 159 223 276 315 378
#     4  12  21  37  65  96 131 170 224 268 314 394
#     4  11  20  38  60  89 134 167 205 269 332 368
#     4   9  21  36  59  96 122 166 220 267 324 384
#     4   9  21  42  61  87 130 169 205 265 342 390
#     4  11  23  40  64  95 125 173 217 273 329 386
#
# _framework density 21.067753
#
# number of rings (size 3 to 8) (size 9 to 14) (size 15 to 20)
#    1.000    0.667    1.667    4.500    0.000    1.333 
#    3.000    2.500    0.000    0.000    0.000    0.000 
#    0.000    0.000    0.000    0.000    0.000    0.000 
#
# Total GULP energy -133604.292455 kJ/mol
# GULP energy per Si atom -5566.845519 kJ/mol
# Density = 2.101980 g / cm^3
# Si number density = 21.067753 Si / 1000 Ang^3
#
#
#
# Elastic Constant Matrix: (Units=GPa)
#
#
# Indices 1 2 3 4 5 6 
#
# 1 61.0936 22.7535 23.4503 0.0000 0.0000 0.0000
# 2 22.7535 63.6251 37.5931 0.0000 0.0000 0.0000
# 3 23.4503 37.5931 127.9037 0.0000 0.0000 0.0000
# 4 0.0000 0.0000 0.0000 27.9731 0.0000 0.0000
# 5 0.0000 0.0000 0.0000 0.0000 20.7343 0.0000
# 6 0.0000 0.0000 0.0000 0.0000 0.0000 10.0510
#
#
#
# Elastic Compliance Matrix: (Units=1/GPa)
#
#
# Indices 1 2 3 4 5 6 
#
# 1 0.019227 -0.005800 -0.001820 0.000000 0.000000 0.000000
# 2 -0.005800 0.020770 -0.005041 0.000000 0.000000 0.000000
# 3 -0.001820 -0.005041 0.009634 0.000000 0.000000 0.000000
# 4 0.000000 0.000000 0.000000 0.035749 0.000000 0.000000
# 5 0.000000 0.000000 0.000000 0.000000 0.048229 0.000000
# 6 0.000000 0.000000 0.000000 0.000000 0.000000 0.099493
#
#
# Mechanical properties :
#
#
# Convention : Reuss Voigt Hill
#
# Bulk Modulus (GPa) = 41.14014 46.69070 43.91542
# Shear Modulus (GPa) = 18.75973 23.00672 20.88322
#
# Velocity S-wave (km/s) = 2.98727 3.30818 3.15181
# Velocity P-wave (km/s) = 5.60967 6.06649 5.84255
#
# Compressibility (1/GPa) = 0.02430716
#
# Stress axis : x y z
#
# Youngs Moduli (GPa) = 52.00921 48.14630 103.80096
#
# Poissons Ratio (x) = 0.27927 0.18895
# Poissons Ratio (y) = 0.30168 0.52328
# Poissons Ratio (z) = 0.09467 0.24271
#
# Static dielectric constant tensor:
#      x y z
#    x 1.789330 0.000000 0.000000 
#    y 0.000000 1.835880 0.000000 
#    z 0.000000 0.000000 1.805210 
# 
# From -- ./inp_files/14826.got.cif
#   From: 2010.05.17/outbox.cif.g08.bks.cpg/sg43_8_cif.got.tgz:14826.got - 2010.06.03 19:21:55.
