data_PCOD9370256
_publ_section_title
;
Structure prediction by ZEFSAII (Michael W. Deem and Ramdas Pophale) SiO2 
 PCOD9370256
Probable space group: F D D 2
;
_chemical_formula_sum "Si O2"
_cell_formula_units_Z 72
_cell_length_a 5.330630
_cell_length_b 25.821765
_cell_length_c 22.634015
_cell_angle_alpha 90.000000
_cell_angle_beta 90.000000
_cell_angle_gamma 90.000000
_cell_volume 3115.487857
_symmetry_space_group_name_H-M "F D D 2"
_symmetry_group_IT_number 43
_symmetry_cell_setting 'orthorhombic'
loop_
_space_group_symop_operation_xyz
x,y,z
-x,-y,z
1/4-x,1/4+y,1/4+z
1/4+x,1/4-y,1/4+z
x,1/2+y,1/2+z
-x,1/2-y,1/2+z
1/4-x,3/4+y,3/4+z
1/4+x,3/4-y,3/4+z
1/2+x,y,1/2+z
1/2-x,-y,1/2+z
3/4-x,1/4+y,3/4+z
3/4+x,1/4-y,3/4+z
1/2+x,1/2+y,z
1/2-x,1/2-y,z
3/4-x,3/4+y,1/4+z
3/4+x,3/4-y,1/4+z
loop_
_atom_site_type_symbol
_atom_site_label
_atom_site_fract_x
_atom_site_fract_y
_atom_site_fract_z
Si Si1 0.573446 0.339690 0.842040
Si Si2 0.944433 0.591297 0.709333
Si Si3 0.861761 0.799089 0.234944
Si Si4 0.250000 0.750000 0.326149
Si Si5 0.701465 0.190259 0.529864
O O1 0.780496 0.326705 0.890823
O O2 0.647962 0.326074 0.774875
O O3 0.355580 0.299906 0.859649
O O4 0.525101 0.400795 0.835672
O O5 0.986134 0.653441 0.708353
O O6 0.179139 0.567790 0.747695
O O7 0.682239 0.575975 0.737507
O O8 0.750000 0.750000 0.199608
O O9 0.038369 0.772771 0.283533
O O10 0.750000 0.250000 0.545005
#
# Coordination Sequence:
#
# PCOD9370256 Si02
#       5
#    16  16  16   8  16
#     4  10  23  39  65  94 131 169 223 277 332 400
#     4  11  24  41  65  96 129 172 225 269 338 407
#     4   9  20  38  61  90 124 166 213 277 322 391
#     4  10  18  38  64  86 126 160 222 274 326 374
#     4  11  25  43  64  96 139 176 216 279 342 407
#
# _framework density 23.110347000000001
#
# number of rings (size 3 to 8) (size 9 to 14) (size 15 to 20)
#    0.000    1.778    2.222    0.667    4.667    4.444 
#    0.000    0.000    9.778    0.000    0.000    0.000 
#    0.000    0.000    0.000    0.000    0.000    0.000 
#
# Total GULP energy -100353.356169 kJ/mol
# GULP energy per Si atom -5575.186454 kJ/mol
# Density = 2.305775 g / cm^3
# Si number density = 23.110347 Si / 1000 Ang^3
#
#
#
# Elastic Constant Matrix: (Units=GPa)
#
#
# Indices 1 2 3 4 5 6 
#
# 1 108.1111 29.5680 17.9786 0.0000 0.0000 0.0000
# 2 29.5680 143.6303 12.6967 0.0000 0.0000 0.0000
# 3 17.9786 12.6967 50.9703 0.0000 0.0000 0.0000
# 4 0.0000 0.0000 0.0000 -5.9182 0.0000 0.0000
# 5 0.0000 0.0000 0.0000 0.0000 -26.5959 0.0000
# 6 0.0000 0.0000 0.0000 0.0000 0.0000 30.9830
#
#
#
# Elastic Compliance Matrix: (Units=1/GPa)
#
#
# Indices 1 2 3 4 5 6 
#
# 1 0.010279 -0.001836 -0.003168 0.000000 0.000000 0.000000
# 2 -0.001836 0.007447 -0.001207 0.000000 0.000000 0.000000
# 3 -0.003168 -0.001207 0.021038 0.000000 0.000000 0.000000
# 4 0.000000 0.000000 0.000000 -0.168970 0.000000 0.000000
# 5 0.000000 0.000000 0.000000 0.000000 -0.037600 0.000000
# 6 0.000000 0.000000 0.000000 0.000000 0.000000 0.032276
#
#
# Mechanical properties :
#
#
# Convention : Reuss Voigt Hill
#
# Bulk Modulus (GPa) = 37.96506 47.02203 42.49355
# Shear Modulus (GPa) = -43.73410 15.85833 -13.93788
#
# Velocity S-wave (km/s) = -4.35490 2.62238 -2.45848
# Velocity P-wave (km/s) = 2.97043 5.43692 3.21999
#
# Compressibility (1/GPa) = 0.02634001
#
# Stress axis : x y z
#
# Youngs Moduli (GPa) = 97.28819 134.28219 47.53396
#
# Poissons Ratio (x) = 0.24653 0.15060
# Poissons Ratio (y) = 0.17861 0.05740
# Poissons Ratio (z) = 0.30823 0.16214
#
# Static dielectric constant tensor:
#      x y z
#    x 1.917130 0.000000 0.000000 
#    y 0.000000 1.998130 0.000000 
#    z 0.000000 0.000000 1.849380 
# 
# From -- ./inp_files/15662.got.cif
#   From: 2010.05.17/outbox.cif.g08.bks.cpg/sg43_8_cif.got.tgz:15662.got - 2010.06.03 19:21:55.
