data_PCOD9370541
_publ_section_title
;
Structure prediction by ZEFSAII (Michael W. Deem and Ramdas Pophale) SiO2 
 PCOD9370541
Probable space group: F D D 2
;
_chemical_formula_sum "Si O2"
_cell_formula_units_Z 128
_cell_length_a 21.558136
_cell_length_b 24.226051
_cell_length_c 11.550259
_cell_angle_alpha 90.000000
_cell_angle_beta 90.000000
_cell_angle_gamma 90.000000
_cell_volume 6032.336468
_symmetry_space_group_name_H-M "F D D 2"
_symmetry_group_IT_number 43
_symmetry_cell_setting 'orthorhombic'
loop_
_space_group_symop_operation_xyz
x,y,z
-x,-y,z
1/4-x,1/4+y,1/4+z
1/4+x,1/4-y,1/4+z
x,1/2+y,1/2+z
-x,1/2-y,1/2+z
1/4-x,3/4+y,3/4+z
1/4+x,3/4-y,3/4+z
1/2+x,y,1/2+z
1/2-x,-y,1/2+z
3/4-x,1/4+y,3/4+z
3/4+x,1/4-y,3/4+z
1/2+x,1/2+y,z
1/2-x,1/2-y,z
3/4-x,3/4+y,1/4+z
3/4+x,3/4-y,1/4+z
loop_
_atom_site_type_symbol
_atom_site_label
_atom_site_fract_x
_atom_site_fract_y
_atom_site_fract_z
Si Si1 0.253568 0.417437 0.271860
Si Si2 0.257473 0.815448 0.395267
Si Si3 0.428531 0.265074 0.421387
Si Si4 0.353868 0.053943 0.088557
Si Si5 0.836215 0.514125 0.408138
Si Si6 0.151171 0.398595 0.846849
Si Si7 0.029275 0.942517 0.908508
Si Si8 0.567864 0.806291 0.938061
O O1 0.309808 0.458379 0.240295
O O2 0.199310 0.424851 0.175049
O O3 0.220563 0.443757 0.383655
O O4 0.273087 0.354656 0.254568
O O5 0.250000 0.750000 0.369942
O O6 0.328623 0.829089 0.364094
O O7 0.208584 0.855823 0.333142
O O8 0.247946 0.822146 0.534424
O O9 0.409216 0.250093 0.292301
O O10 0.389379 0.310785 0.489896
O O11 0.496334 0.293616 0.416157
O O12 0.356734 0.989420 0.117341
O O13 0.332730 0.063834 0.957947
O O14 0.899497 0.545469 0.377569
O O15 0.829228 0.461827 0.322176
O O16 0.092563 0.363337 0.889591
O O17 0.000000 0.000000 0.948734
#
# Coordination Sequence:
#
# PCOD9370541 Si02
#       8
#    16  16  16  16  16  16  16  16
#     4  10  23  37  60  91 123 164 203 264 316 385
#     4  11  19  36  60  96 122 150 204 266 321 360
#     4  10  25  40  62  92 122 167 207 261 327 388
#     4  10  20  34  58  91 120 155 201 254 315 374
#     4  10  22  43  59  91 127 162 211 262 327 389
#     4  12  22  38  65  92 121 166 209 264 324 384
#     4  11  21  37  62  92 124 162 206 261 319 377
#     4  10  22  40  61  91 127 159 211 272 317 382
#
# _framework density 21.218976000000001
#
# number of rings (size 3 to 8) (size 9 to 14) (size 15 to 20)
#    0.000    1.750    5.000    1.500    7.000    3.000 
#    0.000    0.000    0.000    1.500    0.000    0.000 
#    0.000    0.000    0.000    0.000    0.000    0.000 
#
# Total GULP energy -178595.378337 kJ/mol
# GULP energy per Si atom -5581.105573 kJ/mol
# Density = 2.117068 g / cm^3
# Si number density = 21.218976 Si / 1000 Ang^3
#
#
#
# Elastic Constant Matrix: (Units=GPa)
#
#
# Indices 1 2 3 4 5 6 
#
# 1 21.7368 10.7842 -3.8897 0.0000 0.0000 0.0000
# 2 10.7842 118.9637 31.7033 0.0000 0.0000 0.0000
# 3 -3.8897 31.7033 59.9313 0.0000 0.0000 0.0000
# 4 0.0000 0.0000 0.0000 19.3814 0.0000 0.0000
# 5 0.0000 0.0000 0.0000 0.0000 8.3147 0.0000
# 6 0.0000 0.0000 0.0000 0.0000 0.0000 15.3602
#
#
#
# Elastic Compliance Matrix: (Units=1/GPa)
#
#
# Indices 1 2 3 4 5 6 
#
# 1 0.050326 -0.006324 0.006612 0.000000 0.000000 0.000000
# 2 -0.006324 0.010580 -0.006007 0.000000 0.000000 0.000000
# 3 0.006612 -0.006007 0.020293 0.000000 0.000000 0.000000
# 4 0.000000 0.000000 0.000000 0.051596 0.000000 0.000000
# 5 0.000000 0.000000 0.000000 0.000000 0.120269 0.000000
# 6 0.000000 0.000000 0.000000 0.000000 0.000000 0.065103
#
#
# Mechanical properties :
#
#
# Convention : Reuss Voigt Hill
#
# Bulk Modulus (GPa) = 14.33501 30.86970 22.60236
# Shear Modulus (GPa) = 14.16995 19.41351 16.79173
#
# Velocity S-wave (km/s) = 2.58698 3.02803 2.81615
# Velocity P-wave (km/s) = 3.96153 5.17736 4.60970
#
# Compressibility (1/GPa) = 0.06975926
#
# Stress axis : x y z
#
# Youngs Moduli (GPa) = 19.87056 94.51677 49.27873
#
# Poissons Ratio (x) = 0.59773 -0.32582
# Poissons Ratio (y) = 0.12566 0.29603
# Poissons Ratio (z) = -0.13138 0.56779
#
# Static dielectric constant tensor:
#      x y z
#    x 1.805880 0.000000 0.000000 
#    y 0.000000 1.812670 0.000000 
#    z 0.000000 0.000000 1.794080 
# 
# From -- ./inp_files/7673.got.cif
#   From: 2010.05.17/outbox.cif.g08.bks.cpg/sg43_4_cif.got.tgz:7673.got - 2010.06.03 19:21:55.
