data_PCOD9370836
_publ_section_title
;
Structure prediction by ZEFSAII (Michael W. Deem and Ramdas Pophale) SiO2 
 PCOD9370836
Probable space group: F D D 2
;
_chemical_formula_sum "Si O2"
_cell_formula_units_Z 96
_cell_length_a 22.454361
_cell_length_b 15.364354
_cell_length_c 12.265163
_cell_angle_alpha 90.000000
_cell_angle_beta 90.000000
_cell_angle_gamma 90.000000
_cell_volume 4231.441389
_symmetry_space_group_name_H-M "F D D 2"
_symmetry_group_IT_number 43
_symmetry_cell_setting 'orthorhombic'
loop_
_space_group_symop_operation_xyz
x,y,z
-x,-y,z
1/4-x,1/4+y,1/4+z
1/4+x,1/4-y,1/4+z
x,1/2+y,1/2+z
-x,1/2-y,1/2+z
1/4-x,3/4+y,3/4+z
1/4+x,3/4-y,3/4+z
1/2+x,y,1/2+z
1/2-x,-y,1/2+z
3/4-x,1/4+y,3/4+z
3/4+x,1/4-y,3/4+z
1/2+x,1/2+y,z
1/2-x,1/2-y,z
3/4-x,3/4+y,1/4+z
3/4+x,3/4-y,1/4+z
loop_
_atom_site_type_symbol
_atom_site_label
_atom_site_fract_x
_atom_site_fract_y
_atom_site_fract_z
Si Si1 0.702105 0.810348 0.532740
Si Si2 0.678593 0.261822 0.332156
Si Si3 0.130845 0.470669 0.517149
Si Si4 0.610112 0.666143 0.024127
Si Si5 0.601873 0.212728 0.116572
Si Si6 0.485751 0.135270 0.569289
O O1 0.750000 0.750000 0.593456
O O2 0.675505 0.901732 0.575448
O O3 0.645807 0.747093 0.521150
O O4 0.734250 0.839607 0.423181
O O5 0.750000 0.250000 0.327737
O O6 0.650588 0.210307 0.434138
O O7 0.640896 0.230954 0.225652
O O8 0.664768 0.363512 0.351193
O O9 0.134576 0.570050 0.551530
O O10 0.142951 0.469047 0.386939
O O11 0.065369 0.428831 0.527740
O O12 0.540875 0.653959 0.988656
O O13 0.545452 0.276269 0.109529
#
# Coordination Sequence:
#
# PCOD9370836 Si02
#       6
#    16  16  16  16  16  16
#     4  10  20  40  69 101 137 172 233 293 358 415
#     4  12  29  46  71 101 153 194 243 287 368 445
#     4  10  22  40  72 104 135 182 235 303 356 424
#     4  11  24  44  67 101 143 185 236 288 366 429
#     4  11  26  47  71 106 140 194 239 302 362 435
#     4  10  22  43  76 103 135 172 244 306 361 414
#
# _framework density 22.687304000000001
#
# number of rings (size 3 to 8) (size 9 to 14) (size 15 to 20)
#    0.000    1.333    0.000    5.000    7.000    8.000 
#    3.000    0.000    0.000    0.000    0.000    0.000 
#    0.000    0.000    0.000    0.000    0.000    0.000 
#
# Total GULP energy -134133.394519 kJ/mol
# GULP energy per Si atom -5588.891438 kJ/mol
# Density = 2.263567 g / cm^3
# Si number density = 22.687304 Si / 1000 Ang^3
#
#
#
# Elastic Constant Matrix: (Units=GPa)
#
#
# Indices 1 2 3 4 5 6 
#
# 1 149.3658 79.4508 40.8532 0.0000 0.0000 0.0000
# 2 79.4508 178.1569 38.0192 0.0000 0.0000 0.0000
# 3 40.8532 38.0192 79.0627 0.0000 0.0000 0.0000
# 4 0.0000 0.0000 0.0000 26.3911 0.0000 0.0000
# 5 0.0000 0.0000 0.0000 0.0000 36.9914 0.0000
# 6 0.0000 0.0000 0.0000 0.0000 0.0000 43.6810
#
#
#
# Elastic Compliance Matrix: (Units=1/GPa)
#
#
# Indices 1 2 3 4 5 6 
#
# 1 0.009444 -0.003533 -0.003181 0.000000 0.000000 0.000000
# 2 -0.003533 0.007576 -0.001818 0.000000 0.000000 0.000000
# 3 -0.003181 -0.001818 0.015166 0.000000 0.000000 0.000000
# 4 0.000000 0.000000 0.000000 0.037892 0.000000 0.000000
# 5 0.000000 0.000000 0.000000 0.000000 0.027033 0.000000
# 6 0.000000 0.000000 0.000000 0.000000 0.000000 0.022893
#
#
# Mechanical properties :
#
#
# Convention : Reuss Voigt Hill
#
# Bulk Modulus (GPa) = 66.12399 80.35908 73.24154
# Shear Modulus (GPa) = 35.18408 37.96352 36.57380
#
# Velocity S-wave (km/s) = 3.94233 4.09508 4.01943
# Velocity P-wave (km/s) = 7.06623 7.60636 7.34127
#
# Compressibility (1/GPa) = 0.01512310
#
# Stress axis : x y z
#
# Youngs Moduli (GPa) = 105.88423 131.98726 65.93658
#
# Poissons Ratio (x) = 0.46630 0.20975
# Poissons Ratio (y) = 0.37408 0.11986
# Poissons Ratio (z) = 0.33683 0.23993
#
# Static dielectric constant tensor:
#      x y z
#    x 1.896650 0.000000 0.000000 
#    y 0.000000 1.832800 0.000000 
#    z 0.000000 0.000000 1.894650 
# 
# From -- ./inp_files/10911.got.cif
#   From: 2010.05.17/outbox.cif.g08.bks.cpg/sg43_6_cif.got.tgz:10911.got - 2010.06.03 19:21:55.
