data_PCOD9370518
_publ_section_title
;
Structure prediction by ZEFSAII (Michael W. Deem and Ramdas Pophale) SiO2 
 PCOD9370518
Probable space group: F D D 2
;
_chemical_formula_sum "Si O2"
_cell_formula_units_Z 120
_cell_length_a 21.222470
_cell_length_b 22.117975
_cell_length_c 11.940977
_cell_angle_alpha 90.000000
_cell_angle_beta 90.000000
_cell_angle_gamma 90.000000
_cell_volume 5605.071449
_symmetry_space_group_name_H-M "F D D 2"
_symmetry_group_IT_number 43
_symmetry_cell_setting 'orthorhombic'
loop_
_space_group_symop_operation_xyz
x,y,z
-x,-y,z
1/4-x,1/4+y,1/4+z
1/4+x,1/4-y,1/4+z
x,1/2+y,1/2+z
-x,1/2-y,1/2+z
1/4-x,3/4+y,3/4+z
1/4+x,3/4-y,3/4+z
1/2+x,y,1/2+z
1/2-x,-y,1/2+z
3/4-x,1/4+y,3/4+z
3/4+x,1/4-y,3/4+z
1/2+x,1/2+y,z
1/2-x,1/2-y,z
3/4-x,3/4+y,1/4+z
3/4+x,3/4-y,1/4+z
loop_
_atom_site_type_symbol
_atom_site_label
_atom_site_fract_x
_atom_site_fract_y
_atom_site_fract_z
Si Si1 0.250000 0.250000 0.031750
Si Si2 0.727564 0.554120 0.834422
Si Si3 0.135592 0.971533 0.684396
Si Si4 0.089221 0.380965 0.539899
Si Si5 0.918375 0.683114 0.311509
Si Si6 0.680379 0.034850 0.963042
Si Si7 0.714110 0.939433 0.615716
Si Si8 0.955407 0.908772 0.970748
O O1 0.272667 0.194387 0.110487
O O2 0.188074 0.227436 0.965266
O O3 0.673082 0.516631 0.769793
O O4 0.776849 0.508641 0.888982
O O5 0.766514 0.586489 0.736144
O O6 0.699629 0.586398 0.943786
O O7 0.170691 0.906003 0.696390
O O8 0.144207 0.997387 0.558305
O O9 0.090835 0.364769 0.409025
O O10 0.104480 0.325132 0.622204
O O11 0.146220 0.424231 0.568828
O O12 0.016226 0.400123 0.549932
O O13 0.960211 0.736859 0.365041
O O14 0.847546 0.700254 0.277792
O O15 0.729644 0.076442 0.031942
#
# Coordination Sequence:
#
# PCOD9370518 Si02
#       8
#     8  16  16  16  16  16  16  16
#     4  12  26  46  68 110 144 176 256 304 342 446
#     4  10  19  43  65  94 130 177 228 285 347 427
#     4  11  24  45  68  99 140 188 231 301 363 421
#     4  12  22  39  65  98 129 179 228 285 351 429
#     4  11  22  38  65  97 125 168 227 280 342 423
#     4  10  21  42  63  90 132 178 228 276 350 434
#     4  10  22  39  65  91 129 171 221 280 342 417
#     4  12  23  40  69 101 136 176 233 303 355 410
#
# _framework density 21.409184
#
# number of rings (size 3 to 8) (size 9 to 14) (size 15 to 20)
#    0.000    1.067    4.000    4.000    3.733    0.000 
#    7.200    0.000    2.933    0.000    0.000    0.000 
#    0.000    0.000    0.000    0.000    0.000    0.000 
#
# Total GULP energy -167301.683364 kJ/mol
# GULP energy per Si atom -5576.722779 kJ/mol
# Density = 2.136046 g / cm^3
# Si number density = 21.409184 Si / 1000 Ang^3
#
#
#
# Elastic Constant Matrix: (Units=GPa)
#
#
# Indices 1 2 3 4 5 6 
#
# 1 101.8063 29.8147 42.4706 0.0000 0.0000 0.0000
# 2 29.8147 55.9079 32.8678 0.0000 0.0000 0.0000
# 3 42.4706 32.8678 148.1659 0.0000 0.0000 0.0000
# 4 0.0000 0.0000 0.0000 24.4218 0.0000 0.0000
# 5 0.0000 0.0000 0.0000 0.0000 38.1917 0.0000
# 6 0.0000 0.0000 0.0000 0.0000 0.0000 27.7921
#
#
#
# Elastic Compliance Matrix: (Units=1/GPa)
#
#
# Indices 1 2 3 4 5 6 
#
# 1 0.012334 -0.005174 -0.002388 0.000000 0.000000 0.000000
# 2 -0.005174 0.022739 -0.003561 0.000000 0.000000 0.000000
# 3 -0.002388 -0.003561 0.008224 0.000000 0.000000 0.000000
# 4 0.000000 0.000000 0.000000 0.040947 0.000000 0.000000
# 5 0.000000 0.000000 0.000000 0.000000 0.026184 0.000000
# 6 0.000000 0.000000 0.000000 0.000000 0.000000 0.035981
#
#
# Mechanical properties :
#
#
# Convention : Reuss Voigt Hill
#
# Bulk Modulus (GPa) = 47.50294 57.35403 52.42849
# Shear Modulus (GPa) = 28.46225 31.46293 29.96259
#
# Velocity S-wave (km/s) = 3.65011 3.83769 3.74508
# Velocity P-wave (km/s) = 6.32461 6.81798 6.57592
#
# Compressibility (1/GPa) = 0.02105133
#
# Stress axis : x y z
#
# Youngs Moduli (GPa) = 81.07792 43.97680 121.60116
#
# Poissons Ratio (x) = 0.22752 0.29035
# Poissons Ratio (y) = 0.41947 0.43305
# Poissons Ratio (z) = 0.19359 0.15661
#
# Static dielectric constant tensor:
#      x y z
#    x 1.823860 0.000000 0.000000 
#    y 0.000000 1.881680 0.000000 
#    z 0.000000 0.000000 1.835140 
# 
# From -- ./inp_files/7207.got.cif
#   From: 2010.05.17/outbox.cif.g08.bks.cpg/sg43_4_cif.got.tgz:7207.got - 2010.06.03 19:21:55.
