data_PCOD9370936
_publ_section_title
;
Structure prediction by ZEFSAII (Michael W. Deem and Ramdas Pophale) SiO2 
 PCOD9370936
Probable space group: F D D 2
;
_chemical_formula_sum "Si O2"
_cell_formula_units_Z 88
_cell_length_a 10.198186
_cell_length_b 23.815850
_cell_length_c 16.337403
_cell_angle_alpha 90.000000
_cell_angle_beta 90.000000
_cell_angle_gamma 90.000000
_cell_volume 3968.003413
_symmetry_space_group_name_H-M "F D D 2"
_symmetry_group_IT_number 43
_symmetry_cell_setting 'orthorhombic'
loop_
_space_group_symop_operation_xyz
x,y,z
-x,-y,z
1/4-x,1/4+y,1/4+z
1/4+x,1/4-y,1/4+z
x,1/2+y,1/2+z
-x,1/2-y,1/2+z
1/4-x,3/4+y,3/4+z
1/4+x,3/4-y,3/4+z
1/2+x,y,1/2+z
1/2-x,-y,1/2+z
3/4-x,1/4+y,3/4+z
3/4+x,1/4-y,3/4+z
1/2+x,1/2+y,z
1/2-x,1/2-y,z
3/4-x,3/4+y,1/4+z
3/4+x,3/4-y,1/4+z
loop_
_atom_site_type_symbol
_atom_site_label
_atom_site_fract_x
_atom_site_fract_y
_atom_site_fract_z
Si Si1 0.055091 0.372130 0.122500
Si Si2 0.549466 0.750870 0.439647
Si Si3 0.000000 0.000000 0.664027
Si Si4 0.141917 0.136192 0.479852
Si Si5 0.072412 0.848413 0.807822
Si Si6 0.895663 0.158499 0.068358
O O1 0.206646 0.364899 0.098478
O O2 0.035665 0.345720 0.211911
O O3 0.025465 0.439431 0.122762
O O4 0.957552 0.352145 0.053068
O O5 0.393666 0.740855 0.453245
O O6 0.629337 0.693889 0.428790
O O7 0.570004 0.791417 0.361020
O O8 0.596811 0.783391 0.520177
O O9 0.107752 0.088982 0.413645
O O10 0.283222 0.125666 0.518705
O O11 0.212313 0.879211 0.812676
#
# Coordination Sequence:
#
# PCOD9370936 Si02
#       6
#    16  16   8  16  16  16
#     4  11  23  44  72 102 136 182 236 291 349 422
#     4  11  24  44  73  99 144 183 236 296 355 422
#     4  10  20  42  72  98 134 182 232 294 342 414
#     4  12  26  45  68 106 143 180 232 298 355 421
#     4  11  21  44  73  98 134 185 234 285 345 424
#     4  12  23  43  70  97 141 184 223 288 357 416
#
# _framework density 22.177401
#
# number of rings (size 3 to 8) (size 9 to 14) (size 15 to 20)
#    0.000    0.727    5.455    3.818    0.000    0.000 
#   13.091    0.000    4.000    0.000    0.000    0.000 
#    0.000    0.000    0.000    0.000    0.000    0.000 
#
# Total GULP energy -122795.079846 kJ/mol
# GULP energy per Si atom -5581.594538 kJ/mol
# Density = 2.212692 g / cm^3
# Si number density = 22.177401 Si / 1000 Ang^3
#
#
#
# Elastic Constant Matrix: (Units=GPa)
#
#
# Indices 1 2 3 4 5 6 
#
# 1 106.4480 23.0255 38.8528 0.0000 0.0000 0.0000
# 2 23.0255 53.9963 22.7827 0.0000 0.0000 0.0000
# 3 38.8528 22.7827 132.8103 0.0000 0.0000 0.0000
# 4 0.0000 0.0000 0.0000 23.9932 0.0000 0.0000
# 5 0.0000 0.0000 0.0000 0.0000 51.9648 0.0000
# 6 0.0000 0.0000 0.0000 0.0000 0.0000 30.3007
#
#
#
# Elastic Compliance Matrix: (Units=1/GPa)
#
#
# Indices 1 2 3 4 5 6 
#
# 1 0.011144 -0.003640 -0.002636 0.000000 0.000000 0.000000
# 2 -0.003640 0.021154 -0.002564 0.000000 0.000000 0.000000
# 3 -0.002636 -0.002564 0.008740 0.000000 0.000000 0.000000
# 4 0.000000 0.000000 0.000000 0.041678 0.000000 0.000000
# 5 0.000000 0.000000 0.000000 0.000000 0.019244 0.000000
# 6 0.000000 0.000000 0.000000 0.000000 0.000000 0.033003
#
#
# Mechanical properties :
#
#
# Convention : Reuss Voigt Hill
#
# Bulk Modulus (GPa) = 42.81031 51.39739 47.10385
# Shear Modulus (GPa) = 31.16670 35.15797 33.16234
#
# Velocity S-wave (km/s) = 3.75285 3.98591 3.87113
# Velocity P-wave (km/s) = 6.17446 6.66402 6.42391
#
# Compressibility (1/GPa) = 0.02335886
#
# Stress axis : x y z
#
# Youngs Moduli (GPa) = 89.73795 47.27296 114.41136
#
# Poissons Ratio (x) = 0.17207 0.30154
# Poissons Ratio (y) = 0.32663 0.29335
# Poissons Ratio (z) = 0.23651 0.12121
#
# Static dielectric constant tensor:
#      x y z
#    x 1.834040 0.000000 0.000000 
#    y 0.000000 1.841340 0.000000 
#    z 0.000000 0.000000 1.828310 
# 
# From -- ./inp_files/9586.got.cif
#   From: 2010.05.17/outbox.cif.g08.bks.cpg/sg43_5_cif.got.tgz:9586.got - 2010.06.03 19:21:55.
