data_PCOD9370555
_publ_section_title
;
Structure prediction by ZEFSAII (Michael W. Deem and Ramdas Pophale) SiO2 
 PCOD9370555
Probable space group: F D D 2
;
_chemical_formula_sum "Si O2"
_cell_formula_units_Z 112
_cell_length_a 20.885365
_cell_length_b 14.432650
_cell_length_c 15.180013
_cell_angle_alpha 90.000000
_cell_angle_beta 90.000000
_cell_angle_gamma 90.000000
_cell_volume 4575.728975
_symmetry_space_group_name_H-M "F D D 2"
_symmetry_group_IT_number 43
_symmetry_cell_setting 'orthorhombic'
loop_
_space_group_symop_operation_xyz
x,y,z
-x,-y,z
1/4-x,1/4+y,1/4+z
1/4+x,1/4-y,1/4+z
x,1/2+y,1/2+z
-x,1/2-y,1/2+z
1/4-x,3/4+y,3/4+z
1/4+x,3/4-y,3/4+z
1/2+x,y,1/2+z
1/2-x,-y,1/2+z
3/4-x,1/4+y,3/4+z
3/4+x,1/4-y,3/4+z
1/2+x,1/2+y,z
1/2-x,1/2-y,z
3/4-x,3/4+y,1/4+z
3/4+x,3/4-y,1/4+z
loop_
_atom_site_type_symbol
_atom_site_label
_atom_site_fract_x
_atom_site_fract_y
_atom_site_fract_z
Si Si1 0.427118 0.532285 0.888350
Si Si2 0.855847 0.132168 0.518097
Si Si3 0.395240 0.442099 0.572797
Si Si4 0.416116 0.097444 0.583846
Si Si5 0.776100 0.961422 0.071378
Si Si6 0.012449 0.894241 0.248642
Si Si7 0.682509 0.971708 0.733922
O O1 0.500000 0.500000 0.872222
O O2 0.383252 0.453659 0.847152
O O3 0.421798 0.629971 0.836038
O O4 0.421320 0.544142 0.992564
O O5 0.856453 0.187607 0.427334
O O6 0.785148 0.085968 0.526908
O O7 0.899977 0.042222 0.529259
O O8 0.328378 0.393658 0.541620
O O9 0.447713 0.371273 0.535242
O O10 0.480096 0.103116 0.643183
O O11 0.367690 0.053998 0.655602
O O12 0.404344 0.203046 0.551365
O O13 0.761034 0.985548 0.174846
O O14 0.785480 0.060731 0.023486
O O15 0.000000 0.000000 0.278307
#
# Coordination Sequence:
#
# PCOD9370555 Si02
#       7
#    16  16  16  16  16  16  16
#     4   9  19  39  62  79 120 160 207 260 316 377
#     4  10  21  39  64  85 122 172 206 262 330 385
#     4  10  21  37  63  89 123 168 208 265 327 387
#     4  10  21  35  58  93 117 168 203 261 315 377
#     4   9  20  36  59  86 120 166 202 259 316 377
#     4  10  21  35  63  93 128 163 216 264 322 387
#     4  10  20  35  60  86 126 158 208 255 318 381
#
# _framework density 24.476973999999998
#
# number of rings (size 3 to 8) (size 9 to 14) (size 15 to 20)
#    0.000    2.286    0.000    3.000    6.000    2.286 
#    0.000    0.000   50.286    0.000    0.000    0.000 
#    0.000    0.000    0.000    0.000    0.000    0.000 
#
# Total GULP energy -156193.284034 kJ/mol
# GULP energy per Si atom -5578.331573 kJ/mol
# Density = 2.442126 g / cm^3
# Si number density = 24.476974 Si / 1000 Ang^3
#
#
#
# Elastic Constant Matrix: (Units=GPa)
#
#
# Indices 1 2 3 4 5 6 
#
# 1 27.9953 9.8490 -8.1479 0.0000 0.0000 0.0000
# 2 9.8490 127.7262 40.6455 0.0000 0.0000 0.0000
# 3 -8.1479 40.6455 83.4703 0.0000 0.0000 0.0000
# 4 0.0000 0.0000 0.0000 53.5791 0.0000 0.0000
# 5 0.0000 0.0000 0.0000 0.0000 34.4255 0.0000
# 6 0.0000 0.0000 0.0000 0.0000 0.0000 18.1635
#
#
#
# Elastic Compliance Matrix: (Units=1/GPa)
#
#
# Indices 1 2 3 4 5 6 
#
# 1 0.039322 -0.005034 0.006289 0.000000 0.000000 0.000000
# 2 -0.005034 0.009909 -0.005317 0.000000 0.000000 0.000000
# 3 0.006289 -0.005317 0.015183 0.000000 0.000000 0.000000
# 4 0.000000 0.000000 0.000000 0.018664 0.000000 0.000000
# 5 0.000000 0.000000 0.000000 0.000000 0.029048 0.000000
# 6 0.000000 0.000000 0.000000 0.000000 0.000000 0.055056
#
#
# Mechanical properties :
#
#
# Convention : Reuss Voigt Hill
#
# Bulk Modulus (GPa) = 17.76431 35.98723 26.87577
# Shear Modulus (GPa) = 25.76423 34.35664 30.06043
#
# Velocity S-wave (km/s) = 3.24788 3.75057 3.50824
# Velocity P-wave (km/s) = 4.61934 5.78706 5.23586
#
# Compressibility (1/GPa) = 0.05629263
#
# Stress axis : x y z
#
# Youngs Moduli (GPa) = 25.43124 100.91569 65.86247
#
# Poissons Ratio (x) = 0.50797 -0.41424
# Poissons Ratio (y) = 0.12801 0.35017
# Poissons Ratio (z) = -0.15995 0.53653
#
# Static dielectric constant tensor:
#      x y z
#    x 2.193150 0.000000 0.000000 
#    y 0.000000 2.065610 0.000000 
#    z 0.000000 0.000000 1.936030 
# 
# From -- ./inp_files/11510.got.cif
#   From: 2010.05.17/outbox.cif.g08.bks.cpg/sg43_6_cif.got.tgz:11510.got - 2010.06.03 19:21:55.
