data_PCOD9370557
_publ_section_title
;
Structure prediction by ZEFSAII (Michael W. Deem and Ramdas Pophale) SiO2 
 PCOD9370557
Probable space group: F D D 2
;
_chemical_formula_sum "Si O2"
_cell_formula_units_Z 88
_cell_length_a 21.859530
_cell_length_b 8.927166
_cell_length_c 27.282577
_cell_angle_alpha 90.000000
_cell_angle_beta 90.000000
_cell_angle_gamma 90.000000
_cell_volume 5324.021739
_symmetry_space_group_name_H-M "F D D 2"
_symmetry_group_IT_number 43
_symmetry_cell_setting 'orthorhombic'
loop_
_space_group_symop_operation_xyz
x,y,z
-x,-y,z
1/4-x,1/4+y,1/4+z
1/4+x,1/4-y,1/4+z
x,1/2+y,1/2+z
-x,1/2-y,1/2+z
1/4-x,3/4+y,3/4+z
1/4+x,3/4-y,3/4+z
1/2+x,y,1/2+z
1/2-x,-y,1/2+z
3/4-x,1/4+y,3/4+z
3/4+x,1/4-y,3/4+z
1/2+x,1/2+y,z
1/2-x,1/2-y,z
3/4-x,3/4+y,1/4+z
3/4+x,3/4-y,1/4+z
loop_
_atom_site_type_symbol
_atom_site_label
_atom_site_fract_x
_atom_site_fract_y
_atom_site_fract_z
Si Si1 0.984348 0.753454 0.507190
Si Si2 0.556759 0.597374 0.686959
Si Si3 0.397840 0.532142 0.515018
Si Si4 0.259547 0.582739 0.866755
Si Si5 0.750000 0.250000 0.676431
Si Si6 0.121475 0.107195 0.873279
O O1 0.981596 0.636281 0.462855
O O2 0.046332 0.852681 0.503966
O O3 0.988905 0.674753 0.560133
O O4 0.927806 0.868821 0.509149
O O5 0.500000 0.500000 0.707226
O O6 0.593486 0.686678 0.727668
O O7 0.529176 0.710347 0.646760
O O8 0.601713 0.479961 0.660709
O O9 0.374260 0.566803 0.569750
O O10 0.250000 0.750000 0.885698
O O11 0.329610 0.528433 0.870822
O O12 0.693417 0.301004 0.642711
#
# Coordination Sequence:
#
# PCOD9370557 Si02
#       6
#    16  16  16  16   8  16
#     4  10  20  35  61  81 111 147 198 232 275 341
#     4  10  20  37  58  80 113 151 190 229 280 344
#     4  10  20  38  58  82 110 158 189 230 284 350
#     4  10  20  37  58  83 110 149 190 235 276 343
#     4  12  22  36  56  94 120 142 186 258 286 326
#     4  10  22  37  56  84 117 147 192 231 290 338
#
# _framework density 16.528859000000001
#
# number of rings (size 3 to 8) (size 9 to 14) (size 15 to 20)
#    0.000    1.818    4.545    0.000    3.818    0.000 
#    0.000    0.000    0.000    2.182    0.000    0.000 
#    0.000    0.000    0.000    0.000    0.000    0.000 
#
# Total GULP energy -122713.483431 kJ/mol
# GULP energy per Si atom -5577.885611 kJ/mol
# Density = 1.649124 g / cm^3
# Si number density = 16.528859 Si / 1000 Ang^3
#
#
#
# Elastic Constant Matrix: (Units=GPa)
#
#
# Indices 1 2 3 4 5 6 
#
# 1 132.2289 57.4534 71.4633 0.0000 0.0000 0.0000
# 2 57.4534 105.1004 34.9264 0.0000 0.0000 0.0000
# 3 71.4633 34.9264 88.7377 0.0000 0.0000 0.0000
# 4 0.0000 0.0000 0.0000 22.2711 0.0000 0.0000
# 5 0.0000 0.0000 0.0000 0.0000 30.3135 0.0000
# 6 0.0000 0.0000 0.0000 0.0000 0.0000 24.5868
#
#
#
# Elastic Compliance Matrix: (Units=1/GPa)
#
#
# Indices 1 2 3 4 5 6 
#
# 1 0.015323 -0.004919 -0.010404 0.000000 0.000000 0.000000
# 2 -0.004919 0.012525 -0.000969 0.000000 0.000000 0.000000
# 3 -0.010404 -0.000969 0.020029 0.000000 0.000000 0.000000
# 4 0.000000 0.000000 0.000000 0.044901 0.000000 0.000000
# 5 0.000000 0.000000 0.000000 0.000000 0.032989 0.000000
# 6 0.000000 0.000000 0.000000 0.000000 0.000000 0.040672
#
#
# Mechanical properties :
#
#
# Convention : Reuss Voigt Hill
#
# Bulk Modulus (GPa) = 65.38285 72.63924 69.01104
# Shear Modulus (GPa) = 24.49542 26.24921 25.37232
#
# Velocity S-wave (km/s) = 3.85382 3.98940 3.92220
# Velocity P-wave (km/s) = 7.71008 8.07854 7.89646
#
# Compressibility (1/GPa) = 0.01529453
#
# Stress axis : x y z
#
# Youngs Moduli (GPa) = 65.26306 79.83722 49.92777
#
# Poissons Ratio (x) = 0.39270 0.51944
# Poissons Ratio (y) = 0.32102 0.04836
# Poissons Ratio (z) = 0.67898 0.07733
#
# Static dielectric constant tensor:
#      x y z
#    x 1.535860 0.000000 0.000000 
#    y 0.000000 1.550740 0.000000 
#    z 0.000000 0.000000 1.536540 
# 
# From -- ./inp_files/16370.got.cif
#   From: 2010.05.17/outbox.cif.g08.bks.cpg/sg43_9_cif.got.tgz:16370.got - 2010.06.03 19:21:55.
