data_PCOD9370719
_publ_section_title
;
Structure prediction by ZEFSAII (Michael W. Deem and Ramdas Pophale) SiO2 
 PCOD9370719
Probable space group: F D D 2
;
_chemical_formula_sum "Si O2"
_cell_formula_units_Z 120
_cell_length_a 24.028572
_cell_length_b 26.302879
_cell_length_c 10.045391
_cell_angle_alpha 90.000000
_cell_angle_beta 90.000000
_cell_angle_gamma 90.000000
_cell_volume 6348.894267
_symmetry_space_group_name_H-M "F D D 2"
_symmetry_group_IT_number 43
_symmetry_cell_setting 'orthorhombic'
loop_
_space_group_symop_operation_xyz
x,y,z
-x,-y,z
1/4-x,1/4+y,1/4+z
1/4+x,1/4-y,1/4+z
x,1/2+y,1/2+z
-x,1/2-y,1/2+z
1/4-x,3/4+y,3/4+z
1/4+x,3/4-y,3/4+z
1/2+x,y,1/2+z
1/2-x,-y,1/2+z
3/4-x,1/4+y,3/4+z
3/4+x,1/4-y,3/4+z
1/2+x,1/2+y,z
1/2-x,1/2-y,z
3/4-x,3/4+y,1/4+z
3/4+x,3/4-y,1/4+z
loop_
_atom_site_type_symbol
_atom_site_label
_atom_site_fract_x
_atom_site_fract_y
_atom_site_fract_z
Si Si1 0.544958 0.324106 0.426430
Si Si2 0.750000 0.250000 0.131849
Si Si3 0.096981 0.934708 0.487492
Si Si4 0.842504 0.759252 0.281327
Si Si5 0.991819 0.684414 0.621539
Si Si6 0.483501 0.932757 0.632393
Si Si7 0.642990 0.976446 0.256962
Si Si8 0.180266 0.472683 0.758908
O O1 0.568734 0.379909 0.459193
O O2 0.527432 0.314165 0.274191
O O3 0.592404 0.283011 0.458075
O O4 0.487407 0.309579 0.501490
O O5 0.700723 0.227142 0.218397
O O6 0.770733 0.203838 0.034628
O O7 0.124151 0.942123 0.632765
O O8 0.141871 0.948234 0.373150
O O9 0.822627 0.701581 0.310212
O O10 0.789211 0.789482 0.333335
O O11 0.895059 0.775137 0.371882
O O12 0.849946 0.770446 0.127225
O O13 0.002516 0.624969 0.602967
O O14 0.947200 0.719092 0.543294
O O15 0.050380 0.708080 0.577534
#
# Coordination Sequence:
#
# PCOD9370719 Si02
#       8
#    16   8  16  16  16  16  16  16
#     4  11  24  42  67  97 135 173 229 269 331 403
#     4  10  20  38  68  94 130 162 228 268 318 412
#     4  12  24  45  66 102 131 180 217 280 339 395
#     4  10  21  43  65  91 135 169 219 274 331 394
#     4  11  22  42  66  97 128 175 229 273 325 402
#     4  10  21  40  66  98 123 173 228 266 324 413
#     4  11  26  42  64  99 136 172 218 277 336 394
#     4  11  22  43  69  92 129 178 224 275 326 400
#
# _framework density 18.900929000000001
#
# number of rings (size 3 to 8) (size 9 to 14) (size 15 to 20)
#    0.000    1.333    6.667    0.000    1.867    3.200 
#    7.200    0.000    0.000    0.000    0.000    0.000 
#    0.000    0.000    0.000    0.000    0.000    0.000 
#
# Total GULP energy -167166.124274 kJ/mol
# GULP energy per Si atom -5572.204142 kJ/mol
# Density = 1.885791 g / cm^3
# Si number density = 18.900929 Si / 1000 Ang^3
#
#
#
# Elastic Constant Matrix: (Units=GPa)
#
#
# Indices 1 2 3 4 5 6 
#
# 1 44.3387 15.7670 18.4962 0.0000 0.0000 0.0000
# 2 15.7670 101.9432 17.6903 0.0000 0.0000 0.0000
# 3 18.4962 17.6903 107.3074 0.0002 -0.0002 0.0000
# 4 0.0000 0.0000 0.0002 11.0634 -0.0001 0.0000
# 5 0.0000 0.0000 -0.0002 -0.0001 16.2176 0.0000
# 6 0.0000 0.0000 0.0000 0.0000 0.0000 26.1395
#
#
#
# Elastic Compliance Matrix: (Units=1/GPa)
#
#
# Indices 1 2 3 4 5 6 
#
# 1 0.025305 -0.003250 -0.003826 0.000000 0.000000 0.000000
# 2 -0.003250 0.010516 -0.001173 0.000000 0.000000 0.000000
# 3 -0.003826 -0.001173 0.010172 0.000000 0.000000 0.000000
# 4 0.000000 0.000000 0.000000 0.090388 0.000001 0.000000
# 5 0.000000 0.000000 0.000000 0.000001 0.061661 0.000000
# 6 0.000000 0.000000 0.000000 0.000000 0.000000 0.038256
#
#
# Mechanical properties :
#
#
# Convention : Reuss Voigt Hill
#
# Bulk Modulus (GPa) = 33.90485 39.72182 36.81334
# Shear Modulus (GPa) = 19.03830 24.12650 21.58240
#
# Velocity S-wave (km/s) = 3.17719 3.57665 3.38282
# Velocity P-wave (km/s) = 5.60683 6.17398 5.89723
#
# Compressibility (1/GPa) = 0.02949430
#
# Stress axis : x y z
#
# Youngs Moduli (GPa) = 39.51725 95.09635 98.30962
#
# Poissons Ratio (x) = 0.30905 0.37614
# Poissons Ratio (y) = 0.12843 0.11536
# Poissons Ratio (z) = 0.15119 0.11159
#
# Static dielectric constant tensor:
#      x y z
#    x 1.674030 0.000000 0.000000 
#    y 0.000000 1.775690 0.000000 
#    z 0.000000 0.000000 1.676700 
# 
# From -- ./inp_files/3903.got.cif
#   From: 2010.05.17/outbox.cif.g08.bks.cpg/sg43_2_cif.got.tgz:3903.got - 2010.06.03 19:21:55.
