data_PCOD9370179
_publ_section_title
;
Structure prediction by ZEFSAII (Michael W. Deem and Ramdas Pophale) SiO2 
 PCOD9370179
Probable space group: F D D 2
;
_chemical_formula_sum "Si O2"
_cell_formula_units_Z 72
_cell_length_a 17.196348
_cell_length_b 7.042208
_cell_length_c 23.059330
_cell_angle_alpha 90.000000
_cell_angle_beta 90.000000
_cell_angle_gamma 90.000000
_cell_volume 2792.490846
_symmetry_space_group_name_H-M "F D D 2"
_symmetry_group_IT_number 43
_symmetry_cell_setting 'orthorhombic'
loop_
_space_group_symop_operation_xyz
x,y,z
-x,-y,z
1/4-x,1/4+y,1/4+z
1/4+x,1/4-y,1/4+z
x,1/2+y,1/2+z
-x,1/2-y,1/2+z
1/4-x,3/4+y,3/4+z
1/4+x,3/4-y,3/4+z
1/2+x,y,1/2+z
1/2-x,-y,1/2+z
3/4-x,1/4+y,3/4+z
3/4+x,1/4-y,3/4+z
1/2+x,1/2+y,z
1/2-x,1/2-y,z
3/4-x,3/4+y,1/4+z
3/4+x,3/4-y,1/4+z
loop_
_atom_site_type_symbol
_atom_site_label
_atom_site_fract_x
_atom_site_fract_y
_atom_site_fract_z
Si Si1 0.694204 0.029438 0.432330
Si Si2 0.966459 0.285588 0.449016
Si Si3 0.218472 0.533678 0.818449
Si Si4 0.409011 0.745211 0.864807
Si Si5 0.250000 0.250000 0.031890
O O1 0.624949 0.182760 0.442304
O O2 0.747847 0.067203 0.488623
O O3 0.745179 0.056436 0.375270
O O4 0.649131 0.831635 0.416248
O O5 0.000000 0.500000 0.449001
O O6 0.998446 0.202142 0.509031
O O7 0.010701 0.200318 0.394626
O O8 0.250000 0.750000 0.818045
O O9 0.128369 0.582928 0.828683
O O10 0.428659 0.561014 0.824273
#
# Coordination Sequence:
#
# PCOD9370179 Si02
#       5
#    16  16  16  16   8
#     4  10  19  32  51  85 114 148 191 251 292 352
#     4   9  16  30  54  78 106 140 195 238 283 340
#     4   9  18  32  54  81 112 145 194 240 292 352
#     4  10  18  34  56  85 109 155 194 246 296 368
#     4  12  20  32  60  86 118 154 210 250 304 360
#
# _framework density 25.783435000000001
#
# number of rings (size 3 to 8) (size 9 to 14) (size 15 to 20)
#    0.000    2.222    3.333    5.333    0.000    0.000 
#    0.000    2.222    0.000    4.000    0.000    0.000 
#    0.000    0.000    0.000    0.000    0.000    0.000 
#
# Total GULP energy -100283.613272 kJ/mol
# GULP energy per Si atom -5571.311848 kJ/mol
# Density = 2.572475 g / cm^3
# Si number density = 25.783435 Si / 1000 Ang^3
#
#
#
# Elastic Constant Matrix: (Units=GPa)
#
#
# Indices 1 2 3 4 5 6 
#
# 1 113.4569 22.9861 47.8559 0.0000 0.0000 0.0000
# 2 22.9861 100.4102 23.3388 0.0000 0.0000 -0.0001
# 3 47.8559 23.3388 162.9429 0.0000 0.0000 0.0000
# 4 0.0000 0.0000 0.0000 -2.8933 0.0000 0.0000
# 5 0.0000 0.0000 0.0000 0.0000 -208.6603 0.0000
# 6 0.0000 -0.0001 0.0000 0.0000 0.0000 -3.2143
#
#
#
# Elastic Compliance Matrix: (Units=1/GPa)
#
#
# Indices 1 2 3 4 5 6 
#
# 1 0.010339 -0.001718 -0.002790 0.000000 0.000000 0.000000
# 2 -0.001718 0.010588 -0.001012 0.000000 0.000000 0.000000
# 3 -0.002790 -0.001012 0.007102 0.000000 0.000000 0.000000
# 4 0.000000 0.000000 0.000000 -0.345629 0.000000 -0.000001
# 5 0.000000 0.000000 0.000000 0.000000 -0.004792 0.000000
# 6 0.000000 0.000000 0.000000 -0.000001 0.000000 -0.311114
#
#
# Mechanical properties :
#
#
# Convention : Reuss Voigt Hill
#
# Bulk Modulus (GPa) = 58.86774 62.79684 60.83229
# Shear Modulus (GPa) = -8.10631 -24.11162 -16.10896
#
# Velocity S-wave (km/s) = -1.77506 -3.06135 -2.50227
# Velocity P-wave (km/s) = 4.32205 3.45145 3.91105
#
# Compressibility (1/GPa) = 0.01698723
#
# Stress axis : x y z
#
# Youngs Moduli (GPa) = 96.72091 94.44941 140.81338
#
# Poissons Ratio (x) = 0.16229 0.39293
# Poissons Ratio (y) = 0.16619 0.14248
# Poissons Ratio (z) = 0.26989 0.09557
#
# Static dielectric constant tensor:
#      x y z
#    x 2.390990 0.000000 0.000000 
#    y 0.000000 2.154480 0.000000 
#    z 0.000000 0.000000 2.119680 
# 
# From -- ./inp_files/18256.got.cif
#   From: 2010.05.17/outbox.cif.g08.bks.cpg/sg43_10_cif.got.tgz:18256.got - 2010.06.03 19:21:55.
