data_PCOD9370857
_publ_section_title
;
Structure prediction by ZEFSAII (Michael W. Deem and Ramdas Pophale) SiO2 
 PCOD9370857
Probable space group: F D D 2
;
_chemical_formula_sum "Si O2"
_cell_formula_units_Z 96
_cell_length_a 21.751970
_cell_length_b 12.652023
_cell_length_c 17.253014
_cell_angle_alpha 90.000000
_cell_angle_beta 90.000000
_cell_angle_gamma 90.000000
_cell_volume 4748.140299
_symmetry_space_group_name_H-M "F D D 2"
_symmetry_group_IT_number 43
_symmetry_cell_setting 'orthorhombic'
loop_
_space_group_symop_operation_xyz
x,y,z
-x,-y,z
1/4-x,1/4+y,1/4+z
1/4+x,1/4-y,1/4+z
x,1/2+y,1/2+z
-x,1/2-y,1/2+z
1/4-x,3/4+y,3/4+z
1/4+x,3/4-y,3/4+z
1/2+x,y,1/2+z
1/2-x,-y,1/2+z
3/4-x,1/4+y,3/4+z
3/4+x,1/4-y,3/4+z
1/2+x,1/2+y,z
1/2-x,1/2-y,z
3/4-x,3/4+y,1/4+z
3/4+x,3/4-y,1/4+z
loop_
_atom_site_type_symbol
_atom_site_label
_atom_site_fract_x
_atom_site_fract_y
_atom_site_fract_z
Si Si1 0.169924 0.434952 0.852810
Si Si2 0.416451 0.528185 0.810621
Si Si3 0.532007 0.693944 0.031352
Si Si4 0.750000 0.750000 0.375516
Si Si5 0.250000 0.750000 0.422128
Si Si6 0.930584 0.663405 0.738586
Si Si7 0.491521 0.318961 0.855282
O O1 0.217235 0.512287 0.810043
O O2 0.213262 0.337059 0.875511
O O3 0.116303 0.392908 0.797528
O O4 0.150498 0.498485 0.930878
O O5 0.344806 0.506021 0.812016
O O6 0.446715 0.551258 0.726324
O O7 0.450004 0.420594 0.834374
O O8 0.440268 0.629659 0.858642
O O9 0.536549 0.575641 0.065980
O O10 0.530580 0.711699 0.939935
O O11 0.788597 0.825788 0.433045
O O12 0.979480 0.728779 0.791573
#
# Coordination Sequence:
#
# PCOD9370857 Si02
#       7
#    16  16  16   8   8  16  16
#     4  11  25  41  67  99 135 176 219 278 338 402
#     4  10  21  39  68  92 127 162 216 280 314 387
#     4  11  25  41  66  96 130 178 219 264 338 393
#     4  10  26  47  61  98 136 182 212 270 336 409
#     4  10  20  41  61 100 124 166 216 274 328 385
#     4  11  24  46  67  97 139 171 227 272 340 394
#     4  10  22  40  68 101 121 171 226 275 326 386
#
# _framework density 20.218443000000001
#
# number of rings (size 3 to 8) (size 9 to 14) (size 15 to 20)
#    0.000    1.667    3.333    2.000    7.000    1.333 
#    3.000    0.000    0.000    0.000    0.000    0.000 
#    0.000    0.000    0.000    0.000    0.000    0.000 
#
# Total GULP energy -133733.526639 kJ/mol
# GULP energy per Si atom -5572.230277 kJ/mol
# Density = 2.017243 g / cm^3
# Si number density = 20.218443 Si / 1000 Ang^3
#
#
#
# Elastic Constant Matrix: (Units=GPa)
#
#
# Indices 1 2 3 4 5 6 
#
# 1 26.6577 3.2571 4.5977 0.0000 0.0000 0.0000
# 2 3.2571 61.4542 9.9238 0.0000 0.0000 0.0000
# 3 4.5977 9.9238 60.7843 0.0000 0.0000 0.0000
# 4 0.0000 0.0000 0.0000 5.7109 0.0000 0.0000
# 5 0.0000 0.0000 0.0000 0.0000 24.8442 0.0000
# 6 0.0000 0.0000 0.0000 0.0000 0.0000 21.7990
#
#
#
# Elastic Compliance Matrix: (Units=1/GPa)
#
#
# Indices 1 2 3 4 5 6 
#
# 1 0.038161 -0.001599 -0.002625 0.000000 0.000000 0.000000
# 2 -0.001599 0.016780 -0.002619 0.000000 0.000000 0.000000
# 3 -0.002625 -0.002619 0.017078 0.000000 0.000000 0.000000
# 4 0.000000 0.000000 0.000000 0.175103 0.000000 0.000000
# 5 0.000000 0.000000 0.000000 0.000000 0.040251 0.000000
# 6 0.000000 0.000000 0.000000 0.000000 0.000000 0.045874
#
#
# Mechanical properties :
#
#
# Convention : Reuss Voigt Hill
#
# Bulk Modulus (GPa) = 17.14294 20.49482 18.81888
# Shear Modulus (GPa) = 13.64719 19.21200 16.42960
#
# Velocity S-wave (km/s) = 2.60087 3.08591 2.85371
# Velocity P-wave (km/s) = 4.18529 4.78078 4.49291
#
# Compressibility (1/GPa) = 0.05833306
#
# Stress axis : x y z
#
# Youngs Moduli (GPa) = 26.20488 59.59522 58.55576
#
# Poissons Ratio (x) = 0.09527 0.15374
# Poissons Ratio (y) = 0.04189 0.15333
# Poissons Ratio (z) = 0.06880 0.15606
#
# Static dielectric constant tensor:
#      x y z
#    x 1.739780 0.000000 0.000000 
#    y 0.000000 1.684980 0.000000 
#    z 0.000000 0.000000 1.789920 
# 
# From -- ./inp_files/11240.got.cif
#   From: 2010.05.17/outbox.cif.g08.bks.cpg/sg43_6_cif.got.tgz:11240.got - 2010.06.03 19:21:55.
