data_PCOD9370947
_publ_section_title
;
Structure prediction by ZEFSAII (Michael W. Deem and Ramdas Pophale) SiO2 
 PCOD9370947
Probable space group: F D D 2
;
_chemical_formula_sum "Si O2"
_cell_formula_units_Z 88
_cell_length_a 8.597851
_cell_length_b 16.566047
_cell_length_c 27.802890
_cell_angle_alpha 90.000000
_cell_angle_beta 90.000000
_cell_angle_gamma 90.000000
_cell_volume 3960.032454
_symmetry_space_group_name_H-M "F D D 2"
_symmetry_group_IT_number 43
_symmetry_cell_setting 'orthorhombic'
loop_
_space_group_symop_operation_xyz
x,y,z
-x,-y,z
1/4-x,1/4+y,1/4+z
1/4+x,1/4-y,1/4+z
x,1/2+y,1/2+z
-x,1/2-y,1/2+z
1/4-x,3/4+y,3/4+z
1/4+x,3/4-y,3/4+z
1/2+x,y,1/2+z
1/2-x,-y,1/2+z
3/4-x,1/4+y,3/4+z
3/4+x,1/4-y,3/4+z
1/2+x,1/2+y,z
1/2-x,1/2-y,z
3/4-x,3/4+y,1/4+z
3/4+x,3/4-y,1/4+z
loop_
_atom_site_type_symbol
_atom_site_label
_atom_site_fract_x
_atom_site_fract_y
_atom_site_fract_z
Si Si1 0.483619 0.116358 0.831790
Si Si2 0.243704 0.443100 0.965703
Si Si3 0.500000 0.500000 0.250504
Si Si4 0.569417 0.907607 0.125439
Si Si5 0.337924 0.963658 0.567244
Si Si6 0.650412 0.858567 0.692074
O O1 0.564522 0.062622 0.791067
O O2 0.300098 0.105656 0.842343
O O3 0.485657 0.206091 0.811565
O O4 0.561586 0.111021 0.884705
O O5 0.319424 0.388208 0.925286
O O6 0.224320 0.537299 0.951121
O O7 0.063334 0.414571 0.967797
O O8 0.338501 0.428673 0.014266
O O9 0.599288 0.443044 0.215339
O O10 0.741282 0.910962 0.104002
O O11 0.500000 0.000000 0.131073
O O12 0.500000 0.000000 0.584265
#
# Coordination Sequence:
#
# PCOD9370947 Si02
#       6
#    16  16   8  16  16  16
#     4  10  21  40  65 100 133 182 235 280 346 437
#     4  10  20  43  65 100 136 182 233 295 346 428
#     4  12  20  38  70 106 140 192 228 302 366 408
#     4   9  20  41  72  94 135 185 230 283 353 425
#     4  11  23  41  63  96 138 176 227 292 348 410
#     4  10  22  37  71 104 139 180 245 286 357 437
#
# _framework density 22.22204
#
# number of rings (size 3 to 8) (size 9 to 14) (size 15 to 20)
#    0.000    1.818    1.818    3.273    6.364    0.000 
#   13.091    0.000    0.000    0.000    0.000    0.000 
#    0.000    0.000    0.000    0.000    0.000    0.000 
#
# Total GULP energy -122637.358200 kJ/mol
# GULP energy per Si atom -5574.425373 kJ/mol
# Density = 2.217146 g / cm^3
# Si number density = 22.222040 Si / 1000 Ang^3
#
#
#
# Elastic Constant Matrix: (Units=GPa)
#
#
# Indices 1 2 3 4 5 6 
#
# 1 96.3535 28.8237 69.7478 0.0000 0.0000 0.0000
# 2 28.8237 78.7347 36.6377 0.0000 0.0000 0.0000
# 3 69.7478 36.6377 95.8813 0.0000 0.0000 0.0000
# 4 0.0000 0.0000 0.0000 49.1377 0.0000 0.0000
# 5 0.0000 0.0000 0.0000 0.0000 -64.6767 0.0000
# 6 0.0000 0.0000 0.0000 0.0000 0.0000 24.7324
#
#
#
# Elastic Compliance Matrix: (Units=1/GPa)
#
#
# Indices 1 2 3 4 5 6 
#
# 1 0.021957 -0.000737 -0.015691 0.000000 0.000000 0.000000
# 2 -0.000737 0.015472 -0.005376 0.000000 0.000000 0.000000
# 3 -0.015691 -0.005376 0.023898 0.000000 0.000000 0.000000
# 4 0.000000 0.000000 0.000000 0.020351 0.000000 0.000000
# 5 0.000000 0.000000 0.000000 0.000000 -0.015462 0.000000
# 6 0.000000 0.000000 0.000000 0.000000 0.000000 0.040433
#
#
# Mechanical properties :
#
#
# Convention : Reuss Voigt Hill
#
# Bulk Modulus (GPa) = 56.43451 60.15421 58.29436
# Shear Modulus (GPa) = 32.01754 10.88937 21.45345
#
# Velocity S-wave (km/s) = 3.79991 2.21605 3.11048
# Velocity P-wave (km/s) = 6.68605 5.80312 6.26017
#
# Compressibility (1/GPa) = 0.01771966
#
# Stress axis : x y z
#
# Youngs Moduli (GPa) = 45.54332 64.63145 41.84422
#
# Poissons Ratio (x) = 0.04761 0.65658
# Poissons Ratio (y) = 0.03355 0.22497
# Poissons Ratio (z) = 0.71462 0.34748
#
# Static dielectric constant tensor:
#      x y z
#    x 1.915520 0.000000 0.000000 
#    y 0.000000 1.876530 0.000000 
#    z 0.000000 0.000000 1.858110 
# 
# From -- ./inp_files/27870.got.cif
#   From: 2010.05.17/outbox.cif.g08.bks.cpg/sg43_14_cif.got.tgz:27870.got - 2010.06.03 19:21:55.
