data_PCOD9370819
_publ_section_title
;
Structure prediction by ZEFSAII (Michael W. Deem and Ramdas Pophale) SiO2 
 PCOD9370819
Probable space group: F D D 2
;
_chemical_formula_sum "Si O2"
_cell_formula_units_Z 112
_cell_length_a 15.912739
_cell_length_b 28.571530
_cell_length_c 10.486600
_cell_angle_alpha 90.000000
_cell_angle_beta 90.000000
_cell_angle_gamma 90.000000
_cell_volume 4767.746320
_symmetry_space_group_name_H-M "F D D 2"
_symmetry_group_IT_number 43
_symmetry_cell_setting 'orthorhombic'
loop_
_space_group_symop_operation_xyz
x,y,z
-x,-y,z
1/4-x,1/4+y,1/4+z
1/4+x,1/4-y,1/4+z
x,1/2+y,1/2+z
-x,1/2-y,1/2+z
1/4-x,3/4+y,3/4+z
1/4+x,3/4-y,3/4+z
1/2+x,y,1/2+z
1/2-x,-y,1/2+z
3/4-x,1/4+y,3/4+z
3/4+x,1/4-y,3/4+z
1/2+x,1/2+y,z
1/2-x,1/2-y,z
3/4-x,3/4+y,1/4+z
3/4+x,3/4-y,1/4+z
loop_
_atom_site_type_symbol
_atom_site_label
_atom_site_fract_x
_atom_site_fract_y
_atom_site_fract_z
Si Si1 0.702761 0.153344 0.776270
Si Si2 0.250000 0.750000 0.758306
Si Si3 0.452761 0.403344 0.375306
Si Si4 0.371831 0.398827 0.641758
Si Si5 0.587073 0.799565 0.137780
Si Si6 0.378169 0.351173 0.009818
Si Si7 0.087073 0.200435 0.763796
Si Si8 0.750000 0.250000 0.143269
O O1 0.711621 0.205324 0.829229
O O2 0.625000 0.125000 0.825788
O O3 0.684976 0.160461 0.624387
O O4 0.783460 0.122223 0.805710
O O5 0.330566 0.728265 0.684030
O O6 0.434976 0.410461 0.527189
O O7 0.533460 0.372223 0.345865
O O8 0.461621 0.455324 0.322347
O O9 0.348134 0.441305 0.736371
O O10 0.408377 0.352979 0.711771
O O11 0.591623 0.852979 0.189805
O O12 0.500000 0.780313 0.200788
O O13 0.401866 0.308695 0.915204
O O14 0.169434 0.228265 0.717545
#
# Coordination Sequence:
#
# PCOD9370819 Si02
#       8
#    16   8  16  16  16  16  16   8
#     4  11  23  43  64  97 139 191 235 291 362 445
#     4  10  26  41  69 104 140 180 246 300 364 444
#     4  11  23  43  64  97 139 191 235 291 362 445
#     4  10  21  38  69  95 129 184 231 289 367 427
#     4  10  20  40  66  99 136 171 234 299 361 425
#     4  10  21  38  69  95 129 184 231 289 367 427
#     4  10  20  40  66  99 136 171 234 299 361 425
#     4  10  26  41  69 104 140 180 246 300 364 444
#
# _framework density 23.491184000000001
#
# number of rings (size 3 to 8) (size 9 to 14) (size 15 to 20)
#    0.000    1.714    2.857    0.857    0.000    4.571 
#    0.000   11.429    0.000    0.000    0.000    0.000 
#    0.000    0.000    0.000    0.000    0.000    0.000 
#
# Total GULP energy -156307.680234 kJ/mol
# GULP energy per Si atom -5582.417151 kJ/mol
# Density = 2.343772 g / cm^3
# Si number density = 23.491184 Si / 1000 Ang^3
#
#
#
# Elastic Constant Matrix: (Units=GPa)
#
#
# Indices 1 2 3 4 5 6 
#
# 1 173.8747 47.1093 16.8785 0.0000 0.0000 0.0000
# 2 47.1093 136.4819 24.8098 0.0000 0.0000 0.0000
# 3 16.8785 24.8098 96.6659 0.0000 0.0000 0.0000
# 4 0.0000 0.0000 0.0000 0.6261 0.0000 0.0000
# 5 0.0000 0.0000 0.0000 0.0000 40.2711 0.0000
# 6 0.0000 0.0000 0.0000 0.0000 0.0000 37.6108
#
#
#
# Elastic Compliance Matrix: (Units=1/GPa)
#
#
# Indices 1 2 3 4 5 6 
#
# 1 0.006375 -0.002096 -0.000575 0.000000 0.000000 0.000000
# 2 -0.002096 0.008375 -0.001783 0.000000 0.000000 0.000000
# 3 -0.000575 -0.001783 0.010903 0.000000 0.000000 0.000000
# 4 0.000000 0.000000 0.000000 1.597113 0.000000 0.000000
# 5 0.000000 0.000000 0.000000 0.000000 0.024832 0.000000
# 6 0.000000 0.000000 0.000000 0.000000 0.000000 0.026588
#
#
# Mechanical properties :
#
#
# Convention : Reuss Voigt Hill
#
# Bulk Modulus (GPa) = 59.72421 64.95753 62.34087
# Shear Modulus (GPa) = 2.96090 36.91662 19.93876
#
# Velocity S-wave (km/s) = 1.12391 3.96853 2.91654
# Velocity P-wave (km/s) = 5.21186 6.97932 6.15932
#
# Compressibility (1/GPa) = 0.01674363
#
# Stress axis : x y z
#
# Youngs Moduli (GPa) = 156.86383 119.40860 91.71728
#
# Poissons Ratio (x) = 0.25027 0.05275
# Poissons Ratio (y) = 0.32877 0.16357
# Poissons Ratio (z) = 0.09023 0.21296
#
# Static dielectric constant tensor:
#      x y z
#    x 1.918950 0.000000 0.000000 
#    y 0.000000 1.843630 0.000000 
#    z 0.000000 0.000000 2.021580 
# 
# From -- ./inp_files/6354.got.cif
#   From: 2010.05.17/outbox.cif.g08.bks.cpg/sg43_4_cif.got.tgz:6354.got - 2010.06.03 19:21:55.
