data_PCOD9370255
_publ_section_title
;
Structure prediction by ZEFSAII (Michael W. Deem and Ramdas Pophale) SiO2 
 PCOD9370255
Probable space group: F D D 2
;
_chemical_formula_sum "Si O2"
_cell_formula_units_Z 120
_cell_length_a 14.360137
_cell_length_b 24.353210
_cell_length_c 15.156664
_cell_angle_alpha 90.000000
_cell_angle_beta 90.000000
_cell_angle_gamma 90.000000
_cell_volume 5300.519298
_symmetry_space_group_name_H-M "F D D 2"
_symmetry_group_IT_number 43
_symmetry_cell_setting 'orthorhombic'
loop_
_space_group_symop_operation_xyz
x,y,z
-x,-y,z
1/4-x,1/4+y,1/4+z
1/4+x,1/4-y,1/4+z
x,1/2+y,1/2+z
-x,1/2-y,1/2+z
1/4-x,3/4+y,3/4+z
1/4+x,3/4-y,3/4+z
1/2+x,y,1/2+z
1/2-x,-y,1/2+z
3/4-x,1/4+y,3/4+z
3/4+x,1/4-y,3/4+z
1/2+x,1/2+y,z
1/2-x,1/2-y,z
3/4-x,3/4+y,1/4+z
3/4+x,3/4-y,1/4+z
loop_
_atom_site_type_symbol
_atom_site_label
_atom_site_fract_x
_atom_site_fract_y
_atom_site_fract_z
Si Si1 0.500000 0.000000 0.404901
Si Si2 0.050591 0.352298 0.857872
Si Si3 0.964421 0.130743 0.166178
Si Si4 0.606470 0.838943 0.353655
Si Si5 0.409053 0.885877 0.398514
Si Si6 0.267632 0.691331 0.376196
Si Si7 0.187087 0.298182 0.675845
Si Si8 0.378446 0.283013 0.313498
O O1 0.447975 0.945887 0.363979
O O2 0.417397 0.022359 0.468511
O O3 0.070777 0.381686 0.764632
O O4 0.142629 0.340013 0.913260
O O5 0.988693 0.394869 0.910116
O O6 0.985370 0.301690 0.826953
O O7 0.916771 0.189013 0.141713
O O8 0.074790 0.125851 0.162366
O O9 0.929326 0.083069 0.103173
O O10 0.500478 0.849097 0.381398
O O11 0.630028 0.854295 0.251534
O O12 0.630836 0.774845 0.363472
O O13 0.319911 0.849509 0.365945
O O14 0.250000 0.750000 0.421898
O O15 0.311749 0.709118 0.281121
O O16 0.250000 0.250000 0.636476
#
# Coordination Sequence:
#
# PCOD9370255 Si02
#       8
#     8  16  16  16  16  16  16  16
#     4  10  20  42  62  94 134 176 216 270 344 402
#     4  10  21  36  63  91 121 160 213 269 316 382
#     4  10  19  36  60  91 123 157 210 268 317 388
#     4  11  23  40  64  95 125 173 220 265 339 392
#     4  11  24  42  65  93 128 177 218 275 324 412
#     4  10  22  43  63  87 125 174 216 257 328 396
#     4   9  21  39  60  90 123 164 208 261 323 389
#     4  10  18  38  63  87 126 167 213 261 329 399
#
# _framework density 22.639291
#
# number of rings (size 3 to 8) (size 9 to 14) (size 15 to 20)
#    0.000    1.867    2.667    1.600    3.733    1.067 
#    8.400    2.667    0.000    0.000    0.000    0.000 
#    0.000    0.000    0.000    0.000    0.000    0.000 
#
# Total GULP energy -167043.786914 kJ/mol
# GULP energy per Si atom -5568.126230 kJ/mol
# Density = 2.258776 g / cm^3
# Si number density = 22.639291 Si / 1000 Ang^3
#
#
#
# Elastic Constant Matrix: (Units=GPa)
#
#
# Indices 1 2 3 4 5 6 
#
# 1 183.4511 54.6423 0.8072 0.0000 0.0000 0.0000
# 2 54.6423 106.7833 3.0553 0.0000 0.0000 0.0000
# 3 0.8072 3.0553 29.2618 0.0000 0.0000 0.0000
# 4 0.0000 0.0000 0.0000 22.9194 0.0000 0.0000
# 5 0.0000 0.0000 0.0000 0.0000 13.3110 0.0000
# 6 0.0000 0.0000 0.0000 0.0000 0.0000 46.6073
#
#
#
# Elastic Compliance Matrix: (Units=1/GPa)
#
#
# Indices 1 2 3 4 5 6 
#
# 1 0.006432 -0.003296 0.000167 0.000000 0.000000 0.000000
# 2 -0.003296 0.011082 -0.001066 0.000000 0.000000 0.000000
# 3 0.000167 -0.001066 0.034281 0.000000 0.000000 0.000000
# 4 0.000000 0.000000 0.000000 0.043631 0.000000 0.000000
# 5 0.000000 0.000000 0.000000 0.000000 0.075126 0.000000
# 6 0.000000 0.000000 0.000000 0.000000 0.000000 0.021456
#
#
# Mechanical properties :
#
#
# Convention : Reuss Voigt Hill
#
# Bulk Modulus (GPa) = 23.03944 48.50066 35.77005
# Shear Modulus (GPa) = 23.27017 33.96694 28.61856
#
# Velocity S-wave (km/s) = 3.20951 3.87764 3.55929
# Velocity P-wave (km/s) = 4.89219 6.44344 5.72064
#
# Compressibility (1/GPa) = 0.04340383
#
# Stress axis : x y z
#
# Youngs Moduli (GPa) = 155.47036 90.23682 29.17068
#
# Poissons Ratio (x) = 0.29743 -0.00486
# Poissons Ratio (y) = 0.51245 0.03110
# Poissons Ratio (z) = -0.02592 0.09621
#
# Static dielectric constant tensor:
#      x y z
#    x 2.161060 0.000000 0.000000 
#    y 0.000000 1.914640 0.000000 
#    z 0.000000 0.000000 1.882890 
# 
# From -- ./inp_files/13966.got.cif
#   From: 2010.05.17/outbox.cif.g08.bks.cpg/sg43_7_cif.got.tgz:13966.got - 2010.06.03 19:21:55.
