data_PCOD9370727
_publ_section_title
;
Structure prediction by ZEFSAII (Michael W. Deem and Ramdas Pophale) SiO2 
 PCOD9370727
Probable space group: F D D 2
;
_chemical_formula_sum "Si O2"
_cell_formula_units_Z 112
_cell_length_a 34.589801
_cell_length_b 11.679591
_cell_length_c 15.245023
_cell_angle_alpha 90.000000
_cell_angle_beta 90.000000
_cell_angle_gamma 90.000000
_cell_volume 6158.908927
_symmetry_space_group_name_H-M "F D D 2"
_symmetry_group_IT_number 43
_symmetry_cell_setting 'orthorhombic'
loop_
_space_group_symop_operation_xyz
x,y,z
-x,-y,z
1/4-x,1/4+y,1/4+z
1/4+x,1/4-y,1/4+z
x,1/2+y,1/2+z
-x,1/2-y,1/2+z
1/4-x,3/4+y,3/4+z
1/4+x,3/4-y,3/4+z
1/2+x,y,1/2+z
1/2-x,-y,1/2+z
3/4-x,1/4+y,3/4+z
3/4+x,1/4-y,3/4+z
1/2+x,1/2+y,z
1/2-x,1/2-y,z
3/4-x,3/4+y,1/4+z
3/4+x,3/4-y,1/4+z
loop_
_atom_site_type_symbol
_atom_site_label
_atom_site_fract_x
_atom_site_fract_y
_atom_site_fract_z
Si Si1 0.022672 0.832017 0.002390
Si Si2 0.492657 0.132290 0.889042
Si Si3 0.519180 0.265523 0.207146
Si Si4 0.690626 0.805538 0.201933
Si Si5 0.079644 0.792499 0.496290
Si Si6 0.533940 0.921276 0.144740
Si Si7 0.166953 0.848201 0.502572
O O1 0.019305 0.808863 0.106683
O O2 0.021516 0.714677 0.945542
O O3 0.983286 0.892555 0.969171
O O4 0.056507 0.924437 0.983965
O O5 0.494579 0.152318 0.784568
O O6 0.500000 0.000000 0.907431
O O7 0.449355 0.170738 0.918314
O O8 0.490049 0.156980 0.211904
O O9 0.561430 0.215658 0.228871
O O10 0.678866 0.812132 0.100711
O O11 0.664987 0.904639 0.247988
O O12 0.055937 0.837704 0.579489
O O13 0.121151 0.850770 0.492469
O O14 0.500000 0.000000 0.103118
O O15 0.564827 0.003606 0.188620
#
# Coordination Sequence:
#
# PCOD9370727 Si02
#       7
#    16  16  16  16  16  16  16
#     4  10  21  38  62  88 121 154 203 258 299 360
#     4  11  23  38  61  95 123 157 214 258 310 367
#     4  11  21  38  61  91 121 167 204 252 314 367
#     4  10  20  39  61  87 118 157 200 253 302 363
#     4  11  21  39  59  93 124 156 202 260 317 366
#     4  10  21  34  61  91 119 156 213 252 301 369
#     4  11  22  36  65  87 122 162 207 256 311 376
#
# _framework density 18.185040000000001
#
# number of rings (size 3 to 8) (size 9 to 14) (size 15 to 20)
#    0.000    1.429    5.714    2.143    8.000    0.000 
#    0.000    0.000   12.571    0.000    0.000    0.000 
#    0.000    0.000    0.000    0.000    0.000    0.000 
#
# Total GULP energy -155981.180717 kJ/mol
# GULP energy per Si atom -5570.756454 kJ/mol
# Density = 1.814365 g / cm^3
# Si number density = 18.185040 Si / 1000 Ang^3
#
#
#
# Elastic Constant Matrix: (Units=GPa)
#
#
# Indices 1 2 3 4 5 6 
#
# 1 80.0764 17.4417 17.8496 0.0000 0.0000 0.0000
# 2 17.4417 121.5830 48.8193 0.0000 0.0000 0.0000
# 3 17.8496 48.8193 114.2543 0.0000 0.0000 0.0000
# 4 0.0000 0.0000 0.0000 22.2973 0.0000 0.0000
# 5 0.0000 0.0000 0.0000 0.0000 4.1664 0.0000
# 6 0.0000 0.0000 0.0000 0.0000 0.0000 13.4946
#
#
#
# Elastic Compliance Matrix: (Units=1/GPa)
#
#
# Indices 1 2 3 4 5 6 
#
# 1 0.013101 -0.001277 -0.001501 0.000000 0.000000 0.000000
# 2 -0.001277 0.010053 -0.004096 0.000000 0.000000 0.000000
# 3 -0.001501 -0.004096 0.010737 0.000000 0.000000 0.000000
# 4 0.000000 0.000000 0.000000 0.044849 0.000000 0.000000
# 5 0.000000 0.000000 0.000000 0.000000 0.240017 0.000000
# 6 0.000000 0.000000 0.000000 0.000000 0.000000 0.074104
#
#
# Mechanical properties :
#
#
# Convention : Reuss Voigt Hill
#
# Bulk Modulus (GPa) = 49.64502 53.79276 51.71889
# Shear Modulus (GPa) = 12.09711 23.44519 17.77115
#
# Velocity S-wave (km/s) = 2.58199 3.59452 3.12948
# Velocity P-wave (km/s) = 6.02064 6.84634 6.44672
#
# Compressibility (1/GPa) = 0.02014301
#
# Stress axis : x y z
#
# Youngs Moduli (GPa) = 76.33142 99.47683 93.13536
#
# Poissons Ratio (x) = 0.12699 0.13982
# Poissons Ratio (y) = 0.09744 0.38147
# Poissons Ratio (z) = 0.11459 0.40745
#
# Static dielectric constant tensor:
#      x y z
#    x 1.640290 0.000000 0.000000 
#    y 0.000000 1.691450 0.000000 
#    z 0.000000 0.000000 1.647150 
# 
# From -- ./inp_files/11683.got.cif
#   From: 2010.05.17/outbox.cif.g08.bks.cpg/sg43_6_cif.got.tgz:11683.got - 2010.06.03 19:21:55.
