data_PCOD9370096
_publ_section_title
;
Structure prediction by ZEFSAII (Michael W. Deem and Ramdas Pophale) SiO2 
 PCOD9370096
Probable space group: F D D 2
;
_chemical_formula_sum "Si O2"
_cell_formula_units_Z 88
_cell_length_a 25.420150
_cell_length_b 5.334188
_cell_length_c 26.723145
_cell_angle_alpha 90.000000
_cell_angle_beta 90.000000
_cell_angle_gamma 90.000000
_cell_volume 3623.547804
_symmetry_space_group_name_H-M "F D D 2"
_symmetry_group_IT_number 43
_symmetry_cell_setting 'orthorhombic'
loop_
_space_group_symop_operation_xyz
x,y,z
-x,-y,z
1/4-x,1/4+y,1/4+z
1/4+x,1/4-y,1/4+z
x,1/2+y,1/2+z
-x,1/2-y,1/2+z
1/4-x,3/4+y,3/4+z
1/4+x,3/4-y,3/4+z
1/2+x,y,1/2+z
1/2-x,-y,1/2+z
3/4-x,1/4+y,3/4+z
3/4+x,1/4-y,3/4+z
1/2+x,1/2+y,z
1/2-x,1/2-y,z
3/4-x,3/4+y,1/4+z
3/4+x,3/4-y,1/4+z
loop_
_atom_site_type_symbol
_atom_site_label
_atom_site_fract_x
_atom_site_fract_y
_atom_site_fract_z
Si Si1 0.087298 0.745663 0.324290
Si Si2 0.500000 0.000000 0.259731
Si Si3 0.000000 0.000000 0.380617
Si Si4 0.087464 0.680579 0.625700
Si Si5 0.250000 0.250000 0.836774
Si Si6 0.750000 0.750000 0.196913
Si Si7 0.750000 0.250000 0.944471
Si Si8 0.675453 0.092982 0.780995
O O1 0.050436 0.557570 0.293797
O O2 0.109601 0.593552 0.372764
O O3 0.131247 0.874103 0.287793
O O4 0.050871 0.967894 0.345562
O O5 0.494467 0.251328 0.227379
O O6 0.000695 0.247858 0.414288
O O7 0.090301 0.544745 0.572210
O O8 0.055524 0.495612 0.662870
O O9 0.045155 0.900668 0.621525
O O10 0.228369 0.464799 0.801694
O O11 0.696174 0.719300 0.230341
#
# Coordination Sequence:
#
# PCOD9370096 Si02
#       8
#    16   8   8  16   8   8   8  16
#     4  11  30  51  76 102 160 223 256 293 412 466
#     4  12  30  52  75 109 160 209 255 324 371 469
#     4  12  30  52  75 109 160 209 255 324 371 469
#     4  11  23  43  80 110 151 206 251 318 391 465
#     4  10  16  40  68 112 148 198 238 312 384 462
#     4  12  26  48  80 120 154 185 269 334 376 432
#     4  12  26  48  80 120 154 185 269 334 376 432
#     4  11  23  43  80 110 151 206 251 318 391 465
#
# _framework density 24.285589999999999
#
# number of rings (size 3 to 8) (size 9 to 14) (size 15 to 20)
#    0.000    0.727    3.636    2.182   12.727    2.909 
#    0.000    0.000    0.000    0.000    0.000    0.000 
#    0.000    0.000    0.000    0.000    0.000    0.000 
#
# Total GULP energy -122821.556220 kJ/mol
# GULP energy per Si atom -5582.798010 kJ/mol
# Density = 2.423031 g / cm^3
# Si number density = 24.285590 Si / 1000 Ang^3
#
#
#
# Elastic Constant Matrix: (Units=GPa)
#
#
# Indices 1 2 3 4 5 6 
#
# 1 140.6776 53.5906 62.7685 0.0036 0.0054 -0.0112
# 2 53.5906 163.1703 64.0271 0.0133 0.0340 -0.0106
# 3 62.7685 64.0271 105.4661 0.0024 0.0014 -0.0028
# 4 0.0036 0.0133 0.0024 62.6435 0.0108 -0.0050
# 5 0.0054 0.0340 0.0014 0.0108 -57.8769 -0.0176
# 6 -0.0112 -0.0106 -0.0028 -0.0050 -0.0176 58.2364
#
#
#
# Elastic Compliance Matrix: (Units=1/GPa)
#
#
# Indices 1 2 3 4 5 6 
#
# 1 0.009863 -0.001229 -0.005124 0.000000 0.000000 0.000001
# 2 -0.001229 0.008198 -0.004246 -0.000002 0.000005 0.000001
# 3 -0.005124 -0.004246 0.015109 0.000001 -0.000003 -0.000001
# 4 0.000000 -0.000002 0.000001 0.015963 0.000003 0.000001
# 5 0.000000 0.000005 -0.000003 0.000003 -0.017278 -0.000005
# 6 0.000001 0.000001 -0.000001 0.000001 -0.000005 0.017171
#
#
# Mechanical properties :
#
#
# Convention : Reuss Voigt Hill
#
# Bulk Modulus (GPa) = 83.52142 85.56515 84.54329
# Shear Modulus (GPa) = 67.37284 27.86246 47.61765
#
# Velocity S-wave (km/s) = 5.27277 3.39083 4.43282
# Velocity P-wave (km/s) = 8.45787 7.11616 7.81586
#
# Compressibility (1/GPa) = 0.01197298
#
# Stress axis : x y z
#
# Youngs Moduli (GPa) = 101.39171 121.97961 66.18677
#
# Poissons Ratio (x) = 0.14987 0.33914
# Poissons Ratio (y) = 0.12458 0.28101
# Poissons Ratio (z) = 0.51953 0.51789
#
# Static dielectric constant tensor:
#      x y z
#    x 2.106130 -0.000040 0.000010 
#    y -0.000040 1.966440 -0.000010 
#    z 0.000010 -0.000010 1.999460 
# 
# From -- ./inp_files/19593.got.cif
#   From: 2010.05.17/outbox.cif.g08.bks.cpg/sg43_10_cif.got.tgz:19593.got - 2010.06.03 19:21:55.
