data_PCOD9370753
_publ_section_title
;
Structure prediction by ZEFSAII (Michael W. Deem and Ramdas Pophale) SiO2 
 PCOD9370753
Probable space group: F D D 2
;
_chemical_formula_sum "Si O2"
_cell_formula_units_Z 104
_cell_length_a 10.036583
_cell_length_b 21.090842
_cell_length_c 24.848500
_cell_angle_alpha 90.000000
_cell_angle_beta 90.000000
_cell_angle_gamma 90.000000
_cell_volume 5259.930139
_symmetry_space_group_name_H-M "F D D 2"
_symmetry_group_IT_number 43
_symmetry_cell_setting 'orthorhombic'
loop_
_space_group_symop_operation_xyz
x,y,z
-x,-y,z
1/4-x,1/4+y,1/4+z
1/4+x,1/4-y,1/4+z
x,1/2+y,1/2+z
-x,1/2-y,1/2+z
1/4-x,3/4+y,3/4+z
1/4+x,3/4-y,3/4+z
1/2+x,y,1/2+z
1/2-x,-y,1/2+z
3/4-x,1/4+y,3/4+z
3/4+x,1/4-y,3/4+z
1/2+x,1/2+y,z
1/2-x,1/2-y,z
3/4-x,3/4+y,1/4+z
3/4+x,3/4-y,1/4+z
loop_
_atom_site_type_symbol
_atom_site_label
_atom_site_fract_x
_atom_site_fract_y
_atom_site_fract_z
Si Si1 0.736354 0.028573 0.753820
Si Si2 0.824252 0.118954 0.585727
Si Si3 0.750000 0.250000 0.803680
Si Si4 0.225580 0.985268 0.136599
Si Si5 0.750000 0.250000 0.083522
Si Si6 0.346332 0.899515 0.483563
Si Si7 0.587423 0.635875 0.630146
Si Si8 0.500000 0.000000 0.322371
O O1 0.616275 0.028629 0.795933
O O2 0.788798 0.096627 0.733663
O O3 0.691067 0.993144 0.699538
O O4 0.867623 0.002281 0.785070
O O5 0.765727 0.119169 0.526382
O O6 0.760506 0.185384 0.607215
O O7 0.982506 0.124616 0.582477
O O8 0.781856 0.053652 0.615293
O O9 0.645189 0.218271 0.845801
O O10 0.836522 0.208621 0.762787
O O11 0.333891 0.929464 0.136569
O O12 0.684488 0.194049 0.118381
O O13 0.265535 0.901843 0.428299
#
# Coordination Sequence:
#
# PCOD9370753 Si02
#       8
#    16  16   8  16   8  16  16   8
#     4  11  21  41  67  99 129 180 223 278 325 413
#     4  10  21  39  68  99 127 175 227 278 319 405
#     4  10  23  45  60 100 136 174 220 290 340 394
#     4  11  22  41  71  96 130 174 230 278 334 398
#     4  12  27  42  64 107 143 168 225 294 350 374
#     4  10  23  43  67  96 134 180 229 266 346 407
#     4  12  24  44  65 101 133 179 225 280 344 408
#     4  10  20  39  66  91 143 174 227 264 334 406
#
# _framework density 19.772124999999999
#
# number of rings (size 3 to 8) (size 9 to 14) (size 15 to 20)
#    0.000    1.231    3.077    3.692    0.000    0.615 
#    5.538    1.538    0.000    0.000    0.000    0.000 
#    0.000    0.000    0.000    0.000    0.000    0.000 
#
# Total GULP energy -144874.346950 kJ/mol
# GULP energy per Si atom -5572.090267 kJ/mol
# Density = 1.972712 g / cm^3
# Si number density = 19.772125 Si / 1000 Ang^3
#
#
#
# Elastic Constant Matrix: (Units=GPa)
#
#
# Indices 1 2 3 4 5 6 
#
# 1 113.5242 42.2295 49.1840 0.0000 0.0000 0.0000
# 2 42.2295 101.5441 53.2138 0.0000 0.0000 0.0000
# 3 49.1840 53.2138 76.4213 0.0000 0.0000 0.0000
# 4 0.0000 0.0000 0.0000 14.8200 0.0000 0.0000
# 5 0.0000 0.0000 0.0000 0.0000 43.7102 0.0000
# 6 0.0000 0.0000 0.0000 0.0000 0.0000 32.7470
#
#
#
# Elastic Compliance Matrix: (Units=1/GPa)
#
#
# Indices 1 2 3 4 5 6 
#
# 1 0.012364 -0.001530 -0.006892 0.000000 0.000000 0.000000
# 2 -0.001530 0.015696 -0.009944 0.000000 0.000000 0.000000
# 3 -0.006892 -0.009944 0.024445 0.000000 0.000000 0.000000
# 4 0.000000 0.000000 0.000000 0.067476 0.000000 0.000000
# 5 0.000000 0.000000 0.000000 0.000000 0.022878 0.000000
# 6 0.000000 0.000000 0.000000 0.000000 0.000000 0.030537
#
#
# Mechanical properties :
#
#
# Convention : Reuss Voigt Hill
#
# Bulk Modulus (GPa) = 63.40303 64.52712 63.96508
# Shear Modulus (GPa) = 23.21415 28.04627 25.63021
#
# Velocity S-wave (km/s) = 3.43021 3.77035 3.60429
# Velocity P-wave (km/s) = 6.91556 7.18751 7.05285
#
# Compressibility (1/GPa) = 0.01577212
#
# Stress axis : x y z
#
# Youngs Moduli (GPa) = 80.88205 63.71200 40.90771
#
# Poissons Ratio (x) = 0.09749 0.28192
# Poissons Ratio (y) = 0.12376 0.40680
# Poissons Ratio (z) = 0.55741 0.63358
#
# Static dielectric constant tensor:
#      x y z
#    x 1.708320 0.000000 0.000000 
#    y 0.000000 1.774640 0.000000 
#    z 0.000000 0.000000 1.718150 
# 
# From -- ./inp_files/24345.got.cif
#   From: 2010.05.17/outbox.cif.g08.bks.cpg/sg43_13_cif.got.tgz:24345.got - 2010.06.03 19:21:55.
