data_PCOD9370308
_publ_section_title
;
Structure prediction by ZEFSAII (Michael W. Deem and Ramdas Pophale) SiO2 
 PCOD9370308
Probable space group: F D D 2
;
_chemical_formula_sum "Si O2"
_cell_formula_units_Z 112
_cell_length_a 19.036624
_cell_length_b 11.716723
_cell_length_c 22.908745
_cell_angle_alpha 90.000000
_cell_angle_beta 90.000000
_cell_angle_gamma 90.000000
_cell_volume 5109.723416
_symmetry_space_group_name_H-M "F D D 2"
_symmetry_group_IT_number 43
_symmetry_cell_setting 'orthorhombic'
loop_
_space_group_symop_operation_xyz
x,y,z
-x,-y,z
1/4-x,1/4+y,1/4+z
1/4+x,1/4-y,1/4+z
x,1/2+y,1/2+z
-x,1/2-y,1/2+z
1/4-x,3/4+y,3/4+z
1/4+x,3/4-y,3/4+z
1/2+x,y,1/2+z
1/2-x,-y,1/2+z
3/4-x,1/4+y,3/4+z
3/4+x,1/4-y,3/4+z
1/2+x,1/2+y,z
1/2-x,1/2-y,z
3/4-x,3/4+y,1/4+z
3/4+x,3/4-y,1/4+z
loop_
_atom_site_type_symbol
_atom_site_label
_atom_site_fract_x
_atom_site_fract_y
_atom_site_fract_z
Si Si1 0.112577 0.875370 0.578870
Si Si2 0.434463 0.930731 0.489184
Si Si3 0.667383 0.074941 0.195890
Si Si4 0.797153 0.082243 0.975208
Si Si5 0.500254 0.787187 0.844938
Si Si6 0.111532 0.115160 0.111593
Si Si7 0.516023 0.614417 0.668146
O O1 0.090302 0.873472 0.510856
O O2 0.180413 0.957950 0.583584
O O3 0.132444 0.748714 0.602785
O O4 0.041119 0.898161 0.616355
O O5 0.419791 0.812339 0.456867
O O6 0.368811 0.013710 0.486968
O O7 0.441701 0.902775 0.557667
O O8 0.500000 0.000000 0.465545
O O9 0.598777 0.109610 0.158921
O O10 0.733286 0.101952 0.155196
O O11 0.748160 0.983570 0.948730
O O12 0.821063 0.161718 0.921913
O O13 0.765234 0.113249 0.037675
O O14 0.431840 0.708501 0.854925
O O15 0.500000 0.500000 0.706676
#
# Coordination Sequence:
#
# PCOD9370308 Si02
#       7
#    16  16  16  16  16  16  16
#     4  10  20  31  51  81 114 145 175 225 281 341
#     4  10  19  31  51  78 110 142 177 231 286 330
#     4  11  20  32  51  81 113 142 181 229 273 339
#     4  10  19  31  50  77 107 142 178 222 275 340
#     4  11  19  30  53  77 107 141 180 226 280 317
#     4   9  20  32  49  76 109 141 180 223 278 336
#     4  11  18  31  50  77 112 146 175 222 283 323
#
# _framework density 21.918994999999999
#
# number of rings (size 3 to 8) (size 9 to 14) (size 15 to 20)
#    0.000    1.714    4.286    2.143    0.000    0.000 
#    0.000    0.000    6.286    0.000    3.714    0.000 
#    0.000    0.000    0.000    0.000    0.000    0.000 
#
# Total GULP energy -156066.859032 kJ/mol
# GULP energy per Si atom -5573.816394 kJ/mol
# Density = 2.186911 g / cm^3
# Si number density = 21.918995 Si / 1000 Ang^3
#
#
#
# Elastic Constant Matrix: (Units=GPa)
#
#
# Indices 1 2 3 4 5 6 
#
# 1 108.6246 30.6784 50.3184 0.0000 0.0000 0.0000
# 2 30.6784 34.5800 5.2255 0.0000 0.0000 0.0000
# 3 50.3184 5.2255 162.4725 0.0000 0.0000 0.0000
# 4 0.0000 0.0000 0.0000 10.1660 0.0000 0.0000
# 5 0.0000 0.0000 0.0000 0.0000 38.3748 0.0000
# 6 0.0000 0.0000 0.0000 0.0000 0.0000 29.7325
#
#
#
# Elastic Compliance Matrix: (Units=1/GPa)
#
#
# Indices 1 2 3 4 5 6 
#
# 1 0.014598 -0.012328 -0.004125 0.000000 0.000000 0.000000
# 2 -0.012328 0.039470 0.002549 0.000000 0.000000 0.000000
# 3 -0.004125 0.002549 0.007350 0.000000 0.000000 0.000000
# 4 0.000000 0.000000 0.000000 0.098367 0.000000 0.000000
# 5 0.000000 0.000000 0.000000 0.000000 0.026059 0.000000
# 6 0.000000 0.000000 0.000000 0.000000 0.000000 0.033633
#
#
# Mechanical properties :
#
#
# Convention : Reuss Voigt Hill
#
# Bulk Modulus (GPa) = 29.75223 53.12462 41.43842
# Shear Modulus (GPa) = 19.34308 30.28498 24.81403
#
# Velocity S-wave (km/s) = 2.97388 3.72112 3.36829
# Velocity P-wave (km/s) = 5.03936 6.53848 5.83725
#
# Compressibility (1/GPa) = 0.03361093
#
# Stress axis : x y z
#
# Youngs Moduli (GPa) = 68.50027 25.33539 136.04780
#
# Poissons Ratio (x) = 0.31234 0.56116
# Poissons Ratio (y) = 0.84448 -0.34673
# Poissons Ratio (z) = 0.28254 -0.06457
#
# Static dielectric constant tensor:
#      x y z
#    x 1.759600 0.000000 0.000000 
#    y 0.000000 1.809740 0.000000 
#    z 0.000000 0.000000 1.926850 
# 
# From -- ./inp_files/25616.got.cif
#   From: 2010.05.17/outbox.cif.g08.bks.cpg/sg43_13_cif.got.tgz:25616.got - 2010.06.03 19:21:55.
