data_PCOD9370138
_publ_section_title
;
Structure prediction by ZEFSAII (Michael W. Deem and Ramdas Pophale) SiO2 
 PCOD9370138
Probable space group: F D D 2
;
_chemical_formula_sum "Si O2"
_cell_formula_units_Z 96
_cell_length_a 24.804315
_cell_length_b 20.409455
_cell_length_c 6.674199
_cell_angle_alpha 90.000000
_cell_angle_beta 90.000000
_cell_angle_gamma 90.000000
_cell_volume 3378.763526
_symmetry_space_group_name_H-M "F D D 2"
_symmetry_group_IT_number 43
_symmetry_cell_setting 'orthorhombic'
loop_
_space_group_symop_operation_xyz
x,y,z
-x,-y,z
1/4-x,1/4+y,1/4+z
1/4+x,1/4-y,1/4+z
x,1/2+y,1/2+z
-x,1/2-y,1/2+z
1/4-x,3/4+y,3/4+z
1/4+x,3/4-y,3/4+z
1/2+x,y,1/2+z
1/2-x,-y,1/2+z
3/4-x,1/4+y,3/4+z
3/4+x,1/4-y,3/4+z
1/2+x,1/2+y,z
1/2-x,1/2-y,z
3/4-x,3/4+y,1/4+z
3/4+x,3/4-y,1/4+z
loop_
_atom_site_type_symbol
_atom_site_label
_atom_site_fract_x
_atom_site_fract_y
_atom_site_fract_z
Si Si1 0.796940 0.021511 0.589640
Si Si2 0.475555 0.626123 0.335517
Si Si3 0.822920 0.194482 0.026533
Si Si4 0.001981 0.897754 0.800496
Si Si5 0.587770 0.505497 0.738556
Si Si6 0.884474 0.815209 0.456915
O O1 0.754077 0.077031 0.649449
O O2 0.848198 0.006888 0.734154
O O3 0.824107 0.047527 0.384149
O O4 0.768054 0.953054 0.553441
O O5 0.511374 0.572105 0.219497
O O6 0.489896 0.614869 0.564908
O O7 0.414194 0.607605 0.299416
O O8 0.825135 0.229935 0.247864
O O9 0.859749 0.244035 0.899067
O O10 0.843229 0.119493 0.053273
O O11 0.053351 0.944815 0.828354
O O12 0.943757 0.932151 0.828254
#
# Coordination Sequence:
#
# PCOD9370138 Si02
#       6
#    16  16  16  16  16  16
#     4  11  18  27  46  72  96 125 162 198 255 294
#     4  11  18  28  46  73 101 126 158 202 254 301
#     4  10  19  29  48  76 102 124 158 207 257 297
#     4  10  18  29  44  73 101 118 153 205 243 296
#     4   9  17  28  46  69  96 118 148 200 256 278
#     4  11  17  29  47  75 102 124 153 207 256 298
#
# _framework density 28.412762000000001
#
# number of rings (size 3 to 8) (size 9 to 14) (size 15 to 20)
#    0.000    1.667   10.000    0.500    0.000    0.000 
#    0.000    0.000    0.000    2.000    0.000    0.000 
#   10.000    0.000    0.000    0.000    0.000    0.000 
#
# Total GULP energy -134333.725698 kJ/mol
# GULP energy per Si atom -5597.238571 kJ/mol
# Density = 2.834809 g / cm^3
# Si number density = 28.412762 Si / 1000 Ang^3
#
#
#
# Elastic Constant Matrix: (Units=GPa)
#
#
# Indices 1 2 3 4 5 6 
#
# 1 103.8845 52.7999 25.3071 -0.0005 -0.0002 -0.0004
# 2 52.7999 248.5665 37.2660 -0.0012 0.0000 -0.0008
# 3 25.3071 37.2660 87.4078 -0.0031 0.0004 -0.0011
# 4 -0.0005 -0.0012 -0.0031 32.7917 0.0002 -0.0005
# 5 -0.0002 0.0000 0.0004 0.0002 42.1595 -0.0001
# 6 -0.0004 -0.0008 -0.0011 -0.0005 -0.0001 62.8211
#
#
#
# Elastic Compliance Matrix: (Units=1/GPa)
#
#
# Indices 1 2 3 4 5 6 
#
# 1 0.011239 -0.002029 -0.002389 0.000000 0.000000 0.000000
# 2 -0.002029 0.004664 -0.001401 0.000000 0.000000 0.000000
# 3 -0.002389 -0.001401 0.012730 0.000001 0.000000 0.000000
# 4 0.000000 0.000000 0.000001 0.030495 0.000000 0.000000
# 5 0.000000 0.000000 0.000000 0.000000 0.023719 0.000000
# 6 0.000000 0.000000 0.000000 0.000000 0.000000 0.015918
#
#
# Mechanical properties :
#
#
# Convention : Reuss Voigt Hill
#
# Bulk Modulus (GPa) = 58.84189 74.51164 66.67676
# Shear Modulus (GPa) = 43.07753 49.18687 46.13220
#
# Velocity S-wave (km/s) = 3.89798 4.16523 4.03382
# Velocity P-wave (km/s) = 6.40419 7.02950 6.72411
#
# Compressibility (1/GPa) = 0.01699470
#
# Stress axis : x y z
#
# Youngs Moduli (GPa) = 88.97240 214.40034 78.55693
#
# Poissons Ratio (x) = 0.43508 0.18767
# Poissons Ratio (y) = 0.18055 0.11006
# Poissons Ratio (z) = 0.21255 0.30038
#
# Static dielectric constant tensor:
#      x y z
#    x 2.239040 0.000000 0.000000 
#    y 0.000000 2.166040 0.000000 
#    z 0.000000 0.000000 2.432890 
# 
# From -- ./inp_files/7925.got.cif
#   From: 2010.05.17/outbox.cif.g08.bks.cpg/sg43_4_cif.got.tgz:7925.got - 2010.06.03 19:21:55.
