data_PCOD9370152
_publ_section_title
;
Structure prediction by ZEFSAII (Michael W. Deem and Ramdas Pophale) SiO2 
 PCOD9370152
Probable space group: F D D 2
;
_chemical_formula_sum "Si O2"
_cell_formula_units_Z 128
_cell_length_a 21.936487
_cell_length_b 11.037207
_cell_length_c 26.072504
_cell_angle_alpha 90.000000
_cell_angle_beta 90.000000
_cell_angle_gamma 90.000000
_cell_volume 6312.610735
_symmetry_space_group_name_H-M "F D D 2"
_symmetry_group_IT_number 43
_symmetry_cell_setting 'orthorhombic'
loop_
_space_group_symop_operation_xyz
x,y,z
-x,-y,z
1/4-x,1/4+y,1/4+z
1/4+x,1/4-y,1/4+z
x,1/2+y,1/2+z
-x,1/2-y,1/2+z
1/4-x,3/4+y,3/4+z
1/4+x,3/4-y,3/4+z
1/2+x,y,1/2+z
1/2-x,-y,1/2+z
3/4-x,1/4+y,3/4+z
3/4+x,1/4-y,3/4+z
1/2+x,1/2+y,z
1/2-x,1/2-y,z
3/4-x,3/4+y,1/4+z
3/4+x,3/4-y,1/4+z
loop_
_atom_site_type_symbol
_atom_site_label
_atom_site_fract_x
_atom_site_fract_y
_atom_site_fract_z
Si Si1 0.485806 0.642081 0.161800
Si Si2 0.428705 0.486048 0.705422
Si Si3 0.043021 0.239673 0.768383
Si Si4 0.868965 0.042408 0.880258
Si Si5 0.022591 0.358803 0.443444
Si Si6 0.401955 0.188585 0.280075
Si Si7 0.834978 0.016560 0.626086
Si Si8 0.547677 0.887746 0.551284
O O1 0.500000 0.500000 0.166804
O O2 0.457807 0.685883 0.215435
O O3 0.550617 0.706493 0.151492
O O4 0.448745 0.663102 0.108800
O O5 0.500000 0.500000 0.690895
O O6 0.429910 0.389469 0.751165
O O7 0.399645 0.608784 0.728572
O O8 0.386351 0.448628 0.658666
O O9 0.075995 0.285466 0.819274
O O10 0.973173 0.216694 0.785690
O O11 0.911964 0.123573 0.916980
O O12 0.874663 0.108624 0.825772
O O13 0.893081 0.906717 0.872299
O O14 0.024118 0.312765 0.502169
O O15 0.000000 0.500000 0.445344
O O16 0.977678 0.279822 0.408323
O O17 0.361367 0.307812 0.281586
O O18 0.500000 0.000000 0.556226
#
# Coordination Sequence:
#
# PCOD9370152 Si02
#       8
#    16  16  16  16  16  16  16  16
#     4  11  23  38  58  84 119 159 198 242 298 356
#     4  10  21  36  56  84 118 152 190 240 303 355
#     4  11  23  38  58  83 120 159 199 237 294 358
#     4  11  18  33  56  89 117 151 188 245 306 348
#     4   9  18  29  52  86 115 143 182 242 300 344
#     4  11  18  34  57  87 116 149 186 246 306 352
#     4  11  21  34  58  86 121 154 199 241 295 358
#     4  10  18  32  52  81 118 144 187 242 295 350
#
# _framework density 20.276872000000001
#
# number of rings (size 3 to 8) (size 9 to 14) (size 15 to 20)
#    0.000    1.500    5.000    4.500    0.000    0.000 
#    0.000    2.500    0.000    1.500    0.000    0.000 
#    0.000    0.000    0.000    0.000    0.000    0.000 
#
# Total GULP energy -178544.579995 kJ/mol
# GULP energy per Si atom -5579.518125 kJ/mol
# Density = 2.023072 g / cm^3
# Si number density = 20.276872 Si / 1000 Ang^3
#
#
#
# Elastic Constant Matrix: (Units=GPa)
#
#
# Indices 1 2 3 4 5 6 
#
# 1 69.4368 5.3130 62.8170 0.0000 0.0000 0.0000
# 2 5.3130 21.3922 21.2004 0.0000 0.0000 0.0000
# 3 62.8170 21.2004 188.0737 0.0000 0.0000 0.0000
# 4 0.0000 0.0000 0.0000 26.9170 0.0000 0.0000
# 5 0.0000 0.0000 0.0000 0.0000 27.0078 0.0000
# 6 0.0000 0.0000 0.0000 0.0000 0.0000 15.2279
#
#
#
# Elastic Compliance Matrix: (Units=1/GPa)
#
#
# Indices 1 2 3 4 5 6 
#
# 1 0.020708 0.001927 -0.007134 0.000000 0.000000 0.000000
# 2 0.001927 0.052804 -0.006596 0.000000 0.000000 0.000000
# 3 -0.007134 -0.006596 0.008443 0.000000 0.000000 0.000000
# 4 0.000000 0.000000 0.000000 0.037151 0.000000 0.000000
# 5 0.000000 0.000000 0.000000 0.000000 0.037026 0.000000
# 6 0.000000 0.000000 0.000000 0.000000 0.000000 0.065669
#
#
# Mechanical properties :
#
#
# Convention : Reuss Voigt Hill
#
# Bulk Modulus (GPa) = 17.13805 50.84038 33.98922
# Shear Modulus (GPa) = 18.87812 26.46870 22.67341
#
# Velocity S-wave (km/s) = 3.05457 3.61690 3.34756
# Velocity P-wave (km/s) = 4.57284 6.52458 5.63387
#
# Compressibility (1/GPa) = 0.05834970
#
# Stress axis : x y z
#
# Youngs Moduli (GPa) = 48.29125 18.93786 118.43841
#
# Poissons Ratio (x) = -0.03649 0.84489
# Poissons Ratio (y) = -0.09304 0.78120
# Poissons Ratio (z) = 0.34449 0.12491
#
# Static dielectric constant tensor:
#      x y z
#    x 1.744980 0.000000 0.000000 
#    y 0.000000 1.739140 0.000000 
#    z 0.000000 0.000000 1.770160 
# 
# From -- ./inp_files/22656.got.cif
#   From: 2010.05.17/outbox.cif.g08.bks.cpg/sg43_12_cif.got.tgz:22656.got - 2010.06.03 19:21:55.
