data_PCOD9370170
_publ_section_title
;
Structure prediction by ZEFSAII (Michael W. Deem and Ramdas Pophale) SiO2 
 PCOD9370170
Probable space group: F D D 2
;
_chemical_formula_sum "Si O2"
_cell_formula_units_Z 104
_cell_length_a 10.499901
_cell_length_b 16.397928
_cell_length_c 25.230181
_cell_angle_alpha 90.000000
_cell_angle_beta 90.000000
_cell_angle_gamma 90.000000
_cell_volume 4344.047302
_symmetry_space_group_name_H-M "F D D 2"
_symmetry_group_IT_number 43
_symmetry_cell_setting 'orthorhombic'
loop_
_space_group_symop_operation_xyz
x,y,z
-x,-y,z
1/4-x,1/4+y,1/4+z
1/4+x,1/4-y,1/4+z
x,1/2+y,1/2+z
-x,1/2-y,1/2+z
1/4-x,3/4+y,3/4+z
1/4+x,3/4-y,3/4+z
1/2+x,y,1/2+z
1/2-x,-y,1/2+z
3/4-x,1/4+y,3/4+z
3/4+x,1/4-y,3/4+z
1/2+x,1/2+y,z
1/2-x,1/2-y,z
3/4-x,3/4+y,1/4+z
3/4+x,3/4-y,1/4+z
loop_
_atom_site_type_symbol
_atom_site_label
_atom_site_fract_x
_atom_site_fract_y
_atom_site_fract_z
Si Si1 0.510272 0.407963 0.333880
Si Si2 0.899968 0.068933 0.509551
Si Si3 0.342959 0.926441 0.454749
Si Si4 0.763947 0.056897 0.172366
Si Si5 0.943658 0.169220 0.002477
Si Si6 0.701222 0.049112 0.334128
Si Si7 0.750000 0.750000 0.921147
O O1 0.500000 0.500000 0.355491
O O2 0.427316 0.351514 0.372595
O O3 0.442946 0.402879 0.277653
O O4 0.662328 0.403972 0.332334
O O5 0.768962 0.030802 0.487604
O O6 0.864047 0.135117 0.554362
O O7 0.970230 0.122948 0.463659
O O8 0.000000 0.000000 0.525707
O O9 0.478906 0.908580 0.481329
O O10 0.342005 0.960331 0.394730
O O11 0.287469 0.832606 0.451787
O O12 0.823668 0.984008 0.204942
O O13 0.634790 0.020072 0.145907
O O14 0.024468 0.218983 0.048069
#
# Coordination Sequence:
#
# PCOD9370170 Si02
#       7
#    16  16  16  16  16  16   8
#     4  10  18  33  59  88 121 165 214 256 315 384
#     4  10  20  31  56  92 115 140 210 267 306 361
#     4  10  19  36  58  84 125 158 200 268 319 380
#     4   9  16  30  51  87 124 157 197 263 308 369
#     4   9  21  34  57  92 127 164 207 259 325 391
#     4  10  20  33  59  89 111 163 213 254 313 376
#     4   8  14  26  52  82 108 150 198 246 302 348
#
# _framework density 23.940807
#
# number of rings (size 3 to 8) (size 9 to 14) (size 15 to 20)
#    0.000    2.462    3.077    1.385    3.231    0.000 
#    0.000    0.000   13.538    2.769    0.000    0.000 
#    0.000    0.000    0.000    0.000    0.000    0.000 
#
# Total GULP energy -144917.884806 kJ/mol
# GULP energy per Si atom -5573.764800 kJ/mol
# Density = 2.388632 g / cm^3
# Si number density = 23.940807 Si / 1000 Ang^3
#
#
#
# Elastic Constant Matrix: (Units=GPa)
#
#
# Indices 1 2 3 4 5 6 
#
# 1 39.4886 0.3982 35.7244 0.0000 0.0000 0.0000
# 2 0.3982 73.3229 21.3162 0.0000 0.0000 0.0000
# 3 35.7244 21.3162 112.0385 0.0000 0.0000 0.0000
# 4 0.0000 0.0000 0.0000 4026.1942 0.0000 0.0000
# 5 0.0000 0.0000 0.0000 0.0000 11.4334 0.0000
# 6 0.0000 0.0000 0.0000 0.0000 0.0000 17.3841
#
#
#
# Elastic Compliance Matrix: (Units=1/GPa)
#
#
# Indices 1 2 3 4 5 6 
#
# 1 0.036355 0.003358 -0.012231 0.000000 0.000000 0.000000
# 2 0.003358 0.014747 -0.003877 0.000000 0.000000 0.000000
# 3 -0.012231 -0.003877 0.013563 0.000000 0.000000 0.000000
# 4 0.000000 0.000000 0.000000 0.000248 0.000000 0.000000
# 5 0.000000 0.000000 0.000000 0.000000 0.087463 0.000000
# 6 0.000000 0.000000 0.000000 0.000000 0.000000 0.057524
#
#
# Mechanical properties :
#
#
# Convention : Reuss Voigt Hill
#
# Bulk Modulus (GPa) = 25.53199 37.74750 31.63974
# Shear Modulus (GPa) = 20.12439 822.16309 421.14374
#
# Velocity S-wave (km/s) = 2.90244 18.55156 13.27751
# Velocity P-wave (km/s) = 4.68188 21.78719 15.75757
#
# Compressibility (1/GPa) = 0.03916655
#
# Stress axis : x y z
#
# Youngs Moduli (GPa) = 27.50651 67.81011 73.72985
#
# Poissons Ratio (x) = -0.22773 0.90179
# Poissons Ratio (y) = -0.09238 0.28582
# Poissons Ratio (z) = 0.33643 0.26287
#
# Static dielectric constant tensor:
#      x y z
#    x 2.076200 0.000000 0.000000 
#    y 0.000000 -9.288700 0.000000 
#    z 0.000000 0.000000 1.964010 
# 
# From -- ./inp_files/25136.got.cif
#   From: 2010.05.17/outbox.cif.g08.bks.cpg/sg43_13_cif.got.tgz:25136.got - 2010.06.03 19:21:55.
