data_PCOD9370674
_publ_section_title
;
Structure prediction by ZEFSAII (Michael W. Deem and Ramdas Pophale) SiO2 
 PCOD9370674
Probable space group: F D D 2
;
_chemical_formula_sum "Si O2"
_cell_formula_units_Z 104
_cell_length_a 24.821111
_cell_length_b 8.972570
_cell_length_c 22.391552
_cell_angle_alpha 90.000000
_cell_angle_beta 90.000000
_cell_angle_gamma 90.000000
_cell_volume 4986.803646
_symmetry_space_group_name_H-M "F D D 2"
_symmetry_group_IT_number 43
_symmetry_cell_setting 'orthorhombic'
loop_
_space_group_symop_operation_xyz
x,y,z
-x,-y,z
1/4-x,1/4+y,1/4+z
1/4+x,1/4-y,1/4+z
x,1/2+y,1/2+z
-x,1/2-y,1/2+z
1/4-x,3/4+y,3/4+z
1/4+x,3/4-y,3/4+z
1/2+x,y,1/2+z
1/2-x,-y,1/2+z
3/4-x,1/4+y,3/4+z
3/4+x,1/4-y,3/4+z
1/2+x,1/2+y,z
1/2-x,1/2-y,z
3/4-x,3/4+y,1/4+z
3/4+x,3/4-y,1/4+z
loop_
_atom_site_type_symbol
_atom_site_label
_atom_site_fract_x
_atom_site_fract_y
_atom_site_fract_z
Si Si1 0.652887 0.932463 0.517940
Si Si2 0.904326 0.591259 0.982963
Si Si3 0.059041 0.987652 0.609107
Si Si4 0.845674 0.158742 0.672813
Si Si5 0.809041 0.237652 0.546669
Si Si6 0.097113 0.317537 0.637836
Si Si7 0.250000 0.250000 0.452888
O O1 0.625000 0.875000 0.577888
O O2 0.706744 0.846782 0.493380
O O3 0.606692 0.954659 0.467282
O O4 0.666364 0.101964 0.534878
O O5 0.920145 0.750000 0.952888
O O6 0.893308 0.454659 0.938494
O O7 0.940841 0.553682 0.039407
O O8 0.845448 0.619468 0.012278
O O9 0.095448 0.869468 0.643498
O O10 0.083636 0.148036 0.620898
O O11 0.000000 0.000000 0.633435
O O12 0.809159 0.196317 0.616369
O O13 0.750000 0.250000 0.522341
O O14 0.043256 0.403218 0.662396
#
# Coordination Sequence:
#
# PCOD9370674 Si02
#       7
#    16  16  16  16  16  16   8
#     4  11  23  39  61  89 126 164 209 264 314 387
#     4   9  20  39  60  85 122 152 199 261 308 368
#     4  10  20  38  62  87 113 160 207 247 313 378
#     4   9  20  39  60  85 122 152 199 261 308 368
#     4  10  20  38  62  87 113 160 207 247 313 378
#     4  11  23  39  61  89 126 164 209 264 314 387
#     4  12  24  40  62  92 128 176 212 258 334 374
#
# _framework density 20.855042999999998
#
# number of rings (size 3 to 8) (size 9 to 14) (size 15 to 20)
#    0.000    1.846    0.000    3.692    0.000    9.231 
#    8.308    0.000    0.000    0.000    0.000    0.000 
#    0.000    0.000    0.000    0.000    0.000    0.000 
#
# Total GULP energy -144921.601218 kJ/mol
# GULP energy per Si atom -5573.907739 kJ/mol
# Density = 2.080758 g / cm^3
# Si number density = 20.855043 Si / 1000 Ang^3
#
#
#
# Elastic Constant Matrix: (Units=GPa)
#
#
# Indices 1 2 3 4 5 6 
#
# 1 57.5130 6.7458 20.2853 0.0000 0.0000 0.0000
# 2 6.7458 42.9752 39.5395 0.0000 0.0000 0.0000
# 3 20.2853 39.5395 149.6783 0.0000 0.0000 0.0000
# 4 0.0000 0.0000 0.0000 -8.3235 0.0000 0.0000
# 5 0.0000 0.0000 0.0000 0.0000 3.4171 0.0000
# 6 0.0000 0.0000 0.0000 0.0000 0.0000 27.8477
#
#
#
# Elastic Compliance Matrix: (Units=1/GPa)
#
#
# Indices 1 2 3 4 5 6 
#
# 1 0.018280 -0.000779 -0.002271 0.000000 0.000000 0.000000
# 2 -0.000779 0.030774 -0.008024 0.000000 0.000000 0.000000
# 3 -0.002271 -0.008024 0.009108 0.000000 0.000000 0.000000
# 4 0.000000 0.000000 0.000000 -0.120142 0.000000 0.000000
# 5 0.000000 0.000000 0.000000 0.000000 0.292647 0.000000
# 6 0.000000 0.000000 0.000000 0.000000 0.000000 0.035910
#
#
# Mechanical properties :
#
#
# Convention : Reuss Voigt Hill
#
# Bulk Modulus (GPa) = 27.76785 42.58973 35.17879
# Shear Modulus (GPa) = 16.62624 16.82800 16.72712
#
# Velocity S-wave (km/s) = 2.82659 2.84369 2.83515
# Velocity P-wave (km/s) = 4.89861 5.59001 5.25569
#
# Compressibility (1/GPa) = 0.03601287
#
# Stress axis : x y z
#
# Youngs Moduli (GPa) = 54.70465 32.49521 109.78880
#
# Poissons Ratio (x) = 0.02533 0.24938
# Poissons Ratio (y) = 0.04264 0.88091
# Poissons Ratio (z) = 0.12426 0.26073
#
# Static dielectric constant tensor:
#      x y z
#    x 1.741210 0.000000 0.000000 
#    y 0.000000 1.667900 0.000000 
#    z 0.000000 0.000000 1.869350 
# 
# From -- ./inp_files/3358.got.cif
#   From: 2010.05.17/outbox.cif.g08.bks.cpg/sg43_2_cif.got.tgz:3358.got - 2010.06.03 19:21:55.
