data_PCOD9370097
_publ_section_title
;
Structure prediction by ZEFSAII (Michael W. Deem and Ramdas Pophale) SiO2 
 PCOD9370097
Probable space group: F D D 2
;
_chemical_formula_sum "Si O2"
_cell_formula_units_Z 104
_cell_length_a 8.679058
_cell_length_b 21.573829
_cell_length_c 25.105236
_cell_angle_alpha 90.000000
_cell_angle_beta 90.000000
_cell_angle_gamma 90.000000
_cell_volume 4700.717272
_symmetry_space_group_name_H-M "F D D 2"
_symmetry_group_IT_number 43
_symmetry_cell_setting 'orthorhombic'
loop_
_space_group_symop_operation_xyz
x,y,z
-x,-y,z
1/4-x,1/4+y,1/4+z
1/4+x,1/4-y,1/4+z
x,1/2+y,1/2+z
-x,1/2-y,1/2+z
1/4-x,3/4+y,3/4+z
1/4+x,3/4-y,3/4+z
1/2+x,y,1/2+z
1/2-x,-y,1/2+z
3/4-x,1/4+y,3/4+z
3/4+x,1/4-y,3/4+z
1/2+x,1/2+y,z
1/2-x,1/2-y,z
3/4-x,3/4+y,1/4+z
3/4+x,3/4-y,1/4+z
loop_
_atom_site_type_symbol
_atom_site_label
_atom_site_fract_x
_atom_site_fract_y
_atom_site_fract_z
Si Si1 0.371067 0.050956 0.411570
Si Si2 0.500000 0.000000 0.603845
Si Si3 0.707184 0.537932 0.006650
Si Si4 0.500000 0.500000 0.708984
Si Si5 0.995289 0.850016 0.977405
Si Si6 0.337987 0.687214 0.081586
Si Si7 0.500000 0.000000 0.043943
Si Si8 0.044880 0.321025 0.878925
O O1 0.419142 0.122835 0.424471
O O2 0.236489 0.050584 0.368486
O O3 0.500000 0.000000 0.393792
O O4 0.321936 0.021853 0.469141
O O5 0.614106 0.034750 0.562397
O O6 0.376282 0.041191 0.635807
O O7 0.631823 0.596728 0.980517
O O8 0.889199 0.544816 0.011837
O O9 0.353650 0.536911 0.732440
O O10 0.411577 0.447734 0.674811
O O11 0.109953 0.847391 0.027555
O O12 0.250000 0.750000 0.068323
O O13 0.228422 0.642249 0.115729
O O14 0.620708 0.038827 0.078578
#
# Coordination Sequence:
#
# PCOD9370097 Si02
#       8
#    16   8  16   8  16  16   8  16
#     4  10  24  44  71  96 134 186 232 277 341 418
#     4  10  16  40  71  92 122 174 231 284 328 404
#     4  10  18  39  67  96 127 177 229 274 339 399
#     4  11  28  40  67  98 142 182 227 280 347 418
#     4  11  24  46  65  99 140 181 226 279 362 408
#     4  12  28  44  70 103 141 177 228 291 351 404
#     4   9  20  34  70  96 130 170 232 284 311 400
#     4  10  23  42  62 103 126 178 232 274 335 409
#
# _framework density 22.124282999999998
#
# number of rings (size 3 to 8) (size 9 to 14) (size 15 to 20)
#    0.000    1.538    3.846    0.923    8.615    3.692 
#    0.000    0.000    0.000    0.000    0.000    0.000 
#    0.000    0.000    0.000    0.000    0.000    0.000 
#
# Total GULP energy -144890.328675 kJ/mol
# GULP energy per Si atom -5572.704949 kJ/mol
# Density = 2.207393 g / cm^3
# Si number density = 22.124283 Si / 1000 Ang^3
#
#
#
# Elastic Constant Matrix: (Units=GPa)
#
#
# Indices 1 2 3 4 5 6 
#
# 1 124.8276 23.0003 21.0221 0.0000 0.0000 0.0000
# 2 23.0003 80.5774 7.3364 0.0000 0.0000 0.0000
# 3 21.0221 7.3364 37.6011 0.0000 0.0000 0.0000
# 4 0.0000 0.0000 0.0000 3.0168 0.0000 0.0000
# 5 0.0000 0.0000 0.0000 0.0000 -12.5674 0.0000
# 6 0.0000 0.0000 0.0000 0.0000 0.0000 47.6569
#
#
#
# Elastic Compliance Matrix: (Units=1/GPa)
#
#
# Indices 1 2 3 4 5 6 
#
# 1 0.009211 -0.002200 -0.004721 0.000000 0.000000 0.000000
# 2 -0.002200 0.013160 -0.001338 0.000000 0.000000 0.000000
# 3 -0.004721 -0.001338 0.029495 0.000000 0.000000 0.000000
# 4 0.000000 0.000000 0.000000 0.331473 0.000000 0.000000
# 5 0.000000 0.000000 0.000000 0.000000 -0.079571 0.000000
# 6 0.000000 0.000000 0.000000 0.000000 0.000000 0.020983
#
#
# Mechanical properties :
#
#
# Convention : Reuss Voigt Hill
#
# Bulk Modulus (GPa) = 28.28832 38.41376 33.35104
# Shear Modulus (GPa) = 14.16224 20.39777 17.28001
#
# Velocity S-wave (km/s) = 2.53281 3.03968 2.79775
# Velocity P-wave (km/s) = 4.62248 5.45160 5.05407
#
# Compressibility (1/GPa) = 0.03535027
#
# Stress axis : x y z
#
# Youngs Moduli (GPa) = 108.56189 75.98740 33.90369
#
# Poissons Ratio (x) = 0.16713 0.16005
# Poissons Ratio (y) = 0.23878 0.04536
# Poissons Ratio (z) = 0.51249 0.10167
#
# Static dielectric constant tensor:
#      x y z
#    x 1.965760 0.000000 0.000000 
#    y 0.000000 1.935280 0.000000 
#    z 0.000000 0.000000 1.824290 
# 
# From -- ./inp_files/28052.got.cif
#   From: 2010.05.17/outbox.cif.g08.bks.cpg/sg43_15_cif.got.tgz:28052.got - 2010.06.03 19:21:55.
