data_PCOD9370048
_publ_section_title
;
Structure prediction by ZEFSAII (Michael W. Deem and Ramdas Pophale) SiO2 
 PCOD9370048
Probable space group: F D D 2
;
_chemical_formula_sum "Si O2"
_cell_formula_units_Z 96
_cell_length_a 19.704076
_cell_length_b 18.398264
_cell_length_c 9.887433
_cell_angle_alpha 90.000000
_cell_angle_beta 90.000000
_cell_angle_gamma 90.000000
_cell_volume 3584.400043
_symmetry_space_group_name_H-M "F D D 2"
_symmetry_group_IT_number 43
_symmetry_cell_setting 'orthorhombic'
loop_
_space_group_symop_operation_xyz
x,y,z
-x,-y,z
1/4-x,1/4+y,1/4+z
1/4+x,1/4-y,1/4+z
x,1/2+y,1/2+z
-x,1/2-y,1/2+z
1/4-x,3/4+y,3/4+z
1/4+x,3/4-y,3/4+z
1/2+x,y,1/2+z
1/2-x,-y,1/2+z
3/4-x,1/4+y,3/4+z
3/4+x,1/4-y,3/4+z
1/2+x,1/2+y,z
1/2-x,1/2-y,z
3/4-x,3/4+y,1/4+z
3/4+x,3/4-y,1/4+z
loop_
_atom_site_type_symbol
_atom_site_label
_atom_site_fract_x
_atom_site_fract_y
_atom_site_fract_z
Si Si1 0.025608 0.831634 0.298200
Si Si2 0.711894 0.825813 0.019956
Si Si3 0.314036 0.391205 0.840629
Si Si4 0.645700 0.848344 0.473697
Si Si5 0.596576 0.018205 0.996511
Si Si6 0.679845 0.208280 0.873499
O O1 0.027105 0.820638 0.460994
O O2 0.072064 0.767399 0.240564
O O3 0.067363 0.905099 0.253112
O O4 0.957738 0.844322 0.209456
O O5 0.750000 0.750000 0.055030
O O6 0.769962 0.883757 0.977269
O O7 0.674405 0.815189 0.875592
O O8 0.644477 0.839395 0.111095
O O9 0.317459 0.308907 0.783554
O O10 0.674213 0.809004 0.611005
O O11 0.629818 0.776545 0.388628
O O12 0.584259 0.901341 0.505707
O O13 0.750000 0.250000 0.860682
#
# Coordination Sequence:
#
# PCOD9370048 Si02
#       6
#    16  16  16  16  16  16
#     4   9  16  24  39  65  95 125 156 203 262 321
#     4   9  18  27  43  69 100 125 162 211 266 321
#     4  10  16  27  42  66  99 127 159 207 271 319
#     4  10  16  27  42  66  99 127 159 207 271 319
#     4   9  16  24  39  65  95 125 156 203 262 321
#     4   9  18  27  43  69 100 125 162 211 266 321
#
# _framework density 26.782726
#
# number of rings (size 3 to 8) (size 9 to 14) (size 15 to 20)
#    0.000    2.667    3.333    0.000    0.000    0.000 
#    0.000    0.000    0.000    0.000   26.000    0.000 
#    0.000    0.000    0.000    0.000    0.000    0.000 
#
# Total GULP energy -133743.037912 kJ/mol
# GULP energy per Si atom -5572.626580 kJ/mol
# Density = 2.672177 g / cm^3
# Si number density = 26.782726 Si / 1000 Ang^3
#
#
#
# Elastic Constant Matrix: (Units=GPa)
#
#
# Indices 1 2 3 4 5 6 
#
# 1 95.1231 48.0814 11.1988 0.0000 0.0000 0.0000
# 2 48.0814 68.5583 16.9998 0.0000 0.0000 0.0000
# 3 11.1988 16.9998 86.4860 0.0000 0.0000 0.0000
# 4 0.0000 0.0000 0.0000 20.2604 0.0000 0.0000
# 5 0.0000 0.0000 0.0000 0.0000 21.4134 0.0000
# 6 0.0000 0.0000 0.0000 0.0000 0.0000 65.9361
#
#
#
# Elastic Compliance Matrix: (Units=1/GPa)
#
#
# Indices 1 2 3 4 5 6 
#
# 1 0.016288 -0.011458 0.000143 0.000000 0.000000 0.000000
# 2 -0.011458 0.023394 -0.003115 0.000000 0.000000 0.000000
# 3 0.000143 -0.003115 0.012156 0.000000 0.000000 0.000000
# 4 0.000000 0.000000 0.000000 0.049357 0.000000 0.000000
# 5 0.000000 0.000000 0.000000 0.000000 0.046700 0.000000
# 6 0.000000 0.000000 0.000000 0.000000 0.000000 0.015166
#
#
# Mechanical properties :
#
#
# Convention : Reuss Voigt Hill
#
# Bulk Modulus (GPa) = 43.51874 44.74747 44.13310
# Shear Modulus (GPa) = 25.05250 33.11448 29.08349
#
# Velocity S-wave (km/s) = 3.06175 3.52008 3.29888
# Velocity P-wave (km/s) = 5.36499 5.76759 5.56993
#
# Compressibility (1/GPa) = 0.02297861
#
# Stress axis : x y z
#
# Youngs Moduli (GPa) = 61.39620 42.74516 82.26221
#
# Poissons Ratio (x) = 0.48979 -0.01178
# Poissons Ratio (y) = 0.70350 0.25622
# Poissons Ratio (z) = -0.00879 0.13314
#
# Static dielectric constant tensor:
#      x y z
#    x 2.335310 0.000000 0.000000 
#    y 0.000000 2.153000 0.000000 
#    z 0.000000 0.000000 2.162820 
# 
# From -- ./inp_files/7076.got.cif
#   From: 2010.05.17/outbox.cif.g08.bks.cpg/sg43_4_cif.got.tgz:7076.got - 2010.06.03 19:21:55.
