data_PCOD9370540
_publ_section_title
;
Structure prediction by ZEFSAII (Michael W. Deem and Ramdas Pophale) SiO2 
 PCOD9370540
Probable space group: F D D 2
;
_chemical_formula_sum "Si O2"
_cell_formula_units_Z 128
_cell_length_a 23.769161
_cell_length_b 10.738959
_cell_length_c 25.869002
_cell_angle_alpha 90.000000
_cell_angle_beta 90.000000
_cell_angle_gamma 90.000000
_cell_volume 6603.219150
_symmetry_space_group_name_H-M "F D D 2"
_symmetry_group_IT_number 43
_symmetry_cell_setting 'orthorhombic'
loop_
_space_group_symop_operation_xyz
x,y,z
-x,-y,z
1/4-x,1/4+y,1/4+z
1/4+x,1/4-y,1/4+z
x,1/2+y,1/2+z
-x,1/2-y,1/2+z
1/4-x,3/4+y,3/4+z
1/4+x,3/4-y,3/4+z
1/2+x,y,1/2+z
1/2-x,-y,1/2+z
3/4-x,1/4+y,3/4+z
3/4+x,1/4-y,3/4+z
1/2+x,1/2+y,z
1/2-x,1/2-y,z
3/4-x,3/4+y,1/4+z
3/4+x,3/4-y,1/4+z
loop_
_atom_site_type_symbol
_atom_site_label
_atom_site_fract_x
_atom_site_fract_y
_atom_site_fract_z
Si Si1 0.114389 0.982247 0.789350
Si Si2 0.130843 0.367337 0.607431
Si Si3 0.911815 0.861636 0.141381
Si Si4 0.022514 0.715470 0.122819
Si Si5 0.728282 0.588291 0.766883
Si Si6 0.193938 0.466016 0.986127
Si Si7 0.317690 0.532346 0.005678
Si Si8 0.671972 0.828728 0.714450
O O1 0.123661 0.968455 0.851207
O O2 0.084902 0.860569 0.766806
O O3 0.178575 0.987468 0.767739
O O4 0.080214 0.104623 0.771508
O O5 0.103468 0.497101 0.627655
O O6 0.081141 0.268705 0.602957
O O7 0.159411 0.389007 0.553109
O O8 0.173307 0.327797 0.652725
O O9 0.906191 0.828003 0.201537
O O10 0.976871 0.825577 0.130759
O O11 0.037374 0.662277 0.179461
O O12 0.994863 0.637537 0.076626
O O13 0.698000 0.704582 0.739701
O O14 0.786802 0.565421 0.736906
O O15 0.143932 0.566683 0.978318
O O16 0.250100 0.532149 0.005403
#
# Coordination Sequence:
#
# PCOD9370540 Si02
#       8
#    16  16  16  16  16  16  16  16
#     4   9  18  36  56  80 112 148 182 245 279 338
#     4  10  20  34  58  80 114 149 184 236 286 335
#     4   9  19  35  56  79 112 147 196 233 271 333
#     4   9  18  34  58  84 103 149 193 232 272 340
#     4   9  18  36  58  79 111 142 191 230 287 340
#     4   9  18  36  55  81 115 142 187 233 292 340
#     4  10  20  35  55  85 110 150 194 229 283 344
#     4   9  19  36  55  79 115 144 179 237 286 344
#
# _framework density 19.384484
#
# number of rings (size 3 to 8) (size 9 to 14) (size 15 to 20)
#    0.000    2.750    0.000    0.750    1.750    0.000 
#   18.000    5.000    5.500    0.000    0.000    0.000 
#    0.000    0.000    0.000    0.000    0.000    0.000 
#
# Total GULP energy -178173.959225 kJ/mol
# GULP energy per Si atom -5567.936226 kJ/mol
# Density = 1.934036 g / cm^3
# Si number density = 19.384484 Si / 1000 Ang^3
#
#
#
# Elastic Constant Matrix: (Units=GPa)
#
#
# Indices 1 2 3 4 5 6 
#
# 1 90.3665 7.3482 48.2733 0.0000 0.0000 0.0000
# 2 7.3482 16.8329 16.1741 0.0000 0.0000 0.0000
# 3 48.2733 16.1741 120.6345 0.0000 0.0000 0.0000
# 4 0.0000 0.0000 0.0000 27.7236 0.0000 0.0000
# 5 0.0000 0.0000 0.0000 0.0000 33.3511 0.0000
# 6 0.0000 0.0000 0.0000 0.0000 0.0000 20.7384
#
#
#
# Elastic Compliance Matrix: (Units=1/GPa)
#
#
# Indices 1 2 3 4 5 6 
#
# 1 0.014085 -0.000841 -0.005524 0.000000 0.000000 0.000000
# 2 -0.000841 0.068243 -0.008813 0.000000 0.000000 0.000000
# 3 -0.005524 -0.008813 0.011681 0.000000 0.000000 0.000000
# 4 0.000000 0.000000 0.000000 0.036070 0.000000 0.000000
# 5 0.000000 0.000000 0.000000 0.000000 0.029984 0.000000
# 6 0.000000 0.000000 0.000000 0.000000 0.000000 0.048220
#
#
# Mechanical properties :
#
#
# Convention : Reuss Voigt Hill
#
# Bulk Modulus (GPa) = 15.71006 41.26947 28.48976
# Shear Modulus (GPa) = 19.24137 26.76519 23.00328
#
# Velocity S-wave (km/s) = 3.15400 3.71988 3.44857
# Velocity P-wave (km/s) = 4.62446 6.30763 5.53045
#
# Compressibility (1/GPa) = 0.06365348
#
# Stress axis : x y z
#
# Youngs Moduli (GPa) = 70.99708 14.65358 85.60620
#
# Poissons Ratio (x) = 0.01233 0.47285
# Poissons Ratio (y) = 0.05973 0.75445
# Poissons Ratio (z) = 0.39215 0.12914
#
# Static dielectric constant tensor:
#      x y z
#    x 1.638240 0.000000 0.000000 
#    y 0.000000 1.691700 0.000000 
#    z 0.000000 0.000000 1.697140 
# 
# From -- ./inp_files/21344.got.cif
#   From: 2010.05.17/outbox.cif.g08.bks.cpg/sg43_11_cif.got.tgz:21344.got - 2010.06.03 19:21:55.
