data_PCOD9370062
_publ_section_title
;
Structure prediction by ZEFSAII (Michael W. Deem and Ramdas Pophale) SiO2 
 PCOD9370062
Probable space group: F D D 2
;
_chemical_formula_sum "Si O2"
_cell_formula_units_Z 72
_cell_length_a 13.360164
_cell_length_b 7.851342
_cell_length_c 29.712249
_cell_angle_alpha 90.000000
_cell_angle_beta 90.000000
_cell_angle_gamma 90.000000
_cell_volume 3116.672799
_symmetry_space_group_name_H-M "F D D 2"
_symmetry_group_IT_number 43
_symmetry_cell_setting 'orthorhombic'
loop_
_space_group_symop_operation_xyz
x,y,z
-x,-y,z
1/4-x,1/4+y,1/4+z
1/4+x,1/4-y,1/4+z
x,1/2+y,1/2+z
-x,1/2-y,1/2+z
1/4-x,3/4+y,3/4+z
1/4+x,3/4-y,3/4+z
1/2+x,y,1/2+z
1/2-x,-y,1/2+z
3/4-x,1/4+y,3/4+z
3/4+x,1/4-y,3/4+z
1/2+x,1/2+y,z
1/2-x,1/2-y,z
3/4-x,3/4+y,1/4+z
3/4+x,3/4-y,1/4+z
loop_
_atom_site_type_symbol
_atom_site_label
_atom_site_fract_x
_atom_site_fract_y
_atom_site_fract_z
Si Si1 0.338459 0.392225 0.271860
Si Si2 0.902023 0.328306 0.868054
Si Si3 0.500000 0.000000 0.999914
Si Si4 0.866771 0.897408 0.667681
Si Si5 0.620944 0.974365 0.425695
O O1 0.250000 0.250000 0.273765
O O2 0.404991 0.353726 0.315131
O O3 0.295243 0.584868 0.274586
O O4 0.392416 0.364412 0.223732
O O5 0.842470 0.484009 0.891316
O O6 0.858115 0.149632 0.884343
O O7 0.012671 0.326727 0.889698
O O8 0.584144 0.919448 0.966833
O O9 0.911936 0.085133 0.671745
O O10 0.500000 0.000000 0.427272
#
# Coordination Sequence:
#
# PCOD9370062 Si02
#       5
#    16  16   8  16  16
#     4  11  19  30  51  79  98 129 168 208 252 303
#     4   9  18  29  51  77  96 124 168 210 250 283
#     4  10  16  30  52  72  98 128 170 208 238 300
#     4   9  16  34  53  71  93 132 169 207 241 296
#     4   9  15  31  52  71  96 126 166 204 242 296
#
# _framework density 23.101559999999999
#
# number of rings (size 3 to 8) (size 9 to 14) (size 15 to 20)
#    0.000    2.667    8.889    0.000    0.000    1.778 
#    0.000    0.000    4.889    0.000    0.000    0.000 
#    0.000    0.000    0.000    0.000    0.000    0.000 
#
# Total GULP energy -100434.667454 kJ/mol
# GULP energy per Si atom -5579.703747 kJ/mol
# Density = 2.304898 g / cm^3
# Si number density = 23.101560 Si / 1000 Ang^3
#
#
#
# Elastic Constant Matrix: (Units=GPa)
#
#
# Indices 1 2 3 4 5 6 
#
# 1 46.9831 25.1262 3.2355 0.0000 0.0000 0.0000
# 2 25.1262 211.9700 51.3695 0.0000 0.0000 0.0000
# 3 3.2355 51.3695 119.6010 0.0000 0.0000 0.0000
# 4 0.0000 0.0000 0.0000 2.5494 0.0000 0.0000
# 5 0.0000 0.0000 0.0000 0.0000 30.0338 0.0000
# 6 0.0000 0.0000 0.0000 0.0000 0.0000 33.4508
#
#
#
# Elastic Compliance Matrix: (Units=1/GPa)
#
#
# Indices 1 2 3 4 5 6 
#
# 1 0.022764 -0.002845 0.000606 0.000000 0.000000 0.000000
# 2 -0.002845 0.005621 -0.002337 0.000000 0.000000 0.000000
# 3 0.000606 -0.002337 0.009349 0.000000 0.000000 0.000000
# 4 0.000000 0.000000 0.000000 0.392251 0.000000 0.000000
# 5 0.000000 0.000000 0.000000 0.000000 0.033296 0.000000
# 6 0.000000 0.000000 0.000000 0.000000 0.000000 0.029895
#
#
# Mechanical properties :
#
#
# Convention : Reuss Voigt Hill
#
# Bulk Modulus (GPa) = 34.98799 59.77959 47.38379
# Shear Modulus (GPa) = 9.76838 33.12833 21.44836
#
# Velocity S-wave (km/s) = 2.05855 3.79097 3.05033
# Velocity P-wave (km/s) = 4.56381 6.71528 5.74122
#
# Compressibility (1/GPa) = 0.02858123
#
# Stress axis : x y z
#
# Youngs Moduli (GPa) = 43.92869 177.89205 106.96691
#
# Poissons Ratio (x) = 0.50616 -0.06485
# Poissons Ratio (y) = 0.12499 0.25003
# Poissons Ratio (z) = -0.02663 0.41581
#
# Static dielectric constant tensor:
#      x y z
#    x 1.419440 0.000000 0.000000 
#    y 0.000000 2.524190 0.000000 
#    z 0.000000 0.000000 1.808740 
# 
# From -- ./inp_files/18515.got.cif
#   From: 2010.05.17/outbox.cif.g08.bks.cpg/sg43_10_cif.got.tgz:18515.got - 2010.06.03 19:21:55.
