data_PCOD9370570
_publ_section_title
;
Structure prediction by ZEFSAII (Michael W. Deem and Ramdas Pophale) SiO2 
 PCOD9370570
Probable space group: F D D 2
;
_chemical_formula_sum "Si O2"
_cell_formula_units_Z 96
_cell_length_a 12.588705
_cell_length_b 32.164865
_cell_length_c 12.452371
_cell_angle_alpha 90.000000
_cell_angle_beta 90.000000
_cell_angle_gamma 90.000000
_cell_volume 5042.139312
_symmetry_space_group_name_H-M "F D D 2"
_symmetry_group_IT_number 43
_symmetry_cell_setting 'orthorhombic'
loop_
_space_group_symop_operation_xyz
x,y,z
-x,-y,z
1/4-x,1/4+y,1/4+z
1/4+x,1/4-y,1/4+z
x,1/2+y,1/2+z
-x,1/2-y,1/2+z
1/4-x,3/4+y,3/4+z
1/4+x,3/4-y,3/4+z
1/2+x,y,1/2+z
1/2-x,-y,1/2+z
3/4-x,1/4+y,3/4+z
3/4+x,1/4-y,3/4+z
1/2+x,1/2+y,z
1/2-x,1/2-y,z
3/4-x,3/4+y,1/4+z
3/4+x,3/4-y,1/4+z
loop_
_atom_site_type_symbol
_atom_site_label
_atom_site_fract_x
_atom_site_fract_y
_atom_site_fract_z
Si Si1 0.253673 0.169879 0.442480
Si Si2 0.823268 0.494580 0.015540
Si Si3 0.236649 0.079802 0.087147
Si Si4 0.833663 0.834759 0.021806
Si Si5 0.750000 0.250000 0.445979
Si Si6 0.000000 0.000000 0.335707
Si Si7 0.925944 0.835248 0.261902
O O1 0.371201 0.175851 0.391765
O O2 0.227801 0.210149 0.512364
O O3 0.169322 0.163841 0.347166
O O4 0.259021 0.128385 0.515153
O O5 0.764292 0.538938 0.018959
O O6 0.899361 0.494544 0.118795
O O7 0.745464 0.455799 0.025515
O O8 0.898985 0.491107 0.911962
O O9 0.231077 0.122126 0.018242
O O10 0.324644 0.084917 0.181083
O O11 0.882891 0.833949 0.140361
O O12 0.766848 0.792638 0.009445
#
# Coordination Sequence:
#
# PCOD9370570 Si02
#       7
#    16  16  16  16   8   8  16
#     4  11  22  38  58  85 114 148 188 232 279 332
#     4  10  22  39  57  81 114 149 187 231 280 334
#     4  10  20  37  57  83 113 145 187 232 281 335
#     4  10  20  36  58  83 112 147 186 234 280 335
#     4   9  22  39  56  80 114 147 186 231 282 336
#     4  11  22  39  58  82 114 151 188 231 278 332
#     4  11  22  37  59  84 113 147 187 232 278 333
#
# _framework density 19.039535999999998
#
# number of rings (size 3 to 8) (size 9 to 14) (size 15 to 20)
#    0.000    1.667    0.000    7.000    0.000    6.000 
#    0.000    3.333    0.000    0.000    0.000    0.000 
#    0.000    0.000    0.000    0.000    0.000    0.000 
#
# Total GULP energy -134045.842825 kJ/mol
# GULP energy per Si atom -5585.243451 kJ/mol
# Density = 1.899620 g / cm^3
# Si number density = 19.039536 Si / 1000 Ang^3
#
#
#
# Elastic Constant Matrix: (Units=GPa)
#
#
# Indices 1 2 3 4 5 6 
#
# 1 78.7211 53.5248 19.4048 0.0000 0.0000 0.0000
# 2 53.5248 168.6421 37.3677 0.0000 0.0000 0.0000
# 3 19.4048 37.3677 56.8895 0.0000 0.0000 0.0000
# 4 0.0000 0.0000 0.0000 30.6465 0.0000 0.0000
# 5 0.0000 0.0000 0.0000 0.0000 10.2742 0.0000
# 6 0.0000 0.0000 0.0000 0.0000 0.0000 40.1919
#
#
#
# Elastic Compliance Matrix: (Units=1/GPa)
#
#
# Indices 1 2 3 4 5 6 
#
# 1 0.016512 -0.004673 -0.002563 0.000000 0.000000 0.000000
# 2 -0.004673 0.008262 -0.003833 0.000000 0.000000 0.000000
# 3 -0.002563 -0.003833 0.020970 0.000000 0.000000 0.000000
# 4 0.000000 0.000000 0.000000 0.032630 0.000000 0.000000
# 5 0.000000 0.000000 0.000000 0.000000 0.097331 0.000000
# 6 0.000000 0.000000 0.000000 0.000000 0.000000 0.024881
#
#
# Mechanical properties :
#
#
# Convention : Reuss Voigt Hill
#
# Bulk Modulus (GPa) = 42.36125 58.31636 50.33880
# Shear Modulus (GPa) = 21.68332 29.15290 25.41811
#
# Velocity S-wave (km/s) = 3.37836 3.91727 3.65775
# Velocity P-wave (km/s) = 6.12496 7.15231 6.65848
#
# Compressibility (1/GPa) = 0.02360648
#
# Stress axis : x y z
#
# Youngs Moduli (GPa) = 60.56198 121.03404 47.68752
#
# Poissons Ratio (x) = 0.56557 0.12222
# Poissons Ratio (y) = 0.28299 0.18279
# Poissons Ratio (z) = 0.15521 0.46393
#
# Static dielectric constant tensor:
#      x y z
#    x 1.658340 0.000000 0.000000 
#    y 0.000000 1.692240 0.000000 
#    z 0.000000 0.000000 1.633540 
# 
# From -- ./inp_files/6284.got.cif
#   From: 2010.05.17/outbox.cif.g08.bks.cpg/sg43_4_cif.got.tgz:6284.got - 2010.06.03 19:21:55.
