data_PCOD9370934
_publ_section_title
;
Structure prediction by ZEFSAII (Michael W. Deem and Ramdas Pophale) SiO2 
 PCOD9370934
Probable space group: F D D 2
;
_chemical_formula_sum "Si O2"
_cell_formula_units_Z 120
_cell_length_a 23.450018
_cell_length_b 10.065365
_cell_length_c 19.589468
_cell_angle_alpha 90.000000
_cell_angle_beta 90.000000
_cell_angle_gamma 90.000000
_cell_volume 4623.760713
_symmetry_space_group_name_H-M "F D D 2"
_symmetry_group_IT_number 43
_symmetry_cell_setting 'orthorhombic'
loop_
_space_group_symop_operation_xyz
x,y,z
-x,-y,z
1/4-x,1/4+y,1/4+z
1/4+x,1/4-y,1/4+z
x,1/2+y,1/2+z
-x,1/2-y,1/2+z
1/4-x,3/4+y,3/4+z
1/4+x,3/4-y,3/4+z
1/2+x,y,1/2+z
1/2-x,-y,1/2+z
3/4-x,1/4+y,3/4+z
3/4+x,1/4-y,3/4+z
1/2+x,1/2+y,z
1/2-x,1/2-y,z
3/4-x,3/4+y,1/4+z
3/4+x,3/4-y,1/4+z
loop_
_atom_site_type_symbol
_atom_site_label
_atom_site_fract_x
_atom_site_fract_y
_atom_site_fract_z
Si Si1 0.491062 0.823380 0.830370
Si Si2 0.658564 0.214675 0.019301
Si Si3 0.590917 0.518855 0.703180
Si Si4 0.250000 0.750000 0.712065
Si Si5 0.918996 0.559125 0.346347
Si Si6 0.954110 0.230672 0.620628
Si Si7 0.324586 0.948693 0.888002
Si Si8 0.474086 0.709683 0.476665
O O1 0.556141 0.843965 0.805696
O O2 0.457259 0.686460 0.830851
O O3 0.493249 0.853898 0.912520
O O4 0.453665 0.916188 0.780738
O O5 0.607179 0.275546 0.065733
O O6 0.647455 0.155024 0.943153
O O7 0.572741 0.533181 0.781468
O O8 0.565076 0.382600 0.673772
O O9 0.573567 0.650903 0.665600
O O10 0.659294 0.520172 0.702712
O O11 0.305367 0.749515 0.664298
O O12 0.251044 0.605839 0.744050
O O13 0.851321 0.571507 0.355051
O O14 0.970004 0.148164 0.551522
O O15 0.006887 0.325271 0.637958
#
# Coordination Sequence:
#
# PCOD9370934 Si02
#       8
#    16  16  16   8  16  16  16  16
#     4  10  23  50  73 102 149 209 266 327 409 486
#     4  11  27  50  74 109 149 215 269 331 410 491
#     4  11  23  43  71 110 146 194 259 325 408 478
#     4  10  20  42  72 104 144 202 256 320 398 472
#     4  10  23  42  76 105 149 198 258 326 399 480
#     4  11  25  45  68 121 155 204 261 340 406 494
#     4  12  28  47  75 110 160 204 269 334 406 488
#     4  10  22  42  73 105 151 199 264 331 404 483
#
# _framework density 25.952901000000001
#
# number of rings (size 3 to 8) (size 9 to 14) (size 15 to 20)
#    0.000    1.333    2.667    1.200   11.200    0.000 
#   14.400    0.000    0.000    0.000    0.000    0.000 
#    0.000    0.000    0.000    0.000    0.000    0.000 
#
# Total GULP energy -167483.250499 kJ/mol
# GULP energy per Si atom -5582.775017 kJ/mol
# Density = 2.589383 g / cm^3
# Si number density = 25.952901 Si / 1000 Ang^3
#
#
#
# Elastic Constant Matrix: (Units=GPa)
#
#
# Indices 1 2 3 4 5 6 
#
# 1 152.7295 19.7712 53.9996 0.0000 0.0000 0.0000
# 2 19.7712 88.3478 26.7631 0.0000 0.0000 0.0000
# 3 53.9996 26.7631 115.7736 0.0000 0.0000 0.0000
# 4 0.0000 0.0000 0.0000 16.4634 0.0000 0.0000
# 5 0.0000 0.0000 0.0000 0.0000 32.6750 0.0000
# 6 0.0000 0.0000 0.0000 0.0000 0.0000 30.5136
#
#
#
# Elastic Compliance Matrix: (Units=1/GPa)
#
#
# Indices 1 2 3 4 5 6 
#
# 1 0.007880 -0.000699 -0.003514 0.000000 0.000000 0.000000
# 2 -0.000699 0.012233 -0.002502 0.000000 0.000000 0.000000
# 3 -0.003514 -0.002502 0.010855 0.000000 0.000000 0.000000
# 4 0.000000 0.000000 0.000000 0.060741 0.000000 0.000000
# 5 0.000000 0.000000 0.000000 0.000000 0.030604 0.000000
# 6 0.000000 0.000000 0.000000 0.000000 0.000000 0.032772
#
#
# Mechanical properties :
#
#
# Convention : Reuss Voigt Hill
#
# Bulk Modulus (GPa) = 57.01677 61.99097 59.50387
# Shear Modulus (GPa) = 28.67596 33.01822 30.84709
#
# Velocity S-wave (km/s) = 3.32764 3.57071 3.45132
# Velocity P-wave (km/s) = 6.06476 6.39826 6.23374
#
# Compressibility (1/GPa) = 0.01753870
#
# Stress axis : x y z
#
# Youngs Moduli (GPa) = 126.89624 81.74458 92.12407
#
# Poissons Ratio (x) = 0.05714 0.32373
# Poissons Ratio (y) = 0.08871 0.23048
# Poissons Ratio (z) = 0.44592 0.20451
#
# Static dielectric constant tensor:
#      x y z
#    x 2.191850 0.000000 0.000000 
#    y 0.000000 2.135400 0.000000 
#    z 0.000000 0.000000 2.109080 
# 
# From -- ./inp_files/18668.got.cif
#   From: 2010.05.17/outbox.cif.g08.bks.cpg/sg43_10_cif.got.tgz:18668.got - 2010.06.03 19:21:55.
