data_PCOD9370331
_publ_section_title
;
Structure prediction by ZEFSAII (Michael W. Deem and Ramdas Pophale) SiO2 
 PCOD9370331
Probable space group: F D D 2
;
_chemical_formula_sum "Si O2"
_cell_formula_units_Z 104
_cell_length_a 12.291887
_cell_length_b 20.768634
_cell_length_c 22.785541
_cell_angle_alpha 90.000000
_cell_angle_beta 90.000000
_cell_angle_gamma 90.000000
_cell_volume 5816.822836
_symmetry_space_group_name_H-M "F D D 2"
_symmetry_group_IT_number 43
_symmetry_cell_setting 'orthorhombic'
loop_
_space_group_symop_operation_xyz
x,y,z
-x,-y,z
1/4-x,1/4+y,1/4+z
1/4+x,1/4-y,1/4+z
x,1/2+y,1/2+z
-x,1/2-y,1/2+z
1/4-x,3/4+y,3/4+z
1/4+x,3/4-y,3/4+z
1/2+x,y,1/2+z
1/2-x,-y,1/2+z
3/4-x,1/4+y,3/4+z
3/4+x,1/4-y,3/4+z
1/2+x,1/2+y,z
1/2-x,1/2-y,z
3/4-x,3/4+y,1/4+z
3/4+x,3/4-y,1/4+z
loop_
_atom_site_type_symbol
_atom_site_label
_atom_site_fract_x
_atom_site_fract_y
_atom_site_fract_z
Si Si1 0.483552 0.731359 0.473140
Si Si2 0.800511 0.549988 0.903543
Si Si3 0.500000 0.500000 0.758572
Si Si4 0.125470 0.738616 0.278104
Si Si5 0.616991 0.849986 0.071797
Si Si6 0.607116 0.542874 0.306997
Si Si7 0.023955 0.344963 0.859701
O O1 0.359247 0.757418 0.470598
O O2 0.470589 0.673860 0.521867
O O3 0.562889 0.783505 0.501987
O O4 0.518536 0.700226 0.412277
O O5 0.684098 0.575416 0.882050
O O6 0.834081 0.490094 0.862668
O O7 0.888735 0.606141 0.889500
O O8 0.808069 0.529439 0.970446
O O9 0.526950 0.561014 0.800117
O O10 0.250000 0.750000 0.259410
O O11 0.121209 0.675738 0.319169
O O12 0.083475 0.800156 0.312697
O O13 0.500000 0.500000 0.294724
O O14 0.565976 0.612422 0.326837
#
# Coordination Sequence:
#
# PCOD9370331 Si02
#       7
#    16  16   8  16  16  16  16
#     4   9  19  37  61  87 119 162 204 248 301 369
#     4  10  19  34  54  87 125 149 194 251 309 365
#     4   8  18  34  64  84 116 168 200 238 304 372
#     4  12  22  32  59  94 121 148 201 268 314 350
#     4   9  19  36  55  86 119 158 193 246 312 359
#     4   9  20  34  57  87 122 163 198 246 314 370
#     4  11  21  34  59  91 121 154 201 263 307 360
#
# _framework density 17.879176999999999
#
# number of rings (size 3 to 8) (size 9 to 14) (size 15 to 20)
#    0.923    1.231    3.077    1.385    1.077    1.231 
#    0.000    1.538    3.385    0.000    0.000    0.000 
#    0.000    0.000    0.000    0.000    0.000    0.000 
#
# Total GULP energy -144856.391072 kJ/mol
# GULP energy per Si atom -5571.399657 kJ/mol
# Density = 1.783848 g / cm^3
# Si number density = 17.879177 Si / 1000 Ang^3
#
#
#
# Elastic Constant Matrix: (Units=GPa)
#
#
# Indices 1 2 3 4 5 6 
#
# 1 60.5119 27.8497 27.8143 0.0000 0.0000 0.0000
# 2 27.8497 70.6624 31.0820 0.0000 0.0000 0.0000
# 3 27.8143 31.0820 97.4404 0.0000 0.0000 0.0000
# 4 0.0000 0.0000 0.0000 23.0064 0.0000 0.0000
# 5 0.0000 0.0000 0.0000 0.0000 13.9362 0.0000
# 6 0.0000 0.0000 0.0000 0.0000 0.0000 22.8338
#
#
#
# Elastic Compliance Matrix: (Units=1/GPa)
#
#
# Indices 1 2 3 4 5 6 
#
# 1 0.021439 -0.006697 -0.003983 0.000000 0.000000 0.000000
# 2 -0.006697 0.018554 -0.004007 0.000000 0.000000 0.000000
# 3 -0.003983 -0.004007 0.012678 0.000000 0.000000 0.000000
# 4 0.000000 0.000000 0.000000 0.043466 0.000000 0.000000
# 5 0.000000 0.000000 0.000000 0.000000 0.071756 0.000000
# 6 0.000000 0.000000 0.000000 0.000000 0.000000 0.043795
#
#
# Mechanical properties :
#
#
# Convention : Reuss Voigt Hill
#
# Bulk Modulus (GPa) = 42.92631 44.67854 43.80243
# Shear Modulus (GPa) = 20.09425 21.41319 20.75372
#
# Velocity S-wave (km/s) = 3.35609 3.46448 3.41071
# Velocity P-wave (km/s) = 6.25132 6.40678 6.32953
#
# Compressibility (1/GPa) = 0.02329573
#
# Stress axis : x y z
#
# Youngs Moduli (GPa) = 46.64386 53.89729 78.87815
#
# Poissons Ratio (x) = 0.36098 0.31420
# Poissons Ratio (y) = 0.31240 0.31603
# Poissons Ratio (z) = 0.18580 0.21594
#
# Static dielectric constant tensor:
#      x y z
#    x 1.628810 0.000000 0.000000 
#    y 0.000000 1.614130 0.000000 
#    z 0.000000 0.000000 1.623870 
# 
# From -- ./inp_files/17687.got.cif
#   From: 2010.05.17/outbox.cif.g08.bks.cpg/sg43_9_cif.got.tgz:17687.got - 2010.06.03 19:21:55.
