data_PCOD9370772
_publ_section_title
;
Structure prediction by ZEFSAII (Michael W. Deem and Ramdas Pophale) SiO2 
 PCOD9370772
Probable space group: F D D 2
;
_chemical_formula_sum "Si O2"
_cell_formula_units_Z 88
_cell_length_a 23.650766
_cell_length_b 16.522124
_cell_length_c 8.950252
_cell_angle_alpha 90.000000
_cell_angle_beta 90.000000
_cell_angle_gamma 90.000000
_cell_volume 3497.408424
_symmetry_space_group_name_H-M "F D D 2"
_symmetry_group_IT_number 43
_symmetry_cell_setting 'orthorhombic'
loop_
_space_group_symop_operation_xyz
x,y,z
-x,-y,z
1/4-x,1/4+y,1/4+z
1/4+x,1/4-y,1/4+z
x,1/2+y,1/2+z
-x,1/2-y,1/2+z
1/4-x,3/4+y,3/4+z
1/4+x,3/4-y,3/4+z
1/2+x,y,1/2+z
1/2-x,-y,1/2+z
3/4-x,1/4+y,3/4+z
3/4+x,1/4-y,3/4+z
1/2+x,1/2+y,z
1/2-x,1/2-y,z
3/4-x,3/4+y,1/4+z
3/4+x,3/4-y,1/4+z
loop_
_atom_site_type_symbol
_atom_site_label
_atom_site_fract_x
_atom_site_fract_y
_atom_site_fract_z
Si Si1 0.874527 0.906883 0.830800
Si Si2 0.858429 0.307421 0.751746
Si Si3 0.500000 0.000000 0.037360
Si Si4 0.073932 0.755231 0.321000
Si Si5 0.504110 0.384537 0.800906
Si Si6 0.400782 0.472660 0.305949
O O1 0.839931 0.920812 0.678239
O O2 0.941982 0.925484 0.815602
O O3 0.882826 0.814833 0.881225
O O4 0.858753 0.977304 0.943980
O O5 0.801474 0.336519 0.666104
O O6 0.900161 0.383015 0.739228
O O7 0.843639 0.286128 0.922848
O O8 0.551128 0.022547 0.929439
O O9 0.516597 0.920890 0.137031
O O10 0.092727 0.767426 0.150254
O O11 0.013654 0.709830 0.322092
#
# Coordination Sequence:
#
# PCOD9370772 Si02
#       6
#    16  16   8  16  16  16
#     4  10  20  39  72  92 129 182 219 273 338 424
#     4  12  24  42  65 100 136 168 235 281 340 396
#     4  12  22  42  68  96 134 192 226 260 354 418
#     4  10  20  43  68  98 131 178 227 274 349 407
#     4  10  21  42  74  92 131 188 227 266 346 426
#     4  12  26  41  68 105 135 175 227 295 329 410
#
# _framework density 25.161487999999999
#
# number of rings (size 3 to 8) (size 9 to 14) (size 15 to 20)
#    1.091    0.000    3.636    3.273    2.545    0.000 
#    0.000   10.909    0.000    0.000    0.000    0.000 
#    0.000    0.000    0.000    0.000    0.000    0.000 
#
# Total GULP energy -122782.215519 kJ/mol
# GULP energy per Si atom -5581.009796 kJ/mol
# Density = 2.510422 g / cm^3
# Si number density = 25.161488 Si / 1000 Ang^3
#
#
#
# Elastic Constant Matrix: (Units=GPa)
#
#
# Indices 1 2 3 4 5 6 
#
# 1 46.1872 -13.4769 27.2745 0.0000 0.0000 0.0000
# 2 -13.4769 72.7351 18.1977 0.0000 0.0000 0.0000
# 3 27.2745 18.1977 134.7443 0.0000 0.0000 0.0000
# 4 0.0000 0.0000 0.0000 130.4572 0.0000 0.0000
# 5 0.0000 0.0000 0.0000 0.0000 46.1419 0.0000
# 6 0.0000 0.0000 0.0000 0.0000 0.0000 21.9491
#
#
#
# Elastic Compliance Matrix: (Units=1/GPa)
#
#
# Indices 1 2 3 4 5 6 
#
# 1 0.027415 0.006694 -0.006453 0.000000 0.000000 0.000000
# 2 0.006694 0.015864 -0.003498 0.000000 0.000000 0.000000
# 3 -0.006453 -0.003498 0.009200 0.000000 0.000000 0.000000
# 4 0.000000 0.000000 0.000000 0.007665 0.000000 0.000000
# 5 0.000000 0.000000 0.000000 0.000000 0.021672 0.000000
# 6 0.000000 0.000000 0.000000 0.000000 0.000000 0.045560
#
#
# Mechanical properties :
#
#
# Convention : Reuss Voigt Hill
#
# Bulk Modulus (GPa) = 21.75522 35.29523 28.52523
# Shear Modulus (GPa) = 33.50936 54.48773 43.99855
#
# Velocity S-wave (km/s) = 3.65330 4.65856 4.18622
# Velocity P-wave (km/s) = 5.14398 6.55700 5.89299
#
# Compressibility (1/GPa) = 0.04596599
#
# Stress axis : x y z
#
# Youngs Moduli (GPa) = 36.47614 63.03608 108.69464
#
# Poissons Ratio (x) = -0.42198 0.70145
# Poissons Ratio (y) = -0.24418 0.38016
# Poissons Ratio (z) = 0.23539 0.22047
#
# Static dielectric constant tensor:
#      x y z
#    x 2.101130 0.000000 0.000000 
#    y 0.000000 1.483150 0.000000 
#    z 0.000000 0.000000 2.056800 
# 
# From -- ./inp_files/4702.got.cif
#   From: 2010.05.17/outbox.cif.g08.bks.cpg/sg43_3_cif.got.tgz:4702.got - 2010.06.03 19:21:55.
