data_PCOD9370228
_publ_section_title
;
Structure prediction by ZEFSAII (Michael W. Deem and Ramdas Pophale) SiO2 
 PCOD9370228
Probable space group: F D D 2
;
_chemical_formula_sum "Si O2"
_cell_formula_units_Z 104
_cell_length_a 16.032293
_cell_length_b 22.699396
_cell_length_c 14.534275
_cell_angle_alpha 90.000000
_cell_angle_beta 90.000000
_cell_angle_gamma 90.000000
_cell_volume 5289.362304
_symmetry_space_group_name_H-M "F D D 2"
_symmetry_group_IT_number 43
_symmetry_cell_setting 'orthorhombic'
loop_
_space_group_symop_operation_xyz
x,y,z
-x,-y,z
1/4-x,1/4+y,1/4+z
1/4+x,1/4-y,1/4+z
x,1/2+y,1/2+z
-x,1/2-y,1/2+z
1/4-x,3/4+y,3/4+z
1/4+x,3/4-y,3/4+z
1/2+x,y,1/2+z
1/2-x,-y,1/2+z
3/4-x,1/4+y,3/4+z
3/4+x,1/4-y,3/4+z
1/2+x,1/2+y,z
1/2-x,1/2-y,z
3/4-x,3/4+y,1/4+z
3/4+x,3/4-y,1/4+z
loop_
_atom_site_type_symbol
_atom_site_label
_atom_site_fract_x
_atom_site_fract_y
_atom_site_fract_z
Si Si1 0.183077 0.876429 0.882110
Si Si2 0.284312 0.137630 0.811794
Si Si3 0.676031 0.042478 0.952206
Si Si4 0.001632 0.346084 0.434996
Si Si5 0.919142 0.760569 0.506247
Si Si6 0.155122 0.908579 0.506255
Si Si7 0.500000 0.000000 0.668637
O O1 0.243366 0.915297 0.947169
O O2 0.197212 0.897947 0.777583
O O3 0.090885 0.878803 0.925649
O O4 0.210893 0.807930 0.873122
O O5 0.352883 0.175153 0.756799
O O6 0.284006 0.069898 0.779193
O O7 0.193033 0.161018 0.782610
O O8 0.316038 0.130360 0.917968
O O9 0.655836 0.031551 0.844397
O O10 0.685466 0.975773 0.988231
O O11 0.029464 0.277596 0.433630
O O12 0.949580 0.364547 0.347220
O O13 0.826798 0.776301 0.475107
#
# Coordination Sequence:
#
# PCOD9370228 Si02
#       7
#    16  16  16  16  16  16   8
#     4  10  21  38  66  88 123 161 211 268 317 376
#     4  11  23  40  64  93 126 173 213 269 321 392
#     4  10  22  39  62  96 125 165 212 268 330 378
#     4  10  22  41  59  88 127 167 209 260 317 383
#     4   9  21  36  62  91 125 157 207 266 319 376
#     4  11  25  40  64  91 133 173 217 261 330 396
#     4  10  18  36  62  96 112 158 202 266 318 368
#
# _framework density 19.662105
#
# number of rings (size 3 to 8) (size 9 to 14) (size 15 to 20)
#    0.000    1.846    1.538    1.385    6.462    3.692 
#    0.000    1.538    3.385    0.000    0.000    0.000 
#    0.000    0.000    0.000    0.000    0.000    0.000 
#
# Total GULP energy -144772.016831 kJ/mol
# GULP energy per Si atom -5568.154493 kJ/mol
# Density = 1.961735 g / cm^3
# Si number density = 19.662105 Si / 1000 Ang^3
#
#
#
# Elastic Constant Matrix: (Units=GPa)
#
#
# Indices 1 2 3 4 5 6 
#
# 1 46.0560 2.4640 13.3095 0.0000 0.0000 0.0000
# 2 2.4640 57.7766 9.0863 0.0000 0.0000 0.0000
# 3 13.3095 9.0863 60.1171 0.0000 0.0000 0.0000
# 4 0.0000 0.0000 0.0000 17.4852 0.0000 0.0000
# 5 0.0000 0.0000 0.0000 0.0000 9.8342 0.0000
# 6 0.0000 0.0000 0.0000 0.0000 0.0000 24.4482
#
#
#
# Elastic Compliance Matrix: (Units=1/GPa)
#
#
# Indices 1 2 3 4 5 6 
#
# 1 0.023199 -0.000186 -0.005108 0.000000 0.000000 0.000000
# 2 -0.000186 0.017731 -0.002639 0.000000 0.000000 0.000000
# 3 -0.005108 -0.002639 0.018164 0.000000 0.000000 0.000000
# 4 0.000000 0.000000 0.000000 0.057191 0.000000 0.000000
# 5 0.000000 0.000000 0.000000 0.000000 0.101686 0.000000
# 6 0.000000 0.000000 0.000000 0.000000 0.000000 0.040903
#
#
# Mechanical properties :
#
#
# Convention : Reuss Voigt Hill
#
# Bulk Modulus (GPa) = 23.13305 23.74104 23.43705
# Shear Modulus (GPa) = 17.29217 19.62618 18.45917
#
# Velocity S-wave (km/s) = 2.96880 3.16281 3.06734
# Velocity P-wave (km/s) = 4.85206 5.04367 4.94879
#
# Compressibility (1/GPa) = 0.04322819
#
# Stress axis : x y z
#
# Youngs Moduli (GPa) = 43.10577 56.39849 55.05435
#
# Poissons Ratio (x) = 0.01049 0.28121
# Poissons Ratio (y) = 0.00802 0.14527
# Poissons Ratio (z) = 0.22018 0.14882
#
# Static dielectric constant tensor:
#      x y z
#    x 1.713320 0.000000 0.000000 
#    y 0.000000 1.704840 0.000000 
#    z 0.000000 0.000000 1.728270 
# 
# From -- ./inp_files/10630.got.cif
#   From: 2010.05.17/outbox.cif.g08.bks.cpg/sg43_6_cif.got.tgz:10630.got - 2010.06.03 19:21:55.
