data_PCOD9370257
_publ_section_title
;
Structure prediction by ZEFSAII (Michael W. Deem and Ramdas Pophale) SiO2 
 PCOD9370257
Probable space group: F D D 2
;
_chemical_formula_sum "Si O2"
_cell_formula_units_Z 88
_cell_length_a 5.428645
_cell_length_b 28.738164
_cell_length_c 22.645640
_cell_angle_alpha 90.000000
_cell_angle_beta 90.000000
_cell_angle_gamma 90.000000
_cell_volume 3532.930225
_symmetry_space_group_name_H-M "F D D 2"
_symmetry_group_IT_number 43
_symmetry_cell_setting 'orthorhombic'
loop_
_space_group_symop_operation_xyz
x,y,z
-x,-y,z
1/4-x,1/4+y,1/4+z
1/4+x,1/4-y,1/4+z
x,1/2+y,1/2+z
-x,1/2-y,1/2+z
1/4-x,3/4+y,3/4+z
1/4+x,3/4-y,3/4+z
1/2+x,y,1/2+z
1/2-x,-y,1/2+z
3/4-x,1/4+y,3/4+z
3/4+x,1/4-y,3/4+z
1/2+x,1/2+y,z
1/2-x,1/2-y,z
3/4-x,3/4+y,1/4+z
3/4+x,3/4-y,1/4+z
loop_
_atom_site_type_symbol
_atom_site_label
_atom_site_fract_x
_atom_site_fract_y
_atom_site_fract_z
Si Si1 0.750000 0.750000 0.933511
Si Si2 0.482991 0.659630 0.678344
Si Si3 0.500000 0.000000 0.389618
Si Si4 0.095066 0.098695 0.112024
Si Si5 0.754448 0.415660 0.227211
Si Si6 0.000000 0.000000 0.106301
Si Si7 0.142710 0.810065 0.080084
O O1 0.779433 0.703485 0.970671
O O2 0.501049 0.749949 0.895171
O O3 0.303253 0.704211 0.679491
O O4 0.349841 0.617541 0.641375
O O5 0.616512 0.634843 0.733505
O O6 0.696807 0.680749 0.638222
O O7 0.281055 0.017036 0.346209
O O8 0.913499 0.091192 0.168584
O O9 0.045746 0.050430 0.076869
O O10 0.013763 0.142848 0.074707
O O11 0.574342 0.437460 0.275196
#
# Coordination Sequence:
#
# PCOD9370257 Si02
#       7
#     8  16   8  16  16   8  16
#     4  10  20  37  62  98 130 173 223 296 362 420
#     4  10  20  40  62  92 135 187 224 293 354 433
#     4  10  22  41  62  95 136 192 238 292 365 434
#     4   9  20  38  62  91 132 179 220 285 361 415
#     4  10  21  39  63  98 134 173 231 291 360 426
#     4  10  18  38  64  93 130 177 229 282 353 438
#     4  10  22  40  65  96 135 180 232 297 360 427
#
# _framework density 24.908501999999999
#
# number of rings (size 3 to 8) (size 9 to 14) (size 15 to 20)
#    0.000    2.182    1.818    0.545    0.000    3.636 
#   13.091    0.000    0.000   26.182    0.000    0.000 
#    0.000    0.000    0.000    0.000    0.000    0.000 
#
# Total GULP energy -122698.215843 kJ/mol
# GULP energy per Si atom -5577.191629 kJ/mol
# Density = 2.485181 g / cm^3
# Si number density = 24.908502 Si / 1000 Ang^3
#
#
#
# Elastic Constant Matrix: (Units=GPa)
#
#
# Indices 1 2 3 4 5 6 
#
# 1 140.3572 58.6350 32.0094 0.0000 0.0000 0.0000
# 2 58.6350 197.4386 40.4093 0.0000 0.0000 0.0000
# 3 32.0094 40.4093 49.3273 0.0000 0.0000 0.0000
# 4 0.0000 0.0000 0.0000 28.9859 0.0000 0.0000
# 5 0.0000 0.0000 0.0000 0.0000 37.0553 0.0000
# 6 0.0000 0.0000 0.0000 0.0000 0.0000 66.0863
#
#
#
# Elastic Compliance Matrix: (Units=1/GPa)
#
#
# Indices 1 2 3 4 5 6 
#
# 1 0.008834 -0.001742 -0.004305 0.000000 0.000000 0.000000
# 2 -0.001742 0.006429 -0.004136 0.000000 0.000000 0.000000
# 3 -0.004305 -0.004136 0.026455 0.000000 0.000000 0.000000
# 4 0.000000 0.000000 0.000000 0.034500 0.000000 0.000000
# 5 0.000000 0.000000 0.000000 0.000000 0.026987 0.000000
# 6 0.000000 0.000000 0.000000 0.000000 0.000000 0.015132
#
#
# Mechanical properties :
#
#
# Convention : Reuss Voigt Hill
#
# Bulk Modulus (GPa) = 46.83708 72.13672 59.48690
# Shear Modulus (GPa) = 34.28880 43.49678 38.89279
#
# Velocity S-wave (km/s) = 3.71427 4.18336 3.95578
# Velocity P-wave (km/s) = 6.10236 7.23586 6.69315
#
# Compressibility (1/GPa) = 0.02135060
#
# Stress axis : x y z
#
# Youngs Moduli (GPa) = 113.19278 155.54991 37.80049
#
# Poissons Ratio (x) = 0.27104 0.16275
# Poissons Ratio (y) = 0.19724 0.15634
# Poissons Ratio (z) = 0.48734 0.64332
#
# Static dielectric constant tensor:
#      x y z
#    x 2.045830 0.000000 0.000000 
#    y 0.000000 2.105660 0.000000 
#    z 0.000000 0.000000 1.989440 
# 
# From -- ./inp_files/19589.got.cif
#   From: 2010.05.17/outbox.cif.g08.bks.cpg/sg43_10_cif.got.tgz:19589.got - 2010.06.03 19:21:55.
