data_PCOD9370365
_publ_section_title
;
Structure prediction by ZEFSAII (Michael W. Deem and Ramdas Pophale) SiO2 
 PCOD9370365
Probable space group: F D D 2
;
_chemical_formula_sum "Si O2"
_cell_formula_units_Z 120
_cell_length_a 17.774152
_cell_length_b 28.922419
_cell_length_c 11.584572
_cell_angle_alpha 90.000000
_cell_angle_beta 90.000000
_cell_angle_gamma 90.000000
_cell_volume 5955.297975
_symmetry_space_group_name_H-M "F D D 2"
_symmetry_group_IT_number 43
_symmetry_cell_setting 'orthorhombic'
loop_
_space_group_symop_operation_xyz
x,y,z
-x,-y,z
1/4-x,1/4+y,1/4+z
1/4+x,1/4-y,1/4+z
x,1/2+y,1/2+z
-x,1/2-y,1/2+z
1/4-x,3/4+y,3/4+z
1/4+x,3/4-y,3/4+z
1/2+x,y,1/2+z
1/2-x,-y,1/2+z
3/4-x,1/4+y,3/4+z
3/4+x,1/4-y,3/4+z
1/2+x,1/2+y,z
1/2-x,1/2-y,z
3/4-x,3/4+y,1/4+z
3/4+x,3/4-y,1/4+z
loop_
_atom_site_type_symbol
_atom_site_label
_atom_site_fract_x
_atom_site_fract_y
_atom_site_fract_z
Si Si1 0.855391 0.283804 0.902200
Si Si2 0.484623 0.218476 0.289474
Si Si3 0.250000 0.250000 0.211315
Si Si4 0.833961 0.205832 0.083524
Si Si5 0.505963 0.679620 0.022335
Si Si6 0.396644 0.728395 0.573029
Si Si7 0.724211 0.634044 0.461215
Si Si8 0.148048 0.045357 0.560044
O O1 0.926220 0.255743 0.849478
O O2 0.793041 0.283023 0.800965
O O3 0.853111 0.337559 0.934728
O O4 0.830707 0.254112 0.014072
O O5 0.501674 0.179246 0.383760
O O6 0.449935 0.203714 0.167763
O O7 0.558632 0.248638 0.272977
O O8 0.315574 0.230496 0.132079
O O9 0.827779 0.204602 0.222173
O O10 0.920587 0.191312 0.060084
O O11 0.778774 0.168983 0.026795
O O12 0.563173 0.720999 0.056964
O O13 0.518925 0.634151 0.097823
O O14 0.387837 0.707507 0.446595
O O15 0.700936 0.589351 0.534191
#
# Coordination Sequence:
#
# PCOD9370365 Si02
#       8
#    16  16   8  16  16  16  16  16
#     4  10  20  36  62  88 114 150 196 256 304 350
#     4   9  18  37  62  83 117 158 203 238 306 358
#     4  10  20  36  64  84 106 166 196 248 300 368
#     4  10  19  36  55  91 118 148 199 250 302 365
#     4   9  20  34  59  91 113 154 196 252 293 359
#     4  10  19  39  60  84 122 158 203 239 306 366
#     4  11  20  34  59  91 117 147 201 255 303 351
#     4  10  22  35  59  87 118 159 196 249 297 370
#
# _framework density 20.150126
#
# number of rings (size 3 to 8) (size 9 to 14) (size 15 to 20)
#    0.000    2.133    4.000    0.000    3.733    0.000 
#    2.400    0.000    8.800    0.000    0.000    0.000 
#    0.000    0.000    0.000    0.000    0.000    0.000 
#
# Total GULP energy -167038.959657 kJ/mol
# GULP energy per Si atom -5567.965322 kJ/mol
# Density = 2.010426 g / cm^3
# Si number density = 20.150126 Si / 1000 Ang^3
#
#
#
# Elastic Constant Matrix: (Units=GPa)
#
#
# Indices 1 2 3 4 5 6 
#
# 1 45.2316 5.7571 18.7330 0.0000 0.0000 0.0000
# 2 5.7571 68.3586 49.4307 0.0000 0.0000 0.0000
# 3 18.7330 49.4307 183.0693 0.0000 0.0000 0.0000
# 4 0.0000 0.0000 0.0000 22.9294 0.0000 0.0000
# 5 0.0000 0.0000 0.0000 0.0000 23.3238 0.0000
# 6 0.0000 0.0000 0.0000 0.0000 0.0000 12.8592
#
#
#
# Elastic Compliance Matrix: (Units=1/GPa)
#
#
# Indices 1 2 3 4 5 6 
#
# 1 0.023092 -0.000293 -0.002284 0.000000 0.000000 0.000000
# 2 -0.000293 0.018182 -0.004879 0.000000 0.000000 0.000000
# 3 -0.002284 -0.004879 0.007014 0.000000 0.000000 0.000000
# 4 0.000000 0.000000 0.000000 0.043612 0.000000 0.000000
# 5 0.000000 0.000000 0.000000 0.000000 0.042875 0.000000
# 6 0.000000 0.000000 0.000000 0.000000 0.000000 0.077765
#
#
# Mechanical properties :
#
#
# Convention : Reuss Voigt Hill
#
# Bulk Modulus (GPa) = 29.96329 49.38902 39.67616
# Shear Modulus (GPa) = 20.95764 26.67171 23.81467
#
# Velocity S-wave (km/s) = 3.22852 3.64215 3.44155
# Velocity P-wave (km/s) = 5.36657 6.50005 5.96032
#
# Compressibility (1/GPa) = 0.03337417
#
# Stress axis : x y z
#
# Youngs Moduli (GPa) = 43.30577 55.00045 142.58135
#
# Poissons Ratio (x) = 0.01614 0.32561
# Poissons Ratio (y) = 0.01271 0.69569
# Poissons Ratio (z) = 0.09890 0.26836
#
# Static dielectric constant tensor:
#      x y z
#    x 1.769600 0.000000 0.000000 
#    y 0.000000 1.748080 0.000000 
#    z 0.000000 0.000000 1.805740 
# 
# From -- ./inp_files/7294.got.cif
#   From: 2010.05.17/outbox.cif.g08.bks.cpg/sg43_4_cif.got.tgz:7294.got - 2010.06.03 19:21:55.
