data_PCOD9370982
_publ_section_title
;
Structure prediction by ZEFSAII (Michael W. Deem and Ramdas Pophale) SiO2 
 PCOD9370982
Probable space group: F D D 2
;
_chemical_formula_sum "Si O2"
_cell_formula_units_Z 56
_cell_length_a 11.868812
_cell_length_b 7.334732
_cell_length_c 27.431298
_cell_angle_alpha 90.000000
_cell_angle_beta 90.000000
_cell_angle_gamma 90.000000
_cell_volume 2388.019445
_symmetry_space_group_name_H-M "F D D 2"
_symmetry_group_IT_number 43
_symmetry_cell_setting 'orthorhombic'
loop_
_space_group_symop_operation_xyz
x,y,z
-x,-y,z
1/4-x,1/4+y,1/4+z
1/4+x,1/4-y,1/4+z
x,1/2+y,1/2+z
-x,1/2-y,1/2+z
1/4-x,3/4+y,3/4+z
1/4+x,3/4-y,3/4+z
1/2+x,y,1/2+z
1/2-x,-y,1/2+z
3/4-x,1/4+y,3/4+z
3/4+x,1/4-y,3/4+z
1/2+x,1/2+y,z
1/2-x,1/2-y,z
3/4-x,3/4+y,1/4+z
3/4+x,3/4-y,1/4+z
loop_
_atom_site_type_symbol
_atom_site_label
_atom_site_fract_x
_atom_site_fract_y
_atom_site_fract_z
Si Si1 0.750000 0.250000 0.080190
Si Si2 0.766972 0.042020 0.923095
Si Si3 0.312422 0.990021 0.161807
Si Si4 0.332352 0.403362 0.255658
O O1 0.756783 0.076236 0.115426
O O2 0.862745 0.269388 0.048162
O O3 0.750000 0.250000 0.906258
O O4 0.810130 0.061013 0.978976
O O5 0.870238 0.926166 0.900973
O O6 0.657313 0.915956 0.919949
O O7 0.237055 0.007546 0.210702
O O8 0.250000 0.250000 0.276129
#
# Coordination Sequence:
#
# PCOD9370982 Si02
#       4
#     8  16  16  16
#     4  12  24  42  72 116 144 204 252 302 384 446
#     4  10  20  45  75  98 141 196 242 311 372 430
#     4  10  24  43  73 107 145 196 250 309 373 441
#     4  10  23  45  74 104 148 195 248 309 365 440
#
# _framework density 23.450396000000001
#
# number of rings (size 3 to 8) (size 9 to 14) (size 15 to 20)
#    0.000    1.714    1.429    1.714    0.000    3.429 
#   10.286    0.000   25.143    0.000    0.000    0.000 
#    0.000    0.000    0.000    0.000    0.000    0.000 
#
# Total GULP energy -78190.471157 kJ/mol
# GULP energy per Si atom -5585.033654 kJ/mol
# Density = 2.339702 g / cm^3
# Si number density = 23.450396 Si / 1000 Ang^3
#
#
#
# Elastic Constant Matrix: (Units=GPa)
#
#
# Indices 1 2 3 4 5 6 
#
# 1 131.2552 56.1976 64.9549 0.0000 0.0000 0.0000
# 2 56.1976 151.5917 42.7150 0.0000 0.0000 0.0000
# 3 64.9549 42.7150 93.6093 0.0000 0.0000 0.0000
# 4 0.0000 0.0000 0.0000 29.1615 0.0000 0.0000
# 5 0.0000 0.0000 0.0000 0.0000 12.6219 0.0000
# 6 0.0000 0.0000 0.0000 0.0000 0.0000 50.3963
#
#
#
# Elastic Compliance Matrix: (Units=1/GPa)
#
#
# Indices 1 2 3 4 5 6 
#
# 1 0.012369 -0.002487 -0.007448 0.000000 0.000000 0.000000
# 2 -0.002487 0.008070 -0.001957 0.000000 0.000000 0.000000
# 3 -0.007448 -0.001957 0.016744 0.000000 0.000000 0.000000
# 4 0.000000 0.000000 0.000000 0.034292 0.000000 0.000000
# 5 0.000000 0.000000 0.000000 0.000000 0.079228 0.000000
# 6 0.000000 0.000000 0.000000 0.000000 0.000000 0.019843
#
#
# Mechanical properties :
#
#
# Convention : Reuss Voigt Hill
#
# Bulk Modulus (GPa) = 74.62994 78.24348 76.43671
# Shear Modulus (GPa) = 25.15141 32.60850 28.87996
#
# Velocity S-wave (km/s) = 3.27851 3.73303 3.51313
# Velocity P-wave (km/s) = 6.79891 7.21239 7.00870
#
# Compressibility (1/GPa) = 0.01339945
#
# Stress axis : x y z
#
# Youngs Moduli (GPa) = 80.84407 123.91643 59.72286
#
# Poissons Ratio (x) = 0.30816 0.44484
# Poissons Ratio (y) = 0.20104 0.11687
# Poissons Ratio (z) = 0.60216 0.24248
#
# Static dielectric constant tensor:
#      x y z
#    x 1.985240 0.000000 0.000000 
#    y 0.000000 2.000290 0.000000 
#    z 0.000000 0.000000 1.877050 
# 
# From -- ./inp_files/24736.got.cif
#   From: 2010.05.17/outbox.cif.g08.bks.cpg/sg43_13_cif.got.tgz:24736.got - 2010.06.03 19:21:55.
