data_PCOD9370430
_publ_section_title
;
Structure prediction by ZEFSAII (Michael W. Deem and Ramdas Pophale) SiO2 
 PCOD9370430
Probable space group: F D D 2
;
_chemical_formula_sum "Si O2"
_cell_formula_units_Z 80
_cell_length_a 12.041264
_cell_length_b 11.793445
_cell_length_c 26.927067
_cell_angle_alpha 90.000000
_cell_angle_beta 90.000000
_cell_angle_gamma 90.000000
_cell_volume 3823.858519
_symmetry_space_group_name_H-M "F D D 2"
_symmetry_group_IT_number 43
_symmetry_cell_setting 'orthorhombic'
loop_
_space_group_symop_operation_xyz
x,y,z
-x,-y,z
1/4-x,1/4+y,1/4+z
1/4+x,1/4-y,1/4+z
x,1/2+y,1/2+z
-x,1/2-y,1/2+z
1/4-x,3/4+y,3/4+z
1/4+x,3/4-y,3/4+z
1/2+x,y,1/2+z
1/2-x,-y,1/2+z
3/4-x,1/4+y,3/4+z
3/4+x,1/4-y,3/4+z
1/2+x,1/2+y,z
1/2-x,1/2-y,z
3/4-x,3/4+y,1/4+z
3/4+x,3/4-y,1/4+z
loop_
_atom_site_type_symbol
_atom_site_label
_atom_site_fract_x
_atom_site_fract_y
_atom_site_fract_z
Si Si1 0.620546 0.461797 0.550020
Si Si2 0.993761 0.366561 0.595935
Si Si3 0.833933 0.399550 0.503161
Si Si4 0.632171 0.313798 0.648149
Si Si5 0.797799 0.139482 0.032946
O O1 0.500000 0.500000 0.531600
O O2 0.702176 0.389004 0.513970
O O3 0.613922 0.394581 0.601114
O O4 0.694580 0.574040 0.557454
O O5 0.903637 0.357266 0.550571
O O6 0.957294 0.286524 0.640510
O O7 0.000000 0.500000 0.608732
O O8 0.110779 0.328661 0.573351
O O9 0.869629 0.365158 0.448650
O O10 0.853528 0.537478 0.502106
O O11 0.750000 0.250000 0.645888
O O12 0.750000 0.250000 0.006477
#
# Coordination Sequence:
#
# PCOD9370430 Si02
#       5
#    16  16  16  16  16
#     4  10  22  41  59  91 129 165 205 265 324 379
#     4  10  19  38  59  89 127 154 211 265 309 382
#     4   9  22  38  60  94 119 159 214 256 313 381
#     4  12  20  38  68  91 123 169 213 264 328 383
#     4   9  18  37  61  83 123 164 196 262 319 366
#
# _framework density 20.921275000000001
#
# number of rings (size 3 to 8) (size 9 to 14) (size 15 to 20)
#    1.200    0.800    2.000    3.000    0.000    0.800 
#    3.600    5.000    0.000    0.000    0.000    0.000 
#    0.000    0.000    0.000    0.000    0.000    0.000 
#
# Total GULP energy -111411.505686 kJ/mol
# GULP energy per Si atom -5570.575284 kJ/mol
# Density = 2.087366 g / cm^3
# Si number density = 20.921275 Si / 1000 Ang^3
#
#
#
# Elastic Constant Matrix: (Units=GPa)
#
#
# Indices 1 2 3 4 5 6 
#
# 1 121.7743 -6.1003 -9.3110 0.0000 0.0000 0.0000
# 2 -6.1003 47.2695 3.9833 0.0000 0.0000 0.0000
# 3 -9.3110 3.9833 40.0232 0.0000 0.0000 0.0000
# 4 0.0000 0.0000 0.0000 19.8596 0.0000 0.0000
# 5 0.0000 0.0000 0.0000 0.0000 22.0372 0.0000
# 6 0.0000 0.0000 0.0000 0.0000 0.0000 17.5531
#
#
#
# Elastic Compliance Matrix: (Units=1/GPa)
#
#
# Indices 1 2 3 4 5 6 
#
# 1 0.008401 0.000927 0.001862 0.000000 0.000000 0.000000
# 2 0.000927 0.021437 -0.001918 0.000000 0.000000 0.000000
# 3 0.001862 -0.001918 0.025610 0.000000 0.000000 0.000000
# 4 0.000000 0.000000 0.000000 0.050353 0.000000 0.000000
# 5 0.000000 0.000000 0.000000 0.000000 0.045378 0.000000
# 6 0.000000 0.000000 0.000000 0.000000 0.000000 0.056970
#
#
# Mechanical properties :
#
#
# Convention : Reuss Voigt Hill
#
# Bulk Modulus (GPa) = 17.48557 20.69009 19.08783
# Shear Modulus (GPa) = 22.17608 26.58966 24.38287
#
# Velocity S-wave (km/s) = 3.25926 3.56889 3.41758
# Velocity P-wave (km/s) = 4.74759 5.18590 4.97158
#
# Compressibility (1/GPa) = 0.05719001
#
# Stress axis : x y z
#
# Youngs Moduli (GPa) = 119.03708 46.64928 39.04791
#
# Poissons Ratio (x) = -0.04325 -0.07271
# Poissons Ratio (y) = -0.11038 0.07488
# Poissons Ratio (z) = -0.22166 0.08946
#
# Static dielectric constant tensor:
#      x y z
#    x 1.776980 0.000000 0.000000 
#    y 0.000000 1.842860 0.000000 
#    z 0.000000 0.000000 1.760600 
# 
# From -- ./inp_files/24929.got.cif
#   From: 2010.05.17/outbox.cif.g08.bks.cpg/sg43_13_cif.got.tgz:24929.got - 2010.06.03 19:21:55.
