data_PCOD9370144
_publ_section_title
;
Structure prediction by ZEFSAII (Michael W. Deem and Ramdas Pophale) SiO2 
 PCOD9370144
Probable space group: F D D 2
;
_chemical_formula_sum "Si O2"
_cell_formula_units_Z 96
_cell_length_a 28.444178
_cell_length_b 19.731467
_cell_length_c 7.004987
_cell_angle_alpha 90.000000
_cell_angle_beta 90.000000
_cell_angle_gamma 90.000000
_cell_volume 3931.516447
_symmetry_space_group_name_H-M "F D D 2"
_symmetry_group_IT_number 43
_symmetry_cell_setting 'orthorhombic'
loop_
_space_group_symop_operation_xyz
x,y,z
-x,-y,z
1/4-x,1/4+y,1/4+z
1/4+x,1/4-y,1/4+z
x,1/2+y,1/2+z
-x,1/2-y,1/2+z
1/4-x,3/4+y,3/4+z
1/4+x,3/4-y,3/4+z
1/2+x,y,1/2+z
1/2-x,-y,1/2+z
3/4-x,1/4+y,3/4+z
3/4+x,1/4-y,3/4+z
1/2+x,1/2+y,z
1/2-x,1/2-y,z
3/4-x,3/4+y,1/4+z
3/4+x,3/4-y,1/4+z
loop_
_atom_site_type_symbol
_atom_site_label
_atom_site_fract_x
_atom_site_fract_y
_atom_site_fract_z
Si Si1 0.793107 0.200428 0.372090
Si Si2 0.001939 0.815212 0.544803
Si Si3 0.963615 0.175659 0.982250
Si Si4 0.378846 0.372442 0.100135
Si Si5 0.605404 0.783261 0.992367
Si Si6 0.220572 0.814362 0.833160
O O1 0.750000 0.250000 0.321118
O O2 0.777813 0.132516 0.265645
O O3 0.848716 0.217431 0.353730
O O4 0.787738 0.194536 0.604039
O O5 0.965654 0.753627 0.533290
O O6 0.019659 0.823316 0.762273
O O7 0.051003 0.797964 0.434138
O O8 0.915761 0.133690 0.983600
O O9 0.000772 0.133413 0.101925
O O10 0.393228 0.293591 0.080093
O O11 0.365462 0.405724 0.893917
O O12 0.420023 0.421895 0.168352
O O13 0.250000 0.750000 0.897237
#
# Coordination Sequence:
#
# PCOD9370144 Si02
#       6
#    16  16  16  16  16  16
#     4   9  17  31  53  83 107 141 194 237 275 333
#     4  10  20  34  57  80 114 143 186 234 290 341
#     4  10  19  33  54  83 109 146 181 236 285 341
#     4  10  18  30  56  84 111 143 196 242 289 334
#     4  10  18  32  56  83 111 146 188 247 286 334
#     4   9  16  30  53  81 109 141 188 240 278 330
#
# _framework density 24.418060000000001
#
# number of rings (size 3 to 8) (size 9 to 14) (size 15 to 20)
#    0.000    2.333    1.667    5.000    0.000    0.000 
#    0.000    0.000   11.000    1.000    0.000    0.000 
#    0.000    0.000    0.000    0.000    0.000    0.000 
#
# Total GULP energy -133942.769620 kJ/mol
# GULP energy per Si atom -5580.948734 kJ/mol
# Density = 2.436248 g / cm^3
# Si number density = 24.418060 Si / 1000 Ang^3
#
#
#
# Elastic Constant Matrix: (Units=GPa)
#
#
# Indices 1 2 3 4 5 6 
#
# 1 102.9130 7.0963 17.4257 0.0000 0.0003 0.0002
# 2 7.0963 105.1572 -5.8127 0.0029 0.0004 0.0001
# 3 17.4257 -5.8127 71.3820 0.0059 0.0005 -0.0001
# 4 0.0000 0.0029 0.0059 19.6864 0.0003 -0.0001
# 5 0.0003 0.0004 0.0005 0.0003 11.1372 0.0000
# 6 0.0002 0.0001 -0.0001 -0.0001 0.0000 43.3965
#
#
#
# Elastic Compliance Matrix: (Units=1/GPa)
#
#
# Indices 1 2 3 4 5 6 
#
# 1 0.010208 -0.000830 -0.002559 0.000001 0.000000 0.000000
# 2 -0.000830 0.009620 0.000986 -0.000002 0.000000 0.000000
# 3 -0.002559 0.000986 0.014714 -0.000005 -0.000001 0.000000
# 4 0.000001 -0.000002 -0.000005 0.050796 -0.000001 0.000000
# 5 0.000000 0.000000 -0.000001 -0.000001 0.089789 0.000000
# 6 0.000000 0.000000 0.000000 0.000000 0.000000 0.023043
#
#
# Mechanical properties :
#
#
# Convention : Reuss Voigt Hill
#
# Bulk Modulus (GPa) = 33.63099 35.20789 34.41944
# Shear Modulus (GPa) = 23.48631 32.22688 27.85659
#
# Velocity S-wave (km/s) = 3.10472 3.63684 3.38127
# Velocity P-wave (km/s) = 5.16288 5.66441 5.41945
#
# Compressibility (1/GPa) = 0.02973448
#
# Stress axis : x y z
#
# Youngs Moduli (GPa) = 97.96637 103.94893 67.96136
#
# Poissons Ratio (x) = 0.08631 0.17395
# Poissons Ratio (y) = 0.08134 -0.06701
# Poissons Ratio (z) = 0.25074 -0.10250
#
# Static dielectric constant tensor:
#      x y z
#    x 1.957610 0.000000 0.000000 
#    y 0.000000 1.909070 0.000000 
#    z 0.000000 0.000000 2.054990 
# 
# From -- ./inp_files/4211.got.cif
#   From: 2010.05.17/outbox.cif.g08.bks.cpg/sg43_3_cif.got.tgz:4211.got - 2010.06.03 19:21:55.
