data_PCOD9370006
_publ_section_title
;
Structure prediction by ZEFSAII (Michael W. Deem and Ramdas Pophale) SiO2 
 PCOD9370006
Probable space group: F M M 2
;
_chemical_formula_sum "Si O2"
_cell_formula_units_Z 28
_cell_length_a 27.000000
_cell_length_b 15.000000
_cell_length_c 15.000000
_cell_angle_alpha 90.000000
_cell_angle_beta 90.000000
_cell_angle_gamma 90.000000
_cell_volume 6075.000000
_symmetry_space_group_name_H-M "F M M 2"
_symmetry_group_IT_number 42
_symmetry_cell_setting 'orthorhombic'
loop_
_space_group_symop_operation_xyz
x,y,z
-x,-y,z
-x,y,z
x,-y,z
x,1/2+y,1/2+z
-x,1/2-y,1/2+z
-x,1/2+y,1/2+z
x,1/2-y,1/2+z
1/2+x,y,1/2+z
1/2-x,-y,1/2+z
1/2-x,y,1/2+z
1/2+x,-y,1/2+z
1/2+x,1/2+y,z
1/2-x,1/2-y,z
1/2-x,1/2+y,z
1/2+x,1/2-y,z
loop_
_atom_site_type_symbol
_atom_site_label
_atom_site_fract_x
_atom_site_fract_y
_atom_site_fract_z
Si Si1 0.133076 0.754366 0.410690
Si Si2 0.272378 0.105833 0.152032
Si Si3 0.294774 0.899758 0.820161
Si Si4 0.116461 0.322487 0.111980
Si Si5 0.724272 0.153115 0.466729
Si Si6 0.940510 0.000000 0.332508
Si Si7 0.939567 0.797524 0.263120
Si Si8 0.560676 0.500000 0.546655
O O1 0.165384 0.828234 0.355554
O O2 0.121252 0.785619 0.511027
O O3 0.168985 0.669500 0.429261
O O4 0.083820 0.747947 0.350362
O O5 0.237946 0.132027 0.235962
O O6 0.326316 0.154408 0.142746
O O7 0.282832 0.000000 0.159548
O O8 0.237035 0.121348 0.066131
O O9 0.255333 0.906009 0.899549
O O10 0.315327 0.000000 0.802884
O O11 0.088940 0.251980 0.179470
O O12 0.084329 0.413234 0.095976
O O13 0.750000 0.250000 0.462535
O O14 0.928917 0.095103 0.281894
O O15 0.924585 0.000000 0.439006
O O16 0.000000 0.000000 0.338039
O O17 0.000000 0.788497 0.255820
O O18 0.500000 0.500000 0.551071
#
# Coordination Sequence:
#
# PCOD9370006 Si02
#       8
#    16  16  16  16  16   8  16   8
#     4  11  24  39  64  89 127 175 220 275 334 403
#     4  11  22  38  61  93 130 174 216 269 332 409
#     4  10  22  36  58  86 124 165 211 264 325 393
#     4  12  23  39  70 100 137 170 226 286 346 404
#     4  10  20  35  55  84 124 163 203 254 320 390
#     4   9  20  42  68  94 130 174 228 291 344 395
#     4  11  25  43  67  98 134 176 229 290 348 406
#     4  11  22  40  70 102 132 176 234 291 339 395
#
# _framework density 4.6090530000000003
#
# number of rings (size 3 to 8) (size 9 to 14) (size 15 to 20)
#    0.000    1.286    5.000    1.714    4.000    2.286 
#    0.000    0.000    1.571    0.000    0.000    1.000 
#    0.000    0.000    0.000    0.000    0.000    0.000 
#
# Total GULP energy -156091.807359 kJ/mol
# GULP energy per Si atom -5574.707406 kJ/mol
# Density = 0.459856 g / cm^3
# Si number density = 4.609053 Si / 1000 Ang^3
#
#
#
# Elastic Constant Matrix: (Units=GPa)
#
#
# Indices 1 2 3 4 5 6 
#
# 1 110.8228 31.7335 49.9230 0.0000 0.0000 0.0000
# 2 31.7335 77.0708 34.5781 0.0000 0.0000 0.0000
# 3 49.9230 34.5781 150.5581 0.0000 0.0000 0.0000
# 4 0.0000 0.0000 0.0000 39.4102 0.0000 0.0000
# 5 0.0000 0.0000 0.0000 0.0000 39.1846 0.0000
# 6 0.0000 0.0000 0.0000 0.0000 0.0000 32.9997
#
#
#
# Elastic Compliance Matrix: (Units=1/GPa)
#
#
# Indices 1 2 3 4 5 6 
#
# 1 0.011322 -0.003319 -0.002992 0.000000 0.000000 0.000000
# 2 -0.003319 0.015439 -0.002445 0.000000 0.000000 0.000000
# 3 -0.002992 -0.002445 0.008196 0.000000 0.000000 0.000000
# 4 0.000000 0.000000 0.000000 0.025374 0.000000 0.000000
# 5 0.000000 0.000000 0.000000 0.000000 0.025520 0.000000
# 6 0.000000 0.000000 0.000000 0.000000 0.000000 0.030303
#
#
# Mechanical properties :
#
#
# Convention : Reuss Voigt Hill
#
# Bulk Modulus (GPa) = 57.32787 63.43566 60.38176
# Shear Modulus (GPa) = 35.84727 37.13337 36.49032
#
# Velocity S-wave (km/s) = 4.41431 4.49280 4.45373
# Velocity P-wave (km/s) = 7.55938 7.83560 7.69873
#
# Compressibility (1/GPa) = 0.01744352
#
# Stress axis : x y z
#
# Youngs Moduli (GPa) = 88.32673 64.77174 122.01762
#
# Poissons Ratio (x) = 0.21500 0.36505
# Poissons Ratio (y) = 0.29319 0.29835
# Poissons Ratio (z) = 0.26425 0.15838
#
# Static dielectric constant tensor:
#      x y z
#    x 1.672260 0.000000 0.000000 
#    y 0.000000 1.675470 0.000000 
#    z 0.000000 0.000000 1.655250 
# 
# From -- ./inp_files/17096.got.cif
#   From: 2010.05.17/outbox.ucp.g08.bks.cvg/sg42_9_cif.got.tgz:17096.got - 2010.06.11 16:29:10.
