data_PCOD9370626
_publ_section_title
;
Structure prediction by ZEFSAII (Michael W. Deem and Ramdas Pophale) SiO2 
 PCOD9370626
Probable space group: F D D 2
;
_chemical_formula_sum "Si O2"
_cell_formula_units_Z 120
_cell_length_a 23.827237
_cell_length_b 16.816919
_cell_length_c 13.814569
_cell_angle_alpha 90.000000
_cell_angle_beta 90.000000
_cell_angle_gamma 90.000000
_cell_volume 5535.507671
_symmetry_space_group_name_H-M "F D D 2"
_symmetry_group_IT_number 43
_symmetry_cell_setting 'orthorhombic'
loop_
_space_group_symop_operation_xyz
x,y,z
-x,-y,z
1/4-x,1/4+y,1/4+z
1/4+x,1/4-y,1/4+z
x,1/2+y,1/2+z
-x,1/2-y,1/2+z
1/4-x,3/4+y,3/4+z
1/4+x,3/4-y,3/4+z
1/2+x,y,1/2+z
1/2-x,-y,1/2+z
3/4-x,1/4+y,3/4+z
3/4+x,1/4-y,3/4+z
1/2+x,1/2+y,z
1/2-x,1/2-y,z
3/4-x,3/4+y,1/4+z
3/4+x,3/4-y,1/4+z
loop_
_atom_site_type_symbol
_atom_site_label
_atom_site_fract_x
_atom_site_fract_y
_atom_site_fract_z
Si Si1 0.750000 0.750000 0.046330
Si Si2 0.323680 0.335598 0.567818
Si Si3 0.165480 0.144403 0.352351
Si Si4 0.607015 0.087614 0.227522
Si Si5 0.547199 0.847502 0.401058
Si Si6 0.575457 0.073924 0.587978
Si Si7 0.072450 0.186528 0.908984
Si Si8 0.451887 0.399099 0.295635
O O1 0.704863 0.798991 0.983296
O O2 0.716910 0.686505 0.112400
O O3 0.329875 0.377925 0.464080
O O4 0.373888 0.358118 0.638033
O O5 0.319045 0.240843 0.553873
O O6 0.260656 0.358774 0.599737
O O7 0.191548 0.092634 0.266479
O O8 0.190149 0.231954 0.337461
O O9 0.099020 0.151491 0.334224
O O10 0.608206 0.144395 0.323024
O O11 0.648228 0.011484 0.210783
O O12 0.607538 0.828512 0.355814
O O13 0.491517 0.797775 0.373552
O O14 0.563979 0.118859 0.489599
O O15 0.544767 0.113925 0.679945
#
# Coordination Sequence:
#
# PCOD9370626 Si02
#       8
#     8  16  16  16  16  16  16  16
#     4  10  20  44  64  94 136 172 218 280 342 404
#     4  10  22  41  58  88 127 174 217 259 331 400
#     4  10  20  37  62  91 119 161 211 270 329 375
#     4  11  25  43  65  94 134 182 221 269 333 416
#     4  10  20  37  64  92 124 160 214 276 323 385
#     4  10  20  37  64  94 121 159 215 272 331 378
#     4  11  24  42  64  97 130 167 224 267 336 397
#     4   9  21  39  63  89 124 165 215 279 326 387
#
# _framework density 21.678228000000001
#
# number of rings (size 3 to 8) (size 9 to 14) (size 15 to 20)
#    0.000    1.867    1.333    2.400    5.600    2.133 
#    2.400    0.000    0.000    0.000    0.000    0.000 
#    0.000    0.000    0.000    0.000    0.000    0.000 
#
# Total GULP energy -167355.224146 kJ/mol
# GULP energy per Si atom -5578.507472 kJ/mol
# Density = 2.162889 g / cm^3
# Si number density = 21.678228 Si / 1000 Ang^3
#
#
#
# Elastic Constant Matrix: (Units=GPa)
#
#
# Indices 1 2 3 4 5 6 
#
# 1 97.6091 3.8022 43.0182 0.0000 0.0000 0.0000
# 2 3.8022 45.4311 13.8954 0.0000 0.0000 0.0000
# 3 43.0182 13.8954 90.6770 0.0000 0.0000 0.0000
# 4 0.0000 0.0000 0.0000 23.2030 0.0000 0.0000
# 5 0.0000 0.0000 0.0000 0.0000 27.7116 0.0000
# 6 0.0000 0.0000 0.0000 0.0000 0.0000 30.4854
#
#
#
# Elastic Compliance Matrix: (Units=1/GPa)
#
#
# Indices 1 2 3 4 5 6 
#
# 1 0.012983 0.000837 -0.006288 0.000000 0.000000 0.000000
# 2 0.000837 0.023148 -0.003944 0.000000 0.000000 0.000000
# 3 -0.006288 -0.003944 0.014616 0.000000 0.000000 0.000000
# 4 0.000000 0.000000 0.000000 0.043098 0.000000 0.000000
# 5 0.000000 0.000000 0.000000 0.000000 0.036086 0.000000
# 6 0.000000 0.000000 0.000000 0.000000 0.000000 0.032803
#
#
# Mechanical properties :
#
#
# Convention : Reuss Voigt Hill
#
# Bulk Modulus (GPa) = 31.29281 39.46100 35.37690
# Shear Modulus (GPa) = 26.01788 27.81343 26.91566
#
# Velocity S-wave (km/s) = 3.46813 3.58580 3.52746
# Velocity P-wave (km/s) = 5.52301 5.94866 5.73978
#
# Compressibility (1/GPa) = 0.03195622
#
# Stress axis : x y z
#
# Youngs Moduli (GPa) = 77.02098 43.20094 68.42049
#
# Poissons Ratio (x) = -0.03614 0.43021
# Poissons Ratio (y) = -0.06443 0.26985
# Poissons Ratio (z) = 0.48429 0.17039
#
# Static dielectric constant tensor:
#      x y z
#    x 1.821930 0.000000 0.000000 
#    y 0.000000 1.836480 0.000000 
#    z 0.000000 0.000000 1.787630 
# 
# From -- ./inp_files/7205.got.cif
#   From: 2010.05.17/outbox.cif.g08.bks.cpg/sg43_4_cif.got.tgz:7205.got - 2010.06.03 19:21:55.
