data_PCOD9371736
_publ_section_title
;
Structure prediction by ZEFSAII (Michael W. Deem and Ramdas Pophale) SiO2 
 PCOD9371736
Probable space group: F D D 2
;
_chemical_formula_sum "Si O2"
_cell_formula_units_Z 88
_cell_length_a 13.476065
_cell_length_b 23.778436
_cell_length_c 9.653346
_cell_angle_alpha 90.000000
_cell_angle_beta 90.000000
_cell_angle_gamma 90.000000
_cell_volume 3093.315771
_symmetry_space_group_name_H-M "F D D 2"
_symmetry_group_IT_number 43
_symmetry_cell_setting 'orthorhombic'
loop_
_space_group_symop_operation_xyz
x,y,z
-x,-y,z
1/4-x,1/4+y,1/4+z
1/4+x,1/4-y,1/4+z
x,1/2+y,1/2+z
-x,1/2-y,1/2+z
1/4-x,3/4+y,3/4+z
1/4+x,3/4-y,3/4+z
1/2+x,y,1/2+z
1/2-x,-y,1/2+z
3/4-x,1/4+y,3/4+z
3/4+x,1/4-y,3/4+z
1/2+x,1/2+y,z
1/2-x,1/2-y,z
3/4-x,3/4+y,1/4+z
3/4+x,3/4-y,1/4+z
loop_
_atom_site_type_symbol
_atom_site_label
_atom_site_fract_x
_atom_site_fract_y
_atom_site_fract_z
Si Si1 0.984808 0.924594 0.650640
Si Si2 0.421096 0.764031 0.485613
Si Si3 0.186418 0.447787 0.971149
Si Si4 0.483510 0.415182 0.343723
Si Si5 0.250000 0.750000 0.872690
Si Si6 0.697361 0.957134 0.491492
O O1 0.985734 0.863922 0.718348
O O2 0.936942 0.927298 0.495164
O O3 0.097829 0.945743 0.612630
O O4 0.916251 0.965872 0.739043
O O5 0.487021 0.754861 0.342622
O O6 0.429990 0.819447 0.584435
O O7 0.258649 0.487755 0.868883
O O8 0.095002 0.437993 0.863223
O O9 0.446420 0.453102 0.219447
O O10 0.480303 0.349387 0.322773
O O11 0.165229 0.721979 0.782703
#
# Coordination Sequence:
#
# PCOD9371736 Si02
#       6
#    16  16  16  16   8  16
#     4  10  22  45  72 104 148 207 265 321 400 491
#     4  10  24  43  71 105 147 201 264 326 395 483
#     4  11  25  44  77 106 153 210 270 328 406 497
#     4  11  26  49  77 113 164 213 271 343 418 496
#     4  12  28  50  78 120 166 214 270 352 418 490
#     4  12  29  47  77 122 164 207 279 346 416 485
#
# _framework density 28.448437999999999
#
# number of rings (size 3 to 8) (size 9 to 14) (size 15 to 20)
#    0.000    1.091    0.000    5.455   12.727    2.909 
#    0.000    0.000    0.000    0.000    0.000    0.000 
#    0.000    0.000    0.000    0.000    0.000    0.000 
#
# Total GULP energy -122825.523088 kJ/mol
# GULP energy per Si atom -5582.978322 kJ/mol
# Density = 2.838369 g / cm^3
# Si number density = 28.448438 Si / 1000 Ang^3
#
#
#
# Elastic Constant Matrix: (Units=GPa)
#
#
# Indices 1 2 3 4 5 6 
#
# 1 142.1165 43.3124 43.2638 0.0000 0.0000 0.0000
# 2 43.3124 180.3796 43.0897 0.0000 0.0000 0.0000
# 3 43.2638 43.0897 211.5841 0.0000 0.0000 0.0000
# 4 0.0000 0.0000 0.0000 51.4919 0.0000 0.0000
# 5 0.0000 0.0000 0.0000 0.0000 54.2321 0.0000
# 6 0.0000 0.0000 0.0000 0.0000 0.0000 53.2689
#
#
#
# Elastic Compliance Matrix: (Units=1/GPa)
#
#
# Indices 1 2 3 4 5 6 
#
# 1 0.007916 -0.001591 -0.001294 0.000000 0.000000 0.000000
# 2 -0.001591 0.006147 -0.000927 0.000000 0.000000 0.000000
# 3 -0.001294 -0.000927 0.005180 0.000000 0.000000 0.000000
# 4 0.000000 0.000000 0.000000 0.019421 0.000000 0.000000
# 5 0.000000 0.000000 0.000000 0.000000 0.018439 0.000000
# 6 0.000000 0.000000 0.000000 0.000000 0.000000 0.018773
#
#
# Mechanical properties :
#
#
# Convention : Reuss Voigt Hill
#
# Bulk Modulus (GPa) = 86.07542 88.15690 87.11616
# Shear Modulus (GPa) = 57.22634 58.75953 57.99294
#
# Velocity S-wave (km/s) = 4.48993 4.54968 4.51990
# Velocity P-wave (km/s) = 7.56318 7.65866 7.61107
#
# Compressibility (1/GPa) = 0.01161772
#
# Stress axis : x y z
#
# Youngs Moduli (GPa) = 126.33344 162.67232 193.06442
#
# Poissons Ratio (x) = 0.25889 0.24991
# Poissons Ratio (y) = 0.20105 0.17888
# Poissons Ratio (z) = 0.16353 0.15072
#
# Static dielectric constant tensor:
#      x y z
#    x 2.220820 0.000000 0.000000 
#    y 0.000000 2.105630 0.000000 
#    z 0.000000 0.000000 2.258190 
# 
# From -- ./inp_files/6613.got.cif
#   From: 2010.05.17/outbox.cif.g08.bks.cpg/sg43_4_cif.got.tgz:6613.got - 2010.06.03 19:21:55.
