data_PCOD9371153
_publ_section_title
;
Structure prediction by ZEFSAII (Michael W. Deem and Ramdas Pophale) SiO2 
 PCOD9371153
Probable space group: F D D 2
;
_chemical_formula_sum "Si O2"
_cell_formula_units_Z 112
_cell_length_a 34.388837
_cell_length_b 12.688953
_cell_length_c 10.349704
_cell_angle_alpha 90.000000
_cell_angle_beta 90.000000
_cell_angle_gamma 90.000000
_cell_volume 4516.179620
_symmetry_space_group_name_H-M "F D D 2"
_symmetry_group_IT_number 43
_symmetry_cell_setting 'orthorhombic'
loop_
_space_group_symop_operation_xyz
x,y,z
-x,-y,z
1/4-x,1/4+y,1/4+z
1/4+x,1/4-y,1/4+z
x,1/2+y,1/2+z
-x,1/2-y,1/2+z
1/4-x,3/4+y,3/4+z
1/4+x,3/4-y,3/4+z
1/2+x,y,1/2+z
1/2-x,-y,1/2+z
3/4-x,1/4+y,3/4+z
3/4+x,1/4-y,3/4+z
1/2+x,1/2+y,z
1/2-x,1/2-y,z
3/4-x,3/4+y,1/4+z
3/4+x,3/4-y,1/4+z
loop_
_atom_site_type_symbol
_atom_site_label
_atom_site_fract_x
_atom_site_fract_y
_atom_site_fract_z
Si Si1 0.612052 0.431350 0.087150
Si Si2 0.178730 0.576665 0.193524
Si Si3 0.715813 0.681360 0.452488
Si Si4 0.852706 0.208951 0.314739
Si Si5 0.255310 0.561445 0.715681
Si Si6 0.539767 0.039890 0.244727
Si Si7 0.822797 0.428222 0.601406
O O1 0.573362 0.486725 0.146852
O O2 0.632493 0.366315 0.201531
O O3 0.645092 0.505145 0.025764
O O4 0.595456 0.350322 0.983145
O O5 0.165499 0.686099 0.255121
O O6 0.139390 0.516126 0.156661
O O7 0.212121 0.516423 0.270417
O O8 0.200034 0.600700 0.057728
O O9 0.750000 0.750000 0.513875
O O10 0.736433 0.626544 0.331367
O O11 0.819213 0.153451 0.398930
O O12 0.277161 0.639729 0.616079
O O13 0.217999 0.515909 0.637575
O O14 0.500000 0.000000 0.179584
O O15 0.561228 0.933938 0.291746
#
# Coordination Sequence:
#
# PCOD9371153 Si02
#       7
#    16  16  16  16  16  16  16
#     4  10  21  40  65  92 126 166 209 264 326 385
#     4  11  25  42  66  97 132 177 220 268 330 396
#     4  10  22  42  65  92 129 170 218 271 325 390
#     4  11  24  43  65  96 136 174 218 275 333 394
#     4  10  22  42  65  93 131 174 217 269 326 386
#     4  10  23  43  66  94 131 175 222 275 330 390
#     4  10  22  40  64  92 124 166 215 264 321 385
#
# _framework density 24.799721000000002
#
# number of rings (size 3 to 8) (size 9 to 14) (size 15 to 20)
#    0.000    1.714    0.000    4.714    0.000   12.000 
#    0.000    0.000    0.000    1.714    0.000    0.000 
#    0.000    0.000    0.000    0.000    0.000    0.000 
#
# Total GULP energy -156760.378095 kJ/mol
# GULP energy per Si atom -5598.584932 kJ/mol
# Density = 2.474328 g / cm^3
# Si number density = 24.799721 Si / 1000 Ang^3
#
#
#
# Elastic Constant Matrix: (Units=GPa)
#
#
# Indices 1 2 3 4 5 6 
#
# 1 198.3585 69.1992 44.1433 0.0000 0.0000 0.0000
# 2 69.1992 71.3366 4.7606 0.0000 0.0000 0.0000
# 3 44.1433 4.7606 75.1912 0.0000 0.0000 0.0000
# 4 0.0000 0.0000 0.0000 14.8184 0.0000 0.0000
# 5 0.0000 0.0000 0.0000 0.0000 55.1949 0.0000
# 6 0.0000 0.0000 0.0000 0.0000 0.0000 54.2425
#
#
#
# Elastic Compliance Matrix: (Units=1/GPa)
#
#
# Indices 1 2 3 4 5 6 
#
# 1 0.009061 -0.008470 -0.004783 0.000000 0.000000 0.000000
# 2 -0.008470 0.021995 0.003580 0.000000 0.000000 0.000000
# 3 -0.004783 0.003580 0.015881 0.000000 0.000000 0.000000
# 4 0.000000 0.000000 0.000000 0.067484 0.000000 0.000000
# 5 0.000000 0.000000 0.000000 0.000000 0.018118 0.000000
# 6 0.000000 0.000000 0.000000 0.000000 0.000000 0.018436
#
#
# Mechanical properties :
#
#
# Convention : Reuss Voigt Hill
#
# Bulk Modulus (GPa) = 36.24413 64.56582 50.40497
# Shear Modulus (GPa) = 27.85253 39.97003 33.91128
#
# Velocity S-wave (km/s) = 3.35490 4.01897 3.70186
# Velocity P-wave (km/s) = 5.44551 6.90127 6.21616
#
# Compressibility (1/GPa) = 0.02759068
#
# Stress axis : x y z
#
# Youngs Moduli (GPa) = 110.36738 45.46415 62.96900
#
# Poissons Ratio (x) = 0.38508 0.30119
# Poissons Ratio (y) = 0.93481 -0.22543
# Poissons Ratio (z) = 0.52790 -0.16276
#
# Static dielectric constant tensor:
#      x y z
#    x 2.005370 0.000000 0.000000 
#    y 0.000000 1.957140 0.000000 
#    z 0.000000 0.000000 2.006340 
# 
# From -- ./inp_files/8272.got.cif
#   From: 2010.05.17/outbox.cif.g08.bks.cpg/sg43_5_cif.got.tgz:8272.got - 2010.06.03 19:21:55.
