data_PCOD9371075
_publ_section_title
;
Structure prediction by ZEFSAII (Michael W. Deem and Ramdas Pophale) SiO2 
 PCOD9371075
Probable space group: F D D 2
;
_chemical_formula_sum "Si O2"
_cell_formula_units_Z 56
_cell_length_a 17.810617
_cell_length_b 5.757006
_cell_length_c 20.242270
_cell_angle_alpha 90.000000
_cell_angle_beta 90.000000
_cell_angle_gamma 90.000000
_cell_volume 2075.557934
_symmetry_space_group_name_H-M "F D D 2"
_symmetry_group_IT_number 43
_symmetry_cell_setting 'orthorhombic'
loop_
_space_group_symop_operation_xyz
x,y,z
-x,-y,z
1/4-x,1/4+y,1/4+z
1/4+x,1/4-y,1/4+z
x,1/2+y,1/2+z
-x,1/2-y,1/2+z
1/4-x,3/4+y,3/4+z
1/4+x,3/4-y,3/4+z
1/2+x,y,1/2+z
1/2-x,-y,1/2+z
3/4-x,1/4+y,3/4+z
3/4+x,1/4-y,3/4+z
1/2+x,1/2+y,z
1/2-x,1/2-y,z
3/4-x,3/4+y,1/4+z
3/4+x,3/4-y,1/4+z
loop_
_atom_site_type_symbol
_atom_site_label
_atom_site_fract_x
_atom_site_fract_y
_atom_site_fract_z
Si Si1 0.250000 0.250000 0.807580
Si Si2 0.250000 0.750000 0.533798
Si Si3 0.657664 0.492814 0.205056
Si Si4 0.750000 0.250000 0.034709
Si Si5 0.377226 0.513530 0.667532
O O1 0.278807 0.046154 0.760363
O O2 0.318603 0.303402 0.855293
O O3 0.251930 0.501193 0.568888
O O4 0.321547 0.752830 0.484131
O O5 0.574746 0.500969 0.239053
O O6 0.655943 0.248422 0.164544
O O7 0.665895 0.743527 0.172584
#
# Coordination Sequence:
#
# PCOD9371075 Si02
#       5
#     8   8  16   8  16
#     4  11  24  42  75 104 142 206 241 296 392 439
#     4   7  12  26  50  72 109 160 195 250 326 375
#     4  10  21  38  65  99 136 181 238 293 356 439
#     4   8  14  30  51  80 121 160 204 272 330 388
#     4   9  20  37  58  95 137 173 232 293 342 429
#
# _framework density 26.980696999999999
#
# number of rings (size 3 to 8) (size 9 to 14) (size 15 to 20)
#    0.000    2.857    0.000    1.714    0.000    5.714 
#    0.000    1.429    0.000   13.714    0.000    0.000 
#    0.000    0.000    0.000    0.000    0.000    0.000 
#
# Total GULP energy -78341.860628 kJ/mol
# GULP energy per Si atom -5595.847188 kJ/mol
# Density = 2.691929 g / cm^3
# Si number density = 26.980697 Si / 1000 Ang^3
#
#
#
# Elastic Constant Matrix: (Units=GPa)
#
#
# Indices 1 2 3 4 5 6 
#
# 1 119.8579 91.3322 63.9096 0.0000 0.0000 -0.0002
# 2 91.3322 391.3208 119.8078 0.0024 0.0006 -0.0014
# 3 63.9096 119.8078 98.8776 0.0002 0.0000 -0.0001
# 4 0.0000 0.0024 0.0002 60.6529 0.0003 -0.0005
# 5 0.0000 0.0006 0.0000 0.0003 71.9497 -0.0001
# 6 -0.0002 -0.0014 -0.0001 -0.0005 -0.0001 48.6115
#
#
#
# Elastic Compliance Matrix: (Units=1/GPa)
#
#
# Indices 1 2 3 4 5 6 
#
# 1 0.012859 -0.000726 -0.007432 0.000000 0.000000 0.000000
# 2 -0.000726 0.004103 -0.004503 0.000000 0.000000 0.000000
# 3 -0.007432 -0.004503 0.020373 0.000000 0.000000 0.000000
# 4 0.000000 0.000000 0.000000 0.016487 0.000000 0.000000
# 5 0.000000 0.000000 0.000000 0.000000 0.013899 0.000000
# 6 0.000000 0.000000 0.000000 0.000000 0.000000 0.020571
#
#
# Mechanical properties :
#
#
# Convention : Reuss Voigt Hill
#
# Bulk Modulus (GPa) = 83.23401 128.90616 106.07009
# Shear Modulus (GPa) = 42.50995 58.57661 50.54328
#
# Velocity S-wave (km/s) = 3.97365 4.66451 4.33287
# Velocity P-wave (km/s) = 7.20900 8.76876 8.02685
#
# Compressibility (1/GPa) = 0.01201432
#
# Stress axis : x y z
#
# Youngs Moduli (GPa) = 77.76567 243.69469 49.08377
#
# Poissons Ratio (x) = 0.17689 0.36479
# Poissons Ratio (y) = 0.05645 0.22102
# Poissons Ratio (z) = 0.57796 1.09735
#
# Static dielectric constant tensor:
#      x y z
#    x 2.109920 0.000000 0.000000 
#    y 0.000000 2.038170 0.000000 
#    z 0.000000 0.000000 2.074030 
# 
# From -- ./inp_files/14933.got.cif
#   From: 2010.05.17/outbox.cif.g08.bks.cpg/sg43_8_cif.got.tgz:14933.got - 2010.06.03 19:21:55.
