data_PCOD9371874
_publ_section_title
;
Structure prediction by ZEFSAII (Michael W. Deem and Ramdas Pophale) SiO2 
 PCOD9371874
Probable space group: F D D 2
;
_chemical_formula_sum "Si O2"
_cell_formula_units_Z 112
_cell_length_a 12.270116
_cell_length_b 14.729751
_cell_length_c 29.129468
_cell_angle_alpha 90.000000
_cell_angle_beta 90.000000
_cell_angle_gamma 90.000000
_cell_volume 5264.736346
_symmetry_space_group_name_H-M "F D D 2"
_symmetry_group_IT_number 43
_symmetry_cell_setting 'orthorhombic'
loop_
_space_group_symop_operation_xyz
x,y,z
-x,-y,z
1/4-x,1/4+y,1/4+z
1/4+x,1/4-y,1/4+z
x,1/2+y,1/2+z
-x,1/2-y,1/2+z
1/4-x,3/4+y,3/4+z
1/4+x,3/4-y,3/4+z
1/2+x,y,1/2+z
1/2-x,-y,1/2+z
3/4-x,1/4+y,3/4+z
3/4+x,1/4-y,3/4+z
1/2+x,1/2+y,z
1/2-x,1/2-y,z
3/4-x,3/4+y,1/4+z
3/4+x,3/4-y,1/4+z
loop_
_atom_site_type_symbol
_atom_site_label
_atom_site_fract_x
_atom_site_fract_y
_atom_site_fract_z
Si Si1 0.169351 0.144038 0.136890
Si Si2 0.405028 0.673870 0.625931
Si Si3 0.448815 0.099118 0.033495
Si Si4 0.328134 0.163758 0.942357
Si Si5 0.215885 0.441827 0.628016
Si Si6 0.818284 0.842610 0.541425
Si Si7 0.776562 0.857476 0.441451
O O1 0.292404 0.158697 0.152982
O O2 0.120025 0.224952 0.105765
O O3 0.085796 0.152488 0.178321
O O4 0.165423 0.041282 0.118896
O O5 0.394845 0.603847 0.583622
O O6 0.508897 0.652975 0.658015
O O7 0.551080 0.167541 0.043205
O O8 0.500000 0.000000 0.026607
O O9 0.372527 0.124569 0.990705
O O10 0.250000 0.250000 0.950018
O O11 0.435970 0.194508 0.914762
O O12 0.267903 0.400047 0.582597
O O13 0.120676 0.383156 0.653186
O O14 0.750000 0.750000 0.541878
O O15 0.807390 0.888692 0.491754
O O16 0.750000 0.750000 0.443969
#
# Coordination Sequence:
#
# PCOD9371874 Si02
#       7
#    16  16  16  16  16  16  16
#     4  10  23  43  68  95 142 186 222 281 356 418
#     4  11  24  45  70  98 138 188 228 286 353 420
#     4  12  27  46  69 104 143 183 242 294 348 424
#     4  12  25  43  71 104 138 185 237 291 353 423
#     4  11  21  43  71 100 141 182 227 293 354 409
#     4  11  24  41  71 102 139 185 238 296 348 418
#     4   9  21  41  64  97 137 178 224 284 343 409
#
# _framework density 21.273620000000001
#
# number of rings (size 3 to 8) (size 9 to 14) (size 15 to 20)
#    0.000    1.143    4.286    1.286    6.000    0.571 
#    0.000    1.429    6.286    0.000    0.000    0.000 
#    0.000    0.000    0.000    0.000    0.000    0.000 
#
# Total GULP energy -156039.679830 kJ/mol
# GULP energy per Si atom -5572.845708 kJ/mol
# Density = 2.122520 g / cm^3
# Si number density = 21.273620 Si / 1000 Ang^3
#
#
#
# Elastic Constant Matrix: (Units=GPa)
#
#
# Indices 1 2 3 4 5 6 
#
# 1 126.7473 37.8039 52.2366 0.0000 0.0000 0.0000
# 2 37.8039 82.8926 26.6231 0.0000 0.0000 0.0000
# 3 52.2366 26.6231 109.0025 0.0000 0.0000 0.0000
# 4 0.0000 0.0000 0.0000 12.3094 0.0000 0.0000
# 5 0.0000 0.0000 0.0000 0.0000 40.9485 0.0000
# 6 0.0000 0.0000 0.0000 0.0000 0.0000 35.9545
#
#
#
# Elastic Compliance Matrix: (Units=1/GPa)
#
#
# Indices 1 2 3 4 5 6 
#
# 1 0.010695 -0.003506 -0.004269 0.000000 0.000000 0.000000
# 2 -0.003506 0.014240 -0.001798 0.000000 0.000000 0.000000
# 3 -0.004269 -0.001798 0.011659 0.000000 0.000000 0.000000
# 4 0.000000 0.000000 0.000000 0.081239 0.000000 0.000000
# 5 0.000000 0.000000 0.000000 0.000000 0.024421 0.000000
# 6 0.000000 0.000000 0.000000 0.000000 0.000000 0.027813
#
#
# Mechanical properties :
#
#
# Convention : Reuss Voigt Hill
#
# Bulk Modulus (GPa) = 57.31272 61.32994 59.32133
# Shear Modulus (GPa) = 25.63725 31.30773 28.47249
#
# Velocity S-wave (km/s) = 3.47525 3.84040 3.66238
# Velocity P-wave (km/s) = 6.56524 6.96825 6.76975
#
# Compressibility (1/GPa) = 0.01744813
#
# Stress axis : x y z
#
# Youngs Moduli (GPa) = 93.50279 70.22300 85.77139
#
# Poissons Ratio (x) = 0.24623 0.36614
# Poissons Ratio (y) = 0.32786 0.15419
# Poissons Ratio (z) = 0.39915 0.12624
#
# Static dielectric constant tensor:
#      x y z
#    x 1.692430 0.000000 0.000000 
#    y 0.000000 1.953120 0.000000 
#    z 0.000000 0.000000 1.765410 
# 
# From -- ./inp_files/28622.got.cif
#   From: 2010.05.17/outbox.cif.g08.bks.cpg/sg43_15_cif.got.tgz:28622.got - 2010.06.03 19:21:55.
