data_PCOD9371558
_publ_section_title
;
Structure prediction by ZEFSAII (Michael W. Deem and Ramdas Pophale) SiO2 
 PCOD9371558
Probable space group: F D D 2
;
_chemical_formula_sum "Si O2"
_cell_formula_units_Z 64
_cell_length_a 12.353798
_cell_length_b 9.179632
_cell_length_c 25.523711
_cell_angle_alpha 90.000000
_cell_angle_beta 90.000000
_cell_angle_gamma 90.000000
_cell_volume 2894.473552
_symmetry_space_group_name_H-M "F D D 2"
_symmetry_group_IT_number 43
_symmetry_cell_setting 'orthorhombic'
loop_
_space_group_symop_operation_xyz
x,y,z
-x,-y,z
1/4-x,1/4+y,1/4+z
1/4+x,1/4-y,1/4+z
x,1/2+y,1/2+z
-x,1/2-y,1/2+z
1/4-x,3/4+y,3/4+z
1/4+x,3/4-y,3/4+z
1/2+x,y,1/2+z
1/2-x,-y,1/2+z
3/4-x,1/4+y,3/4+z
3/4+x,1/4-y,3/4+z
1/2+x,1/2+y,z
1/2-x,1/2-y,z
3/4-x,3/4+y,1/4+z
3/4+x,3/4-y,1/4+z
loop_
_atom_site_type_symbol
_atom_site_label
_atom_site_fract_x
_atom_site_fract_y
_atom_site_fract_z
Si Si1 0.476130 0.346320 0.103240
Si Si2 0.802430 0.398253 0.265684
Si Si3 0.206471 0.587274 0.681707
Si Si4 0.647516 0.854588 0.906348
O O1 0.500000 0.500000 0.076435
O O2 0.406561 0.391391 0.153599
O O3 0.577244 0.247982 0.122661
O O4 0.408368 0.244794 0.063740
O O5 0.750000 0.250000 0.284921
O O6 0.712468 0.497465 0.235705
O O7 0.883723 0.360123 0.218424
O O8 0.250000 0.750000 0.689784
O O9 0.289520 0.490437 0.645980
O O10 0.750000 0.750000 0.901737
#
# Coordination Sequence:
#
# PCOD9371558 Si02
#       4
#    16  16  16  16
#     4  12  23  40  71  95 130 180 218 273 346 391
#     4  10  23  41  63  97 133 167 222 276 327 408
#     4  10  22  42  66  92 136 168 221 278 325 402
#     4  10  22  43  66  91 132 176 216 276 333 394
#
# _framework density 22.111101999999999
#
# number of rings (size 3 to 8) (size 9 to 14) (size 15 to 20)
#    1.500    0.000    2.500    3.000    0.000    1.000 
#    0.000    0.000   11.000    0.000    0.000    0.000 
#    0.000    0.000    0.000    0.000    0.000    0.000 
#
# Total GULP energy -89169.557488 kJ/mol
# GULP energy per Si atom -5573.097343 kJ/mol
# Density = 2.206078 g / cm^3
# Si number density = 22.111102 Si / 1000 Ang^3
#
#
#
# Elastic Constant Matrix: (Units=GPa)
#
#
# Indices 1 2 3 4 5 6 
#
# 1 34.5441 41.8421 12.7936 0.0000 0.0000 0.0000
# 2 41.8421 166.8756 26.1328 0.0000 0.0000 0.0000
# 3 12.7936 26.1328 72.2034 0.0000 0.0000 0.0000
# 4 0.0000 0.0000 0.0000 43.2890 0.0000 0.0000
# 5 0.0000 0.0000 0.0000 0.0000 165.4812 0.0000
# 6 0.0000 0.0000 0.0000 0.0000 0.0000 36.4138
#
#
#
# Elastic Compliance Matrix: (Units=1/GPa)
#
#
# Indices 1 2 3 4 5 6 
#
# 1 0.042588 -0.010067 -0.003902 0.000000 0.000000 0.000000
# 2 -0.010067 0.008732 -0.001377 0.000000 0.000000 0.000000
# 3 -0.003902 -0.001377 0.015039 0.000000 0.000000 0.000000
# 4 0.000000 0.000000 0.000000 0.023101 0.000000 0.000000
# 5 0.000000 0.000000 0.000000 0.000000 0.006043 0.000000
# 6 0.000000 0.000000 0.000000 0.000000 0.000000 0.027462
#
#
# Mechanical properties :
#
#
# Convention : Reuss Voigt Hill
#
# Bulk Modulus (GPa) = 28.03714 48.35112 38.19413
# Shear Modulus (GPa) = 30.20285 61.89378 46.04831
#
# Velocity S-wave (km/s) = 3.69990 5.29650 4.56849
# Velocity P-wave (km/s) = 5.56417 7.70187 6.71858
#
# Compressibility (1/GPa) = 0.03566698
#
# Stress axis : x y z
#
# Youngs Moduli (GPa) = 23.48080 114.51685 66.49157
#
# Poissons Ratio (x) = 1.15288 0.25948
# Poissons Ratio (y) = 0.23639 0.09154
# Poissons Ratio (z) = 0.09163 0.15766
#
# Static dielectric constant tensor:
#      x y z
#    x 1.782240 0.000000 0.000000 
#    y 0.000000 1.830030 0.000000 
#    z 0.000000 0.000000 1.841110 
# 
# From -- ./inp_files/21506.got.cif
#   From: 2010.05.17/outbox.cif.g08.bks.cpg/sg43_11_cif.got.tgz:21506.got - 2010.06.03 19:21:55.
