data_PCOD9371034
_publ_section_title
;
Structure prediction by ZEFSAII (Michael W. Deem and Ramdas Pophale) SiO2 
 PCOD9371034
Probable space group: F D D 2
;
_chemical_formula_sum "Si O2"
_cell_formula_units_Z 112
_cell_length_a 14.048901
_cell_length_b 14.482217
_cell_length_c 23.515048
_cell_angle_alpha 90.000000
_cell_angle_beta 90.000000
_cell_angle_gamma 90.000000
_cell_volume 4784.353628
_symmetry_space_group_name_H-M "F D D 2"
_symmetry_group_IT_number 43
_symmetry_cell_setting 'orthorhombic'
loop_
_space_group_symop_operation_xyz
x,y,z
-x,-y,z
1/4-x,1/4+y,1/4+z
1/4+x,1/4-y,1/4+z
x,1/2+y,1/2+z
-x,1/2-y,1/2+z
1/4-x,3/4+y,3/4+z
1/4+x,3/4-y,3/4+z
1/2+x,y,1/2+z
1/2-x,-y,1/2+z
3/4-x,1/4+y,3/4+z
3/4+x,1/4-y,3/4+z
1/2+x,1/2+y,z
1/2-x,1/2-y,z
3/4-x,3/4+y,1/4+z
3/4+x,3/4-y,1/4+z
loop_
_atom_site_type_symbol
_atom_site_label
_atom_site_fract_x
_atom_site_fract_y
_atom_site_fract_z
Si Si1 0.363313 0.741654 0.779190
Si Si2 0.627810 0.357514 0.414332
Si Si3 0.250000 0.250000 0.829803
Si Si4 0.431005 0.222873 0.159248
Si Si5 0.345252 0.689619 0.899022
Si Si6 0.000000 0.000000 0.361275
Si Si7 0.582229 0.313799 0.539186
Si Si8 0.346769 0.952180 0.772290
O O1 0.250000 0.750000 0.777639
O O2 0.391900 0.693731 0.720705
O O3 0.397078 0.699343 0.838495
O O4 0.388621 0.849522 0.779002
O O5 0.660794 0.278327 0.370126
O O6 0.713093 0.432084 0.407613
O O7 0.528590 0.410980 0.400018
O O8 0.632849 0.319073 0.478695
O O9 0.225559 0.160429 0.792939
O O10 0.430440 0.333326 0.158399
O O11 0.373577 0.191999 0.102690
O O12 0.250000 0.750000 0.894886
O O13 0.396689 0.724931 0.955666
O O14 0.087491 0.995669 0.316880
O O15 0.510957 0.225954 0.538541
#
# Coordination Sequence:
#
# PCOD9371034 Si02
#       8
#    16  16   8  16  16   8  16  16
#     4  10  23  42  67  97 130 174 222 286 343 412
#     4  11  26  42  71  96 139 186 226 290 344 427
#     4  10  23  44  62 100 133 182 242 278 352 422
#     4  10  23  45  63  98 136 173 235 280 342 418
#     4  10  21  37  68  93 128 167 219 286 340 398
#     4  12  23  44  68  98 137 176 224 282 350 400
#     4  11  23  44  65  94 140 178 223 290 340 412
#     4  11  23  40  66 100 129 171 226 281 345 413
#
# _framework density 23.409642000000002
#
# number of rings (size 3 to 8) (size 9 to 14) (size 15 to 20)
#    0.000    1.429    3.571    2.143    2.000    8.000 
#    6.429    0.000    0.000    0.000    0.000    0.000 
#    0.000    0.000    0.000    0.000    0.000    0.000 
#
# Total GULP energy -156161.227583 kJ/mol
# GULP energy per Si atom -5577.186699 kJ/mol
# Density = 2.335636 g / cm^3
# Si number density = 23.409642 Si / 1000 Ang^3
#
#
#
# Elastic Constant Matrix: (Units=GPa)
#
#
# Indices 1 2 3 4 5 6 
#
# 1 27.8489 0.2303 35.4924 0.0000 0.0000 0.0000
# 2 0.2303 59.3852 16.3253 0.0000 0.0000 0.0000
# 3 35.4924 16.3253 192.3055 0.0000 0.0000 0.0000
# 4 0.0000 0.0000 0.0000 37.1885 0.0000 0.0000
# 5 0.0000 0.0000 0.0000 0.0000 32.0769 0.0000
# 6 0.0000 0.0000 0.0000 0.0000 0.0000 26.4370
#
#
#
# Elastic Compliance Matrix: (Units=1/GPa)
#
#
# Indices 1 2 3 4 5 6 
#
# 1 0.047248 0.002267 -0.008913 0.000000 0.000000 0.000000
# 2 0.002267 0.017350 -0.001891 0.000000 0.000000 0.000000
# 3 -0.008913 -0.001891 0.007006 0.000000 0.000000 0.000000
# 4 0.000000 0.000000 0.000000 0.026890 0.000000 0.000000
# 5 0.000000 0.000000 0.000000 0.000000 0.031175 0.000000
# 6 0.000000 0.000000 0.000000 0.000000 0.000000 0.037826
#
#
# Mechanical properties :
#
#
# Convention : Reuss Voigt Hill
#
# Bulk Modulus (GPa) = 18.33857 42.62618 30.48237
# Shear Modulus (GPa) = 24.66142 34.30659 29.48400
#
# Velocity S-wave (km/s) = 3.24925 3.83232 3.55277
# Velocity P-wave (km/s) = 4.68269 6.15066 5.46618
#
# Compressibility (1/GPa) = 0.05452988
#
# Stress axis : x y z
#
# Youngs Moduli (GPa) = 21.16484 57.63579 142.74379
#
# Poissons Ratio (x) = -0.13065 1.27223
# Poissons Ratio (y) = -0.04798 0.26997
# Poissons Ratio (z) = 0.18864 0.10901
#
# Static dielectric constant tensor:
#      x y z
#    x 1.884230 0.000000 0.000000 
#    y 0.000000 1.970930 0.000000 
#    z 0.000000 0.000000 1.963550 
# 
# From -- ./inp_files/21756.got.cif
#   From: 2010.05.17/outbox.cif.g08.bks.cpg/sg43_11_cif.got.tgz:21756.got - 2010.06.03 19:21:55.
