data_PCOD9371392
_publ_section_title
;
Structure prediction by ZEFSAII (Michael W. Deem and Ramdas Pophale) SiO2 
 PCOD9371392
Probable space group: F D D 2
;
_chemical_formula_sum "Si O2"
_cell_formula_units_Z 120
_cell_length_a 18.692711
_cell_length_b 11.019274
_cell_length_c 24.383516
_cell_angle_alpha 90.000000
_cell_angle_beta 90.000000
_cell_angle_gamma 90.000000
_cell_volume 5022.519169
_symmetry_space_group_name_H-M "F D D 2"
_symmetry_group_IT_number 43
_symmetry_cell_setting 'orthorhombic'
loop_
_space_group_symop_operation_xyz
x,y,z
-x,-y,z
1/4-x,1/4+y,1/4+z
1/4+x,1/4-y,1/4+z
x,1/2+y,1/2+z
-x,1/2-y,1/2+z
1/4-x,3/4+y,3/4+z
1/4+x,3/4-y,3/4+z
1/2+x,y,1/2+z
1/2-x,-y,1/2+z
3/4-x,1/4+y,3/4+z
3/4+x,1/4-y,3/4+z
1/2+x,1/2+y,z
1/2-x,1/2-y,z
3/4-x,3/4+y,1/4+z
3/4+x,3/4-y,1/4+z
loop_
_atom_site_type_symbol
_atom_site_label
_atom_site_fract_x
_atom_site_fract_y
_atom_site_fract_z
Si Si1 0.380577 0.356444 0.904690
Si Si2 0.010851 0.299495 0.960325
Si Si3 0.515907 0.272123 0.269360
Si Si4 0.574054 0.148300 0.668153
Si Si5 0.333655 0.285058 0.787874
Si Si6 0.913778 0.327342 0.871943
Si Si7 0.024366 0.859801 0.064532
Si Si8 0.750000 0.750000 0.972149
O O1 0.454948 0.296027 0.918936
O O2 0.377694 0.491178 0.928241
O O3 0.363505 0.353793 0.840853
O O4 0.317515 0.281045 0.933921
O O5 0.956438 0.377749 0.924158
O O6 0.073461 0.378981 0.986046
O O7 0.980505 0.224119 0.011524
O O8 0.479372 0.348123 0.219824
O O9 0.599947 0.305055 0.276229
O O10 0.469217 0.293574 0.323734
O O11 0.511284 0.126849 0.255041
O O12 0.527569 0.178668 0.614116
O O13 0.618998 0.031765 0.650734
O O14 0.250000 0.250000 0.798864
O O15 0.852742 0.400455 0.840558
O O16 0.000000 0.000000 0.052219
#
# Coordination Sequence:
#
# PCOD9371392 Si02
#       8
#    16  16  16  16  16  16  16   8
#     4  11  22  40  65 100 128 173 219 283 344 394
#     4  12  25  43  70  99 134 178 234 282 346 409
#     4  11  24  41  68  98 134 174 230 282 343 401
#     4  10  24  41  66  96 138 176 213 285 348 402
#     4  12  26  45  67  97 139 181 232 285 343 413
#     4  11  25  42  68 100 138 177 231 276 344 421
#     4  10  24  43  65  99 139 177 222 280 342 412
#     4  10  22  38  64  94 138 158 216 286 336 394
#
# _framework density 23.892392999999998
#
# number of rings (size 3 to 8) (size 9 to 14) (size 15 to 20)
#    0.000    1.067    4.667    0.800   13.067    0.000 
#    0.000    0.000    0.000    0.000    0.000    0.000 
#    0.000    0.000    0.000    0.000    0.000    0.000 
#
# Total GULP energy -167625.963192 kJ/mol
# GULP energy per Si atom -5587.532106 kJ/mol
# Density = 2.383801 g / cm^3
# Si number density = 23.892393 Si / 1000 Ang^3
#
#
#
# Elastic Constant Matrix: (Units=GPa)
#
#
# Indices 1 2 3 4 5 6 
#
# 1 132.2625 26.5381 70.3861 0.0000 0.0000 0.0000
# 2 26.5381 52.7316 29.0592 0.0000 0.0000 0.0000
# 3 70.3861 29.0592 148.5822 0.0000 0.0000 0.0000
# 4 0.0000 0.0000 0.0000 22.4605 0.0000 0.0000
# 5 0.0000 0.0000 0.0000 0.0000 53.9613 0.0000
# 6 0.0000 0.0000 0.0000 0.0000 0.0000 25.3863
#
#
#
# Elastic Compliance Matrix: (Units=1/GPa)
#
#
# Indices 1 2 3 4 5 6 
#
# 1 0.010476 -0.002844 -0.004407 0.000000 0.000000 0.000000
# 2 -0.002844 0.022027 -0.002961 0.000000 0.000000 0.000000
# 3 -0.004407 -0.002961 0.009397 0.000000 0.000000 0.000000
# 4 0.000000 0.000000 0.000000 0.044523 0.000000 0.000000
# 5 0.000000 0.000000 0.000000 0.000000 0.018532 0.000000
# 6 0.000000 0.000000 0.000000 0.000000 0.000000 0.039391
#
#
# Mechanical properties :
#
#
# Convention : Reuss Voigt Hill
#
# Bulk Modulus (GPa) = 46.56060 65.06037 55.81049
# Shear Modulus (GPa) = 29.08196 34.20113 31.64155
#
# Velocity S-wave (km/s) = 3.49263 3.78758 3.64309
# Velocity P-wave (km/s) = 5.98286 6.81303 6.41139
#
# Compressibility (1/GPa) = 0.02147739
#
# Stress axis : x y z
#
# Youngs Moduli (GPa) = 95.45200 45.39916 106.41874
#
# Poissons Ratio (x) = 0.12912 0.46895
# Poissons Ratio (y) = 0.27147 0.31507
# Poissons Ratio (z) = 0.42063 0.13441
#
# Static dielectric constant tensor:
#      x y z
#    x 1.948480 0.000000 0.000000 
#    y 0.000000 1.946080 0.000000 
#    z 0.000000 0.000000 1.868320 
# 
# From -- ./inp_files/26087.got.cif
#   From: 2010.05.17/outbox.cif.g08.bks.cpg/sg43_14_cif.got.tgz:26087.got - 2010.06.03 19:21:55.
