data_PCOD9371525
_publ_section_title
;
Structure prediction by ZEFSAII (Michael W. Deem and Ramdas Pophale) SiO2 
 PCOD9371525
Probable space group: F D D 2
;
_chemical_formula_sum "Si O2"
_cell_formula_units_Z 120
_cell_length_a 24.862380
_cell_length_b 13.998271
_cell_length_c 13.764810
_cell_angle_alpha 90.000000
_cell_angle_beta 90.000000
_cell_angle_gamma 90.000000
_cell_volume 4790.571407
_symmetry_space_group_name_H-M "F D D 2"
_symmetry_group_IT_number 43
_symmetry_cell_setting 'orthorhombic'
loop_
_space_group_symop_operation_xyz
x,y,z
-x,-y,z
1/4-x,1/4+y,1/4+z
1/4+x,1/4-y,1/4+z
x,1/2+y,1/2+z
-x,1/2-y,1/2+z
1/4-x,3/4+y,3/4+z
1/4+x,3/4-y,3/4+z
1/2+x,y,1/2+z
1/2-x,-y,1/2+z
3/4-x,1/4+y,3/4+z
3/4+x,1/4-y,3/4+z
1/2+x,1/2+y,z
1/2-x,1/2-y,z
3/4-x,3/4+y,1/4+z
3/4+x,3/4-y,1/4+z
loop_
_atom_site_type_symbol
_atom_site_label
_atom_site_fract_x
_atom_site_fract_y
_atom_site_fract_z
Si Si1 0.637758 0.322678 0.955960
Si Si2 0.029431 0.192728 0.796831
Si Si3 0.396437 0.027615 0.985012
Si Si4 0.517073 0.295453 0.012182
Si Si5 0.750000 0.750000 0.268062
Si Si6 0.119187 0.026859 0.989434
Si Si7 0.823773 0.361189 0.024888
Si Si8 0.211592 0.623803 0.378566
O O1 0.580951 0.286715 0.999960
O O2 0.631046 0.333531 0.840541
O O3 0.647065 0.424195 0.004491
O O4 0.680787 0.239996 0.972853
O O5 0.091776 0.172849 0.774327
O O6 0.009813 0.189328 0.906824
O O7 0.028258 0.307165 0.771067
O O8 0.995219 0.124583 0.727566
O O9 0.414356 0.080174 0.886557
O O10 0.443551 0.036776 0.064145
O O11 0.374957 0.918909 0.978720
O O12 0.504770 0.395553 0.066709
O O13 0.492171 0.203819 0.062662
O O14 0.692689 0.755314 0.212171
O O15 0.155039 0.079380 0.912332
#
# Coordination Sequence:
#
# PCOD9371525 Si02
#       8
#    16  16  16  16   8  16  16  16
#     4  11  23  42  67  97 139 180 232 286 349 421
#     4  10  23  42  67  96 133 177 228 289 347 418
#     4  10  22  41  70  92 139 179 229 287 353 422
#     4  11  22  44  66  96 137 170 229 287 339 423
#     4  10  24  40  64  98 132 174 216 276 350 398
#     4  11  24  40  68 102 136 180 232 290 342 427
#     4  10  22  43  66  95 134 191 223 292 351 417
#     4  12  22  43  71  98 134 182 228 292 353 412
#
# _framework density 25.049205000000001
#
# number of rings (size 3 to 8) (size 9 to 14) (size 15 to 20)
#    0.800    0.533    2.667    3.200    3.733    1.067 
#    2.400    2.000    0.000    0.000    0.000    0.000 
#    0.000    0.000    0.000    0.000    0.000    0.000 
#
# Total GULP energy -167617.921301 kJ/mol
# GULP energy per Si atom -5587.264043 kJ/mol
# Density = 2.499219 g / cm^3
# Si number density = 25.049205 Si / 1000 Ang^3
#
#
#
# Elastic Constant Matrix: (Units=GPa)
#
#
# Indices 1 2 3 4 5 6 
#
# 1 95.6071 1.3672 11.2950 0.0000 0.0000 0.0000
# 2 1.3672 62.2319 -9.1038 0.0000 0.0000 0.0000
# 3 11.2950 -9.1038 92.8810 0.0000 0.0000 0.0000
# 4 0.0000 0.0000 0.0000 15.5541 0.0000 0.0000
# 5 0.0000 0.0000 0.0000 0.0000 25.8024 0.0000
# 6 0.0000 0.0000 0.0000 0.0000 0.0000 41.6012
#
#
#
# Elastic Compliance Matrix: (Units=1/GPa)
#
#
# Indices 1 2 3 4 5 6 
#
# 1 0.010623 -0.000429 -0.001334 0.000000 0.000000 0.000000
# 2 -0.000429 0.016320 0.001652 0.000000 0.000000 0.000000
# 3 -0.001334 0.001652 0.011091 0.000000 0.000000 0.000000
# 4 0.000000 0.000000 0.000000 0.064292 0.000000 0.000000
# 5 0.000000 0.000000 0.000000 0.000000 0.038756 0.000000
# 6 0.000000 0.000000 0.000000 0.000000 0.000000 0.024038
#
#
# Mechanical properties :
#
#
# Convention : Reuss Voigt Hill
#
# Bulk Modulus (GPa) = 26.44632 28.64852 27.54742
# Shear Modulus (GPa) = 28.09862 33.06897 30.58380
#
# Velocity S-wave (km/s) = 3.35287 3.63734 3.49800
# Velocity P-wave (km/s) = 5.05664 5.39463 5.22837
#
# Compressibility (1/GPa) = 0.03781245
#
# Stress axis : x y z
#
# Youngs Moduli (GPa) = 94.13371 61.27459 90.16670
#
# Poissons Ratio (x) = 0.02626 0.12027
# Poissons Ratio (y) = 0.04034 -0.14893
# Poissons Ratio (z) = 0.12556 -0.10121
#
# Static dielectric constant tensor:
#      x y z
#    x 2.010970 0.000000 0.000000 
#    y 0.000000 1.998220 0.000000 
#    z 0.000000 0.000000 2.006410 
# 
# From -- ./inp_files/11325.got.cif
#   From: 2010.05.17/outbox.cif.g08.bks.cpg/sg43_6_cif.got.tgz:11325.got - 2010.06.03 19:21:55.
