data_PCOD9371251
_publ_section_title
;
Structure prediction by ZEFSAII (Michael W. Deem and Ramdas Pophale) SiO2 
 PCOD9371251
Probable space group: F D D 2
;
_chemical_formula_sum "Si O2"
_cell_formula_units_Z 72
_cell_length_a 21.613682
_cell_length_b 9.145843
_cell_length_c 16.528033
_cell_angle_alpha 90.000000
_cell_angle_beta 90.000000
_cell_angle_gamma 90.000000
_cell_volume 3267.184580
_symmetry_space_group_name_H-M "F D D 2"
_symmetry_group_IT_number 43
_symmetry_cell_setting 'orthorhombic'
loop_
_space_group_symop_operation_xyz
x,y,z
-x,-y,z
1/4-x,1/4+y,1/4+z
1/4+x,1/4-y,1/4+z
x,1/2+y,1/2+z
-x,1/2-y,1/2+z
1/4-x,3/4+y,3/4+z
1/4+x,3/4-y,3/4+z
1/2+x,y,1/2+z
1/2-x,-y,1/2+z
3/4-x,1/4+y,3/4+z
3/4+x,1/4-y,3/4+z
1/2+x,1/2+y,z
1/2-x,1/2-y,z
3/4-x,3/4+y,1/4+z
3/4+x,3/4-y,1/4+z
loop_
_atom_site_type_symbol
_atom_site_label
_atom_site_fract_x
_atom_site_fract_y
_atom_site_fract_z
Si Si1 0.184350 0.326940 0.805920
Si Si2 0.065650 0.423059 0.533514
Si Si3 0.750000 0.250000 0.544716
Si Si4 0.868445 0.650238 0.970442
Si Si5 0.118445 0.900237 0.868991
O O1 0.250000 0.250000 0.822088
O O2 0.191172 0.500000 0.794717
O O3 0.135325 0.295197 0.878819
O O4 0.155059 0.249094 0.728019
O O5 0.894476 0.250001 0.544717
O O6 0.094942 0.500905 0.611414
O O7 0.114674 0.454802 0.460614
O O8 0.795665 0.148231 0.493287
O O9 0.704335 0.148230 0.596145
O O10 0.000000 0.000000 0.017347
#
# Coordination Sequence:
#
# PCOD9371251 Si02
#       5
#    16  16   8  16  16
#     4  12  24  41  64  98 128 168 211 263 315 377
#     4  12  24  41  64  98 128 168 211 263 315 377
#     4   8  20  36  70  84 124 164 212 242 320 364
#     4  10  21  42  66  92 128 168 211 256 317 377
#     4  10  21  42  66  92 128 168 211 256 317 377
#
# _framework density 22.037323000000001
#
# number of rings (size 3 to 8) (size 9 to 14) (size 15 to 20)
#    1.333    0.000    2.222    4.000    0.000    3.556 
#    0.000    1.111    0.000    0.000    0.000    0.000 
#    0.000    0.000    0.000    0.000    0.000    0.000 
#
# Total GULP energy -100239.474484 kJ/mol
# GULP energy per Si atom -5568.859694 kJ/mol
# Density = 2.198717 g / cm^3
# Si number density = 22.037323 Si / 1000 Ang^3
#
#
#
# Elastic Constant Matrix: (Units=GPa)
#
#
# Indices 1 2 3 4 5 6 
#
# 1 63.3755 38.7882 8.3882 0.0000 0.0000 0.0000
# 2 38.7882 142.6601 20.2909 0.0000 0.0000 0.0000
# 3 8.3882 20.2909 69.4754 0.0000 0.0000 0.0000
# 4 0.0000 0.0000 0.0000 28.7570 0.0000 0.0000
# 5 0.0000 0.0000 0.0000 0.0000 15.9658 0.0000
# 6 0.0000 0.0000 0.0000 0.0000 0.0000 8.2274
#
#
#
# Elastic Compliance Matrix: (Units=1/GPa)
#
#
# Indices 1 2 3 4 5 6 
#
# 1 0.018973 -0.005042 -0.000818 0.000000 0.000000 0.000000
# 2 -0.005042 0.008654 -0.001919 0.000000 0.000000 0.000000
# 3 -0.000818 -0.001919 0.015053 0.000000 0.000000 0.000000
# 4 0.000000 0.000000 0.000000 0.034774 0.000000 0.000000
# 5 0.000000 0.000000 0.000000 0.000000 0.062634 0.000000
# 6 0.000000 0.000000 0.000000 0.000000 0.000000 0.121544
#
#
# Mechanical properties :
#
#
# Convention : Reuss Voigt Hill
#
# Bulk Modulus (GPa) = 36.87104 45.60507 41.23806
# Shear Modulus (GPa) = 17.46843 24.45962 20.96403
#
# Velocity S-wave (km/s) = 2.81850 3.33516 3.08766
# Velocity P-wave (km/s) = 5.23063 5.96410 5.60936
#
# Compressibility (1/GPa) = 0.02712156
#
# Stress axis : x y z
#
# Youngs Moduli (GPa) = 52.70546 115.55988 66.43331
#
# Poissons Ratio (x) = 0.58269 0.05435
# Poissons Ratio (y) = 0.26576 0.12745
# Poissons Ratio (z) = 0.04312 0.22171
#
# Static dielectric constant tensor:
#      x y z
#    x 1.751840 0.000000 0.000000 
#    y 0.000000 1.831990 0.000000 
#    z 0.000000 0.000000 1.874400 
# 
# From -- ./inp_files/10849.got.cif
#   From: 2010.05.17/outbox.cif.g08.bks.cpg/sg43_6_cif.got.tgz:10849.got - 2010.06.03 19:21:55.
