data_PCOD9371577
_publ_section_title
;
Structure prediction by ZEFSAII (Michael W. Deem and Ramdas Pophale) SiO2 
 PCOD9371577
Probable space group: F D D 2
;
_chemical_formula_sum "Si O2"
_cell_formula_units_Z 88
_cell_length_a 23.794997
_cell_length_b 10.185611
_cell_length_c 15.617322
_cell_angle_alpha 90.000000
_cell_angle_beta 90.000000
_cell_angle_gamma 90.000000
_cell_volume 3785.116972
_symmetry_space_group_name_H-M "F D D 2"
_symmetry_group_IT_number 43
_symmetry_cell_setting 'orthorhombic'
loop_
_space_group_symop_operation_xyz
x,y,z
-x,-y,z
1/4-x,1/4+y,1/4+z
1/4+x,1/4-y,1/4+z
x,1/2+y,1/2+z
-x,1/2-y,1/2+z
1/4-x,3/4+y,3/4+z
1/4+x,3/4-y,3/4+z
1/2+x,y,1/2+z
1/2-x,-y,1/2+z
3/4-x,1/4+y,3/4+z
3/4+x,1/4-y,3/4+z
1/2+x,1/2+y,z
1/2-x,1/2-y,z
3/4-x,3/4+y,1/4+z
3/4+x,3/4-y,1/4+z
loop_
_atom_site_type_symbol
_atom_site_label
_atom_site_fract_x
_atom_site_fract_y
_atom_site_fract_z
Si Si1 0.750000 0.250000 0.950610
Si Si2 0.848934 0.353691 0.827290
Si Si3 0.341218 0.366597 0.865284
Si Si4 0.922224 0.615823 0.381275
Si Si5 0.624879 0.159609 0.189818
Si Si6 0.499156 0.713926 0.751570
O O1 0.798739 0.303791 0.888361
O O2 0.763951 0.119906 0.004474
O O3 0.888626 0.227613 0.828963
O O4 0.827792 0.389022 0.732771
O O5 0.880064 0.478899 0.868201
O O6 0.386427 0.484178 0.868600
O O7 0.329490 0.340542 0.765135
O O8 0.368384 0.234555 0.901820
O O9 0.287476 0.406145 0.922199
O O10 0.982014 0.635889 0.336785
O O11 0.564425 0.192721 0.232410
#
# Coordination Sequence:
#
# PCOD9371577 Si02
#       6
#     8  16  16  16  16  16
#     4  10  22  42  68  96 132 176 234 282 346 402
#     4  11  22  41  65  97 130 180 223 288 342 412
#     4  12  22  42  69  98 132 185 222 285 345 406
#     4  12  22  42  71  95 136 177 233 276 350 413
#     4  11  26  43  69  99 143 175 231 291 352 405
#     4  11  24  45  70 102 139 181 233 295 338 426
#
# _framework density 23.248951000000002
#
# number of rings (size 3 to 8) (size 9 to 14) (size 15 to 20)
#    0.000    0.727    5.455    1.636    0.000    2.909 
#    3.273    0.000    0.000    0.000    0.000    0.000 
#    0.000    0.000    0.000    0.000    0.000    0.000 
#
# Total GULP energy -123114.901189 kJ/mol
# GULP energy per Si atom -5596.131872 kJ/mol
# Density = 2.319603 g / cm^3
# Si number density = 23.248951 Si / 1000 Ang^3
#
#
#
# Elastic Constant Matrix: (Units=GPa)
#
#
# Indices 1 2 3 4 5 6 
#
# 1 39.6903 13.3615 11.0524 0.0000 0.0000 0.0000
# 2 13.3615 153.1655 65.5361 0.0000 0.0000 0.0000
# 3 11.0524 65.5361 107.9529 0.0000 0.0000 0.0000
# 4 0.0000 0.0000 0.0000 22.7513 0.0000 0.0000
# 5 0.0000 0.0000 0.0000 0.0000 25.3410 0.0000
# 6 0.0000 0.0000 0.0000 0.0000 0.0000 23.9856
#
#
#
# Elastic Compliance Matrix: (Units=1/GPa)
#
#
# Indices 1 2 3 4 5 6 
#
# 1 0.026200 -0.001537 -0.001749 0.000000 0.000000 0.000000
# 2 -0.001537 0.008910 -0.005252 0.000000 0.000000 0.000000
# 3 -0.001749 -0.005252 0.012631 0.000000 0.000000 0.000000
# 4 0.000000 0.000000 0.000000 0.043954 0.000000 0.000000
# 5 0.000000 0.000000 0.000000 0.000000 0.039462 0.000000
# 6 0.000000 0.000000 0.000000 0.000000 0.000000 0.041692
#
#
# Mechanical properties :
#
#
# Convention : Reuss Voigt Hill
#
# Bulk Modulus (GPa) = 32.61137 53.41208 43.01172
# Shear Modulus (GPa) = 24.98191 28.47283 26.72737
#
# Velocity S-wave (km/s) = 3.28157 3.50336 3.39428
# Velocity P-wave (km/s) = 5.33064 6.27603 5.82256
#
# Compressibility (1/GPa) = 0.03066416
#
# Stress axis : x y z
#
# Youngs Moduli (GPa) = 38.16852 112.23230 79.17263
#
# Poissons Ratio (x) = 0.17251 0.13849
# Poissons Ratio (y) = 0.05867 0.41580
# Poissons Ratio (z) = 0.06676 0.58942
#
# Static dielectric constant tensor:
#      x y z
#    x 1.996710 0.000000 0.000000 
#    y 0.000000 1.866030 0.000000 
#    z 0.000000 0.000000 1.941010 
# 
# From -- ./inp_files/11467.got.cif
#   From: 2010.05.17/outbox.cif.g08.bks.cpg/sg43_6_cif.got.tgz:11467.got - 2010.06.03 19:21:55.
