data_PCOD9371125
_publ_section_title
;
Structure prediction by ZEFSAII (Michael W. Deem and Ramdas Pophale) SiO2 
 PCOD9371125
Probable space group: F D D 2
;
_chemical_formula_sum "Si O2"
_cell_formula_units_Z 120
_cell_length_a 26.679736
_cell_length_b 11.214991
_cell_length_c 15.733835
_cell_angle_alpha 90.000000
_cell_angle_beta 90.000000
_cell_angle_gamma 90.000000
_cell_volume 4707.767958
_symmetry_space_group_name_H-M "F D D 2"
_symmetry_group_IT_number 43
_symmetry_cell_setting 'orthorhombic'
loop_
_space_group_symop_operation_xyz
x,y,z
-x,-y,z
1/4-x,1/4+y,1/4+z
1/4+x,1/4-y,1/4+z
x,1/2+y,1/2+z
-x,1/2-y,1/2+z
1/4-x,3/4+y,3/4+z
1/4+x,3/4-y,3/4+z
1/2+x,y,1/2+z
1/2-x,-y,1/2+z
3/4-x,1/4+y,3/4+z
3/4+x,1/4-y,3/4+z
1/2+x,1/2+y,z
1/2-x,1/2-y,z
3/4-x,3/4+y,1/4+z
3/4+x,3/4-y,1/4+z
loop_
_atom_site_type_symbol
_atom_site_label
_atom_site_fract_x
_atom_site_fract_y
_atom_site_fract_z
Si Si1 0.993270 0.143874 0.391530
Si Si2 0.019807 0.764896 0.573632
Si Si3 0.896154 0.116876 0.308574
Si Si4 0.134837 0.015978 0.910798
Si Si5 0.395043 0.359763 0.379668
Si Si6 0.750000 0.250000 0.425436
Si Si7 0.553527 0.930887 0.532683
Si Si8 0.647344 0.273560 0.479767
O O1 0.969592 0.211655 0.473231
O O2 0.954290 0.155262 0.314525
O O3 0.049079 0.192215 0.375476
O O4 0.000000 0.000000 0.408825
O O5 0.061363 0.706646 0.636718
O O6 0.015169 0.893569 0.614424
O O7 0.967607 0.694717 0.567546
O O8 0.866093 0.151653 0.225244
O O9 0.871079 0.166664 0.393620
O O10 0.896011 0.973774 0.317595
O O11 0.139752 0.130754 0.971669
O O12 0.124096 0.068604 0.817528
O O13 0.087489 0.942391 0.947237
O O14 0.346677 0.285390 0.350949
O O15 0.705929 0.294956 0.483442
O O16 0.500000 0.000000 0.524226
#
# Coordination Sequence:
#
# PCOD9371125 Si02
#       8
#    16  16  16  16  16   8  16  16
#     4  10  21  39  69 105 138 178 237 310 381 438
#     4  11  22  45  71 101 146 187 246 314 371 445
#     4  11  23  42  73 106 139 187 244 324 387 436
#     4  11  26  45  68 102 143 203 240 308 371 468
#     4  11  25  44  68 104 145 188 253 314 373 458
#     4  10  22  38  74 106 132 178 244 328 384 418
#     4  12  29  47  68 102 157 212 252 294 385 478
#     4  11  22  42  69 103 145 179 253 312 382 451
#
# _framework density 25.489785999999999
#
# number of rings (size 3 to 8) (size 9 to 14) (size 15 to 20)
#    0.000    1.067    2.000    4.000    4.667    6.933 
#    0.000    2.667    0.000    0.000    0.000    0.000 
#    0.000    0.000    0.000    0.000    0.000    0.000 
#
# Total GULP energy -167598.884823 kJ/mol
# GULP energy per Si atom -5586.629494 kJ/mol
# Density = 2.543177 g / cm^3
# Si number density = 25.489786 Si / 1000 Ang^3
#
#
#
# Elastic Constant Matrix: (Units=GPa)
#
#
# Indices 1 2 3 4 5 6 
#
# 1 194.4916 19.4758 36.1942 0.0000 0.0000 0.0000
# 2 19.4758 64.3196 -0.3974 0.0000 0.0000 0.0000
# 3 36.1942 -0.3974 82.0669 0.0000 0.0000 0.0000
# 4 0.0000 0.0000 0.0000 23.2775 0.0000 0.0000
# 5 0.0000 0.0000 0.0000 0.0000 53.4978 0.0000
# 6 0.0000 0.0000 0.0000 0.0000 0.0000 27.9498
#
#
#
# Elastic Compliance Matrix: (Units=1/GPa)
#
#
# Indices 1 2 3 4 5 6 
#
# 1 0.005796 -0.001771 -0.002565 0.000000 0.000000 0.000000
# 2 -0.001771 0.016089 0.000859 0.000000 0.000000 0.000000
# 3 -0.002565 0.000859 0.013321 0.000000 0.000000 0.000000
# 4 0.000000 0.000000 0.000000 0.042960 0.000000 0.000000
# 5 0.000000 0.000000 0.000000 0.000000 0.018692 0.000000
# 6 0.000000 0.000000 0.000000 0.000000 0.000000 0.035778
#
#
# Mechanical properties :
#
#
# Convention : Reuss Voigt Hill
#
# Bulk Modulus (GPa) = 35.39584 50.15814 42.77699
# Shear Modulus (GPa) = 33.55536 39.98540 36.77038
#
# Velocity S-wave (km/s) = 3.63219 3.96496 3.80222
# Velocity P-wave (km/s) = 5.61310 6.37822 6.00785
#
# Compressibility (1/GPa) = 0.02825191
#
# Stress axis : x y z
#
# Youngs Moduli (GPa) = 172.52477 62.15464 75.07194
#
# Poissons Ratio (x) = 0.11007 0.19255
# Poissons Ratio (y) = 0.30553 -0.06448
# Poissons Ratio (z) = 0.44251 -0.05339
#
# Static dielectric constant tensor:
#      x y z
#    x 2.099570 0.000000 0.000000 
#    y 0.000000 2.055350 0.000000 
#    z 0.000000 0.000000 1.949890 
# 
# From -- ./inp_files/15096.got.cif
#   From: 2010.05.17/outbox.cif.g08.bks.cpg/sg43_8_cif.got.tgz:15096.got - 2010.06.03 19:21:55.
