data_PCOD9371315
_publ_section_title
;
Structure prediction by ZEFSAII (Michael W. Deem and Ramdas Pophale) SiO2 
 PCOD9371315
Probable space group: F D D 2
;
_chemical_formula_sum "Si O2"
_cell_formula_units_Z 88
_cell_length_a 23.147161
_cell_length_b 15.500067
_cell_length_c 9.679061
_cell_angle_alpha 90.000000
_cell_angle_beta 90.000000
_cell_angle_gamma 90.000000
_cell_volume 3472.678152
_symmetry_space_group_name_H-M "F D D 2"
_symmetry_group_IT_number 43
_symmetry_cell_setting 'orthorhombic'
loop_
_space_group_symop_operation_xyz
x,y,z
-x,-y,z
1/4-x,1/4+y,1/4+z
1/4+x,1/4-y,1/4+z
x,1/2+y,1/2+z
-x,1/2-y,1/2+z
1/4-x,3/4+y,3/4+z
1/4+x,3/4-y,3/4+z
1/2+x,y,1/2+z
1/2-x,-y,1/2+z
3/4-x,1/4+y,3/4+z
3/4+x,1/4-y,3/4+z
1/2+x,1/2+y,z
1/2-x,1/2-y,z
3/4-x,3/4+y,1/4+z
3/4+x,3/4-y,1/4+z
loop_
_atom_site_type_symbol
_atom_site_label
_atom_site_fract_x
_atom_site_fract_y
_atom_site_fract_z
Si Si1 0.068538 0.573620 0.694550
Si Si2 0.344743 0.630533 0.435562
Si Si3 0.564827 0.219819 0.454756
Si Si4 0.750000 0.250000 0.534979
Si Si5 0.193922 0.947429 0.156298
Si Si6 0.587974 0.934518 0.512084
O O1 0.150071 0.483717 0.536808
O O2 0.032323 0.614408 0.818971
O O3 0.056773 0.477541 0.642151
O O4 0.134688 0.589899 0.754859
O O5 0.396295 0.695253 0.477824
O O6 0.338186 0.561512 0.556870
O O7 0.284950 0.683374 0.444862
O O8 0.342769 0.589447 0.284394
O O9 0.497923 0.245853 0.447617
O O10 0.567295 0.137738 0.559798
O O11 0.702126 0.205017 0.633367
#
# Coordination Sequence:
#
# PCOD9371315 Si02
#       6
#    16  16  16   8  16  16
#     4  10  21  44  66 103 132 193 237 296 361 446
#     4  12  28  42  75 108 145 197 240 321 361 451
#     4  12  24  47  70 106 143 194 247 302 383 440
#     4  12  24  44  74 104 146 194 252 288 382 454
#     4  10  27  43  72 100 150 184 247 306 371 437
#     4  10  24  42  71 101 138 193 238 293 360 444
#
# _framework density 25.340672000000001
#
# number of rings (size 3 to 8) (size 9 to 14) (size 15 to 20)
#    1.091    0.000    3.636    1.091    7.636    1.455 
#    0.000    0.909    0.000    0.000    0.000    0.000 
#    0.000    0.000    0.000    0.000    0.000    0.000 
#
# Total GULP energy -122606.240913 kJ/mol
# GULP energy per Si atom -5573.010951 kJ/mol
# Density = 2.528300 g / cm^3
# Si number density = 25.340672 Si / 1000 Ang^3
#
#
#
# Elastic Constant Matrix: (Units=GPa)
#
#
# Indices 1 2 3 4 5 6 
#
# 1 134.9919 13.6952 5.3300 0.0000 0.0000 0.0000
# 2 13.6952 56.8657 20.9897 0.0000 0.0000 0.0000
# 3 5.3300 20.9897 116.1443 0.0000 0.0000 0.0000
# 4 0.0000 0.0000 0.0000 53.6981 0.0000 0.0000
# 5 0.0000 0.0000 0.0000 0.0000 39.4934 0.0000
# 6 0.0000 0.0000 0.0000 0.0000 0.0000 34.1208
#
#
#
# Elastic Compliance Matrix: (Units=1/GPa)
#
#
# Indices 1 2 3 4 5 6 
#
# 1 0.007593 -0.001822 -0.000019 0.000000 0.000000 0.000000
# 2 -0.001822 0.019279 -0.003401 0.000000 0.000000 0.000000
# 3 -0.000019 -0.003401 0.009225 0.000000 0.000000 0.000000
# 4 0.000000 0.000000 0.000000 0.018623 0.000000 0.000000
# 5 0.000000 0.000000 0.000000 0.000000 0.025321 0.000000
# 6 0.000000 0.000000 0.000000 0.000000 0.000000 0.029308
#
#
# Mechanical properties :
#
#
# Convention : Reuss Voigt Hill
#
# Bulk Modulus (GPa) = 39.03947 43.11463 41.07705
# Shear Modulus (GPa) = 38.94984 43.32827 41.13905
#
# Velocity S-wave (km/s) = 3.92477 4.13950 4.03356
# Velocity P-wave (km/s) = 5.99815 6.31650 6.15938
#
# Compressibility (1/GPa) = 0.02561510
#
# Stress axis : x y z
#
# Youngs Moduli (GPa) = 131.69292 51.86937 108.39620
#
# Poissons Ratio (x) = 0.09449 0.00209
# Poissons Ratio (y) = 0.23990 0.36861
# Poissons Ratio (z) = 0.00254 0.17639
#
# Static dielectric constant tensor:
#      x y z
#    x 2.237750 0.000000 0.000000 
#    y 0.000000 2.198530 0.000000 
#    z 0.000000 0.000000 2.036310 
# 
# From -- ./inp_files/7492.got.cif
#   From: 2010.05.17/outbox.cif.g08.bks.cpg/sg43_4_cif.got.tgz:7492.got - 2010.06.03 19:21:55.
