data_PCOD9371674
_publ_section_title
;
Structure prediction by ZEFSAII (Michael W. Deem and Ramdas Pophale) SiO2 
 PCOD9371674
Probable space group: F D D 2
;
_chemical_formula_sum "Si O2"
_cell_formula_units_Z 56
_cell_length_a 26.837174
_cell_length_b 12.106359
_cell_length_c 7.090850
_cell_angle_alpha 90.000000
_cell_angle_beta 90.000000
_cell_angle_gamma 90.000000
_cell_volume 2303.820448
_symmetry_space_group_name_H-M "F D D 2"
_symmetry_group_IT_number 43
_symmetry_cell_setting 'orthorhombic'
loop_
_space_group_symop_operation_xyz
x,y,z
-x,-y,z
1/4-x,1/4+y,1/4+z
1/4+x,1/4-y,1/4+z
x,1/2+y,1/2+z
-x,1/2-y,1/2+z
1/4-x,3/4+y,3/4+z
1/4+x,3/4-y,3/4+z
1/2+x,y,1/2+z
1/2-x,-y,1/2+z
3/4-x,1/4+y,3/4+z
3/4+x,1/4-y,3/4+z
1/2+x,1/2+y,z
1/2-x,1/2-y,z
3/4-x,3/4+y,1/4+z
3/4+x,3/4-y,1/4+z
loop_
_atom_site_type_symbol
_atom_site_label
_atom_site_fract_x
_atom_site_fract_y
_atom_site_fract_z
Si Si1 0.937953 0.839618 0.563770
Si Si2 0.750000 0.250000 0.880003
Si Si3 0.171424 0.679002 0.192173
Si Si4 0.288902 0.030048 0.383883
O O1 0.885399 0.797390 0.638642
O O2 0.940925 0.811349 0.339974
O O3 0.986395 0.783384 0.649154
O O4 0.938666 0.972212 0.578943
O O5 0.791472 0.307772 0.014239
O O6 0.722209 0.352391 0.782923
O O7 0.176519 0.558070 0.280413
#
# Coordination Sequence:
#
# PCOD9371674 Si02
#       4
#    16   8  16  16
#     4  11  25  44  75 104 149 196 248 316 373 441
#     4  10  22  44  68 106 150 184 244 320 356 446
#     4  11  22  44  70 108 149 187 252 316 363 450
#     4  11  22  47  72 105 148 195 243 313 378 434
#
# _framework density 24.307449999999999
#
# number of rings (size 3 to 8) (size 9 to 14) (size 15 to 20)
#    0.000    1.143    5.714    1.714    0.000    4.571 
#    5.143    0.000    0.000    0.000    0.000    0.000 
#    0.000    0.000    0.000    0.000    0.000    0.000 
#
# Total GULP energy -78365.167863 kJ/mol
# GULP energy per Si atom -5597.511990 kJ/mol
# Density = 2.425213 g / cm^3
# Si number density = 24.307450 Si / 1000 Ang^3
#
#
#
# Elastic Constant Matrix: (Units=GPa)
#
#
# Indices 1 2 3 4 5 6 
#
# 1 138.2508 15.1943 19.4505 0.0000 0.0000 0.0000
# 2 15.1943 174.3275 44.9445 0.0000 0.0000 0.0000
# 3 19.4505 44.9445 62.5579 0.0000 0.0000 0.0000
# 4 0.0000 0.0000 0.0000 33.8606 0.0000 0.0000
# 5 0.0000 0.0000 0.0000 0.0000 32.9156 0.0000
# 6 0.0000 0.0000 0.0000 0.0000 0.0000 40.5061
#
#
#
# Elastic Compliance Matrix: (Units=1/GPa)
#
#
# Indices 1 2 3 4 5 6 
#
# 1 0.007565 -0.000065 -0.002305 0.000000 0.000000 0.000000
# 2 -0.000065 0.007041 -0.005038 0.000000 0.000000 0.000000
# 3 -0.002305 -0.005038 0.020322 0.000000 0.000000 0.000000
# 4 0.000000 0.000000 0.000000 0.029533 0.000000 0.000000
# 5 0.000000 0.000000 0.000000 0.000000 0.030381 0.000000
# 6 0.000000 0.000000 0.000000 0.000000 0.000000 0.024688
#
#
# Mechanical properties :
#
#
# Convention : Reuss Voigt Hill
#
# Bulk Modulus (GPa) = 49.72630 59.36833 54.54731
# Shear Modulus (GPa) = 35.44858 41.15958 38.30408
#
# Velocity S-wave (km/s) = 3.82297 4.11943 3.97396
# Velocity P-wave (km/s) = 6.32364 6.86317 6.59892
#
# Compressibility (1/GPa) = 0.02011008
#
# Stress axis : x y z
#
# Youngs Moduli (GPa) = 132.19279 142.02597 49.20837
#
# Poissons Ratio (x) = 0.00923 0.11344
# Poissons Ratio (y) = 0.00859 0.24793
# Poissons Ratio (z) = 0.30475 0.71558
#
# Static dielectric constant tensor:
#      x y z
#    x 1.905690 0.000000 0.000000 
#    y 0.000000 1.983420 0.000000 
#    z 0.000000 0.000000 2.004030 
# 
# From -- ./inp_files/1851.got.cif
#   From: 2010.05.17/outbox.cif.g08.bks.cpg/sg43_1_cif.got.tgz:1851.got - 2010.06.03 19:21:55.
