data_PCOD9371225
_publ_section_title
;
Structure prediction by ZEFSAII (Michael W. Deem and Ramdas Pophale) SiO2 
 PCOD9371225
Probable space group: F D D 2
;
_chemical_formula_sum "Si O2"
_cell_formula_units_Z 80
_cell_length_a 10.895713
_cell_length_b 29.440094
_cell_length_c 9.759088
_cell_angle_alpha 90.000000
_cell_angle_beta 90.000000
_cell_angle_gamma 90.000000
_cell_volume 3130.430611
_symmetry_space_group_name_H-M "F D D 2"
_symmetry_group_IT_number 43
_symmetry_cell_setting 'orthorhombic'
loop_
_space_group_symop_operation_xyz
x,y,z
-x,-y,z
1/4-x,1/4+y,1/4+z
1/4+x,1/4-y,1/4+z
x,1/2+y,1/2+z
-x,1/2-y,1/2+z
1/4-x,3/4+y,3/4+z
1/4+x,3/4-y,3/4+z
1/2+x,y,1/2+z
1/2-x,-y,1/2+z
3/4-x,1/4+y,3/4+z
3/4+x,1/4-y,3/4+z
1/2+x,1/2+y,z
1/2-x,1/2-y,z
3/4-x,3/4+y,1/4+z
3/4+x,3/4-y,1/4+z
loop_
_atom_site_type_symbol
_atom_site_label
_atom_site_fract_x
_atom_site_fract_y
_atom_site_fract_z
Si Si1 0.924706 0.076181 0.756300
Si Si2 0.117730 0.918223 0.188301
Si Si3 0.610579 0.568467 0.993637
Si Si4 0.303983 0.435074 0.453105
Si Si5 0.617861 0.718216 0.724281
O O1 0.918599 0.130907 0.747043
O O2 0.800050 0.062817 0.835595
O O3 0.926717 0.053420 0.609269
O O4 0.038210 0.062637 0.851571
O O5 0.118433 0.863489 0.186873
O O6 0.121140 0.938062 0.338982
O O7 0.232457 0.933715 0.097282
O O8 0.992323 0.933026 0.111600
O O9 0.720392 0.533692 0.008409
O O10 0.388832 0.478854 0.443433
#
# Coordination Sequence:
#
# PCOD9371225 Si02
#       5
#    16  16  16  16  16
#     4  10  21  41  69 101 137 186 238 289 353 425
#     4  10  25  45  70 104 146 181 239 297 353 422
#     4  10  22  43  68 100 139 189 230 286 363 412
#     4  10  24  47  69 104 144 187 234 297 358 424
#     4  12  24  45  76 101 142 188 241 294 350 427
#
# _framework density 25.555589999999999
#
# number of rings (size 3 to 8) (size 9 to 14) (size 15 to 20)
#    0.000    1.600    2.000    1.200    5.600    3.200 
#    3.600    4.000    0.000    0.000    0.000    0.000 
#    0.000    0.000    0.000    0.000    0.000    0.000 
#
# Total GULP energy -112381.259957 kJ/mol
# GULP energy per Si atom -5619.062998 kJ/mol
# Density = 2.549742 g / cm^3
# Si number density = 25.555590 Si / 1000 Ang^3
#
#
#
# Elastic Constant Matrix: (Units=GPa)
#
#
# Indices 1 2 3 4 5 6 
#
# 1 56.9684 3.4229 25.2024 0.0000 0.0000 0.0000
# 2 3.4229 67.2083 20.7770 0.0000 0.0000 0.0000
# 3 25.2024 20.7770 145.9385 0.0000 0.0000 0.0000
# 4 0.0000 0.0000 0.0000 -11.0091 0.0000 0.0000
# 5 0.0000 0.0000 0.0000 0.0000 27.9772 0.0000
# 6 0.0000 0.0000 0.0000 0.0000 0.0000 45.9876
#
#
#
# Elastic Compliance Matrix: (Units=1/GPa)
#
#
# Indices 1 2 3 4 5 6 
#
# 1 0.019006 0.000049 -0.003289 0.000000 0.000000 0.000000
# 2 0.000049 0.015564 -0.002224 0.000000 0.000000 0.000000
# 3 -0.003289 -0.002224 0.007737 0.000000 0.000000 0.000000
# 4 0.000000 0.000000 0.000000 -0.090834 0.000000 0.000000
# 5 0.000000 0.000000 0.000000 0.000000 0.035743 0.000000
# 6 0.000000 0.000000 0.000000 0.000000 0.000000 0.021745
#
#
# Mechanical properties :
#
#
# Convention : Reuss Voigt Hill
#
# Bulk Modulus (GPa) = 31.86969 40.99107 36.43038
# Shear Modulus (GPa) = 164.74649 27.30534 96.02591
#
# Velocity S-wave (km/s) = 8.03778 3.27229 6.13652
# Velocity P-wave (km/s) = 9.93172 5.50926 8.03091
#
# Compressibility (1/GPa) = 0.03137777
#
# Stress axis : x y z
#
# Youngs Moduli (GPa) = 52.61575 64.24983 129.25128
#
# Poissons Ratio (x) = -0.00314 0.42512
# Poissons Ratio (y) = -0.00257 0.28749
# Poissons Ratio (z) = 0.17306 0.14291
#
# Static dielectric constant tensor:
#      x y z
#    x 2.105780 0.000000 0.000000 
#    y 0.000000 1.977760 0.000000 
#    z 0.000000 0.000000 1.914310 
# 
# From -- ./inp_files/6172.got.cif
#   From: 2010.05.17/outbox.cif.g08.bks.cpg/sg43_4_cif.got.tgz:6172.got - 2010.06.03 19:21:55.
