data_PCOD9371962
_publ_section_title
;
Structure prediction by ZEFSAII (Michael W. Deem and Ramdas Pophale) SiO2 
 PCOD9371962
Probable space group: F D D 2
;
_chemical_formula_sum "Si O2"
_cell_formula_units_Z 72
_cell_length_a 30.926367
_cell_length_b 5.333778
_cell_length_c 19.511617
_cell_angle_alpha 90.000000
_cell_angle_beta 90.000000
_cell_angle_gamma 90.000000
_cell_volume 3218.526606
_symmetry_space_group_name_H-M "F D D 2"
_symmetry_group_IT_number 43
_symmetry_cell_setting 'orthorhombic'
loop_
_space_group_symop_operation_xyz
x,y,z
-x,-y,z
1/4-x,1/4+y,1/4+z
1/4+x,1/4-y,1/4+z
x,1/2+y,1/2+z
-x,1/2-y,1/2+z
1/4-x,3/4+y,3/4+z
1/4+x,3/4-y,3/4+z
1/2+x,y,1/2+z
1/2-x,-y,1/2+z
3/4-x,1/4+y,3/4+z
3/4+x,1/4-y,3/4+z
1/2+x,1/2+y,z
1/2-x,1/2-y,z
3/4-x,3/4+y,1/4+z
3/4+x,3/4-y,1/4+z
loop_
_atom_site_type_symbol
_atom_site_label
_atom_site_fract_x
_atom_site_fract_y
_atom_site_fract_z
Si Si1 0.184689 0.604716 0.980030
Si Si2 0.547596 0.623490 0.362456
Si Si3 0.250000 0.250000 0.049608
Si Si4 0.160060 0.716168 0.252273
Si Si5 0.948104 0.029180 0.073170
O O1 0.187938 0.715056 0.904347
O O2 0.181797 0.808867 0.039769
O O3 0.227702 0.449233 0.999368
O O4 0.141371 0.448286 0.992720
O O5 0.500000 0.500000 0.367167
O O6 0.573307 0.523328 0.425883
O O7 0.537301 0.914625 0.352584
O O8 0.177436 0.461716 0.286021
O O9 0.178441 0.959106 0.293959
O O10 0.000000 0.000000 0.063696
#
# Coordination Sequence:
#
# PCOD9371962 Si02
#       5
#    16  16   8  16  16
#     4  11  27  46  75 107 151 198 253 307 374 459
#     4  10  23  46  70 104 140 197 245 301 368 453
#     4  10  24  44  80 100 146 204 258 298 382 466
#     4  12  29  45  77 112 153 191 252 317 376 436
#     4  12  28  50  74 112 153 198 249 313 383 443
#
# _framework density 22.370483
#
# number of rings (size 3 to 8) (size 9 to 14) (size 15 to 20)
#    0.000    0.889    0.000    5.333   20.222    0.000 
#    0.000    0.000    0.000    0.000    0.000    0.000 
#    0.000    0.000    0.000    0.000    0.000    0.000 
#
# Total GULP energy -100538.521301 kJ/mol
# GULP energy per Si atom -5585.473406 kJ/mol
# Density = 2.231957 g / cm^3
# Si number density = 22.370483 Si / 1000 Ang^3
#
#
#
# Elastic Constant Matrix: (Units=GPa)
#
#
# Indices 1 2 3 4 5 6 
#
# 1 106.1116 20.7497 30.6962 -0.0006 -0.0015 -0.0013
# 2 20.7497 115.3588 59.4008 -0.0006 -0.0007 -0.0030
# 3 30.6962 59.4008 93.7286 0.0012 -0.0011 0.0012
# 4 -0.0006 -0.0006 0.0012 -0.5062 0.0019 -0.0020
# 5 -0.0015 -0.0007 -0.0011 0.0019 11.6253 -0.0017
# 6 -0.0013 -0.0030 0.0012 -0.0020 -0.0017 41.6010
#
#
#
# Elastic Compliance Matrix: (Units=1/GPa)
#
#
# Indices 1 2 3 4 5 6 
#
# 1 0.010413 -0.000174 -0.003300 -0.000019 0.000001 0.000000
# 2 -0.000174 0.012871 -0.008100 -0.000035 0.000000 0.000001
# 3 -0.003300 -0.008100 0.016883 0.000054 0.000001 -0.000001
# 4 -0.000019 -0.000035 0.000054 -1.975523 0.000319 -0.000093
# 5 0.000001 0.000000 0.000001 0.000319 0.086020 0.000004
# 6 0.000000 0.000001 -0.000001 -0.000093 0.000004 0.024038
#
#
# Mechanical properties :
#
#
# Convention : Reuss Voigt Hill
#
# Bulk Modulus (GPa) = 58.75722 59.65470 59.20596
# Shear Modulus (GPa) = -2.78322 24.16750 10.69214
#
# Velocity S-wave (km/s) = -1.11662 3.29040 2.18860
# Velocity P-wave (km/s) = 4.96589 6.41563 5.73674
#
# Compressibility (1/GPa) = 0.01701918
#
# Stress axis : x y z
#
# Youngs Moduli (GPa) = 96.03700 77.69588 59.23020
#
# Poissons Ratio (x) = 0.01349 0.19547
# Poissons Ratio (y) = 0.01668 0.47976
# Poissons Ratio (z) = 0.31693 0.62933
#
# Static dielectric constant tensor:
#      x y z
#    x 2.055350 0.000010 0.000000 
#    y 0.000010 1.961500 0.000000 
#    z 0.000000 0.000000 1.806930 
# 
# From -- ./inp_files/15696.got.cif
#   From: 2010.05.17/outbox.cif.g08.bks.cpg/sg43_8_cif.got.tgz:15696.got - 2010.06.03 19:21:55.
