data_PCOD9371849
_publ_section_title
;
Structure prediction by ZEFSAII (Michael W. Deem and Ramdas Pophale) SiO2 
 PCOD9371849
Probable space group: F D D 2
;
_chemical_formula_sum "Si O2"
_cell_formula_units_Z 120
_cell_length_a 21.857283
_cell_length_b 8.828289
_cell_length_c 26.929616
_cell_angle_alpha 90.000000
_cell_angle_beta 90.000000
_cell_angle_gamma 90.000000
_cell_volume 5196.403633
_symmetry_space_group_name_H-M "F D D 2"
_symmetry_group_IT_number 43
_symmetry_cell_setting 'orthorhombic'
loop_
_space_group_symop_operation_xyz
x,y,z
-x,-y,z
1/4-x,1/4+y,1/4+z
1/4+x,1/4-y,1/4+z
x,1/2+y,1/2+z
-x,1/2-y,1/2+z
1/4-x,3/4+y,3/4+z
1/4+x,3/4-y,3/4+z
1/2+x,y,1/2+z
1/2-x,-y,1/2+z
3/4-x,1/4+y,3/4+z
3/4+x,1/4-y,3/4+z
1/2+x,1/2+y,z
1/2-x,1/2-y,z
3/4-x,3/4+y,1/4+z
3/4+x,3/4-y,1/4+z
loop_
_atom_site_type_symbol
_atom_site_label
_atom_site_fract_x
_atom_site_fract_y
_atom_site_fract_z
Si Si1 0.022545 0.168594 0.190900
Si Si2 0.683894 0.058391 0.089236
Si Si3 0.239385 0.910761 0.189527
Si Si4 0.524563 0.341237 0.027338
Si Si5 0.297614 0.119351 0.870563
Si Si6 0.608497 0.812399 0.386049
Si Si7 0.659968 0.873863 0.535292
Si Si8 0.750000 0.750000 0.095755
O O1 0.080062 0.146376 0.152911
O O2 0.048611 0.210601 0.245143
O O3 0.966309 0.260864 0.167429
O O4 0.000000 0.000000 0.198104
O O5 0.723719 0.090817 0.138309
O O6 0.613952 0.060616 0.108858
O O7 0.684132 0.207666 0.053350
O O8 0.714088 0.897163 0.071055
O O9 0.250000 0.750000 0.214750
O O10 0.261206 0.034308 0.229080
O O11 0.169078 0.937900 0.173785
O O12 0.500000 0.500000 0.045578
O O13 0.527232 0.224414 0.072163
O O14 0.594438 0.354409 0.010029
O O15 0.250000 0.250000 0.878953
O O16 0.607609 0.723225 0.333639
O O17 0.553759 0.931919 0.379545
#
# Coordination Sequence:
#
# PCOD9371849 Si02
#       8
#    16  16  16  16  16  16  16   8
#     4  12  26  43  72 104 143 196 240 291 368 450
#     4  10  23  42  70 104 140 187 236 307 358 432
#     4  11  22  39  71  99 133 178 245 301 357 424
#     4  11  24  42  72 105 137 189 245 308 360 438
#     4  11  24  46  68  99 152 190 232 300 375 442
#     4  11  23  45  68 105 136 187 241 307 353 431
#     4  11  24  44  70 101 144 189 245 287 374 439
#     4  10  24  40  78 100 138 182 246 304 362 414
#
# _framework density 23.092894000000001
#
# number of rings (size 3 to 8) (size 9 to 14) (size 15 to 20)
#    0.000    1.067    2.667    4.000    7.467    1.067 
#    1.200    0.000    0.000    0.000    0.000    0.000 
#    0.000    0.000    0.000    0.000    0.000    0.000 
#
# Total GULP energy -167349.150374 kJ/mol
# GULP energy per Si atom -5578.305012 kJ/mol
# Density = 2.304033 g / cm^3
# Si number density = 23.092894 Si / 1000 Ang^3
#
#
#
# Elastic Constant Matrix: (Units=GPa)
#
#
# Indices 1 2 3 4 5 6 
#
# 1 83.8285 22.7223 35.9807 0.0000 0.0000 0.0000
# 2 22.7223 86.6765 26.1927 0.0000 0.0000 -0.0001
# 3 35.9807 26.1927 84.9589 0.0000 0.0000 0.0000
# 4 0.0000 0.0000 0.0000 23.4278 0.0000 0.0000
# 5 0.0000 0.0000 0.0000 0.0000 18.3699 0.0000
# 6 0.0000 -0.0001 0.0000 0.0000 0.0000 35.1648
#
#
#
# Elastic Compliance Matrix: (Units=1/GPa)
#
#
# Indices 1 2 3 4 5 6 
#
# 1 0.014954 -0.002213 -0.005651 0.000000 0.000000 0.000000
# 2 -0.002213 0.013050 -0.003086 0.000000 0.000000 0.000000
# 3 -0.005651 -0.003086 0.015115 0.000000 0.000000 0.000000
# 4 0.000000 0.000000 0.000000 0.042684 0.000000 0.000000
# 5 0.000000 0.000000 0.000000 0.000000 0.054437 0.000000
# 6 0.000000 0.000000 0.000000 0.000000 0.000000 0.028438
#
#
# Mechanical properties :
#
#
# Convention : Reuss Voigt Hill
#
# Bulk Modulus (GPa) = 47.12643 47.25058 47.18851
# Shear Modulus (GPa) = 25.29707 26.76369 26.03038
#
# Velocity S-wave (km/s) = 3.31335 3.40804 3.36103
# Velocity P-wave (km/s) = 5.92362 5.99932 5.96159
#
# Compressibility (1/GPa) = 0.02121952
#
# Stress axis : x y z
#
# Youngs Moduli (GPa) = 66.86972 76.62951 66.15867
#
# Poissons Ratio (x) = 0.16955 0.37387
# Poissons Ratio (y) = 0.14796 0.20418
# Poissons Ratio (z) = 0.37789 0.23649
#
# Static dielectric constant tensor:
#      x y z
#    x 1.938450 0.000000 0.000000 
#    y 0.000000 1.951430 0.000000 
#    z 0.000000 0.000000 1.913210 
# 
# From -- ./inp_files/26588.got.cif
#   From: 2010.05.17/outbox.cif.g08.bks.cpg/sg43_14_cif.got.tgz:26588.got - 2010.06.03 19:21:55.
