data_PCOD9371230
_publ_section_title
;
Structure prediction by ZEFSAII (Michael W. Deem and Ramdas Pophale) SiO2 
 PCOD9371230
Probable space group: F D D 2
;
_chemical_formula_sum "Si O2"
_cell_formula_units_Z 112
_cell_length_a 14.048785
_cell_length_b 23.728193
_cell_length_c 16.145481
_cell_angle_alpha 90.000000
_cell_angle_beta 90.000000
_cell_angle_gamma 90.000000
_cell_volume 5382.132934
_symmetry_space_group_name_H-M "F D D 2"
_symmetry_group_IT_number 43
_symmetry_cell_setting 'orthorhombic'
loop_
_space_group_symop_operation_xyz
x,y,z
-x,-y,z
1/4-x,1/4+y,1/4+z
1/4+x,1/4-y,1/4+z
x,1/2+y,1/2+z
-x,1/2-y,1/2+z
1/4-x,3/4+y,3/4+z
1/4+x,3/4-y,3/4+z
1/2+x,y,1/2+z
1/2-x,-y,1/2+z
3/4-x,1/4+y,3/4+z
3/4+x,1/4-y,3/4+z
1/2+x,1/2+y,z
1/2-x,1/2-y,z
3/4-x,3/4+y,1/4+z
3/4+x,3/4-y,1/4+z
loop_
_atom_site_type_symbol
_atom_site_label
_atom_site_fract_x
_atom_site_fract_y
_atom_site_fract_z
Si Si1 0.196296 0.957169 0.602620
Si Si2 0.604655 0.266858 0.736085
Si Si3 0.284442 0.326559 0.302219
Si Si4 0.178293 0.547627 0.768446
Si Si5 0.650490 0.858655 0.983456
Si Si6 0.000000 0.500000 0.693249
Si Si7 0.750000 0.250000 0.421164
Si Si8 0.992168 0.318280 0.092349
O O1 0.258897 0.993244 0.538543
O O2 0.251823 0.954273 0.688966
O O3 0.190753 0.897325 0.556894
O O4 0.089742 0.978753 0.617706
O O5 0.658320 0.207005 0.730248
O O6 0.674797 0.309614 0.785333
O O7 0.577787 0.299197 0.653104
O O8 0.302740 0.391985 0.308813
O O9 0.310995 0.291575 0.384473
O O10 0.069351 0.540880 0.741756
O O11 0.196100 0.491269 0.820111
O O12 0.708571 0.800996 0.974943
O O13 0.672900 0.891936 0.897196
O O14 0.541884 0.845834 0.011535
#
# Coordination Sequence:
#
# PCOD9371230 Si02
#       8
#    16  16  16  16  16   8   8  16
#     4  11  22  42  67  98 138 177 225 293 342 423
#     4   9  21  42  67 101 134 169 229 282 350 409
#     4  10  21  41  70  96 128 174 214 286 331 399
#     4  12  24  42  69  97 134 181 228 277 349 414
#     4  11  24  43  65 104 137 177 235 286 352 424
#     4  10  24  48  60  98 132 168 228 270 338 408
#     4  12  24  40  72 100 136 188 222 288 370 406
#     4  11  24  42  66 101 138 177 226 286 348 418
#
# _framework density 20.809594000000001
#
# number of rings (size 3 to 8) (size 9 to 14) (size 15 to 20)
#    0.000    1.429    5.714    0.857    4.000    2.286 
#    5.143    2.857    0.000    0.000    0.000    0.000 
#    0.000    0.000    0.000    0.000    0.000    0.000 
#
# Total GULP energy -156171.512018 kJ/mol
# GULP energy per Si atom -5577.554001 kJ/mol
# Density = 2.076223 g / cm^3
# Si number density = 20.809594 Si / 1000 Ang^3
#
#
#
# Elastic Constant Matrix: (Units=GPa)
#
#
# Indices 1 2 3 4 5 6 
#
# 1 84.2388 32.3889 34.5601 0.0000 0.0000 0.0000
# 2 32.3889 145.2068 49.5987 0.0000 0.0000 0.0000
# 3 34.5601 49.5987 51.8343 0.0000 0.0000 0.0000
# 4 0.0000 0.0000 0.0000 19.9518 0.0000 0.0000
# 5 0.0000 0.0000 0.0000 0.0000 26.8600 0.0000
# 6 0.0000 0.0000 0.0000 0.0000 0.0000 20.3658
#
#
#
# Elastic Compliance Matrix: (Units=1/GPa)
#
#
# Indices 1 2 3 4 5 6 
#
# 1 0.016342 0.000114 -0.011005 0.000000 0.000000 0.000000
# 2 0.000114 0.010231 -0.009866 0.000000 0.000000 0.000000
# 3 -0.011005 -0.009866 0.036070 0.000000 0.000000 0.000000
# 4 0.000000 0.000000 0.000000 0.050121 0.000000 0.000000
# 5 0.000000 0.000000 0.000000 0.000000 0.037230 0.000000
# 6 0.000000 0.000000 0.000000 0.000000 0.000000 0.049102
#
#
# Mechanical properties :
#
#
# Convention : Reuss Voigt Hill
#
# Bulk Modulus (GPa) = 47.32713 57.15281 52.23997
# Shear Modulus (GPa) = 20.18953 24.41768 22.30360
#
# Velocity S-wave (km/s) = 3.11819 3.42919 3.27738
# Velocity P-wave (km/s) = 5.97967 6.57293 6.28330
#
# Compressibility (1/GPa) = 0.02112953
#
# Stress axis : x y z
#
# Youngs Moduli (GPa) = 61.19146 97.73969 27.72386
#
# Poissons Ratio (x) = -0.01112 0.30510
# Poissons Ratio (y) = -0.00696 0.27352
# Poissons Ratio (z) = 0.67340 0.96429
#
# Static dielectric constant tensor:
#      x y z
#    x 1.855980 0.000000 0.000000 
#    y 0.000000 1.737880 0.000000 
#    z 0.000000 0.000000 1.824520 
# 
# From -- ./inp_files/10237.got.cif
#   From: 2010.05.17/outbox.cif.g08.bks.cpg/sg43_6_cif.got.tgz:10237.got - 2010.06.03 19:21:55.
