data_PCOD9371999
_publ_section_title
;
Structure prediction by ZEFSAII (Michael W. Deem and Ramdas Pophale) SiO2 
 PCOD9371999
Probable space group: F D D 2
;
_chemical_formula_sum "Si O2"
_cell_formula_units_Z 72
_cell_length_a 15.829207
_cell_length_b 27.578500
_cell_length_c 7.130952
_cell_angle_alpha 90.000000
_cell_angle_beta 90.000000
_cell_angle_gamma 90.000000
_cell_volume 3112.987040
_symmetry_space_group_name_H-M "F D D 2"
_symmetry_group_IT_number 43
_symmetry_cell_setting 'orthorhombic'
loop_
_space_group_symop_operation_xyz
x,y,z
-x,-y,z
1/4-x,1/4+y,1/4+z
1/4+x,1/4-y,1/4+z
x,1/2+y,1/2+z
-x,1/2-y,1/2+z
1/4-x,3/4+y,3/4+z
1/4+x,3/4-y,3/4+z
1/2+x,y,1/2+z
1/2-x,-y,1/2+z
3/4-x,1/4+y,3/4+z
3/4+x,1/4-y,3/4+z
1/2+x,1/2+y,z
1/2-x,1/2-y,z
3/4-x,3/4+y,1/4+z
3/4+x,3/4-y,1/4+z
loop_
_atom_site_type_symbol
_atom_site_label
_atom_site_fract_x
_atom_site_fract_y
_atom_site_fract_z
Si Si1 0.217940 0.831657 0.948970
Si Si2 0.000000 0.500000 0.287772
Si Si3 0.996377 0.167889 0.465653
Si Si4 0.698516 0.849319 0.010113
Si Si5 0.619964 0.489613 0.137639
O O1 0.210855 0.848973 0.733531
O O2 0.146258 0.791205 0.983902
O O3 0.305571 0.801466 0.966544
O O4 0.213149 0.877382 0.080780
O O5 0.001412 0.551467 0.185617
O O6 0.081598 0.497796 0.427929
O O7 0.021145 0.149335 0.672328
O O8 0.037273 0.218750 0.410466
O O9 0.896974 0.161895 0.454556
#
# Coordination Sequence:
#
# PCOD9371999 Si02
#       5
#    16   8  16  16  16
#     4   9  21  42  60  86 133 167 196 275 310 370
#     4   8  20  46  58  84 134 172 188 270 324 372
#     4  12  21  40  65  98 116 170 219 258 310 389
#     4  10  24  38  64  93 124 161 220 250 321 380
#     4   8  18  40  62  83 129 167 200 251 328 362
#
# _framework density 23.128910000000001
#
# number of rings (size 3 to 8) (size 9 to 14) (size 15 to 20)
#    0.000    3.111    2.222    0.000    6.222    1.778 
#    8.000    0.000    0.000    0.000    0.000    0.000 
#    0.000    0.000    0.000    0.000    0.000    0.000 
#
# Total GULP energy -100536.307350 kJ/mol
# GULP energy per Si atom -5585.350408 kJ/mol
# Density = 2.307627 g / cm^3
# Si number density = 23.128910 Si / 1000 Ang^3
#
#
#
# Elastic Constant Matrix: (Units=GPa)
#
#
# Indices 1 2 3 4 5 6 
#
# 1 46.5635 -5.0748 -2.2793 0.0000 -0.0004 0.0000
# 2 -5.0748 56.0127 23.9663 0.0000 0.0000 0.0000
# 3 -2.2793 23.9663 65.0844 0.0000 -0.0010 -0.0001
# 4 0.0000 0.0000 0.0000 18.7722 0.0000 0.0000
# 5 -0.0004 0.0000 -0.0010 0.0000 -6.6983 0.0000
# 6 0.0000 0.0000 -0.0001 0.0000 0.0000 33.2951
#
#
#
# Elastic Compliance Matrix: (Units=1/GPa)
#
#
# Indices 1 2 3 4 5 6 
#
# 1 0.021690 0.001947 0.000043 0.000000 -0.000001 0.000000
# 2 0.001947 0.021367 -0.007800 0.000000 0.000001 0.000000
# 3 0.000043 -0.007800 0.018238 0.000000 -0.000003 0.000000
# 4 0.000000 0.000000 0.000000 0.053270 0.000000 0.000000
# 5 -0.000001 0.000001 -0.000003 0.000000 -0.149291 0.000000
# 6 0.000000 0.000000 0.000000 0.000000 0.000000 0.030034
#
#
# Mechanical properties :
#
#
# Convention : Reuss Voigt Hill
#
# Bulk Modulus (GPa) = 20.13086 22.32058 21.22572
# Shear Modulus (GPa) = 212.87366 19.14369 116.00867
#
# Velocity S-wave (km/s) = 9.60405 2.88009 7.08987
# Velocity P-wave (km/s) = 11.47634 4.55317 8.73034
#
# Compressibility (1/GPa) = 0.04967497
#
# Stress axis : x y z
#
# Youngs Moduli (GPa) = 46.10354 46.80155 54.82961
#
# Poissons Ratio (x) = -0.09112 -0.00234
# Poissons Ratio (y) = -0.08976 0.42766
# Poissons Ratio (z) = -0.00197 0.36504
#
# Static dielectric constant tensor:
#      x y z
#    x 1.865210 0.000000 0.000000 
#    y 0.000000 1.858090 0.000000 
#    z 0.000000 0.000000 1.904440 
# 
# From -- ./inp_files/2393.got.cif
#   From: 2010.05.17/outbox.cif.g08.bks.cpg/sg43_2_cif.got.tgz:2393.got - 2010.06.03 19:21:55.
