data_PCOD9371610
_publ_section_title
;
Structure prediction by ZEFSAII (Michael W. Deem and Ramdas Pophale) SiO2 
 PCOD9371610
Probable space group: F D D 2
;
_chemical_formula_sum "Si O2"
_cell_formula_units_Z 88
_cell_length_a 30.314887
_cell_length_b 15.514651
_cell_length_c 7.465391
_cell_angle_alpha 90.000000
_cell_angle_beta 90.000000
_cell_angle_gamma 90.000000
_cell_volume 3511.159215
_symmetry_space_group_name_H-M "F D D 2"
_symmetry_group_IT_number 43
_symmetry_cell_setting 'orthorhombic'
loop_
_space_group_symop_operation_xyz
x,y,z
-x,-y,z
1/4-x,1/4+y,1/4+z
1/4+x,1/4-y,1/4+z
x,1/2+y,1/2+z
-x,1/2-y,1/2+z
1/4-x,3/4+y,3/4+z
1/4+x,3/4-y,3/4+z
1/2+x,y,1/2+z
1/2-x,-y,1/2+z
3/4-x,1/4+y,3/4+z
3/4+x,1/4-y,3/4+z
1/2+x,1/2+y,z
1/2-x,1/2-y,z
3/4-x,3/4+y,1/4+z
3/4+x,3/4-y,1/4+z
loop_
_atom_site_type_symbol
_atom_site_label
_atom_site_fract_x
_atom_site_fract_y
_atom_site_fract_z
Si Si1 0.913769 0.038163 0.327710
Si Si2 0.500000 0.000000 0.594879
Si Si3 0.235091 0.939475 0.829959
Si Si4 0.147250 0.195739 0.947145
Si Si5 0.844270 0.493556 0.537834
Si Si6 0.932045 0.231491 0.281911
O O1 0.924129 0.012004 0.533906
O O2 0.907749 0.141319 0.312740
O O3 0.957127 0.018184 0.214380
O O4 0.870867 0.999670 0.225684
O O5 0.511035 0.091907 0.504825
O O6 0.197450 0.945407 0.987901
O O7 0.216546 0.007058 0.691513
O O8 0.284441 0.970732 0.870779
O O9 0.101597 0.191649 0.828299
O O10 0.167928 0.105438 0.002963
O O11 0.131106 0.236851 0.132565
#
# Coordination Sequence:
#
# PCOD9371610 Si02
#       6
#    16   8  16  16  16  16
#     4  11  23  44  68  99 135 183 225 290 341 405
#     4  10  24  42  70  92 138 178 228 276 364 402
#     4  10  22  43  62 100 131 176 224 282 335 418
#     4  11  23  43  62 105 128 177 229 278 332 424
#     4  11  25  41  71  95 139 176 230 279 347 404
#     4  10  23  41  65  98 134 169 230 273 340 405
#
# _framework density 25.062947999999999
#
# number of rings (size 3 to 8) (size 9 to 14) (size 15 to 20)
#    0.000    1.455    3.636    2.182    7.636    1.455 
#    3.273    0.909    0.000    0.000    0.000    0.000 
#    0.000    0.000    0.000    0.000    0.000    0.000 
#
# Total GULP energy -122633.005407 kJ/mol
# GULP energy per Si atom -5574.227518 kJ/mol
# Density = 2.500590 g / cm^3
# Si number density = 25.062948 Si / 1000 Ang^3
#
#
#
# Elastic Constant Matrix: (Units=GPa)
#
#
# Indices 1 2 3 4 5 6 
#
# 1 93.8898 29.5020 -8.9886 0.0000 0.0000 0.0000
# 2 29.5020 72.1907 6.5174 0.0000 0.0000 0.0000
# 3 -8.9886 6.5174 67.4334 0.0000 0.0000 0.0000
# 4 0.0000 0.0000 0.0000 26.2605 0.0000 0.0000
# 5 0.0000 0.0000 0.0000 0.0000 24.1042 0.0000
# 6 0.0000 0.0000 0.0000 0.0000 0.0000 36.6961
#
#
#
# Elastic Compliance Matrix: (Units=1/GPa)
#
#
# Indices 1 2 3 4 5 6 
#
# 1 0.012531 -0.005318 0.002184 0.000000 0.000000 0.000000
# 2 -0.005318 0.016231 -0.002278 0.000000 0.000000 0.000000
# 3 0.002184 -0.002278 0.015341 0.000000 0.000000 0.000000
# 4 0.000000 0.000000 0.000000 0.038080 0.000000 0.000000
# 5 0.000000 0.000000 0.000000 0.000000 0.041487 0.000000
# 6 0.000000 0.000000 0.000000 0.000000 0.000000 0.027251
#
#
# Mechanical properties :
#
#
# Convention : Reuss Voigt Hill
#
# Bulk Modulus (GPa) = 30.04818 31.95285 31.00051
# Shear Modulus (GPa) = 28.92904 31.17769 30.05336
#
# Velocity S-wave (km/s) = 3.40112 3.53083 3.46658
# Velocity P-wave (km/s) = 5.23819 5.42209 5.33093
#
# Compressibility (1/GPa) = 0.03327989
#
# Stress axis : x y z
#
# Youngs Moduli (GPa) = 79.80221 61.60976 65.18593
#
# Poissons Ratio (x) = 0.32765 -0.14239
# Poissons Ratio (y) = 0.42440 0.14847
# Poissons Ratio (z) = -0.17431 0.14032
#
# Static dielectric constant tensor:
#      x y z
#    x 2.102070 0.000000 0.000000 
#    y 0.000000 1.958270 0.000000 
#    z 0.000000 0.000000 2.230250 
# 
# From -- ./inp_files/4682.got.cif
#   From: 2010.05.17/outbox.cif.g08.bks.cpg/sg43_3_cif.got.tgz:4682.got - 2010.06.03 19:21:55.
