data_PCOD9371396
_publ_section_title
;
Structure prediction by ZEFSAII (Michael W. Deem and Ramdas Pophale) SiO2 
 PCOD9371396
Probable space group: F D D 2
;
_chemical_formula_sum "Si O2"
_cell_formula_units_Z 88
_cell_length_a 10.361175
_cell_length_b 23.539789
_cell_length_c 13.595207
_cell_angle_alpha 90.000000
_cell_angle_beta 90.000000
_cell_angle_gamma 90.000000
_cell_volume 3315.869265
_symmetry_space_group_name_H-M "F D D 2"
_symmetry_group_IT_number 43
_symmetry_cell_setting 'orthorhombic'
loop_
_space_group_symop_operation_xyz
x,y,z
-x,-y,z
1/4-x,1/4+y,1/4+z
1/4+x,1/4-y,1/4+z
x,1/2+y,1/2+z
-x,1/2-y,1/2+z
1/4-x,3/4+y,3/4+z
1/4+x,3/4-y,3/4+z
1/2+x,y,1/2+z
1/2-x,-y,1/2+z
3/4-x,1/4+y,3/4+z
3/4+x,1/4-y,3/4+z
1/2+x,1/2+y,z
1/2-x,1/2-y,z
3/4-x,3/4+y,1/4+z
3/4+x,3/4-y,1/4+z
loop_
_atom_site_type_symbol
_atom_site_label
_atom_site_fract_x
_atom_site_fract_y
_atom_site_fract_z
Si Si1 0.527241 0.728800 0.089520
Si Si2 0.752877 0.049796 0.609924
Si Si3 0.750000 0.250000 0.380214
Si Si4 0.119142 0.355115 0.688506
Si Si5 0.380769 0.307847 0.283170
Si Si6 0.877704 0.907318 0.774846
O O1 0.393310 0.703928 0.129997
O O2 0.633342 0.702482 0.165803
O O3 0.556121 0.795580 0.092827
O O4 0.523983 0.707742 0.976930
O O5 0.772965 0.113127 0.572949
O O6 0.880353 0.019272 0.567504
O O7 0.644241 0.005933 0.575429
O O8 0.797332 0.197325 0.447358
O O9 0.015539 0.344420 0.775303
O O10 0.060322 0.402824 0.612950
O O11 0.255833 0.374438 0.728578
#
# Coordination Sequence:
#
# PCOD9371396 Si02
#       6
#    16  16   8  16  16  16
#     4   9  24  42  66 100 138 181 225 283 364 409
#     4  11  22  43  68  99 136 180 233 289 342 421
#     4  10  22  38  66 102 124 178 240 278 342 404
#     4  10  22  44  71  99 140 177 232 293 343 427
#     4  10  22  44  67 100 137 177 231 284 356 407
#     4  11  23  42  69  98 135 180 233 286 343 423
#
# _framework density 26.539042999999999
#
# number of rings (size 3 to 8) (size 9 to 14) (size 15 to 20)
#    1.091    0.727    3.636    1.091    2.545    2.909 
#    3.273    0.000    4.000    0.000    0.000    0.000 
#    0.000    0.000    0.000    0.000    0.000    0.000 
#
# Total GULP energy -122652.106924 kJ/mol
# GULP energy per Si atom -5575.095769 kJ/mol
# Density = 2.647864 g / cm^3
# Si number density = 26.539043 Si / 1000 Ang^3
#
#
#
# Elastic Constant Matrix: (Units=GPa)
#
#
# Indices 1 2 3 4 5 6 
#
# 1 77.6891 56.6081 3.0533 0.0000 0.0000 0.0000
# 2 56.6081 220.9680 90.8167 0.0000 0.0000 0.0000
# 3 3.0533 90.8167 117.7135 0.0000 0.0000 0.0000
# 4 0.0000 0.0000 0.0000 57.4074 0.0000 0.0000
# 5 0.0000 0.0000 0.0000 0.0000 4.3135 0.0000
# 6 0.0000 0.0000 0.0000 0.0000 0.0000 65.5259
#
#
#
# Elastic Compliance Matrix: (Units=1/GPa)
#
#
# Indices 1 2 3 4 5 6 
#
# 1 0.017210 -0.006187 0.004327 0.000000 0.000000 0.000000
# 2 -0.006187 0.008851 -0.006668 0.000000 0.000000 0.000000
# 3 0.004327 -0.006668 0.013528 0.000000 0.000000 0.000000
# 4 0.000000 0.000000 0.000000 0.017419 0.000000 0.000000
# 5 0.000000 0.000000 0.000000 0.000000 0.231832 0.000000
# 6 0.000000 0.000000 0.000000 0.000000 0.000000 0.015261
#
#
# Mechanical properties :
#
#
# Convention : Reuss Voigt Hill
#
# Bulk Modulus (GPa) = 44.38122 79.70297 62.04210
# Shear Modulus (GPa) = 15.21288 43.17551 29.19419
#
# Velocity S-wave (km/s) = 2.39681 4.03782 3.32029
# Velocity P-wave (km/s) = 4.94155 7.19974 6.17475
#
# Compressibility (1/GPa) = 0.02253205
#
# Stress axis : x y z
#
# Youngs Moduli (GPa) = 58.10508 112.97780 73.92284
#
# Poissons Ratio (x) = 0.69904 -0.31988
# Poissons Ratio (y) = 0.35952 0.49294
# Poissons Ratio (z) = -0.25143 0.75337
#
# Static dielectric constant tensor:
#      x y z
#    x 2.217210 0.000000 0.000000 
#    y 0.000000 2.114530 0.000000 
#    z 0.000000 0.000000 2.134460 
# 
# From -- ./inp_files/10135.got.cif
#   From: 2010.05.17/outbox.cif.g08.bks.cpg/sg43_6_cif.got.tgz:10135.got - 2010.06.03 19:21:55.
