data_PCOD9371657
_publ_section_title
;
Structure prediction by ZEFSAII (Michael W. Deem and Ramdas Pophale) SiO2 
 PCOD9371657
Probable space group: F D D 2
;
_chemical_formula_sum "Si O2"
_cell_formula_units_Z 96
_cell_length_a 19.041122
_cell_length_b 23.835750
_cell_length_c 9.557574
_cell_angle_alpha 90.000000
_cell_angle_beta 90.000000
_cell_angle_gamma 90.000000
_cell_volume 4337.795028
_symmetry_space_group_name_H-M "F D D 2"
_symmetry_group_IT_number 43
_symmetry_cell_setting 'orthorhombic'
loop_
_space_group_symop_operation_xyz
x,y,z
-x,-y,z
1/4-x,1/4+y,1/4+z
1/4+x,1/4-y,1/4+z
x,1/2+y,1/2+z
-x,1/2-y,1/2+z
1/4-x,3/4+y,3/4+z
1/4+x,3/4-y,3/4+z
1/2+x,y,1/2+z
1/2-x,-y,1/2+z
3/4-x,1/4+y,3/4+z
3/4+x,1/4-y,3/4+z
1/2+x,1/2+y,z
1/2-x,1/2-y,z
3/4-x,3/4+y,1/4+z
3/4+x,3/4-y,1/4+z
loop_
_atom_site_type_symbol
_atom_site_label
_atom_site_fract_x
_atom_site_fract_y
_atom_site_fract_z
Si Si1 0.750000 0.750000 0.908830
Si Si2 0.000000 0.000000 0.195448
Si Si3 0.141412 0.288608 0.675130
Si Si4 0.182755 0.140718 0.324139
Si Si5 0.453146 0.304110 0.001690
Si Si6 0.746816 0.026168 0.461661
Si Si7 0.932622 0.106505 0.754244
O O1 0.814430 0.731311 0.809226
O O2 0.766946 0.803393 0.001728
O O3 0.954941 0.046747 0.113485
O O4 0.056368 0.030549 0.295277
O O5 0.117424 0.353953 0.674784
O O6 0.072007 0.249083 0.661685
O O7 0.253168 0.103895 0.319630
O O8 0.158230 0.134528 0.163612
O O9 0.440056 0.260482 0.126606
O O10 0.387269 0.334276 0.928653
O O11 0.496650 0.272353 0.880019
O O12 0.722685 0.090366 0.441829
#
# Coordination Sequence:
#
# PCOD9371657 Si02
#       7
#     8   8  16  16  16  16  16
#     4  11  23  42  66 104 139 177 228 284 330 417
#     4  11  23  42  68 100 133 183 228 286 342 425
#     4  10  23  45  64  99 139 180 229 276 352 407
#     4  10  23  41  67  96 137 176 228 283 340 407
#     4  10  22  44  63 100 132 179 229 274 343 412
#     4  10  23  44  67  94 138 180 224 277 345 412
#     4  11  23  40  68 100 132 174 227 285 337 403
#
# _framework density 22.131060000000002
#
# number of rings (size 3 to 8) (size 9 to 14) (size 15 to 20)
#    0.000    1.667    1.667    1.500    2.333    8.000 
#   12.000    0.000    0.000    0.000    0.000    0.000 
#    0.000    0.000    0.000    0.000    0.000    0.000 
#
# Total GULP energy -133766.983793 kJ/mol
# GULP energy per Si atom -5573.624325 kJ/mol
# Density = 2.208069 g / cm^3
# Si number density = 22.131060 Si / 1000 Ang^3
#
#
#
# Elastic Constant Matrix: (Units=GPa)
#
#
# Indices 1 2 3 4 5 6 
#
# 1 75.9882 29.7570 9.5600 0.0000 0.0000 0.0000
# 2 29.7570 117.6711 21.0826 0.0000 0.0000 0.0000
# 3 9.5600 21.0826 46.5119 0.0000 0.0000 0.0000
# 4 0.0000 0.0000 0.0000 29.4509 0.0000 0.0000
# 5 0.0000 0.0000 0.0000 0.0000 14.2348 0.0000
# 6 0.0000 0.0000 0.0000 0.0000 0.0000 32.3908
#
#
#
# Elastic Compliance Matrix: (Units=1/GPa)
#
#
# Indices 1 2 3 4 5 6 
#
# 1 0.014696 -0.003456 -0.001454 0.000000 0.000000 0.000000
# 2 -0.003456 0.010062 -0.003851 0.000000 0.000000 0.000000
# 3 -0.001454 -0.003851 0.023544 0.000000 0.000000 0.000000
# 4 0.000000 0.000000 0.000000 0.033955 0.000000 0.000000
# 5 0.000000 0.000000 0.000000 0.000000 0.070250 0.000000
# 6 0.000000 0.000000 0.000000 0.000000 0.000000 0.030873
#
#
# Mechanical properties :
#
#
# Convention : Reuss Voigt Hill
#
# Bulk Modulus (GPa) = 32.48739 40.10784 36.29762
# Shear Modulus (GPa) = 23.67849 27.20007 25.43928
#
# Velocity S-wave (km/s) = 3.27451 3.50958 3.39408
# Velocity P-wave (km/s) = 5.38591 5.88091 5.63884
#
# Compressibility (1/GPa) = 0.03078117
#
# Stress axis : x y z
#
# Youngs Moduli (GPa) = 68.04476 99.38298 42.47341
#
# Poissons Ratio (x) = 0.34346 0.06176
# Poissons Ratio (y) = 0.23515 0.16355
# Poissons Ratio (z) = 0.09895 0.38268
#
# Static dielectric constant tensor:
#      x y z
#    x 1.889980 0.000000 0.000000 
#    y 0.000000 1.807090 0.000000 
#    z 0.000000 0.000000 1.814210 
# 
# From -- ./inp_files/6719.got.cif
#   From: 2010.05.17/outbox.cif.g08.bks.cpg/sg43_4_cif.got.tgz:6719.got - 2010.06.03 19:21:55.
