data_PCOD9371961
_publ_section_title
;
Structure prediction by ZEFSAII (Michael W. Deem and Ramdas Pophale) SiO2 
 PCOD9371961
Probable space group: F D D 2
;
_chemical_formula_sum "Si O2"
_cell_formula_units_Z 64
_cell_length_a 22.611125
_cell_length_b 18.029984
_cell_length_c 6.972682
_cell_angle_alpha 90.000000
_cell_angle_beta 90.000000
_cell_angle_gamma 90.000000
_cell_volume 2842.610600
_symmetry_space_group_name_H-M "F D D 2"
_symmetry_group_IT_number 43
_symmetry_cell_setting 'orthorhombic'
loop_
_space_group_symop_operation_xyz
x,y,z
-x,-y,z
1/4-x,1/4+y,1/4+z
1/4+x,1/4-y,1/4+z
x,1/2+y,1/2+z
-x,1/2-y,1/2+z
1/4-x,3/4+y,3/4+z
1/4+x,3/4-y,3/4+z
1/2+x,y,1/2+z
1/2-x,-y,1/2+z
3/4-x,1/4+y,3/4+z
3/4+x,1/4-y,3/4+z
1/2+x,1/2+y,z
1/2-x,1/2-y,z
3/4-x,3/4+y,1/4+z
3/4+x,3/4-y,1/4+z
loop_
_atom_site_type_symbol
_atom_site_label
_atom_site_fract_x
_atom_site_fract_y
_atom_site_fract_z
Si Si1 0.428034 0.312761 0.014240
Si Si2 0.242647 0.929932 0.392810
Si Si3 0.947434 0.560456 0.398466
Si Si4 0.743758 0.334309 0.014181
O O1 0.479600 0.259020 0.092720
O O2 0.365578 0.281875 0.081154
O O3 0.440788 0.391553 0.118570
O O4 0.436512 0.315905 0.785124
O O5 0.287957 0.880749 0.516751
O O6 0.235971 0.886816 0.194492
O O7 0.000000 0.500000 0.375757
O O8 0.950310 0.588339 0.618662
O O9 0.750000 0.250000 0.084068
#
# Coordination Sequence:
#
# PCOD9371961 Si02
#       4
#    16  16  16  16
#     4  11  24  45  73 105 147 186 252 308 369 454
#     4  11  23  44  69 108 140 196 240 309 371 433
#     4  10  25  45  72 106 144 193 248 305 375 448
#     4  10  23  46  70 103 141 189 246 298 374 433
#
# _framework density 22.514517000000001
#
# number of rings (size 3 to 8) (size 9 to 14) (size 15 to 20)
#    0.000    1.500    2.500    0.750   10.500    3.000 
#    4.500    0.000    0.000    0.000    0.000    0.000 
#    0.000    0.000    0.000    0.000    0.000    0.000 
#
# Total GULP energy -89278.426212 kJ/mol
# GULP energy per Si atom -5579.901638 kJ/mol
# Density = 2.246327 g / cm^3
# Si number density = 22.514517 Si / 1000 Ang^3
#
#
#
# Elastic Constant Matrix: (Units=GPa)
#
#
# Indices 1 2 3 4 5 6 
#
# 1 106.6499 30.9973 56.9627 0.0000 0.0000 0.0000
# 2 30.9973 100.5256 34.3908 0.0000 0.0000 0.0000
# 3 56.9627 34.3908 184.5375 0.0001 0.0000 0.0000
# 4 0.0000 0.0000 0.0001 33.6108 0.0000 0.0000
# 5 0.0000 0.0000 0.0000 0.0000 15.6988 0.0000
# 6 0.0000 0.0000 0.0000 0.0000 0.0000 22.2959
#
#
#
# Elastic Compliance Matrix: (Units=1/GPa)
#
#
# Indices 1 2 3 4 5 6 
#
# 1 0.011813 -0.002558 -0.003170 0.000000 0.000000 0.000000
# 2 -0.002558 0.011179 -0.001294 0.000000 0.000000 0.000000
# 3 -0.003170 -0.001294 0.006638 0.000000 0.000000 0.000000
# 4 0.000000 0.000000 0.000000 0.029752 0.000000 0.000000
# 5 0.000000 0.000000 0.000000 0.000000 0.063699 0.000000
# 6 0.000000 0.000000 0.000000 0.000000 0.000000 0.044851
#
#
# Mechanical properties :
#
#
# Convention : Reuss Voigt Hill
#
# Bulk Modulus (GPa) = 64.15422 70.71273 67.43348
# Shear Modulus (GPa) = 26.71339 32.27859 29.49599
#
# Velocity S-wave (km/s) = 3.44829 3.79050 3.62344
# Velocity P-wave (km/s) = 6.66414 7.11569 6.89361
#
# Compressibility (1/GPa) = 0.01558744
#
# Stress axis : x y z
#
# Youngs Moduli (GPa) = 84.65302 89.45238 150.63759
#
# Poissons Ratio (x) = 0.22884 0.47747
# Poissons Ratio (y) = 0.21656 0.19488
# Poissons Ratio (z) = 0.26832 0.11573
#
# Static dielectric constant tensor:
#      x y z
#    x 1.863830 0.000000 0.000000 
#    y 0.000000 1.889340 0.000000 
#    z 0.000000 0.000000 1.862360 
# 
# From -- ./inp_files/843.got.cif
#   From: 2010.05.17/outbox.cif.g08.bks.cpg/sg43_1_cif.got.tgz:843.got - 2010.06.03 19:21:55.
