data_PCOD9371439
_publ_section_title
;
Structure prediction by ZEFSAII (Michael W. Deem and Ramdas Pophale) SiO2 
 PCOD9371439
Probable space group: F D D 2
;
_chemical_formula_sum "Si O2"
_cell_formula_units_Z 112
_cell_length_a 15.330750
_cell_length_b 11.365953
_cell_length_c 29.348493
_cell_angle_alpha 90.000000
_cell_angle_beta 90.000000
_cell_angle_gamma 90.000000
_cell_volume 5113.933346
_symmetry_space_group_name_H-M "F D D 2"
_symmetry_group_IT_number 43
_symmetry_cell_setting 'orthorhombic'
loop_
_space_group_symop_operation_xyz
x,y,z
-x,-y,z
1/4-x,1/4+y,1/4+z
1/4+x,1/4-y,1/4+z
x,1/2+y,1/2+z
-x,1/2-y,1/2+z
1/4-x,3/4+y,3/4+z
1/4+x,3/4-y,3/4+z
1/2+x,y,1/2+z
1/2-x,-y,1/2+z
3/4-x,1/4+y,3/4+z
3/4+x,1/4-y,3/4+z
1/2+x,1/2+y,z
1/2-x,1/2-y,z
3/4-x,3/4+y,1/4+z
3/4+x,3/4-y,1/4+z
loop_
_atom_site_type_symbol
_atom_site_label
_atom_site_fract_x
_atom_site_fract_y
_atom_site_fract_z
Si Si1 0.851377 0.230797 0.917840
Si Si2 0.833550 0.425601 0.283572
Si Si3 0.152403 0.768316 0.628381
Si Si4 0.934267 0.394527 0.845892
Si Si5 0.733656 0.007240 0.021072
Si Si6 0.897382 0.285686 0.013856
Si Si7 0.836879 0.673420 0.230383
O O1 0.750000 0.250000 0.925623
O O2 0.884974 0.340844 0.888455
O O3 0.866001 0.109426 0.891550
O O4 0.903312 0.223323 0.965215
O O5 0.845265 0.430192 0.337952
O O6 0.912916 0.345466 0.266244
O O7 0.734457 0.390426 0.272879
O O8 0.838355 0.554445 0.260140
O O9 0.250000 0.750000 0.609696
O O10 0.160974 0.841205 0.675439
O O11 0.872503 0.449097 0.806144
O O12 0.000000 0.500000 0.858233
O O13 0.985992 0.285811 0.822651
O O14 0.821257 0.984767 0.993109
O O15 0.684099 0.127036 0.008730
O O16 0.750000 0.750000 0.241510
#
# Coordination Sequence:
#
# PCOD9371439 Si02
#       7
#    16  16  16  16  16  16  16
#     4  12  23  40  67  94 121 164 219 268 315 378
#     4  12  24  41  66  94 129 172 213 263 324 387
#     4  11  23  40  64  95 126 161 214 272 320 374
#     4  10  22  40  63  91 129 168 213 267 324 387
#     4  11  23  42  62  91 131 170 207 262 326 387
#     4  11  24  43  63  92 132 172 212 264 322 383
#     4  11  23  42  67  95 126 165 218 270 322 382
#
# _framework density 21.900950000000002
#
# number of rings (size 3 to 8) (size 9 to 14) (size 15 to 20)
#    0.000    0.857    0.000    9.857    0.000    2.286 
#    0.000    6.429    0.000    0.000    0.000    0.000 
#    0.000    0.000    0.000    0.000    0.000    0.000 
#
# Total GULP energy -156634.175686 kJ/mol
# GULP energy per Si atom -5594.077703 kJ/mol
# Density = 2.185110 g / cm^3
# Si number density = 21.900950 Si / 1000 Ang^3
#
#
#
# Elastic Constant Matrix: (Units=GPa)
#
#
# Indices 1 2 3 4 5 6 
#
# 1 145.8228 30.5631 36.0151 0.0000 0.0000 0.0000
# 2 30.5631 73.7468 31.4158 0.0000 0.0000 0.0000
# 3 36.0151 31.4158 85.8657 0.0000 0.0000 0.0000
# 4 0.0000 0.0000 0.0000 17.7013 0.0000 0.0000
# 5 0.0000 0.0000 0.0000 0.0000 31.7358 0.0000
# 6 0.0000 0.0000 0.0000 0.0000 0.0000 34.2278
#
#
#
# Elastic Compliance Matrix: (Units=1/GPa)
#
#
# Indices 1 2 3 4 5 6 
#
# 1 0.007945 -0.002219 -0.002521 0.000000 0.000000 0.000000
# 2 -0.002219 0.016683 -0.005173 0.000000 0.000000 0.000000
# 3 -0.002521 -0.005173 0.014596 0.000000 0.000000 0.000000
# 4 0.000000 0.000000 0.000000 0.056493 0.000000 0.000000
# 5 0.000000 0.000000 0.000000 0.000000 0.031510 0.000000
# 6 0.000000 0.000000 0.000000 0.000000 0.000000 0.029216
#
#
# Mechanical properties :
#
#
# Convention : Reuss Voigt Hill
#
# Bulk Modulus (GPa) = 51.54930 55.71370 53.63150
# Shear Modulus (GPa) = 27.36190 30.56240 28.96215
#
# Velocity S-wave (km/s) = 3.53845 3.73967 3.64045
# Velocity P-wave (km/s) = 6.34687 6.64387 6.49706
#
# Compressibility (1/GPa) = 0.01939891
#
# Stress axis : x y z
#
# Youngs Moduli (GPa) = 125.86114 59.94017 68.51153
#
# Poissons Ratio (x) = 0.13301 0.17269
# Poissons Ratio (y) = 0.27928 0.35443
# Poissons Ratio (z) = 0.31725 0.31008
#
# Static dielectric constant tensor:
#      x y z
#    x 1.811950 0.000000 0.000000 
#    y 0.000000 1.832820 0.000000 
#    z 0.000000 0.000000 1.805190 
# 
# From -- ./inp_files/28632.got.cif
#   From: 2010.05.17/outbox.cif.g08.bks.cpg/sg43_15_cif.got.tgz:28632.got - 2010.06.03 19:21:55.
