data_PCOD9371026
_publ_section_title
;
Structure prediction by ZEFSAII (Michael W. Deem and Ramdas Pophale) SiO2 
 PCOD9371026
Probable space group: F D D 2
;
_chemical_formula_sum "Si O2"
_cell_formula_units_Z 88
_cell_length_a 9.153498
_cell_length_b 17.595030
_cell_length_c 23.229553
_cell_angle_alpha 90.000000
_cell_angle_beta 90.000000
_cell_angle_gamma 90.000000
_cell_volume 3741.260559
_symmetry_space_group_name_H-M "F D D 2"
_symmetry_group_IT_number 43
_symmetry_cell_setting 'orthorhombic'
loop_
_space_group_symop_operation_xyz
x,y,z
-x,-y,z
1/4-x,1/4+y,1/4+z
1/4+x,1/4-y,1/4+z
x,1/2+y,1/2+z
-x,1/2-y,1/2+z
1/4-x,3/4+y,3/4+z
1/4+x,3/4-y,3/4+z
1/2+x,y,1/2+z
1/2-x,-y,1/2+z
3/4-x,1/4+y,3/4+z
3/4+x,1/4-y,3/4+z
1/2+x,1/2+y,z
1/2-x,1/2-y,z
3/4-x,3/4+y,1/4+z
3/4+x,3/4-y,1/4+z
loop_
_atom_site_type_symbol
_atom_site_label
_atom_site_fract_x
_atom_site_fract_y
_atom_site_fract_z
Si Si1 0.992545 0.245287 0.190760
Si Si2 0.906495 0.361516 0.787102
Si Si3 0.975860 0.611654 0.907157
Si Si4 0.000000 0.000000 0.766779
Si Si5 0.100571 0.392273 0.350021
Si Si6 0.037571 0.776986 0.946961
O O1 0.056831 0.215711 0.251768
O O2 0.819376 0.080768 0.430803
O O3 0.098766 0.212308 0.141339
O O4 0.848283 0.196178 0.178760
O O5 0.020541 0.382005 0.837612
O O6 0.746656 0.362309 0.817514
O O7 0.896500 0.429604 0.740352
O O8 0.045958 0.690268 0.928492
O O9 0.018868 0.073662 0.807028
O O10 0.865075 0.024256 0.729296
O O11 0.039307 0.327019 0.389975
#
# Coordination Sequence:
#
# PCOD9371026 Si02
#       6
#    16  16  16   8  16  16
#     4   9  20  37  59  94 128 166 217 263 320 384
#     4   9  20  39  63  91 130 172 213 268 323 380
#     4  10  21  37  61  93 130 167 214 267 317 380
#     4  10  22  40  62  88 128 168 206 274 328 370
#     4   9  20  39  64  93 125 169 216 260 322 392
#     4  10  22  40  62  93 127 168 219 263 320 393
#
# _framework density 23.521483
#
# number of rings (size 3 to 8) (size 9 to 14) (size 15 to 20)
#    0.000    2.545    0.000    0.000    0.000   16.727 
#    0.000   12.727    0.000    0.000    0.000    0.000 
#    0.000    0.000    0.000    0.000    0.000    0.000 
#
# Total GULP energy -122759.984027 kJ/mol
# GULP energy per Si atom -5579.999274 kJ/mol
# Density = 2.346795 g / cm^3
# Si number density = 23.521483 Si / 1000 Ang^3
#
#
#
# Elastic Constant Matrix: (Units=GPa)
#
#
# Indices 1 2 3 4 5 6 
#
# 1 76.4445 59.0067 50.8694 0.0000 0.0000 0.0000
# 2 59.0067 121.7878 70.4227 0.0000 0.0000 0.0000
# 3 50.8694 70.4227 145.9270 0.0000 0.0000 0.0000
# 4 0.0000 0.0000 0.0000 25.0931 0.0000 0.0000
# 5 0.0000 0.0000 0.0000 0.0000 -7.4463 0.0000
# 6 0.0000 0.0000 0.0000 0.0000 0.0000 37.3449
#
#
#
# Elastic Compliance Matrix: (Units=1/GPa)
#
#
# Indices 1 2 3 4 5 6 
#
# 1 0.022129 -0.008685 -0.003523 0.000000 0.000000 0.000000
# 2 -0.008685 0.014797 -0.004114 0.000000 0.000000 0.000000
# 3 -0.003523 -0.004114 0.010066 0.000000 0.000000 0.000000
# 4 0.000000 0.000000 0.000000 0.039852 0.000000 0.000000
# 5 0.000000 0.000000 0.000000 0.000000 -0.134295 0.000000
# 6 0.000000 0.000000 0.000000 0.000000 0.000000 0.026777
#
#
# Mechanical properties :
#
#
# Convention : Reuss Voigt Hill
#
# Bulk Modulus (GPa) = 69.68561 78.30632 73.99597
# Shear Modulus (GPa) = 298.46478 21.92238 160.19358
#
# Velocity S-wave (km/s) = 11.27678 3.05620 8.26154
# Velocity P-wave (km/s) = 14.11542 6.76886 11.06938
#
# Compressibility (1/GPa) = 0.01435016
#
# Stress axis : x y z
#
# Youngs Moduli (GPa) = 45.18894 67.57950 99.34351
#
# Poissons Ratio (x) = 0.58690 0.35000
# Poissons Ratio (y) = 0.39245 0.40867
# Poissons Ratio (z) = 0.15921 0.27800
#
# Static dielectric constant tensor:
#      x y z
#    x 1.888640 0.000000 0.000000 
#    y 0.000000 2.003430 0.000000 
#    z 0.000000 0.000000 1.968580 
# 
# From -- ./inp_files/21129.got.cif
#   From: 2010.05.17/outbox.cif.g08.bks.cpg/sg43_11_cif.got.tgz:21129.got - 2010.06.03 19:21:55.
