data_PCOD9371323
_publ_section_title
;
Structure prediction by ZEFSAII (Michael W. Deem and Ramdas Pophale) SiO2 
 PCOD9371323
Probable space group: F D D 2
;
_chemical_formula_sum "Si O2"
_cell_formula_units_Z 120
_cell_length_a 39.908274
_cell_length_b 14.855407
_cell_length_c 8.398130
_cell_angle_alpha 90.000000
_cell_angle_beta 90.000000
_cell_angle_gamma 90.000000
_cell_volume 4978.862048
_symmetry_space_group_name_H-M "F D D 2"
_symmetry_group_IT_number 43
_symmetry_cell_setting 'orthorhombic'
loop_
_space_group_symop_operation_xyz
x,y,z
-x,-y,z
1/4-x,1/4+y,1/4+z
1/4+x,1/4-y,1/4+z
x,1/2+y,1/2+z
-x,1/2-y,1/2+z
1/4-x,3/4+y,3/4+z
1/4+x,3/4-y,3/4+z
1/2+x,y,1/2+z
1/2-x,-y,1/2+z
3/4-x,1/4+y,3/4+z
3/4+x,1/4-y,3/4+z
1/2+x,1/2+y,z
1/2-x,1/2-y,z
3/4-x,3/4+y,1/4+z
3/4+x,3/4-y,1/4+z
loop_
_atom_site_type_symbol
_atom_site_label
_atom_site_fract_x
_atom_site_fract_y
_atom_site_fract_z
Si Si1 0.408714 0.297327 0.056330
Si Si2 0.663960 0.691172 0.012414
Si Si3 0.574884 0.627347 0.716698
Si Si4 0.000000 0.500000 0.497812
Si Si5 0.805814 0.202267 0.001070
Si Si6 0.731372 0.412594 0.244943
Si Si7 0.774135 0.413832 0.541002
Si Si8 0.899298 0.602775 0.914944
O O1 0.369681 0.294661 0.113374
O O2 0.427424 0.357685 0.190655
O O3 0.416777 0.353009 0.898337
O O4 0.414730 0.198589 0.974047
O O5 0.688356 0.775666 0.991087
O O6 0.686079 0.605748 0.055460
O O7 0.648604 0.691831 0.837240
O O8 0.547718 0.685231 0.624248
O O9 0.610194 0.633744 0.621353
O O10 0.967931 0.487440 0.611298
O O11 0.005516 0.411250 0.394028
O O12 0.782584 0.173704 0.150797
O O13 0.830679 0.284020 0.051644
O O14 0.763595 0.403761 0.357059
O O15 0.735424 0.490872 0.115954
#
# Coordination Sequence:
#
# PCOD9371323 Si02
#       8
#    16  16  16   8  16  16  16  16
#     4  10  23  44  72 109 150 185 253 315 383 457
#     4  10  21  44  71 104 142 196 235 305 385 445
#     4  10  22  45  69 105 146 187 239 313 373 453
#     4  12  30  48  70 108 142 202 256 306 384 442
#     4  12  26  47  73 110 149 198 257 315 375 468
#     4  12  27  46  74 104 152 193 254 303 380 451
#     4  12  27  47  74 106 147 199 249 315 376 458
#     4  10  23  42  74 105 144 189 245 309 384 447
#
# _framework density 24.101894000000001
#
# number of rings (size 3 to 8) (size 9 to 14) (size 15 to 20)
#    0.000    1.067    1.333    4.000    5.600    1.067 
#    2.400    0.000    0.000    0.000    0.000    0.000 
#    0.000    0.000    0.000    0.000    0.000    0.000 
#
# Total GULP energy -167283.661679 kJ/mol
# GULP energy per Si atom -5576.122056 kJ/mol
# Density = 2.404704 g / cm^3
# Si number density = 24.101894 Si / 1000 Ang^3
#
#
#
# Elastic Constant Matrix: (Units=GPa)
#
#
# Indices 1 2 3 4 5 6 
#
# 1 98.5356 35.4888 26.9472 0.0000 0.0000 0.0000
# 2 35.4888 101.5982 16.4171 0.0000 0.0000 0.0000
# 3 26.9472 16.4171 70.0986 0.0000 0.0000 0.0000
# 4 0.0000 0.0000 0.0000 28.0909 0.0000 0.0000
# 5 0.0000 0.0000 0.0000 0.0000 26.5226 0.0000
# 6 0.0000 0.0000 0.0000 0.0000 0.0000 26.3051
#
#
#
# Elastic Compliance Matrix: (Units=1/GPa)
#
#
# Indices 1 2 3 4 5 6 
#
# 1 0.012584 -0.003756 -0.003958 0.000000 0.000000 0.000000
# 2 -0.003756 0.011351 -0.001214 0.000000 0.000000 0.000000
# 3 -0.003958 -0.001214 0.016072 0.000000 0.000000 0.000000
# 4 0.000000 0.000000 0.000000 0.035599 0.000000 0.000000
# 5 0.000000 0.000000 0.000000 0.000000 0.037704 0.000000
# 6 0.000000 0.000000 0.000000 0.000000 0.000000 0.038015
#
#
# Mechanical properties :
#
#
# Convention : Reuss Voigt Hill
#
# Bulk Modulus (GPa) = 45.14758 47.54874 46.34816
# Shear Modulus (GPa) = 28.31836 28.94234 28.63035
#
# Velocity S-wave (km/s) = 3.43146 3.46906 3.45031
# Velocity P-wave (km/s) = 5.87133 5.98472 5.92830
#
# Compressibility (1/GPa) = 0.02214958
#
# Stress axis : x y z
#
# Youngs Moduli (GPa) = 79.46751 88.09832 62.22194
#
# Poissons Ratio (x) = 0.33090 0.24626
# Poissons Ratio (y) = 0.29848 0.07557
# Poissons Ratio (z) = 0.31451 0.10700
#
# Static dielectric constant tensor:
#      x y z
#    x 2.061780 0.000000 0.000000 
#    y 0.000000 2.041500 0.000000 
#    z 0.000000 0.000000 1.945680 
# 
# From -- ./inp_files/4427.got.cif
#   From: 2010.05.17/outbox.cif.g08.bks.cpg/sg43_3_cif.got.tgz:4427.got - 2010.06.03 19:21:55.
