data_PCOD9371447
_publ_section_title
;
Structure prediction by ZEFSAII (Michael W. Deem and Ramdas Pophale) SiO2 
 PCOD9371447
Probable space group: F D D 2
;
_chemical_formula_sum "Si O2"
_cell_formula_units_Z 64
_cell_length_a 13.076110
_cell_length_b 15.797379
_cell_length_c 12.289142
_cell_angle_alpha 90.000000
_cell_angle_beta 90.000000
_cell_angle_gamma 90.000000
_cell_volume 2538.546748
_symmetry_space_group_name_H-M "F D D 2"
_symmetry_group_IT_number 43
_symmetry_cell_setting 'orthorhombic'
loop_
_space_group_symop_operation_xyz
x,y,z
-x,-y,z
1/4-x,1/4+y,1/4+z
1/4+x,1/4-y,1/4+z
x,1/2+y,1/2+z
-x,1/2-y,1/2+z
1/4-x,3/4+y,3/4+z
1/4+x,3/4-y,3/4+z
1/2+x,y,1/2+z
1/2-x,-y,1/2+z
3/4-x,1/4+y,3/4+z
3/4+x,1/4-y,3/4+z
1/2+x,1/2+y,z
1/2-x,1/2-y,z
3/4-x,3/4+y,1/4+z
3/4+x,3/4-y,1/4+z
loop_
_atom_site_type_symbol
_atom_site_label
_atom_site_fract_x
_atom_site_fract_y
_atom_site_fract_z
Si Si1 0.730028 0.928733 0.894100
Si Si2 0.460548 0.907611 0.355580
Si Si3 0.454197 0.623522 0.095951
Si Si4 0.238495 0.655721 0.081069
O O1 0.838350 0.901452 0.847269
O O2 0.627486 0.879052 0.856595
O O3 0.714193 0.025440 0.859837
O O4 0.746399 0.914305 0.022741
O O5 0.501291 0.899718 0.478865
O O6 0.500000 0.000000 0.316619
O O7 0.334983 0.599981 0.115125
O O8 0.509656 0.588022 0.201695
O O9 0.250000 0.750000 0.129918
#
# Coordination Sequence:
#
# PCOD9371447 Si02
#       4
#    16  16  16  16
#     4  11  25  42  65  97 132 172 220 275 334 398
#     4  12  25  44  68  98 132 172 221 276 334 396
#     4  11  23  42  66  95 132 175 221 273 333 401
#     4  10  22  40  64  94 129 173 220 270 331 399
#
# _framework density 25.211274
#
# number of rings (size 3 to 8) (size 9 to 14) (size 15 to 20)
#    0.000    1.000    0.000    6.750    0.000   10.000 
#    0.000    0.000    0.000    0.000    0.000    0.000 
#    0.000    0.000    0.000    0.000    0.000    0.000 
#
# Total GULP energy -89431.258148 kJ/mol
# GULP energy per Si atom -5589.453634 kJ/mol
# Density = 2.515389 g / cm^3
# Si number density = 25.211274 Si / 1000 Ang^3
#
#
#
# Elastic Constant Matrix: (Units=GPa)
#
#
# Indices 1 2 3 4 5 6 
#
# 1 142.0871 4.9642 10.8276 0.0000 0.0000 0.0000
# 2 4.9642 57.9415 15.9937 0.0000 0.0000 0.0000
# 3 10.8276 15.9937 103.5746 0.0000 0.0000 0.0000
# 4 0.0000 0.0000 0.0000 39.6481 0.0000 0.0000
# 5 0.0000 0.0000 0.0000 0.0000 39.2521 0.0000
# 6 0.0000 0.0000 0.0000 0.0000 0.0000 16.9963
#
#
#
# Elastic Compliance Matrix: (Units=1/GPa)
#
#
# Indices 1 2 3 4 5 6 
#
# 1 0.007104 -0.000422 -0.000678 0.000000 0.000000 0.000000
# 2 -0.000422 0.018052 -0.002743 0.000000 0.000000 0.000000
# 3 -0.000678 -0.002743 0.010149 0.000000 0.000000 0.000000
# 4 0.000000 0.000000 0.000000 0.025222 0.000000 0.000000
# 5 0.000000 0.000000 0.000000 0.000000 0.025476 0.000000
# 6 0.000000 0.000000 0.000000 0.000000 0.000000 0.058836
#
#
# Mechanical properties :
#
#
# Convention : Reuss Voigt Hill
#
# Bulk Modulus (GPa) = 36.20506 40.79714 38.50110
# Shear Modulus (GPa) = 30.91522 37.30048 34.10785
#
# Velocity S-wave (km/s) = 3.50558 3.85062 3.68214
# Velocity P-wave (km/s) = 5.54773 5.99891 5.77772
#
# Compressibility (1/GPa) = 0.02762045
#
# Stress axis : x y z
#
# Youngs Moduli (GPa) = 140.75978 55.39491 98.52843
#
# Poissons Ratio (x) = 0.02336 0.06676
# Poissons Ratio (y) = 0.05935 0.27031
# Poissons Ratio (z) = 0.09537 0.15198
#
# Static dielectric constant tensor:
#      x y z
#    x 2.079840 0.000000 0.000000 
#    y 0.000000 1.979450 0.000000 
#    z 0.000000 0.000000 1.985210 
# 
# From -- ./inp_files/5934.got.cif
#   From: 2010.05.17/outbox.cif.g08.bks.cpg/sg43_3_cif.got.tgz:5934.got - 2010.06.03 19:21:55.
