data_PCOD9371051
_publ_section_title
;
Structure prediction by ZEFSAII (Michael W. Deem and Ramdas Pophale) SiO2 
 PCOD9371051
Probable space group: F D D 2
;
_chemical_formula_sum "Si O2"
_cell_formula_units_Z 96
_cell_length_a 23.517996
_cell_length_b 13.710526
_cell_length_c 13.760569
_cell_angle_alpha 90.000000
_cell_angle_beta 90.000000
_cell_angle_gamma 90.000000
_cell_volume 4437.014227
_symmetry_space_group_name_H-M "F D D 2"
_symmetry_group_IT_number 43
_symmetry_cell_setting 'orthorhombic'
loop_
_space_group_symop_operation_xyz
x,y,z
-x,-y,z
1/4-x,1/4+y,1/4+z
1/4+x,1/4-y,1/4+z
x,1/2+y,1/2+z
-x,1/2-y,1/2+z
1/4-x,3/4+y,3/4+z
1/4+x,3/4-y,3/4+z
1/2+x,y,1/2+z
1/2-x,-y,1/2+z
3/4-x,1/4+y,3/4+z
3/4+x,1/4-y,3/4+z
1/2+x,1/2+y,z
1/2-x,1/2-y,z
3/4-x,3/4+y,1/4+z
3/4+x,3/4-y,1/4+z
loop_
_atom_site_type_symbol
_atom_site_label
_atom_site_fract_x
_atom_site_fract_y
_atom_site_fract_z
Si Si1 0.558963 0.464463 0.361270
Si Si2 0.161100 0.081790 0.068029
Si Si3 0.023594 0.607583 0.249230
Si Si4 0.859343 0.088573 0.195203
Si Si5 0.377780 0.712680 0.608114
Si Si6 0.492440 0.665997 0.533490
O O1 0.500000 0.500000 0.312697
O O2 0.595901 0.406412 0.282604
O O3 0.595231 0.557271 0.398125
O O4 0.536562 0.407390 0.456306
O O5 0.149529 0.181595 0.124776
O O6 0.127553 0.991972 0.114389
O O7 0.229458 0.069570 0.052441
O O8 0.138657 0.094096 0.957868
O O9 0.087490 0.602681 0.288972
O O10 0.000000 0.500000 0.270800
O O11 0.016026 0.620930 0.134204
O O12 0.799597 0.045640 0.235719
O O13 0.439840 0.732996 0.562853
#
# Coordination Sequence:
#
# PCOD9371051 Si02
#       6
#    16  16  16  16  16  16
#     4  10  23  43  65  93 127 170 216 271 321 386
#     4  10  22  37  58  88 129 163 208 256 317 393
#     4   9  18  36  58  84 118 155 203 262 309 360
#     4  11  22  42  61  91 131 167 213 261 326 390
#     4  10  21  38  61  90 122 165 209 266 318 375
#     4  10  21  38  65  92 119 160 219 268 315 376
#
# _framework density 21.636171000000001
#
# number of rings (size 3 to 8) (size 9 to 14) (size 15 to 20)
#    0.000    2.000    0.000    3.500    2.333    2.667 
#   18.000    2.500    0.000    0.000    0.000    0.000 
#    0.000    0.000    0.000    0.000    0.000    0.000 
#
# Total GULP energy -133819.064606 kJ/mol
# GULP energy per Si atom -5575.794359 kJ/mol
# Density = 2.158693 g / cm^3
# Si number density = 21.636171 Si / 1000 Ang^3
#
#
#
# Elastic Constant Matrix: (Units=GPa)
#
#
# Indices 1 2 3 4 5 6 
#
# 1 91.1682 -0.5353 27.3366 0.0000 0.0000 0.0000
# 2 -0.5353 19.8270 11.0021 0.0000 0.0000 0.0000
# 3 27.3366 11.0021 68.1306 0.0000 0.0000 0.0000
# 4 0.0000 0.0000 0.0000 17.4372 0.0000 0.0000
# 5 0.0000 0.0000 0.0000 0.0000 30.8244 0.0000
# 6 0.0000 0.0000 0.0000 0.0000 0.0000 23.6012
#
#
#
# Elastic Compliance Matrix: (Units=1/GPa)
#
#
# Indices 1 2 3 4 5 6 
#
# 1 0.012684 0.003478 -0.005651 0.000000 0.000000 0.000000
# 2 0.003478 0.056354 -0.010496 0.000000 0.000000 0.000000
# 3 -0.005651 -0.010496 0.018640 0.000000 0.000000 0.000000
# 4 0.000000 0.000000 0.000000 0.057349 0.000000 0.000000
# 5 0.000000 0.000000 0.000000 0.000000 0.032442 0.000000
# 6 0.000000 0.000000 0.000000 0.000000 0.000000 0.042371
#
#
# Mechanical properties :
#
#
# Convention : Reuss Voigt Hill
#
# Bulk Modulus (GPa) = 16.04095 28.30365 22.17230
# Shear Modulus (GPa) = 18.80006 23.79404 21.29705
#
# Velocity S-wave (km/s) = 2.95094 3.31982 3.14080
# Velocity P-wave (km/s) = 4.36357 5.27304 4.83972
#
# Compressibility (1/GPa) = 0.06234043
#
# Stress axis : x y z
#
# Youngs Moduli (GPa) = 78.84245 17.74487 53.64823
#
# Poissons Ratio (x) = -0.06172 0.30315
# Poissons Ratio (y) = -0.27422 0.56309
# Poissons Ratio (z) = 0.44552 0.18625
#
# Static dielectric constant tensor:
#      x y z
#    x 1.836460 0.000000 0.000000 
#    y 0.000000 1.789800 0.000000 
#    z 0.000000 0.000000 1.826570 
# 
# From -- ./inp_files/7524.got.cif
#   From: 2010.05.17/outbox.cif.g08.bks.cpg/sg43_4_cif.got.tgz:7524.got - 2010.06.03 19:21:55.
