data_PCOD9371064
_publ_section_title
;
Structure prediction by ZEFSAII (Michael W. Deem and Ramdas Pophale) SiO2 
 PCOD9371064
Probable space group: F D D 2
;
_chemical_formula_sum "Si O2"
_cell_formula_units_Z 80
_cell_length_a 30.406309
_cell_length_b 9.308891
_cell_length_c 14.160402
_cell_angle_alpha 90.000000
_cell_angle_beta 90.000000
_cell_angle_gamma 90.000000
_cell_volume 4008.087855
_symmetry_space_group_name_H-M "F D D 2"
_symmetry_group_IT_number 43
_symmetry_cell_setting 'orthorhombic'
loop_
_space_group_symop_operation_xyz
x,y,z
-x,-y,z
1/4-x,1/4+y,1/4+z
1/4+x,1/4-y,1/4+z
x,1/2+y,1/2+z
-x,1/2-y,1/2+z
1/4-x,3/4+y,3/4+z
1/4+x,3/4-y,3/4+z
1/2+x,y,1/2+z
1/2-x,-y,1/2+z
3/4-x,1/4+y,3/4+z
3/4+x,1/4-y,3/4+z
1/2+x,1/2+y,z
1/2-x,1/2-y,z
3/4-x,3/4+y,1/4+z
3/4+x,3/4-y,1/4+z
loop_
_atom_site_type_symbol
_atom_site_label
_atom_site_fract_x
_atom_site_fract_y
_atom_site_fract_z
Si Si1 0.414971 0.379397 0.255940
Si Si2 0.680004 0.732805 0.299361
Si Si3 0.991374 0.759532 0.019297
Si Si4 0.964460 0.106736 0.332841
Si Si5 0.242816 0.087051 0.980005
O O1 0.366732 0.313755 0.259126
O O2 0.423691 0.466041 0.158251
O O3 0.422287 0.504297 0.334685
O O4 0.449710 0.247880 0.268470
O O5 0.714290 0.603408 0.280772
O O6 0.702605 0.873755 0.255691
O O7 0.987496 0.675758 0.117678
O O8 0.985330 0.655135 0.931293
O O9 0.965343 0.246018 0.267016
O O10 0.000000 0.000000 0.284871
O O11 0.250000 0.250000 0.010270
#
# Coordination Sequence:
#
# PCOD9371064 Si02
#       5
#    16  16  16  16  16
#     4  10  22  41  60  93 127 163 212 265 317 371
#     4  10  22  40  64  90 128 165 205 265 317 374
#     4  10  21  41  63  91 125 167 211 253 321 376
#     4  10  21  38  63  90 122 164 212 256 316 374
#     4  10  21  39  63  89 123 163 208 258 310 378
#
# _framework density 19.959641000000001
#
# number of rings (size 3 to 8) (size 9 to 14) (size 15 to 20)
#    0.000    2.000    2.000    0.600    8.400    0.000 
#    3.600    2.000    0.000    0.000    0.000    0.000 
#    0.000    0.000    0.000    0.000    0.000    0.000 
#
# Total GULP energy -111425.110262 kJ/mol
# GULP energy per Si atom -5571.255513 kJ/mol
# Density = 1.991421 g / cm^3
# Si number density = 19.959641 Si / 1000 Ang^3
#
#
#
# Elastic Constant Matrix: (Units=GPa)
#
#
# Indices 1 2 3 4 5 6 
#
# 1 121.3728 63.8601 19.7723 0.0000 0.0000 0.0000
# 2 63.8601 157.4051 32.0464 0.0000 0.0000 0.0000
# 3 19.7723 32.0464 79.5539 0.0000 0.0000 0.0000
# 4 0.0000 0.0000 0.0000 29.5893 0.0000 0.0000
# 5 0.0000 0.0000 0.0000 0.0000 17.8595 0.0000
# 6 0.0000 0.0000 0.0000 0.0000 0.0000 13.8901
#
#
#
# Elastic Compliance Matrix: (Units=1/GPa)
#
#
# Indices 1 2 3 4 5 6 
#
# 1 0.010544 -0.004079 -0.000978 0.000000 0.000000 0.000000
# 2 -0.004079 0.008498 -0.002410 0.000000 0.000000 0.000000
# 3 -0.000978 -0.002410 0.013784 0.000000 0.000000 0.000000
# 4 0.000000 0.000000 0.000000 0.033796 0.000000 0.000000
# 5 0.000000 0.000000 0.000000 0.000000 0.055993 0.000000
# 6 0.000000 0.000000 0.000000 0.000000 0.000000 0.071994
#
#
# Mechanical properties :
#
#
# Convention : Reuss Voigt Hill
#
# Bulk Modulus (GPa) = 55.88368 65.52106 60.70237
# Shear Modulus (GPa) = 23.20122 28.44464 25.82293
#
# Velocity S-wave (km/s) = 3.41311 3.77916 3.60079
# Velocity P-wave (km/s) = 6.60239 7.20699 6.91130
#
# Compressibility (1/GPa) = 0.01789431
#
# Stress axis : x y z
#
# Youngs Moduli (GPa) = 94.83661 117.66849 72.54926
#
# Poissons Ratio (x) = 0.47996 0.07093
# Poissons Ratio (y) = 0.38683 0.17482
# Poissons Ratio (z) = 0.09271 0.28354
#
# Static dielectric constant tensor:
#      x y z
#    x 1.750730 0.000000 0.000000 
#    y 0.000000 1.708190 0.000000 
#    z 0.000000 0.000000 1.758740 
# 
# From -- ./inp_files/12833.got.cif
#   From: 2010.05.17/outbox.cif.g08.bks.cpg/sg43_7_cif.got.tgz:12833.got - 2010.06.03 19:21:55.
