data_PCOD9371047
_publ_section_title
;
Structure prediction by ZEFSAII (Michael W. Deem and Ramdas Pophale) SiO2 
 PCOD9371047
Probable space group: F D D 2
;
_chemical_formula_sum "Si O2"
_cell_formula_units_Z 80
_cell_length_a 27.421275
_cell_length_b 13.783480
_cell_length_c 9.668123
_cell_angle_alpha 90.000000
_cell_angle_beta 90.000000
_cell_angle_gamma 90.000000
_cell_volume 3654.169527
_symmetry_space_group_name_H-M "F D D 2"
_symmetry_group_IT_number 43
_symmetry_cell_setting 'orthorhombic'
loop_
_space_group_symop_operation_xyz
x,y,z
-x,-y,z
1/4-x,1/4+y,1/4+z
1/4+x,1/4-y,1/4+z
x,1/2+y,1/2+z
-x,1/2-y,1/2+z
1/4-x,3/4+y,3/4+z
1/4+x,3/4-y,3/4+z
1/2+x,y,1/2+z
1/2-x,-y,1/2+z
3/4-x,1/4+y,3/4+z
3/4+x,1/4-y,3/4+z
1/2+x,1/2+y,z
1/2-x,1/2-y,z
3/4-x,3/4+y,1/4+z
3/4+x,3/4-y,1/4+z
loop_
_atom_site_type_symbol
_atom_site_label
_atom_site_fract_x
_atom_site_fract_y
_atom_site_fract_z
Si Si1 0.017288 0.109038 0.019470
Si Si2 0.556301 0.500520 0.592366
Si Si3 0.828778 0.408551 0.868987
Si Si4 0.429487 0.453030 0.275700
Si Si5 0.350089 0.597008 0.552156
O O1 0.033820 0.104261 0.179059
O O2 0.968534 0.172551 0.023032
O O3 0.063171 0.140415 0.929370
O O4 0.000000 0.000000 0.979005
O O5 0.500000 0.500000 0.639162
O O6 0.554883 0.539094 0.434611
O O7 0.592079 0.406630 0.586516
O O8 0.586388 0.570204 0.693330
O O9 0.876677 0.404137 0.775217
O O10 0.824625 0.309617 0.956751
O O11 0.837259 0.497265 0.972751
#
# Coordination Sequence:
#
# PCOD9371047 Si02
#       5
#    16  16  16  16  16
#     4  10  23  41  61  89 123 159 202 254 306 357
#     4  11  23  41  63  89 125 162 200 253 303 358
#     4  10  21  38  61  88 120 158 203 247 300 364
#     4  10  21  39  62  85 119 164 204 244 302 368
#     4  11  24  39  62  93 120 157 206 250 304 363
#
# _framework density 21.892800000000001
#
# number of rings (size 3 to 8) (size 9 to 14) (size 15 to 20)
#    0.000    1.600    0.000    7.200    0.000   11.200 
#    0.000    0.000    0.000    0.000    0.000    0.000 
#    0.000    0.000    0.000    0.000    0.000    0.000 
#
# Total GULP energy -111707.559813 kJ/mol
# GULP energy per Si atom -5585.377991 kJ/mol
# Density = 2.184297 g / cm^3
# Si number density = 21.892800 Si / 1000 Ang^3
#
#
#
# Elastic Constant Matrix: (Units=GPa)
#
#
# Indices 1 2 3 4 5 6 
#
# 1 196.8374 22.1113 39.2253 0.0000 0.0000 0.0000
# 2 22.1113 21.2468 -2.5885 0.0000 0.0000 0.0000
# 3 39.2253 -2.5885 61.9879 0.0000 0.0000 0.0000
# 4 0.0000 0.0000 0.0000 11.6671 0.0000 0.0000
# 5 0.0000 0.0000 0.0000 0.0000 38.5533 0.0000
# 6 0.0000 0.0000 0.0000 0.0000 0.0000 31.8174
#
#
#
# Elastic Compliance Matrix: (Units=1/GPa)
#
#
# Indices 1 2 3 4 5 6 
#
# 1 0.006881 -0.007730 -0.004677 0.000000 0.000000 0.000000
# 2 -0.007730 0.055992 0.007230 0.000000 0.000000 0.000000
# 3 -0.004677 0.007230 0.019394 0.000000 0.000000 0.000000
# 4 0.000000 0.000000 0.000000 0.085711 0.000000 0.000000
# 5 0.000000 0.000000 0.000000 0.000000 0.025938 0.000000
# 6 0.000000 0.000000 0.000000 0.000000 0.000000 0.031429
#
#
# Mechanical properties :
#
#
# Convention : Reuss Voigt Hill
#
# Bulk Modulus (GPa) = 13.90610 44.17428 29.04019
# Shear Modulus (GPa) = 19.25525 31.16250 25.20887
#
# Velocity S-wave (km/s) = 2.96889 3.77691 3.39701
# Velocity P-wave (km/s) = 4.25654 6.26429 5.35535
#
# Compressibility (1/GPa) = 0.07191090
#
# Stress axis : x y z
#
# Youngs Moduli (GPa) = 145.33386 17.85981 51.56361
#
# Poissons Ratio (x) = 0.13806 0.24115
# Poissons Ratio (y) = 1.12349 -0.37279
# Poissons Ratio (z) = 0.67970 -0.12912
#
# Static dielectric constant tensor:
#      x y z
#    x 1.851790 0.000000 0.000000 
#    y 0.000000 1.813790 0.000000 
#    z 0.000000 0.000000 1.792700 
# 
# From -- ./inp_files/7890.got.cif
#   From: 2010.05.17/outbox.cif.g08.bks.cpg/sg43_4_cif.got.tgz:7890.got - 2010.06.03 19:21:55.
