data_PCOD9371905
_publ_section_title
;
Structure prediction by ZEFSAII (Michael W. Deem and Ramdas Pophale) SiO2 
 PCOD9371905
Probable space group: F D D 2
;
_chemical_formula_sum "Si O2"
_cell_formula_units_Z 56
_cell_length_a 5.232772
_cell_length_b 26.417129
_cell_length_c 17.266677
_cell_angle_alpha 90.000000
_cell_angle_beta 90.000000
_cell_angle_gamma 90.000000
_cell_volume 2386.855865
_symmetry_space_group_name_H-M "F D D 2"
_symmetry_group_IT_number 43
_symmetry_cell_setting 'orthorhombic'
loop_
_space_group_symop_operation_xyz
x,y,z
-x,-y,z
1/4-x,1/4+y,1/4+z
1/4+x,1/4-y,1/4+z
x,1/2+y,1/2+z
-x,1/2-y,1/2+z
1/4-x,3/4+y,3/4+z
1/4+x,3/4-y,3/4+z
1/2+x,y,1/2+z
1/2-x,-y,1/2+z
3/4-x,1/4+y,3/4+z
3/4+x,1/4-y,3/4+z
1/2+x,1/2+y,z
1/2-x,1/2-y,z
3/4-x,3/4+y,1/4+z
3/4+x,3/4-y,1/4+z
loop_
_atom_site_type_symbol
_atom_site_label
_atom_site_fract_x
_atom_site_fract_y
_atom_site_fract_z
Si Si1 0.588864 0.322703 0.216890
Si Si2 0.171384 0.052956 0.881506
Si Si3 0.250000 0.250000 0.990821
Si Si4 0.871222 0.409092 0.137686
O O1 0.359832 0.299424 0.167427
O O2 0.649989 0.380395 0.186955
O O3 0.521540 0.319321 0.306709
O O4 0.859917 0.297610 0.195583
O O5 0.206359 0.020816 0.803270
O O6 0.197544 0.112749 0.861642
O O7 0.226395 0.201201 0.936099
#
# Coordination Sequence:
#
# PCOD9371905 Si02
#       4
#    16  16   8  16
#     4  10  23  44  69  96 150 179 230 299 352 399
#     4  10  24  45  67 103 142 183 233 302 340 424
#     4  12  24  48  76 108 142 194 244 280 374 418
#     4  10  23  44  71 106 137 195 229 302 340 436
#
# _framework density 23.461828000000001
#
# number of rings (size 3 to 8) (size 9 to 14) (size 15 to 20)
#    1.714    0.000    2.857    0.000    8.000    3.429 
#    5.143    0.000    0.000    0.000    0.000    0.000 
#    0.000    0.000    0.000    0.000    0.000    0.000 
#
# Total GULP energy -77937.969191 kJ/mol
# GULP energy per Si atom -5566.997799 kJ/mol
# Density = 2.340843 g / cm^3
# Si number density = 23.461828 Si / 1000 Ang^3
#
#
#
# Elastic Constant Matrix: (Units=GPa)
#
#
# Indices 1 2 3 4 5 6 
#
# 1 90.7655 21.1579 21.3825 0.0000 0.0000 0.0000
# 2 21.1579 122.0051 52.2043 0.0000 0.0000 0.0000
# 3 21.3825 52.2043 162.8709 0.0000 0.0000 0.0000
# 4 0.0000 0.0000 0.0000 57.2479 0.0000 0.0000
# 5 0.0000 0.0000 0.0000 0.0000 15.0145 0.0000
# 6 0.0000 0.0000 0.0000 0.0000 0.0000 33.8692
#
#
#
# Elastic Compliance Matrix: (Units=1/GPa)
#
#
# Indices 1 2 3 4 5 6 
#
# 1 0.011626 -0.001580 -0.001020 0.000000 0.000000 0.000000
# 2 -0.001580 0.009714 -0.002906 0.000000 0.000000 0.000000
# 3 -0.001020 -0.002906 0.007205 0.000000 0.000000 0.000000
# 4 0.000000 0.000000 0.000000 0.017468 0.000000 0.000000
# 5 0.000000 0.000000 0.000000 0.000000 0.066602 0.000000
# 6 0.000000 0.000000 0.000000 0.000000 0.000000 0.029525
#
#
# Mechanical properties :
#
#
# Convention : Reuss Voigt Hill
#
# Bulk Modulus (GPa) = 57.03422 62.79233 59.91328
# Shear Modulus (GPa) = 31.44725 39.95278 35.70002
#
# Velocity S-wave (km/s) = 3.66506 4.13108 3.90503
# Velocity P-wave (km/s) = 6.50172 7.04103 6.77674
#
# Compressibility (1/GPa) = 0.01753333
#
# Stress axis : x y z
#
# Youngs Moduli (GPa) = 86.01461 102.94606 138.78803
#
# Poissons Ratio (x) = 0.16263 0.14156
# Poissons Ratio (y) = 0.13588 0.40334
# Poissons Ratio (z) = 0.08773 0.29918
#
# Static dielectric constant tensor:
#      x y z
#    x 1.846250 0.000000 0.000000 
#    y 0.000000 2.126820 0.000000 
#    z 0.000000 0.000000 1.830340 
# 
# From -- ./inp_files/8617.got.cif
#   From: 2010.05.17/outbox.cif.g08.bks.cpg/sg43_5_cif.got.tgz:8617.got - 2010.06.03 19:21:55.
