data_PCOD9371632
_publ_section_title
;
Structure prediction by ZEFSAII (Michael W. Deem and Ramdas Pophale) SiO2 
 PCOD9371632
Probable space group: F D D 2
;
_chemical_formula_sum "Si O2"
_cell_formula_units_Z 96
_cell_length_a 14.610410
_cell_length_b 20.516826
_cell_length_c 13.273793
_cell_angle_alpha 90.000000
_cell_angle_beta 90.000000
_cell_angle_gamma 90.000000
_cell_volume 3978.942098
_symmetry_space_group_name_H-M "F D D 2"
_symmetry_group_IT_number 43
_symmetry_cell_setting 'orthorhombic'
loop_
_space_group_symop_operation_xyz
x,y,z
-x,-y,z
1/4-x,1/4+y,1/4+z
1/4+x,1/4-y,1/4+z
x,1/2+y,1/2+z
-x,1/2-y,1/2+z
1/4-x,3/4+y,3/4+z
1/4+x,3/4-y,3/4+z
1/2+x,y,1/2+z
1/2-x,-y,1/2+z
3/4-x,1/4+y,3/4+z
3/4+x,1/4-y,3/4+z
1/2+x,1/2+y,z
1/2-x,1/2-y,z
3/4-x,3/4+y,1/4+z
3/4+x,3/4-y,1/4+z
loop_
_atom_site_type_symbol
_atom_site_label
_atom_site_fract_x
_atom_site_fract_y
_atom_site_fract_z
Si Si1 0.973389 0.287678 0.301070
Si Si2 0.927465 0.941112 0.105335
Si Si3 0.274171 0.681322 0.079020
Si Si4 0.313872 0.674550 0.488839
Si Si5 0.649645 0.450783 0.776697
Si Si6 0.879352 0.412147 0.018261
O O1 0.920349 0.348630 0.254405
O O2 0.946228 0.293144 0.418157
O O3 0.938875 0.222373 0.248555
O O4 0.083010 0.291627 0.299886
O O5 0.918388 0.941486 0.227162
O O6 0.944818 0.863848 0.078067
O O7 0.000000 0.000000 0.081843
O O8 0.250000 0.750000 0.127298
O O9 0.318653 0.641694 0.168335
O O10 0.181780 0.648465 0.046116
O O11 0.209155 0.684523 0.523189
O O12 0.385334 0.720889 0.549523
O O13 0.317120 0.684765 0.368238
#
# Coordination Sequence:
#
# PCOD9371632 Si02
#       6
#    16  16  16  16  16  16
#     4  10  22  43  68 103 136 191 242 305 369 432
#     4  10  24  45  67 100 148 190 244 295 371 450
#     4  11  27  45  69 102 146 195 243 299 364 445
#     4   9  20  41  67 103 132 179 245 302 363 434
#     4   9  20  41  69  97 139 180 238 306 358 434
#     4  11  25  42  74 100 142 191 242 302 370 443
#
# _framework density 24.127013999999999
#
# number of rings (size 3 to 8) (size 9 to 14) (size 15 to 20)
#    0.000    2.000    0.000    1.000   14.000    0.000 
#   12.000    0.000    0.000    0.000    0.000    0.000 
#    0.000    0.000    0.000    0.000    0.000    0.000 
#
# Total GULP energy -133871.357259 kJ/mol
# GULP energy per Si atom -5577.973219 kJ/mol
# Density = 2.407210 g / cm^3
# Si number density = 24.127014 Si / 1000 Ang^3
#
#
#
# Elastic Constant Matrix: (Units=GPa)
#
#
# Indices 1 2 3 4 5 6 
#
# 1 43.9045 29.5205 30.9315 0.0000 0.0000 0.0000
# 2 29.5205 106.4889 6.2807 0.0000 0.0000 0.0000
# 3 30.9315 6.2807 72.5350 0.0000 0.0000 0.0000
# 4 0.0000 0.0000 0.0000 -23.2951 0.0000 0.0000
# 5 0.0000 0.0000 0.0000 0.0000 37.7109 0.0000
# 6 0.0000 0.0000 0.0000 0.0000 0.0000 40.5788
#
#
#
# Elastic Compliance Matrix: (Units=1/GPa)
#
#
# Indices 1 2 3 4 5 6 
#
# 1 0.041817 -0.010595 -0.016915 0.000000 0.000000 0.000000
# 2 -0.010595 0.012123 0.003468 0.000000 0.000000 0.000000
# 3 -0.016915 0.003468 0.020699 0.000000 0.000000 0.000000
# 4 0.000000 0.000000 0.000000 -0.042927 0.000000 0.000000
# 5 0.000000 0.000000 0.000000 0.000000 0.026518 0.000000
# 6 0.000000 0.000000 0.000000 0.000000 0.000000 0.024643
#
#
# Mechanical properties :
#
#
# Convention : Reuss Voigt Hill
#
# Bulk Modulus (GPa) = 37.65529 39.59933 38.62731
# Shear Modulus (GPa) = 35.76320 21.41197 28.58758
#
# Velocity S-wave (km/s) = 3.85423 2.98227 3.44594
# Velocity P-wave (km/s) = 5.95380 5.32044 5.64601
#
# Compressibility (1/GPa) = 0.02655669
#
# Stress axis : x y z
#
# Youngs Moduli (GPa) = 23.91352 82.48682 48.31089
#
# Poissons Ratio (x) = 0.87393 0.81718
# Poissons Ratio (y) = 0.25336 -0.16756
# Poissons Ratio (z) = 0.40450 -0.28609
#
# Static dielectric constant tensor:
#      x y z
#    x 1.958580 0.000000 0.000000 
#    y 0.000000 2.448080 0.000000 
#    z 0.000000 0.000000 1.938810 
# 
# From -- ./inp_files/10087.got.cif
#   From: 2010.05.17/outbox.cif.g08.bks.cpg/sg43_6_cif.got.tgz:10087.got - 2010.06.03 19:21:55.
