data_PCOD9371259
_publ_section_title
;
Structure prediction by ZEFSAII (Michael W. Deem and Ramdas Pophale) SiO2 
 PCOD9371259
Probable space group: F D D 2
;
_chemical_formula_sum "Si O2"
_cell_formula_units_Z 104
_cell_length_a 26.332573
_cell_length_b 8.364616
_cell_length_c 17.409093
_cell_angle_alpha 90.000000
_cell_angle_beta 90.000000
_cell_angle_gamma 90.000000
_cell_volume 3834.559230
_symmetry_space_group_name_H-M "F D D 2"
_symmetry_group_IT_number 43
_symmetry_cell_setting 'orthorhombic'
loop_
_space_group_symop_operation_xyz
x,y,z
-x,-y,z
1/4-x,1/4+y,1/4+z
1/4+x,1/4-y,1/4+z
x,1/2+y,1/2+z
-x,1/2-y,1/2+z
1/4-x,3/4+y,3/4+z
1/4+x,3/4-y,3/4+z
1/2+x,y,1/2+z
1/2-x,-y,1/2+z
3/4-x,1/4+y,3/4+z
3/4+x,1/4-y,3/4+z
1/2+x,1/2+y,z
1/2-x,1/2-y,z
3/4-x,3/4+y,1/4+z
3/4+x,3/4-y,1/4+z
loop_
_atom_site_type_symbol
_atom_site_label
_atom_site_fract_x
_atom_site_fract_y
_atom_site_fract_z
Si Si1 0.250000 0.750000 0.137671
Si Si2 0.692887 0.800103 0.244028
Si Si3 0.700795 0.679645 0.409256
Si Si4 0.307113 0.800103 0.531313
Si Si5 0.662189 0.984905 0.666309
Si Si6 0.450795 0.429645 0.616085
Si Si7 0.587811 0.765095 0.859032
O O1 0.290439 0.632731 0.180582
O O2 0.209561 0.632731 0.094759
O O3 0.750000 0.750000 0.220985
O O4 0.693985 0.798541 0.335597
O O5 0.662758 0.645212 0.216137
O O6 0.672765 0.951633 0.196784
O O7 0.750000 0.750000 0.451783
O O8 0.642583 0.662558 0.434025
O O9 0.715589 0.500000 0.387670
O O10 0.250000 0.750000 0.554356
O O11 0.327235 0.951632 0.578557
O O12 0.306015 0.798541 0.439744
O O13 0.337242 0.645212 0.559204
O O14 0.500000 0.500000 0.573558
O O15 0.392583 0.412558 0.591316
#
# Coordination Sequence:
#
# PCOD9371259 Si02
#       7
#     8  16  16  16  16  16  16
#     4  12  20  38  68 104 120 158 224 310 300 376
#     4  10  21  42  68  91 128 177 213 267 339 400
#     4  11  26  44  61  94 136 180 218 263 336 405
#     4  10  21  42  68  91 128 177 213 267 339 400
#     4  11  21  42  67  96 129 164 232 278 331 383
#     4  11  26  44  61  94 136 180 218 263 336 405
#     4  11  21  42  67  96 129 164 232 278 331 383
#
# _framework density 27.121760999999999
#
# number of rings (size 3 to 8) (size 9 to 14) (size 15 to 20)
#    0.000    1.231    4.615    1.846    4.308    1.231 
#    2.769    0.000    0.000    0.000    0.000    0.000 
#    0.000    0.000    0.000    0.000    0.000    0.000 
#
# Total GULP energy -145384.784149 kJ/mol
# GULP energy per Si atom -5591.722467 kJ/mol
# Density = 2.706003 g / cm^3
# Si number density = 27.121761 Si / 1000 Ang^3
#
#
#
# Elastic Constant Matrix: (Units=GPa)
#
#
# Indices 1 2 3 4 5 6 
#
# 1 264.4511 83.0581 26.7961 0.0000 0.0000 0.0000
# 2 83.0581 128.0245 16.3342 0.0000 0.0000 0.0000
# 3 26.7961 16.3342 114.1845 0.0000 0.0000 0.0000
# 4 0.0000 0.0000 0.0000 10.8706 0.0000 0.0000
# 5 0.0000 0.0000 0.0000 0.0000 6.2308 0.0000
# 6 0.0000 0.0000 0.0000 0.0000 0.0000 52.8741
#
#
#
# Elastic Compliance Matrix: (Units=1/GPa)
#
#
# Indices 1 2 3 4 5 6 
#
# 1 0.004803 -0.003027 -0.000694 0.000000 0.000000 0.000000
# 2 -0.003027 0.009864 -0.000701 0.000000 0.000000 0.000000
# 3 -0.000694 -0.000701 0.009021 0.000000 0.000000 0.000000
# 4 0.000000 0.000000 0.000000 0.091991 0.000000 0.000000
# 5 0.000000 0.000000 0.000000 0.000000 0.160492 0.000000
# 6 0.000000 0.000000 0.000000 0.000000 0.000000 0.018913
#
#
# Mechanical properties :
#
#
# Convention : Reuss Voigt Hill
#
# Bulk Modulus (GPa) = 67.36734 84.33740 75.85237
# Shear Modulus (GPa) = 16.18776 39.35990 27.77383
#
# Velocity S-wave (km/s) = 2.44571 3.81363 3.20354
# Velocity P-wave (km/s) = 5.73307 7.11021 6.45845
#
# Compressibility (1/GPa) = 0.01484399
#
# Stress axis : x y z
#
# Youngs Moduli (GPa) = 208.22486 101.37538 110.85424
#
# Poissons Ratio (x) = 0.30688 0.07693
# Poissons Ratio (y) = 0.63033 0.07768
# Poissons Ratio (z) = 0.14450 0.07103
#
# Static dielectric constant tensor:
#      x y z
#    x 2.168260 0.000000 0.000000 
#    y 0.000000 2.008300 0.000000 
#    z 0.000000 0.000000 2.248740 
# 
# From -- ./inp_files/3378.got.cif
#   From: 2010.05.17/outbox.cif.g08.bks.cpg/sg43_2_cif.got.tgz:3378.got - 2010.06.03 19:21:55.
