data_PCOD9371360
_publ_section_title
;
Structure prediction by ZEFSAII (Michael W. Deem and Ramdas Pophale) SiO2 
 PCOD9371360
Probable space group: F D D 2
;
_chemical_formula_sum "Si O2"
_cell_formula_units_Z 48
_cell_length_a 23.527116
_cell_length_b 12.506731
_cell_length_c 5.254584
_cell_angle_alpha 90.000000
_cell_angle_beta 90.000000
_cell_angle_gamma 90.000000
_cell_volume 1546.147213
_symmetry_space_group_name_H-M "F D D 2"
_symmetry_group_IT_number 43
_symmetry_cell_setting 'orthorhombic'
loop_
_space_group_symop_operation_xyz
x,y,z
-x,-y,z
1/4-x,1/4+y,1/4+z
1/4+x,1/4-y,1/4+z
x,1/2+y,1/2+z
-x,1/2-y,1/2+z
1/4-x,3/4+y,3/4+z
1/4+x,3/4-y,3/4+z
1/2+x,y,1/2+z
1/2-x,-y,1/2+z
3/4-x,1/4+y,3/4+z
3/4+x,1/4-y,3/4+z
1/2+x,1/2+y,z
1/2-x,1/2-y,z
3/4-x,3/4+y,1/4+z
3/4+x,3/4-y,1/4+z
loop_
_atom_site_type_symbol
_atom_site_label
_atom_site_fract_x
_atom_site_fract_y
_atom_site_fract_z
Si Si1 0.971471 0.882021 0.282510
Si Si2 0.182780 0.747623 0.566985
Si Si3 0.666339 0.033198 0.902102
O O1 0.930576 0.816701 0.471908
O O2 0.027168 0.807232 0.313002
O O3 0.935121 0.905938 0.024482
O O4 0.000000 0.000000 0.292814
O O5 0.250000 0.750000 0.495366
O O6 0.170661 0.637043 0.714763
O O7 0.138184 0.757376 0.331876
#
# Coordination Sequence:
#
# PCOD9371360 Si02
#       3
#    16  16  16
#     4   9  22  47  92 136 193 259 329 407 503 595
#     4   9  22  47  92 147 198 257 330 408 498 603
#     4  10  21  48  96 135 200 256 331 411 495 598
#
# _framework density 31.044910999999999
#
# number of rings (size 3 to 8) (size 9 to 14) (size 15 to 20)
#    0.000    3.333    0.000    0.000    0.000    5.333 
#    0.000   11.667   44.000   88.000    0.000    0.000 
#    0.000    0.000    0.000    0.000    0.000    0.000 
#
# Total GULP energy -66980.782657 kJ/mol
# GULP energy per Si atom -5581.731888 kJ/mol
# Density = 3.097425 g / cm^3
# Si number density = 31.044911 Si / 1000 Ang^3
#
#
#
# Elastic Constant Matrix: (Units=GPa)
#
#
# Indices 1 2 3 4 5 6 
#
# 1 337.1923 129.7869 161.5347 0.0002 -0.0001 0.0000
# 2 129.7869 267.7211 115.7155 0.0001 0.0001 0.0001
# 3 161.5347 115.7155 237.1465 -0.0008 0.0002 -0.0003
# 4 0.0002 0.0001 -0.0008 -83.1397 -0.0006 0.0000
# 5 -0.0001 0.0001 0.0002 -0.0006 92.0729 0.0001
# 6 0.0000 0.0001 -0.0003 0.0000 0.0001 56.6915
#
#
#
# Elastic Compliance Matrix: (Units=1/GPa)
#
#
# Indices 1 2 3 4 5 6 
#
# 1 0.004654 -0.001123 -0.002622 0.000000 0.000000 0.000000
# 2 -0.001123 0.005004 -0.001677 0.000000 0.000000 0.000000
# 3 -0.002622 -0.001677 0.006821 0.000000 0.000000 0.000000
# 4 0.000000 0.000000 0.000000 -0.012028 0.000000 0.000000
# 5 0.000000 0.000000 0.000000 0.000000 0.010861 0.000000
# 6 0.000000 0.000000 0.000000 0.000000 0.000000 0.017639
#
#
# Mechanical properties :
#
#
# Convention : Reuss Voigt Hill
#
# Bulk Modulus (GPa) = 177.44810 184.01489 180.73150
# Shear Modulus (GPa) = 109.46895 42.12646 75.79771
#
# Velocity S-wave (km/s) = 5.94458 3.68768 4.94657
# Velocity P-wave (km/s) = 10.21763 8.80536 9.53767
#
# Compressibility (1/GPa) = 0.00563545
#
# Stress axis : x y z
#
# Youngs Moduli (GPa) = 214.86577 199.82295 146.59868
#
# Poissons Ratio (x) = 0.22436 0.38442
# Poissons Ratio (y) = 0.24125 0.24586
# Poissons Ratio (z) = 0.56344 0.33512
#
# Static dielectric constant tensor:
#      x y z
#    x 2.567860 0.000000 0.000000 
#    y 0.000000 2.466730 0.000000 
#    z 0.000000 0.000000 2.898310 
# 
# From -- ./inp_files/586.got.cif
#   From: 2010.05.17/outbox.cif.g08.bks.cpg/sg43_1_cif.got.tgz:586.got - 2010.06.03 19:21:55.
