data_PCOD9371741
_publ_section_title
;
Structure prediction by ZEFSAII (Michael W. Deem and Ramdas Pophale) SiO2 
 PCOD9371741
Probable space group: F D D 2
;
_chemical_formula_sum "Si O2"
_cell_formula_units_Z 72
_cell_length_a 6.876618
_cell_length_b 18.085771
_cell_length_c 24.721969
_cell_angle_alpha 90.000000
_cell_angle_beta 90.000000
_cell_angle_gamma 90.000000
_cell_volume 3074.645040
_symmetry_space_group_name_H-M "F D D 2"
_symmetry_group_IT_number 43
_symmetry_cell_setting 'orthorhombic'
loop_
_space_group_symop_operation_xyz
x,y,z
-x,-y,z
1/4-x,1/4+y,1/4+z
1/4+x,1/4-y,1/4+z
x,1/2+y,1/2+z
-x,1/2-y,1/2+z
1/4-x,3/4+y,3/4+z
1/4+x,3/4-y,3/4+z
1/2+x,y,1/2+z
1/2-x,-y,1/2+z
3/4-x,1/4+y,3/4+z
3/4+x,1/4-y,3/4+z
1/2+x,1/2+y,z
1/2-x,1/2-y,z
3/4-x,3/4+y,1/4+z
3/4+x,3/4-y,1/4+z
loop_
_atom_site_type_symbol
_atom_site_label
_atom_site_fract_x
_atom_site_fract_y
_atom_site_fract_z
Si Si1 0.500000 0.000000 0.514241
Si Si2 0.924791 0.306377 0.949961
Si Si3 0.219627 0.972300 0.315371
Si Si4 0.966628 0.220583 0.176809
Si Si5 0.406247 0.191169 0.834394
O O1 0.336456 0.978775 0.469128
O O2 0.364822 0.051060 0.553044
O O3 0.750000 0.250000 0.944326
O O4 0.819004 0.387413 0.948688
O O5 0.050984 0.296701 0.896905
O O6 0.043953 0.286719 0.004258
O O7 0.194765 0.888054 0.333168
O O8 0.297153 0.022240 0.365074
O O9 0.000000 0.000000 0.306668
O O10 0.750000 0.250000 0.172321
O O11 0.250000 0.250000 0.812570
#
# Coordination Sequence:
#
# PCOD9371741 Si02
#       5
#     8  16  16  16  16
#     4  12  26  44  72 108 148 196 248 292 380 450
#     4  11  23  44  72 108 151 188 246 318 367 437
#     4  10  22  45  74 100 147 194 241 306 369 439
#     4  11  23  47  76 101 145 202 241 300 379 448
#     4  12  25  45  73 106 149 193 247 307 372 442
#
# _framework density 23.417338999999998
#
# number of rings (size 3 to 8) (size 9 to 14) (size 15 to 20)
#    0.000    0.889    7.778    0.667    0.000    1.778 
#    2.000    0.000    0.000    0.000    0.000    0.000 
#    0.000    0.000    0.000    0.000    0.000    0.000 
#
# Total GULP energy -100242.417266 kJ/mol
# GULP energy per Si atom -5569.023181 kJ/mol
# Density = 2.336404 g / cm^3
# Si number density = 23.417339 Si / 1000 Ang^3
#
#
#
# Elastic Constant Matrix: (Units=GPa)
#
#
# Indices 1 2 3 4 5 6 
#
# 1 81.0419 9.8949 23.6961 0.0000 0.0000 0.0000
# 2 9.8949 100.7148 -11.5191 0.0000 0.0000 0.0000
# 3 23.6961 -11.5191 197.3159 0.0000 0.0000 0.0000
# 4 0.0000 0.0000 0.0000 33.5917 0.0000 0.0000
# 5 0.0000 0.0000 0.0000 0.0000 3.7384 0.0000
# 6 0.0000 0.0000 0.0000 0.0000 0.0000 9.5562
#
#
#
# Elastic Compliance Matrix: (Units=1/GPa)
#
#
# Indices 1 2 3 4 5 6 
#
# 1 0.013000 -0.001466 -0.001647 0.000000 0.000000 0.000000
# 2 -0.001466 0.010161 0.000769 0.000000 0.000000 0.000000
# 3 -0.001647 0.000769 0.005311 0.000000 0.000000 0.000000
# 4 0.000000 0.000000 0.000000 0.029769 0.000000 0.000000
# 5 0.000000 0.000000 0.000000 0.000000 0.267496 0.000000
# 6 0.000000 0.000000 0.000000 0.000000 0.000000 0.104644
#
#
# Mechanical properties :
#
#
# Convention : Reuss Voigt Hill
#
# Bulk Modulus (GPa) = 42.04281 47.02404 44.53342
# Shear Modulus (GPa) = 11.28682 33.17732 22.23207
#
# Velocity S-wave (km/s) = 2.19780 3.76810 3.08455
# Velocity P-wave (km/s) = 4.94299 6.24947 5.63423
#
# Compressibility (1/GPa) = 0.02378528
#
# Stress axis : x y z
#
# Youngs Moduli (GPa) = 76.92476 98.41565 188.29994
#
# Poissons Ratio (x) = 0.14423 0.31008
# Poissons Ratio (y) = 0.11273 -0.14484
# Poissons Ratio (z) = 0.12667 -0.07570
#
# Static dielectric constant tensor:
#      x y z
#    x 1.881930 0.000000 0.000000 
#    y 0.000000 1.900790 0.000000 
#    z 0.000000 0.000000 2.014990 
# 
# From -- ./inp_files/20073.got.cif
#   From: 2010.05.17/outbox.cif.g08.bks.cpg/sg43_11_cif.got.tgz:20073.got - 2010.06.03 19:21:55.
