data_PCOD9371172
_publ_section_title
;
Structure prediction by ZEFSAII (Michael W. Deem and Ramdas Pophale) SiO2 
 PCOD9371172
Probable space group: F D D 2
;
_chemical_formula_sum "Si O2"
_cell_formula_units_Z 112
_cell_length_a 30.219103
_cell_length_b 5.203306
_cell_length_c 29.560172
_cell_angle_alpha 90.000000
_cell_angle_beta 90.000000
_cell_angle_gamma 90.000000
_cell_volume 4648.018978
_symmetry_space_group_name_H-M "F D D 2"
_symmetry_group_IT_number 43
_symmetry_cell_setting 'orthorhombic'
loop_
_space_group_symop_operation_xyz
x,y,z
-x,-y,z
1/4-x,1/4+y,1/4+z
1/4+x,1/4-y,1/4+z
x,1/2+y,1/2+z
-x,1/2-y,1/2+z
1/4-x,3/4+y,3/4+z
1/4+x,3/4-y,3/4+z
1/2+x,y,1/2+z
1/2-x,-y,1/2+z
3/4-x,1/4+y,3/4+z
3/4+x,1/4-y,3/4+z
1/2+x,1/2+y,z
1/2-x,1/2-y,z
3/4-x,3/4+y,1/4+z
3/4+x,3/4-y,1/4+z
loop_
_atom_site_type_symbol
_atom_site_label
_atom_site_fract_x
_atom_site_fract_y
_atom_site_fract_z
Si Si1 0.951800 0.082947 0.115670
Si Si2 0.500000 0.000000 0.967260
Si Si3 0.081574 0.241449 0.189675
Si Si4 0.406018 0.525425 0.285380
Si Si5 0.250000 0.250000 0.904743
Si Si6 0.328247 0.555879 0.679715
Si Si7 0.559889 0.869922 0.519109
Si Si8 0.303207 0.271341 0.081837
O O1 0.961992 0.383157 0.121145
O O2 0.948789 0.981862 0.065292
O O3 0.915790 0.957180 0.147579
O O4 0.000000 0.000000 0.134029
O O5 0.457655 0.079765 0.936766
O O6 0.518362 0.213798 0.001033
O O7 0.084969 0.074560 0.234880
O O8 0.118579 0.461736 0.181708
O O9 0.033060 0.358957 0.188987
O O10 0.352581 0.544953 0.284999
O O11 0.425999 0.796041 0.300622
O O12 0.425923 0.296515 0.317186
O O13 0.322050 0.715594 0.725754
O O14 0.315178 0.702355 0.633868
O O15 0.250000 0.250000 0.077379
#
# Coordination Sequence:
#
# PCOD9371172 Si02
#       8
#    16   8  16  16   8  16  16  16
#     4  10  21  40  68 102 143 185 245 301 385 443
#     4  12  25  44  80 106 154 196 258 320 389 454
#     4  10  25  46  71 104 151 196 249 313 381 456
#     4  11  29  47  77 109 149 200 255 312 380 453
#     4  10  23  38  70 108 144 194 240 312 381 460
#     4  11  27  47  73 107 151 198 258 316 384 459
#     4  11  25  46  73 107 148 193 252 316 384 455
#     4  12  28  50  77 110 152 202 258 312 381 455
#
# _framework density 24.096285000000002
#
# number of rings (size 3 to 8) (size 9 to 14) (size 15 to 20)
#    0.000    1.143    0.000    3.857   13.000    4.571 
#    0.000    0.000    0.000    0.000    0.000    0.000 
#    0.000    0.000    0.000    0.000    0.000    0.000 
#
# Total GULP energy -156192.857901 kJ/mol
# GULP energy per Si atom -5578.316354 kJ/mol
# Density = 2.404144 g / cm^3
# Si number density = 24.096285 Si / 1000 Ang^3
#
#
#
# Elastic Constant Matrix: (Units=GPa)
#
#
# Indices 1 2 3 4 5 6 
#
# 1 132.0874 25.8761 38.2437 0.0229 -0.0057 -0.0372
# 2 25.8761 54.1640 10.4743 0.0605 -0.0289 -0.0821
# 3 38.2437 10.4743 112.7785 -0.0002 0.0035 -0.0012
# 4 0.0229 0.0605 -0.0002 28.7229 -0.0215 -0.0164
# 5 -0.0057 -0.0289 0.0035 -0.0215 40.8136 -0.0148
# 6 -0.0372 -0.0821 -0.0012 -0.0164 -0.0148 31.2586
#
#
#
# Elastic Compliance Matrix: (Units=1/GPa)
#
#
# Indices 1 2 3 4 5 6 
#
# 1 0.009112 -0.003824 -0.002735 0.000001 -0.000001 0.000001
# 2 -0.003824 0.020405 -0.000598 -0.000040 0.000014 0.000049
# 3 -0.002735 -0.000598 0.009850 0.000004 -0.000002 -0.000004
# 4 0.000001 -0.000040 0.000004 0.034815 0.000018 0.000018
# 5 -0.000001 0.000014 -0.000002 0.000018 0.024502 0.000012
# 6 0.000001 0.000049 -0.000004 0.000018 0.000012 0.031991
#
#
# Mechanical properties :
#
#
# Convention : Reuss Voigt Hill
#
# Bulk Modulus (GPa) = 39.91624 49.80201 44.85912
# Shear Modulus (GPa) = 32.60722 35.12141 33.86432
#
# Velocity S-wave (km/s) = 3.68258 3.82192 3.75290
# Velocity P-wave (km/s) = 5.88924 6.33947 6.11850
#
# Compressibility (1/GPa) = 0.02505246
#
# Stress axis : x y z
#
# Youngs Moduli (GPa) = 109.74934 49.00706 101.52448
#
# Poissons Ratio (x) = 0.18741 0.27763
# Poissons Ratio (y) = 0.41970 0.06075
# Poissons Ratio (z) = 0.30013 0.02932
#
# Static dielectric constant tensor:
#      x y z
#    x 1.953560 0.000030 0.000000 
#    y 0.000030 -0.133840 -0.000030 
#    z 0.000000 -0.000030 1.918170 
# 
# From -- ./inp_files/30057.got.cif
#   From: 2010.05.17/outbox.cif.g08.bks.cpg/sg43_16_cif.got.tgz:30057.got - 2010.06.03 19:21:55.
