data_PCOD9371484
_publ_section_title
;
Structure prediction by ZEFSAII (Michael W. Deem and Ramdas Pophale) SiO2 
 PCOD9371484
Probable space group: F D D 2
;
_chemical_formula_sum "Si O2"
_cell_formula_units_Z 64
_cell_length_a 7.693302
_cell_length_b 36.452699
_cell_length_c 13.517607
_cell_angle_alpha 90.000000
_cell_angle_beta 90.000000
_cell_angle_gamma 90.000000
_cell_volume 3790.899634
_symmetry_space_group_name_H-M "F D D 2"
_symmetry_group_IT_number 43
_symmetry_cell_setting 'orthorhombic'
loop_
_space_group_symop_operation_xyz
x,y,z
-x,-y,z
1/4-x,1/4+y,1/4+z
1/4+x,1/4-y,1/4+z
x,1/2+y,1/2+z
-x,1/2-y,1/2+z
1/4-x,3/4+y,3/4+z
1/4+x,3/4-y,3/4+z
1/2+x,y,1/2+z
1/2-x,-y,1/2+z
3/4-x,1/4+y,3/4+z
3/4+x,1/4-y,3/4+z
1/2+x,1/2+y,z
1/2-x,1/2-y,z
3/4-x,3/4+y,1/4+z
3/4+x,3/4-y,1/4+z
loop_
_atom_site_type_symbol
_atom_site_label
_atom_site_fract_x
_atom_site_fract_y
_atom_site_fract_z
Si Si1 0.067113 0.919389 0.866400
Si Si2 0.255116 0.414153 0.172047
Si Si3 0.568698 0.458546 0.074454
Si Si4 0.819972 0.208630 0.439075
O O1 0.231225 0.917420 0.791081
O O2 0.010265 0.878167 0.891493
O O3 0.926106 0.940469 0.798227
O O4 0.097981 0.941297 0.966408
O O5 0.422221 0.434719 0.130344
O O6 0.079657 0.434531 0.134907
O O7 0.500000 0.500000 0.066366
O O8 0.747527 0.457737 0.134965
O O9 0.750000 0.250000 0.446965
#
# Coordination Sequence:
#
# PCOD9371484 Si02
#       4
#    16  16  16  16
#     4  10  22  42  59  88 124 153 196 248 292 351
#     4  10  22  42  59  89 123 150 201 247 289 358
#     4  12  21  39  66  84 121 162 191 249 300 340
#     4  10  22  41  59  91 119 152 204 241 289 361
#
# _framework density 16.882536000000002
#
# number of rings (size 3 to 8) (size 9 to 14) (size 15 to 20)
#    1.500    0.000    5.000    0.750    0.000    2.000 
#    4.500    1.250    0.000    0.000    0.000    0.000 
#    0.000    0.000    0.000    0.000    0.000    0.000 
#
# Total GULP energy -89087.966914 kJ/mol
# GULP energy per Si atom -5567.997932 kJ/mol
# Density = 1.684411 g / cm^3
# Si number density = 16.882536 Si / 1000 Ang^3
#
#
#
# Elastic Constant Matrix: (Units=GPa)
#
#
# Indices 1 2 3 4 5 6 
#
# 1 113.5584 71.4676 69.8244 0.0000 0.0000 0.0000
# 2 71.4676 162.0219 82.8751 0.0000 0.0000 0.0000
# 3 69.8244 82.8751 144.8175 0.0000 0.0000 0.0000
# 4 0.0000 0.0000 0.0000 22.9019 0.0000 0.0000
# 5 0.0000 0.0000 0.0000 0.0000 28.6495 0.0000
# 6 0.0000 0.0000 0.0000 0.0000 0.0000 11.3778
#
#
#
# Elastic Compliance Matrix: (Units=1/GPa)
#
#
# Indices 1 2 3 4 5 6 
#
# 1 0.014039 -0.003860 -0.004560 0.000000 0.000000 0.000000
# 2 -0.003860 0.009788 -0.003740 0.000000 0.000000 0.000000
# 3 -0.004560 -0.003740 0.011244 0.000000 0.000000 0.000000
# 4 0.000000 0.000000 0.000000 0.043665 0.000000 0.000000
# 5 0.000000 0.000000 0.000000 0.000000 0.034905 0.000000
# 6 0.000000 0.000000 0.000000 0.000000 0.000000 0.087890
#
#
# Mechanical properties :
#
#
# Convention : Reuss Voigt Hill
#
# Bulk Modulus (GPa) = 93.01717 96.52577 94.77147
# Shear Modulus (GPa) = 21.79265 25.66789 23.73027
#
# Velocity S-wave (km/s) = 3.59672 3.90344 3.75321
# Velocity P-wave (km/s) = 8.51263 8.80993 8.66255
#
# Compressibility (1/GPa) = 0.01075070
#
# Stress axis : x y z
#
# Youngs Moduli (GPa) = 71.22859 102.16787 88.93483
#
# Poissons Ratio (x) = 0.39439 0.40554
# Poissons Ratio (y) = 0.27496 0.33262
# Poissons Ratio (z) = 0.32480 0.38211
#
# Static dielectric constant tensor:
#      x y z
#    x 1.545420 0.000000 0.000000 
#    y 0.000000 1.560290 0.000000 
#    z 0.000000 0.000000 1.567060 
# 
# From -- ./inp_files/5306.got.cif
#   From: 2010.05.17/outbox.cif.g08.bks.cpg/sg43_3_cif.got.tgz:5306.got - 2010.06.03 19:21:55.
