data_PCOD9371899
_publ_section_title
;
Structure prediction by ZEFSAII (Michael W. Deem and Ramdas Pophale) SiO2 
 PCOD9371899
Probable space group: F D D 2
;
_chemical_formula_sum "Si O2"
_cell_formula_units_Z 96
_cell_length_a 17.284457
_cell_length_b 20.394018
_cell_length_c 12.642979
_cell_angle_alpha 90.000000
_cell_angle_beta 90.000000
_cell_angle_gamma 90.000000
_cell_volume 4456.644120
_symmetry_space_group_name_H-M "F D D 2"
_symmetry_group_IT_number 43
_symmetry_cell_setting 'orthorhombic'
loop_
_space_group_symop_operation_xyz
x,y,z
-x,-y,z
1/4-x,1/4+y,1/4+z
1/4+x,1/4-y,1/4+z
x,1/2+y,1/2+z
-x,1/2-y,1/2+z
1/4-x,3/4+y,3/4+z
1/4+x,3/4-y,3/4+z
1/2+x,y,1/2+z
1/2-x,-y,1/2+z
3/4-x,1/4+y,3/4+z
3/4+x,1/4-y,3/4+z
1/2+x,1/2+y,z
1/2-x,1/2-y,z
3/4-x,3/4+y,1/4+z
3/4+x,3/4-y,1/4+z
loop_
_atom_site_type_symbol
_atom_site_label
_atom_site_fract_x
_atom_site_fract_y
_atom_site_fract_z
Si Si1 0.380953 0.488979 0.021020
Si Si2 0.981254 0.314146 0.172778
Si Si3 0.250000 0.250000 0.981838
Si Si4 0.330267 0.820814 0.309794
Si Si5 0.241671 0.655163 0.676437
Si Si6 0.149153 0.526164 0.749781
Si Si7 0.000000 0.500000 0.871757
O O1 0.378026 0.507680 0.142426
O O2 0.295937 0.478618 0.979607
O O3 0.423834 0.546187 0.961586
O O4 0.432286 0.423542 0.995788
O O5 0.916876 0.329129 0.264456
O O6 0.942803 0.271128 0.080531
O O7 0.031080 0.371047 0.114196
O O8 0.320922 0.263943 0.900081
O O9 0.256817 0.187445 0.059853
O O10 0.287611 0.801317 0.202254
O O11 0.205225 0.584802 0.707132
O O12 0.066479 0.538338 0.806997
#
# Coordination Sequence:
#
# PCOD9371899 Si02
#       7
#    16  16   8  16  16  16   8
#     4  10  24  42  64 104 132 184 230 302 367 432
#     4  11  26  43  70 107 141 195 241 298 376 443
#     4   9  20  45  72  98 144 187 230 311 366 434
#     4  10  23  44  68 103 143 187 244 301 362 446
#     4  10  24  42  69 102 141 183 239 298 372 438
#     4  11  24  45  69  98 139 188 238 296 364 443
#     4   9  22  47  68  96 136 191 242 297 364 422
#
# _framework density 21.540872
#
# number of rings (size 3 to 8) (size 9 to 14) (size 15 to 20)
#    0.000    2.000    0.000    2.000   11.667    2.667 
#    6.000    0.000    0.000    0.000    0.000    0.000 
#    0.000    0.000    0.000    0.000    0.000    0.000 
#
# Total GULP energy -133614.826717 kJ/mol
# GULP energy per Si atom -5567.284447 kJ/mol
# Density = 2.149184 g / cm^3
# Si number density = 21.540872 Si / 1000 Ang^3
#
#
#
# Elastic Constant Matrix: (Units=GPa)
#
#
# Indices 1 2 3 4 5 6 
#
# 1 149.0721 42.8218 71.6540 0.0000 0.0000 0.0000
# 2 42.8218 72.7121 43.4981 0.0000 0.0000 0.0000
# 3 71.6540 43.4981 166.3502 0.0000 0.0000 0.0000
# 4 0.0000 0.0000 0.0000 61.1716 0.0000 0.0000
# 5 0.0000 0.0000 0.0000 0.0000 41.7754 0.0000
# 6 0.0000 0.0000 0.0000 0.0000 0.0000 16.8507
#
#
#
# Elastic Compliance Matrix: (Units=1/GPa)
#
#
# Indices 1 2 3 4 5 6 
#
# 1 0.009195 -0.003611 -0.003017 0.000000 0.000000 0.000000
# 2 -0.003611 0.017721 -0.003078 0.000000 0.000000 0.000000
# 3 -0.003017 -0.003078 0.008116 0.000000 0.000000 0.000000
# 4 0.000000 0.000000 0.000000 0.016347 0.000000 0.000000
# 5 0.000000 0.000000 0.000000 0.000000 0.023938 0.000000
# 6 0.000000 0.000000 0.000000 0.000000 0.000000 0.059345
#
#
# Mechanical properties :
#
#
# Convention : Reuss Voigt Hill
#
# Bulk Modulus (GPa) = 64.01903 78.23135 71.12519
# Shear Modulus (GPa) = 31.39120 39.30358 35.34739
#
# Velocity S-wave (km/s) = 3.82158 4.27617 4.05525
# Velocity P-wave (km/s) = 7.01833 7.79598 7.41736
#
# Compressibility (1/GPa) = 0.01562036
#
# Stress axis : x y z
#
# Youngs Moduli (GPa) = 108.75026 56.43052 123.21645
#
# Poissons Ratio (x) = 0.20375 0.37171
# Poissons Ratio (y) = 0.39267 0.37932
# Poissons Ratio (z) = 0.32807 0.17372
#
# Static dielectric constant tensor:
#      x y z
#    x 1.774370 0.000000 0.000000 
#    y 0.000000 -1.708200 0.000000 
#    z 0.000000 0.000000 1.803670 
# 
# From -- ./inp_files/6722.got.cif
#   From: 2010.05.17/outbox.cif.g08.bks.cpg/sg43_4_cif.got.tgz:6722.got - 2010.06.03 19:21:55.
