data_PCOD9371618
_publ_section_title
;
Structure prediction by ZEFSAII (Michael W. Deem and Ramdas Pophale) SiO2 
 PCOD9371618
Probable space group: F D D 2
;
_chemical_formula_sum "Si O2"
_cell_formula_units_Z 80
_cell_length_a 23.600742
_cell_length_b 15.587277
_cell_length_c 9.957266
_cell_angle_alpha 90.000000
_cell_angle_beta 90.000000
_cell_angle_gamma 90.000000
_cell_volume 3662.992417
_symmetry_space_group_name_H-M "F D D 2"
_symmetry_group_IT_number 43
_symmetry_cell_setting 'orthorhombic'
loop_
_space_group_symop_operation_xyz
x,y,z
-x,-y,z
1/4-x,1/4+y,1/4+z
1/4+x,1/4-y,1/4+z
x,1/2+y,1/2+z
-x,1/2-y,1/2+z
1/4-x,3/4+y,3/4+z
1/4+x,3/4-y,3/4+z
1/2+x,y,1/2+z
1/2-x,-y,1/2+z
3/4-x,1/4+y,3/4+z
3/4+x,1/4-y,3/4+z
1/2+x,1/2+y,z
1/2-x,1/2-y,z
3/4-x,3/4+y,1/4+z
3/4+x,3/4-y,1/4+z
loop_
_atom_site_type_symbol
_atom_site_label
_atom_site_fract_x
_atom_site_fract_y
_atom_site_fract_z
Si Si1 0.451703 0.705143 0.940810
Si Si2 0.189228 0.880717 0.790599
Si Si3 0.582466 0.010484 0.791229
Si Si4 0.011367 0.882118 0.417866
Si Si5 0.589393 0.322015 0.646432
O O1 0.488728 0.787013 0.897582
O O2 0.428323 0.669685 0.801531
O O3 0.495009 0.641568 0.009254
O O4 0.400159 0.733278 0.037933
O O5 0.153824 0.855155 0.657468
O O6 0.166825 0.972802 0.848793
O O7 0.183548 0.808218 0.903761
O O8 0.545906 0.060976 0.904873
O O9 0.555996 0.916609 0.807780
O O10 0.047608 0.877552 0.554244
#
# Coordination Sequence:
#
# PCOD9371618 Si02
#       5
#    16  16  16  16  16
#     4  10  22  44  70  94 141 183 223 291 346 416
#     4  10  22  45  68  94 139 180 228 281 352 409
#     4  10  22  43  67 100 133 174 238 275 347 414
#     4  10  22  43  65 101 133 177 235 284 345 411
#     4  10  22  45  63  99 135 177 229 280 349 411
#
# _framework density 21.840067999999999
#
# number of rings (size 3 to 8) (size 9 to 14) (size 15 to 20)
#    0.000    2.000    2.000    0.000    0.000    6.400 
#   28.800    0.000    0.000    0.000    0.000    0.000 
#    0.000    0.000    0.000    0.000    0.000    0.000 
#
# Total GULP energy -111533.631680 kJ/mol
# GULP energy per Si atom -5576.681584 kJ/mol
# Density = 2.179036 g / cm^3
# Si number density = 21.840068 Si / 1000 Ang^3
#
#
#
# Elastic Constant Matrix: (Units=GPa)
#
#
# Indices 1 2 3 4 5 6 
#
# 1 161.3729 35.4242 57.9848 0.0000 0.0000 0.0000
# 2 35.4242 42.2018 38.5779 0.0000 0.0000 0.0000
# 3 57.9848 38.5779 72.1985 0.0000 0.0000 0.0000
# 4 0.0000 0.0000 0.0000 30.4118 0.0000 0.0000
# 5 0.0000 0.0000 0.0000 0.0000 49.9482 0.0000
# 6 0.0000 0.0000 0.0000 0.0000 0.0000 30.7568
#
#
#
# Elastic Compliance Matrix: (Units=1/GPa)
#
#
# Indices 1 2 3 4 5 6 
#
# 1 0.008780 -0.001806 -0.006087 0.000000 0.000000 0.000000
# 2 -0.001806 0.046693 -0.023499 0.000000 0.000000 0.000000
# 3 -0.006087 -0.023499 0.031295 0.000000 0.000000 0.000000
# 4 0.000000 0.000000 0.000000 0.032882 0.000000 0.000000
# 5 0.000000 0.000000 0.000000 0.000000 0.020021 0.000000
# 6 0.000000 0.000000 0.000000 0.000000 0.000000 0.032513
#
#
# Mechanical properties :
#
#
# Convention : Reuss Voigt Hill
#
# Bulk Modulus (GPa) = 41.69268 59.97188 50.83228
# Shear Modulus (GPa) = 20.57932 31.80913 26.19422
#
# Velocity S-wave (km/s) = 3.07298 3.82050 3.46694
# Velocity P-wave (km/s) = 5.63226 6.85425 6.27308
#
# Compressibility (1/GPa) = 0.02398503
#
# Stress axis : x y z
#
# Youngs Moduli (GPa) = 113.88990 21.41662 31.95381
#
# Poissons Ratio (x) = 0.03868 0.19449
# Poissons Ratio (y) = 0.20572 0.75087
# Poissons Ratio (z) = 0.69321 0.50326
#
# Static dielectric constant tensor:
#      x y z
#    x 1.894440 0.000000 0.000000 
#    y 0.000000 1.873510 0.000000 
#    z 0.000000 0.000000 1.785610 
# 
# From -- ./inp_files/7442.got.cif
#   From: 2010.05.17/outbox.cif.g08.bks.cpg/sg43_4_cif.got.tgz:7442.got - 2010.06.03 19:21:55.
