data_PCOD9371852
_publ_section_title
;
Structure prediction by ZEFSAII (Michael W. Deem and Ramdas Pophale) SiO2 
 PCOD9371852
Probable space group: F D D 2
;
_chemical_formula_sum "Si O2"
_cell_formula_units_Z 96
_cell_length_a 15.723093
_cell_length_b 11.591370
_cell_length_c 22.421527
_cell_angle_alpha 90.000000
_cell_angle_beta 90.000000
_cell_angle_gamma 90.000000
_cell_volume 4086.372365
_symmetry_space_group_name_H-M "F D D 2"
_symmetry_group_IT_number 43
_symmetry_cell_setting 'orthorhombic'
loop_
_space_group_symop_operation_xyz
x,y,z
-x,-y,z
1/4-x,1/4+y,1/4+z
1/4+x,1/4-y,1/4+z
x,1/2+y,1/2+z
-x,1/2-y,1/2+z
1/4-x,3/4+y,3/4+z
1/4+x,3/4-y,3/4+z
1/2+x,y,1/2+z
1/2-x,-y,1/2+z
3/4-x,1/4+y,3/4+z
3/4+x,1/4-y,3/4+z
1/2+x,1/2+y,z
1/2-x,1/2-y,z
3/4-x,3/4+y,1/4+z
3/4+x,3/4-y,1/4+z
loop_
_atom_site_type_symbol
_atom_site_label
_atom_site_fract_x
_atom_site_fract_y
_atom_site_fract_z
Si Si1 0.500000 0.000000 0.510520
Si Si2 0.319533 0.877494 0.076355
Si Si3 0.000000 0.000000 0.811454
Si Si4 0.112328 0.414056 0.021491
Si Si5 0.250000 0.750000 0.967754
Si Si6 0.379637 0.828149 0.662144
Si Si7 0.750000 0.250000 0.174229
Si Si8 0.513081 0.259732 0.078115
O O1 0.580678 0.980625 0.466997
O O2 0.498437 0.885747 0.550526
O O3 0.255553 0.859987 0.130661
O O4 0.390249 0.777894 0.082973
O O5 0.366927 0.998160 0.074834
O O6 0.274724 0.852808 0.013382
O O7 0.943843 0.917211 0.770378
O O8 0.063710 0.929821 0.856133
O O9 0.032725 0.332662 0.035638
O O10 0.082484 0.488287 0.965527
O O11 0.330390 0.701944 0.930645
O O12 0.461746 0.757664 0.639765
#
# Coordination Sequence:
#
# PCOD9371852 Si02
#       8
#     8  16   8  16   8  16   8  16
#     4  11  23  46  71 102 149 186 251 299 370 432
#     4  11  25  45  69 108 142 190 247 299 364 444
#     4   9  24  46  70 106 142 186 242 295 356 442
#     4  11  24  49  71 104 151 189 243 303 367 441
#     4  11  23  42  71 100 141 182 243 289 362 434
#     4  10  23  42  71 103 136 192 235 300 361 427
#     4  11  26  46  74 104 148 200 232 313 370 426
#     4  11  23  45  70 107 143 191 246 307 355 448
#
# _framework density 23.492719000000001
#
# number of rings (size 3 to 8) (size 9 to 14) (size 15 to 20)
#    0.000    1.333    3.333    0.500    2.333    8.000 
#    9.000    0.000    0.000    0.000    0.000    0.000 
#    0.000    0.000    0.000    0.000    0.000    0.000 
#
# Total GULP energy -134117.427612 kJ/mol
# GULP energy per Si atom -5588.226150 kJ/mol
# Density = 2.343925 g / cm^3
# Si number density = 23.492719 Si / 1000 Ang^3
#
#
#
# Elastic Constant Matrix: (Units=GPa)
#
#
# Indices 1 2 3 4 5 6 
#
# 1 131.6320 48.7817 55.1135 0.0000 0.0000 0.0000
# 2 48.7817 110.6992 41.2039 0.0000 0.0000 0.0000
# 3 55.1135 41.2039 93.4662 0.0000 0.0000 0.0000
# 4 0.0000 0.0000 0.0000 2.7568 0.0000 0.0000
# 5 0.0000 0.0000 0.0000 0.0000 31.2529 0.0000
# 6 0.0000 0.0000 0.0000 0.0000 0.0000 50.2063
#
#
#
# Elastic Compliance Matrix: (Units=1/GPa)
#
#
# Indices 1 2 3 4 5 6 
#
# 1 0.010793 -0.002856 -0.005105 0.000000 0.000000 0.000000
# 2 -0.002856 0.011562 -0.003413 0.000000 0.000000 0.000000
# 3 -0.005105 -0.003413 0.015214 0.000000 0.000000 0.000000
# 4 0.000000 0.000000 0.000000 0.362734 0.000000 0.000000
# 5 0.000000 0.000000 0.000000 0.000000 0.031997 0.000000
# 6 0.000000 0.000000 0.000000 0.000000 0.000000 0.019918
#
#
# Mechanical properties :
#
#
# Convention : Reuss Voigt Hill
#
# Bulk Modulus (GPa) = 67.47241 69.55506 68.51373
# Shear Modulus (GPa) = 10.41869 29.55642 19.98756
#
# Velocity S-wave (km/s) = 2.10820 3.55083 2.92001
# Velocity P-wave (km/s) = 5.89143 6.81781 6.37148
#
# Compressibility (1/GPa) = 0.01482087
#
# Stress axis : x y z
#
# Youngs Moduli (GPa) = 92.65466 86.48705 65.72867
#
# Poissons Ratio (x) = 0.24699 0.33555
# Poissons Ratio (y) = 0.26461 0.22435
# Poissons Ratio (z) = 0.47301 0.29520
#
# Static dielectric constant tensor:
#      x y z
#    x 1.866350 0.000000 0.000000 
#    y 0.000000 1.901340 0.000000 
#    z 0.000000 0.000000 1.925950 
# 
# From -- ./inp_files/21117.got.cif
#   From: 2010.05.17/outbox.cif.g08.bks.cpg/sg43_11_cif.got.tgz:21117.got - 2010.06.03 19:21:55.
