data_PCOD9371234
_publ_section_title
;
Structure prediction by ZEFSAII (Michael W. Deem and Ramdas Pophale) SiO2 
 PCOD9371234
Probable space group: F D D 2
;
_chemical_formula_sum "Si O2"
_cell_formula_units_Z 88
_cell_length_a 9.877870
_cell_length_b 30.042758
_cell_length_c 11.520892
_cell_angle_alpha 90.000000
_cell_angle_beta 90.000000
_cell_angle_gamma 90.000000
_cell_volume 3418.922144
_symmetry_space_group_name_H-M "F D D 2"
_symmetry_group_IT_number 43
_symmetry_cell_setting 'orthorhombic'
loop_
_space_group_symop_operation_xyz
x,y,z
-x,-y,z
1/4-x,1/4+y,1/4+z
1/4+x,1/4-y,1/4+z
x,1/2+y,1/2+z
-x,1/2-y,1/2+z
1/4-x,3/4+y,3/4+z
1/4+x,3/4-y,3/4+z
1/2+x,y,1/2+z
1/2-x,-y,1/2+z
3/4-x,1/4+y,3/4+z
3/4+x,1/4-y,3/4+z
1/2+x,1/2+y,z
1/2-x,1/2-y,z
3/4-x,3/4+y,1/4+z
3/4+x,3/4-y,1/4+z
loop_
_atom_site_type_symbol
_atom_site_label
_atom_site_fract_x
_atom_site_fract_y
_atom_site_fract_z
Si Si1 0.410253 0.591221 0.051230
Si Si2 0.262552 0.412816 0.773731
Si Si3 0.799767 0.501100 0.184604
Si Si4 0.662935 0.186736 0.235435
Si Si5 0.250000 0.750000 0.828795
Si Si6 0.449114 0.684403 0.115527
O O1 0.365050 0.592816 0.185792
O O2 0.506054 0.549493 0.023602
O O3 0.450768 0.641995 0.028495
O O4 0.277545 0.580076 0.979614
O O5 0.351526 0.451303 0.712272
O O6 0.321190 0.363558 0.784858
O O7 0.206694 0.432313 0.892317
O O8 0.874739 0.527895 0.083721
O O9 0.641251 0.497742 0.147638
O O10 0.786953 0.528024 0.303687
O O11 0.798849 0.196851 0.159353
#
# Coordination Sequence:
#
# PCOD9371234 Si02
#       6
#    16  16  16  16   8  16
#     4  10  21  41  71  97 146 189 253 307 379 466
#     4  10  23  45  69 110 144 195 251 316 388 465
#     4  11  25  44  76 111 147 199 254 314 394 470
#     4  11  24  47  77 108 157 197 260 326 386 473
#     4  10  22  44  62  98 140 180 244 304 372 448
#     4  11  22  43  72 106 140 203 243 310 391 462
#
# _framework density 25.739104999999999
#
# number of rings (size 3 to 8) (size 9 to 14) (size 15 to 20)
#    0.000    1.455    0.000    7.636    5.091    2.909 
#    3.273    1.818    0.000    0.000    0.000    0.000 
#    0.000    0.000    0.000    0.000    0.000    0.000 
#
# Total GULP energy -123067.195974 kJ/mol
# GULP energy per Si atom -5593.963453 kJ/mol
# Density = 2.568052 g / cm^3
# Si number density = 25.739105 Si / 1000 Ang^3
#
#
#
# Elastic Constant Matrix: (Units=GPa)
#
#
# Indices 1 2 3 4 5 6 
#
# 1 65.9078 19.6179 34.0821 0.0000 0.0000 0.0000
# 2 19.6179 171.9922 35.4970 0.0000 0.0000 0.0000
# 3 34.0821 35.4970 95.9394 0.0000 0.0000 0.0000
# 4 0.0000 0.0000 0.0000 30.0637 0.0000 0.0000
# 5 0.0000 0.0000 0.0000 0.0000 27.1213 0.0000
# 6 0.0000 0.0000 0.0000 0.0000 0.0000 41.6332
#
#
#
# Elastic Compliance Matrix: (Units=1/GPa)
#
#
# Indices 1 2 3 4 5 6 
#
# 1 0.018695 -0.000825 -0.006336 0.000000 0.000000 0.000000
# 2 -0.000825 0.006331 -0.002050 0.000000 0.000000 0.000000
# 3 -0.006336 -0.002050 0.013432 0.000000 0.000000 0.000000
# 4 0.000000 0.000000 0.000000 0.033263 0.000000 0.000000
# 5 0.000000 0.000000 0.000000 0.000000 0.036871 0.000000
# 6 0.000000 0.000000 0.000000 0.000000 0.000000 0.024019
#
#
# Mechanical properties :
#
#
# Convention : Reuss Voigt Hill
#
# Bulk Modulus (GPa) = 49.90585 56.91484 53.41035
# Shear Modulus (GPa) = 31.70340 36.07312 33.88826
#
# Velocity S-wave (km/s) = 3.51340 3.74771 3.63244
# Velocity P-wave (km/s) = 5.99081 6.39432 6.19585
#
# Compressibility (1/GPa) = 0.02003773
#
# Stress axis : x y z
#
# Youngs Moduli (GPa) = 53.49119 157.94570 74.44665
#
# Poissons Ratio (x) = 0.13025 0.47170
# Poissons Ratio (y) = 0.04411 0.15258
# Poissons Ratio (z) = 0.33892 0.32372
#
# Static dielectric constant tensor:
#      x y z
#    x 2.013030 0.000000 0.000000 
#    y 0.000000 2.240490 0.000000 
#    z 0.000000 0.000000 1.983590 
# 
# From -- ./inp_files/5768.got.cif
#   From: 2010.05.17/outbox.cif.g08.bks.cpg/sg43_3_cif.got.tgz:5768.got - 2010.06.03 19:21:55.
