data_PCOD9371468
_publ_section_title
;
Structure prediction by ZEFSAII (Michael W. Deem and Ramdas Pophale) SiO2 
 PCOD9371468
Probable space group: F D D 2
;
_chemical_formula_sum "Si O2"
_cell_formula_units_Z 72
_cell_length_a 17.355787
_cell_length_b 10.192666
_cell_length_c 15.553363
_cell_angle_alpha 90.000000
_cell_angle_beta 90.000000
_cell_angle_gamma 90.000000
_cell_volume 2751.416978
_symmetry_space_group_name_H-M "F D D 2"
_symmetry_group_IT_number 43
_symmetry_cell_setting 'orthorhombic'
loop_
_space_group_symop_operation_xyz
x,y,z
-x,-y,z
1/4-x,1/4+y,1/4+z
1/4+x,1/4-y,1/4+z
x,1/2+y,1/2+z
-x,1/2-y,1/2+z
1/4-x,3/4+y,3/4+z
1/4+x,3/4-y,3/4+z
1/2+x,y,1/2+z
1/2-x,-y,1/2+z
3/4-x,1/4+y,3/4+z
3/4+x,1/4-y,3/4+z
1/2+x,1/2+y,z
1/2-x,1/2-y,z
3/4-x,3/4+y,1/4+z
3/4+x,3/4-y,1/4+z
loop_
_atom_site_type_symbol
_atom_site_label
_atom_site_fract_x
_atom_site_fract_y
_atom_site_fract_z
Si Si1 0.160182 0.333799 0.806490
Si Si2 0.996776 0.315598 0.612702
Si Si3 0.750000 0.250000 0.598241
Si Si4 0.891545 0.688389 0.984967
Si Si5 0.112899 0.857352 0.980546
O O1 0.222965 0.414896 0.863293
O O2 0.175755 0.206086 0.750870
O O3 0.131558 0.450561 0.745395
O O4 0.106379 0.287986 0.884217
O O5 0.937514 0.303026 0.533187
O O6 0.947228 0.346726 0.697406
O O7 0.069912 0.395040 0.572110
O O8 0.810552 0.185905 0.533134
O O9 0.697190 0.156882 0.658610
#
# Coordination Sequence:
#
# PCOD9371468 Si02
#       5
#    16  16   8  16  16
#     4  10  24  42  67 104 142 190 241 322 378 462
#     4   9  21  43  69  99 140 189 240 309 374 466
#     4  10  22  40  68 102 142 198 246 312 372 490
#     4  11  22  42  68 104 143 191 249 302 398 456
#     4   9  21  42  67 103 140 187 250 310 383 451
#
# _framework density 26.168336
#
# number of rings (size 3 to 8) (size 9 to 14) (size 15 to 20)
#    1.333    0.889    0.000    2.000    3.111    1.778 
#    8.000    0.000    0.000    0.000    5.778    0.000 
#    0.000    0.000    0.000    0.000    0.000    0.000 
#
# Total GULP energy -100285.383033 kJ/mol
# GULP energy per Si atom -5571.410169 kJ/mol
# Density = 2.610878 g / cm^3
# Si number density = 26.168336 Si / 1000 Ang^3
#
#
#
# Elastic Constant Matrix: (Units=GPa)
#
#
# Indices 1 2 3 4 5 6 
#
# 1 115.0841 35.8352 55.3665 0.0000 0.0000 0.0000
# 2 35.8352 69.8707 18.9668 0.0000 0.0000 0.0000
# 3 55.3665 18.9668 145.6672 0.0000 0.0000 0.0000
# 4 0.0000 0.0000 0.0000 31.5450 0.0000 0.0000
# 5 0.0000 0.0000 0.0000 0.0000 31.5376 0.0000
# 6 0.0000 0.0000 0.0000 0.0000 0.0000 27.9405
#
#
#
# Elastic Compliance Matrix: (Units=1/GPa)
#
#
# Indices 1 2 3 4 5 6 
#
# 1 0.012213 -0.005187 -0.003967 0.000000 0.000000 0.000000
# 2 -0.005187 0.017039 -0.000247 0.000000 0.000000 0.000000
# 3 -0.003967 -0.000247 0.008405 0.000000 0.000000 0.000000
# 4 0.000000 0.000000 0.000000 0.031701 0.000000 0.000000
# 5 0.000000 0.000000 0.000000 0.000000 0.031708 0.000000
# 6 0.000000 0.000000 0.000000 0.000000 0.000000 0.035790
#
#
# Mechanical properties :
#
#
# Convention : Reuss Voigt Hill
#
# Bulk Modulus (GPa) = 53.03420 61.21768 57.12594
# Shear Modulus (GPa) = 30.87510 32.90151 31.88831
#
# Velocity S-wave (km/s) = 3.43864 3.54969 3.49461
# Velocity P-wave (km/s) = 6.00635 6.34390 6.17743
#
# Compressibility (1/GPa) = 0.01885576
#
# Stress axis : x y z
#
# Youngs Moduli (GPa) = 81.88203 58.68717 118.97978
#
# Poissons Ratio (x) = 0.30440 0.47194
# Poissons Ratio (y) = 0.42471 0.02941
# Poissons Ratio (z) = 0.32479 0.01451
#
# Static dielectric constant tensor:
#      x y z
#    x 2.323180 0.000000 0.000000 
#    y 0.000000 2.063130 0.000000 
#    z 0.000000 0.000000 2.051290 
# 
# From -- ./inp_files/9459.got.cif
#   From: 2010.05.17/outbox.cif.g08.bks.cpg/sg43_5_cif.got.tgz:9459.got - 2010.06.03 19:21:55.
