data_PCOD9371842
_publ_section_title
;
Structure prediction by ZEFSAII (Michael W. Deem and Ramdas Pophale) SiO2 
 PCOD9371842
Probable space group: F D D 2
;
_chemical_formula_sum "Si O2"
_cell_formula_units_Z 112
_cell_length_a 14.712746
_cell_length_b 23.051483
_cell_length_c 14.604366
_cell_angle_alpha 90.000000
_cell_angle_beta 90.000000
_cell_angle_gamma 90.000000
_cell_volume 4953.079700
_symmetry_space_group_name_H-M "F D D 2"
_symmetry_group_IT_number 43
_symmetry_cell_setting 'orthorhombic'
loop_
_space_group_symop_operation_xyz
x,y,z
-x,-y,z
1/4-x,1/4+y,1/4+z
1/4+x,1/4-y,1/4+z
x,1/2+y,1/2+z
-x,1/2-y,1/2+z
1/4-x,3/4+y,3/4+z
1/4+x,3/4-y,3/4+z
1/2+x,y,1/2+z
1/2-x,-y,1/2+z
3/4-x,1/4+y,3/4+z
3/4+x,1/4-y,3/4+z
1/2+x,1/2+y,z
1/2-x,1/2-y,z
3/4-x,3/4+y,1/4+z
3/4+x,3/4-y,1/4+z
loop_
_atom_site_type_symbol
_atom_site_label
_atom_site_fract_x
_atom_site_fract_y
_atom_site_fract_z
Si Si1 0.307691 0.633681 0.913460
Si Si2 0.665959 0.437087 0.567440
Si Si3 0.257979 0.928356 0.734744
Si Si4 0.743340 0.946794 0.808153
Si Si5 0.000000 0.000000 0.582583
Si Si6 0.250000 0.750000 0.864197
Si Si7 0.106449 0.601757 0.178756
Si Si8 0.823042 0.507085 0.486401
O O1 0.267525 0.612940 0.817308
O O2 0.253012 0.693141 0.928282
O O3 0.412910 0.651625 0.922603
O O4 0.303284 0.575080 0.971844
O O5 0.665929 0.431856 0.675619
O O6 0.570871 0.460115 0.528724
O O7 0.691340 0.377695 0.519046
O O8 0.740561 0.483991 0.545921
O O9 0.290354 0.991238 0.770064
O O10 0.796080 0.915668 0.723581
O O11 0.669939 0.902715 0.854419
O O12 0.811776 0.969922 0.890889
O O13 0.939453 0.955892 0.640891
O O14 0.335785 0.748771 0.794697
#
# Coordination Sequence:
#
# PCOD9371842 Si02
#       8
#    16  16  16  16   8   8  16  16
#     4  11  24  43  69 103 139 182 236 286 359 418
#     4  11  24  42  67 101 141 183 237 296 346 422
#     4  11  23  41  70 102 142 182 231 297 350 421
#     4  10  23  42  67 101 142 183 235 293 354 419
#     4  12  24  41  68  99 134 186 226 288 358 405
#     4  12  22  41  68 103 134 184 230 284 364 409
#     4  11  23  41  66 102 139 183 236 293 350 423
#     4  10  24  44  67 101 141 182 233 299 350 425
#
# _framework density 22.612193000000001
#
# number of rings (size 3 to 8) (size 9 to 14) (size 15 to 20)
#    0.000    1.143    5.714    0.000    4.000    0.571 
#    2.571    1.429    0.000    0.000    0.000    0.000 
#    0.000    0.000    0.000    0.000    0.000    0.000 
#
# Total GULP energy -156019.568576 kJ/mol
# GULP energy per Si atom -5572.127449 kJ/mol
# Density = 2.256073 g / cm^3
# Si number density = 22.612193 Si / 1000 Ang^3
#
#
#
# Elastic Constant Matrix: (Units=GPa)
#
#
# Indices 1 2 3 4 5 6 
#
# 1 67.0921 14.1699 10.5868 0.0000 0.0000 0.0000
# 2 14.1699 153.4030 27.3072 0.0000 0.0000 0.0000
# 3 10.5868 27.3072 37.8058 0.0000 0.0000 0.0000
# 4 0.0000 0.0000 0.0000 5.9480 0.0000 0.0000
# 5 0.0000 0.0000 0.0000 0.0000 24.9220 0.0000
# 6 0.0000 0.0000 0.0000 0.0000 0.0000 29.9999
#
#
#
# Elastic Compliance Matrix: (Units=1/GPa)
#
#
# Indices 1 2 3 4 5 6 
#
# 1 0.015672 -0.000765 -0.003836 0.000000 0.000000 0.000000
# 2 -0.000765 0.007518 -0.005216 0.000000 0.000000 0.000000
# 3 -0.003836 -0.005216 0.031293 0.000000 0.000000 0.000000
# 4 0.000000 0.000000 0.000000 0.168122 0.000000 0.000000
# 5 0.000000 0.000000 0.000000 0.000000 0.040125 0.000000
# 6 0.000000 0.000000 0.000000 0.000000 0.000000 0.033333
#
#
# Mechanical properties :
#
#
# Convention : Reuss Voigt Hill
#
# Bulk Modulus (GPa) = 28.69566 40.26985 34.48276
# Shear Modulus (GPa) = 15.27586 25.92310 20.59948
#
# Velocity S-wave (km/s) = 2.60197 3.38956 3.02154
# Velocity P-wave (km/s) = 4.66314 5.75903 5.23981
#
# Compressibility (1/GPa) = 0.03484847
#
# Stress axis : x y z
#
# Youngs Moduli (GPa) = 63.80911 133.01545 31.95622
#
# Poissons Ratio (x) = 0.10172 0.12259
# Poissons Ratio (y) = 0.04880 0.16669
# Poissons Ratio (z) = 0.24479 0.69382
#
# Static dielectric constant tensor:
#      x y z
#    x 1.863790 0.000000 0.000000 
#    y 0.000000 1.908590 0.000000 
#    z 0.000000 0.000000 1.894190 
# 
# From -- ./inp_files/10220.got.cif
#   From: 2010.05.17/outbox.cif.g08.bks.cpg/sg43_6_cif.got.tgz:10220.got - 2010.06.03 19:21:55.
