data_PCOD9371445
_publ_section_title
;
Structure prediction by ZEFSAII (Michael W. Deem and Ramdas Pophale) SiO2 
 PCOD9371445
Probable space group: F D D 2
;
_chemical_formula_sum "Si O2"
_cell_formula_units_Z 112
_cell_length_a 14.782902
_cell_length_b 28.918651
_cell_length_c 12.092043
_cell_angle_alpha 90.000000
_cell_angle_beta 90.000000
_cell_angle_gamma 90.000000
_cell_volume 5169.367533
_symmetry_space_group_name_H-M "F D D 2"
_symmetry_group_IT_number 43
_symmetry_cell_setting 'orthorhombic'
loop_
_space_group_symop_operation_xyz
x,y,z
-x,-y,z
1/4-x,1/4+y,1/4+z
1/4+x,1/4-y,1/4+z
x,1/2+y,1/2+z
-x,1/2-y,1/2+z
1/4-x,3/4+y,3/4+z
1/4+x,3/4-y,3/4+z
1/2+x,y,1/2+z
1/2-x,-y,1/2+z
3/4-x,1/4+y,3/4+z
3/4+x,1/4-y,3/4+z
1/2+x,1/2+y,z
1/2-x,1/2-y,z
3/4-x,3/4+y,1/4+z
3/4+x,3/4-y,1/4+z
loop_
_atom_site_type_symbol
_atom_site_label
_atom_site_fract_x
_atom_site_fract_y
_atom_site_fract_z
Si Si1 0.000000 0.500000 0.131400
Si Si2 0.370239 0.623783 0.579981
Si Si3 0.426705 0.283481 0.229239
Si Si4 0.500000 0.000000 0.590803
Si Si5 0.356028 0.021849 0.967471
Si Si6 0.290607 0.818159 0.028660
Si Si7 0.814732 0.330655 0.541684
Si Si8 0.786049 0.605863 0.672616
O O1 0.964264 0.538995 0.211944
O O2 0.916626 0.489983 0.048819
O O3 0.351925 0.572863 0.525067
O O4 0.278375 0.651656 0.590783
O O5 0.403387 0.618462 0.704480
O O6 0.448830 0.645905 0.503246
O O7 0.339626 0.254399 0.268265
O O8 0.509305 0.250585 0.197456
O O9 0.389610 0.315327 0.129677
O O10 0.458108 0.314695 0.333319
O O11 0.498723 0.955582 0.671467
O O12 0.409428 0.029902 0.853684
O O13 0.222270 0.846741 0.104175
O O14 0.371747 0.852526 0.992187
#
# Coordination Sequence:
#
# PCOD9371445 Si02
#       8
#     8  16  16   8  16  16  16  16
#     4  10  22  42  66  92 124 168 214 262 316 382
#     4  10  22  41  63  89 123 166 210 258 315 379
#     4  11  25  41  62  93 129 166 207 261 320 376
#     4  10  24  42  60  88 128 166 202 256 318 376
#     4  10  22  41  65  92 123 165 213 258 312 379
#     4  10  22  40  64  90 121 161 210 261 309 372
#     4  11  24  40  63  93 127 164 208 262 315 374
#     4  10  22  41  64  90 121 164 212 262 316 377
#
# _framework density 21.666094000000001
#
# number of rings (size 3 to 8) (size 9 to 14) (size 15 to 20)
#    0.000    1.714    0.000    3.429    0.000   16.000 
#    0.000    0.000    0.000    0.000    0.000    0.000 
#    0.000    0.000    0.000    0.000    0.000    0.000 
#
# Total GULP energy -156549.779554 kJ/mol
# GULP energy per Si atom -5591.063556 kJ/mol
# Density = 2.161678 g / cm^3
# Si number density = 21.666094 Si / 1000 Ang^3
#
#
#
# Elastic Constant Matrix: (Units=GPa)
#
#
# Indices 1 2 3 4 5 6 
#
# 1 114.5004 39.3503 54.2079 0.0000 0.0000 0.0000
# 2 39.3503 25.6655 32.2622 0.0000 0.0000 0.0000
# 3 54.2079 32.2622 80.2452 0.0000 0.0000 0.0000
# 4 0.0000 0.0000 0.0000 51.5110 0.0000 0.0000
# 5 0.0000 0.0000 0.0000 0.0000 11.1041 0.0000
# 6 0.0000 0.0000 0.0000 0.0000 0.0000 24.5103
#
#
#
# Elastic Compliance Matrix: (Units=1/GPa)
#
#
# Indices 1 2 3 4 5 6 
#
# 1 0.018656 -0.025801 -0.002230 0.000000 0.000000 0.000000
# 2 -0.025801 0.114455 -0.028587 0.000000 0.000000 0.000000
# 3 -0.002230 -0.028587 0.025461 0.000000 0.000000 0.000000
# 4 0.000000 0.000000 0.000000 0.019413 0.000000 0.000000
# 5 0.000000 0.000000 0.000000 0.000000 0.090057 0.000000
# 6 0.000000 0.000000 0.000000 0.000000 0.000000 0.040799
#
#
# Mechanical properties :
#
#
# Convention : Reuss Voigt Hill
#
# Bulk Modulus (GPa) = 22.05673 52.45022 37.25347
# Shear Modulus (GPa) = 11.43669 23.73113 17.58391
#
# Velocity S-wave (km/s) = 2.30002 3.31314 2.85193
# Velocity P-wave (km/s) = 4.15401 6.23673 5.29871
#
# Compressibility (1/GPa) = 0.04533764
#
# Stress axis : x y z
#
# Youngs Moduli (GPa) = 53.60163 8.73704 39.27543
#
# Poissons Ratio (x) = 0.22542 0.08757
# Poissons Ratio (y) = 1.38297 1.12276
# Poissons Ratio (z) = 0.11951 0.24977
#
# Static dielectric constant tensor:
#      x y z
#    x 1.712830 0.000000 0.000000 
#    y 0.000000 1.765280 0.000000 
#    z 0.000000 0.000000 1.800530 
# 
# From -- ./inp_files/6355.got.cif
#   From: 2010.05.17/outbox.cif.g08.bks.cpg/sg43_4_cif.got.tgz:6355.got - 2010.06.03 19:21:55.
