data_PCOD9371819
_publ_section_title
;
Structure prediction by ZEFSAII (Michael W. Deem and Ramdas Pophale) SiO2 
 PCOD9371819
Probable space group: F D D 2
;
_chemical_formula_sum "Si O2"
_cell_formula_units_Z 112
_cell_length_a 11.545243
_cell_length_b 15.754297
_cell_length_c 27.952986
_cell_angle_alpha 90.000000
_cell_angle_beta 90.000000
_cell_angle_gamma 90.000000
_cell_volume 5084.289996
_symmetry_space_group_name_H-M "F D D 2"
_symmetry_group_IT_number 43
_symmetry_cell_setting 'orthorhombic'
loop_
_space_group_symop_operation_xyz
x,y,z
-x,-y,z
1/4-x,1/4+y,1/4+z
1/4+x,1/4-y,1/4+z
x,1/2+y,1/2+z
-x,1/2-y,1/2+z
1/4-x,3/4+y,3/4+z
1/4+x,3/4-y,3/4+z
1/2+x,y,1/2+z
1/2-x,-y,1/2+z
3/4-x,1/4+y,3/4+z
3/4+x,1/4-y,3/4+z
1/2+x,1/2+y,z
1/2-x,1/2-y,z
3/4-x,3/4+y,1/4+z
3/4+x,3/4-y,1/4+z
loop_
_atom_site_type_symbol
_atom_site_label
_atom_site_fract_x
_atom_site_fract_y
_atom_site_fract_z
Si Si1 0.987653 0.185014 0.658220
Si Si2 0.604264 0.641283 0.202083
Si Si3 0.470237 0.146996 0.889091
Si Si4 0.094219 0.700128 0.458678
Si Si5 0.789379 0.490526 0.304591
Si Si6 0.980461 0.591214 0.611358
Si Si7 0.945199 0.087766 0.290226
O O1 0.933959 0.263795 0.687285
O O2 0.947012 0.101144 0.684645
O O3 0.934946 0.191382 0.604157
O O4 0.127701 0.177097 0.653472
O O5 0.735840 0.616169 0.213829
O O6 0.573807 0.590477 0.153797
O O7 0.521942 0.613071 0.245404
O O8 0.443107 0.226068 0.922495
O O9 0.608848 0.138131 0.887526
O O10 0.445051 0.156884 0.832167
O O11 0.121574 0.737992 0.510775
O O12 0.749915 0.581666 0.325410
O O13 0.685368 0.438794 0.279323
O O14 0.000000 0.500000 0.587014
O O15 0.000000 0.000000 0.310430
#
# Coordination Sequence:
#
# PCOD9371819 Si02
#       7
#    16  16  16  16  16  16  16
#     4  10  26  44  61  98 138 183 224 278 346 421
#     4  11  22  38  68  98 128 166 226 287 335 405
#     4  11  23  40  66  92 134 173 219 280 337 408
#     4  12  22  44  66  92 135 186 226 279 340 419
#     4  10  23  40  68  94 135 178 220 289 347 403
#     4  11  20  37  66 103 125 162 229 279 340 398
#     4  11  19  39  65  99 129 166 220 288 347 391
#
# _framework density 22.028641
#
# number of rings (size 3 to 8) (size 9 to 14) (size 15 to 20)
#    0.000    1.143    4.286    2.143    0.000    2.286 
#    2.571    2.857    3.143    0.000    0.000    0.000 
#    0.000    0.000    0.000    0.000    0.000    0.000 
#
# Total GULP energy -156208.624151 kJ/mol
# GULP energy per Si atom -5578.879434 kJ/mol
# Density = 2.197850 g / cm^3
# Si number density = 22.028641 Si / 1000 Ang^3
#
#
#
# Elastic Constant Matrix: (Units=GPa)
#
#
# Indices 1 2 3 4 5 6 
#
# 1 98.0799 11.5583 40.0923 0.0000 0.0000 0.0000
# 2 11.5583 60.0900 40.7268 0.0000 0.0000 0.0000
# 3 40.0923 40.7268 117.6551 0.0000 0.0000 0.0000
# 4 0.0000 0.0000 0.0000 24.3325 0.0000 0.0000
# 5 0.0000 0.0000 0.0000 0.0000 9.2422 0.0000
# 6 0.0000 0.0000 0.0000 0.0000 0.0000 20.7139
#
#
#
# Elastic Compliance Matrix: (Units=1/GPa)
#
#
# Indices 1 2 3 4 5 6 
#
# 1 0.011862 0.000598 -0.004249 0.000000 0.000000 0.000000
# 2 0.000598 0.021773 -0.007741 0.000000 0.000000 0.000000
# 3 -0.004249 -0.007741 0.012627 0.000000 0.000000 0.000000
# 4 0.000000 0.000000 0.000000 0.041097 0.000000 0.000000
# 5 0.000000 0.000000 0.000000 0.000000 0.108199 0.000000
# 6 0.000000 0.000000 0.000000 0.000000 0.000000 0.048277
#
#
# Mechanical properties :
#
#
# Convention : Reuss Voigt Hill
#
# Bulk Modulus (GPa) = 42.59165 51.17551 46.88358
# Shear Modulus (GPa) = 18.21857 23.08755 20.65306
#
# Velocity S-wave (km/s) = 2.87895 3.24090 3.06527
# Velocity P-wave (km/s) = 5.51614 6.10626 5.81868
#
# Compressibility (1/GPa) = 0.02347878
#
# Stress axis : x y z
#
# Youngs Moduli (GPa) = 84.30095 45.92847 79.19598
#
# Poissons Ratio (x) = -0.02748 0.33653
# Poissons Ratio (y) = -0.05044 0.61303
# Poissons Ratio (z) = 0.35822 0.35552
#
# Static dielectric constant tensor:
#      x y z
#    x 1.898730 0.000000 0.000000 
#    y 0.000000 1.836080 0.000000 
#    z 0.000000 0.000000 1.788250 
# 
# From -- ./inp_files/28649.got.cif
#   From: 2010.05.17/outbox.cif.g08.bks.cpg/sg43_15_cif.got.tgz:28649.got - 2010.06.03 19:21:55.
