data_PCOD9371232
_publ_section_title
;
Structure prediction by ZEFSAII (Michael W. Deem and Ramdas Pophale) SiO2 
 PCOD9371232
Probable space group: F D D 2
;
_chemical_formula_sum "Si O2"
_cell_formula_units_Z 112
_cell_length_a 10.235513
_cell_length_b 32.907832
_cell_length_c 14.127706
_cell_angle_alpha 90.000000
_cell_angle_beta 90.000000
_cell_angle_gamma 90.000000
_cell_volume 4758.614617
_symmetry_space_group_name_H-M "F D D 2"
_symmetry_group_IT_number 43
_symmetry_cell_setting 'orthorhombic'
loop_
_space_group_symop_operation_xyz
x,y,z
-x,-y,z
1/4-x,1/4+y,1/4+z
1/4+x,1/4-y,1/4+z
x,1/2+y,1/2+z
-x,1/2-y,1/2+z
1/4-x,3/4+y,3/4+z
1/4+x,3/4-y,3/4+z
1/2+x,y,1/2+z
1/2-x,-y,1/2+z
3/4-x,1/4+y,3/4+z
3/4+x,1/4-y,3/4+z
1/2+x,1/2+y,z
1/2-x,1/2-y,z
3/4-x,3/4+y,1/4+z
3/4+x,3/4-y,1/4+z
loop_
_atom_site_type_symbol
_atom_site_label
_atom_site_fract_x
_atom_site_fract_y
_atom_site_fract_z
Si Si1 0.417873 0.658020 0.853410
Si Si2 0.162158 0.178494 0.480773
Si Si3 0.194451 0.015233 0.749200
Si Si4 0.381726 0.971419 0.035931
Si Si5 0.860219 0.978491 0.953768
Si Si6 0.189345 0.349933 0.654843
Si Si7 0.682916 0.421134 0.779590
O O1 0.412184 0.689505 0.768832
O O2 0.415580 0.611482 0.820956
O O3 0.541663 0.662923 0.919832
O O4 0.292140 0.671469 0.918019
O O5 0.060360 0.146962 0.433334
O O6 0.194532 0.164698 0.587474
O O7 0.096726 0.222806 0.482833
O O8 0.130100 0.025404 0.649185
O O9 0.151406 0.036690 0.845554
O O10 0.165576 0.969079 0.780084
O O11 0.500000 0.000000 0.004041
O O12 0.415856 0.927125 0.997193
O O13 0.250902 0.989097 0.986422
O O14 0.000000 0.000000 0.968790
O O15 0.062059 0.340613 0.589932
#
# Coordination Sequence:
#
# PCOD9371232 Si02
#       7
#    16  16  16  16  16  16  16
#     4  10  23  42  66 102 135 191 238 293 353 431
#     4  10  22  41  71 103 141 190 246 301 358 438
#     4  12  24  44  66 107 143 185 236 301 369 429
#     4  12  25  45  71 101 145 190 241 300 368 434
#     4  12  26  44  72 101 140 187 245 298 361 433
#     4  10  21  41  71 102 139 192 246 302 357 437
#     4  10  22  40  69  99 140 180 241 293 353 427
#
# _framework density 23.536262000000001
#
# number of rings (size 3 to 8) (size 9 to 14) (size 15 to 20)
#    0.000    1.143    2.857    3.000    2.000    3.429 
#    2.571    0.000    0.000    0.000    0.000    0.000 
#    0.000    0.000    0.000    0.000    0.000    0.000 
#
# Total GULP energy -156542.969744 kJ/mol
# GULP energy per Si atom -5590.820348 kJ/mol
# Density = 2.348269 g / cm^3
# Si number density = 23.536262 Si / 1000 Ang^3
#
#
#
# Elastic Constant Matrix: (Units=GPa)
#
#
# Indices 1 2 3 4 5 6 
#
# 1 52.1854 0.1778 16.5753 0.0000 0.0000 0.0000
# 2 0.1778 80.3560 31.6864 0.0000 0.0000 0.0000
# 3 16.5753 31.6864 142.5359 0.0000 0.0000 0.0000
# 4 0.0000 0.0000 0.0000 19.9655 0.0000 0.0000
# 5 0.0000 0.0000 0.0000 0.0000 21.5683 0.0000
# 6 0.0000 0.0000 0.0000 0.0000 0.0000 20.6887
#
#
#
# Elastic Compliance Matrix: (Units=1/GPa)
#
#
# Indices 1 2 3 4 5 6 
#
# 1 0.019964 0.000955 -0.002534 0.000000 0.000000 0.000000
# 2 0.000955 0.013686 -0.003154 0.000000 0.000000 0.000000
# 3 -0.002534 -0.003154 0.008011 0.000000 0.000000 0.000000
# 4 0.000000 0.000000 0.000000 0.050086 0.000000 0.000000
# 5 0.000000 0.000000 0.000000 0.000000 0.046364 0.000000
# 6 0.000000 0.000000 0.000000 0.000000 0.000000 0.048335
#
#
# Mechanical properties :
#
#
# Convention : Reuss Voigt Hill
#
# Bulk Modulus (GPa) = 31.05909 41.32849 36.19379
# Shear Modulus (GPa) = 24.19612 27.55370 25.87491
#
# Velocity S-wave (km/s) = 3.20978 3.42525 3.31926
# Velocity P-wave (km/s) = 5.19248 5.76548 5.48646
#
# Compressibility (1/GPa) = 0.03219669
#
# Stress axis : x y z
#
# Youngs Moduli (GPa) = 50.09012 73.06728 124.82081
#
# Poissons Ratio (x) = -0.06978 0.31628
# Poissons Ratio (y) = -0.04784 0.39363
# Poissons Ratio (z) = 0.12692 0.23042
#
# Static dielectric constant tensor:
#      x y z
#    x 1.935770 0.000000 0.000000 
#    y 0.000000 1.933770 0.000000 
#    z 0.000000 0.000000 1.866390 
# 
# From -- ./inp_files/9780.got.cif
#   From: 2010.05.17/outbox.cif.g08.bks.cpg/sg43_5_cif.got.tgz:9780.got - 2010.06.03 19:21:55.
