data_PCOD9371684
_publ_section_title
;
Structure prediction by ZEFSAII (Michael W. Deem and Ramdas Pophale) SiO2 
 PCOD9371684
Probable space group: F D D 2
;
_chemical_formula_sum "Si O2"
_cell_formula_units_Z 96
_cell_length_a 16.434551
_cell_length_b 10.616740
_cell_length_c 26.035260
_cell_angle_alpha 90.000000
_cell_angle_beta 90.000000
_cell_angle_gamma 90.000000
_cell_volume 4542.667442
_symmetry_space_group_name_H-M "F D D 2"
_symmetry_group_IT_number 43
_symmetry_cell_setting 'orthorhombic'
loop_
_space_group_symop_operation_xyz
x,y,z
-x,-y,z
1/4-x,1/4+y,1/4+z
1/4+x,1/4-y,1/4+z
x,1/2+y,1/2+z
-x,1/2-y,1/2+z
1/4-x,3/4+y,3/4+z
1/4+x,3/4-y,3/4+z
1/2+x,y,1/2+z
1/2-x,-y,1/2+z
3/4-x,1/4+y,3/4+z
3/4+x,1/4-y,3/4+z
1/2+x,1/2+y,z
1/2-x,1/2-y,z
3/4-x,3/4+y,1/4+z
3/4+x,3/4-y,1/4+z
loop_
_atom_site_type_symbol
_atom_site_label
_atom_site_fract_x
_atom_site_fract_y
_atom_site_fract_z
Si Si1 0.473106 0.866678 0.723090
Si Si2 0.127393 0.432400 0.992766
Si Si3 0.898090 0.844850 0.325822
Si Si4 0.250000 0.750000 0.330934
Si Si5 0.741172 0.486395 0.868698
Si Si6 0.584415 0.450310 0.802468
Si Si7 0.250000 0.250000 0.654850
O O1 0.548596 0.781229 0.741342
O O2 0.413860 0.904930 0.769647
O O3 0.447470 0.791153 0.672767
O O4 0.500000 0.000000 0.701065
O O5 0.071397 0.450558 0.942490
O O6 0.073965 0.472436 0.041960
O O7 0.158790 0.288970 0.001355
O O8 0.912692 0.700347 0.308868
O O9 0.812410 0.890407 0.350325
O O10 0.963825 0.893188 0.367183
O O11 0.227194 0.870869 0.365011
O O12 0.668794 0.481004 0.828981
O O13 0.500000 0.500000 0.826571
#
# Coordination Sequence:
#
# PCOD9371684 Si02
#       7
#    16  16  16   8  16  16   8
#     4  12  23  40  69  99 140 187 242 298 368 439
#     4  10  22  44  70 102 132 192 246 301 363 450
#     4  12  24  44  72 103 146 192 245 310 369 455
#     4   9  22  42  70  98 138 182 240 297 362 436
#     4  11  25  44  70 102 145 185 240 298 370 444
#     4  11  24  47  68 101 149 183 235 312 373 447
#     4  11  24  44  76 102 142 190 254 303 372 448
#
# _framework density 21.132957999999999
#
# number of rings (size 3 to 8) (size 9 to 14) (size 15 to 20)
#    0.000    1.000    4.167    2.500    0.000    1.333 
#    3.000    0.000    0.000    0.000    0.000    0.000 
#    0.000    0.000    0.000    0.000    0.000    0.000 
#
# Total GULP energy -133617.358046 kJ/mol
# GULP energy per Si atom -5567.389919 kJ/mol
# Density = 2.108486 g / cm^3
# Si number density = 21.132958 Si / 1000 Ang^3
#
#
#
# Elastic Constant Matrix: (Units=GPa)
#
#
# Indices 1 2 3 4 5 6 
#
# 1 86.9610 22.0421 11.4448 0.0000 0.0000 0.0000
# 2 22.0421 131.0018 36.1198 0.0000 0.0000 0.0000
# 3 11.4448 36.1198 88.7023 0.0000 0.0000 0.0000
# 4 0.0000 0.0000 0.0000 27.1657 0.0000 0.0000
# 5 0.0000 0.0000 0.0000 0.0000 24.6293 0.0000
# 6 0.0000 0.0000 0.0000 0.0000 0.0000 22.8065
#
#
#
# Elastic Compliance Matrix: (Units=1/GPa)
#
#
# Indices 1 2 3 4 5 6 
#
# 1 0.012065 -0.001803 -0.000822 0.000000 0.000000 0.000000
# 2 -0.001803 0.008868 -0.003379 0.000000 0.000000 0.000000
# 3 -0.000822 -0.003379 0.012756 0.000000 0.000000 0.000000
# 4 0.000000 0.000000 0.000000 0.036811 0.000000 0.000000
# 5 0.000000 0.000000 0.000000 0.000000 0.040602 0.000000
# 6 0.000000 0.000000 0.000000 0.000000 0.000000 0.043847
#
#
# Mechanical properties :
#
#
# Convention : Reuss Voigt Hill
#
# Bulk Modulus (GPa) = 46.12483 49.54206 47.83345
# Shear Modulus (GPa) = 28.70525 30.72419 29.71472
#
# Velocity S-wave (km/s) = 3.68953 3.81708 3.75385
# Velocity P-wave (km/s) = 6.32642 6.55139 6.43989
#
# Compressibility (1/GPa) = 0.02168030
#
# Stress axis : x y z
#
# Youngs Moduli (GPa) = 82.88637 112.75949 78.39728
#
# Poissons Ratio (x) = 0.20333 0.06447
# Poissons Ratio (y) = 0.14946 0.26487
# Poissons Ratio (z) = 0.06816 0.38097
#
# Static dielectric constant tensor:
#      x y z
#    x 1.760970 0.000000 0.000000 
#    y 0.000000 1.933030 0.000000 
#    z 0.000000 0.000000 1.774570 
# 
# From -- ./inp_files/22076.got.cif
#   From: 2010.05.17/outbox.cif.g08.bks.cpg/sg43_12_cif.got.tgz:22076.got - 2010.06.03 19:21:55.
