data_PCOD9371534
_publ_section_title
;
Structure prediction by ZEFSAII (Michael W. Deem and Ramdas Pophale) SiO2 
 PCOD9371534
Probable space group: F D D 2
;
_chemical_formula_sum "Si O2"
_cell_formula_units_Z 120
_cell_length_a 8.693606
_cell_length_b 24.962122
_cell_length_c 27.446121
_cell_angle_alpha 90.000000
_cell_angle_beta 90.000000
_cell_angle_gamma 90.000000
_cell_volume 5956.106146
_symmetry_space_group_name_H-M "F D D 2"
_symmetry_group_IT_number 43
_symmetry_cell_setting 'orthorhombic'
loop_
_space_group_symop_operation_xyz
x,y,z
-x,-y,z
1/4-x,1/4+y,1/4+z
1/4+x,1/4-y,1/4+z
x,1/2+y,1/2+z
-x,1/2-y,1/2+z
1/4-x,3/4+y,3/4+z
1/4+x,3/4-y,3/4+z
1/2+x,y,1/2+z
1/2-x,-y,1/2+z
3/4-x,1/4+y,3/4+z
3/4+x,1/4-y,3/4+z
1/2+x,1/2+y,z
1/2-x,1/2-y,z
3/4-x,3/4+y,1/4+z
3/4+x,3/4-y,1/4+z
loop_
_atom_site_type_symbol
_atom_site_label
_atom_site_fract_x
_atom_site_fract_y
_atom_site_fract_z
Si Si1 0.153819 0.696257 0.725290
Si Si2 0.750000 0.250000 0.075476
Si Si3 0.811009 0.998304 0.759554
Si Si4 0.158588 0.391816 0.269143
Si Si5 0.760034 0.814694 0.117110
Si Si6 0.163765 0.303771 0.771277
Si Si7 0.898019 0.134698 0.463561
Si Si8 0.908010 0.356755 0.105831
O O1 0.250000 0.750000 0.724736
O O2 0.215785 0.653094 0.763838
O O3 0.172808 0.672087 0.670675
O O4 0.991107 0.713701 0.745277
O O5 0.786854 0.306838 0.102000
O O6 0.587109 0.252323 0.045851
O O7 0.795917 0.056713 0.736152
O O8 0.792648 0.942377 0.732157
O O9 0.000000 0.000000 0.770636
O O10 0.116042 0.411729 0.323601
O O11 0.004351 0.371443 0.244215
O O12 0.750000 0.750000 0.116637
O O13 0.585074 0.834739 0.107267
O O14 0.250000 0.250000 0.788460
O O15 0.245121 0.335953 0.727855
O O16 0.144834 0.349355 0.812943
O O17 0.867697 0.135804 0.406825
#
# Coordination Sequence:
#
# PCOD9371534 Si02
#       8
#    16   8  16  16  16  16  16  16
#     4  11  26  44  69 101 138 183 234 289 358 422
#     4  12  22  42  72 104 136 178 246 294 348 410
#     4  10  22  41  71  97 137 185 233 289 350 413
#     4  11  20  42  71  97 136 181 231 290 345 412
#     4  11  23  42  73 107 132 180 234 289 349 420
#     4  12  27  45  69 101 143 189 227 292 362 427
#     4  11  23  43  67 104 138 182 232 285 353 421
#     4  12  25  43  72 108 140 184 236 293 353 430
#
# _framework density 20.147390999999999
#
# number of rings (size 3 to 8) (size 9 to 14) (size 15 to 20)
#    0.000    0.800    4.000    4.400    2.800    3.733 
#    0.000    0.000    1.467    0.000    0.000    0.000 
#    0.000    0.000    0.000    0.000    0.000    0.000 
#
# Total GULP energy -167030.763868 kJ/mol
# GULP energy per Si atom -5567.692129 kJ/mol
# Density = 2.010153 g / cm^3
# Si number density = 20.147391 Si / 1000 Ang^3
#
#
#
# Elastic Constant Matrix: (Units=GPa)
#
#
# Indices 1 2 3 4 5 6 
#
# 1 74.4816 36.1599 46.5166 0.0000 0.0000 0.0000
# 2 36.1599 112.2074 34.1603 0.0000 0.0000 0.0000
# 3 46.5166 34.1603 98.8230 0.0000 0.0000 0.0000
# 4 0.0000 0.0000 0.0000 27.5669 0.0000 0.0000
# 5 0.0000 0.0000 0.0000 0.0000 16.2289 0.0000
# 6 0.0000 0.0000 0.0000 0.0000 0.0000 35.7968
#
#
#
# Elastic Compliance Matrix: (Units=1/GPa)
#
#
# Indices 1 2 3 4 5 6 
#
# 1 0.020589 -0.004118 -0.008268 0.000000 0.000000 0.000000
# 2 -0.004118 0.010784 -0.001789 0.000000 0.000000 0.000000
# 3 -0.008268 -0.001789 0.014629 0.000000 0.000000 0.000000
# 4 0.000000 0.000000 0.000000 0.036275 0.000000 0.000000
# 5 0.000000 0.000000 0.000000 0.000000 0.061618 0.000000
# 6 0.000000 0.000000 0.000000 0.000000 0.000000 0.027935
#
#
# Mechanical properties :
#
#
# Convention : Reuss Voigt Hill
#
# Bulk Modulus (GPa) = 56.65127 57.68731 57.16929
# Shear Modulus (GPa) = 24.26410 27.16353 25.71382
#
# Velocity S-wave (km/s) = 3.47411 3.67582 3.57639
# Velocity P-wave (km/s) = 6.65372 6.83450 6.74472
#
# Compressibility (1/GPa) = 0.01765185
#
# Stress axis : x y z
#
# Youngs Moduli (GPa) = 48.56974 92.73128 68.35560
#
# Poissons Ratio (x) = 0.38186 0.56516
# Poissons Ratio (y) = 0.20001 0.12231
# Poissons Ratio (z) = 0.40157 0.16593
#
# Static dielectric constant tensor:
#      x y z
#    x 1.764430 0.000000 0.000000 
#    y 0.000000 1.701230 0.000000 
#    z 0.000000 0.000000 1.730230 
# 
# From -- ./inp_files/24460.got.cif
#   From: 2010.05.17/outbox.cif.g08.bks.cpg/sg43_13_cif.got.tgz:24460.got - 2010.06.03 19:21:55.
