data_PCOD9371200
_publ_section_title
;
Structure prediction by ZEFSAII (Michael W. Deem and Ramdas Pophale) SiO2 
 PCOD9371200
Probable space group: F D D 2
;
_chemical_formula_sum "Si O2"
_cell_formula_units_Z 80
_cell_length_a 14.461241
_cell_length_b 17.689562
_cell_length_c 11.641101
_cell_angle_alpha 90.000000
_cell_angle_beta 90.000000
_cell_angle_gamma 90.000000
_cell_volume 2977.945194
_symmetry_space_group_name_H-M "F D D 2"
_symmetry_group_IT_number 43
_symmetry_cell_setting 'orthorhombic'
loop_
_space_group_symop_operation_xyz
x,y,z
-x,-y,z
1/4-x,1/4+y,1/4+z
1/4+x,1/4-y,1/4+z
x,1/2+y,1/2+z
-x,1/2-y,1/2+z
1/4-x,3/4+y,3/4+z
1/4+x,3/4-y,3/4+z
1/2+x,y,1/2+z
1/2-x,-y,1/2+z
3/4-x,1/4+y,3/4+z
3/4+x,1/4-y,3/4+z
1/2+x,1/2+y,z
1/2-x,1/2-y,z
3/4-x,3/4+y,1/4+z
3/4+x,3/4-y,1/4+z
loop_
_atom_site_type_symbol
_atom_site_label
_atom_site_fract_x
_atom_site_fract_y
_atom_site_fract_z
Si Si1 0.522189 0.867377 0.208920
Si Si2 0.306228 0.654181 0.012070
Si Si3 0.643001 0.973937 0.358969
Si Si4 0.093264 0.616255 0.991894
Si Si5 0.031721 0.270693 0.414285
O O1 0.562777 0.936076 0.283072
O O2 0.596063 0.812434 0.141228
O O3 0.449665 0.897985 0.115765
O O4 0.483976 0.806718 0.302905
O O5 0.197422 0.645200 0.999031
O O6 0.333643 0.690541 0.135432
O O7 0.351242 0.572883 0.977066
O O8 0.361825 0.703499 0.918634
O O9 0.730608 0.951039 0.279370
O O10 0.029491 0.681906 0.935504
#
# Coordination Sequence:
#
# PCOD9371200 Si02
#       5
#    16  16  16  16  16
#     4  10  23  40  69  97 137 175 227 284 350 412
#     4  11  21  40  64  95 129 179 228 279 343 418
#     4  10  21  42  67  99 135 179 225 285 344 416
#     4  11  23  39  66  95 131 174 221 286 346 412
#     4  10  21  41  65  95 129 179 228 285 334 425
#
# _framework density 26.864163000000001
#
# number of rings (size 3 to 8) (size 9 to 14) (size 15 to 20)
#    0.000    1.600    4.000    0.600    2.800    0.000 
#    0.000    4.000    0.000    0.000    0.000    0.000 
#    0.000    0.000    0.000    0.000    0.000    0.000 
#
# Total GULP energy -111630.864780 kJ/mol
# GULP energy per Si atom -5581.543239 kJ/mol
# Density = 2.680302 g / cm^3
# Si number density = 26.864163 Si / 1000 Ang^3
#
#
#
# Elastic Constant Matrix: (Units=GPa)
#
#
# Indices 1 2 3 4 5 6 
#
# 1 62.9411 17.0816 47.9933 0.0000 0.0000 0.0000
# 2 17.0816 76.9196 4.5296 0.0000 0.0000 0.0000
# 3 47.9933 4.5296 191.7997 0.0000 0.0000 0.0000
# 4 0.0000 0.0000 0.0000 28.1734 0.0000 0.0000
# 5 0.0000 0.0000 0.0000 0.0000 53.1217 0.0000
# 6 0.0000 0.0000 0.0000 0.0000 0.0000 31.3867
#
#
#
# Elastic Compliance Matrix: (Units=1/GPa)
#
#
# Indices 1 2 3 4 5 6 
#
# 1 0.020999 -0.004360 -0.005152 0.000000 0.000000 0.000000
# 2 -0.004360 0.013924 0.000762 0.000000 0.000000 0.000000
# 3 -0.005152 0.000762 0.006485 0.000000 0.000000 0.000000
# 4 0.000000 0.000000 0.000000 0.035494 0.000000 0.000000
# 5 0.000000 0.000000 0.000000 0.000000 0.018825 0.000000
# 6 0.000000 0.000000 0.000000 0.000000 0.000000 0.031861
#
#
# Mechanical properties :
#
#
# Convention : Reuss Voigt Hill
#
# Bulk Modulus (GPa) = 41.82492 52.31885 47.07188
# Shear Modulus (GPa) = 32.66771 40.00677 36.33724
#
# Velocity S-wave (km/s) = 3.49095 3.86323 3.68180
# Velocity P-wave (km/s) = 5.64374 6.27830 5.96946
#
# Compressibility (1/GPa) = 0.02390919
#
# Stress axis : x y z
#
# Youngs Moduli (GPa) = 47.62070 71.81886 154.20583
#
# Poissons Ratio (x) = 0.31313 0.79441
# Poissons Ratio (y) = 0.20762 -0.11753
# Poissons Ratio (z) = 0.24532 -0.05474
#
# Static dielectric constant tensor:
#      x y z
#    x 2.082090 0.000000 0.000000 
#    y 0.000000 2.277600 0.000000 
#    z 0.000000 0.000000 2.360850 
# 
# From -- ./inp_files/4163.got.cif
#   From: 2010.05.17/outbox.cif.g08.bks.cpg/sg43_3_cif.got.tgz:4163.got - 2010.06.03 19:21:55.
