data_PCOD9371758
_publ_section_title
;
Structure prediction by ZEFSAII (Michael W. Deem and Ramdas Pophale) SiO2 
 PCOD9371758
Probable space group: F D D 2
;
_chemical_formula_sum "Si O2"
_cell_formula_units_Z 104
_cell_length_a 21.760229
_cell_length_b 9.692239
_cell_length_c 19.963683
_cell_angle_alpha 90.000000
_cell_angle_beta 90.000000
_cell_angle_gamma 90.000000
_cell_volume 4210.447354
_symmetry_space_group_name_H-M "F D D 2"
_symmetry_group_IT_number 43
_symmetry_cell_setting 'orthorhombic'
loop_
_space_group_symop_operation_xyz
x,y,z
-x,-y,z
1/4-x,1/4+y,1/4+z
1/4+x,1/4-y,1/4+z
x,1/2+y,1/2+z
-x,1/2-y,1/2+z
1/4-x,3/4+y,3/4+z
1/4+x,3/4-y,3/4+z
1/2+x,y,1/2+z
1/2-x,-y,1/2+z
3/4-x,1/4+y,3/4+z
3/4+x,1/4-y,3/4+z
1/2+x,1/2+y,z
1/2-x,1/2-y,z
3/4-x,3/4+y,1/4+z
3/4+x,3/4-y,1/4+z
loop_
_atom_site_type_symbol
_atom_site_label
_atom_site_fract_x
_atom_site_fract_y
_atom_site_fract_z
Si Si1 0.098799 0.515734 0.344910
Si Si2 0.674579 0.575439 0.622379
Si Si3 0.250000 0.250000 0.979544
Si Si4 0.950380 0.285339 0.129588
Si Si5 0.721057 0.960656 0.732292
Si Si6 0.250000 0.750000 0.017805
Si Si7 0.592067 0.017291 0.659578
Si Si8 0.750000 0.250000 0.711705
O O1 0.106666 0.681148 0.348572
O O2 0.058612 0.485593 0.278870
O O3 0.147669 0.393220 0.357446
O O4 0.056766 0.502427 0.411027
O O5 0.619149 0.669509 0.644795
O O6 0.723513 0.577785 0.683174
O O7 0.713845 0.638631 0.561817
O O8 0.257810 0.115580 0.933027
O O9 0.944258 0.119348 0.135325
O O10 0.962953 0.349521 0.055781
O O11 0.658284 0.967324 0.689237
O O12 0.740895 0.114739 0.752345
O O13 0.197268 0.819141 0.972830
#
# Coordination Sequence:
#
# PCOD9371758 Si02
#       8
#    16  16   8  16  16   8  16   8
#     4   9  21  48  74 104 144 205 252 313 395 455
#     4  11  24  47  82 111 155 204 256 331 399 476
#     4  11  26  47  72 111 166 195 260 324 406 465
#     4  12  27  46  73 119 151 206 263 326 394 478
#     4  10  22  46  73 108 153 197 257 309 396 457
#     4  12  24  46  78 120 154 196 264 326 408 476
#     4  11  25  46  79 108 151 200 262 323 389 474
#     4   7  16  39  72  97 134 189 238 310 364 453
#
# _framework density 24.700462000000002
#
# number of rings (size 3 to 8) (size 9 to 14) (size 15 to 20)
#    0.000    1.538    1.538    2.769    0.000    6.154 
#   11.077    0.000    0.000    0.000    0.000    0.000 
#    0.000    0.000    0.000    0.000    0.000    0.000 
#
# Total GULP energy -145231.938608 kJ/mol
# GULP energy per Si atom -5585.843793 kJ/mol
# Density = 2.464424 g / cm^3
# Si number density = 24.700462 Si / 1000 Ang^3
#
#
#
# Elastic Constant Matrix: (Units=GPa)
#
#
# Indices 1 2 3 4 5 6 
#
# 1 55.1007 41.6685 34.9514 0.0000 0.0000 0.0000
# 2 41.6685 158.7676 46.1701 0.0000 0.0000 0.0000
# 3 34.9514 46.1701 124.7444 0.0000 0.0000 0.0000
# 4 0.0000 0.0000 0.0000 19.3461 0.0000 0.0000
# 5 0.0000 0.0000 0.0000 0.0000 -272.0365 0.0000
# 6 0.0000 0.0000 0.0000 0.0000 0.0000 41.5080
#
#
#
# Elastic Compliance Matrix: (Units=1/GPa)
#
#
# Indices 1 2 3 4 5 6 
#
# 1 0.025329 -0.005137 -0.005196 0.000000 0.000000 0.000000
# 2 -0.005137 0.008100 -0.001559 0.000000 0.000000 0.000000
# 3 -0.005196 -0.001559 0.010049 0.000000 0.000000 0.000000
# 4 0.000000 0.000000 0.000000 0.051690 0.000000 0.000000
# 5 0.000000 0.000000 0.000000 0.000000 -0.003676 0.000000
# 6 0.000000 0.000000 0.000000 0.000000 0.000000 0.024092
#
#
# Mechanical properties :
#
#
# Convention : Reuss Voigt Hill
#
# Bulk Modulus (GPa) = 50.77219 64.91029 57.84124
# Shear Modulus (GPa) = 34.26297 -27.84830 3.20734
#
# Velocity S-wave (km/s) = 3.72847 -3.36138 1.14075
# Velocity P-wave (km/s) = 6.25581 3.35721 5.02026
#
# Compressibility (1/GPa) = 0.01969582
#
# Stress axis : x y z
#
# Youngs Moduli (GPa) = 39.48104 123.45843 99.51241
#
# Poissons Ratio (x) = 0.63416 0.51702
# Poissons Ratio (y) = 0.20280 0.15511
# Poissons Ratio (z) = 0.20512 0.19244
#
# Static dielectric constant tensor:
#      x y z
#    x 2.076810 0.000000 0.000000 
#    y 0.000000 2.040710 0.000000 
#    z 0.000000 0.000000 1.954550 
# 
# From -- ./inp_files/18882.got.cif
#   From: 2010.05.17/outbox.cif.g08.bks.cpg/sg43_10_cif.got.tgz:18882.got - 2010.06.03 19:21:55.
