data_PCOD9371670
_publ_section_title
;
Structure prediction by ZEFSAII (Michael W. Deem and Ramdas Pophale) SiO2 
 PCOD9371670
Probable space group: F D D 2
;
_chemical_formula_sum "Si O2"
_cell_formula_units_Z 112
_cell_length_a 23.875269
_cell_length_b 11.318886
_cell_length_c 18.114132
_cell_angle_alpha 90.000000
_cell_angle_beta 90.000000
_cell_angle_gamma 90.000000
_cell_volume 4895.189261
_symmetry_space_group_name_H-M "F D D 2"
_symmetry_group_IT_number 43
_symmetry_cell_setting 'orthorhombic'
loop_
_space_group_symop_operation_xyz
x,y,z
-x,-y,z
1/4-x,1/4+y,1/4+z
1/4+x,1/4-y,1/4+z
x,1/2+y,1/2+z
-x,1/2-y,1/2+z
1/4-x,3/4+y,3/4+z
1/4+x,3/4-y,3/4+z
1/2+x,y,1/2+z
1/2-x,-y,1/2+z
3/4-x,1/4+y,3/4+z
3/4+x,1/4-y,3/4+z
1/2+x,1/2+y,z
1/2-x,1/2-y,z
3/4-x,3/4+y,1/4+z
3/4+x,3/4-y,1/4+z
loop_
_atom_site_type_symbol
_atom_site_label
_atom_site_fract_x
_atom_site_fract_y
_atom_site_fract_z
Si Si1 0.965781 0.620698 0.748650
Si Si2 0.055227 0.480101 0.114326
Si Si3 0.005288 0.751850 0.891500
Si Si4 0.434777 0.772089 0.667250
Si Si5 0.912342 0.916411 0.474258
Si Si6 0.649355 0.053166 0.213706
Si Si7 0.153292 0.625187 0.565131
O O1 0.899688 0.612193 0.732897
O O2 0.000000 0.500000 0.761228
O O3 0.973536 0.698027 0.821679
O O4 0.002939 0.683801 0.685649
O O5 0.060406 0.339390 0.112072
O O6 0.114887 0.518772 0.141836
O O7 0.000000 0.500000 0.163326
O O8 0.048361 0.571037 0.046578
O O9 0.052445 0.656765 0.915550
O O10 0.040348 0.862623 0.862387
O O11 0.959271 0.761425 0.955756
O O12 0.408375 0.720190 0.745915
O O13 0.397250 0.870998 0.625753
O O14 0.905123 0.056495 0.461002
O O15 0.607447 0.998373 0.273976
#
# Coordination Sequence:
#
# PCOD9371670 Si02
#       7
#    16  16  16  16  16  16  16
#     4  11  23  43  67 100 144 183 235 291 363 433
#     4  11  22  39  63  98 130 168 229 294 344 416
#     4  11  24  43  67 103 143 184 238 303 366 432
#     4  10  22  44  67  97 141 179 238 296 357 443
#     4  12  23  40  70  97 134 186 234 291 353 427
#     4  11  22  43  68  98 136 179 238 294 359 442
#     4  10  23  44  68  97 140 187 232 303 373 439
#
# _framework density 22.879605000000002
#
# number of rings (size 3 to 8) (size 9 to 14) (size 15 to 20)
#    0.000    1.143    2.857    3.857    0.000    0.000 
#    0.000   11.429    0.000    0.000    0.000    0.000 
#    0.000    0.000    0.000    0.000    0.000    0.000 
#
# Total GULP energy -155932.695799 kJ/mol
# GULP energy per Si atom -5569.024850 kJ/mol
# Density = 2.282753 g / cm^3
# Si number density = 22.879605 Si / 1000 Ang^3
#
#
#
# Elastic Constant Matrix: (Units=GPa)
#
#
# Indices 1 2 3 4 5 6 
#
# 1 166.4718 35.7460 33.8230 0.0000 0.0000 0.0000
# 2 35.7460 48.9020 10.9300 0.0000 0.0000 0.0000
# 3 33.8230 10.9300 56.2057 0.0000 0.0000 0.0000
# 4 0.0000 0.0000 0.0000 24.0523 0.0000 0.0000
# 5 0.0000 0.0000 0.0000 0.0000 30.0662 0.0000
# 6 0.0000 0.0000 0.0000 0.0000 0.0000 39.7092
#
#
#
# Elastic Compliance Matrix: (Units=1/GPa)
#
#
# Indices 1 2 3 4 5 6 
#
# 1 0.007817 -0.004874 -0.003756 0.000000 0.000000 0.000000
# 2 -0.004874 0.024418 -0.001815 0.000000 0.000000 0.000000
# 3 -0.003756 -0.001815 0.020405 0.000000 0.000000 0.000000
# 4 0.000000 0.000000 0.000000 0.041576 0.000000 0.000000
# 5 0.000000 0.000000 0.000000 0.000000 0.033260 0.000000
# 6 0.000000 0.000000 0.000000 0.000000 0.000000 0.025183
#
#
# Mechanical properties :
#
#
# Convention : Reuss Voigt Hill
#
# Bulk Modulus (GPa) = 31.49751 48.06417 39.78084
# Shear Modulus (GPa) = 27.15433 31.50425 29.32929
#
# Velocity S-wave (km/s) = 3.44879 3.71476 3.58424
# Velocity P-wave (km/s) = 5.44567 6.28111 5.87825
#
# Compressibility (1/GPa) = 0.03174854
#
# Stress axis : x y z
#
# Youngs Moduli (GPa) = 127.92925 40.95370 49.00748
#
# Poissons Ratio (x) = 0.19962 0.18407
# Poissons Ratio (y) = 0.62357 0.08896
# Poissons Ratio (z) = 0.48051 0.07434
#
# Static dielectric constant tensor:
#      x y z
#    x 1.885940 0.000000 0.000000 
#    y 0.000000 1.858790 0.000000 
#    z 0.000000 0.000000 2.048950 
# 
# From -- ./inp_files/17237.got.cif
#   From: 2010.05.17/outbox.cif.g08.bks.cpg/sg43_9_cif.got.tgz:17237.got - 2010.06.03 19:21:55.
