data_PCOD9371881
_publ_section_title
;
Structure prediction by ZEFSAII (Michael W. Deem and Ramdas Pophale) SiO2 
 PCOD9371881
Probable space group: F D D 2
;
_chemical_formula_sum "Si O2"
_cell_formula_units_Z 104
_cell_length_a 17.910603
_cell_length_b 25.663980
_cell_length_c 9.203196
_cell_angle_alpha 90.000000
_cell_angle_beta 90.000000
_cell_angle_gamma 90.000000
_cell_volume 4230.316751
_symmetry_space_group_name_H-M "F D D 2"
_symmetry_group_IT_number 43
_symmetry_cell_setting 'orthorhombic'
loop_
_space_group_symop_operation_xyz
x,y,z
-x,-y,z
1/4-x,1/4+y,1/4+z
1/4+x,1/4-y,1/4+z
x,1/2+y,1/2+z
-x,1/2-y,1/2+z
1/4-x,3/4+y,3/4+z
1/4+x,3/4-y,3/4+z
1/2+x,y,1/2+z
1/2-x,-y,1/2+z
3/4-x,1/4+y,3/4+z
3/4+x,1/4-y,3/4+z
1/2+x,1/2+y,z
1/2-x,1/2-y,z
3/4-x,3/4+y,1/4+z
3/4+x,3/4-y,1/4+z
loop_
_atom_site_type_symbol
_atom_site_label
_atom_site_fract_x
_atom_site_fract_y
_atom_site_fract_z
Si Si1 0.514639 0.429785 0.967590
Si Si2 0.159767 0.879354 0.950482
Si Si3 0.157125 0.842401 0.484253
Si Si4 0.000000 0.500000 0.700047
Si Si5 0.676143 0.807493 0.684909
Si Si6 0.995784 0.793615 0.417266
Si Si7 0.925773 0.788096 0.734496
O O1 0.584460 0.403950 0.887869
O O2 0.455050 0.442905 0.843160
O O3 0.461540 0.396397 0.077491
O O4 0.551384 0.472756 0.077740
O O5 0.124667 0.840519 0.075257
O O6 0.207349 0.919851 0.046405
O O7 0.195511 0.839599 0.325540
O O8 0.074381 0.820557 0.461131
O O9 0.157934 0.902975 0.527813
O O10 0.988309 0.454467 0.815931
O O11 0.641873 0.753290 0.737818
O O12 0.013438 0.738344 0.340299
O O13 0.950678 0.787247 0.565950
#
# Coordination Sequence:
#
# PCOD9371881 Si02
#       7
#    16  16  16   8  16  16  16
#     4  11  26  45  70 108 147 187 241 306 376 433
#     4  11  24  46  74 101 146 191 242 306 369 446
#     4  11  26  45  69 110 147 195 246 319 364 448
#     4  10  24  44  72  98 142 188 242 300 366 442
#     4  10  23  43  70 102 137 193 249 295 372 440
#     4  11  26  45  74 105 148 196 258 302 381 447
#     4  11  25  43  71 104 147 194 255 306 378 451
#
# _framework density 24.584447999999998
#
# number of rings (size 3 to 8) (size 9 to 14) (size 15 to 20)
#    0.000    1.231    1.538    2.769   10.769    3.077 
#    2.769    0.000    0.000    0.000    0.000    0.000 
#    0.000    0.000    0.000    0.000    0.000    0.000 
#
# Total GULP energy -144957.094679 kJ/mol
# GULP energy per Si atom -5575.272872 kJ/mol
# Density = 2.452849 g / cm^3
# Si number density = 24.584448 Si / 1000 Ang^3
#
#
#
# Elastic Constant Matrix: (Units=GPa)
#
#
# Indices 1 2 3 4 5 6 
#
# 1 58.7360 -4.1916 21.1344 0.0000 0.0000 0.0000
# 2 -4.1916 88.1352 13.5534 0.0000 0.0000 0.0000
# 3 21.1344 13.5534 81.3871 0.0000 0.0000 0.0000
# 4 0.0000 0.0000 0.0000 37.0643 0.0000 0.0000
# 5 0.0000 0.0000 0.0000 0.0000 24.4704 0.0000
# 6 0.0000 0.0000 0.0000 0.0000 0.0000 18.8948
#
#
#
# Elastic Compliance Matrix: (Units=1/GPa)
#
#
# Indices 1 2 3 4 5 6 
#
# 1 0.019028 0.001709 -0.005226 0.000000 0.000000 0.000000
# 2 0.001709 0.011798 -0.002408 0.000000 0.000000 0.000000
# 3 -0.005226 -0.002408 0.014045 0.000000 0.000000 0.000000
# 4 0.000000 0.000000 0.000000 0.026980 0.000000 0.000000
# 5 0.000000 0.000000 0.000000 0.000000 0.040866 0.000000
# 6 0.000000 0.000000 0.000000 0.000000 0.000000 0.052925
#
#
# Mechanical properties :
#
#
# Convention : Reuss Voigt Hill
#
# Bulk Modulus (GPa) = 30.28508 32.13896 31.21202
# Shear Modulus (GPa) = 26.52546 29.27003 27.89775
#
# Velocity S-wave (km/s) = 3.28831 3.45424 3.37229
# Velocity P-wave (km/s) = 5.17328 5.38612 5.28077
#
# Compressibility (1/GPa) = 0.03301956
#
# Stress axis : x y z
#
# Youngs Moduli (GPa) = 52.55545 84.76140 71.19982
#
# Poissons Ratio (x) = -0.14482 0.37206
# Poissons Ratio (y) = -0.08979 0.17147
# Poissons Ratio (z) = 0.27463 0.20414
#
# Static dielectric constant tensor:
#      x y z
#    x 2.081680 0.000000 0.000000 
#    y 0.000000 2.242950 0.000000 
#    z 0.000000 0.000000 1.901450 
# 
# From -- ./inp_files/3354.got.cif
#   From: 2010.05.17/outbox.cif.g08.bks.cpg/sg43_2_cif.got.tgz:3354.got - 2010.06.03 19:21:55.
