data_PCOD9371878
_publ_section_title
;
Structure prediction by ZEFSAII (Michael W. Deem and Ramdas Pophale) SiO2 
 PCOD9371878
Probable space group: F D D 2
;
_chemical_formula_sum "Si O2"
_cell_formula_units_Z 80
_cell_length_a 13.616226
_cell_length_b 25.923563
_cell_length_c 8.052471
_cell_angle_alpha 90.000000
_cell_angle_beta 90.000000
_cell_angle_gamma 90.000000
_cell_volume 2842.370011
_symmetry_space_group_name_H-M "F D D 2"
_symmetry_group_IT_number 43
_symmetry_cell_setting 'orthorhombic'
loop_
_space_group_symop_operation_xyz
x,y,z
-x,-y,z
1/4-x,1/4+y,1/4+z
1/4+x,1/4-y,1/4+z
x,1/2+y,1/2+z
-x,1/2-y,1/2+z
1/4-x,3/4+y,3/4+z
1/4+x,3/4-y,3/4+z
1/2+x,y,1/2+z
1/2-x,-y,1/2+z
3/4-x,1/4+y,3/4+z
3/4+x,1/4-y,3/4+z
1/2+x,1/2+y,z
1/2-x,1/2-y,z
3/4-x,3/4+y,1/4+z
3/4+x,3/4-y,1/4+z
loop_
_atom_site_type_symbol
_atom_site_label
_atom_site_fract_x
_atom_site_fract_y
_atom_site_fract_z
Si Si1 0.087805 0.792908 0.045660
Si Si2 0.383772 0.252936 0.168703
Si Si3 0.682907 0.600245 0.879031
Si Si4 0.843117 0.808377 0.660133
Si Si5 0.478966 0.095615 0.554668
O O1 0.148607 0.753392 0.160790
O O2 0.091232 0.854576 0.051003
O O3 0.978574 0.783736 0.111811
O O4 0.100691 0.770739 0.856842
O O5 0.389172 0.202751 0.048405
O O6 0.301873 0.296849 0.189283
O O7 0.704834 0.654360 0.793316
O O8 0.792910 0.579239 0.919391
O O9 0.586936 0.612142 0.993263
O O10 0.789528 0.823063 0.487738
#
# Coordination Sequence:
#
# PCOD9371878 Si02
#       5
#    16  16  16  16  16
#     4  10  23  43  69 102 145 195 235 311 372 445
#     4  10  24  43  69 107 142 191 248 300 380 442
#     4  11  24  48  68 110 143 191 251 306 367 461
#     4  10  26  45  72 105 149 187 252 306 378 447
#     4  11  24  43  76 100 146 199 238 312 379 448
#
# _framework density 28.145527000000001
#
# number of rings (size 3 to 8) (size 9 to 14) (size 15 to 20)
#    0.000    1.600    0.000    3.000   14.000    0.000 
#    0.000    1.000    0.000    0.000    0.000    0.000 
#    0.000    0.000    0.000    0.000    0.000    0.000 
#
# Total GULP energy -111540.686229 kJ/mol
# GULP energy per Si atom -5577.034311 kJ/mol
# Density = 2.808147 g / cm^3
# Si number density = 28.145527 Si / 1000 Ang^3
#
#
#
# Elastic Constant Matrix: (Units=GPa)
#
#
# Indices 1 2 3 4 5 6 
#
# 1 112.7875 1.2951 8.5666 0.0000 0.0000 0.0000
# 2 1.2951 251.5055 36.8125 0.0000 0.0000 0.0000
# 3 8.5666 36.8125 64.5298 0.0000 0.0000 0.0000
# 4 0.0000 0.0000 0.0000 49.3805 0.0000 0.0000
# 5 0.0000 0.0000 0.0000 0.0000 41.0494 0.0000
# 6 0.0000 0.0000 0.0000 0.0000 0.0000 31.6095
#
#
#
# Elastic Compliance Matrix: (Units=1/GPa)
#
#
# Indices 1 2 3 4 5 6 
#
# 1 0.008961 0.000140 -0.001269 0.000000 0.000000 0.000000
# 2 0.000140 0.004340 -0.002495 0.000000 0.000000 0.000000
# 3 -0.001269 -0.002495 0.017088 0.000000 0.000000 0.000000
# 4 0.000000 0.000000 0.000000 0.020251 0.000000 0.000000
# 5 0.000000 0.000000 0.000000 0.000000 0.024361 0.000000
# 6 0.000000 0.000000 0.000000 0.000000 0.000000 0.031636
#
#
# Mechanical properties :
#
#
# Convention : Reuss Voigt Hill
#
# Bulk Modulus (GPa) = 43.21285 58.01903 50.61594
# Shear Modulus (GPa) = 41.11840 49.88445 45.50142
#
# Velocity S-wave (km/s) = 3.82635 4.21453 4.02512
# Velocity P-wave (km/s) = 5.90829 6.65895 6.29482
#
# Compressibility (1/GPa) = 0.02314126
#
# Stress axis : x y z
#
# Youngs Moduli (GPa) = 111.59432 230.38940 58.51942
#
# Poissons Ratio (x) = -0.03217 0.07428
# Poissons Ratio (y) = -0.01558 0.14599
# Poissons Ratio (z) = 0.14164 0.57474
#
# Static dielectric constant tensor:
#      x y z
#    x 2.345160 0.000000 0.000000 
#    y 0.000000 2.189570 0.000000 
#    z 0.000000 0.000000 2.329660 
# 
# From -- ./inp_files/2790.got.cif
#   From: 2010.05.17/outbox.cif.g08.bks.cpg/sg43_2_cif.got.tgz:2790.got - 2010.06.03 19:21:55.
