data_PCOD9371199
_publ_section_title
;
Structure prediction by ZEFSAII (Michael W. Deem and Ramdas Pophale) SiO2 
 PCOD9371199
Probable space group: F D D 2
;
_chemical_formula_sum "Si O2"
_cell_formula_units_Z 88
_cell_length_a 6.497285
_cell_length_b 26.886054
_cell_length_c 22.927620
_cell_angle_alpha 90.000000
_cell_angle_beta 90.000000
_cell_angle_gamma 90.000000
_cell_volume 4005.142375
_symmetry_space_group_name_H-M "F D D 2"
_symmetry_group_IT_number 43
_symmetry_cell_setting 'orthorhombic'
loop_
_space_group_symop_operation_xyz
x,y,z
-x,-y,z
1/4-x,1/4+y,1/4+z
1/4+x,1/4-y,1/4+z
x,1/2+y,1/2+z
-x,1/2-y,1/2+z
1/4-x,3/4+y,3/4+z
1/4+x,3/4-y,3/4+z
1/2+x,y,1/2+z
1/2-x,-y,1/2+z
3/4-x,1/4+y,3/4+z
3/4+x,1/4-y,3/4+z
1/2+x,1/2+y,z
1/2-x,1/2-y,z
3/4-x,3/4+y,1/4+z
3/4+x,3/4-y,1/4+z
loop_
_atom_site_type_symbol
_atom_site_label
_atom_site_fract_x
_atom_site_fract_y
_atom_site_fract_z
Si Si1 0.897046 0.703608 0.457030
Si Si2 0.920957 0.173724 0.087345
Si Si3 0.500000 0.500000 0.636962
Si Si4 0.928798 0.555164 0.954218
Si Si5 0.376064 0.159952 0.818410
Si Si6 0.451867 0.394630 0.903004
O O1 0.750000 0.750000 0.439111
O O2 0.894339 0.701736 0.526736
O O3 0.113973 0.718289 0.430259
O O4 0.894764 0.646300 0.433097
O O5 0.775648 0.190298 0.140051
O O6 0.842480 0.117852 0.073041
O O7 0.149528 0.176935 0.112349
O O8 0.635414 0.535246 0.595765
O O9 0.690594 0.572580 0.946691
O O10 0.000000 0.500000 0.972631
O O11 0.034443 0.589384 0.003386
O O12 0.209048 0.132267 0.859530
#
# Coordination Sequence:
#
# PCOD9371199 Si02
#       6
#    16  16   8  16  16  16
#     4  11  23  40  64  95 129 172 229 281 341 418
#     4  11  23  39  62  93 134 177 218 283 355 421
#     4  10  22  40  66  92 124 172 222 278 334 408
#     4  11  23  40  64  95 134 177 231 288 353 426
#     4  10  21  41  65  91 127 173 223 283 346 415
#     4  10  23  41  63  94 131 177 225 287 358 421
#
# _framework density 21.971754000000001
#
# number of rings (size 3 to 8) (size 9 to 14) (size 15 to 20)
#    0.000    1.455    0.909    3.818    0.000    8.000 
#    0.000    0.000    0.000    0.000    0.000    0.000 
#    0.000    0.000    0.000    0.000    0.000    0.000 
#
# Total GULP energy -122594.030844 kJ/mol
# GULP energy per Si atom -5572.455947 kJ/mol
# Density = 2.192175 g / cm^3
# Si number density = 21.971754 Si / 1000 Ang^3
#
#
#
# Elastic Constant Matrix: (Units=GPa)
#
#
# Indices 1 2 3 4 5 6 
#
# 1 65.4473 27.3842 26.8973 0.0000 0.0000 0.0000
# 2 27.3842 73.0688 17.7807 0.0000 0.0000 0.0000
# 3 26.8973 17.7807 120.3696 0.0000 0.0000 0.0000
# 4 0.0000 0.0000 0.0000 31.9755 0.0000 0.0000
# 5 0.0000 0.0000 0.0000 0.0000 39.0772 0.0000
# 6 0.0000 0.0000 0.0000 0.0000 0.0000 24.2833
#
#
#
# Elastic Compliance Matrix: (Units=1/GPa)
#
#
# Indices 1 2 3 4 5 6 
#
# 1 0.019359 -0.006434 -0.003375 0.000000 0.000000 0.000000
# 2 -0.006434 0.016334 -0.000975 0.000000 0.000000 0.000000
# 3 -0.003375 -0.000975 0.009206 0.000000 0.000000 0.000000
# 4 0.000000 0.000000 0.000000 0.031274 0.000000 0.000000
# 5 0.000000 0.000000 0.000000 0.000000 0.025590 0.000000
# 6 0.000000 0.000000 0.000000 0.000000 0.000000 0.041180
#
#
# Mechanical properties :
#
#
# Convention : Reuss Voigt Hill
#
# Bulk Modulus (GPa) = 42.86281 44.77890 43.82086
# Shear Modulus (GPa) = 29.02096 31.52210 30.27153
#
# Velocity S-wave (km/s) = 3.63827 3.79181 3.71583
# Velocity P-wave (km/s) = 6.09916 6.29244 6.19656
#
# Compressibility (1/GPa) = 0.02333025
#
# Stress axis : x y z
#
# Youngs Moduli (GPa) = 51.65643 61.22118 108.62413
#
# Poissons Ratio (x) = 0.39388 0.36665
# Poissons Ratio (y) = 0.33234 0.10593
# Poissons Ratio (z) = 0.17436 0.05970
#
# Static dielectric constant tensor:
#      x y z
#    x 1.760480 0.000000 0.000000 
#    y 0.000000 2.047860 0.000000 
#    z 0.000000 0.000000 1.778120 
# 
# From -- ./inp_files/19543.got.cif
#   From: 2010.05.17/outbox.cif.g08.bks.cpg/sg43_10_cif.got.tgz:19543.got - 2010.06.03 19:21:55.
