data_PCOD9371723
_publ_section_title
;
Structure prediction by ZEFSAII (Michael W. Deem and Ramdas Pophale) SiO2 
 PCOD9371723
Probable space group: F D D 2
;
_chemical_formula_sum "Si O2"
_cell_formula_units_Z 80
_cell_length_a 11.621033
_cell_length_b 20.095069
_cell_length_c 13.757140
_cell_angle_alpha 90.000000
_cell_angle_beta 90.000000
_cell_angle_gamma 90.000000
_cell_volume 3212.642447
_symmetry_space_group_name_H-M "F D D 2"
_symmetry_group_IT_number 43
_symmetry_cell_setting 'orthorhombic'
loop_
_space_group_symop_operation_xyz
x,y,z
-x,-y,z
1/4-x,1/4+y,1/4+z
1/4+x,1/4-y,1/4+z
x,1/2+y,1/2+z
-x,1/2-y,1/2+z
1/4-x,3/4+y,3/4+z
1/4+x,3/4-y,3/4+z
1/2+x,y,1/2+z
1/2-x,-y,1/2+z
3/4-x,1/4+y,3/4+z
3/4+x,1/4-y,3/4+z
1/2+x,1/2+y,z
1/2-x,1/2-y,z
3/4-x,3/4+y,1/4+z
3/4+x,3/4-y,1/4+z
loop_
_atom_site_type_symbol
_atom_site_label
_atom_site_fract_x
_atom_site_fract_y
_atom_site_fract_z
Si Si1 0.449321 0.927614 0.735010
Si Si2 0.050875 0.934854 0.886702
Si Si3 0.637540 0.428102 0.564466
Si Si4 0.720363 0.493268 0.738446
Si Si5 0.575877 0.140364 0.094607
O O1 0.400413 0.865166 0.674196
O O2 0.329883 0.953092 0.780400
O O3 0.545881 0.897289 0.804362
O O4 0.500000 0.000000 0.695279
O O5 0.108319 0.965923 0.790935
O O6 0.944200 0.886632 0.866785
O O7 0.000000 0.000000 0.942596
O O8 0.705049 0.484947 0.623646
O O9 0.671224 0.422636 0.451756
O O10 0.501288 0.425882 0.587970
O O11 0.750178 0.567029 0.768152
#
# Coordination Sequence:
#
# PCOD9371723 Si02
#       5
#    16  16  16  16  16
#     4   9  23  44  69 105 155 197 255 316 405 478
#     4  11  21  42  73 107 149 203 259 322 384 491
#     4  11  23  43  72 106 151 198 258 327 401 476
#     4  10  22  45  68 107 150 196 262 318 399 479
#     4  11  23  45  72 106 150 203 257 327 400 485
#
# _framework density 24.901620000000001
#
# number of rings (size 3 to 8) (size 9 to 14) (size 15 to 20)
#    0.000    1.600    4.000    0.000    2.800    0.000 
#    3.600   13.000    0.000    0.000    0.000    0.000 
#    0.000    0.000    0.000    0.000    0.000    0.000 
#
# Total GULP energy -111498.360554 kJ/mol
# GULP energy per Si atom -5574.918028 kJ/mol
# Density = 2.484494 g / cm^3
# Si number density = 24.901620 Si / 1000 Ang^3
#
#
#
# Elastic Constant Matrix: (Units=GPa)
#
#
# Indices 1 2 3 4 5 6 
#
# 1 162.3616 45.6031 47.1143 0.0000 0.0000 0.0000
# 2 45.6031 144.4258 52.4905 0.0000 0.0000 0.0000
# 3 47.1143 52.4905 99.8615 0.0000 0.0000 0.0000
# 4 0.0000 0.0000 0.0000 25.4924 0.0000 0.0000
# 5 0.0000 0.0000 0.0000 0.0000 27.9891 0.0000
# 6 0.0000 0.0000 0.0000 0.0000 0.0000 52.6725
#
#
#
# Elastic Compliance Matrix: (Units=1/GPa)
#
#
# Indices 1 2 3 4 5 6 
#
# 1 0.007330 -0.001307 -0.002771 0.000000 0.000000 0.000000
# 2 -0.001307 0.008792 -0.004005 0.000000 0.000000 0.000000
# 3 -0.002771 -0.004005 0.013426 0.000000 0.000000 0.000000
# 4 0.000000 0.000000 0.000000 0.039227 0.000000 0.000000
# 5 0.000000 0.000000 0.000000 0.000000 0.035728 0.000000
# 6 0.000000 0.000000 0.000000 0.000000 0.000000 0.018985
#
#
# Mechanical properties :
#
#
# Convention : Reuss Voigt Hill
#
# Bulk Modulus (GPa) = 74.72528 77.45161 76.08845
# Shear Modulus (GPa) = 34.69394 38.66019 36.67706
#
# Velocity S-wave (km/s) = 3.73666 3.94447 3.84197
# Velocity P-wave (km/s) = 6.97784 7.20526 7.09246
#
# Compressibility (1/GPa) = 0.01338235
#
# Stress axis : x y z
#
# Youngs Moduli (GPa) = 136.41655 113.73634 74.48053
#
# Poissons Ratio (x) = 0.14870 0.20641
# Poissons Ratio (y) = 0.17836 0.29827
# Poissons Ratio (z) = 0.37805 0.45548
#
# Static dielectric constant tensor:
#      x y z
#    x 1.977180 0.000000 0.000000 
#    y 0.000000 2.242170 0.000000 
#    z 0.000000 0.000000 1.952620 
# 
# From -- ./inp_files/9526.got.cif
#   From: 2010.05.17/outbox.cif.g08.bks.cpg/sg43_5_cif.got.tgz:9526.got - 2010.06.03 19:21:55.
