data_PCOD9371855
_publ_section_title
;
Structure prediction by ZEFSAII (Michael W. Deem and Ramdas Pophale) SiO2 
 PCOD9371855
Probable space group: F D D 2
;
_chemical_formula_sum "Si O2"
_cell_formula_units_Z 96
_cell_length_a 12.214027
_cell_length_b 21.303413
_cell_length_c 16.255668
_cell_angle_alpha 90.000000
_cell_angle_beta 90.000000
_cell_angle_gamma 90.000000
_cell_volume 4229.732317
_symmetry_space_group_name_H-M "F D D 2"
_symmetry_group_IT_number 43
_symmetry_cell_setting 'orthorhombic'
loop_
_space_group_symop_operation_xyz
x,y,z
-x,-y,z
1/4-x,1/4+y,1/4+z
1/4+x,1/4-y,1/4+z
x,1/2+y,1/2+z
-x,1/2-y,1/2+z
1/4-x,3/4+y,3/4+z
1/4+x,3/4-y,3/4+z
1/2+x,y,1/2+z
1/2-x,-y,1/2+z
3/4-x,1/4+y,3/4+z
3/4+x,1/4-y,3/4+z
1/2+x,1/2+y,z
1/2-x,1/2-y,z
3/4-x,3/4+y,1/4+z
3/4+x,3/4-y,1/4+z
loop_
_atom_site_type_symbol
_atom_site_label
_atom_site_fract_x
_atom_site_fract_y
_atom_site_fract_z
Si Si1 0.499060 0.132882 0.989830
Si Si2 0.774598 0.584211 0.922997
Si Si3 0.075763 0.285930 0.773574
Si Si4 0.430133 0.250336 0.403630
Si Si5 0.895544 0.373129 0.709715
Si Si6 0.426594 0.913031 0.533706
O O1 0.386602 0.121841 0.941196
O O2 0.558110 0.067194 0.008027
O O3 0.578596 0.181284 0.941912
O O4 0.484689 0.162486 0.079805
O O5 0.799338 0.513673 0.952578
O O6 0.677233 0.608391 0.980903
O O7 0.050582 0.250767 0.860425
O O8 0.988670 0.343558 0.766464
O O9 0.393051 0.196374 0.467350
O O10 0.358216 0.229211 0.325392
O O11 0.782805 0.337621 0.727917
O O12 0.936186 0.370054 0.615311
#
# Coordination Sequence:
#
# PCOD9371855 Si02
#       6
#    16  16  16  16  16  16
#     4  12  24  45  68 103 138 192 232 290 354 429
#     4  11  25  44  71  95 145 183 240 280 360 422
#     4  11  25  43  68 100 141 183 233 296 351 420
#     4   9  24  42  65 101 137 180 232 295 349 412
#     4  10  23  42  72  96 141 175 233 291 356 412
#     4   9  22  44  66 101 134 182 230 294 346 414
#
# _framework density 22.696470999999999
#
# number of rings (size 3 to 8) (size 9 to 14) (size 15 to 20)
#    1.000    0.667    1.667    1.500    4.667    4.667 
#    3.000    0.833    0.000    0.000    0.000    0.000 
#    0.000    0.000    0.000    0.000    0.000    0.000 
#
# Total GULP energy -133774.200199 kJ/mol
# GULP energy per Si atom -5573.925008 kJ/mol
# Density = 2.264481 g / cm^3
# Si number density = 22.696471 Si / 1000 Ang^3
#
#
#
# Elastic Constant Matrix: (Units=GPa)
#
#
# Indices 1 2 3 4 5 6 
#
# 1 75.3228 4.0312 0.2416 0.0000 0.0000 0.0000
# 2 4.0312 87.5824 14.6329 0.0000 0.0000 0.0000
# 3 0.2416 14.6329 76.3292 0.0000 0.0000 0.0000
# 4 0.0000 0.0000 0.0000 27.7775 0.0000 0.0000
# 5 0.0000 0.0000 0.0000 0.0000 17.8745 0.0000
# 6 0.0000 0.0000 0.0000 0.0000 0.0000 27.5663
#
#
#
# Elastic Compliance Matrix: (Units=1/GPa)
#
#
# Indices 1 2 3 4 5 6 
#
# 1 0.013309 -0.000626 0.000078 0.000000 0.000000 0.000000
# 2 -0.000626 0.011825 -0.002265 0.000000 0.000000 0.000000
# 3 0.000078 -0.002265 0.013535 0.000000 0.000000 0.000000
# 4 0.000000 0.000000 0.000000 0.036000 0.000000 0.000000
# 5 0.000000 0.000000 0.000000 0.000000 0.055946 0.000000
# 6 0.000000 0.000000 0.000000 0.000000 0.000000 0.036276
#
#
# Mechanical properties :
#
#
# Convention : Reuss Voigt Hill
#
# Bulk Modulus (GPa) = 30.26263 30.78286 30.52275
# Shear Modulus (GPa) = 27.24320 29.33223 28.28771
#
# Velocity S-wave (km/s) = 3.46833 3.59885 3.53420
# Velocity P-wave (km/s) = 5.42233 5.55529 5.48922
#
# Compressibility (1/GPa) = 0.03304405
#
# Stress axis : x y z
#
# Youngs Moduli (GPa) = 75.13469 84.56632 73.88193
#
# Poissons Ratio (x) = 0.05290 -0.00575
# Poissons Ratio (y) = 0.04700 0.16734
# Poissons Ratio (z) = -0.00585 0.19154
#
# Static dielectric constant tensor:
#      x y z
#    x 1.888010 0.000000 0.000000 
#    y 0.000000 1.907880 0.000000 
#    z 0.000000 0.000000 1.847090 
# 
# From -- ./inp_files/13314.got.cif
#   From: 2010.05.17/outbox.cif.g08.bks.cpg/sg43_7_cif.got.tgz:13314.got - 2010.06.03 19:21:55.
