data_PCOD9371221
_publ_section_title
;
Structure prediction by ZEFSAII (Michael W. Deem and Ramdas Pophale) SiO2 
 PCOD9371221
Probable space group: F D D 2
;
_chemical_formula_sum "Si O2"
_cell_formula_units_Z 96
_cell_length_a 26.755376
_cell_length_b 16.269066
_cell_length_c 8.171187
_cell_angle_alpha 90.000000
_cell_angle_beta 90.000000
_cell_angle_gamma 90.000000
_cell_volume 3556.794954
_symmetry_space_group_name_H-M "F D D 2"
_symmetry_group_IT_number 43
_symmetry_cell_setting 'orthorhombic'
loop_
_space_group_symop_operation_xyz
x,y,z
-x,-y,z
1/4-x,1/4+y,1/4+z
1/4+x,1/4-y,1/4+z
x,1/2+y,1/2+z
-x,1/2-y,1/2+z
1/4-x,3/4+y,3/4+z
1/4+x,3/4-y,3/4+z
1/2+x,y,1/2+z
1/2-x,-y,1/2+z
3/4-x,1/4+y,3/4+z
3/4+x,1/4-y,3/4+z
1/2+x,1/2+y,z
1/2-x,1/2-y,z
3/4-x,3/4+y,1/4+z
3/4+x,3/4-y,1/4+z
loop_
_atom_site_type_symbol
_atom_site_label
_atom_site_fract_x
_atom_site_fract_y
_atom_site_fract_z
Si Si1 0.393167 0.983708 0.089070
Si Si2 0.969302 0.584610 0.903103
Si Si3 0.560901 0.678639 0.050332
Si Si4 0.684077 0.923942 0.685188
Si Si5 0.308695 0.240182 0.173431
Si Si6 0.946026 0.657991 0.551278
O O1 0.343070 0.013174 0.181426
O O2 0.429820 0.963323 0.240965
O O3 0.420374 0.060904 0.003232
O O4 0.330197 0.995690 0.786402
O O5 0.010286 0.643171 0.985072
O O6 0.000000 0.500000 0.873187
O O7 0.955094 0.623304 0.731351
O O8 0.563258 0.698551 0.243351
O O9 0.503152 0.676316 0.991094
O O10 0.578150 0.583188 0.035449
O O11 0.648626 0.846583 0.724723
O O12 0.250000 0.250000 0.202845
O O13 0.328093 0.332291 0.203094
#
# Coordination Sequence:
#
# PCOD9371221 Si02
#       6
#    16  16  16  16  16  16
#     4  11  23  43  72 106 144 185 241 306 366 424
#     4   9  19  40  71 102 139 192 244 292 354 444
#     4  10  24  45  71 107 147 187 240 306 365 427
#     4  10  22  43  72 104 144 193 242 292 364 450
#     4  10  21  41  68  98 138 188 238 290 359 445
#     4  10  21  42  74 103 137 191 246 292 357 446
#
# _framework density 26.990593000000001
#
# number of rings (size 3 to 8) (size 9 to 14) (size 15 to 20)
#    0.000    2.000    0.000    5.000    0.000   10.667 
#    0.000   11.667    0.000    8.000    0.000    0.000 
#    0.000    0.000    0.000    0.000    0.000    0.000 
#
# Total GULP energy -134587.101577 kJ/mol
# GULP energy per Si atom -5607.795899 kJ/mol
# Density = 2.692916 g / cm^3
# Si number density = 26.990593 Si / 1000 Ang^3
#
#
#
# Elastic Constant Matrix: (Units=GPa)
#
#
# Indices 1 2 3 4 5 6 
#
# 1 99.1953 22.3611 8.4370 0.0000 0.0000 0.0000
# 2 22.3611 174.9608 26.0266 0.0000 0.0000 0.0000
# 3 8.4370 26.0266 89.8241 0.0000 0.0000 0.0000
# 4 0.0000 0.0000 0.0000 56.3451 0.0000 0.0000
# 5 0.0000 0.0000 0.0000 0.0000 40.2145 0.0000
# 6 0.0000 0.0000 0.0000 0.0000 0.0000 33.4827
#
#
#
# Elastic Compliance Matrix: (Units=1/GPa)
#
#
# Indices 1 2 3 4 5 6 
#
# 1 0.010413 -0.001239 -0.000619 0.000000 0.000000 0.000000
# 2 -0.001239 0.006120 -0.001657 0.000000 0.000000 0.000000
# 3 -0.000619 -0.001657 0.011671 0.000000 0.000000 0.000000
# 4 0.000000 0.000000 0.000000 0.017748 0.000000 0.000000
# 5 0.000000 0.000000 0.000000 0.000000 0.024867 0.000000
# 6 0.000000 0.000000 0.000000 0.000000 0.000000 0.029866
#
#
# Mechanical properties :
#
#
# Convention : Reuss Voigt Hill
#
# Bulk Modulus (GPa) = 47.22614 53.06994 50.14804
# Shear Modulus (GPa) = 43.56417 46.48551 45.02484
#
# Velocity S-wave (km/s) = 4.02188 4.15454 4.08875
# Velocity P-wave (km/s) = 6.25321 6.53596 6.39615
#
# Compressibility (1/GPa) = 0.02117471
#
# Stress axis : x y z
#
# Youngs Moduli (GPa) = 96.03356 163.38849 85.68136
#
# Poissons Ratio (x) = 0.20240 0.05305
# Poissons Ratio (y) = 0.11896 0.14198
# Poissons Ratio (z) = 0.05946 0.27074
#
# Static dielectric constant tensor:
#      x y z
#    x 2.192560 0.000000 0.000000 
#    y 0.000000 2.116910 0.000000 
#    z 0.000000 0.000000 2.041930 
# 
# From -- ./inp_files/3782.got.cif
#   From: 2010.05.17/outbox.cif.g08.bks.cpg/sg43_2_cif.got.tgz:3782.got - 2010.06.03 19:21:55.
