data_PCOD9371734
_publ_section_title
;
Structure prediction by ZEFSAII (Michael W. Deem and Ramdas Pophale) SiO2 
 PCOD9371734
Probable space group: F D D 2
;
_chemical_formula_sum "Si O2"
_cell_formula_units_Z 120
_cell_length_a 12.497904
_cell_length_b 28.230969
_cell_length_c 14.137701
_cell_angle_alpha 90.000000
_cell_angle_beta 90.000000
_cell_angle_gamma 90.000000
_cell_volume 4988.175926
_symmetry_space_group_name_H-M "F D D 2"
_symmetry_group_IT_number 43
_symmetry_cell_setting 'orthorhombic'
loop_
_space_group_symop_operation_xyz
x,y,z
-x,-y,z
1/4-x,1/4+y,1/4+z
1/4+x,1/4-y,1/4+z
x,1/2+y,1/2+z
-x,1/2-y,1/2+z
1/4-x,3/4+y,3/4+z
1/4+x,3/4-y,3/4+z
1/2+x,y,1/2+z
1/2-x,-y,1/2+z
3/4-x,1/4+y,3/4+z
3/4+x,1/4-y,3/4+z
1/2+x,1/2+y,z
1/2-x,1/2-y,z
3/4-x,3/4+y,1/4+z
3/4+x,3/4-y,1/4+z
loop_
_atom_site_type_symbol
_atom_site_label
_atom_site_fract_x
_atom_site_fract_y
_atom_site_fract_z
Si Si1 0.189095 0.884530 0.359000
Si Si2 0.868810 0.769210 0.719747
Si Si3 0.488893 0.175983 0.761663
Si Si4 0.383009 0.516480 0.698903
Si Si5 0.672691 0.386528 0.691014
Si Si6 0.092709 0.595177 0.628271
Si Si7 0.055702 0.196926 0.450432
Si Si8 0.750000 0.750000 0.457573
O O1 0.151826 0.930222 0.422394
O O2 0.101668 0.843384 0.337865
O O3 0.307016 0.871485 0.394980
O O4 0.208342 0.897541 0.249645
O O5 0.750000 0.750000 0.695260
O O6 0.945323 0.722554 0.707423
O O7 0.869529 0.775485 0.834990
O O8 0.531043 0.133057 0.696376
O O9 0.576359 0.193308 0.838872
O O10 0.500000 0.500000 0.725933
O O11 0.346028 0.564491 0.747045
O O12 0.296075 0.477963 0.722243
O O13 0.780438 0.393128 0.631412
O O14 0.694314 0.348414 0.770781
O O15 0.069619 0.541704 0.659724
O O16 0.156710 0.219855 0.503670
#
# Coordination Sequence:
#
# PCOD9371734 Si02
#       8
#    16  16  16  16  16  16  16   8
#     4  12  27  43  78 108 145 195 255 311 383 451
#     4  10  24  44  73 107 144 182 245 313 373 444
#     4  11  27  48  73 106 147 190 254 312 374 459
#     4  10  22  45  72 102 144 187 236 314 373 443
#     4  12  27  46  74 109 150 195 250 305 384 458
#     4  12  28  49  75 106 152 199 246 311 381 455
#     4  11  25  45  73 104 143 186 248 306 375 446
#     4  12  24  50  72 100 144 200 244 306 372 462
#
# _framework density 24.056889000000002
#
# number of rings (size 3 to 8) (size 9 to 14) (size 15 to 20)
#    0.000    0.800    2.667    4.000   12.133    0.000 
#    0.000    0.000    0.000    0.000    0.000    0.000 
#    0.000    0.000    0.000    0.000    0.000    0.000 
#
# Total GULP energy -167417.245935 kJ/mol
# GULP energy per Si atom -5580.574865 kJ/mol
# Density = 2.400213 g / cm^3
# Si number density = 24.056889 Si / 1000 Ang^3
#
#
#
# Elastic Constant Matrix: (Units=GPa)
#
#
# Indices 1 2 3 4 5 6 
#
# 1 132.9691 21.6691 23.8115 0.0000 0.0000 0.0000
# 2 21.6691 96.3066 0.8832 0.0000 0.0000 0.0000
# 3 23.8115 0.8832 18.5659 0.0000 0.0000 0.0000
# 4 0.0000 0.0000 0.0000 39.3987 0.0000 0.0000
# 5 0.0000 0.0000 0.0000 0.0000 27.1322 0.0000
# 6 0.0000 0.0000 0.0000 0.0000 0.0000 49.7396
#
#
#
# Elastic Compliance Matrix: (Units=1/GPa)
#
#
# Indices 1 2 3 4 5 6 
#
# 1 0.010199 -0.002176 -0.012977 0.000000 0.000000 0.000000
# 2 -0.002176 0.010852 0.002274 0.000000 0.000000 0.000000
# 3 -0.012977 0.002274 0.070398 0.000000 0.000000 0.000000
# 4 0.000000 0.000000 0.000000 0.025382 0.000000 0.000000
# 5 0.000000 0.000000 0.000000 0.000000 0.036857 0.000000
# 6 0.000000 0.000000 0.000000 0.000000 0.000000 0.020105
#
#
# Mechanical properties :
#
#
# Convention : Reuss Voigt Hill
#
# Bulk Modulus (GPa) = 15.22268 37.84103 26.53185
# Shear Modulus (GPa) = 22.57887 36.68596 29.63241
#
# Velocity S-wave (km/s) = 3.06692 3.90932 3.51346
# Velocity P-wave (km/s) = 4.34544 6.01174 5.24518
#
# Compressibility (1/GPa) = 0.06569147
#
# Stress axis : x y z
#
# Youngs Moduli (GPa) = 98.04882 92.14721 14.20504
#
# Poissons Ratio (x) = 0.20049 0.18434
# Poissons Ratio (y) = 0.21333 -0.03231
# Poissons Ratio (z) = 1.27239 -0.20956
#
# Static dielectric constant tensor:
#      x y z
#    x 2.004440 0.000000 0.000000 
#    y 0.000000 1.906490 0.000000 
#    z 0.000000 0.000000 1.984760 
# 
# From -- ./inp_files/13457.got.cif
#   From: 2010.05.17/outbox.cif.g08.bks.cpg/sg43_7_cif.got.tgz:13457.got - 2010.06.03 19:21:55.
