data_PCOD9371312
_publ_section_title
;
Structure prediction by ZEFSAII (Michael W. Deem and Ramdas Pophale) SiO2 
 PCOD9371312
Probable space group: F D D 2
;
_chemical_formula_sum "Si O2"
_cell_formula_units_Z 120
_cell_length_a 8.475259
_cell_length_b 20.919260
_cell_length_c 26.031839
_cell_angle_alpha 90.000000
_cell_angle_beta 90.000000
_cell_angle_gamma 90.000000
_cell_volume 4615.344743
_symmetry_space_group_name_H-M "F D D 2"
_symmetry_group_IT_number 43
_symmetry_cell_setting 'orthorhombic'
loop_
_space_group_symop_operation_xyz
x,y,z
-x,-y,z
1/4-x,1/4+y,1/4+z
1/4+x,1/4-y,1/4+z
x,1/2+y,1/2+z
-x,1/2-y,1/2+z
1/4-x,3/4+y,3/4+z
1/4+x,3/4-y,3/4+z
1/2+x,y,1/2+z
1/2-x,-y,1/2+z
3/4-x,1/4+y,3/4+z
3/4+x,1/4-y,3/4+z
1/2+x,1/2+y,z
1/2-x,1/2-y,z
3/4-x,3/4+y,1/4+z
3/4+x,3/4-y,1/4+z
loop_
_atom_site_type_symbol
_atom_site_label
_atom_site_fract_x
_atom_site_fract_y
_atom_site_fract_z
Si Si1 0.723224 0.385578 0.061720
Si Si2 0.083212 0.780986 0.677993
Si Si3 0.250000 0.250000 0.312868
Si Si4 0.947659 0.298733 0.585998
Si Si5 0.832209 0.693745 0.735153
Si Si6 0.607108 0.577244 0.152316
Si Si7 0.588588 0.425822 0.720925
Si Si8 0.736955 0.583865 0.673575
O O1 0.596647 0.439382 0.041778
O O2 0.625943 0.322167 0.073650
O O3 0.798501 0.412532 0.113453
O O4 0.855365 0.386062 0.019352
O O5 0.250000 0.750000 0.691061
O O6 0.062362 0.768771 0.616065
O O7 0.082203 0.850323 0.704211
O O8 0.959561 0.734108 0.704684
O O9 0.127411 0.285163 0.350973
O O10 0.888240 0.351335 0.628252
O O11 0.861137 0.309388 0.531465
O O12 0.750000 0.750000 0.767205
O O13 0.734846 0.657177 0.692459
O O14 0.745324 0.559283 0.191238
O O15 0.427070 0.567351 0.173757
O O16 0.410795 0.447714 0.703256
#
# Coordination Sequence:
#
# PCOD9371312 Si02
#       8
#    16  16   8  16  16  16  16  16
#     4  10  22  39  65  97 137 187 232 305 373 446
#     4  12  22  42  70 104 141 185 240 308 373 451
#     4   8  20  38  66  90 134 180 238 294 366 432
#     4  10  22  41  66 103 143 183 241 300 367 457
#     4  12  23  38  66 102 137 176 251 302 369 456
#     4  10  21  44  65  95 142 185 242 306 359 454
#     4  12  24  40  77  96 137 198 236 299 389 435
#     4  10  22  42  60 101 141 177 230 308 359 444
#
# _framework density 26.000225
#
# number of rings (size 3 to 8) (size 9 to 14) (size 15 to 20)
#    0.000    1.600    5.333    1.600    4.667    2.133 
#    0.000    4.667    7.333    0.000    0.000    0.000 
#    0.000    0.000    0.000    0.000    0.000    0.000 
#
# Total GULP energy -167316.913164 kJ/mol
# GULP energy per Si atom -5577.230439 kJ/mol
# Density = 2.594105 g / cm^3
# Si number density = 26.000225 Si / 1000 Ang^3
#
#
#
# Elastic Constant Matrix: (Units=GPa)
#
#
# Indices 1 2 3 4 5 6 
#
# 1 129.2309 17.5191 46.2041 0.0000 0.0000 0.0000
# 2 17.5191 52.6671 12.4269 0.0000 0.0000 0.0000
# 3 46.2041 12.4269 154.4450 0.0000 0.0000 0.0000
# 4 0.0000 0.0000 0.0000 22.8257 0.0000 0.0000
# 5 0.0000 0.0000 0.0000 0.0000 9.9210 0.0000
# 6 0.0000 0.0000 0.0000 0.0000 0.0000 37.9837
#
#
#
# Elastic Compliance Matrix: (Units=1/GPa)
#
#
# Indices 1 2 3 4 5 6 
#
# 1 0.008951 -0.002391 -0.002485 0.000000 0.000000 0.000000
# 2 -0.002391 0.019993 -0.000893 0.000000 0.000000 0.000000
# 3 -0.002485 -0.000893 0.007290 0.000000 0.000000 0.000000
# 4 0.000000 0.000000 0.000000 0.043810 0.000000 0.000000
# 5 0.000000 0.000000 0.000000 0.000000 0.100797 0.000000
# 6 0.000000 0.000000 0.000000 0.000000 0.000000 0.026327
#
#
# Mechanical properties :
#
#
# Convention : Reuss Voigt Hill
#
# Bulk Modulus (GPa) = 40.49427 54.29370 47.39399
# Shear Modulus (GPa) = 22.03233 31.49228 26.76230
#
# Velocity S-wave (km/s) = 2.91415 3.48405 3.21177
# Velocity P-wave (km/s) = 5.18955 6.09197 5.65878
#
# Compressibility (1/GPa) = 0.02469485
#
# Stress axis : x y z
#
# Youngs Moduli (GPa) = 111.72176 50.01676 137.17032
#
# Poissons Ratio (x) = 0.11959 0.34092
# Poissons Ratio (y) = 0.26712 0.12255
# Poissons Ratio (z) = 0.27767 0.04469
#
# Static dielectric constant tensor:
#      x y z
#    x 2.201780 0.000000 0.000000 
#    y 0.000000 2.198260 0.000000 
#    z 0.000000 0.000000 2.037420 
# 
# From -- ./inp_files/24553.got.cif
#   From: 2010.05.17/outbox.cif.g08.bks.cpg/sg43_13_cif.got.tgz:24553.got - 2010.06.03 19:21:55.
