data_PCOD9371411
_publ_section_title
;
Structure prediction by ZEFSAII (Michael W. Deem and Ramdas Pophale) SiO2 
 PCOD9371411
Probable space group: F D D 2
;
_chemical_formula_sum "Si O2"
_cell_formula_units_Z 80
_cell_length_a 29.575998
_cell_length_b 4.999077
_cell_length_c 25.869017
_cell_angle_alpha 90.000000
_cell_angle_beta 90.000000
_cell_angle_gamma 90.000000
_cell_volume 3824.803786
_symmetry_space_group_name_H-M "F D D 2"
_symmetry_group_IT_number 43
_symmetry_cell_setting 'orthorhombic'
loop_
_space_group_symop_operation_xyz
x,y,z
-x,-y,z
1/4-x,1/4+y,1/4+z
1/4+x,1/4-y,1/4+z
x,1/2+y,1/2+z
-x,1/2-y,1/2+z
1/4-x,3/4+y,3/4+z
1/4+x,3/4-y,3/4+z
1/2+x,y,1/2+z
1/2-x,-y,1/2+z
3/4-x,1/4+y,3/4+z
3/4+x,1/4-y,3/4+z
1/2+x,1/2+y,z
1/2-x,1/2-y,z
3/4-x,3/4+y,1/4+z
3/4+x,3/4-y,1/4+z
loop_
_atom_site_type_symbol
_atom_site_label
_atom_site_fract_x
_atom_site_fract_y
_atom_site_fract_z
Si Si1 0.107834 0.018003 0.408480
Si Si2 0.218811 0.510998 0.371985
Si Si3 0.218671 0.993367 0.223045
Si Si4 0.349283 0.976124 0.455796
Si Si5 0.646961 0.720200 0.304790
O O1 0.059216 0.136420 0.423469
O O2 0.141180 0.215063 0.440942
O O3 0.124002 0.047791 0.349854
O O4 0.113984 0.717239 0.428238
O O5 0.250000 0.750000 0.353963
O O6 0.197371 0.588065 0.427397
O O7 0.177115 0.442359 0.334026
O O8 0.250000 0.250000 0.375385
O O9 0.250000 0.250000 0.213436
O O10 0.182259 0.068222 0.267299
O O11 0.250000 0.750000 0.239811
O O12 0.357920 0.930441 0.516032
#
# Coordination Sequence:
#
# PCOD9371411 Si02
#       5
#    16  16  16  16  16
#     4  10  22  39  58  86 121 157 196 243 300 365
#     4  11  23  39  60  91 120 150 198 258 302 348
#     4  11  23  39  60  91 120 150 198 258 302 348
#     4  10  22  39  58  86 121 157 196 243 300 365
#     4  10  23  40  64  86 118 164 204 240 302 376
#
# _framework density 20.916107
#
# number of rings (size 3 to 8) (size 9 to 14) (size 15 to 20)
#    0.000    1.600    0.000    5.400    0.000   19.200 
#    0.000    2.000    0.000    0.000    0.000    0.000 
#    0.000    0.000    0.000    0.000    0.000    0.000 
#
# Total GULP energy -111730.851920 kJ/mol
# GULP energy per Si atom -5586.542596 kJ/mol
# Density = 2.086850 g / cm^3
# Si number density = 20.916107 Si / 1000 Ang^3
#
#
#
# Elastic Constant Matrix: (Units=GPa)
#
#
# Indices 1 2 3 4 5 6 
#
# 1 66.9131 26.2622 43.8432 0.0173 -0.0684 0.0101
# 2 26.2622 99.8101 20.4878 0.0408 -0.1955 0.0032
# 3 43.8432 20.4878 114.1680 0.0211 -0.1044 0.0102
# 4 0.0173 0.0408 0.0211 16.4984 -0.0594 0.0091
# 5 -0.0684 -0.1955 -0.1044 -0.0594 -25.9395 0.0403
# 6 0.0101 0.0032 0.0102 0.0091 0.0403 28.9233
#
#
#
# Elastic Compliance Matrix: (Units=1/GPa)
#
#
# Indices 1 2 3 4 5 6 
#
# 1 0.021479 -0.004110 -0.007511 -0.000003 0.000005 -0.000004
# 2 -0.004110 0.011188 -0.000430 -0.000023 -0.000072 0.000000
# 3 -0.007511 -0.000430 0.011720 -0.000006 -0.000024 -0.000001
# 4 -0.000003 -0.000023 -0.000006 0.060611 -0.000139 -0.000019
# 5 0.000005 -0.000072 -0.000024 -0.000139 -0.038550 0.000054
# 6 -0.000004 0.000000 -0.000001 -0.000019 0.000054 0.034574
#
#
# Mechanical properties :
#
#
# Convention : Reuss Voigt Hill
#
# Bulk Modulus (GPa) = 49.29196 51.34196 50.31696
# Shear Modulus (GPa) = 37.91132 16.58298 27.24715
#
# Velocity S-wave (km/s) = 4.26201 2.81878 3.61319
# Velocity P-wave (km/s) = 6.91646 5.93245 6.44326
#
# Compressibility (1/GPa) = 0.02028728
#
# Stress axis : x y z
#
# Youngs Moduli (GPa) = 46.55662 89.37767 85.32065
#
# Poissons Ratio (x) = 0.36733 0.64084
# Poissons Ratio (y) = 0.19134 0.03665
# Poissons Ratio (z) = 0.34969 0.03839
#
# Static dielectric constant tensor:
#      x y z
#    x 1.877720 0.000040 -0.000070 
#    y 0.000040 1.763160 0.000000 
#    z -0.000070 0.000000 1.781140 
# 
# From -- ./inp_files/961.got.cif
#   From: 2010.05.17/outbox.cif.g08.bks.cpg/sg43_1_cif.got.tgz:961.got - 2010.06.03 19:21:55.
