data_PCOD9371943
_publ_section_title
;
Structure prediction by ZEFSAII (Michael W. Deem and Ramdas Pophale) SiO2 
 PCOD9371943
Probable space group: F D D 2
;
_chemical_formula_sum "Si O2"
_cell_formula_units_Z 88
_cell_length_a 22.114298
_cell_length_b 28.708157
_cell_length_c 5.158026
_cell_angle_alpha 90.000000
_cell_angle_beta 90.000000
_cell_angle_gamma 90.000000
_cell_volume 3274.628198
_symmetry_space_group_name_H-M "F D D 2"
_symmetry_group_IT_number 43
_symmetry_cell_setting 'orthorhombic'
loop_
_space_group_symop_operation_xyz
x,y,z
-x,-y,z
1/4-x,1/4+y,1/4+z
1/4+x,1/4-y,1/4+z
x,1/2+y,1/2+z
-x,1/2-y,1/2+z
1/4-x,3/4+y,3/4+z
1/4+x,3/4-y,3/4+z
1/2+x,y,1/2+z
1/2-x,-y,1/2+z
3/4-x,1/4+y,3/4+z
3/4+x,1/4-y,3/4+z
1/2+x,1/2+y,z
1/2-x,1/2-y,z
3/4-x,3/4+y,1/4+z
3/4+x,3/4-y,1/4+z
loop_
_atom_site_type_symbol
_atom_site_label
_atom_site_fract_x
_atom_site_fract_y
_atom_site_fract_z
Si Si1 0.857103 0.898131 0.661840
Si Si2 0.316374 0.317885 0.978335
Si Si3 0.966030 0.761366 0.540221
Si Si4 0.356259 0.230401 0.285528
Si Si5 0.000000 0.500000 0.833511
Si Si6 0.523451 0.633273 0.528061
O O1 0.862856 0.856150 0.873005
O O2 0.756374 0.850388 0.000329
O O3 0.911382 0.888790 0.461789
O O4 0.868931 0.945982 0.816569
O O5 0.292747 0.281236 0.761710
O O6 0.286138 0.389824 0.591068
O O7 0.345681 0.283852 0.188278
O O8 0.904211 0.733243 0.517371
O O9 0.962660 0.814736 0.618349
O O10 0.009630 0.738909 0.748087
O O11 0.290972 0.218504 0.398839
#
# Coordination Sequence:
#
# PCOD9371943 Si02
#       6
#    16  16  16  16   8  16
#     4  10  23  45  73 111 155 214 269 349 408 513
#     4  10  25  46  71 108 158 201 274 329 421 496
#     4  12  28  51  83 120 160 217 276 340 419 500
#     4  12  26  47  80 109 163 211 275 342 422 497
#     4  12  24  42  74 112 146 214 260 344 414 494
#     4  10  23  46  74 113 159 207 275 341 419 499
#
# _framework density 26.873280000000001
#
# number of rings (size 3 to 8) (size 9 to 14) (size 15 to 20)
#    1.091    0.000    1.818    3.818    5.091    2.909 
#    6.545    0.000    0.000    0.000    0.000    0.000 
#    0.000    0.000    0.000    0.000    0.000    0.000 
#
# Total GULP energy -122863.129216 kJ/mol
# GULP energy per Si atom -5584.687692 kJ/mol
# Density = 2.681211 g / cm^3
# Si number density = 26.873280 Si / 1000 Ang^3
#
#
#
# Elastic Constant Matrix: (Units=GPa)
#
#
# Indices 1 2 3 4 5 6 
#
# 1 185.1147 18.4079 33.9064 0.2947 0.0024 0.1067
# 2 18.4079 123.9482 13.6298 0.0164 -0.0442 -0.0249
# 3 33.9064 13.6298 57.6118 0.2949 -0.1109 -0.0115
# 4 0.2947 0.0164 0.2949 50.5806 -0.2766 -0.2695
# 5 0.0024 -0.0442 -0.1109 -0.2766 33.3930 -0.0123
# 6 0.1067 -0.0249 -0.0115 -0.2695 -0.0123 42.4270
#
#
#
# Elastic Compliance Matrix: (Units=1/GPa)
#
#
# Indices 1 2 3 4 5 6 
#
# 1 0.006088 -0.000524 -0.003459 -0.000015 -0.000013 -0.000017
# 2 -0.000524 0.008328 -0.001662 0.000010 0.000006 0.000006
# 3 -0.003459 -0.001662 0.019787 -0.000094 0.000063 0.000013
# 4 -0.000015 0.000010 -0.000094 0.019773 0.000164 0.000126
# 5 -0.000013 0.000006 0.000063 0.000164 0.029948 0.000010
# 6 -0.000017 0.000006 0.000013 0.000126 0.000010 0.023571
#
#
# Mechanical properties :
#
#
# Convention : Reuss Voigt Hill
#
# Bulk Modulus (GPa) = 43.64203 55.39590 49.51896
# Shear Modulus (GPa) = 39.55010 45.32883 42.43946
#
# Velocity S-wave (km/s) = 3.84047 4.11148 3.97828
# Velocity P-wave (km/s) = 5.99506 6.57248 6.29040
#
# Compressibility (1/GPa) = 0.02291369
#
# Stress axis : x y z
#
# Youngs Moduli (GPa) = 164.26533 120.07043 50.53816
#
# Poissons Ratio (x) = 0.06289 0.17480
# Poissons Ratio (y) = 0.08604 0.08400
# Poissons Ratio (z) = 0.56817 0.19957
#
# Static dielectric constant tensor:
#      x y z
#    x 2.141800 0.000050 0.000110 
#    y 0.000050 2.065860 -0.000090 
#    z 0.000110 -0.000090 2.052240 
# 
# From -- ./inp_files/1002.got.cif
#   From: 2010.05.17/outbox.cif.g08.bks.cpg/sg43_1_cif.got.tgz:1002.got - 2010.06.03 19:21:55.
