data_PCOD9371405
_publ_section_title
;
Structure prediction by ZEFSAII (Michael W. Deem and Ramdas Pophale) SiO2 
 PCOD9371405
Probable space group: F D D 2
;
_chemical_formula_sum "Si O2"
_cell_formula_units_Z 120
_cell_length_a 28.283617
_cell_length_b 12.309930
_cell_length_c 15.178517
_cell_angle_alpha 90.000000
_cell_angle_beta 90.000000
_cell_angle_gamma 90.000000
_cell_volume 5284.694328
_symmetry_space_group_name_H-M "F D D 2"
_symmetry_group_IT_number 43
_symmetry_cell_setting 'orthorhombic'
loop_
_space_group_symop_operation_xyz
x,y,z
-x,-y,z
1/4-x,1/4+y,1/4+z
1/4+x,1/4-y,1/4+z
x,1/2+y,1/2+z
-x,1/2-y,1/2+z
1/4-x,3/4+y,3/4+z
1/4+x,3/4-y,3/4+z
1/2+x,y,1/2+z
1/2-x,-y,1/2+z
3/4-x,1/4+y,3/4+z
3/4+x,1/4-y,3/4+z
1/2+x,1/2+y,z
1/2-x,1/2-y,z
3/4-x,3/4+y,1/4+z
3/4+x,3/4-y,1/4+z
loop_
_atom_site_type_symbol
_atom_site_label
_atom_site_fract_x
_atom_site_fract_y
_atom_site_fract_z
Si Si1 0.698343 0.748457 0.407760
Si Si2 0.987334 0.340269 0.989119
Si Si3 0.341003 0.363923 0.715538
Si Si4 0.400991 0.568951 0.673350
Si Si5 0.717211 0.157387 0.712148
Si Si6 0.114063 0.181653 0.204410
Si Si7 0.000000 0.500000 0.149553
Si Si8 0.636578 0.353833 0.154532
O O1 0.750000 0.750000 0.451868
O O2 0.705873 0.703141 0.309715
O O3 0.676905 0.868834 0.402883
O O4 0.657326 0.670356 0.445899
O O5 0.936538 0.371975 0.950406
O O6 0.035114 0.385530 0.943924
O O7 0.989664 0.210178 0.978410
O O8 0.989921 0.395473 0.085971
O O9 0.362323 0.482558 0.702713
O O10 0.346577 0.327238 0.816988
O O11 0.369845 0.275154 0.660506
O O12 0.390575 0.690054 0.703820
O O13 0.452712 0.527478 0.701996
O O14 0.750000 0.250000 0.669957
O O15 0.665639 0.147988 0.668247
O O16 0.109371 0.139639 0.303875
#
# Coordination Sequence:
#
# PCOD9371405 Si02
#       8
#    16  16  16  16  16  16   8  16
#     4  10  24  38  63  97 133 171 223 283 344 397
#     4  11  20  44  68  96 130 184 230 275 334 428
#     4  11  26  43  74  99 139 182 239 277 354 420
#     4  11  26  45  69 100 140 182 228 287 348 420
#     4  10  22  38  69  94 127 175 231 268 340 412
#     4  11  25  41  67  96 139 169 226 294 342 401
#     4  10  24  42  70  92 136 190 228 274 352 424
#     4  11  23  43  66  97 135 180 232 281 340 414
#
# _framework density 22.707084999999999
#
# number of rings (size 3 to 8) (size 9 to 14) (size 15 to 20)
#    0.000    1.333    4.000    0.800   16.800    1.067 
#    2.400    0.000    1.467    0.000    0.000    0.000 
#    0.000    0.000    0.000    0.000    0.000    0.000 
#
# Total GULP energy -167719.725074 kJ/mol
# GULP energy per Si atom -5590.657502 kJ/mol
# Density = 2.265540 g / cm^3
# Si number density = 22.707085 Si / 1000 Ang^3
#
#
#
# Elastic Constant Matrix: (Units=GPa)
#
#
# Indices 1 2 3 4 5 6 
#
# 1 161.2692 42.4408 5.2386 0.0000 0.0000 0.0000
# 2 42.4408 163.2685 5.5226 0.0000 0.0000 0.0000
# 3 5.2386 5.5226 34.2940 0.0000 0.0000 0.0000
# 4 0.0000 0.0000 0.0000 37.2313 0.0000 0.0000
# 5 0.0000 0.0000 0.0000 0.0000 15.8786 0.0000
# 6 0.0000 0.0000 0.0000 0.0000 0.0000 50.9839
#
#
#
# Elastic Compliance Matrix: (Units=1/GPa)
#
#
# Indices 1 2 3 4 5 6 
#
# 1 0.006675 -0.001710 -0.000744 0.000000 0.000000 0.000000
# 2 -0.001710 0.006596 -0.000801 0.000000 0.000000 0.000000
# 3 -0.000744 -0.000801 0.029402 0.000000 0.000000 0.000000
# 4 0.000000 0.000000 0.000000 0.026859 0.000000 0.000000
# 5 0.000000 0.000000 0.000000 0.000000 0.062978 0.000000
# 6 0.000000 0.000000 0.000000 0.000000 0.000000 0.019614
#
#
# Mechanical properties :
#
#
# Convention : Reuss Voigt Hill
#
# Bulk Modulus (GPa) = 27.65244 51.69286 39.67265
# Shear Modulus (GPa) = 29.29288 41.19408 35.24348
#
# Velocity S-wave (km/s) = 3.59560 4.26391 3.94393
# Velocity P-wave (km/s) = 5.42606 6.85972 6.18457
#
# Compressibility (1/GPa) = 0.03616318
#
# Stress axis : x y z
#
# Youngs Moduli (GPa) = 149.81292 151.59621 34.01092
#
# Poissons Ratio (x) = 0.25922 0.02531
# Poissons Ratio (y) = 0.25617 0.02725
# Poissons Ratio (z) = 0.11150 0.12144
#
# Static dielectric constant tensor:
#      x y z
#    x 1.913420 0.000000 0.000000 
#    y 0.000000 1.820670 0.000000 
#    z 0.000000 0.000000 1.868700 
# 
# From -- ./inp_files/15080.got.cif
#   From: 2010.05.17/outbox.cif.g08.bks.cpg/sg43_8_cif.got.tgz:15080.got - 2010.06.03 19:21:55.
