data_PCOD9371243
_publ_section_title
;
Structure prediction by ZEFSAII (Michael W. Deem and Ramdas Pophale) SiO2 
 PCOD9371243
Probable space group: F D D 2
;
_chemical_formula_sum "Si O2"
_cell_formula_units_Z 104
_cell_length_a 13.771667
_cell_length_b 24.356956
_cell_length_c 14.763956
_cell_angle_alpha 90.000000
_cell_angle_beta 90.000000
_cell_angle_gamma 90.000000
_cell_volume 4952.360679
_symmetry_space_group_name_H-M "F D D 2"
_symmetry_group_IT_number 43
_symmetry_cell_setting 'orthorhombic'
loop_
_space_group_symop_operation_xyz
x,y,z
-x,-y,z
1/4-x,1/4+y,1/4+z
1/4+x,1/4-y,1/4+z
x,1/2+y,1/2+z
-x,1/2-y,1/2+z
1/4-x,3/4+y,3/4+z
1/4+x,3/4-y,3/4+z
1/2+x,y,1/2+z
1/2-x,-y,1/2+z
3/4-x,1/4+y,3/4+z
3/4+x,1/4-y,3/4+z
1/2+x,1/2+y,z
1/2-x,1/2-y,z
3/4-x,3/4+y,1/4+z
3/4+x,3/4-y,1/4+z
loop_
_atom_site_type_symbol
_atom_site_label
_atom_site_fract_x
_atom_site_fract_y
_atom_site_fract_z
Si Si1 0.696636 0.097376 0.273360
Si Si2 0.500000 0.500000 0.633486
Si Si3 0.156524 0.654866 0.098349
Si Si4 0.000000 0.000000 0.932242
Si Si5 0.000000 0.000000 0.232839
Si Si6 0.202533 0.036919 0.591738
Si Si7 0.118616 0.800291 0.826509
Si Si8 0.225758 0.167962 0.047004
O O1 0.686749 0.148758 0.203485
O O2 0.790025 0.099531 0.336786
O O3 0.710939 0.047749 0.200673
O O4 0.591064 0.090264 0.316307
O O5 0.595253 0.513832 0.577530
O O6 0.474231 0.551906 0.699225
O O7 0.203114 0.599204 0.054677
O O8 0.193582 0.707367 0.046114
O O9 0.065147 0.963428 0.865900
O O10 0.945020 0.959058 0.997375
O O11 0.925673 0.966025 0.168469
O O12 0.284254 0.994981 0.563131
O O13 0.075945 0.860798 0.815023
#
# Coordination Sequence:
#
# PCOD9371243 Si02
#       8
#    16   8  16   8   8  16  16  16
#     4   9  21  40  64  89 131 163 218 270 324 386
#     4   9  20  43  59  94 123 168 206 275 328 371
#     4  10  21  42  63  93 129 171 217 269 324 396
#     4  10  26  42  62  99 131 166 230 260 328 402
#     4  11  22  45  65  91 138 176 208 263 334 383
#     4   9  21  38  63  87 129 164 214 266 321 376
#     4  11  24  40  66  94 129 174 222 266 320 403
#     4  10  23  41  67  89 131 169 213 276 324 389
#
# _framework density 21.000086
#
# number of rings (size 3 to 8) (size 9 to 14) (size 15 to 20)
#    0.923    1.231    1.538    0.000    8.615    0.000 
#    2.769    0.000    0.000    0.000    0.000    0.000 
#    0.000    0.000    0.000    0.000    0.000    0.000 
#
# Total GULP energy -144986.943840 kJ/mol
# GULP energy per Si atom -5576.420917 kJ/mol
# Density = 2.095229 g / cm^3
# Si number density = 21.000086 Si / 1000 Ang^3
#
#
#
# Elastic Constant Matrix: (Units=GPa)
#
#
# Indices 1 2 3 4 5 6 
#
# 1 59.4629 21.5312 7.4756 0.0000 0.0000 0.0000
# 2 21.5312 131.7623 18.7649 0.0000 0.0000 0.0000
# 3 7.4756 18.7649 41.8819 0.0000 0.0000 0.0000
# 4 0.0000 0.0000 0.0000 24.0511 0.0000 0.0000
# 5 0.0000 0.0000 0.0000 0.0000 2.7650 0.0000
# 6 0.0000 0.0000 0.0000 0.0000 0.0000 33.0699
#
#
#
# Elastic Compliance Matrix: (Units=1/GPa)
#
#
# Indices 1 2 3 4 5 6 
#
# 1 0.018035 -0.002658 -0.002028 0.000000 0.000000 0.000000
# 2 -0.002658 0.008499 -0.003333 0.000000 0.000000 0.000000
# 3 -0.002028 -0.003333 0.025732 0.000000 0.000000 0.000000
# 4 0.000000 0.000000 0.000000 0.041578 0.000000 0.000000
# 5 0.000000 0.000000 0.000000 0.000000 0.361667 0.000000
# 6 0.000000 0.000000 0.000000 0.000000 0.000000 0.030239
#
#
# Mechanical properties :
#
#
# Convention : Reuss Voigt Hill
#
# Bulk Modulus (GPa) = 27.60424 36.51672 32.06048
# Shear Modulus (GPa) = 9.73021 24.33287 17.03154
#
# Velocity S-wave (km/s) = 2.15487 3.40767 2.85094
# Velocity P-wave (km/s) = 4.40053 5.73668 5.11244
#
# Compressibility (1/GPa) = 0.03622631
#
# Stress axis : x y z
#
# Youngs Moduli (GPa) = 55.44863 117.66781 38.86195
#
# Poissons Ratio (x) = 0.31279 0.07881
# Poissons Ratio (y) = 0.14739 0.12954
# Poissons Ratio (z) = 0.11245 0.39221
#
# Static dielectric constant tensor:
#      x y z
#    x 1.745560 0.000000 0.000000 
#    y 0.000000 1.790350 0.000000 
#    z 0.000000 0.000000 1.770010 
# 
# From -- ./inp_files/13983.got.cif
#   From: 2010.05.17/outbox.cif.g08.bks.cpg/sg43_7_cif.got.tgz:13983.got - 2010.06.03 19:21:55.
