data_PCOD9371345
_publ_section_title
;
Structure prediction by ZEFSAII (Michael W. Deem and Ramdas Pophale) SiO2 
 PCOD9371345
Probable space group: F D D 2
;
_chemical_formula_sum "Si O2"
_cell_formula_units_Z 88
_cell_length_a 29.804708
_cell_length_b 12.204772
_cell_length_c 10.339484
_cell_angle_alpha 90.000000
_cell_angle_beta 90.000000
_cell_angle_gamma 90.000000
_cell_volume 3761.087243
_symmetry_space_group_name_H-M "F D D 2"
_symmetry_group_IT_number 43
_symmetry_cell_setting 'orthorhombic'
loop_
_space_group_symop_operation_xyz
x,y,z
-x,-y,z
1/4-x,1/4+y,1/4+z
1/4+x,1/4-y,1/4+z
x,1/2+y,1/2+z
-x,1/2-y,1/2+z
1/4-x,3/4+y,3/4+z
1/4+x,3/4-y,3/4+z
1/2+x,y,1/2+z
1/2-x,-y,1/2+z
3/4-x,1/4+y,3/4+z
3/4+x,1/4-y,3/4+z
1/2+x,1/2+y,z
1/2-x,1/2-y,z
3/4-x,3/4+y,1/4+z
3/4+x,3/4-y,1/4+z
loop_
_atom_site_type_symbol
_atom_site_label
_atom_site_fract_x
_atom_site_fract_y
_atom_site_fract_z
Si Si1 0.250000 0.250000 0.670750
Si Si2 0.415976 0.636847 0.809815
Si Si3 0.019392 0.169857 0.217210
Si Si4 0.572189 0.210328 0.228468
Si Si5 0.430957 0.941744 0.487650
Si Si6 0.417779 0.488939 0.562839
O O1 0.223990 0.334149 0.581810
O O2 0.289614 0.301721 0.754553
O O3 0.450537 0.725195 0.753727
O O4 0.433834 0.565233 0.930332
O O5 0.366173 0.687290 0.817234
O O6 0.407811 0.547484 0.697787
O O7 0.967373 0.202952 0.221526
O O8 0.033343 0.109555 0.085788
O O9 0.567613 0.137700 0.360413
O O10 0.567585 0.131965 0.104261
O O11 0.622542 0.257079 0.231288
#
# Coordination Sequence:
#
# PCOD9371345 Si02
#       6
#     8  16  16  16  16  16
#     4  12  28  46  64 104 142 192 242 296 364 446
#     4  10  21  45  80 102 143 195 241 318 367 440
#     4  12  26  43  70 108 153 194 241 310 367 443
#     4  10  23  42  77 103 140 192 232 312 363 442
#     4  10  22  44  73 113 139 192 261 293 382 447
#     4  10  22  46  73 105 135 185 251 289 377 445
#
# _framework density 23.397490999999999
#
# number of rings (size 3 to 8) (size 9 to 14) (size 15 to 20)
#    0.000    1.455    1.818    2.182    7.636    3.636 
#    6.545    0.000    0.000    0.000    0.000    0.000 
#    0.000    0.000    0.000    0.000    0.000    0.000 
#
# Total GULP energy -122971.384051 kJ/mol
# GULP energy per Si atom -5589.608366 kJ/mol
# Density = 2.334424 g / cm^3
# Si number density = 23.397491 Si / 1000 Ang^3
#
#
#
# Elastic Constant Matrix: (Units=GPa)
#
#
# Indices 1 2 3 4 5 6 
#
# 1 131.3966 14.1015 40.8720 0.0000 0.0000 0.0000
# 2 14.1015 65.7400 33.5195 0.0000 0.0000 0.0000
# 3 40.8720 33.5195 98.8313 0.0000 0.0000 0.0000
# 4 0.0000 0.0000 0.0000 22.9037 0.0000 0.0000
# 5 0.0000 0.0000 0.0000 0.0000 33.0709 0.0000
# 6 0.0000 0.0000 0.0000 0.0000 0.0000 13.3931
#
#
#
# Elastic Compliance Matrix: (Units=1/GPa)
#
#
# Indices 1 2 3 4 5 6 
#
# 1 0.008734 -0.000038 -0.003599 0.000000 0.000000 0.000000
# 2 -0.000038 0.018392 -0.006222 0.000000 0.000000 0.000000
# 3 -0.003599 -0.006222 0.013717 0.000000 0.000000 0.000000
# 4 0.000000 0.000000 0.000000 0.043661 0.000000 0.000000
# 5 0.000000 0.000000 0.000000 0.000000 0.030238 0.000000
# 6 0.000000 0.000000 0.000000 0.000000 0.000000 0.074665
#
#
# Mechanical properties :
#
#
# Convention : Reuss Voigt Hill
#
# Bulk Modulus (GPa) = 47.33873 52.55044 49.94459
# Shear Modulus (GPa) = 23.13020 27.70522 25.41771
#
# Velocity S-wave (km/s) = 3.14757 3.44482 3.29955
# Velocity P-wave (km/s) = 5.78670 6.19121 5.99237
#
# Compressibility (1/GPa) = 0.02112435
#
# Stress axis : x y z
#
# Youngs Moduli (GPa) = 114.49277 54.37106 72.90297
#
# Poissons Ratio (x) = 0.00209 0.26238
# Poissons Ratio (y) = 0.00440 0.45360
# Poissons Ratio (z) = 0.41206 0.33829
#
# Static dielectric constant tensor:
#      x y z
#    x 1.876160 0.000000 0.000000 
#    y 0.000000 1.891590 0.000000 
#    z 0.000000 0.000000 1.906100 
# 
# From -- ./inp_files/8216.got.cif
#   From: 2010.05.17/outbox.cif.g08.bks.cpg/sg43_5_cif.got.tgz:8216.got - 2010.06.03 19:21:55.
