data_PCOD9371130
_publ_section_title
;
Structure prediction by ZEFSAII (Michael W. Deem and Ramdas Pophale) SiO2 
 PCOD9371130
Probable space group: F D D 2
;
_chemical_formula_sum "Si O2"
_cell_formula_units_Z 72
_cell_length_a 9.539189
_cell_length_b 10.556256
_cell_length_c 25.330287
_cell_angle_alpha 90.000000
_cell_angle_beta 90.000000
_cell_angle_gamma 90.000000
_cell_volume 2550.712308
_symmetry_space_group_name_H-M "F D D 2"
_symmetry_group_IT_number 43
_symmetry_cell_setting 'orthorhombic'
loop_
_space_group_symop_operation_xyz
x,y,z
-x,-y,z
1/4-x,1/4+y,1/4+z
1/4+x,1/4-y,1/4+z
x,1/2+y,1/2+z
-x,1/2-y,1/2+z
1/4-x,3/4+y,3/4+z
1/4+x,3/4-y,3/4+z
1/2+x,y,1/2+z
1/2-x,-y,1/2+z
3/4-x,1/4+y,3/4+z
3/4+x,1/4-y,3/4+z
1/2+x,1/2+y,z
1/2-x,1/2-y,z
3/4-x,3/4+y,1/4+z
3/4+x,3/4-y,1/4+z
loop_
_atom_site_type_symbol
_atom_site_label
_atom_site_fract_x
_atom_site_fract_y
_atom_site_fract_z
Si Si1 0.938726 0.183070 0.352010
Si Si2 0.250000 0.750000 0.436733
Si Si3 0.612755 0.105754 0.983563
Si Si4 0.434238 0.860637 0.515347
Si Si5 0.728149 0.074772 0.876500
O O1 0.876496 0.275919 0.395214
O O2 0.911210 0.191453 0.290640
O O3 0.101897 0.167497 0.359596
O O4 0.848800 0.060175 0.369912
O O5 0.293660 0.853907 0.480537
O O6 0.732901 0.107717 0.938509
O O7 0.500000 0.000000 0.965275
O O8 0.533432 0.241254 0.995038
O O9 0.412990 0.832000 0.578187
O O10 0.500000 0.000000 0.508968
#
# Coordination Sequence:
#
# PCOD9371130 Si02
#       5
#    16   8  16  16  16
#     4  10  21  39  76 109 140 193 271 314 393 468
#     4  12  22  48  78 112 156 208 264 334 394 488
#     4  11  20  43  78 105 143 207 262 329 382 493
#     4  11  27  47  70 117 160 201 267 334 415 472
#     4  10  21  45  67 105 144 192 257 323 384 482
#
# _framework density 28.227411
#
# number of rings (size 3 to 8) (size 9 to 14) (size 15 to 20)
#    0.000    1.333    5.556    0.000    0.000    3.556 
#   16.000    0.000    0.000    0.000    0.000    0.000 
#    0.000    0.000    0.000    0.000    0.000    0.000 
#
# Total GULP energy -100480.292204 kJ/mol
# GULP energy per Si atom -5582.238456 kJ/mol
# Density = 2.816316 g / cm^3
# Si number density = 28.227411 Si / 1000 Ang^3
#
#
#
# Elastic Constant Matrix: (Units=GPa)
#
#
# Indices 1 2 3 4 5 6 
#
# 1 67.6987 7.7875 60.7872 0.0000 0.0000 0.0000
# 2 7.7875 135.1515 57.3657 0.0000 0.0000 0.0000
# 3 60.7872 57.3657 288.6367 0.0000 0.0000 0.0000
# 4 0.0000 0.0000 0.0000 70.6449 0.0000 0.0000
# 5 0.0000 0.0000 0.0000 0.0000 63.1174 0.0000
# 6 0.0000 0.0000 0.0000 0.0000 0.0000 40.4494
#
#
#
# Elastic Compliance Matrix: (Units=1/GPa)
#
#
# Indices 1 2 3 4 5 6 
#
# 1 0.018266 0.000634 -0.003973 0.000000 0.000000 0.000000
# 2 0.000634 0.008103 -0.001744 0.000000 0.000000 0.000000
# 3 -0.003973 -0.001744 0.004648 0.000000 0.000000 0.000000
# 4 0.000000 0.000000 0.000000 0.014155 0.000000 0.000000
# 5 0.000000 0.000000 0.000000 0.000000 0.015843 0.000000
# 6 0.000000 0.000000 0.000000 0.000000 0.000000 0.024722
#
#
# Mechanical properties :
#
#
# Convention : Reuss Voigt Hill
#
# Bulk Modulus (GPa) = 47.96042 82.59641 65.27841
# Shear Modulus (GPa) = 48.61306 59.21210 53.91258
#
# Velocity S-wave (km/s) = 4.15443 4.58501 4.37502
# Velocity P-wave (km/s) = 6.32772 7.57327 6.97834
#
# Compressibility (1/GPa) = 0.02085052
#
# Stress axis : x y z
#
# Youngs Moduli (GPa) = 54.74782 123.41435 215.15508
#
# Poissons Ratio (x) = -0.07822 0.85475
# Poissons Ratio (y) = -0.03470 0.37520
# Poissons Ratio (z) = 0.21750 0.21522
#
# Static dielectric constant tensor:
#      x y z
#    x 2.082590 0.000000 0.000000 
#    y 0.000000 1.929360 0.000000 
#    z 0.000000 0.000000 2.218800 
# 
# From -- ./inp_files/24846.got.cif
#   From: 2010.05.17/outbox.cif.g08.bks.cpg/sg43_13_cif.got.tgz:24846.got - 2010.06.03 19:21:55.
