data_PCOD9371375
_publ_section_title
;
Structure prediction by ZEFSAII (Michael W. Deem and Ramdas Pophale) SiO2 
 PCOD9371375
Probable space group: F D D 2
;
_chemical_formula_sum "Si O2"
_cell_formula_units_Z 112
_cell_length_a 14.909892
_cell_length_b 11.558965
_cell_length_c 31.575317
_cell_angle_alpha 90.000000
_cell_angle_beta 90.000000
_cell_angle_gamma 90.000000
_cell_volume 5441.782325
_symmetry_space_group_name_H-M "F D D 2"
_symmetry_group_IT_number 43
_symmetry_cell_setting 'orthorhombic'
loop_
_space_group_symop_operation_xyz
x,y,z
-x,-y,z
1/4-x,1/4+y,1/4+z
1/4+x,1/4-y,1/4+z
x,1/2+y,1/2+z
-x,1/2-y,1/2+z
1/4-x,3/4+y,3/4+z
1/4+x,3/4-y,3/4+z
1/2+x,y,1/2+z
1/2-x,-y,1/2+z
3/4-x,1/4+y,3/4+z
3/4+x,1/4-y,3/4+z
1/2+x,1/2+y,z
1/2-x,1/2-y,z
3/4-x,3/4+y,1/4+z
3/4+x,3/4-y,1/4+z
loop_
_atom_site_type_symbol
_atom_site_label
_atom_site_fract_x
_atom_site_fract_y
_atom_site_fract_z
Si Si1 0.256366 0.612059 0.566570
Si Si2 0.808912 0.146810 0.792989
Si Si3 0.431307 0.222066 0.967958
Si Si4 0.529828 0.651822 0.140843
Si Si5 0.324486 0.163241 0.157465
Si Si6 0.108466 0.503613 0.006412
Si Si7 0.630069 0.185704 0.940066
O O1 0.250000 0.750000 0.555885
O O2 0.162339 0.566410 0.548872
O O3 0.272376 0.611062 0.616882
O O4 0.336219 0.539277 0.546406
O O5 0.750000 0.250000 0.774425
O O6 0.801125 0.033009 0.763616
O O7 0.777816 0.128414 0.841355
O O8 0.387973 0.321207 0.940143
O O9 0.379038 0.103604 0.973922
O O10 0.523631 0.197260 0.942859
O O11 0.590968 0.763659 0.142464
O O12 0.579403 0.557745 0.172574
O O13 0.428690 0.652249 0.157945
O O14 0.250000 0.250000 0.176955
O O15 0.144468 0.623099 0.986019
O O16 0.000000 0.500000 0.013325
#
# Coordination Sequence:
#
# PCOD9371375 Si02
#       7
#    16  16  16  16  16  16  16
#     4  11  21  41  66  93 132 169 220 276 329 387
#     4  12  23  36  66 100 126 168 219 280 329 391
#     4  11  22  39  61  92 125 166 226 264 322 390
#     4  11  21  39  61  93 129 168 209 272 340 382
#     4  11  20  37  64  94 124 164 212 278 324 377
#     4  10  23  42  62  88 130 181 213 266 333 397
#     4  10  22  37  60  84 131 171 207 262 336 391
#
# _framework density 20.581492999999998
#
# number of rings (size 3 to 8) (size 9 to 14) (size 15 to 20)
#    0.000    1.143    7.143    0.429    2.000    1.143 
#    0.000    4.286    0.000    0.000    0.000    0.000 
#    0.000    0.000    0.000    0.000    0.000    0.000 
#
# Total GULP energy -155886.355492 kJ/mol
# GULP energy per Si atom -5567.369839 kJ/mol
# Density = 2.053465 g / cm^3
# Si number density = 20.581493 Si / 1000 Ang^3
#
#
#
# Elastic Constant Matrix: (Units=GPa)
#
#
# Indices 1 2 3 4 5 6 
#
# 1 52.5324 4.3803 36.7857 0.0000 0.0000 0.0000
# 2 4.3803 61.7141 31.9366 0.0000 0.0000 0.0000
# 3 36.7857 31.9366 88.3081 0.0000 0.0000 0.0000
# 4 0.0000 0.0000 0.0000 9.7144 0.0000 0.0000
# 5 0.0000 0.0000 0.0000 0.0000 30.9141 0.0000
# 6 0.0000 0.0000 0.0000 0.0000 0.0000 27.5545
#
#
#
# Elastic Compliance Matrix: (Units=1/GPa)
#
#
# Indices 1 2 3 4 5 6 
#
# 1 0.028073 0.004994 -0.013500 0.000000 0.000000 0.000000
# 2 0.004994 0.020823 -0.009611 0.000000 0.000000 0.000000
# 3 -0.013500 -0.009611 0.020423 0.000000 0.000000 0.000000
# 4 0.000000 0.000000 0.000000 0.102940 0.000000 0.000000
# 5 0.000000 0.000000 0.000000 0.000000 0.032348 0.000000
# 6 0.000000 0.000000 0.000000 0.000000 0.000000 0.036292
#
#
# Mechanical properties :
#
#
# Convention : Reuss Voigt Hill
#
# Bulk Modulus (GPa) = 30.22543 38.75109 34.48826
# Shear Modulus (GPa) = 17.35144 22.26672 19.80908
#
# Velocity S-wave (km/s) = 2.90670 3.29276 3.10574
# Velocity P-wave (km/s) = 5.09733 5.77281 5.44556
#
# Compressibility (1/GPa) = 0.03308473
#
# Stress axis : x y z
#
# Youngs Moduli (GPa) = 35.62167 48.02432 48.96378
#
# Poissons Ratio (x) = -0.23981 0.66101
# Poissons Ratio (y) = -0.17788 0.47058
# Poissons Ratio (z) = 0.48089 0.46155
#
# Static dielectric constant tensor:
#      x y z
#    x 1.747610 0.000000 0.000000 
#    y 0.000000 1.803880 0.000000 
#    z 0.000000 0.000000 1.732670 
# 
# From -- ./inp_files/29073.got.cif
#   From: 2010.05.17/outbox.cif.g08.bks.cpg/sg43_15_cif.got.tgz:29073.got - 2010.06.03 19:21:55.
