data_PCOD9371781
_publ_section_title
;
Structure prediction by ZEFSAII (Michael W. Deem and Ramdas Pophale) SiO2 
 PCOD9371781
Probable space group: F D D 2
;
_chemical_formula_sum "Si O2"
_cell_formula_units_Z 88
_cell_length_a 9.466197
_cell_length_b 23.740727
_cell_length_c 16.494255
_cell_angle_alpha 90.000000
_cell_angle_beta 90.000000
_cell_angle_gamma 90.000000
_cell_volume 3706.826480
_symmetry_space_group_name_H-M "F D D 2"
_symmetry_group_IT_number 43
_symmetry_cell_setting 'orthorhombic'
loop_
_space_group_symop_operation_xyz
x,y,z
-x,-y,z
1/4-x,1/4+y,1/4+z
1/4+x,1/4-y,1/4+z
x,1/2+y,1/2+z
-x,1/2-y,1/2+z
1/4-x,3/4+y,3/4+z
1/4+x,3/4-y,3/4+z
1/2+x,y,1/2+z
1/2-x,-y,1/2+z
3/4-x,1/4+y,3/4+z
3/4+x,1/4-y,3/4+z
1/2+x,1/2+y,z
1/2-x,1/2-y,z
3/4-x,3/4+y,1/4+z
3/4+x,3/4-y,1/4+z
loop_
_atom_site_type_symbol
_atom_site_label
_atom_site_fract_x
_atom_site_fract_y
_atom_site_fract_z
Si Si1 0.196886 0.693790 0.223110
Si Si2 0.742958 0.978893 0.697527
Si Si3 0.750000 0.250000 0.367827
Si Si4 0.297466 0.391151 0.156117
Si Si5 0.045412 0.437535 0.551437
Si Si6 0.755737 0.101607 0.338225
O O1 0.250000 0.750000 0.177899
O O2 0.136237 0.725093 0.303794
O O3 0.296152 0.650718 0.273107
O O4 0.099475 0.657981 0.166788
O O5 0.643782 0.950275 0.629669
O O6 0.722796 0.954479 0.786014
O O7 0.727763 0.046583 0.694831
O O8 0.904678 0.963361 0.675065
O O9 0.351630 0.348883 0.226278
O O10 0.412318 0.402552 0.086455
O O11 0.153269 0.364912 0.118684
O O12 0.000000 0.500000 0.522392
#
# Coordination Sequence:
#
# PCOD9371781 Si02
#       6
#    16  16   8  16  16  16
#     4  10  24  43  70 110 146 186 252 297 358 436
#     4  11  26  46  72 107 145 191 236 303 363 434
#     4  10  22  48  70  98 154 178 248 292 358 434
#     4  11  24  48  71 105 143 185 247 295 361 433
#     4  10  26  47  70 101 148 185 230 305 365 419
#     4  12  24  43  81 104 143 200 246 297 370 431
#
# _framework density 23.739982999999999
#
# number of rings (size 3 to 8) (size 9 to 14) (size 15 to 20)
#    0.545    0.727    1.818    2.182    5.091    8.000 
#    0.000    0.000    0.000    0.000    0.000    0.000 
#    0.000    0.000    0.000    0.000    0.000    0.000 
#
# Total GULP energy -122624.029417 kJ/mol
# GULP energy per Si atom -5573.819519 kJ/mol
# Density = 2.368595 g / cm^3
# Si number density = 23.739983 Si / 1000 Ang^3
#
#
#
# Elastic Constant Matrix: (Units=GPa)
#
#
# Indices 1 2 3 4 5 6 
#
# 1 68.2478 22.2559 17.6902 0.0000 0.0000 0.0000
# 2 22.2559 95.1107 49.2278 0.0000 0.0000 0.0000
# 3 17.6902 49.2278 96.6800 0.0000 0.0000 0.0000
# 4 0.0000 0.0000 0.0000 41.0997 0.0000 0.0000
# 5 0.0000 0.0000 0.0000 0.0000 12.6665 0.0000
# 6 0.0000 0.0000 0.0000 0.0000 0.0000 31.2741
#
#
#
# Elastic Compliance Matrix: (Units=1/GPa)
#
#
# Indices 1 2 3 4 5 6 
#
# 1 0.015999 -0.003026 -0.001387 0.000000 0.000000 0.000000
# 2 -0.003026 0.014849 -0.007007 0.000000 0.000000 0.000000
# 3 -0.001387 -0.007007 0.014165 0.000000 0.000000 0.000000
# 4 0.000000 0.000000 0.000000 0.024331 0.000000 0.000000
# 5 0.000000 0.000000 0.000000 0.000000 0.078949 0.000000
# 6 0.000000 0.000000 0.000000 0.000000 0.000000 0.031975
#
#
# Mechanical properties :
#
#
# Convention : Reuss Voigt Hill
#
# Bulk Modulus (GPa) = 45.09957 48.70961 46.90459
# Shear Modulus (GPa) = 23.75316 28.39902 26.07609
#
# Velocity S-wave (km/s) = 3.16659 3.46244 3.31781
# Velocity P-wave (km/s) = 5.69282 6.04543 5.87177
#
# Compressibility (1/GPa) = 0.02217316
#
# Stress axis : x y z
#
# Youngs Moduli (GPa) = 62.50505 67.34484 70.59638
#
# Poissons Ratio (x) = 0.20379 0.09789
# Poissons Ratio (y) = 0.18914 0.49468
# Poissons Ratio (z) = 0.08667 0.47189
#
# Static dielectric constant tensor:
#      x y z
#    x 2.002320 0.000000 0.000000 
#    y 0.000000 2.109020 0.000000 
#    z 0.000000 0.000000 1.861150 
# 
# From -- ./inp_files/9666.got.cif
#   From: 2010.05.17/outbox.cif.g08.bks.cpg/sg43_5_cif.got.tgz:9666.got - 2010.06.03 19:21:55.
