data_PCOD9371898
_publ_section_title
;
Structure prediction by ZEFSAII (Michael W. Deem and Ramdas Pophale) SiO2 
 PCOD9371898
Probable space group: F D D 2
;
_chemical_formula_sum "Si O2"
_cell_formula_units_Z 104
_cell_length_a 24.426834
_cell_length_b 11.464034
_cell_length_c 16.375838
_cell_angle_alpha 90.000000
_cell_angle_beta 90.000000
_cell_angle_gamma 90.000000
_cell_volume 4585.726824
_symmetry_space_group_name_H-M "F D D 2"
_symmetry_group_IT_number 43
_symmetry_cell_setting 'orthorhombic'
loop_
_space_group_symop_operation_xyz
x,y,z
-x,-y,z
1/4-x,1/4+y,1/4+z
1/4+x,1/4-y,1/4+z
x,1/2+y,1/2+z
-x,1/2-y,1/2+z
1/4-x,3/4+y,3/4+z
1/4+x,3/4-y,3/4+z
1/2+x,y,1/2+z
1/2-x,-y,1/2+z
3/4-x,1/4+y,3/4+z
3/4+x,1/4-y,3/4+z
1/2+x,1/2+y,z
1/2-x,1/2-y,z
3/4-x,3/4+y,1/4+z
3/4+x,3/4-y,1/4+z
loop_
_atom_site_type_symbol
_atom_site_label
_atom_site_fract_x
_atom_site_fract_y
_atom_site_fract_z
Si Si1 0.390959 0.662220 0.847000
Si Si2 0.250000 0.250000 0.608726
Si Si3 0.467288 0.143323 0.012769
Si Si4 0.687320 0.416334 0.982741
Si Si5 0.480701 0.871994 0.171247
Si Si6 0.007147 0.634284 0.429469
Si Si7 0.649922 0.352303 0.546660
O O1 0.340780 0.653762 0.909232
O O2 0.389430 0.761519 0.778805
O O3 0.448639 0.678410 0.895499
O O4 0.396987 0.537070 0.804115
O O5 0.280245 0.334256 0.674178
O O6 0.285686 0.169701 0.548586
O O7 0.471201 0.281329 0.998870
O O8 0.516939 0.119142 0.073882
O O9 0.411947 0.107940 0.059443
O O10 0.729868 0.516159 0.950928
O O11 0.421213 0.855828 0.209185
O O12 0.500000 0.000000 0.203347
O O13 0.053553 0.640540 0.359602
O O14 0.000000 0.500000 0.453149
#
# Coordination Sequence:
#
# PCOD9371898 Si02
#       7
#    16   8  16  16  16  16  16
#     4  11  23  45  76 101 144 193 247 306 366 447
#     4  12  28  54  64 106 168 188 236 330 378 448
#     4  12  26  43  75 106 147 197 246 302 387 447
#     4  12  26  51  74 108 149 199 249 313 381 445
#     4  12  23  44  74 106 146 187 252 307 365 449
#     4  10  23  44  68 101 146 188 244 312 366 441
#     4  11  23  41  74 106 139 190 250 308 360 439
#
# _framework density 22.679065999999999
#
# number of rings (size 3 to 8) (size 9 to 14) (size 15 to 20)
#    0.000    0.615    6.923    0.462    6.462    1.231 
#    9.692    0.000    0.000    0.000    0.000    0.000 
#    0.000    0.000    0.000    0.000    0.000    0.000 
#
# Total GULP energy -145341.444795 kJ/mol
# GULP energy per Si atom -5590.055569 kJ/mol
# Density = 2.262745 g / cm^3
# Si number density = 22.679066 Si / 1000 Ang^3
#
#
#
# Elastic Constant Matrix: (Units=GPa)
#
#
# Indices 1 2 3 4 5 6 
#
# 1 81.7041 13.6953 30.2577 0.0000 0.0000 0.0000
# 2 13.6953 71.7020 37.3852 0.0000 0.0000 0.0000
# 3 30.2577 37.3852 102.2845 0.0000 0.0000 0.0000
# 4 0.0000 0.0000 0.0000 35.3559 0.0000 0.0000
# 5 0.0000 0.0000 0.0000 0.0000 42.3471 0.0000
# 6 0.0000 0.0000 0.0000 0.0000 0.0000 18.8959
#
#
#
# Elastic Compliance Matrix: (Units=1/GPa)
#
#
# Indices 1 2 3 4 5 6 
#
# 1 0.013768 -0.000625 -0.003844 0.000000 0.000000 0.000000
# 2 -0.000625 0.017259 -0.006123 0.000000 0.000000 0.000000
# 3 -0.003844 -0.006123 0.013152 0.000000 0.000000 0.000000
# 4 0.000000 0.000000 0.000000 0.028284 0.000000 0.000000
# 5 0.000000 0.000000 0.000000 0.000000 0.023614 0.000000
# 6 0.000000 0.000000 0.000000 0.000000 0.000000 0.052921
#
#
# Mechanical properties :
#
#
# Convention : Reuss Voigt Hill
#
# Bulk Modulus (GPa) = 43.49155 46.48522 44.98839
# Shear Modulus (GPa) = 28.11400 30.94327 29.52863
#
# Velocity S-wave (km/s) = 3.52468 3.69778 3.61227
# Velocity P-wave (km/s) = 5.98190 6.22679 6.10557
#
# Compressibility (1/GPa) = 0.02299297
#
# Stress axis : x y z
#
# Youngs Moduli (GPa) = 72.63362 57.94214 76.03501
#
# Poissons Ratio (x) = 0.03623 0.29229
# Poissons Ratio (y) = 0.04542 0.46557
# Poissons Ratio (z) = 0.27922 0.35478
#
# Static dielectric constant tensor:
#      x y z
#    x 1.853420 0.000000 0.000000 
#    y 0.000000 1.873460 0.000000 
#    z 0.000000 0.000000 1.847070 
# 
# From -- ./inp_files/15051.got.cif
#   From: 2010.05.17/outbox.cif.g08.bks.cpg/sg43_8_cif.got.tgz:15051.got - 2010.06.03 19:21:55.
