data_PCOD9371584
_publ_section_title
;
Structure prediction by ZEFSAII (Michael W. Deem and Ramdas Pophale) SiO2 
 PCOD9371584
Probable space group: F D D 2
;
_chemical_formula_sum "Si O2"
_cell_formula_units_Z 64
_cell_length_a 13.805728
_cell_length_b 14.009777
_cell_length_c 12.614912
_cell_angle_alpha 90.000000
_cell_angle_beta 90.000000
_cell_angle_gamma 90.000000
_cell_volume 2439.915357
_symmetry_space_group_name_H-M "F D D 2"
_symmetry_group_IT_number 43
_symmetry_cell_setting 'orthorhombic'
loop_
_space_group_symop_operation_xyz
x,y,z
-x,-y,z
1/4-x,1/4+y,1/4+z
1/4+x,1/4-y,1/4+z
x,1/2+y,1/2+z
-x,1/2-y,1/2+z
1/4-x,3/4+y,3/4+z
1/4+x,3/4-y,3/4+z
1/2+x,y,1/2+z
1/2-x,-y,1/2+z
3/4-x,1/4+y,3/4+z
3/4+x,1/4-y,3/4+z
1/2+x,1/2+y,z
1/2-x,1/2-y,z
3/4-x,3/4+y,1/4+z
3/4+x,3/4-y,1/4+z
loop_
_atom_site_type_symbol
_atom_site_label
_atom_site_fract_x
_atom_site_fract_y
_atom_site_fract_z
Si Si1 0.080234 0.769231 0.639180
Si Si2 0.204767 0.439466 0.177625
Si Si3 0.361782 0.277311 0.373146
Si Si4 0.924182 0.416180 0.050868
O O1 0.083029 0.692023 0.547160
O O2 0.168260 0.843981 0.623833
O O3 0.093413 0.727166 0.755330
O O4 0.984858 0.835663 0.616733
O O5 0.318436 0.452409 0.182455
O O6 0.156411 0.531997 0.122505
O O7 0.250000 0.250000 0.370870
O O8 0.378969 0.371287 0.444729
O O9 0.000000 0.500000 0.023163
#
# Coordination Sequence:
#
# PCOD9371584 Si02
#       4
#    16  16  16  16
#     4  10  22  42  69  98 134 182 237 295 354 426
#     4  10  22  44  68  95 136 191 235 279 357 449
#     4  11  25  42  69 108 145 177 232 309 364 410
#     4   9  21  46  75  97 134 192 246 285 351 447
#
# _framework density 26.230418
#
# number of rings (size 3 to 8) (size 9 to 14) (size 15 to 20)
#    0.000    2.000    0.000    1.500    0.000    9.000 
#    0.000   32.500    0.000    6.000    0.000    0.000 
#    0.000    0.000    0.000    0.000    0.000    0.000 
#
# Total GULP energy -89718.070917 kJ/mol
# GULP energy per Si atom -5607.379432 kJ/mol
# Density = 2.617072 g / cm^3
# Si number density = 26.230418 Si / 1000 Ang^3
#
#
#
# Elastic Constant Matrix: (Units=GPa)
#
#
# Indices 1 2 3 4 5 6 
#
# 1 170.4007 61.5491 71.1075 0.0000 0.0000 0.0000
# 2 61.5491 114.9581 68.4799 0.0000 0.0000 0.0000
# 3 71.1075 68.4799 191.5542 0.0000 0.0000 0.0000
# 4 0.0000 0.0000 0.0000 60.0909 0.0000 0.0000
# 5 0.0000 0.0000 0.0000 0.0000 32.8218 0.0000
# 6 0.0000 0.0000 0.0000 0.0000 0.0000 15.6677
#
#
#
# Elastic Compliance Matrix: (Units=1/GPa)
#
#
# Indices 1 2 3 4 5 6 
#
# 1 0.007717 -0.003082 -0.001763 0.000000 0.000000 0.000000
# 2 -0.003082 0.012283 -0.003247 0.000000 0.000000 0.000000
# 3 -0.001763 -0.003247 0.007036 0.000000 0.000000 0.000000
# 4 0.000000 0.000000 0.000000 0.016641 0.000000 0.000000
# 5 0.000000 0.000000 0.000000 0.000000 0.030468 0.000000
# 6 0.000000 0.000000 0.000000 0.000000 0.000000 0.063826
#
#
# Mechanical properties :
#
#
# Convention : Reuss Voigt Hill
#
# Bulk Modulus (GPa) = 92.14607 97.68734 94.91671
# Shear Modulus (GPa) = 31.69127 40.10119 35.89623
#
# Velocity S-wave (km/s) = 3.47967 3.91424 3.70333
# Velocity P-wave (km/s) = 7.16588 7.59942 7.38583
#
# Compressibility (1/GPa) = 0.01085233
#
# Stress axis : x y z
#
# Youngs Moduli (GPa) = 129.57815 81.41272 142.12999
#
# Poissons Ratio (x) = 0.25088 0.25059
# Poissons Ratio (y) = 0.39931 0.46153
# Poissons Ratio (z) = 0.22846 0.26436
#
# Static dielectric constant tensor:
#      x y z
#    x 2.047270 0.000000 0.000000 
#    y 0.000000 2.066910 0.000000 
#    z 0.000000 0.000000 2.009010 
# 
# From -- ./inp_files/5943.got.cif
#   From: 2010.05.17/outbox.cif.g08.bks.cpg/sg43_3_cif.got.tgz:5943.got - 2010.06.03 19:21:55.
