data_PCOD9371098
_publ_section_title
;
Structure prediction by ZEFSAII (Michael W. Deem and Ramdas Pophale) SiO2 
 PCOD9371098
Probable space group: F D D 2
;
_chemical_formula_sum "Si O2"
_cell_formula_units_Z 120
_cell_length_a 28.861895
_cell_length_b 25.339205
_cell_length_c 8.423851
_cell_angle_alpha 90.000000
_cell_angle_beta 90.000000
_cell_angle_gamma 90.000000
_cell_volume 6160.677912
_symmetry_space_group_name_H-M "F D D 2"
_symmetry_group_IT_number 43
_symmetry_cell_setting 'orthorhombic'
loop_
_space_group_symop_operation_xyz
x,y,z
-x,-y,z
1/4-x,1/4+y,1/4+z
1/4+x,1/4-y,1/4+z
x,1/2+y,1/2+z
-x,1/2-y,1/2+z
1/4-x,3/4+y,3/4+z
1/4+x,3/4-y,3/4+z
1/2+x,y,1/2+z
1/2-x,-y,1/2+z
3/4-x,1/4+y,3/4+z
3/4+x,1/4-y,3/4+z
1/2+x,1/2+y,z
1/2-x,1/2-y,z
3/4-x,3/4+y,1/4+z
3/4+x,3/4-y,1/4+z
loop_
_atom_site_type_symbol
_atom_site_label
_atom_site_fract_x
_atom_site_fract_y
_atom_site_fract_z
Si Si1 0.493805 0.764889 0.885240
Si Si2 0.673683 0.083912 0.136253
Si Si3 0.855662 0.248711 0.548765
Si Si4 0.500000 0.500000 0.286956
Si Si5 0.167026 0.703047 0.229733
Si Si6 0.153887 0.031959 0.310656
Si Si7 0.053056 0.190990 0.070287
Si Si8 0.820271 0.682873 0.337273
O O1 0.525654 0.813898 0.945075
O O2 0.478147 0.784182 0.711279
O O3 0.447345 0.745479 0.973327
O O4 0.530743 0.716823 0.910532
O O5 0.634916 0.046815 0.212248
O O6 0.661831 0.141911 0.192870
O O7 0.670589 0.072982 0.946771
O O8 0.829551 0.281473 0.413758
O O9 0.895715 0.287673 0.609881
O O10 0.826763 0.219529 0.682916
O O11 0.463399 0.529642 0.394104
O O12 0.471527 0.458219 0.184950
O O13 0.125440 0.736578 0.150668
O O14 0.118083 0.059809 0.188410
O O15 0.057715 0.128180 0.058353
#
# Coordination Sequence:
#
# PCOD9371098 Si02
#       8
#    16  16  16   8  16  16  16  16
#     4  11  21  40  61  98 132 167 225 284 319 398
#     4  10  21  39  63  91 127 173 220 267 341 396
#     4  10  22  41  62  93 130 163 222 281 325 411
#     4  10  24  40  60  90 126 166 224 268 326 414
#     4  10  22  43  62  87 127 173 217 272 336 400
#     4  10  22  38  64  91 126 170 223 278 322 404
#     4  11  23  40  64  96 135 171 218 277 337 393
#     4  11  23  42  64  95 129 174 223 275 347 392
#
# _framework density 19.478376000000001
#
# number of rings (size 3 to 8) (size 9 to 14) (size 15 to 20)
#    0.000    1.600    2.667    1.600    1.867    0.533 
#    2.400    1.333    0.000    0.000    0.000    0.000 
#    0.000    0.000    0.000    0.000    0.000    0.000 
#
# Total GULP energy -167299.908257 kJ/mol
# GULP energy per Si atom -5576.663609 kJ/mol
# Density = 1.943404 g / cm^3
# Si number density = 19.478376 Si / 1000 Ang^3
#
#
#
# Elastic Constant Matrix: (Units=GPa)
#
#
# Indices 1 2 3 4 5 6 
#
# 1 98.8401 37.8018 44.3089 -0.0023 -0.0008 0.0013
# 2 37.8018 128.0831 50.1908 0.0089 0.0001 -0.0060
# 3 44.3089 50.1908 92.5306 -0.0053 0.0044 0.0023
# 4 -0.0023 0.0089 -0.0053 26.3686 0.0072 0.0037
# 5 -0.0008 0.0001 0.0044 0.0072 81.5517 -0.0066
# 6 0.0013 -0.0060 0.0023 0.0037 -0.0066 -4.8711
#
#
#
# Elastic Compliance Matrix: (Units=1/GPa)
#
#
# Indices 1 2 3 4 5 6 
#
# 1 0.013203 -0.001802 -0.005345 0.000001 0.000000 0.000003
# 2 -0.001802 0.010161 -0.004649 -0.000004 0.000000 -0.000015
# 3 -0.005345 -0.004649 0.015888 0.000004 -0.000001 0.000012
# 4 0.000001 -0.000004 0.000004 0.037924 -0.000003 0.000029
# 5 0.000000 0.000000 -0.000001 -0.000003 0.012262 -0.000017
# 6 0.000003 -0.000015 0.000012 0.000029 -0.000017 -0.205294
#
#
# Mechanical properties :
#
#
# Convention : Reuss Voigt Hill
#
# Bulk Modulus (GPa) = 63.85352 64.89520 64.37436
# Shear Modulus (GPa) = -57.44112 33.08667 -12.17722
#
# Velocity S-wave (km/s) = -5.43633 4.12592 -2.50304
# Velocity P-wave (km/s) = 2.55969 7.48909 4.97667
#
# Compressibility (1/GPa) = 0.01566084
#
# Stress axis : x y z
#
# Youngs Moduli (GPa) = 75.74323 98.41646 62.94068
#
# Poissons Ratio (x) = 0.17737 0.33639
# Poissons Ratio (y) = 0.13650 0.29258
# Poissons Ratio (z) = 0.40481 0.45749
#
# Static dielectric constant tensor:
#      x y z
#    x 1.680810 0.000000 0.000000 
#    y 0.000000 1.654880 0.000000 
#    z 0.000000 0.000000 1.741440 
# 
# From -- ./inp_files/3887.got.cif
#   From: 2010.05.17/outbox.cif.g08.bks.cpg/sg43_2_cif.got.tgz:3887.got - 2010.06.03 19:21:55.
