data_PCOD9371105
_publ_section_title
;
Structure prediction by ZEFSAII (Michael W. Deem and Ramdas Pophale) SiO2 
 PCOD9371105
Probable space group: F D D 2
;
_chemical_formula_sum "Si O2"
_cell_formula_units_Z 104
_cell_length_a 16.162387
_cell_length_b 9.692019
_cell_length_c 25.003113
_cell_angle_alpha 90.000000
_cell_angle_beta 90.000000
_cell_angle_gamma 90.000000
_cell_volume 3916.641687
_symmetry_space_group_name_H-M "F D D 2"
_symmetry_group_IT_number 43
_symmetry_cell_setting 'orthorhombic'
loop_
_space_group_symop_operation_xyz
x,y,z
-x,-y,z
1/4-x,1/4+y,1/4+z
1/4+x,1/4-y,1/4+z
x,1/2+y,1/2+z
-x,1/2-y,1/2+z
1/4-x,3/4+y,3/4+z
1/4+x,3/4-y,3/4+z
1/2+x,y,1/2+z
1/2-x,-y,1/2+z
3/4-x,1/4+y,3/4+z
3/4+x,1/4-y,3/4+z
1/2+x,1/2+y,z
1/2-x,1/2-y,z
3/4-x,3/4+y,1/4+z
3/4+x,3/4-y,1/4+z
loop_
_atom_site_type_symbol
_atom_site_label
_atom_site_fract_x
_atom_site_fract_y
_atom_site_fract_z
Si Si1 0.684310 0.430610 0.172290
Si Si2 0.647755 0.086257 0.429614
Si Si3 0.500000 0.500000 0.009100
Si Si4 0.387926 0.793278 0.038020
Si Si5 0.364245 0.109469 0.340277
Si Si6 0.978757 0.277397 0.771393
Si Si7 0.631096 0.627128 0.650155
O O1 0.692651 0.468608 0.234773
O O2 0.624501 0.532999 0.140064
O O3 0.649917 0.276703 0.173129
O O4 0.773182 0.428386 0.143141
O O5 0.655359 0.250086 0.432377
O O6 0.572517 0.028393 0.465662
O O7 0.635710 0.037294 0.368970
O O8 0.722283 0.009105 0.458829
O O9 0.533770 0.610327 0.054196
O O10 0.336776 0.648645 0.039172
O O11 0.317938 0.909498 0.029243
O O12 0.418753 0.839517 0.095941
O O13 0.443435 0.146133 0.303394
#
# Coordination Sequence:
#
# PCOD9371105 Si02
#       7
#    16  16   8  16  16  16  16
#     4  11  22  40  70  91 127 179 220 267 340 406
#     4  11  24  40  64  96 136 170 214 293 340 389
#     4  10  26  38  66 100 134 170 234 266 340 424
#     4  11  21  39  69  92 122 177 223 267 325 420
#     4  11  21  41  67  97 127 176 221 278 336 403
#     4  10  21  39  64  97 125 164 230 265 330 406
#     4  11  24  43  63  97 134 171 222 281 340 406
#
# _framework density 26.553360999999999
#
# number of rings (size 3 to 8) (size 9 to 14) (size 15 to 20)
#    0.000    1.231    4.615    1.846    4.308    2.462 
#    0.000    2.308    6.769    0.000    0.000    0.000 
#    0.000    0.000    0.000    0.000    0.000    0.000 
#
# Total GULP energy -145272.964400 kJ/mol
# GULP energy per Si atom -5587.421708 kJ/mol
# Density = 2.649292 g / cm^3
# Si number density = 26.553361 Si / 1000 Ang^3
#
#
#
# Elastic Constant Matrix: (Units=GPa)
#
#
# Indices 1 2 3 4 5 6 
#
# 1 73.2522 34.1828 27.9978 0.0000 0.0000 0.0000
# 2 34.1828 94.9842 26.4976 0.0000 0.0000 0.0000
# 3 27.9978 26.4976 148.2729 0.0000 0.0000 0.0000
# 4 0.0000 0.0000 0.0000 48.8877 0.0000 0.0000
# 5 0.0000 0.0000 0.0000 0.0000 32.3821 0.0000
# 6 0.0000 0.0000 0.0000 0.0000 0.0000 24.1106
#
#
#
# Elastic Compliance Matrix: (Units=1/GPa)
#
#
# Indices 1 2 3 4 5 6 
#
# 1 0.017085 -0.005524 -0.002239 0.000000 0.000000 0.000000
# 2 -0.005524 0.012866 -0.001256 0.000000 0.000000 0.000000
# 3 -0.002239 -0.001256 0.007392 0.000000 0.000000 0.000000
# 4 0.000000 0.000000 0.000000 0.020455 0.000000 0.000000
# 5 0.000000 0.000000 0.000000 0.000000 0.030881 0.000000
# 6 0.000000 0.000000 0.000000 0.000000 0.000000 0.041475
#
#
# Mechanical properties :
#
#
# Convention : Reuss Voigt Hill
#
# Bulk Modulus (GPa) = 51.80069 54.87395 53.33732
# Shear Modulus (GPa) = 32.33570 36.26484 34.30027
#
# Velocity S-wave (km/s) = 3.49343 3.69959 3.59799
# Velocity P-wave (km/s) = 5.98520 6.24177 6.11483
#
# Compressibility (1/GPa) = 0.01930476
#
# Stress axis : x y z
#
# Youngs Moduli (GPa) = 58.53115 77.72137 135.28881
#
# Poissons Ratio (x) = 0.42933 0.30290
# Poissons Ratio (y) = 0.32332 0.16996
# Poissons Ratio (z) = 0.13105 0.09764
#
# Static dielectric constant tensor:
#      x y z
#    x 2.201560 0.000000 0.000000 
#    y 0.000000 2.113380 0.000000 
#    z 0.000000 0.000000 2.065760 
# 
# From -- ./inp_files/26368.got.cif
#   From: 2010.05.17/outbox.cif.g08.bks.cpg/sg43_14_cif.got.tgz:26368.got - 2010.06.03 19:21:55.
