data_PCOD9371073
_publ_section_title
;
Structure prediction by ZEFSAII (Michael W. Deem and Ramdas Pophale) SiO2 
 PCOD9371073
Probable space group: F D D 2
;
_chemical_formula_sum "Si O2"
_cell_formula_units_Z 112
_cell_length_a 10.677132
_cell_length_b 20.230320
_cell_length_c 25.425509
_cell_angle_alpha 90.000000
_cell_angle_beta 90.000000
_cell_angle_gamma 90.000000
_cell_volume 5491.955635
_symmetry_space_group_name_H-M "F D D 2"
_symmetry_group_IT_number 43
_symmetry_cell_setting 'orthorhombic'
loop_
_space_group_symop_operation_xyz
x,y,z
-x,-y,z
1/4-x,1/4+y,1/4+z
1/4+x,1/4-y,1/4+z
x,1/2+y,1/2+z
-x,1/2-y,1/2+z
1/4-x,3/4+y,3/4+z
1/4+x,3/4-y,3/4+z
1/2+x,y,1/2+z
1/2-x,-y,1/2+z
3/4-x,1/4+y,3/4+z
3/4+x,1/4-y,3/4+z
1/2+x,1/2+y,z
1/2-x,1/2-y,z
3/4-x,3/4+y,1/4+z
3/4+x,3/4-y,1/4+z
loop_
_atom_site_type_symbol
_atom_site_label
_atom_site_fract_x
_atom_site_fract_y
_atom_site_fract_z
Si Si1 0.064579 0.176880 0.514850
Si Si2 0.855077 0.089167 0.479383
Si Si3 0.975779 0.179744 0.319132
Si Si4 0.500000 0.000000 0.697168
Si Si5 0.394184 0.261217 0.621276
Si Si6 0.500000 0.000000 0.065353
Si Si7 0.969448 0.116847 0.117095
Si Si8 0.105979 0.046935 0.020572
O O1 0.168172 0.117508 0.523339
O O2 0.131510 0.235537 0.483696
O O3 0.039192 0.199257 0.574377
O O4 0.941343 0.153565 0.484321
O O5 0.869773 0.051249 0.424861
O O6 0.920418 0.046344 0.526167
O O7 0.706051 0.090569 0.489016
O O8 0.851697 0.208272 0.346550
O O9 0.071221 0.143422 0.356907
O O10 0.058546 0.240515 0.298066
O O11 0.513230 0.064782 0.660829
O O12 0.250000 0.250000 0.602705
O O13 0.472335 0.193946 0.630502
O O14 0.039520 0.093531 0.063902
O O15 0.000000 0.000000 0.993581
#
# Coordination Sequence:
#
# PCOD9371073 Si02
#       8
#    16  16  16   8  16   8  16  16
#     4  11  23  38  64  97 135 169 223 291 336 394
#     4  10  21  38  65  95 132 173 223 272 338 397
#     4   9  16  34  55  86 126 164 213 266 323 387
#     4  12  22  35  56 104 128 178 223 284 334 390
#     4  12  22  40  64 101 129 174 224 282 336 411
#     4   8  16  27  56  86 120 172 207 266 320 374
#     4  11  21  36  62  93 132 169 222 274 332 410
#     4   9  19  38  60  94 130 175 209 273 329 406
#
# _framework density 20.393464000000002
#
# number of rings (size 3 to 8) (size 9 to 14) (size 15 to 20)
#    0.000    1.714    5.000    0.857    4.000    0.000 
#    0.000    2.143    0.000    0.000    0.000    0.000 
#    0.000    0.000    0.000    0.000    0.000    0.000 
#
# Total GULP energy -155978.843747 kJ/mol
# GULP energy per Si atom -5570.672991 kJ/mol
# Density = 2.034705 g / cm^3
# Si number density = 20.393464 Si / 1000 Ang^3
#
#
#
# Elastic Constant Matrix: (Units=GPa)
#
#
# Indices 1 2 3 4 5 6 
#
# 1 123.2674 41.9780 34.3516 0.0000 0.0000 0.0000
# 2 41.9780 100.1343 38.2778 0.0000 0.0000 0.0000
# 3 34.3516 38.2778 61.5729 0.0000 0.0000 0.0000
# 4 0.0000 0.0000 0.0000 41.9604 0.0000 0.0000
# 5 0.0000 0.0000 0.0000 0.0000 11.9531 0.0000
# 6 0.0000 0.0000 0.0000 0.0000 0.0000 38.7223
#
#
#
# Elastic Compliance Matrix: (Units=1/GPa)
#
#
# Indices 1 2 3 4 5 6 
#
# 1 0.010149 -0.002742 -0.003958 0.000000 0.000000 0.000000
# 2 -0.002742 0.013840 -0.007074 0.000000 0.000000 0.000000
# 3 -0.003958 -0.007074 0.022847 0.000000 0.000000 0.000000
# 4 0.000000 0.000000 0.000000 0.023832 0.000000 0.000000
# 5 0.000000 0.000000 0.000000 0.000000 0.083660 0.000000
# 6 0.000000 0.000000 0.000000 0.000000 0.000000 0.025825
#
#
# Mechanical properties :
#
#
# Convention : Reuss Voigt Hill
#
# Bulk Modulus (GPa) = 51.84458 57.13216 54.48837
# Shear Modulus (GPa) = 23.35021 29.88496 26.61758
#
# Velocity S-wave (km/s) = 3.38743 3.83223 3.61668
# Velocity P-wave (km/s) = 6.38568 6.90341 6.64959
#
# Compressibility (1/GPa) = 0.01928842
#
# Stress axis : x y z
#
# Youngs Moduli (GPa) = 98.53140 72.25289 43.76971
#
# Poissons Ratio (x) = 0.19810 0.17323
# Poissons Ratio (y) = 0.27015 0.30965
# Poissons Ratio (z) = 0.38996 0.51115
#
# Static dielectric constant tensor:
#      x y z
#    x 1.776110 0.000000 0.000000 
#    y 0.000000 1.176910 0.000000 
#    z 0.000000 0.000000 1.733110 
# 
# From -- ./inp_files/21195.got.cif
#   From: 2010.05.17/outbox.cif.g08.bks.cpg/sg43_11_cif.got.tgz:21195.got - 2010.06.03 19:21:55.
