data_PCOD9371612
_publ_section_title
;
Structure prediction by ZEFSAII (Michael W. Deem and Ramdas Pophale) SiO2 
 PCOD9371612
Probable space group: F D D 2
;
_chemical_formula_sum "Si O2"
_cell_formula_units_Z 64
_cell_length_a 32.837065
_cell_length_b 12.827209
_cell_length_c 7.362633
_cell_angle_alpha 90.000000
_cell_angle_beta 90.000000
_cell_angle_gamma 90.000000
_cell_volume 3101.199153
_symmetry_space_group_name_H-M "F D D 2"
_symmetry_group_IT_number 43
_symmetry_cell_setting 'orthorhombic'
loop_
_space_group_symop_operation_xyz
x,y,z
-x,-y,z
1/4-x,1/4+y,1/4+z
1/4+x,1/4-y,1/4+z
x,1/2+y,1/2+z
-x,1/2-y,1/2+z
1/4-x,3/4+y,3/4+z
1/4+x,3/4-y,3/4+z
1/2+x,y,1/2+z
1/2-x,-y,1/2+z
3/4-x,1/4+y,3/4+z
3/4+x,1/4-y,3/4+z
1/2+x,1/2+y,z
1/2-x,1/2-y,z
3/4-x,3/4+y,1/4+z
3/4+x,3/4-y,1/4+z
loop_
_atom_site_type_symbol
_atom_site_label
_atom_site_fract_x
_atom_site_fract_y
_atom_site_fract_z
Si Si1 0.975841 0.154737 0.716990
Si Si2 0.430253 0.543144 0.009978
Si Si3 0.910784 0.313093 0.618285
Si Si4 0.047471 0.802106 0.331719
O O1 0.960498 0.061246 0.841305
O O2 0.941023 0.244944 0.742632
O O3 0.973551 0.137082 0.500850
O O4 0.017657 0.208477 0.773952
O O5 0.384391 0.566489 0.943637
O O6 0.429365 0.426462 0.085990
O O7 0.443086 0.623384 0.166226
O O8 0.913133 0.250823 0.426271
#
# Coordination Sequence:
#
# PCOD9371612 Si02
#       4
#    16  16  16  16
#     4  10  22  43  63  96 132 171 223 277 325 397
#     4  12  21  45  65  93 140 165 222 280 326 398
#     4  10  24  40  66  99 126 174 223 270 333 395
#     4  10  23  42  66  94 133 175 221 274 336 388
#
# _framework density 20.637177000000001
#
# number of rings (size 3 to 8) (size 9 to 14) (size 15 to 20)
#    1.500    0.000    5.000    0.000    0.000    8.000 
#    4.500    2.500    0.000    0.000    0.000    0.000 
#    0.000    0.000    0.000    0.000    0.000    0.000 
#
# Total GULP energy -89263.183732 kJ/mol
# GULP energy per Si atom -5578.948983 kJ/mol
# Density = 2.059021 g / cm^3
# Si number density = 20.637177 Si / 1000 Ang^3
#
#
#
# Elastic Constant Matrix: (Units=GPa)
#
#
# Indices 1 2 3 4 5 6 
#
# 1 72.7796 12.4410 32.1215 0.0000 0.0000 0.0000
# 2 12.4410 59.8415 -13.1880 0.0000 0.0000 0.0000
# 3 32.1215 -13.1880 78.1167 0.0000 0.0000 0.0000
# 4 0.0000 0.0000 0.0000 15.2605 0.0000 0.0000
# 5 0.0000 0.0000 0.0000 0.0000 28.7708 0.0000
# 6 0.0000 0.0000 0.0000 0.0000 0.0000 34.8494
#
#
#
# Elastic Compliance Matrix: (Units=1/GPa)
#
#
# Indices 1 2 3 4 5 6 
#
# 1 0.018507 -0.005738 -0.008579 0.000000 0.000000 0.000000
# 2 -0.005738 0.019136 0.005590 0.000000 0.000000 0.000000
# 3 -0.008579 0.005590 0.017273 0.000000 0.000000 0.000000
# 4 0.000000 0.000000 0.000000 0.065529 0.000000 0.000000
# 5 0.000000 0.000000 0.000000 0.000000 0.034757 0.000000
# 6 0.000000 0.000000 0.000000 0.000000 0.000000 0.028695
#
#
# Mechanical properties :
#
#
# Convention : Reuss Voigt Hill
#
# Bulk Modulus (GPa) = 26.69397 30.38745 28.54071
# Shear Modulus (GPa) = 23.38212 27.73369 25.55790
#
# Velocity S-wave (km/s) = 3.36967 3.66986 3.52297
# Velocity P-wave (km/s) = 5.30118 5.71959 5.51436
#
# Compressibility (1/GPa) = 0.03746165
#
# Stress axis : x y z
#
# Youngs Moduli (GPa) = 54.03242 52.25817 57.89451
#
# Poissons Ratio (x) = 0.29987 0.49668
# Poissons Ratio (y) = 0.31006 -0.32364
# Poissons Ratio (z) = 0.46354 -0.29213
#
# Static dielectric constant tensor:
#      x y z
#    x 1.723910 0.000000 0.000000 
#    y 0.000000 1.723350 0.000000 
#    z 0.000000 0.000000 1.729100 
# 
# From -- ./inp_files/4619.got.cif
#   From: 2010.05.17/outbox.cif.g08.bks.cpg/sg43_3_cif.got.tgz:4619.got - 2010.06.03 19:21:55.
