data_PCOD9371812
_publ_section_title
;
Structure prediction by ZEFSAII (Michael W. Deem and Ramdas Pophale) SiO2 
 PCOD9371812
Probable space group: F D D 2
;
_chemical_formula_sum "Si O2"
_cell_formula_units_Z 128
_cell_length_a 20.783308
_cell_length_b 23.957938
_cell_length_c 11.482507
_cell_angle_alpha 90.000000
_cell_angle_beta 90.000000
_cell_angle_gamma 90.000000
_cell_volume 5717.429646
_symmetry_space_group_name_H-M "F D D 2"
_symmetry_group_IT_number 43
_symmetry_cell_setting 'orthorhombic'
loop_
_space_group_symop_operation_xyz
x,y,z
-x,-y,z
1/4-x,1/4+y,1/4+z
1/4+x,1/4-y,1/4+z
x,1/2+y,1/2+z
-x,1/2-y,1/2+z
1/4-x,3/4+y,3/4+z
1/4+x,3/4-y,3/4+z
1/2+x,y,1/2+z
1/2-x,-y,1/2+z
3/4-x,1/4+y,3/4+z
3/4+x,1/4-y,3/4+z
1/2+x,1/2+y,z
1/2-x,1/2-y,z
3/4-x,3/4+y,1/4+z
3/4+x,3/4-y,1/4+z
loop_
_atom_site_type_symbol
_atom_site_label
_atom_site_fract_x
_atom_site_fract_y
_atom_site_fract_z
Si Si1 0.948449 0.073191 0.508350
Si Si2 0.119714 0.574552 0.299859
Si Si3 0.461341 0.223460 0.219062
Si Si4 0.192173 0.211345 0.022111
Si Si5 0.159103 0.506941 0.904809
Si Si6 0.792074 0.699943 0.550273
Si Si7 0.243978 0.613303 0.645962
Si Si8 0.510512 0.660420 0.168681
O O1 0.918520 0.134169 0.484202
O O2 0.960135 0.063557 0.645298
O O3 0.010833 0.061387 0.429116
O O4 0.891959 0.029675 0.474857
O O5 0.154015 0.563120 0.422258
O O6 0.109714 0.511333 0.252396
O O7 0.055977 0.610064 0.329475
O O8 0.526017 0.220889 0.137494
O O9 0.481597 0.197298 0.340488
O O10 0.444086 0.288192 0.207012
O O11 0.250000 0.250000 0.069509
O O12 0.188812 0.158643 0.109687
O O13 0.115307 0.529849 0.801325
O O14 0.191356 0.563023 0.957174
O O15 0.750000 0.750000 0.499306
O O16 0.781082 0.644402 0.481782
O O17 0.256531 0.603218 0.781665
#
# Coordination Sequence:
#
# PCOD9371812 Si02
#       8
#    16  16  16  16  16  16  16  16
#     4  11  21  41  72  99 134 174 232 284 334 404
#     4  11  23  38  70 104 136 173 221 287 339 413
#     4  10  23  42  64 101 130 178 220 279 346 390
#     4  10  23  39  66 102 134 177 220 279 350 394
#     4   9  22  44  62  94 138 169 227 281 325 403
#     4  10  23  45  66  97 131 187 228 276 343 406
#     4  11  23  46  67 101 142 177 225 278 348 418
#     4  10  25  43  69  96 137 182 225 276 340 415
#
# _framework density 22.387682000000002
#
# number of rings (size 3 to 8) (size 9 to 14) (size 15 to 20)
#    0.750    1.000    2.500    1.125    3.500    4.500 
#    4.500    1.250    0.000    0.000    0.000    0.000 
#    0.000    0.000    0.000    0.000    0.000    0.000 
#
# Total GULP energy -178154.548740 kJ/mol
# GULP energy per Si atom -5567.329648 kJ/mol
# Density = 2.233673 g / cm^3
# Si number density = 22.387682 Si / 1000 Ang^3
#
#
#
# Elastic Constant Matrix: (Units=GPa)
#
#
# Indices 1 2 3 4 5 6 
#
# 1 51.0979 13.0856 -4.4703 0.0000 0.0000 0.0000
# 2 13.0856 154.2600 53.3057 0.0000 0.0000 0.0000
# 3 -4.4703 53.3057 86.5745 0.0000 0.0000 0.0000
# 4 0.0000 0.0000 0.0000 18.9009 0.0000 0.0000
# 5 0.0000 0.0000 0.0000 0.0000 8.4546 0.0000
# 6 0.0000 0.0000 0.0000 0.0000 0.0000 25.4311
#
#
#
# Elastic Compliance Matrix: (Units=1/GPa)
#
#
# Indices 1 2 3 4 5 6 
#
# 1 0.020491 -0.002672 0.002704 0.000000 0.000000 0.000000
# 2 -0.002672 0.008583 -0.005423 0.000000 0.000000 0.000000
# 3 0.002704 -0.005423 0.015029 0.000000 0.000000 0.000000
# 4 0.000000 0.000000 0.000000 0.052908 0.000000 0.000000
# 5 0.000000 0.000000 0.000000 0.000000 0.118279 0.000000
# 6 0.000000 0.000000 0.000000 0.000000 0.000000 0.039322
#
#
# Mechanical properties :
#
#
# Convention : Reuss Voigt Hill
#
# Bulk Modulus (GPa) = 30.01185 46.19715 38.10450
# Shear Modulus (GPa) = 18.08302 25.89140 21.98721
#
# Velocity S-wave (km/s) = 2.84513 3.40443 3.13727
# Velocity P-wave (km/s) = 4.92216 6.01110 5.49368
#
# Compressibility (1/GPa) = 0.03332017
#
# Stress axis : x y z
#
# Youngs Moduli (GPa) = 48.80152 116.50719 66.53677
#
# Poissons Ratio (x) = 0.31136 -0.17989
# Poissons Ratio (y) = 0.13042 0.36082
# Poissons Ratio (z) = -0.13194 0.63180
#
# Static dielectric constant tensor:
#      x y z
#    x 1.925110 0.000000 0.000000 
#    y 0.000000 1.882000 0.000000 
#    z 0.000000 0.000000 1.805980 
# 
# From -- ./inp_files/7682.got.cif
#   From: 2010.05.17/outbox.cif.g08.bks.cpg/sg43_4_cif.got.tgz:7682.got - 2010.06.03 19:21:55.
