data_PCOD9371639
_publ_section_title
;
Structure prediction by ZEFSAII (Michael W. Deem and Ramdas Pophale) SiO2 
 PCOD9371639
Probable space group: F D D 2
;
_chemical_formula_sum "Si O2"
_cell_formula_units_Z 88
_cell_length_a 28.712230
_cell_length_b 6.146178
_cell_length_c 22.170511
_cell_angle_alpha 90.000000
_cell_angle_beta 90.000000
_cell_angle_gamma 90.000000
_cell_volume 3912.440637
_symmetry_space_group_name_H-M "F D D 2"
_symmetry_group_IT_number 43
_symmetry_cell_setting 'orthorhombic'
loop_
_space_group_symop_operation_xyz
x,y,z
-x,-y,z
1/4-x,1/4+y,1/4+z
1/4+x,1/4-y,1/4+z
x,1/2+y,1/2+z
-x,1/2-y,1/2+z
1/4-x,3/4+y,3/4+z
1/4+x,3/4-y,3/4+z
1/2+x,y,1/2+z
1/2-x,-y,1/2+z
3/4-x,1/4+y,3/4+z
3/4+x,1/4-y,3/4+z
1/2+x,1/2+y,z
1/2-x,1/2-y,z
3/4-x,3/4+y,1/4+z
3/4+x,3/4-y,1/4+z
loop_
_atom_site_type_symbol
_atom_site_label
_atom_site_fract_x
_atom_site_fract_y
_atom_site_fract_z
Si Si1 0.603964 0.286038 0.828380
Si Si2 0.453258 0.881416 0.932131
Si Si3 0.639530 0.845867 0.963070
Si Si4 0.934040 0.254204 0.633467
Si Si5 0.000000 0.500000 0.043959
Si Si6 0.049125 0.986709 0.246399
O O1 0.566981 0.291909 0.884142
O O2 0.607543 0.474091 0.777794
O O3 0.654624 0.295128 0.857464
O O4 0.589251 0.074362 0.790765
O O5 0.500000 0.000000 0.907812
O O6 0.409043 0.036645 0.947263
O O7 0.472418 0.832446 0.999527
O O8 0.648359 0.672687 0.910343
O O9 0.681739 0.016328 0.968369
O O10 0.959301 0.341766 0.692580
O O11 0.966088 0.139617 0.585213
O O12 0.000000 0.000000 0.279317
#
# Coordination Sequence:
#
# PCOD9371639 Si02
#       6
#    16  16  16  16   8  16
#     4  11  23  43  70 102 138 188 239 283 367 427
#     4  10  22  43  69 103 144 183 234 296 359 426
#     4  11  24  44  72  98 146 188 232 304 359 427
#     4  11  23  44  72 103 138 186 243 287 367 428
#     4  10  22  44  74 106 142 186 236 302 360 430
#     4  11  25  45  69 103 138 187 238 294 354 431
#
# _framework density 22.492353999999999
#
# number of rings (size 3 to 8) (size 9 to 14) (size 15 to 20)
#    0.545    0.727    3.636    1.636    2.545    2.182 
#    6.545    0.000    4.000    0.000    0.000    0.000 
#    0.000    0.000    0.000    0.000    0.000    0.000 
#
# Total GULP energy -122612.254197 kJ/mol
# GULP energy per Si atom -5573.284282 kJ/mol
# Density = 2.244116 g / cm^3
# Si number density = 22.492354 Si / 1000 Ang^3
#
#
#
# Elastic Constant Matrix: (Units=GPa)
#
#
# Indices 1 2 3 4 5 6 
#
# 1 117.8477 23.5018 39.7864 -0.0038 0.0007 0.0008
# 2 23.5018 35.4202 18.4378 0.0218 -0.0001 -0.0005
# 3 39.7864 18.4378 149.2489 0.0014 0.0002 0.0001
# 4 -0.0038 0.0218 0.0014 359.9537 0.0045 0.0071
# 5 0.0007 -0.0001 0.0002 0.0045 31.6187 -0.0005
# 6 0.0008 -0.0005 0.0001 0.0071 -0.0005 29.5507
#
#
#
# Elastic Compliance Matrix: (Units=1/GPa)
#
#
# Indices 1 2 3 4 5 6 
#
# 1 0.010329 -0.005792 -0.002038 0.000000 0.000000 0.000000
# 2 -0.005792 0.033421 -0.002585 -0.000002 0.000000 0.000001
# 3 -0.002038 -0.002585 0.007563 0.000000 0.000000 0.000000
# 4 0.000000 -0.000002 0.000000 0.002778 0.000000 -0.000001
# 5 0.000000 0.000000 0.000000 0.000000 0.031627 0.000000
# 6 0.000000 0.000001 0.000000 -0.000001 0.000000 0.033840
#
#
# Mechanical properties :
#
#
# Convention : Reuss Voigt Hill
#
# Bulk Modulus (GPa) = 32.80526 51.77432 42.28979
# Shear Modulus (GPa) = 33.21186 98.94400 66.07793
#
# Velocity S-wave (km/s) = 3.84680 6.63970 5.42602
# Velocity P-wave (km/s) = 5.86065 9.04706 7.62222
#
# Compressibility (1/GPa) = 0.03048292
#
# Stress axis : x y z
#
# Youngs Moduli (GPa) = 96.81790 29.92104 132.22703
#
# Poissons Ratio (x) = 0.17332 0.26945
# Poissons Ratio (y) = 0.56081 0.34176
# Poissons Ratio (z) = 0.19730 0.07734
#
# Static dielectric constant tensor:
#      x y z
#    x 1.827140 0.000000 0.000000 
#    y 0.000000 1.644470 0.000000 
#    z 0.000000 0.000000 1.859880 
# 
# From -- ./inp_files/22949.got.cif
#   From: 2010.05.17/outbox.cif.g08.bks.cpg/sg43_12_cif.got.tgz:22949.got - 2010.06.03 19:21:55.
