data_PCOD9371469
_publ_section_title
;
Structure prediction by ZEFSAII (Michael W. Deem and Ramdas Pophale) SiO2 
 PCOD9371469
Probable space group: F D D 2
;
_chemical_formula_sum "Si O2"
_cell_formula_units_Z 72
_cell_length_a 12.289319
_cell_length_b 10.498834
_cell_length_c 25.681955
_cell_angle_alpha 90.000000
_cell_angle_beta 90.000000
_cell_angle_gamma 90.000000
_cell_volume 3313.576239
_symmetry_space_group_name_H-M "F D D 2"
_symmetry_group_IT_number 43
_symmetry_cell_setting 'orthorhombic'
loop_
_space_group_symop_operation_xyz
x,y,z
-x,-y,z
1/4-x,1/4+y,1/4+z
1/4+x,1/4-y,1/4+z
x,1/2+y,1/2+z
-x,1/2-y,1/2+z
1/4-x,3/4+y,3/4+z
1/4+x,3/4-y,3/4+z
1/2+x,y,1/2+z
1/2-x,-y,1/2+z
3/4-x,1/4+y,3/4+z
3/4+x,1/4-y,3/4+z
1/2+x,1/2+y,z
1/2-x,1/2-y,z
3/4-x,3/4+y,1/4+z
3/4+x,3/4-y,1/4+z
loop_
_atom_site_type_symbol
_atom_site_label
_atom_site_fract_x
_atom_site_fract_y
_atom_site_fract_z
Si Si1 0.113236 0.429676 0.129950
Si Si2 0.500000 0.000000 0.850583
Si Si3 0.563344 0.179093 0.933838
Si Si4 0.371403 0.290230 0.207410
Si Si5 0.167954 0.036160 0.525957
O O1 0.197271 0.512501 0.165512
O O2 0.113760 0.290799 0.154970
O O3 0.139286 0.428368 0.068205
O O4 0.000000 0.500000 0.135571
O O5 0.417477 0.917513 0.885990
O O6 0.564153 0.904883 0.814226
O O7 0.627920 0.309579 0.944596
O O8 0.583697 0.090114 0.983613
O O9 0.250000 0.250000 0.227161
O O10 0.469011 0.257471 0.246528
#
# Coordination Sequence:
#
# PCOD9371469 Si02
#       5
#    16   8  16  16  16
#     4  10  25  43  69 107 142 182 244 304 362 435
#     4  10  22  40  68 104 128 178 248 282 358 428
#     4  10  22  43  72  98 140 183 240 295 354 447
#     4  10  22  46  70 102 143 184 236 302 365 440
#     4  11  22  44  74  99 136 190 232 291 372 438
#
# _framework density 21.728788999999999
#
# number of rings (size 3 to 8) (size 9 to 14) (size 15 to 20)
#    0.000    1.778    2.222    0.000    7.778    0.000 
#    0.000   36.667    0.000    0.000    0.000    0.000 
#    0.000    0.000    0.000    0.000    0.000    0.000 
#
# Total GULP energy -100361.643614 kJ/mol
# GULP energy per Si atom -5575.646867 kJ/mol
# Density = 2.167933 g / cm^3
# Si number density = 21.728789 Si / 1000 Ang^3
#
#
#
# Elastic Constant Matrix: (Units=GPa)
#
#
# Indices 1 2 3 4 5 6 
#
# 1 83.9027 36.3189 64.2626 0.0000 0.0000 0.0000
# 2 36.3189 96.4009 57.6426 0.0000 0.0000 0.0000
# 3 64.2626 57.6426 168.3280 0.0000 0.0000 0.0000
# 4 0.0000 0.0000 0.0000 -107.2276 0.0000 0.0000
# 5 0.0000 0.0000 0.0000 0.0000 50.1207 0.0000
# 6 0.0000 0.0000 0.0000 0.0000 0.0000 10.3713
#
#
#
# Elastic Compliance Matrix: (Units=1/GPa)
#
#
# Indices 1 2 3 4 5 6 
#
# 1 0.017638 -0.003293 -0.005606 0.000000 0.000000 0.000000
# 2 -0.003293 0.013659 -0.003420 0.000000 0.000000 0.000000
# 3 -0.005606 -0.003420 0.009252 0.000000 0.000000 0.000000
# 4 0.000000 0.000000 0.000000 -0.009326 0.000000 0.000000
# 5 0.000000 0.000000 0.000000 0.000000 0.019952 0.000000
# 6 0.000000 0.000000 0.000000 0.000000 0.000000 0.096420
#
#
# Mechanical properties :
#
#
# Convention : Reuss Voigt Hill
#
# Bulk Modulus (GPa) = 62.85083 73.89776 68.37429
# Shear Modulus (GPa) = 28.16327 3.34672 15.75500
#
# Velocity S-wave (km/s) = 3.60408 1.24240 2.69564
# Velocity P-wave (km/s) = 6.80494 6.01174 6.42060
#
# Compressibility (1/GPa) = 0.01591069
#
# Stress axis : x y z
#
# Youngs Moduli (GPa) = 56.69699 73.21114 108.08241
#
# Poissons Ratio (x) = 0.24108 0.60590
# Poissons Ratio (y) = 0.18670 0.36968
# Poissons Ratio (z) = 0.31784 0.25041
#
# Static dielectric constant tensor:
#      x y z
#    x 1.749860 0.000000 0.000000 
#    y 0.000000 2.873930 0.000000 
#    z 0.000000 0.000000 1.793680 
# 
# From -- ./inp_files/16948.got.cif
#   From: 2010.05.17/outbox.cif.g08.bks.cpg/sg43_9_cif.got.tgz:16948.got - 2010.06.03 19:21:55.
