data_PCOD9371690
_publ_section_title
;
Structure prediction by ZEFSAII (Michael W. Deem and Ramdas Pophale) SiO2 
 PCOD9371690
Probable space group: F D D 2
;
_chemical_formula_sum "Si O2"
_cell_formula_units_Z 96
_cell_length_a 9.341254
_cell_length_b 22.920085
_cell_length_c 17.165160
_cell_angle_alpha 90.000000
_cell_angle_beta 90.000000
_cell_angle_gamma 90.000000
_cell_volume 3675.100848
_symmetry_space_group_name_H-M "F D D 2"
_symmetry_group_IT_number 43
_symmetry_cell_setting 'orthorhombic'
loop_
_space_group_symop_operation_xyz
x,y,z
-x,-y,z
1/4-x,1/4+y,1/4+z
1/4+x,1/4-y,1/4+z
x,1/2+y,1/2+z
-x,1/2-y,1/2+z
1/4-x,3/4+y,3/4+z
1/4+x,3/4-y,3/4+z
1/2+x,y,1/2+z
1/2-x,-y,1/2+z
3/4-x,1/4+y,3/4+z
3/4+x,1/4-y,3/4+z
1/2+x,1/2+y,z
1/2-x,1/2-y,z
3/4-x,3/4+y,1/4+z
3/4+x,3/4-y,1/4+z
loop_
_atom_site_type_symbol
_atom_site_label
_atom_site_fract_x
_atom_site_fract_y
_atom_site_fract_z
Si Si1 0.787278 0.039221 0.262690
Si Si2 0.000000 0.500000 0.186151
Si Si3 0.250000 0.250000 0.378992
Si Si4 0.939979 0.781993 0.685556
Si Si5 0.882860 0.414718 0.972597
Si Si6 0.841963 0.112799 0.660857
Si Si7 0.303464 0.126559 0.327539
O O1 0.815197 0.009925 0.345786
O O2 0.841965 0.106579 0.273456
O O3 0.872610 0.014583 0.188907
O O4 0.622236 0.030833 0.238352
O O5 0.071239 0.445930 0.139310
O O6 0.283262 0.195604 0.325593
O O7 0.951968 0.725100 0.741651
O O8 0.791170 0.813205 0.703615
O O9 0.058858 0.832113 0.681084
O O10 0.799123 0.392124 0.897072
O O11 0.718587 0.131705 0.602135
O O12 0.770073 0.098660 0.744676
#
# Coordination Sequence:
#
# PCOD9371690 Si02
#       7
#    16   8   8  16  16  16  16
#     4  11  22  43  73 100 139 192 237 296 358 438
#     4  12  22  44  69 101 136 190 236 296 368 436
#     4  10  22  44  71 101 138 182 240 292 354 434
#     4  11  24  44  69 102 144 186 237 295 366 430
#     4  10  24  43  69 102 136 187 240 289 351 447
#     4  12  26  46  68 107 142 189 236 308 366 441
#     4  11  26  44  71 103 142 188 241 296 367 432
#
# _framework density 26.121732000000002
#
# number of rings (size 3 to 8) (size 9 to 14) (size 15 to 20)
#    0.000    1.000    3.333    3.000    4.667    2.000 
#    6.000    0.000    0.000    0.000    0.000    0.000 
#    0.000    0.000    0.000    0.000    0.000    0.000 
#
# Total GULP energy -134405.158727 kJ/mol
# GULP energy per Si atom -5600.214947 kJ/mol
# Density = 2.606228 g / cm^3
# Si number density = 26.121732 Si / 1000 Ang^3
#
#
#
# Elastic Constant Matrix: (Units=GPa)
#
#
# Indices 1 2 3 4 5 6 
#
# 1 80.3237 36.2886 23.2054 0.0000 0.0000 0.0000
# 2 36.2886 173.4980 15.7445 0.0000 0.0000 0.0000
# 3 23.2054 15.7445 89.4166 0.0000 0.0000 0.0000
# 4 0.0000 0.0000 0.0000 42.1377 0.0000 0.0000
# 5 0.0000 0.0000 0.0000 0.0000 -113.4922 0.0000
# 6 0.0000 0.0000 0.0000 0.0000 0.0000 40.5394
#
#
#
# Elastic Compliance Matrix: (Units=1/GPa)
#
#
# Indices 1 2 3 4 5 6 
#
# 1 0.014657 -0.002765 -0.003317 0.000000 0.000000 0.000000
# 2 -0.002765 0.006379 -0.000406 0.000000 0.000000 0.000000
# 3 -0.003317 -0.000406 0.012116 0.000000 0.000000 0.000000
# 4 0.000000 0.000000 0.000000 0.023732 0.000000 0.000000
# 5 0.000000 0.000000 0.000000 0.000000 -0.008811 0.000000
# 6 0.000000 0.000000 0.000000 0.000000 0.000000 0.024667
#
#
# Mechanical properties :
#
#
# Convention : Reuss Voigt Hill
#
# Bulk Modulus (GPa) = 49.56139 54.85725 52.20932
# Shear Modulus (GPa) = 54.08931 11.70362 32.89646
#
# Velocity S-wave (km/s) = 4.55539 2.11900 3.55259
# Velocity P-wave (km/s) = 6.83251 5.19933 6.07109
#
# Compressibility (1/GPa) = 0.02017700
#
# Stress axis : x y z
#
# Youngs Moduli (GPa) = 68.22736 156.76899 82.53637
#
# Poissons Ratio (x) = 0.43340 0.27377
# Poissons Ratio (y) = 0.18862 0.03349
# Poissons Ratio (z) = 0.22631 0.06360
#
# Static dielectric constant tensor:
#      x y z
#    x 2.044550 0.000000 0.000000 
#    y 0.000000 2.181440 0.000000 
#    z 0.000000 0.000000 1.994010 
# 
# From -- ./inp_files/16501.got.cif
#   From: 2010.05.17/outbox.cif.g08.bks.cpg/sg43_9_cif.got.tgz:16501.got - 2010.06.03 19:21:55.
