data_PCOD9371926
_publ_section_title
;
Structure prediction by ZEFSAII (Michael W. Deem and Ramdas Pophale) SiO2 
 PCOD9371926
Probable space group: F D D 2
;
_chemical_formula_sum "Si O2"
_cell_formula_units_Z 112
_cell_length_a 5.103410
_cell_length_b 31.965608
_cell_length_c 28.149169
_cell_angle_alpha 90.000000
_cell_angle_beta 90.000000
_cell_angle_gamma 90.000000
_cell_volume 4592.075375
_symmetry_space_group_name_H-M "F D D 2"
_symmetry_group_IT_number 43
_symmetry_cell_setting 'orthorhombic'
loop_
_space_group_symop_operation_xyz
x,y,z
-x,-y,z
1/4-x,1/4+y,1/4+z
1/4+x,1/4-y,1/4+z
x,1/2+y,1/2+z
-x,1/2-y,1/2+z
1/4-x,3/4+y,3/4+z
1/4+x,3/4-y,3/4+z
1/2+x,y,1/2+z
1/2-x,-y,1/2+z
3/4-x,1/4+y,3/4+z
3/4+x,1/4-y,3/4+z
1/2+x,1/2+y,z
1/2-x,1/2-y,z
3/4-x,3/4+y,1/4+z
3/4+x,3/4-y,1/4+z
loop_
_atom_site_type_symbol
_atom_site_label
_atom_site_fract_x
_atom_site_fract_y
_atom_site_fract_z
Si Si1 0.944610 0.789590 0.808270
Si Si2 0.471976 0.941239 0.464451
Si Si3 0.393211 0.641767 0.264514
Si Si4 0.172329 0.352119 0.600572
Si Si5 0.679328 0.355683 0.441440
Si Si6 0.666709 0.294421 0.611513
Si Si7 0.989004 0.222101 0.913106
O O1 0.750000 0.750000 0.807810
O O2 0.793254 0.833234 0.800665
O O3 0.087246 0.789781 0.858907
O O4 0.122940 0.787912 0.762185
O O5 0.767948 0.926930 0.476139
O O6 0.336003 0.896679 0.456486
O O7 0.377233 0.964304 0.417584
O O8 0.613451 0.625666 0.300533
O O9 0.274836 0.603282 0.234906
O O10 0.270096 0.383044 0.643024
O O11 0.407699 0.318182 0.594089
O O12 0.908197 0.326993 0.611401
O O13 0.893096 0.319438 0.436762
O O14 0.750000 0.250000 0.588767
O O15 0.250000 0.250000 0.910633
O O16 0.750000 0.250000 0.933176
#
# Coordination Sequence:
#
# PCOD9371926 Si02
#       7
#    16  16  16  16  16  16  16
#     4  10  24  39  62 105 143 180 229 293 372 432
#     4  10  24  37  71  98 137 179 226 298 355 432
#     4  11  23  42  71 100 135 190 236 296 351 430
#     4  11  24  44  71  99 140 184 235 290 352 429
#     4  10  23  45  64 104 136 183 241 285 354 431
#     4  11  25  44  69 100 139 184 230 295 362 424
#     4  11  26  43  69  99 141 191 231 295 359 426
#
# _framework density 24.389842999999999
#
# number of rings (size 3 to 8) (size 9 to 14) (size 15 to 20)
#    0.000    1.429    2.857    0.429   12.000    0.000 
#    0.000    0.714    3.143    0.000    0.000    0.000 
#    0.000    0.000    0.000    0.000    0.000    0.000 
#
# Total GULP energy -156435.347653 kJ/mol
# GULP energy per Si atom -5586.976702 kJ/mol
# Density = 2.433433 g / cm^3
# Si number density = 24.389843 Si / 1000 Ang^3
#
#
#
# Elastic Constant Matrix: (Units=GPa)
#
#
# Indices 1 2 3 4 5 6 
#
# 1 89.2654 12.3216 -0.9629 0.0000 0.0000 0.0000
# 2 12.3216 71.9912 22.1458 0.0000 0.0000 0.0000
# 3 -0.9629 22.1458 66.2530 0.0000 0.0000 0.0000
# 4 0.0000 0.0000 0.0000 -7.9665 0.0000 0.0000
# 5 0.0000 0.0000 0.0000 0.0000 20.9480 0.0000
# 6 0.0000 0.0000 0.0000 0.0000 0.0000 40.3733
#
#
#
# Elastic Compliance Matrix: (Units=1/GPa)
#
#
# Indices 1 2 3 4 5 6 
#
# 1 0.011524 -0.002256 0.000922 0.000000 0.000000 0.000000
# 2 -0.002256 0.015924 -0.005356 0.000000 0.000000 0.000000
# 3 0.000922 -0.005356 0.016897 0.000000 0.000000 0.000000
# 4 0.000000 0.000000 0.000000 -0.125526 0.000000 0.000000
# 5 0.000000 0.000000 0.000000 0.000000 0.047737 0.000000
# 6 0.000000 0.000000 0.000000 0.000000 0.000000 0.024769
#
#
# Mechanical properties :
#
#
# Convention : Reuss Voigt Hill
#
# Bulk Modulus (GPa) = 32.29410 32.72428 32.50919
# Shear Modulus (GPa) = 332.73137 23.60465 178.16801
#
# Velocity S-wave (km/s) = 11.69266 3.11433 8.55621
# Velocity P-wave (km/s) = 13.98430 5.13599 10.53421
#
# Compressibility (1/GPa) = 0.03096541
#
# Stress axis : x y z
#
# Youngs Moduli (GPa) = 86.77637 62.79767 59.18133
#
# Poissons Ratio (x) = 0.14166 -0.05454
# Poissons Ratio (y) = 0.19575 0.31695
# Poissons Ratio (z) = -0.07997 0.33632
#
# Static dielectric constant tensor:
#      x y z
#    x 2.009380 0.000000 0.000000 
#    y 0.000000 2.094470 0.000000 
#    z 0.000000 0.000000 1.926240 
# 
# From -- ./inp_files/27423.got.cif
#   From: 2010.05.17/outbox.cif.g08.bks.cpg/sg43_14_cif.got.tgz:27423.got - 2010.06.03 19:21:55.
