data_PCOD9371839
_publ_section_title
;
Structure prediction by ZEFSAII (Michael W. Deem and Ramdas Pophale) SiO2 
 PCOD9371839
Probable space group: F D D 2
;
_chemical_formula_sum "Si O2"
_cell_formula_units_Z 120
_cell_length_a 8.675422
_cell_length_b 29.732832
_cell_length_c 21.611370
_cell_angle_alpha 90.000000
_cell_angle_beta 90.000000
_cell_angle_gamma 90.000000
_cell_volume 5574.541914
_symmetry_space_group_name_H-M "F D D 2"
_symmetry_group_IT_number 43
_symmetry_cell_setting 'orthorhombic'
loop_
_space_group_symop_operation_xyz
x,y,z
-x,-y,z
1/4-x,1/4+y,1/4+z
1/4+x,1/4-y,1/4+z
x,1/2+y,1/2+z
-x,1/2-y,1/2+z
1/4-x,3/4+y,3/4+z
1/4+x,3/4-y,3/4+z
1/2+x,y,1/2+z
1/2-x,-y,1/2+z
3/4-x,1/4+y,3/4+z
3/4+x,1/4-y,3/4+z
1/2+x,1/2+y,z
1/2-x,1/2-y,z
3/4-x,3/4+y,1/4+z
3/4+x,3/4-y,1/4+z
loop_
_atom_site_type_symbol
_atom_site_label
_atom_site_fract_x
_atom_site_fract_y
_atom_site_fract_z
Si Si1 0.156824 0.912701 0.576900
Si Si2 0.715978 0.943346 0.706930
Si Si3 0.442277 0.290331 0.949916
Si Si4 0.049835 0.049212 0.286932
Si Si5 0.102802 0.885175 0.376274
Si Si6 0.250000 0.250000 0.154983
Si Si7 0.286881 0.682933 0.543730
Si Si8 0.084468 0.222710 0.708438
O O1 0.220020 0.926774 0.643566
O O2 0.244445 0.869659 0.549401
O O3 0.161677 0.953639 0.528765
O O4 0.985233 0.893491 0.591629
O O5 0.535827 0.945161 0.721052
O O6 0.765847 0.899720 0.670490
O O7 0.782415 0.941036 0.777709
O O8 0.764879 0.990612 0.677870
O O9 0.526267 0.297492 0.015506
O O10 0.273691 0.298875 0.977608
O O11 0.014242 0.090855 0.329723
O O12 0.000000 0.000000 0.311605
O O13 0.164233 0.927140 0.416885
O O14 0.245425 0.208369 0.106358
O O15 0.416751 0.246238 0.191570
O O16 0.250000 0.250000 0.699974
#
# Coordination Sequence:
#
# PCOD9371839 Si02
#       8
#    16  16  16  16  16   8  16  16
#     4  12  25  47  68 102 147 189 236 302 367 445
#     4  11  21  42  67  99 134 179 236 285 355 431
#     4  11  25  42  70 100 133 186 241 286 357 437
#     4  10  23  42  65 100 133 174 236 298 344 419
#     4  12  22  42  72 101 143 186 239 298 361 446
#     4  12  26  50  74 104 150 188 252 312 364 454
#     4  12  22  42  72  97 132 188 236 289 355 430
#     4  12  28  47  76 110 150 197 242 306 389 436
#
# _framework density 21.526430999999999
#
# number of rings (size 3 to 8) (size 9 to 14) (size 15 to 20)
#    0.000    0.533    6.667    0.400    5.600    1.067 
#    6.000    0.000    0.000    0.000    0.000    0.000 
#    0.000    0.000    0.000    0.000    0.000    0.000 
#
# Total GULP energy -167181.823576 kJ/mol
# GULP energy per Si atom -5572.727453 kJ/mol
# Density = 2.147744 g / cm^3
# Si number density = 21.526431 Si / 1000 Ang^3
#
#
#
# Elastic Constant Matrix: (Units=GPa)
#
#
# Indices 1 2 3 4 5 6 
#
# 1 49.7728 29.7361 22.0974 0.0000 0.0000 0.0000
# 2 29.7361 123.7069 44.6029 0.0000 0.0000 0.0000
# 3 22.0974 44.6029 88.5588 0.0000 0.0000 0.0000
# 4 0.0000 0.0000 0.0000 57.2510 0.0000 0.0000
# 5 0.0000 0.0000 0.0000 0.0000 18.3393 0.0000
# 6 0.0000 0.0000 0.0000 0.0000 0.0000 35.2292
#
#
#
# Elastic Compliance Matrix: (Units=1/GPa)
#
#
# Indices 1 2 3 4 5 6 
#
# 1 0.024486 -0.004500 -0.003843 0.000000 0.000000 0.000000
# 2 -0.004500 0.010704 -0.004268 0.000000 0.000000 0.000000
# 3 -0.003843 -0.004268 0.014401 0.000000 0.000000 0.000000
# 4 0.000000 0.000000 0.000000 0.017467 0.000000 0.000000
# 5 0.000000 0.000000 0.000000 0.000000 0.054528 0.000000
# 6 0.000000 0.000000 0.000000 0.000000 0.000000 0.028386
#
#
# Mechanical properties :
#
#
# Convention : Reuss Voigt Hill
#
# Bulk Modulus (GPa) = 41.03833 50.54570 45.79201
# Shear Modulus (GPa) = 27.27510 33.20406 30.23958
#
# Velocity S-wave (km/s) = 3.56343 3.93170 3.75209
# Velocity P-wave (km/s) = 6.00302 6.64400 6.33163
#
# Compressibility (1/GPa) = 0.02436747
#
# Stress axis : x y z
#
# Youngs Moduli (GPa) = 40.83944 93.42016 69.44106
#
# Poissons Ratio (x) = 0.42041 0.26688
# Poissons Ratio (y) = 0.18378 0.29640
# Poissons Ratio (z) = 0.15696 0.39875
#
# Static dielectric constant tensor:
#      x y z
#    x 1.823920 0.000000 0.000000 
#    y 0.000000 1.791450 0.000000 
#    z 0.000000 0.000000 1.763970 
# 
# From -- ./inp_files/20431.got.cif
#   From: 2010.05.17/outbox.cif.g08.bks.cpg/sg43_11_cif.got.tgz:20431.got - 2010.06.03 19:21:55.
