data_PCOD9371892
_publ_section_title
;
Structure prediction by ZEFSAII (Michael W. Deem and Ramdas Pophale) SiO2 
 PCOD9371892
Probable space group: F D D 2
;
_chemical_formula_sum "Si O2"
_cell_formula_units_Z 104
_cell_length_a 24.623852
_cell_length_b 24.470872
_cell_length_c 7.180279
_cell_angle_alpha 90.000000
_cell_angle_beta 90.000000
_cell_angle_gamma 90.000000
_cell_volume 4326.600113
_symmetry_space_group_name_H-M "F D D 2"
_symmetry_group_IT_number 43
_symmetry_cell_setting 'orthorhombic'
loop_
_space_group_symop_operation_xyz
x,y,z
-x,-y,z
1/4-x,1/4+y,1/4+z
1/4+x,1/4-y,1/4+z
x,1/2+y,1/2+z
-x,1/2-y,1/2+z
1/4-x,3/4+y,3/4+z
1/4+x,3/4-y,3/4+z
1/2+x,y,1/2+z
1/2-x,-y,1/2+z
3/4-x,1/4+y,3/4+z
3/4+x,1/4-y,3/4+z
1/2+x,1/2+y,z
1/2-x,1/2-y,z
3/4-x,3/4+y,1/4+z
3/4+x,3/4-y,1/4+z
loop_
_atom_site_type_symbol
_atom_site_label
_atom_site_fract_x
_atom_site_fract_y
_atom_site_fract_z
Si Si1 0.212550 0.938600 0.924050
Si Si2 0.914404 0.491831 0.865683
Si Si3 0.704904 0.466203 0.350935
Si Si4 0.000000 0.000000 0.683598
Si Si5 0.474168 0.620933 0.710277
Si Si6 0.875798 0.887932 0.200537
Si Si7 0.804371 0.857270 0.526873
O O1 0.156908 0.912282 0.852832
O O2 0.255245 0.889111 0.932305
O O3 0.245029 0.990775 0.851737
O O4 0.197647 0.952378 0.136031
O O5 0.852138 0.508494 0.917181
O O6 0.911780 0.441329 0.726106
O O7 0.943291 0.542473 0.765275
O O8 0.949776 0.482358 0.049764
O O9 0.724312 0.411515 0.456579
O O10 0.015659 0.941736 0.775108
O O11 0.427991 0.648273 0.834197
O O12 0.451717 0.618999 0.497167
O O13 0.857127 0.876692 0.413993
#
# Coordination Sequence:
#
# PCOD9371892 Si02
#       7
#    16  16  16   8  16  16  16
#     4  11  24  42  69 101 142 177 239 283 350 409
#     4  11  21  42  75  95 140 186 229 282 353 413
#     4  11  22  40  70 103 131 180 234 291 331 419
#     4  10  24  48  66 102 146 192 222 288 362 428
#     4  10  25  45  67 102 140 176 238 278 352 412
#     4  12  23  45  69 104 137 179 232 289 340 416
#     4  10  23  44  66 101 134 183 220 287 347 406
#
# _framework density 24.037351999999998
#
# number of rings (size 3 to 8) (size 9 to 14) (size 15 to 20)
#    0.000    1.231    3.077    3.692    0.000    2.462 
#    0.000    4.615    0.000    0.000    0.000    0.000 
#    0.000    0.000    0.000    0.000    0.000    0.000 
#
# Total GULP energy -145334.027383 kJ/mol
# GULP energy per Si atom -5589.770284 kJ/mol
# Density = 2.398264 g / cm^3
# Si number density = 24.037352 Si / 1000 Ang^3
#
#
#
# Elastic Constant Matrix: (Units=GPa)
#
#
# Indices 1 2 3 4 5 6 
#
# 1 89.8106 18.7272 24.3238 -0.0158 0.0051 0.0027
# 2 18.7272 110.0183 1.3326 -0.0067 0.0055 -0.0070
# 3 24.3238 1.3326 29.1300 -0.0063 0.0282 -0.0156
# 4 -0.0158 -0.0067 -0.0063 26.1141 0.0172 -0.0059
# 5 0.0051 0.0055 0.0282 0.0172 15.3858 0.0102
# 6 0.0027 -0.0070 -0.0156 -0.0059 0.0102 47.2678
#
#
#
# Elastic Compliance Matrix: (Units=1/GPa)
#
#
# Indices 1 2 3 4 5 6 
#
# 1 0.014997 -0.002402 -0.012413 0.000005 0.000019 -0.000005
# 2 -0.002402 0.009479 0.001572 0.000001 -0.000005 0.000002
# 3 -0.012413 0.001572 0.044622 0.000004 -0.000078 0.000016
# 4 0.000005 0.000001 0.000004 0.038294 -0.000043 0.000005
# 5 0.000019 -0.000005 -0.000078 -0.000043 0.064995 -0.000014
# 6 -0.000005 0.000002 0.000016 0.000005 -0.000014 0.021156
#
#
# Mechanical properties :
#
#
# Convention : Reuss Voigt Hill
#
# Bulk Modulus (GPa) = 23.46727 35.30290 29.38509
# Shear Modulus (GPa) = 21.34616 30.05855 25.70235
#
# Velocity S-wave (km/s) = 2.98324 3.54007 3.27351
# Velocity P-wave (km/s) = 4.65299 5.60607 5.15162
#
# Compressibility (1/GPa) = 0.04261254
#
# Stress axis : x y z
#
# Youngs Moduli (GPa) = 66.67828 105.49305 22.41044
#
# Poissons Ratio (x) = 0.25345 0.27818
# Poissons Ratio (y) = 0.16019 -0.03524
# Poissons Ratio (z) = 0.82768 -0.16588
#
# Static dielectric constant tensor:
#      x y z
#    x 1.933870 0.000000 0.000000 
#    y 0.000000 1.962390 -0.000010 
#    z 0.000000 -0.000010 1.936190 
# 
# From -- ./inp_files/3375.got.cif
#   From: 2010.05.17/outbox.cif.g08.bks.cpg/sg43_2_cif.got.tgz:3375.got - 2010.06.03 19:21:55.
