data_PCOD9371698
_publ_section_title
;
Structure prediction by ZEFSAII (Michael W. Deem and Ramdas Pophale) SiO2 
 PCOD9371698
Probable space group: F D D 2
;
_chemical_formula_sum "Si O2"
_cell_formula_units_Z 88
_cell_length_a 14.364181
_cell_length_b 17.957950
_cell_length_c 14.541098
_cell_angle_alpha 90.000000
_cell_angle_beta 90.000000
_cell_angle_gamma 90.000000
_cell_volume 3750.894321
_symmetry_space_group_name_H-M "F D D 2"
_symmetry_group_IT_number 43
_symmetry_cell_setting 'orthorhombic'
loop_
_space_group_symop_operation_xyz
x,y,z
-x,-y,z
1/4-x,1/4+y,1/4+z
1/4+x,1/4-y,1/4+z
x,1/2+y,1/2+z
-x,1/2-y,1/2+z
1/4-x,3/4+y,3/4+z
1/4+x,3/4-y,3/4+z
1/2+x,y,1/2+z
1/2-x,-y,1/2+z
3/4-x,1/4+y,3/4+z
3/4+x,1/4-y,3/4+z
1/2+x,1/2+y,z
1/2-x,1/2-y,z
3/4-x,3/4+y,1/4+z
3/4+x,3/4-y,1/4+z
loop_
_atom_site_type_symbol
_atom_site_label
_atom_site_fract_x
_atom_site_fract_y
_atom_site_fract_z
Si Si1 0.216175 0.580037 0.207210
Si Si2 0.159395 0.550754 0.518335
Si Si3 0.987332 0.344010 0.437132
Si Si4 0.000000 0.500000 0.646164
Si Si5 0.582522 0.084056 0.806851
Si Si6 0.070660 0.195932 0.644462
O O1 0.202647 0.491632 0.191845
O O2 0.282458 0.611462 0.126782
O O3 0.124506 0.630578 0.198072
O O4 0.269255 0.586429 0.304330
O O5 0.094192 0.598540 0.452477
O O6 0.210476 0.603941 0.591200
O O7 0.089841 0.502686 0.581043
O O8 0.241511 0.516028 0.457946
O O9 0.066298 0.353664 0.515041
O O10 0.017477 0.567513 0.717760
O O11 0.605983 0.007237 0.860449
#
# Coordination Sequence:
#
# PCOD9371698 Si02
#       6
#    16  16  16   8  16  16
#     4  11  24  44  72 106 141 187 250 295 372 439
#     4  11  25  45  66 105 146 185 239 292 375 437
#     4  10  26  42  71 102 144 190 236 299 365 434
#     4  10  22  46  76 102 138 192 246 302 356 440
#     4  10  22  44  72 108 133 187 247 302 354 434
#     4  11  24  43  71 105 143 186 233 305 375 430
#
# _framework density 23.461071
#
# number of rings (size 3 to 8) (size 9 to 14) (size 15 to 20)
#    0.000    1.455    1.818    1.091   10.182    3.636 
#    6.545    0.000    0.000    0.000    0.000    0.000 
#    0.000    0.000    0.000    0.000    0.000    0.000 
#
# Total GULP energy -123067.745287 kJ/mol
# GULP energy per Si atom -5593.988422 kJ/mol
# Density = 2.340767 g / cm^3
# Si number density = 23.461071 Si / 1000 Ang^3
#
#
#
# Elastic Constant Matrix: (Units=GPa)
#
#
# Indices 1 2 3 4 5 6 
#
# 1 131.2942 28.2700 61.0044 0.0000 0.0000 0.0000
# 2 28.2700 54.6426 28.9728 0.0000 0.0000 0.0000
# 3 61.0044 28.9728 120.1122 0.0000 0.0000 0.0000
# 4 0.0000 0.0000 0.0000 18.0702 0.0000 0.0000
# 5 0.0000 0.0000 0.0000 0.0000 57.5670 0.0000
# 6 0.0000 0.0000 0.0000 0.0000 0.0000 26.7930
#
#
#
# Elastic Compliance Matrix: (Units=1/GPa)
#
#
# Indices 1 2 3 4 5 6 
#
# 1 0.010368 -0.002949 -0.004554 0.000000 0.000000 0.000000
# 2 -0.002949 0.021823 -0.003766 0.000000 0.000000 0.000000
# 3 -0.004554 -0.003766 0.011547 0.000000 0.000000 0.000000
# 4 0.000000 0.000000 0.000000 0.055340 0.000000 0.000000
# 5 0.000000 0.000000 0.000000 0.000000 0.017371 0.000000
# 6 0.000000 0.000000 0.000000 0.000000 0.000000 0.037323
#
#
# Mechanical properties :
#
#
# Convention : Reuss Voigt Hill
#
# Bulk Modulus (GPa) = 47.17230 60.28260 53.72745
# Shear Modulus (GPa) = 27.26615 33.00617 30.13616
#
# Velocity S-wave (km/s) = 3.41278 3.75487 3.58790
# Velocity P-wave (km/s) = 5.97325 6.67452 6.33360
#
# Compressibility (1/GPa) = 0.02119888
#
# Stress axis : x y z
#
# Youngs Moduli (GPa) = 96.45473 45.82229 86.60144
#
# Poissons Ratio (x) = 0.13513 0.39441
# Poissons Ratio (y) = 0.28444 0.32617
# Poissons Ratio (z) = 0.43928 0.17258
#
# Static dielectric constant tensor:
#      x y z
#    x 1.859630 0.000000 0.000000 
#    y 0.000000 1.922490 0.000000 
#    z 0.000000 0.000000 1.873970 
# 
# From -- ./inp_files/10033.got.cif
#   From: 2010.05.17/outbox.cif.g08.bks.cpg/sg43_6_cif.got.tgz:10033.got - 2010.06.03 19:21:55.
