data_PCOD9371207
_publ_section_title
;
Structure prediction by ZEFSAII (Michael W. Deem and Ramdas Pophale) SiO2 
 PCOD9371207
Probable space group: F D D 2
;
_chemical_formula_sum "Si O2"
_cell_formula_units_Z 120
_cell_length_a 12.769742
_cell_length_b 15.540385
_cell_length_c 25.654203
_cell_angle_alpha 90.000000
_cell_angle_beta 90.000000
_cell_angle_gamma 90.000000
_cell_volume 5090.992107
_symmetry_space_group_name_H-M "F D D 2"
_symmetry_group_IT_number 43
_symmetry_cell_setting 'orthorhombic'
loop_
_space_group_symop_operation_xyz
x,y,z
-x,-y,z
1/4-x,1/4+y,1/4+z
1/4+x,1/4-y,1/4+z
x,1/2+y,1/2+z
-x,1/2-y,1/2+z
1/4-x,3/4+y,3/4+z
1/4+x,3/4-y,3/4+z
1/2+x,y,1/2+z
1/2-x,-y,1/2+z
3/4-x,1/4+y,3/4+z
3/4+x,1/4-y,3/4+z
1/2+x,1/2+y,z
1/2-x,1/2-y,z
3/4-x,3/4+y,1/4+z
3/4+x,3/4-y,1/4+z
loop_
_atom_site_type_symbol
_atom_site_label
_atom_site_fract_x
_atom_site_fract_y
_atom_site_fract_z
Si Si1 0.000000 0.000000 0.973171
Si Si2 0.286203 0.106422 0.019852
Si Si3 0.644592 0.930986 0.338262
Si Si4 0.125511 0.268161 0.411220
Si Si5 0.262432 0.841548 0.318150
Si Si6 0.775386 0.424284 0.082827
Si Si7 0.331318 0.407070 0.914608
Si Si8 0.398564 0.652439 0.021680
O O1 0.940154 0.924580 0.943049
O O2 0.085960 0.947708 0.004377
O O3 0.200485 0.167702 0.047487
O O4 0.403971 0.140463 0.031678
O O5 0.280359 0.012660 0.048074
O O6 0.255302 0.097574 0.959454
O O7 0.617790 0.856557 0.379374
O O8 0.751029 0.917621 0.307045
O O9 0.667627 0.013221 0.374390
O O10 0.250000 0.250000 0.405529
O O11 0.043402 0.202301 0.383874
O O12 0.104694 0.285564 0.472031
O O13 0.250000 0.750000 0.290585
O O14 0.321648 0.829744 0.374013
O O15 0.143840 0.864085 0.334348
O O16 0.707337 0.352079 0.053805
#
# Coordination Sequence:
#
# PCOD9371207 Si02
#       8
#     8  16  16  16  16  16  16  16
#     4  12  20  38  72 100 134 166 222 296 346 384
#     4  10  21  41  66  96 133 182 224 281 348 403
#     4  11  22  39  68 105 134 169 237 289 346 404
#     4  11  22  40  69  98 133 182 229 285 352 405
#     4  10  25  44  63  91 141 186 223 268 348 436
#     4  10  21  43  64  89 135 183 219 281 345 409
#     4  12  23  42  67 105 135 179 230 288 348 413
#     4  12  22  39  69 101 133 170 227 291 344 400
#
# _framework density 23.571044000000001
#
# number of rings (size 3 to 8) (size 9 to 14) (size 15 to 20)
#    0.000    1.067    5.333    1.600    3.733    1.067 
#    7.200    2.667    0.000    0.000    0.000    0.000 
#    0.000    0.000    0.000    0.000    0.000    0.000 
#
# Total GULP energy -167364.382893 kJ/mol
# GULP energy per Si atom -5578.812763 kJ/mol
# Density = 2.351740 g / cm^3
# Si number density = 23.571044 Si / 1000 Ang^3
#
#
#
# Elastic Constant Matrix: (Units=GPa)
#
#
# Indices 1 2 3 4 5 6 
#
# 1 203.5802 25.1499 55.2384 0.0000 0.0000 0.0000
# 2 25.1499 46.8922 29.6608 0.0000 0.0000 0.0000
# 3 55.2384 29.6608 114.7093 0.0000 0.0000 0.0000
# 4 0.0000 0.0000 0.0000 -3.3367 0.0000 0.0000
# 5 0.0000 0.0000 0.0000 0.0000 38.3636 0.0000
# 6 0.0000 0.0000 0.0000 0.0000 0.0000 22.8624
#
#
#
# Elastic Compliance Matrix: (Units=1/GPa)
#
#
# Indices 1 2 3 4 5 6 
#
# 1 0.005748 -0.001593 -0.002356 0.000000 0.000000 0.000000
# 2 -0.001593 0.025937 -0.005940 0.000000 0.000000 0.000000
# 3 -0.002356 -0.005940 0.011388 0.000000 0.000000 0.000000
# 4 0.000000 0.000000 0.000000 -0.299697 0.000000 0.000000
# 5 0.000000 0.000000 0.000000 0.000000 0.026066 0.000000
# 6 0.000000 0.000000 0.000000 0.000000 0.000000 0.043740
#
#
# Mechanical properties :
#
#
# Convention : Reuss Voigt Hill
#
# Bulk Modulus (GPa) = 42.92555 65.03108 53.97831
# Shear Modulus (GPa) = -31.39219 28.58671 -1.40274
#
# Velocity S-wave (km/s) = -3.65336 3.48629 -0.77227
# Velocity P-wave (km/s) = 0.67426 6.62230 4.70689
#
# Compressibility (1/GPa) = 0.02329615
#
# Stress axis : x y z
#
# Youngs Moduli (GPa) = 173.96946 38.55546 87.81044
#
# Poissons Ratio (x) = 0.06140 0.20690
# Poissons Ratio (y) = 0.27705 0.52156
# Poissons Ratio (z) = 0.40991 0.22901
#
# Static dielectric constant tensor:
#      x y z
#    x 1.887760 0.000000 0.000000 
#    y 0.000000 1.965560 0.000000 
#    z 0.000000 0.000000 1.903700 
# 
# From -- ./inp_files/25177.got.cif
#   From: 2010.05.17/outbox.cif.g08.bks.cpg/sg43_13_cif.got.tgz:25177.got - 2010.06.03 19:21:55.
