data_PCOD9371178
_publ_section_title
;
Structure prediction by ZEFSAII (Michael W. Deem and Ramdas Pophale) SiO2 
 PCOD9371178
Probable space group: F D D 2
;
_chemical_formula_sum "Si O2"
_cell_formula_units_Z 104
_cell_length_a 8.343233
_cell_length_b 19.817364
_cell_length_c 24.847499
_cell_angle_alpha 90.000000
_cell_angle_beta 90.000000
_cell_angle_gamma 90.000000
_cell_volume 4108.307482
_symmetry_space_group_name_H-M "F D D 2"
_symmetry_group_IT_number 43
_symmetry_cell_setting 'orthorhombic'
loop_
_space_group_symop_operation_xyz
x,y,z
-x,-y,z
1/4-x,1/4+y,1/4+z
1/4+x,1/4-y,1/4+z
x,1/2+y,1/2+z
-x,1/2-y,1/2+z
1/4-x,3/4+y,3/4+z
1/4+x,3/4-y,3/4+z
1/2+x,y,1/2+z
1/2-x,-y,1/2+z
3/4-x,1/4+y,3/4+z
3/4+x,1/4-y,3/4+z
1/2+x,1/2+y,z
1/2-x,1/2-y,z
3/4-x,3/4+y,1/4+z
3/4+x,3/4-y,1/4+z
loop_
_atom_site_type_symbol
_atom_site_label
_atom_site_fract_x
_atom_site_fract_y
_atom_site_fract_z
Si Si1 0.350811 0.949323 0.181250
Si Si2 0.260864 0.137068 0.584146
Si Si3 0.618195 0.812955 0.476450
Si Si4 0.968791 0.607789 0.278723
Si Si5 0.500000 0.000000 0.370566
Si Si6 0.428311 0.242805 0.785306
Si Si7 0.981875 0.190110 0.172941
O O1 0.349665 0.892446 0.134101
O O2 0.391958 0.912926 0.237219
O O3 0.500000 0.000000 0.173100
O O4 0.189639 0.995128 0.193439
O O5 0.254819 0.179430 0.527528
O O6 0.295258 0.062515 0.561361
O O7 0.380984 0.179427 0.619844
O O8 0.451161 0.836416 0.503833
O O9 0.675416 0.870612 0.435368
O O10 0.985750 0.686373 0.287527
O O11 0.993496 0.564502 0.332322
O O12 0.649995 0.000646 0.409345
O O13 0.250000 0.250000 0.809559
O O14 0.394812 0.211577 0.726690
#
# Coordination Sequence:
#
# PCOD9371178 Si02
#       7
#    16  16  16  16   8  16  16
#     4  10  21  40  68  97 136 188 229 282 350 425
#     4  11  23  43  70  99 139 183 230 289 362 421
#     4  10  22  41  66 103 136 173 235 285 345 430
#     4  11  21  44  69  94 140 176 237 288 342 436
#     4  12  22  44  72 106 130 188 234 290 368 428
#     4  11  26  46  67 104 141 186 237 292 357 438
#     4  11  24  43  71 103 142 178 232 298 361 423
#
# _framework density 25.314561999999999
#
# number of rings (size 3 to 8) (size 9 to 14) (size 15 to 20)
#    0.000    1.231    3.846    2.308    2.154    3.692 
#    5.538    0.000   13.538    0.000    0.000    0.000 
#    0.000    0.000    0.000    0.000    0.000    0.000 
#
# Total GULP energy -145022.412204 kJ/mol
# GULP energy per Si atom -5577.785085 kJ/mol
# Density = 2.525695 g / cm^3
# Si number density = 25.314562 Si / 1000 Ang^3
#
#
#
# Elastic Constant Matrix: (Units=GPa)
#
#
# Indices 1 2 3 4 5 6 
#
# 1 48.2589 17.1130 5.1288 0.0000 0.0000 0.0000
# 2 17.1130 108.4876 5.0816 0.0000 0.0000 0.0000
# 3 5.1288 5.0816 111.5631 0.0000 0.0000 0.0000
# 4 0.0000 0.0000 0.0000 102.3389 0.0000 0.0000
# 5 0.0000 0.0000 0.0000 0.0000 11.3307 0.0000
# 6 0.0000 0.0000 0.0000 0.0000 0.0000 47.6168
#
#
#
# Elastic Compliance Matrix: (Units=1/GPa)
#
#
# Indices 1 2 3 4 5 6 
#
# 1 0.022031 -0.003435 -0.000856 0.000000 0.000000 0.000000
# 2 -0.003435 0.009773 -0.000287 0.000000 0.000000 0.000000
# 3 -0.000856 -0.000287 0.009016 0.000000 0.000000 0.000000
# 4 0.000000 0.000000 0.000000 0.009771 0.000000 0.000000
# 5 0.000000 0.000000 0.000000 0.000000 0.088256 0.000000
# 6 0.000000 0.000000 0.000000 0.000000 0.000000 0.021001
#
#
# Mechanical properties :
#
#
# Convention : Reuss Voigt Hill
#
# Bulk Modulus (GPa) = 31.58321 35.88402 33.73361
# Shear Modulus (GPa) = 27.84596 48.32302 38.08449
#
# Velocity S-wave (km/s) = 3.32022 4.37384 3.88293
# Velocity P-wave (km/s) = 5.21554 6.30185 5.78425
#
# Compressibility (1/GPa) = 0.03166240
#
# Stress axis : x y z
#
# Youngs Moduli (GPa) = 45.39126 102.32324 110.91404
#
# Poissons Ratio (x) = 0.35148 0.09498
# Poissons Ratio (y) = 0.15592 0.03186
# Poissons Ratio (z) = 0.03887 0.02939
#
# Static dielectric constant tensor:
#      x y z
#    x 1.992280 0.000000 0.000000 
#    y 0.000000 1.949180 0.000000 
#    z 0.000000 0.000000 1.996410 
# 
# From -- ./inp_files/24294.got.cif
#   From: 2010.05.17/outbox.cif.g08.bks.cpg/sg43_13_cif.got.tgz:24294.got - 2010.06.03 19:21:55.
