data_PCOD9371406
_publ_section_title
;
Structure prediction by ZEFSAII (Michael W. Deem and Ramdas Pophale) SiO2 
 PCOD9371406
Probable space group: F D D 2
;
_chemical_formula_sum "Si O2"
_cell_formula_units_Z 72
_cell_length_a 9.229131
_cell_length_b 11.864374
_cell_length_c 26.509374
_cell_angle_alpha 90.000000
_cell_angle_beta 90.000000
_cell_angle_gamma 90.000000
_cell_volume 2902.719773
_symmetry_space_group_name_H-M "F D D 2"
_symmetry_group_IT_number 43
_symmetry_cell_setting 'orthorhombic'
loop_
_space_group_symop_operation_xyz
x,y,z
-x,-y,z
1/4-x,1/4+y,1/4+z
1/4+x,1/4-y,1/4+z
x,1/2+y,1/2+z
-x,1/2-y,1/2+z
1/4-x,3/4+y,3/4+z
1/4+x,3/4-y,3/4+z
1/2+x,y,1/2+z
1/2-x,-y,1/2+z
3/4-x,1/4+y,3/4+z
3/4+x,1/4-y,3/4+z
1/2+x,1/2+y,z
1/2-x,1/2-y,z
3/4-x,3/4+y,1/4+z
3/4+x,3/4-y,1/4+z
loop_
_atom_site_type_symbol
_atom_site_label
_atom_site_fract_x
_atom_site_fract_y
_atom_site_fract_z
Si Si1 0.632067 0.912548 0.231880
Si Si2 0.163222 0.488114 0.661169
Si Si3 0.019772 0.742246 0.300910
Si Si4 0.000000 0.000000 0.398930
Si Si5 0.774627 0.561609 0.814294
O O1 0.564294 0.798110 0.251854
O O2 0.500000 0.000000 0.222946
O O3 0.734314 0.916086 0.183923
O O4 0.725891 0.961237 0.278485
O O5 0.174348 0.490311 0.600682
O O6 0.227528 0.366668 0.677859
O O7 0.000000 0.500000 0.677782
O O8 0.103794 0.857156 0.290980
O O9 0.135151 0.644381 0.317295
O O10 0.854577 0.018774 0.364902
#
# Coordination Sequence:
#
# PCOD9371406 Si02
#       5
#    16  16  16   8  16
#     4  10  22  39  68  94 134 174 226 282 341 414
#     4  11  24  41  67 102 133 176 234 284 348 418
#     4   9  20  41  66  92 132 182 219 278 351 407
#     4  10  22  38  70  92 138 174 220 296 352 404
#     4   9  19  38  65  92 127 177 220 276 352 403
#
# _framework density 24.804324000000001
#
# number of rings (size 3 to 8) (size 9 to 14) (size 15 to 20)
#    0.000    2.222    0.000    1.333    7.778    3.556 
#    0.000    0.000   19.556    0.000    0.000    0.000 
#    0.000    0.000    0.000    0.000    0.000    0.000 
#
# Total GULP energy -100797.313080 kJ/mol
# GULP energy per Si atom -5599.850727 kJ/mol
# Density = 2.474787 g / cm^3
# Si number density = 24.804324 Si / 1000 Ang^3
#
#
#
# Elastic Constant Matrix: (Units=GPa)
#
#
# Indices 1 2 3 4 5 6 
#
# 1 120.8620 20.2971 37.1709 0.0000 0.0000 0.0000
# 2 20.2971 77.9561 3.6446 0.0000 0.0000 0.0000
# 3 37.1709 3.6446 53.6891 0.0000 0.0000 0.0000
# 4 0.0000 0.0000 0.0000 7.9190 0.0000 0.0000
# 5 0.0000 0.0000 0.0000 0.0000 21.0803 0.0000
# 6 0.0000 0.0000 0.0000 0.0000 0.0000 17.3507
#
#
#
# Elastic Compliance Matrix: (Units=1/GPa)
#
#
# Indices 1 2 3 4 5 6 
#
# 1 0.010982 -0.002512 -0.007432 0.000000 0.000000 0.000000
# 2 -0.002512 0.013443 0.000826 0.000000 0.000000 0.000000
# 3 -0.007432 0.000826 0.023715 0.000000 0.000000 0.000000
# 4 0.000000 0.000000 0.000000 0.126279 0.000000 0.000000
# 5 0.000000 0.000000 0.000000 0.000000 0.047438 0.000000
# 6 0.000000 0.000000 0.000000 0.000000 0.000000 0.057634
#
#
# Mechanical properties :
#
#
# Convention : Reuss Voigt Hill
#
# Bulk Modulus (GPa) = 33.43980 41.63694 37.53837
# Shear Modulus (GPa) = 16.24987 22.02964 19.13976
#
# Velocity S-wave (km/s) = 2.56231 2.98340 2.78084
# Velocity P-wave (km/s) = 4.71854 5.35632 5.04751
#
# Compressibility (1/GPa) = 0.02990448
#
# Stress axis : x y z
#
# Youngs Moduli (GPa) = 91.06193 74.38778 42.16673
#
# Poissons Ratio (x) = 0.18684 0.31340
# Poissons Ratio (y) = 0.22872 -0.03485
# Poissons Ratio (z) = 0.67681 -0.06147
#
# Static dielectric constant tensor:
#      x y z
#    x 1.960400 0.000000 0.000000 
#    y 0.000000 1.967710 0.000000 
#    z 0.000000 0.000000 1.930390 
# 
# From -- ./inp_files/23938.got.cif
#   From: 2010.05.17/outbox.cif.g08.bks.cpg/sg43_12_cif.got.tgz:23938.got - 2010.06.03 19:21:55.
