data_PCOD9371133
_publ_section_title
;
Structure prediction by ZEFSAII (Michael W. Deem and Ramdas Pophale) SiO2 
 PCOD9371133
Probable space group: F D D 2
;
_chemical_formula_sum "Si O2"
_cell_formula_units_Z 120
_cell_length_a 13.446030
_cell_length_b 26.424730
_cell_length_c 15.824303
_cell_angle_alpha 90.000000
_cell_angle_beta 90.000000
_cell_angle_gamma 90.000000
_cell_volume 5622.496898
_symmetry_space_group_name_H-M "F D D 2"
_symmetry_group_IT_number 43
_symmetry_cell_setting 'orthorhombic'
loop_
_space_group_symop_operation_xyz
x,y,z
-x,-y,z
1/4-x,1/4+y,1/4+z
1/4+x,1/4-y,1/4+z
x,1/2+y,1/2+z
-x,1/2-y,1/2+z
1/4-x,3/4+y,3/4+z
1/4+x,3/4-y,3/4+z
1/2+x,y,1/2+z
1/2-x,-y,1/2+z
3/4-x,1/4+y,3/4+z
3/4+x,1/4-y,3/4+z
1/2+x,1/2+y,z
1/2-x,1/2-y,z
3/4-x,3/4+y,1/4+z
3/4+x,3/4-y,1/4+z
loop_
_atom_site_type_symbol
_atom_site_label
_atom_site_fract_x
_atom_site_fract_y
_atom_site_fract_z
Si Si1 0.693964 0.948058 0.183560
Si Si2 0.750000 0.250000 0.357905
Si Si3 0.667358 0.102254 0.390449
Si Si4 0.799111 0.833386 0.531839
Si Si5 0.878126 0.610624 0.960010
Si Si6 0.639254 0.526086 0.294190
Si Si7 0.364094 0.439142 0.482605
Si Si8 0.511767 0.775150 0.263764
O O1 0.667194 0.889266 0.174857
O O2 0.748527 0.961864 0.269357
O O3 0.580679 0.799117 0.191154
O O4 0.776406 0.960730 0.111118
O O5 0.657257 0.228978 0.413420
O O6 0.801210 0.207775 0.297151
O O7 0.772078 0.126768 0.420598
O O8 0.660740 0.104787 0.288629
O O9 0.801344 0.852919 0.629954
O O10 0.690843 0.814429 0.503168
O O11 0.864760 0.782482 0.527868
O O12 0.846488 0.879628 0.481445
O O13 0.842905 0.555928 0.996592
O O14 0.619398 0.536200 0.392164
O O15 0.261207 0.466339 0.510747
#
# Coordination Sequence:
#
# PCOD9371133 Si02
#       8
#    16   8  16  16  16  16  16  16
#     4  10  21  40  60  99 129 179 223 291 353 415
#     4  10  22  40  70 100 130 170 242 306 350 408
#     4   9  18  36  66  94 132 176 218 287 351 406
#     4  11  24  40  66  94 137 192 230 280 355 421
#     4   9  18  36  64 102 127 171 231 286 350 401
#     4  11  25  42  64  99 146 175 236 293 343 425
#     4  11  22  40  65  97 137 179 226 296 352 400
#     4   8  19  37  60  90 134 164 222 286 341 397
#
# _framework density 21.342831
#
# number of rings (size 3 to 8) (size 9 to 14) (size 15 to 20)
#    0.800    1.333    1.333    1.600    5.600    3.200 
#    9.600    0.000    0.000    0.800    0.000    0.000 
#    0.000    0.000    0.000    0.000    0.000    0.000 
#
# Total GULP energy -167124.655742 kJ/mol
# GULP energy per Si atom -5570.821858 kJ/mol
# Density = 2.129425 g / cm^3
# Si number density = 21.342831 Si / 1000 Ang^3
#
#
#
# Elastic Constant Matrix: (Units=GPa)
#
#
# Indices 1 2 3 4 5 6 
#
# 1 68.2512 23.3316 18.0185 0.0000 0.0000 0.0000
# 2 23.3316 100.2525 -4.4910 0.0000 0.0000 0.0000
# 3 18.0185 -4.4910 26.6148 0.0000 0.0000 0.0000
# 4 0.0000 0.0000 0.0000 24.4306 0.0000 0.0000
# 5 0.0000 0.0000 0.0000 0.0000 31.6577 0.0000
# 6 0.0000 0.0000 0.0000 0.0000 0.0000 17.8704
#
#
#
# Elastic Compliance Matrix: (Units=1/GPa)
#
#
# Indices 1 2 3 4 5 6 
#
# 1 0.020382 -0.005403 -0.014711 0.000000 0.000000 0.000000
# 2 -0.005403 0.011483 0.005595 0.000000 0.000000 0.000000
# 3 -0.014711 0.005595 0.048476 0.000000 0.000000 0.000000
# 4 0.000000 0.000000 0.000000 0.040932 0.000000 0.000000
# 5 0.000000 0.000000 0.000000 0.000000 0.031588 0.000000
# 6 0.000000 0.000000 0.000000 0.000000 0.000000 0.055959
#
#
# Mechanical properties :
#
#
# Convention : Reuss Voigt Hill
#
# Bulk Modulus (GPa) = 19.49106 29.87074 24.68090
# Shear Modulus (GPa) = 19.61108 25.34237 22.47673
#
# Velocity S-wave (km/s) = 3.03456 3.44960 3.24871
# Velocity P-wave (km/s) = 4.62928 5.46739 5.06570
#
# Compressibility (1/GPa) = 0.05130556
#
# Stress axis : x y z
#
# Youngs Moduli (GPa) = 49.06233 87.08693 20.62858
#
# Poissons Ratio (x) = 0.47049 0.30346
# Poissons Ratio (y) = 0.26506 -0.11542
# Poissons Ratio (z) = 0.72174 -0.48727
#
# Static dielectric constant tensor:
#      x y z
#    x 1.854560 0.000000 0.000000 
#    y 0.000000 1.821690 0.000000 
#    z 0.000000 0.000000 1.871280 
# 
# From -- ./inp_files/13968.got.cif
#   From: 2010.05.17/outbox.cif.g08.bks.cpg/sg43_7_cif.got.tgz:13968.got - 2010.06.03 19:21:55.
