data_PCOD9371916
_publ_section_title
;
Structure prediction by ZEFSAII (Michael W. Deem and Ramdas Pophale) SiO2 
 PCOD9371916
Probable space group: F D D 2
;
_chemical_formula_sum "Si O2"
_cell_formula_units_Z 56
_cell_length_a 10.473943
_cell_length_b 12.298986
_cell_length_c 18.931070
_cell_angle_alpha 90.000000
_cell_angle_beta 90.000000
_cell_angle_gamma 90.000000
_cell_volume 2438.679203
_symmetry_space_group_name_H-M "F D D 2"
_symmetry_group_IT_number 43
_symmetry_cell_setting 'orthorhombic'
loop_
_space_group_symop_operation_xyz
x,y,z
-x,-y,z
1/4-x,1/4+y,1/4+z
1/4+x,1/4-y,1/4+z
x,1/2+y,1/2+z
-x,1/2-y,1/2+z
1/4-x,3/4+y,3/4+z
1/4+x,3/4-y,3/4+z
1/2+x,y,1/2+z
1/2-x,-y,1/2+z
3/4-x,1/4+y,3/4+z
3/4+x,1/4-y,3/4+z
1/2+x,1/2+y,z
1/2-x,1/2-y,z
3/4-x,3/4+y,1/4+z
3/4+x,3/4-y,1/4+z
loop_
_atom_site_type_symbol
_atom_site_label
_atom_site_fract_x
_atom_site_fract_y
_atom_site_fract_z
Si Si1 0.192762 0.134458 0.473990
Si Si2 0.750000 0.750000 0.980683
Si Si3 0.204007 0.599552 0.131972
Si Si4 0.392822 0.708193 0.787646
O O1 0.250000 0.250000 0.451717
O O2 0.158955 0.150806 0.557622
O O3 0.073411 0.101733 0.425484
O O4 0.296699 0.038227 0.477633
O O5 0.661336 0.825892 0.933025
O O6 0.842125 0.831762 0.022248
O O7 0.265359 0.486301 0.103502
O O8 0.250000 0.750000 0.797735
#
# Coordination Sequence:
#
# PCOD9371916 Si02
#       4
#    16   8  16  16
#     4  10  23  44  73 102 147 190 254 303 390 461
#     4  12  26  46  70 112 148 192 266 316 384 480
#     4  10  26  44  74 104 143 201 244 320 397 444
#     4  10  25  46  73 108 147 196 250 315 391 461
#
# _framework density 22.963249000000001
#
# number of rings (size 3 to 8) (size 9 to 14) (size 15 to 20)
#    1.714    0.000    0.000    2.571    8.000    0.000 
#   12.857    0.000    0.000    0.000    0.000    0.000 
#    0.000    0.000    0.000    0.000    0.000    0.000 
#
# Total GULP energy -78059.341211 kJ/mol
# GULP energy per Si atom -5575.667229 kJ/mol
# Density = 2.291098 g / cm^3
# Si number density = 22.963249 Si / 1000 Ang^3
#
#
#
# Elastic Constant Matrix: (Units=GPa)
#
#
# Indices 1 2 3 4 5 6 
#
# 1 71.9340 13.8557 18.3769 0.0000 0.0000 0.0000
# 2 13.8557 102.9275 10.1033 0.0000 0.0000 0.0000
# 3 18.3769 10.1033 85.3932 0.0000 0.0000 0.0000
# 4 0.0000 0.0000 0.0000 26.2833 0.0000 0.0000
# 5 0.0000 0.0000 0.0000 0.0000 38.1885 0.0000
# 6 0.0000 0.0000 0.0000 0.0000 0.0000 41.6153
#
#
#
# Elastic Compliance Matrix: (Units=1/GPa)
#
#
# Indices 1 2 3 4 5 6 
#
# 1 0.015006 -0.001723 -0.003026 0.000000 0.000000 0.000000
# 2 -0.001723 0.010028 -0.000816 0.000000 0.000000 0.000000
# 3 -0.003026 -0.000816 0.012458 0.000000 0.000000 0.000000
# 4 0.000000 0.000000 0.000000 0.038047 0.000000 0.000000
# 5 0.000000 0.000000 0.000000 0.000000 0.026186 0.000000
# 6 0.000000 0.000000 0.000000 0.000000 0.000000 0.024030
#
#
# Mechanical properties :
#
#
# Convention : Reuss Voigt Hill
#
# Bulk Modulus (GPa) = 37.93105 38.32518 38.12811
# Shear Modulus (GPa) = 34.32388 35.74534 35.03461
#
# Velocity S-wave (km/s) = 3.87037 3.94970 3.91023
# Velocity P-wave (km/s) = 6.04376 6.12586 6.08495
#
# Compressibility (1/GPa) = 0.02636363
#
# Stress axis : x y z
#
# Youngs Moduli (GPa) = 66.63790 99.72482 80.26873
#
# Poissons Ratio (x) = 0.17184 0.24286
# Poissons Ratio (y) = 0.11483 0.06547
# Poissons Ratio (z) = 0.20162 0.08133
#
# Static dielectric constant tensor:
#      x y z
#    x 1.783610 0.000000 0.000000 
#    y 0.000000 1.908210 0.000000 
#    z 0.000000 0.000000 1.875720 
# 
# From -- ./inp_files/9330.got.cif
#   From: 2010.05.17/outbox.cif.g08.bks.cpg/sg43_5_cif.got.tgz:9330.got - 2010.06.03 19:21:55.
