data_PCOD9371625
_publ_section_title
;
Structure prediction by ZEFSAII (Michael W. Deem and Ramdas Pophale) SiO2 
 PCOD9371625
Probable space group: F D D 2
;
_chemical_formula_sum "Si O2"
_cell_formula_units_Z 120
_cell_length_a 26.678188
_cell_length_b 17.232272
_cell_length_c 11.220503
_cell_angle_alpha 90.000000
_cell_angle_beta 90.000000
_cell_angle_gamma 90.000000
_cell_volume 5158.354629
_symmetry_space_group_name_H-M "F D D 2"
_symmetry_group_IT_number 43
_symmetry_cell_setting 'orthorhombic'
loop_
_space_group_symop_operation_xyz
x,y,z
-x,-y,z
1/4-x,1/4+y,1/4+z
1/4+x,1/4-y,1/4+z
x,1/2+y,1/2+z
-x,1/2-y,1/2+z
1/4-x,3/4+y,3/4+z
1/4+x,3/4-y,3/4+z
1/2+x,y,1/2+z
1/2-x,-y,1/2+z
3/4-x,1/4+y,3/4+z
3/4+x,1/4-y,3/4+z
1/2+x,1/2+y,z
1/2-x,1/2-y,z
3/4-x,3/4+y,1/4+z
3/4+x,3/4-y,1/4+z
loop_
_atom_site_type_symbol
_atom_site_label
_atom_site_fract_x
_atom_site_fract_y
_atom_site_fract_z
Si Si1 0.628659 0.352297 0.701920
Si Si2 0.750000 0.750000 0.497969
Si Si3 0.005320 0.395348 0.967187
Si Si4 0.827471 0.300849 0.807521
Si Si5 0.891636 0.549172 0.993170
Si Si6 0.654958 0.928473 0.739172
Si Si7 0.958915 0.670434 0.376285
Si Si8 0.188535 0.489433 0.157458
O O1 0.650518 0.268759 0.729185
O O2 0.625162 0.372385 0.562799
O O3 0.574952 0.356084 0.765681
O O4 0.663486 0.424988 0.744417
O O5 0.754999 0.675512 0.583136
O O6 0.796856 0.760742 0.412745
O O7 0.951463 0.376860 0.021836
O O8 0.048525 0.454473 0.011863
O O9 0.035367 0.314022 0.962445
O O10 0.870829 0.348211 0.877273
O O11 0.792752 0.354201 0.726403
O O12 0.877476 0.553174 0.855830
O O13 0.855607 0.489707 0.063997
O O14 0.680611 0.006616 0.686867
O O15 0.015035 0.695104 0.343920
#
# Coordination Sequence:
#
# PCOD9371625 Si02
#       8
#    16   8  16  16  16  16  16  16
#     4   9  23  39  66  98 134 179 227 279 345 412
#     4  12  26  42  68 104 134 182 238 284 358 412
#     4  11  25  44  66 100 138 184 232 285 349 421
#     4  11  23  42  68 102 140 175 232 296 339 414
#     4  10  23  42  67  97 135 178 236 275 345 413
#     4  10  24  43  68  99 137 187 230 287 350 416
#     4  10  22  43  67 102 135 183 228 288 354 407
#     4   9  23  43  65  96 133 184 226 284 346 408
#
# _framework density 23.263231999999999
#
# number of rings (size 3 to 8) (size 9 to 14) (size 15 to 20)
#    0.800    1.067    1.333    0.800    9.333    1.067 
#    0.000    0.000    0.000    0.000    0.000    0.000 
#    0.000    0.000    0.000    0.000    0.000    0.000 
#
# Total GULP energy -167430.283633 kJ/mol
# GULP energy per Si atom -5581.009454 kJ/mol
# Density = 2.321028 g / cm^3
# Si number density = 23.263232 Si / 1000 Ang^3
#
#
#
# Elastic Constant Matrix: (Units=GPa)
#
#
# Indices 1 2 3 4 5 6 
#
# 1 124.4087 15.8810 9.8350 0.0000 0.0000 0.0000
# 2 15.8810 68.8912 2.9018 0.0000 0.0000 0.0000
# 3 9.8350 2.9018 57.6820 0.0000 0.0000 0.0000
# 4 0.0000 0.0000 0.0000 30.8884 0.0000 0.0000
# 5 0.0000 0.0000 0.0000 0.0000 40.9754 0.0000
# 6 0.0000 0.0000 0.0000 0.0000 0.0000 28.7746
#
#
#
# Elastic Compliance Matrix: (Units=1/GPa)
#
#
# Indices 1 2 3 4 5 6 
#
# 1 0.008383 -0.001876 -0.001335 0.000000 0.000000 0.000000
# 2 -0.001876 0.014966 -0.000433 0.000000 0.000000 0.000000
# 3 -0.001335 -0.000433 0.017586 0.000000 0.000000 0.000000
# 4 0.000000 0.000000 0.000000 0.032375 0.000000 0.000000
# 5 0.000000 0.000000 0.000000 0.000000 0.024405 0.000000
# 6 0.000000 0.000000 0.000000 0.000000 0.000000 0.034753
#
#
# Mechanical properties :
#
#
# Convention : Reuss Voigt Hill
#
# Bulk Modulus (GPa) = 29.72047 34.24641 31.98344
# Shear Modulus (GPa) = 33.11879 34.95196 34.03537
#
# Velocity S-wave (km/s) = 3.77723 3.88036 3.82914
# Velocity P-wave (km/s) = 5.64152 5.90165 5.77305
#
# Compressibility (1/GPa) = 0.03364685
#
# Stress axis : x y z
#
# Youngs Moduli (GPa) = 119.28813 66.81633 56.86399
#
# Poissons Ratio (x) = 0.12536 0.07591
# Poissons Ratio (y) = 0.22382 0.02462
# Poissons Ratio (z) = 0.15924 0.02893
#
# Static dielectric constant tensor:
#      x y z
#    x 1.932890 0.000000 0.000000 
#    y 0.000000 1.945790 0.000000 
#    z 0.000000 0.000000 1.828280 
# 
# From -- ./inp_files/8038.got.cif
#   From: 2010.05.17/outbox.cif.g08.bks.cpg/sg43_5_cif.got.tgz:8038.got - 2010.06.03 19:21:55.
