data_PCOD9371272
_publ_section_title
;
Structure prediction by ZEFSAII (Michael W. Deem and Ramdas Pophale) SiO2 
 PCOD9371272
Probable space group: F D D 2
;
_chemical_formula_sum "Si O2"
_cell_formula_units_Z 112
_cell_length_a 27.818343
_cell_length_b 13.719717
_cell_length_c 13.333933
_cell_angle_alpha 90.000000
_cell_angle_beta 90.000000
_cell_angle_gamma 90.000000
_cell_volume 5089.026114
_symmetry_space_group_name_H-M "F D D 2"
_symmetry_group_IT_number 43
_symmetry_cell_setting 'orthorhombic'
loop_
_space_group_symop_operation_xyz
x,y,z
-x,-y,z
1/4-x,1/4+y,1/4+z
1/4+x,1/4-y,1/4+z
x,1/2+y,1/2+z
-x,1/2-y,1/2+z
1/4-x,3/4+y,3/4+z
1/4+x,3/4-y,3/4+z
1/2+x,y,1/2+z
1/2-x,-y,1/2+z
3/4-x,1/4+y,3/4+z
3/4+x,1/4-y,3/4+z
1/2+x,1/2+y,z
1/2-x,1/2-y,z
3/4-x,3/4+y,1/4+z
3/4+x,3/4-y,1/4+z
loop_
_atom_site_type_symbol
_atom_site_label
_atom_site_fract_x
_atom_site_fract_y
_atom_site_fract_z
Si Si1 0.982737 0.295010 0.094750
Si Si2 0.250000 0.250000 0.666208
Si Si3 0.816641 0.581137 0.632065
Si Si4 0.409997 0.611963 0.443948
Si Si5 0.156862 0.572821 0.966832
Si Si6 0.353741 0.303380 0.016840
Si Si7 0.665613 0.004482 0.422648
Si Si8 0.500000 0.000000 0.205458
O O1 0.953782 0.216749 0.161978
O O2 0.037902 0.262229 0.102046
O O3 0.981060 0.404077 0.144337
O O4 0.957234 0.294400 0.985859
O O5 0.214188 0.321492 0.608605
O O6 0.287329 0.320791 0.724902
O O7 0.872070 0.606288 0.654158
O O8 0.815047 0.516973 0.533674
O O9 0.415296 0.629478 0.324639
O O10 0.375447 0.524305 0.475250
O O11 0.383646 0.709476 0.480380
O O12 0.359877 0.391192 0.938825
O O13 0.296924 0.282482 0.017419
O O14 0.377733 0.320840 0.125476
#
# Coordination Sequence:
#
# PCOD9371272 Si02
#       8
#    16   8  16  16  16  16  16   8
#     4  11  22  42  67 102 134 185 233 301 351 427
#     4  10  23  38  68  99 134 176 235 314 362 421
#     4  11  23  42  65 102 140 182 244 296 368 433
#     4  11  21  39  66 103 137 180 242 304 363 423
#     4  11  21  37  68  98 134 180 232 302 358 420
#     4  11  23  44  66 101 143 187 238 294 362 438
#     4  11  27  42  68  99 146 195 236 289 369 445
#     4  10  21  42  72 103 134 172 241 294 368 423
#
# _framework density 22.008140000000001
#
# number of rings (size 3 to 8) (size 9 to 14) (size 15 to 20)
#    0.000    1.143    2.857    3.000    2.000    4.571 
#    2.571    0.000    0.000    0.000    0.000    0.000 
#    0.000    0.000    0.000    0.000    0.000    0.000 
#
# Total GULP energy -156286.544160 kJ/mol
# GULP energy per Si atom -5581.662291 kJ/mol
# Density = 2.195805 g / cm^3
# Si number density = 22.008140 Si / 1000 Ang^3
#
#
#
# Elastic Constant Matrix: (Units=GPa)
#
#
# Indices 1 2 3 4 5 6 
#
# 1 136.1527 33.0969 53.7116 0.0000 0.0000 0.0000
# 2 33.0969 55.5733 35.3630 0.0000 0.0000 0.0000
# 3 53.7116 35.3630 99.3881 0.0000 0.0000 0.0000
# 4 0.0000 0.0000 0.0000 34.1849 0.0000 0.0000
# 5 0.0000 0.0000 0.0000 0.0000 33.9311 0.0000
# 6 0.0000 0.0000 0.0000 0.0000 0.0000 37.9737
#
#
#
# Elastic Compliance Matrix: (Units=1/GPa)
#
#
# Indices 1 2 3 4 5 6 
#
# 1 0.009749 -0.003172 -0.004140 0.000000 0.000000 0.000000
# 2 -0.003172 0.024293 -0.006929 0.000000 0.000000 0.000000
# 3 -0.004140 -0.006929 0.014765 0.000000 0.000000 0.000000
# 4 0.000000 0.000000 0.000000 0.029253 0.000000 0.000000
# 5 0.000000 0.000000 0.000000 0.000000 0.029472 0.000000
# 6 0.000000 0.000000 0.000000 0.000000 0.000000 0.026334
#
#
# Mechanical properties :
#
#
# Convention : Reuss Voigt Hill
#
# Bulk Modulus (GPa) = 49.20350 59.49522 54.34936
# Shear Modulus (GPa) = 29.56465 32.48077 31.02271
#
# Velocity S-wave (km/s) = 3.66915 3.84585 3.75854
# Velocity P-wave (km/s) = 6.35261 6.84198 6.60183
#
# Compressibility (1/GPa) = 0.02032376
#
# Stress axis : x y z
#
# Youngs Moduli (GPa) = 102.57573 41.16492 67.72997
#
# Poissons Ratio (x) = 0.13056 0.28041
# Poissons Ratio (y) = 0.32532 0.46933
# Poissons Ratio (z) = 0.42467 0.28525
#
# Static dielectric constant tensor:
#      x y z
#    x 1.827070 0.000000 0.000000 
#    y 0.000000 1.831280 0.000000 
#    z 0.000000 0.000000 1.882080 
# 
# From -- ./inp_files/11535.got.cif
#   From: 2010.05.17/outbox.cif.g08.bks.cpg/sg43_6_cif.got.tgz:11535.got - 2010.06.03 19:21:55.
