data_PCOD9371805
_publ_section_title
;
Structure prediction by ZEFSAII (Michael W. Deem and Ramdas Pophale) SiO2 
 PCOD9371805
Probable space group: F D D 2
;
_chemical_formula_sum "Si O2"
_cell_formula_units_Z 56
_cell_length_a 18.207428
_cell_length_b 5.978663
_cell_length_c 22.199452
_cell_angle_alpha 90.000000
_cell_angle_beta 90.000000
_cell_angle_gamma 90.000000
_cell_volume 2416.545236
_symmetry_space_group_name_H-M "F D D 2"
_symmetry_group_IT_number 43
_symmetry_cell_setting 'orthorhombic'
loop_
_space_group_symop_operation_xyz
x,y,z
-x,-y,z
1/4-x,1/4+y,1/4+z
1/4+x,1/4-y,1/4+z
x,1/2+y,1/2+z
-x,1/2-y,1/2+z
1/4-x,3/4+y,3/4+z
1/4+x,3/4-y,3/4+z
1/2+x,y,1/2+z
1/2-x,-y,1/2+z
3/4-x,1/4+y,3/4+z
3/4+x,1/4-y,3/4+z
1/2+x,1/2+y,z
1/2-x,1/2-y,z
3/4-x,3/4+y,1/4+z
3/4+x,3/4-y,1/4+z
loop_
_atom_site_type_symbol
_atom_site_label
_atom_site_fract_x
_atom_site_fract_y
_atom_site_fract_z
Si Si1 0.674820 0.622761 0.092120
Si Si2 0.250000 0.250000 0.664177
Si Si3 0.301581 0.067885 0.256690
Si Si4 0.973269 0.747180 0.141067
O O1 0.750000 0.750000 0.081369
O O2 0.698589 0.394750 0.121940
O O3 0.615664 0.743580 0.136044
O O4 0.629057 0.597283 0.030747
O O5 0.305141 0.370499 0.710114
O O6 0.250000 0.250000 0.225882
O O7 0.258061 0.004436 0.318753
O O8 0.000000 0.500000 0.163512
O O9 0.000000 0.000000 0.163334
#
# Coordination Sequence:
#
# PCOD9371805 Si02
#       4
#    16   8  16  16
#     4  10  23  37  70 104 133 187 246 307 366 431
#     4  12  22  38  72 104 140 188 260 286 378 456
#     4   9  20  41  65  92 142 192 227 301 367 431
#     4   9  19  39  69  93 135 199 224 287 383 417
#
# _framework density 23.173577999999999
#
# number of rings (size 3 to 8) (size 9 to 14) (size 15 to 20)
#    1.714    0.571    1.429    0.857    4.000    2.286 
#    0.000    0.000   25.143    0.000    0.000    0.000 
#    0.000    0.000    0.000    0.000    0.000    0.000 
#
# Total GULP energy -77935.521451 kJ/mol
# GULP energy per Si atom -5566.822961 kJ/mol
# Density = 2.312083 g / cm^3
# Si number density = 23.173578 Si / 1000 Ang^3
#
#
#
# Elastic Constant Matrix: (Units=GPa)
#
#
# Indices 1 2 3 4 5 6 
#
# 1 171.4722 68.2641 37.8273 -0.0008 0.0000 0.0000
# 2 68.2641 142.2124 43.7972 0.0009 -0.0001 0.0007
# 3 37.8273 43.7972 79.0937 0.0002 0.0000 0.0001
# 4 -0.0008 0.0009 0.0002 -362.6001 0.0000 0.0006
# 5 0.0000 -0.0001 0.0000 0.0000 29.9716 0.0000
# 6 0.0000 0.0007 0.0001 0.0006 0.0000 46.5169
#
#
#
# Elastic Compliance Matrix: (Units=1/GPa)
#
#
# Indices 1 2 3 4 5 6 
#
# 1 0.007440 -0.002985 -0.001906 0.000000 0.000000 0.000000
# 2 -0.002985 0.009675 -0.003930 0.000000 0.000000 0.000000
# 3 -0.001906 -0.003930 0.015731 0.000000 0.000000 0.000000
# 4 0.000000 0.000000 0.000000 -0.002758 0.000000 0.000000
# 5 0.000000 0.000000 0.000000 0.000000 0.033365 0.000000
# 6 0.000000 0.000000 0.000000 0.000000 0.000000 0.021498
#
#
# Mechanical properties :
#
#
# Convention : Reuss Voigt Hill
#
# Bulk Modulus (GPa) = 65.76567 76.95059 71.35813
# Shear Modulus (GPa) = 46.44278 -41.02966 2.70656
#
# Velocity S-wave (km/s) = 4.48160 -4.21234 1.08189
# Velocity P-wave (km/s) = 7.43108 3.10159 5.69389
#
# Compressibility (1/GPa) = 0.01520550
#
# Stress axis : x y z
#
# Youngs Moduli (GPa) = 134.40036 103.36283 63.56968
#
# Poissons Ratio (x) = 0.30850 0.12115
# Poissons Ratio (y) = 0.40113 0.24982
# Poissons Ratio (z) = 0.25614 0.40620
#
# Static dielectric constant tensor:
#      x y z
#    x 1.856190 0.000000 0.000000 
#    y 0.000000 2.037610 0.000000 
#    z 0.000000 0.000000 1.895400 
# 
# From -- ./inp_files/23313.got.cif
#   From: 2010.05.17/outbox.cif.g08.bks.cpg/sg43_12_cif.got.tgz:23313.got - 2010.06.03 19:21:55.
