data_PCOD9371568
_publ_section_title
;
Structure prediction by ZEFSAII (Michael W. Deem and Ramdas Pophale) SiO2 
 PCOD9371568
Probable space group: F D D 2
;
_chemical_formula_sum "Si O2"
_cell_formula_units_Z 120
_cell_length_a 28.732836
_cell_length_b 21.901255
_cell_length_c 9.605392
_cell_angle_alpha 90.000000
_cell_angle_beta 90.000000
_cell_angle_gamma 90.000000
_cell_volume 6044.530719
_symmetry_space_group_name_H-M "F D D 2"
_symmetry_group_IT_number 43
_symmetry_cell_setting 'orthorhombic'
loop_
_space_group_symop_operation_xyz
x,y,z
-x,-y,z
1/4-x,1/4+y,1/4+z
1/4+x,1/4-y,1/4+z
x,1/2+y,1/2+z
-x,1/2-y,1/2+z
1/4-x,3/4+y,3/4+z
1/4+x,3/4-y,3/4+z
1/2+x,y,1/2+z
1/2-x,-y,1/2+z
3/4-x,1/4+y,3/4+z
3/4+x,1/4-y,3/4+z
1/2+x,1/2+y,z
1/2-x,1/2-y,z
3/4-x,3/4+y,1/4+z
3/4+x,3/4-y,1/4+z
loop_
_atom_site_type_symbol
_atom_site_label
_atom_site_fract_x
_atom_site_fract_y
_atom_site_fract_z
Si Si1 0.576934 0.635614 0.953750
Si Si2 0.303136 0.479331 0.661153
Si Si3 0.750000 0.750000 0.362539
Si Si4 0.914621 0.198907 0.120712
Si Si5 0.802783 0.528397 0.646767
Si Si6 0.469483 0.103273 0.429924
Si Si7 0.817145 0.655937 0.512963
Si Si8 0.830352 0.424756 0.443605
O O1 0.580072 0.707124 0.925633
O O2 0.524934 0.614150 0.914546
O O3 0.619080 0.596857 0.892636
O O4 0.582630 0.625282 0.118714
O O5 0.325223 0.444027 0.532611
O O6 0.249806 0.494190 0.625363
O O7 0.302592 0.443853 0.806487
O O8 0.783672 0.787932 0.257594
O O9 0.777874 0.703159 0.461414
O O10 0.861279 0.187957 0.082223
O O11 0.930437 0.263082 0.052338
O O12 0.947078 0.150321 0.040427
O O13 0.802688 0.599229 0.608825
O O14 0.832644 0.484751 0.543531
O O15 0.443545 0.121281 0.286677
#
# Coordination Sequence:
#
# PCOD9371568 Si02
#       8
#    16  16   8  16  16  16  16  16
#     4  11  21  38  66  98 132 172 220 281 342 399
#     4  12  23  42  66  98 135 173 229 286 340 410
#     4  10  24  40  68 104 138 178 232 294 352 424
#     4  11  24  40  68 100 131 178 233 283 340 415
#     4  11  22  43  71  94 127 176 233 280 331 414
#     4  10  22  42  67  97 130 177 229 279 339 413
#     4  11  23  42  70  95 134 182 229 286 342 417
#     4  11  23  40  68 100 132 172 227 279 342 411
#
# _framework density 19.852657000000001
#
# number of rings (size 3 to 8) (size 9 to 14) (size 15 to 20)
#    0.000    1.067    6.667    2.400    1.867    3.200 
#    2.400    0.000    0.000    0.800    0.000    0.000 
#    0.000    0.000    0.000    0.000    0.000    0.000 
#
# Total GULP energy -167407.313473 kJ/mol
# GULP energy per Si atom -5580.243782 kJ/mol
# Density = 1.980747 g / cm^3
# Si number density = 19.852657 Si / 1000 Ang^3
#
#
#
# Elastic Constant Matrix: (Units=GPa)
#
#
# Indices 1 2 3 4 5 6 
#
# 1 80.7570 28.7781 10.5508 0.0000 0.0000 0.0000
# 2 28.7781 100.8983 23.4898 0.0001 0.0000 0.0000
# 3 10.5508 23.4898 72.9708 0.0001 0.0000 0.0000
# 4 0.0000 0.0001 0.0001 24.5083 0.0000 0.0000
# 5 0.0000 0.0000 0.0000 0.0000 17.7350 0.0000
# 6 0.0000 0.0000 0.0000 0.0000 0.0000 24.5504
#
#
#
# Elastic Compliance Matrix: (Units=1/GPa)
#
#
# Indices 1 2 3 4 5 6 
#
# 1 0.013826 -0.003760 -0.000789 0.000000 0.000000 0.000000
# 2 -0.003760 0.011736 -0.003234 0.000000 0.000000 0.000000
# 3 -0.000789 -0.003234 0.014859 0.000000 0.000000 0.000000
# 4 0.000000 0.000000 0.000000 0.040803 0.000000 0.000000
# 5 0.000000 0.000000 0.000000 0.000000 0.056386 0.000000
# 6 0.000000 0.000000 0.000000 0.000000 0.000000 0.040733
#
#
# Mechanical properties :
#
#
# Convention : Reuss Voigt Hill
#
# Bulk Modulus (GPa) = 40.23243 42.25151 41.24197
# Shear Modulus (GPa) = 24.72884 26.14589 25.43736
#
# Velocity S-wave (km/s) = 3.53316 3.63298 3.58342
# Velocity P-wave (km/s) = 6.07896 6.23914 6.15957
#
# Compressibility (1/GPa) = 0.02485557
#
# Stress axis : x y z
#
# Youngs Moduli (GPa) = 72.32923 85.20580 67.29781
#
# Poissons Ratio (x) = 0.32035 0.05308
# Poissons Ratio (y) = 0.27194 0.21767
# Poissons Ratio (z) = 0.05705 0.27559
#
# Static dielectric constant tensor:
#      x y z
#    x 1.737950 0.000000 0.000000 
#    y 0.000000 1.788740 0.000000 
#    z 0.000000 0.000000 1.690510 
# 
# From -- ./inp_files/4350.got.cif
#   From: 2010.05.17/outbox.cif.g08.bks.cpg/sg43_3_cif.got.tgz:4350.got - 2010.06.03 19:21:55.
