data_PCOD9371408
_publ_section_title
;
Structure prediction by ZEFSAII (Michael W. Deem and Ramdas Pophale) SiO2 
 PCOD9371408
Probable space group: F D D 2
;
_chemical_formula_sum "Si O2"
_cell_formula_units_Z 72
_cell_length_a 21.116183
_cell_length_b 18.055756
_cell_length_c 7.387913
_cell_angle_alpha 90.000000
_cell_angle_beta 90.000000
_cell_angle_gamma 90.000000
_cell_volume 2816.779600
_symmetry_space_group_name_H-M "F D D 2"
_symmetry_group_IT_number 43
_symmetry_cell_setting 'orthorhombic'
loop_
_space_group_symop_operation_xyz
x,y,z
-x,-y,z
1/4-x,1/4+y,1/4+z
1/4+x,1/4-y,1/4+z
x,1/2+y,1/2+z
-x,1/2-y,1/2+z
1/4-x,3/4+y,3/4+z
1/4+x,3/4-y,3/4+z
1/2+x,y,1/2+z
1/2-x,-y,1/2+z
3/4-x,1/4+y,3/4+z
3/4+x,1/4-y,3/4+z
1/2+x,1/2+y,z
1/2-x,1/2-y,z
3/4-x,3/4+y,1/4+z
3/4+x,3/4-y,1/4+z
loop_
_atom_site_type_symbol
_atom_site_label
_atom_site_fract_x
_atom_site_fract_y
_atom_site_fract_z
Si Si1 0.385183 0.792668 0.955710
Si Si2 0.701655 0.844620 0.074312
Si Si3 0.568612 0.321275 0.655828
Si Si4 0.750000 0.250000 0.894497
Si Si5 0.885503 0.708619 0.794180
O O1 0.409631 0.747644 0.782347
O O2 0.311868 0.772488 0.998707
O O3 0.384568 0.880902 0.947381
O O4 0.413812 0.759819 0.138767
O O5 0.631892 0.873883 0.138232
O O6 0.731063 0.814885 0.258448
O O7 0.758304 0.888927 0.985204
O O8 0.675450 0.782785 0.929984
O O9 0.559648 0.299975 0.446025
#
# Coordination Sequence:
#
# PCOD9371408 Si02
#       5
#    16  16  16   8  16
#     4  11  23  43  64  99 131 175 228 278 352 413
#     4   9  21  41  63  95 130 178 220 283 343 404
#     4   9  22  43  61  97 134 173 224 286 336 423
#     4  10  22  38  72  92 132 186 232 278 338 438
#     4  10  25  39  68  97 130 177 225 286 344 421
#
# _framework density 25.561105000000001
#
# number of rings (size 3 to 8) (size 9 to 14) (size 15 to 20)
#    1.333    0.889    0.000    1.333    6.222    1.778 
#    4.000    0.000    0.000    0.000    0.000    0.000 
#    0.000    0.000    0.000    0.000    0.000    0.000 
#
# Total GULP energy -100372.043476 kJ/mol
# GULP energy per Si atom -5576.224638 kJ/mol
# Density = 2.550293 g / cm^3
# Si number density = 25.561105 Si / 1000 Ang^3
#
#
#
# Elastic Constant Matrix: (Units=GPa)
#
#
# Indices 1 2 3 4 5 6 
#
# 1 109.5782 30.8470 14.5116 0.0000 -0.0022 0.0000
# 2 30.8470 65.4822 18.0395 0.0002 -0.0025 0.0000
# 3 14.5116 18.0395 71.6029 -0.0005 -0.0156 -0.0003
# 4 0.0000 0.0002 -0.0005 -32.8867 0.0041 -0.0001
# 5 -0.0022 -0.0025 -0.0156 0.0041-1280.9383 0.0028
# 6 0.0000 0.0000 -0.0003 -0.0001 0.0028 29.7436
#
#
#
# Elastic Compliance Matrix: (Units=1/GPa)
#
#
# Indices 1 2 3 4 5 6 
#
# 1 0.010582 -0.004722 -0.000955 0.000000 0.000000 0.000000
# 2 -0.004722 0.018517 -0.003708 0.000000 0.000000 0.000000
# 3 -0.000955 -0.003708 0.015094 0.000000 0.000000 0.000000
# 4 0.000000 0.000000 0.000000 -0.030407 0.000000 0.000000
# 5 0.000000 0.000000 0.000000 0.000000 -0.000781 0.000000
# 6 0.000000 0.000000 0.000000 0.000000 0.000000 0.033621
#
#
# Mechanical properties :
#
#
# Convention : Reuss Voigt Hill
#
# Bulk Modulus (GPa) = 39.33496 41.49551 40.41524
# Shear Modulus (GPa) = 67.68751 -244.59860 -88.45554
#
# Velocity S-wave (km/s) = 5.15152 -9.79283 -5.88903
# Velocity P-wave (km/s) = 7.12785 10.56394 5.51319
#
# Compressibility (1/GPa) = 0.02542268
#
# Stress axis : x y z
#
# Youngs Moduli (GPa) = 94.50420 54.00405 66.25274
#
# Poissons Ratio (x) = 0.25499 0.06327
# Poissons Ratio (y) = 0.44621 0.24568
# Poissons Ratio (z) = 0.09025 0.20026
#
# Static dielectric constant tensor:
#      x y z
#    x 3.332800 0.000000 -0.000010 
#    y 0.000000 2.244890 0.000000 
#    z -0.000010 0.000000 2.000810 
# 
# From -- ./inp_files/3169.got.cif
#   From: 2010.05.17/outbox.cif.g08.bks.cpg/sg43_2_cif.got.tgz:3169.got - 2010.06.03 19:21:55.
