data_PCOD9371037
_publ_section_title
;
Structure prediction by ZEFSAII (Michael W. Deem and Ramdas Pophale) SiO2 
 PCOD9371037
Probable space group: F D D 2
;
_chemical_formula_sum "Si O2"
_cell_formula_units_Z 88
_cell_length_a 27.431793
_cell_length_b 11.574865
_cell_length_c 12.657722
_cell_angle_alpha 90.000000
_cell_angle_beta 90.000000
_cell_angle_gamma 90.000000
_cell_volume 4019.071038
_symmetry_space_group_name_H-M "F D D 2"
_symmetry_group_IT_number 43
_symmetry_cell_setting 'orthorhombic'
loop_
_space_group_symop_operation_xyz
x,y,z
-x,-y,z
1/4-x,1/4+y,1/4+z
1/4+x,1/4-y,1/4+z
x,1/2+y,1/2+z
-x,1/2-y,1/2+z
1/4-x,3/4+y,3/4+z
1/4+x,3/4-y,3/4+z
1/2+x,y,1/2+z
1/2-x,-y,1/2+z
3/4-x,1/4+y,3/4+z
3/4+x,1/4-y,3/4+z
1/2+x,1/2+y,z
1/2-x,1/2-y,z
3/4-x,3/4+y,1/4+z
3/4+x,3/4-y,1/4+z
loop_
_atom_site_type_symbol
_atom_site_label
_atom_site_fract_x
_atom_site_fract_y
_atom_site_fract_z
Si Si1 0.342357 0.875244 0.025700
Si Si2 0.190001 0.974833 0.327825
Si Si3 0.524392 0.118865 0.555099
Si Si4 0.887849 0.856237 0.906646
Si Si5 0.000000 0.500000 0.761198
Si Si6 0.804170 0.740314 0.981632
O O1 0.391623 0.802472 0.011633
O O2 0.296364 0.803027 0.069240
O O3 0.352856 0.980366 0.104615
O O4 0.326321 0.929941 0.914613
O O5 0.201365 0.857746 0.391519
O O6 0.238101 0.026995 0.275089
O O7 0.577466 0.130301 0.507269
O O8 0.500000 0.000000 0.514904
O O9 0.522829 0.096585 0.681467
O O10 0.908182 0.944070 0.819526
O O11 0.830620 0.853549 0.934314
O O12 0.750000 0.750000 0.025599
#
# Coordination Sequence:
#
# PCOD9371037 Si02
#       6
#    16  16  16  16   8  16
#     4   9  18  36  54  80 107 151 187 238 278 346
#     4   9  19  36  58  79 116 146 190 241 286 339
#     4   9  19  37  54  80 115 151 184 239 292 336
#     4  10  21  38  58  82 118 150 192 236 289 346
#     4   8  18  36  54  78 114 144 188 234 288 336
#     4  10  22  39  61  87 118 153 198 241 293 348
#
# _framework density 21.895606999999998
#
# number of rings (size 3 to 8) (size 9 to 14) (size 15 to 20)
#    0.545    2.182    0.000    0.545    2.545    1.455 
#    6.545    0.000    0.000    0.000    0.000    0.000 
#    0.000    0.000    0.000    0.000    0.000    0.000 
#
# Total GULP energy -122634.602452 kJ/mol
# GULP energy per Si atom -5574.300111 kJ/mol
# Density = 2.184577 g / cm^3
# Si number density = 21.895607 Si / 1000 Ang^3
#
#
#
# Elastic Constant Matrix: (Units=GPa)
#
#
# Indices 1 2 3 4 5 6 
#
# 1 93.2837 19.8786 12.3446 0.0000 0.0000 0.0000
# 2 19.8786 35.7217 -5.2917 0.0000 0.0000 0.0000
# 3 12.3446 -5.2917 20.1892 0.0000 0.0000 0.0000
# 4 0.0000 0.0000 0.0000 -1.5202 0.0000 0.0000
# 5 0.0000 0.0000 0.0000 0.0000 29.9565 0.0000
# 6 0.0000 0.0000 0.0000 0.0000 0.0000 38.9495
#
#
#
# Elastic Compliance Matrix: (Units=1/GPa)
#
#
# Indices 1 2 3 4 5 6 
#
# 1 0.014250 -0.009593 -0.011228 0.000000 0.000000 0.000000
# 2 -0.009593 0.035583 0.015192 0.000000 0.000000 0.000000
# 3 -0.011228 0.015192 0.060378 0.000000 0.000000 0.000000
# 4 0.000000 0.000000 0.000000 -0.657811 0.000000 0.000000
# 5 0.000000 0.000000 0.000000 0.000000 0.033382 0.000000
# 6 0.000000 0.000000 0.000000 0.000000 0.000000 0.025674
#
#
# Mechanical properties :
#
#
# Convention : Reuss Voigt Hill
#
# Bulk Modulus (GPa) = 10.10565 22.56194 16.33380
# Shear Modulus (GPa) = -11.25362 21.62805 5.18722
#
# Velocity S-wave (km/s) = -2.26954 3.14631 1.54085
# Velocity P-wave (km/s) = 1.49746 4.85033 3.26216
#
# Compressibility (1/GPa) = 0.09895456
#
# Stress axis : x y z
#
# Youngs Moduli (GPa) = 70.17524 28.10325 16.56222
#
# Poissons Ratio (x) = 0.26960 0.18595
# Poissons Ratio (y) = 0.67320 -0.25162
# Poissons Ratio (z) = 0.78789 -0.42695
#
# Static dielectric constant tensor:
#      x y z
#    x 1.861090 0.000000 0.000000 
#    y 0.000000 1.835790 0.000000 
#    z 0.000000 0.000000 1.833030 
# 
# From -- ./inp_files/10133.got.cif
#   From: 2010.05.17/outbox.cif.g08.bks.cpg/sg43_6_cif.got.tgz:10133.got - 2010.06.03 19:21:55.
