data_PCOD9371147
_publ_section_title
;
Structure prediction by ZEFSAII (Michael W. Deem and Ramdas Pophale) SiO2 
 PCOD9371147
Probable space group: F D D 2
;
_chemical_formula_sum "Si O2"
_cell_formula_units_Z 120
_cell_length_a 31.005595
_cell_length_b 9.166466
_cell_length_c 19.372800
_cell_angle_alpha 90.000000
_cell_angle_beta 90.000000
_cell_angle_gamma 90.000000
_cell_volume 5505.977049
_symmetry_space_group_name_H-M "F D D 2"
_symmetry_group_IT_number 43
_symmetry_cell_setting 'orthorhombic'
loop_
_space_group_symop_operation_xyz
x,y,z
-x,-y,z
1/4-x,1/4+y,1/4+z
1/4+x,1/4-y,1/4+z
x,1/2+y,1/2+z
-x,1/2-y,1/2+z
1/4-x,3/4+y,3/4+z
1/4+x,3/4-y,3/4+z
1/2+x,y,1/2+z
1/2-x,-y,1/2+z
3/4-x,1/4+y,3/4+z
3/4+x,1/4-y,3/4+z
1/2+x,1/2+y,z
1/2-x,1/2-y,z
3/4-x,3/4+y,1/4+z
3/4+x,3/4-y,1/4+z
loop_
_atom_site_type_symbol
_atom_site_label
_atom_site_fract_x
_atom_site_fract_y
_atom_site_fract_z
Si Si1 0.915059 0.410799 0.890150
Si Si2 0.393179 0.242464 0.885231
Si Si3 0.565855 0.317309 0.238040
Si Si4 0.950673 0.970881 0.651733
Si Si5 0.668318 0.214627 0.849539
Si Si6 0.214278 0.880116 0.733259
Si Si7 0.250000 0.250000 0.561348
Si Si8 0.291526 0.554445 0.269630
O O1 0.897171 0.571931 0.908983
O O2 0.881875 0.326201 0.840641
O O3 0.960606 0.439633 0.855161
O O4 0.925208 0.318962 0.957823
O O5 0.403500 0.218753 0.803522
O O6 0.345619 0.304354 0.903947
O O7 0.429964 0.338686 0.922681
O O8 0.559789 0.172312 0.195358
O O9 0.577470 0.445692 0.182630
O O10 0.520343 0.370065 0.267816
O O11 0.954583 0.938630 0.570432
O O12 0.000000 0.000000 0.673905
O O13 0.687878 0.346431 0.804507
O O14 0.695598 0.082624 0.816696
O O15 0.250000 0.750000 0.719598
O O16 0.243904 0.022408 0.742227
#
# Coordination Sequence:
#
# PCOD9371147 Si02
#       8
#    16  16  16  16  16  16   8  16
#     4  11  21  40  66  97 126 174 226 272 324 410
#     4  11  23  43  67  94 130 180 223 275 338 407
#     4  10  22  42  63  89 133 163 217 276 331 392
#     4  11  25  37  62  96 127 172 213 274 331 393
#     4  10  22  40  66  91 129 171 216 271 339 391
#     4  10  24  43  66  99 133 176 222 279 337 407
#     4  10  24  34  66  96 120 172 214 268 322 392
#     4  10  21  40  64  93 128 164 224 271 324 394
#
# _framework density 21.794497
#
# number of rings (size 3 to 8) (size 9 to 14) (size 15 to 20)
#    0.000    1.600    2.667    2.400    9.333    1.600 
#    0.000    5.333    0.000    0.000    0.000    0.000 
#    0.000    0.000    0.000    0.000    0.000    0.000 
#
# Total GULP energy -167068.284420 kJ/mol
# GULP energy per Si atom -5568.942814 kJ/mol
# Density = 2.174489 g / cm^3
# Si number density = 21.794497 Si / 1000 Ang^3
#
#
#
# Elastic Constant Matrix: (Units=GPa)
#
#
# Indices 1 2 3 4 5 6 
#
# 1 189.6089 25.6213 50.8106 0.0000 0.0000 0.0000
# 2 25.6213 21.9276 18.4879 0.0000 0.0000 0.0000
# 3 50.8106 18.4879 96.4847 0.0000 0.0000 0.0000
# 4 0.0000 0.0000 0.0000 11.1142 0.0000 0.0000
# 5 0.0000 0.0000 0.0000 0.0000 -7.4441 0.0000
# 6 0.0000 0.0000 0.0000 0.0000 0.0000 24.6578
#
#
#
# Elastic Compliance Matrix: (Units=1/GPa)
#
#
# Indices 1 2 3 4 5 6 
#
# 1 0.006706 -0.005794 -0.002421 0.000000 0.000000 0.000000
# 2 -0.005794 0.059398 -0.008330 0.000000 0.000000 0.000000
# 3 -0.002421 -0.008330 0.013236 0.000000 0.000000 0.000000
# 4 0.000000 0.000000 0.000000 0.089975 0.000000 0.000000
# 5 0.000000 0.000000 0.000000 0.000000 -0.134334 0.000000
# 6 0.000000 0.000000 0.000000 0.000000 0.000000 0.040555
#
#
# Mechanical properties :
#
#
# Convention : Reuss Voigt Hill
#
# Bulk Modulus (GPa) = 21.62233 55.31786 38.47009
# Shear Modulus (GPa) = 40.30884 19.87234 30.09059
#
# Velocity S-wave (km/s) = 4.30524 3.02289 3.71974
# Velocity P-wave (km/s) = 5.88694 6.13355 6.01151
#
# Compressibility (1/GPa) = 0.04624848
#
# Stress axis : x y z
#
# Youngs Moduli (GPa) = 149.12581 16.83557 75.55396
#
# Poissons Ratio (x) = 0.09754 0.18293
# Poissons Ratio (y) = 0.86403 0.62939
# Poissons Ratio (z) = 0.36106 0.14025
#
# Static dielectric constant tensor:
#      x y z
#    x 1.901750 0.000000 0.000000 
#    y 0.000000 1.828290 0.000000 
#    z 0.000000 0.000000 1.830870 
# 
# From -- ./inp_files/15288.got.cif
#   From: 2010.05.17/outbox.cif.g08.bks.cpg/sg43_8_cif.got.tgz:15288.got - 2010.06.03 19:21:55.
