data_PCOD9371106
_publ_section_title
;
Structure prediction by ZEFSAII (Michael W. Deem and Ramdas Pophale) SiO2 
 PCOD9371106
Probable space group: F D D 2
;
_chemical_formula_sum "Si O2"
_cell_formula_units_Z 72
_cell_length_a 12.194214
_cell_length_b 9.803773
_cell_length_c 27.625835
_cell_angle_alpha 90.000000
_cell_angle_beta 90.000000
_cell_angle_gamma 90.000000
_cell_volume 3302.649401
_symmetry_space_group_name_H-M "F D D 2"
_symmetry_group_IT_number 43
_symmetry_cell_setting 'orthorhombic'
loop_
_space_group_symop_operation_xyz
x,y,z
-x,-y,z
1/4-x,1/4+y,1/4+z
1/4+x,1/4-y,1/4+z
x,1/2+y,1/2+z
-x,1/2-y,1/2+z
1/4-x,3/4+y,3/4+z
1/4+x,3/4-y,3/4+z
1/2+x,y,1/2+z
1/2-x,-y,1/2+z
3/4-x,1/4+y,3/4+z
3/4+x,1/4-y,3/4+z
1/2+x,1/2+y,z
1/2-x,1/2-y,z
3/4-x,3/4+y,1/4+z
3/4+x,3/4-y,1/4+z
loop_
_atom_site_type_symbol
_atom_site_label
_atom_site_fract_x
_atom_site_fract_y
_atom_site_fract_z
Si Si1 0.562511 0.325921 0.359210
Si Si2 0.123125 0.294192 0.070936
Si Si3 0.500000 0.500000 0.982660
Si Si4 0.370228 0.484372 0.709245
Si Si5 0.907866 0.155562 0.070756
O O1 0.626654 0.187328 0.348051
O O2 0.582591 0.359523 0.415245
O O3 0.432198 0.320444 0.350352
O O4 0.609023 0.441873 0.323688
O O5 0.250000 0.250000 0.073443
O O6 0.032728 0.184116 0.088432
O O7 0.095255 0.312963 0.013880
O O8 0.418628 0.581100 0.019122
O O9 0.562897 0.617014 0.953812
O O10 0.500000 0.500000 0.706370
#
# Coordination Sequence:
#
# PCOD9371106 Si02
#       5
#    16  16   8  16  16
#     4  11  22  39  65  93 135 173 216 285 340 399
#     4  10  21  39  68  92 128 180 216 273 342 399
#     4  10  22  44  68  92 136 182 222 274 346 414
#     4  10  21  39  64  97 128 172 234 275 328 422
#     4  10  21  40  62  94 131 167 222 270 332 411
#
# _framework density 21.80068
#
# number of rings (size 3 to 8) (size 9 to 14) (size 15 to 20)
#    0.000    1.778    0.000    6.000    1.556    0.000 
#   20.000    0.000    9.778    0.000    0.000    0.000 
#    0.000    0.000    0.000    0.000    0.000    0.000 
#
# Total GULP energy -100379.888303 kJ/mol
# GULP energy per Si atom -5576.660461 kJ/mol
# Density = 2.175106 g / cm^3
# Si number density = 21.800680 Si / 1000 Ang^3
#
#
#
# Elastic Constant Matrix: (Units=GPa)
#
#
# Indices 1 2 3 4 5 6 
#
# 1 128.9592 2.8335 30.9741 0.0000 0.0000 0.0000
# 2 2.8335 53.3510 19.3400 0.0000 0.0000 0.0000
# 3 30.9741 19.3400 72.4654 0.0000 0.0000 0.0000
# 4 0.0000 0.0000 0.0000 21.0506 0.0000 0.0000
# 5 0.0000 0.0000 0.0000 0.0000 6.0234 0.0000
# 6 0.0000 0.0000 0.0000 0.0000 0.0000 47.0864
#
#
#
# Elastic Compliance Matrix: (Units=1/GPa)
#
#
# Indices 1 2 3 4 5 6 
#
# 1 0.008688 0.000979 -0.003975 0.000000 0.000000 0.000000
# 2 0.000979 0.020862 -0.005986 0.000000 0.000000 0.000000
# 3 -0.003975 -0.005986 0.017096 0.000000 0.000000 0.000000
# 4 0.000000 0.000000 0.000000 0.047505 0.000000 0.000000
# 5 0.000000 0.000000 0.000000 0.000000 0.166020 0.000000
# 6 0.000000 0.000000 0.000000 0.000000 0.000000 0.021238
#
#
# Mechanical properties :
#
#
# Convention : Reuss Voigt Hill
#
# Bulk Modulus (GPa) = 34.86463 40.11899 37.49181
# Shear Modulus (GPa) = 16.18477 28.27393 22.22935
#
# Velocity S-wave (km/s) = 2.72765 3.60520 3.19668
# Velocity P-wave (km/s) = 5.09385 5.98101 5.55517
#
# Compressibility (1/GPa) = 0.02868236
#
# Stress axis : x y z
#
# Youngs Moduli (GPa) = 115.10726 47.93428 58.49210
#
# Poissons Ratio (x) = -0.04695 0.23249
# Poissons Ratio (y) = -0.11274 0.35016
# Poissons Ratio (z) = 0.45752 0.28695
#
# Static dielectric constant tensor:
#      x y z
#    x 1.832870 0.000000 0.000000 
#    y 0.000000 1.821840 0.000000 
#    z 0.000000 0.000000 1.783080 
# 
# From -- ./inp_files/24870.got.cif
#   From: 2010.05.17/outbox.cif.g08.bks.cpg/sg43_13_cif.got.tgz:24870.got - 2010.06.03 19:21:55.
