data_PCOD9371686
_publ_section_title
;
Structure prediction by ZEFSAII (Michael W. Deem and Ramdas Pophale) SiO2 
 PCOD9371686
Probable space group: F D D 2
;
_chemical_formula_sum "Si O2"
_cell_formula_units_Z 88
_cell_length_a 8.205080
_cell_length_b 20.027786
_cell_length_c 21.123441
_cell_angle_alpha 90.000000
_cell_angle_beta 90.000000
_cell_angle_gamma 90.000000
_cell_volume 3471.206322
_symmetry_space_group_name_H-M "F D D 2"
_symmetry_group_IT_number 43
_symmetry_cell_setting 'orthorhombic'
loop_
_space_group_symop_operation_xyz
x,y,z
-x,-y,z
1/4-x,1/4+y,1/4+z
1/4+x,1/4-y,1/4+z
x,1/2+y,1/2+z
-x,1/2-y,1/2+z
1/4-x,3/4+y,3/4+z
1/4+x,3/4-y,3/4+z
1/2+x,y,1/2+z
1/2-x,-y,1/2+z
3/4-x,1/4+y,3/4+z
3/4+x,1/4-y,3/4+z
1/2+x,1/2+y,z
1/2-x,1/2-y,z
3/4-x,3/4+y,1/4+z
3/4+x,3/4-y,1/4+z
loop_
_atom_site_type_symbol
_atom_site_label
_atom_site_fract_x
_atom_site_fract_y
_atom_site_fract_z
Si Si1 0.319749 0.912704 0.496440
Si Si2 0.157448 0.932026 0.373427
Si Si3 0.465750 0.421994 0.533203
Si Si4 0.000000 0.000000 0.098493
Si Si5 0.582938 0.711440 0.055219
Si Si6 0.558614 0.863853 0.664590
O O1 0.288861 0.945998 0.428579
O O2 0.135608 0.889009 0.511383
O O3 0.432638 0.846961 0.502589
O O4 0.373615 0.965167 0.549897
O O5 0.187787 0.856104 0.352231
O O6 0.971516 0.928533 0.395831
O O7 0.196856 0.981774 0.315730
O O8 0.500000 0.500000 0.529657
O O9 0.315140 0.398347 0.489453
O O10 0.931516 0.059674 0.142152
O O11 0.750000 0.750000 0.046066
O O12 0.579896 0.668905 0.121015
#
# Coordination Sequence:
#
# PCOD9371686 Si02
#       6
#    16  16  16   8  16  16
#     4  10  23  41  67  99 137 173 229 286 344 417
#     4  11  23  43  68  98 140 185 224 289 350 414
#     4  11  22  42  65  95 133 181 231 280 348 414
#     4  10  22  44  70 108 134 178 238 292 342 414
#     4  11  22  43  66  99 137 176 233 282 348 412
#     4  10  23  44  68  97 140 181 233 286 348 421
#
# _framework density 25.351416
#
# number of rings (size 3 to 8) (size 9 to 14) (size 15 to 20)
#    0.000    1.455    1.818    3.818    1.273    0.727 
#    9.818    0.000    0.000    0.000    0.000    0.000 
#    0.000    0.000    0.000    0.000    0.000    0.000 
#
# Total GULP energy -122880.188061 kJ/mol
# GULP energy per Si atom -5585.463094 kJ/mol
# Density = 2.529371 g / cm^3
# Si number density = 25.351416 Si / 1000 Ang^3
#
#
#
# Elastic Constant Matrix: (Units=GPa)
#
#
# Indices 1 2 3 4 5 6 
#
# 1 57.6679 11.8305 -8.6904 0.0000 0.0000 0.0000
# 2 11.8305 159.6728 22.9501 0.0000 0.0000 0.0000
# 3 -8.6904 22.9501 46.4173 0.0000 0.0000 0.0000
# 4 0.0000 0.0000 0.0000 39.2630 0.0000 0.0000
# 5 0.0000 0.0000 0.0000 0.0000 27.5636 0.0000
# 6 0.0000 0.0000 0.0000 0.0000 0.0000 39.1999
#
#
#
# Elastic Compliance Matrix: (Units=1/GPa)
#
#
# Indices 1 2 3 4 5 6 
#
# 1 0.018420 -0.002003 0.004439 0.000000 0.000000 0.000000
# 2 -0.002003 0.006960 -0.003816 0.000000 0.000000 0.000000
# 3 0.004439 -0.003816 0.024262 0.000000 0.000000 0.000000
# 4 0.000000 0.000000 0.000000 0.025469 0.000000 0.000000
# 5 0.000000 0.000000 0.000000 0.000000 0.036280 0.000000
# 6 0.000000 0.000000 0.000000 0.000000 0.000000 0.025510
#
#
# Mechanical properties :
#
#
# Convention : Reuss Voigt Hill
#
# Bulk Modulus (GPa) = 21.33017 35.10425 28.21721
# Shear Modulus (GPa) = 32.19823 37.04983 34.62403
#
# Velocity S-wave (km/s) = 3.56768 3.82704 3.69963
# Velocity P-wave (km/s) = 5.04016 5.77974 5.42257
#
# Compressibility (1/GPa) = 0.04688195
#
# Stress axis : x y z
#
# Youngs Moduli (GPa) = 54.28739 143.68454 41.21752
#
# Poissons Ratio (x) = 0.28778 -0.18297
# Poissons Ratio (y) = 0.10873 0.15729
# Poissons Ratio (z) = -0.24098 0.54831
#
# Static dielectric constant tensor:
#      x y z
#    x 2.034810 0.000000 0.000000 
#    y 0.000000 2.033800 0.000000 
#    z 0.000000 0.000000 2.064110 
# 
# From -- ./inp_files/20199.got.cif
#   From: 2010.05.17/outbox.cif.g08.bks.cpg/sg43_11_cif.got.tgz:20199.got - 2010.06.03 19:21:55.
