data_PCOD9371752
_publ_section_title
;
Structure prediction by ZEFSAII (Michael W. Deem and Ramdas Pophale) SiO2 
 PCOD9371752
Probable space group: F D D 2
;
_chemical_formula_sum "Si O2"
_cell_formula_units_Z 72
_cell_length_a 7.853494
_cell_length_b 23.226246
_cell_length_c 15.738394
_cell_angle_alpha 90.000000
_cell_angle_beta 90.000000
_cell_angle_gamma 90.000000
_cell_volume 2870.796124
_symmetry_space_group_name_H-M "F D D 2"
_symmetry_group_IT_number 43
_symmetry_cell_setting 'orthorhombic'
loop_
_space_group_symop_operation_xyz
x,y,z
-x,-y,z
1/4-x,1/4+y,1/4+z
1/4+x,1/4-y,1/4+z
x,1/2+y,1/2+z
-x,1/2-y,1/2+z
1/4-x,3/4+y,3/4+z
1/4+x,3/4-y,3/4+z
1/2+x,y,1/2+z
1/2-x,-y,1/2+z
3/4-x,1/4+y,3/4+z
3/4+x,1/4-y,3/4+z
1/2+x,1/2+y,z
1/2-x,1/2-y,z
3/4-x,3/4+y,1/4+z
3/4+x,3/4-y,1/4+z
loop_
_atom_site_type_symbol
_atom_site_label
_atom_site_fract_x
_atom_site_fract_y
_atom_site_fract_z
Si Si1 0.459363 0.145841 0.350500
Si Si2 0.417878 0.212338 0.084825
Si Si3 0.000000 0.500000 0.863815
Si Si4 0.885626 0.877726 0.281542
Si Si5 0.050295 0.230810 0.392494
O O1 0.613552 0.102882 0.341601
O O2 0.318871 0.133045 0.279305
O O3 0.335245 0.130182 0.431046
O O4 0.528628 0.210091 0.358090
O O5 0.250000 0.250000 0.099677
O O6 0.484361 0.221641 0.988209
O O7 0.567825 0.230317 0.149246
O O8 0.057947 0.560363 0.817868
O O9 0.967481 0.824807 0.332732
O O10 0.250000 0.250000 0.392725
#
# Coordination Sequence:
#
# PCOD9371752 Si02
#       5
#    16  16   8  16  16
#     4  11  23  45  72 109 140 196 244 296 366 434
#     4  12  23  43  75 104 145 189 246 293 365 433
#     4  12  22  46  68 104 146 192 224 304 368 420
#     4  11  24  46  75 103 151 193 237 303 373 427
#     4  10  22  46  72 103 151 192 234 307 371 425
#
# _framework density 25.080151000000001
#
# number of rings (size 3 to 8) (size 9 to 14) (size 15 to 20)
#    0.000    0.889    5.556    1.333    0.000    6.222 
#    4.000    0.000    0.000    0.000    0.000    0.000 
#    0.000    0.000    0.000    0.000    0.000    0.000 
#
# Total GULP energy -100562.431327 kJ/mol
# GULP energy per Si atom -5586.801740 kJ/mol
# Density = 2.502307 g / cm^3
# Si number density = 25.080151 Si / 1000 Ang^3
#
#
#
# Elastic Constant Matrix: (Units=GPa)
#
#
# Indices 1 2 3 4 5 6 
#
# 1 88.5742 48.9952 0.3127 0.0000 0.0000 0.0000
# 2 48.9952 246.1396 39.8262 0.0000 0.0000 0.0000
# 3 0.3127 39.8262 62.6319 0.0000 0.0000 0.0000
# 4 0.0000 0.0000 0.0000 32.5157 0.0000 0.0000
# 5 0.0000 0.0000 0.0000 0.0000 22.2230 0.0000
# 6 0.0000 0.0000 0.0000 0.0000 0.0000 54.5326
#
#
#
# Elastic Compliance Matrix: (Units=1/GPa)
#
#
# Indices 1 2 3 4 5 6 
#
# 1 0.012855 -0.002841 0.001742 0.000000 0.000000 0.000000
# 2 -0.002841 0.005156 -0.003265 0.000000 0.000000 0.000000
# 3 0.001742 -0.003265 0.018034 0.000000 0.000000 0.000000
# 4 0.000000 0.000000 0.000000 0.030754 0.000000 0.000000
# 5 0.000000 0.000000 0.000000 0.000000 0.044999 0.000000
# 6 0.000000 0.000000 0.000000 0.000000 0.000000 0.018338
#
#
# Mechanical properties :
#
#
# Convention : Reuss Voigt Hill
#
# Bulk Modulus (GPa) = 36.60501 63.95711 50.28106
# Shear Modulus (GPa) = 33.79099 42.40170 38.09634
#
# Velocity S-wave (km/s) = 3.67457 4.11621 3.90164
# Velocity P-wave (km/s) = 5.71228 6.93883 6.35521
#
# Compressibility (1/GPa) = 0.02731867
#
# Stress axis : x y z
#
# Youngs Moduli (GPa) = 77.78949 193.93221 55.45224
#
# Poissons Ratio (x) = 0.55092 -0.09661
# Poissons Ratio (y) = 0.22098 0.18103
# Poissons Ratio (z) = -0.13552 0.63313
#
# Static dielectric constant tensor:
#      x y z
#    x 1.920570 0.000000 0.000000 
#    y 0.000000 1.992420 0.000000 
#    z 0.000000 0.000000 1.975100 
# 
# From -- ./inp_files/14786.got.cif
#   From: 2010.05.17/outbox.cif.g08.bks.cpg/sg43_8_cif.got.tgz:14786.got - 2010.06.03 19:21:55.
