data_PCOD9371932
_publ_section_title
;
Structure prediction by ZEFSAII (Michael W. Deem and Ramdas Pophale) SiO2 
 PCOD9371932
Probable space group: F D D 2
;
_chemical_formula_sum "Si O2"
_cell_formula_units_Z 104
_cell_length_a 13.650172
_cell_length_b 12.521676
_cell_length_c 23.944935
_cell_angle_alpha 90.000000
_cell_angle_beta 90.000000
_cell_angle_gamma 90.000000
_cell_volume 4092.740870
_symmetry_space_group_name_H-M "F D D 2"
_symmetry_group_IT_number 43
_symmetry_cell_setting 'orthorhombic'
loop_
_space_group_symop_operation_xyz
x,y,z
-x,-y,z
1/4-x,1/4+y,1/4+z
1/4+x,1/4-y,1/4+z
x,1/2+y,1/2+z
-x,1/2-y,1/2+z
1/4-x,3/4+y,3/4+z
1/4+x,3/4-y,3/4+z
1/2+x,y,1/2+z
1/2-x,-y,1/2+z
3/4-x,1/4+y,3/4+z
3/4+x,1/4-y,3/4+z
1/2+x,1/2+y,z
1/2-x,1/2-y,z
3/4-x,3/4+y,1/4+z
3/4+x,3/4-y,1/4+z
loop_
_atom_site_type_symbol
_atom_site_label
_atom_site_fract_x
_atom_site_fract_y
_atom_site_fract_z
Si Si1 0.376859 0.830948 0.643720
Si Si2 0.881382 0.869624 0.952492
Si Si3 0.269956 0.914396 0.157800
Si Si4 0.889670 0.422877 0.002631
Si Si5 0.500000 0.500000 0.208205
Si Si6 0.023468 0.659120 0.113727
Si Si7 0.489834 0.688632 0.807429
O O1 0.349647 0.745030 0.690362
O O2 0.281458 0.856013 0.607172
O O3 0.469994 0.774756 0.612591
O O4 0.421337 0.937755 0.670432
O O5 0.831377 0.884397 0.012184
O O6 0.805077 0.846826 0.901794
O O7 0.197011 0.844740 0.194948
O O8 0.128550 0.646356 0.143397
O O9 0.229560 0.955078 0.097164
O O10 0.295982 0.020107 0.195677
O O11 0.801335 0.339263 0.995289
O O12 0.959408 0.386084 0.052565
O O13 0.836942 0.532789 0.021919
#
# Coordination Sequence:
#
# PCOD9371932 Si02
#       7
#    16  16  16  16   8  16  16
#     4  10  23  45  68 107 151 203 260 321 400 487
#     4  10  23  46  71 117 155 211 263 327 400 493
#     4  11  23  44  78 114 154 206 269 327 410 483
#     4  11  23  44  75 112 151 211 264 338 402 484
#     4  12  22  46  68 104 156 194 268 322 396 490
#     4   9  23  45  69 114 153 207 267 327 406 489
#     4  11  23  46  73 108 158 205 261 340 394 487
#
# _framework density 25.410843
#
# number of rings (size 3 to 8) (size 9 to 14) (size 15 to 20)
#    0.923    0.615    3.077    1.385    0.000    3.077 
#    8.308    4.615    0.000    0.000    0.000    0.000 
#    0.000    0.000    0.000    0.000    0.000    0.000 
#
# Total GULP energy -144939.743351 kJ/mol
# GULP energy per Si atom -5574.605513 kJ/mol
# Density = 2.535301 g / cm^3
# Si number density = 25.410843 Si / 1000 Ang^3
#
#
#
# Elastic Constant Matrix: (Units=GPa)
#
#
# Indices 1 2 3 4 5 6 
#
# 1 89.9232 59.5588 22.6308 0.0000 0.0000 0.0000
# 2 59.5588 128.2007 43.2842 0.0000 0.0000 0.0000
# 3 22.6308 43.2842 110.6165 0.0000 0.0000 0.0000
# 4 0.0000 0.0000 0.0000 5.0296 0.0000 0.0000
# 5 0.0000 0.0000 0.0000 0.0000 17.3620 0.0000
# 6 0.0000 0.0000 0.0000 0.0000 0.0000 45.9671
#
#
#
# Elastic Compliance Matrix: (Units=1/GPa)
#
#
# Indices 1 2 3 4 5 6 
#
# 1 0.016080 -0.007328 -0.000422 0.000000 0.000000 0.000000
# 2 -0.007328 0.012327 -0.003324 0.000000 0.000000 0.000000
# 3 -0.000422 -0.003324 0.010427 0.000000 0.000000 0.000000
# 4 0.000000 0.000000 0.000000 0.198821 0.000000 0.000000
# 5 0.000000 0.000000 0.000000 0.000000 0.057597 0.000000
# 6 0.000000 0.000000 0.000000 0.000000 0.000000 0.021755
#
#
# Mechanical properties :
#
#
# Convention : Reuss Voigt Hill
#
# Bulk Modulus (GPa) = 59.93233 64.40979 62.17106
# Shear Modulus (GPa) = 14.50456 27.22286 20.86371
#
# Velocity S-wave (km/s) = 2.39174 3.27664 2.86852
# Velocity P-wave (km/s) = 5.59140 6.30218 5.95740
#
# Compressibility (1/GPa) = 0.01668548
#
# Stress axis : x y z
#
# Youngs Moduli (GPa) = 62.18737 81.12244 95.90039
#
# Poissons Ratio (x) = 0.59446 0.04051
# Poissons Ratio (y) = 0.45571 0.31881
# Poissons Ratio (z) = 0.02627 0.26968
#
# Static dielectric constant tensor:
#      x y z
#    x 2.118530 0.000000 0.000000 
#    y 0.000000 2.073090 0.000000 
#    z 0.000000 0.000000 1.972320 
# 
# From -- ./inp_files/17627.got.cif
#   From: 2010.05.17/outbox.cif.g08.bks.cpg/sg43_9_cif.got.tgz:17627.got - 2010.06.03 19:21:55.
