data_PCOD9371165
_publ_section_title
;
Structure prediction by ZEFSAII (Michael W. Deem and Ramdas Pophale) SiO2 
 PCOD9371165
Probable space group: F D D 2
;
_chemical_formula_sum "Si O2"
_cell_formula_units_Z 112
_cell_length_a 13.898778
_cell_length_b 13.795957
_cell_length_c 24.990082
_cell_angle_alpha 90.000000
_cell_angle_beta 90.000000
_cell_angle_gamma 90.000000
_cell_volume 4791.771845
_symmetry_space_group_name_H-M "F D D 2"
_symmetry_group_IT_number 43
_symmetry_cell_setting 'orthorhombic'
loop_
_space_group_symop_operation_xyz
x,y,z
-x,-y,z
1/4-x,1/4+y,1/4+z
1/4+x,1/4-y,1/4+z
x,1/2+y,1/2+z
-x,1/2-y,1/2+z
1/4-x,3/4+y,3/4+z
1/4+x,3/4-y,3/4+z
1/2+x,y,1/2+z
1/2-x,-y,1/2+z
3/4-x,1/4+y,3/4+z
3/4+x,1/4-y,3/4+z
1/2+x,1/2+y,z
1/2-x,1/2-y,z
3/4-x,3/4+y,1/4+z
3/4+x,3/4-y,1/4+z
loop_
_atom_site_type_symbol
_atom_site_label
_atom_site_fract_x
_atom_site_fract_y
_atom_site_fract_z
Si Si1 0.868206 0.066795 0.050590
Si Si2 0.769098 0.855985 0.460232
Si Si3 0.715619 0.136694 0.119249
Si Si4 0.661547 0.647491 0.021740
Si Si5 0.939425 0.379167 0.039621
Si Si6 0.381322 0.653039 0.483417
Si Si7 0.477514 0.306377 0.100499
O O1 0.810802 0.074156 0.107111
O O2 0.969572 0.109438 0.067041
O O3 0.867489 0.963839 0.022409
O O4 0.806470 0.132629 0.009269
O O5 0.750000 0.750000 0.436953
O O6 0.875642 0.863349 0.485942
O O7 0.747196 0.931209 0.412982
O O8 0.750000 0.250000 0.109712
O O9 0.640898 0.081714 0.079437
O O10 0.662677 0.131660 0.175517
O O11 0.633251 0.686970 0.081322
O O12 0.605814 0.729280 0.986798
O O13 0.772147 0.643840 0.002916
O O14 0.969450 0.286155 0.075940
O O15 0.046241 0.407809 0.021322
#
# Coordination Sequence:
#
# PCOD9371165 Si02
#       7
#    16  16  16  16  16  16  16
#     4  11  21  40  65 101 130 166 229 292 340 405
#     4  11  21  37  65 101 127 164 221 289 356 396
#     4  11  22  41  72 105 127 168 230 299 356 397
#     4  10  24  44  59  88 136 186 224 263 328 434
#     4  10  21  40  66  99 134 161 221 291 342 407
#     4  10  24  45  62  90 143 186 218 272 344 415
#     4  11  21  40  67  92 132 171 215 283 347 399
#
# _framework density 23.373398999999999
#
# number of rings (size 3 to 8) (size 9 to 14) (size 15 to 20)
#    0.000    1.429    2.857    3.000    2.000    1.143 
#    5.143    1.429    3.143    0.000    0.000    0.000 
#    0.000    0.000    0.000    0.000    0.000    0.000 
#
# Total GULP energy -155946.956803 kJ/mol
# GULP energy per Si atom -5569.534172 kJ/mol
# Density = 2.332020 g / cm^3
# Si number density = 23.373399 Si / 1000 Ang^3
#
#
#
# Elastic Constant Matrix: (Units=GPa)
#
#
# Indices 1 2 3 4 5 6 
#
# 1 127.1229 -8.0254 45.5000 0.0000 0.0000 0.0000
# 2 -8.0254 41.7774 -2.0738 0.0000 0.0000 0.0000
# 3 45.5000 -2.0738 127.7714 0.0000 0.0000 0.0000
# 4 0.0000 0.0000 0.0000 26.9101 0.0000 0.0000
# 5 0.0000 0.0000 0.0000 0.0000 24.5743 0.0000
# 6 0.0000 0.0000 0.0000 0.0000 0.0000 22.2602
#
#
#
# Elastic Compliance Matrix: (Units=1/GPa)
#
#
# Indices 1 2 3 4 5 6 
#
# 1 0.009120 0.001592 -0.003222 0.000000 0.000000 0.000000
# 2 0.001592 0.024234 -0.000174 0.000000 0.000000 0.000000
# 3 -0.003222 -0.000174 0.008971 0.000000 0.000000 0.000000
# 4 0.000000 0.000000 0.000000 0.037161 0.000000 0.000000
# 5 0.000000 0.000000 0.000000 0.000000 0.040693 0.000000
# 6 0.000000 0.000000 0.000000 0.000000 0.000000 0.044923
#
#
# Mechanical properties :
#
#
# Convention : Reuss Voigt Hill
#
# Bulk Modulus (GPa) = 25.82791 40.83035 33.32913
# Shear Modulus (GPa) = 27.53085 32.16698 29.84891
#
# Velocity S-wave (km/s) = 3.43574 3.71377 3.57746
# Velocity P-wave (km/s) = 5.17814 5.99134 5.59952
#
# Compressibility (1/GPa) = 0.03871781
#
# Stress axis : x y z
#
# Youngs Moduli (GPa) = 109.64808 41.26501 111.47051
#
# Poissons Ratio (x) = -0.06570 0.35914
# Poissons Ratio (y) = -0.17456 0.01935
# Poissons Ratio (z) = 0.35327 0.00716
#
# Static dielectric constant tensor:
#      x y z
#    x 2.021290 0.000000 0.000000 
#    y 0.000000 2.055120 0.000000 
#    z 0.000000 0.000000 1.908150 
# 
# From -- ./inp_files/21719.got.cif
#   From: 2010.05.17/outbox.cif.g08.bks.cpg/sg43_11_cif.got.tgz:21719.got - 2010.06.03 19:21:55.
