data_PCOD9371907
_publ_section_title
;
Structure prediction by ZEFSAII (Michael W. Deem and Ramdas Pophale) SiO2 
 PCOD9371907
Probable space group: F D D 2
;
_chemical_formula_sum "Si O2"
_cell_formula_units_Z 104
_cell_length_a 26.501103
_cell_length_b 18.018728
_cell_length_c 7.669104
_cell_angle_alpha 90.000000
_cell_angle_beta 90.000000
_cell_angle_gamma 90.000000
_cell_volume 3662.121144
_symmetry_space_group_name_H-M "F D D 2"
_symmetry_group_IT_number 43
_symmetry_cell_setting 'orthorhombic'
loop_
_space_group_symop_operation_xyz
x,y,z
-x,-y,z
1/4-x,1/4+y,1/4+z
1/4+x,1/4-y,1/4+z
x,1/2+y,1/2+z
-x,1/2-y,1/2+z
1/4-x,3/4+y,3/4+z
1/4+x,3/4-y,3/4+z
1/2+x,y,1/2+z
1/2-x,-y,1/2+z
3/4-x,1/4+y,3/4+z
3/4+x,1/4-y,3/4+z
1/2+x,1/2+y,z
1/2-x,1/2-y,z
3/4-x,3/4+y,1/4+z
3/4+x,3/4-y,1/4+z
loop_
_atom_site_type_symbol
_atom_site_label
_atom_site_fract_x
_atom_site_fract_y
_atom_site_fract_z
Si Si1 0.500000 0.000000 0.129620
Si Si2 0.417587 0.441208 0.008830
Si Si3 0.647929 0.686776 0.869515
Si Si4 0.058705 0.101278 0.369280
Si Si5 0.340561 0.910954 0.029353
Si Si6 0.560307 0.250389 0.679451
Si Si7 0.741576 0.087947 0.719636
O O1 0.447331 0.027637 0.209302
O O2 0.521039 0.064477 0.002427
O O3 0.427727 0.456215 0.213058
O O4 0.371322 0.491649 0.938056
O O5 0.473211 0.411655 0.945221
O O6 0.387871 0.363457 0.986027
O O7 0.667118 0.631381 0.713528
O O8 0.613661 0.755168 0.798690
O O9 0.108597 0.127891 0.464257
O O10 0.042366 0.175219 0.275122
O O11 0.299558 0.903948 0.875531
O O12 0.537807 0.316854 0.794223
O O13 0.527324 0.234602 0.506577
#
# Coordination Sequence:
#
# PCOD9371907 Si02
#       7
#     8  16  16  16  16  16  16
#     4  10  24  46  74 106 138 194 244 292 370 444
#     4  11  25  43  65 104 143 181 237 303 359 430
#     4  11  25  44  73 107 149 187 246 306 368 441
#     4  10  23  44  70 103 138 189 238 305 348 445
#     4  11  23  46  73 104 141 193 247 294 370 441
#     4  11  24  43  70 100 145 187 245 290 372 434
#     4  11  24  44  71 103 137 198 237 303 365 439
#
# _framework density 28.39884
#
# number of rings (size 3 to 8) (size 9 to 14) (size 15 to 20)
#    0.000    1.231    1.538    3.692   10.769    0.000 
#    2.769    0.000    0.000    0.000    0.000    0.000 
#    0.000    0.000    0.000    0.000    0.000    0.000 
#
# Total GULP energy -145311.474237 kJ/mol
# GULP energy per Si atom -5588.902855 kJ/mol
# Density = 2.833420 g / cm^3
# Si number density = 28.398840 Si / 1000 Ang^3
#
#
#
# Elastic Constant Matrix: (Units=GPa)
#
#
# Indices 1 2 3 4 5 6 
#
# 1 232.4438 24.2288 56.5102 0.0000 0.0000 0.0000
# 2 24.2288 118.9208 -0.8617 -0.0002 0.0000 0.0000
# 3 56.5102 -0.8617 66.7758 -0.0006 0.0000 0.0000
# 4 0.0000 -0.0002 -0.0006 36.6725 0.0000 0.0000
# 5 0.0000 0.0000 0.0000 0.0000 81.0611 0.0000
# 6 0.0000 0.0000 0.0000 0.0000 0.0000 31.4651
#
#
#
# Elastic Compliance Matrix: (Units=1/GPa)
#
#
# Indices 1 2 3 4 5 6 
#
# 1 0.005575 -0.001170 -0.004733 0.000000 0.000000 0.000000
# 2 -0.001170 0.008655 0.001102 0.000000 0.000000 0.000000
# 3 -0.004733 0.001102 0.018995 0.000000 0.000000 0.000000
# 4 0.000000 0.000000 0.000000 0.027268 0.000000 0.000000
# 5 0.000000 0.000000 0.000000 0.000000 0.012336 0.000000
# 6 0.000000 0.000000 0.000000 0.000000 0.000000 0.031781
#
#
# Mechanical properties :
#
#
# Convention : Reuss Voigt Hill
#
# Bulk Modulus (GPa) = 42.33165 64.21057 53.27111
# Shear Modulus (GPa) = 40.95435 52.39062 46.67248
#
# Velocity S-wave (km/s) = 3.80164 4.29979 4.05836
# Velocity P-wave (km/s) = 5.84879 6.87825 6.38431
#
# Compressibility (1/GPa) = 0.02362299
#
# Stress axis : x y z
#
# Youngs Moduli (GPa) = 179.38265 115.53576 52.64572
#
# Poissons Ratio (x) = 0.13519 0.24916
# Poissons Ratio (y) = 0.20989 -0.05801
# Poissons Ratio (z) = 0.84898 -0.12731
#
# Static dielectric constant tensor:
#      x y z
#    x 2.194970 0.000000 0.000000 
#    y 0.000000 2.279190 0.000000 
#    z 0.000000 0.000000 2.406580 
# 
# From -- ./inp_files/4748.got.cif
#   From: 2010.05.17/outbox.cif.g08.bks.cpg/sg43_3_cif.got.tgz:4748.got - 2010.06.03 19:21:55.
