data_PCOD9371503
_publ_section_title
;
Structure prediction by ZEFSAII (Michael W. Deem and Ramdas Pophale) SiO2 
 PCOD9371503
Probable space group: F D D 2
;
_chemical_formula_sum "Si O2"
_cell_formula_units_Z 64
_cell_length_a 5.115581
_cell_length_b 38.605581
_cell_length_c 15.262066
_cell_angle_alpha 90.000000
_cell_angle_beta 90.000000
_cell_angle_gamma 90.000000
_cell_volume 3014.105058
_symmetry_space_group_name_H-M "F D D 2"
_symmetry_group_IT_number 43
_symmetry_cell_setting 'orthorhombic'
loop_
_space_group_symop_operation_xyz
x,y,z
-x,-y,z
1/4-x,1/4+y,1/4+z
1/4+x,1/4-y,1/4+z
x,1/2+y,1/2+z
-x,1/2-y,1/2+z
1/4-x,3/4+y,3/4+z
1/4+x,3/4-y,3/4+z
1/2+x,y,1/2+z
1/2-x,-y,1/2+z
3/4-x,1/4+y,3/4+z
3/4+x,1/4-y,3/4+z
1/2+x,1/2+y,z
1/2-x,1/2-y,z
3/4-x,3/4+y,1/4+z
3/4+x,3/4-y,1/4+z
loop_
_atom_site_type_symbol
_atom_site_label
_atom_site_fract_x
_atom_site_fract_y
_atom_site_fract_z
Si Si1 0.245323 0.596009 0.482570
Si Si2 0.754678 0.096009 0.862549
Si Si3 0.995586 0.728189 0.528354
Si Si4 0.745586 0.978189 0.066765
O O1 0.500000 0.605864 0.422560
O O2 0.125000 0.625000 0.547560
O O3 0.296484 0.560861 0.535129
O O4 0.000000 0.587297 0.422559
O O5 0.703516 0.060861 0.809990
O O6 0.250000 0.750000 0.556637
O O7 1.000000 0.727236 0.422560
O O8 0.750000 0.750000 0.559000
O O9 0.500000 0.000000 0.036119
O O10 0.000000 0.000000 0.038482
#
# Coordination Sequence:
#
# PCOD9371503 Si02
#       4
#    16  16  16  16
#     4  12  26  43  66  95 131 172 218 272 327 391
#     4  12  26  43  66  95 131 172 218 272 327 391
#     4  10  22  41  65  93 128 169 213 265 326 390
#     4  10  22  41  65  93 128 169 213 265 326 390
#
# _framework density 21.233498000000001
#
# number of rings (size 3 to 8) (size 9 to 14) (size 15 to 20)
#    0.000    1.000    0.000    6.000    0.000   12.000 
#    0.000    0.000    0.000    0.000    0.000    0.000 
#    0.000    0.000    0.000    0.000    0.000    0.000 
#
# Total GULP energy -89374.112477 kJ/mol
# GULP energy per Si atom -5585.882030 kJ/mol
# Density = 2.118517 g / cm^3
# Si number density = 21.233498 Si / 1000 Ang^3
#
#
#
# Elastic Constant Matrix: (Units=GPa)
#
#
# Indices 1 2 3 4 5 6 
#
# 1 194.6218 69.3119 46.1785 0.0000 0.0000 0.0000
# 2 69.3119 205.6790 52.5459 0.0000 0.0000 0.0000
# 3 46.1785 52.5459 62.6866 0.0000 0.0000 0.0000
# 4 0.0000 0.0000 0.0000 -11.3091 0.0000 0.0000
# 5 0.0000 0.0000 0.0000 0.0000 -33.9513 0.0000
# 6 0.0000 0.0000 0.0000 0.0000 0.0000 42.3594
#
#
#
# Elastic Compliance Matrix: (Units=1/GPa)
#
#
# Indices 1 2 3 4 5 6 
#
# 1 0.006460 -0.001223 -0.003733 0.000000 0.000000 0.000000
# 2 -0.001223 0.006418 -0.004479 0.000000 0.000000 0.000000
# 3 -0.003733 -0.004479 0.022457 0.000000 0.000000 0.000000
# 4 0.000000 0.000000 0.000000 -0.088424 0.000000 0.000000
# 5 0.000000 0.000000 0.000000 0.000000 -0.029454 0.000000
# 6 0.000000 0.000000 0.000000 0.000000 0.000000 0.023608
#
#
# Mechanical properties :
#
#
# Convention : Reuss Voigt Hill
#
# Bulk Modulus (GPa) = 60.73825 88.78444 74.76134
# Shear Modulus (GPa) = -144.60586 19.08321 -62.76133
#
# Velocity S-wave (km/s) = -8.26139 3.00114 -5.44260
# Velocity P-wave (km/s) = 7.89517 7.34256 2.05188
#
# Compressibility (1/GPa) = 0.01646409
#
# Stress axis : x y z
#
# Youngs Moduli (GPa) = 154.80972 155.80173 44.52946
#
# Poissons Ratio (x) = 0.19055 0.16624
# Poissons Ratio (y) = 0.18934 0.19945
# Poissons Ratio (z) = 0.57794 0.69786
#
# Static dielectric constant tensor:
#      x y z
#    x 1.734180 0.000000 0.000000 
#    y 0.000000 2.196100 0.000000 
#    z 0.000000 0.000000 1.894370 
# 
# From -- ./inp_files/512.got.cif
#   From: 2010.05.17/outbox.cif.g08.bks.cpg/sg43_1_cif.got.tgz:512.got - 2010.06.03 19:21:55.
