data_PCOD9371719
_publ_section_title
;
Structure prediction by ZEFSAII (Michael W. Deem and Ramdas Pophale) SiO2 
 PCOD9371719
Probable space group: F D D 2
;
_chemical_formula_sum "Si O2"
_cell_formula_units_Z 80
_cell_length_a 13.885692
_cell_length_b 20.621908
_cell_length_c 11.373381
_cell_angle_alpha 90.000000
_cell_angle_beta 90.000000
_cell_angle_gamma 90.000000
_cell_volume 3256.761541
_symmetry_space_group_name_H-M "F D D 2"
_symmetry_group_IT_number 43
_symmetry_cell_setting 'orthorhombic'
loop_
_space_group_symop_operation_xyz
x,y,z
-x,-y,z
1/4-x,1/4+y,1/4+z
1/4+x,1/4-y,1/4+z
x,1/2+y,1/2+z
-x,1/2-y,1/2+z
1/4-x,3/4+y,3/4+z
1/4+x,3/4-y,3/4+z
1/2+x,y,1/2+z
1/2-x,-y,1/2+z
3/4-x,1/4+y,3/4+z
3/4+x,1/4-y,3/4+z
1/2+x,1/2+y,z
1/2-x,1/2-y,z
3/4-x,3/4+y,1/4+z
3/4+x,3/4-y,1/4+z
loop_
_atom_site_type_symbol
_atom_site_label
_atom_site_fract_x
_atom_site_fract_y
_atom_site_fract_z
Si Si1 0.287550 0.964811 0.964880
Si Si2 0.596913 0.042842 0.462909
Si Si3 0.084456 0.134936 0.529624
Si Si4 0.639828 0.268612 0.970944
Si Si5 0.378352 0.086286 0.040413
O O1 0.183886 0.993172 0.935883
O O2 0.343738 0.956585 0.840480
O O3 0.309521 0.894877 0.016222
O O4 0.340939 0.013351 0.058304
O O5 0.601069 0.107381 0.382926
O O6 0.500000 0.000000 0.451535
O O7 0.612573 0.059467 0.601320
O O8 0.083752 0.200050 0.452893
O O9 0.075901 0.151034 0.667015
O O10 0.991870 0.089861 0.512791
O O11 0.750000 0.250000 0.992915
#
# Coordination Sequence:
#
# PCOD9371719 Si02
#       5
#    16  16  16  16  16
#     4  11  23  44  75  99 139 195 240 284 356 443
#     4  11  25  47  65 105 153 181 233 301 367 422
#     4  11  22  43  74 104 137 190 241 292 347 443
#     4  10  22  45  66 100 143 183 243 283 354 434
#     4  11  22  45  68 104 144 173 244 294 352 423
#
# _framework density 24.564281000000001
#
# number of rings (size 3 to 8) (size 9 to 14) (size 15 to 20)
#    0.000    1.200    4.000    4.200    0.000    1.600 
#   14.400    0.000    0.000    0.000    0.000    0.000 
#    0.000    0.000    0.000    0.000    0.000    0.000 
#
# Total GULP energy -111685.024619 kJ/mol
# GULP energy per Si atom -5584.251231 kJ/mol
# Density = 2.450837 g / cm^3
# Si number density = 24.564281 Si / 1000 Ang^3
#
#
#
# Elastic Constant Matrix: (Units=GPa)
#
#
# Indices 1 2 3 4 5 6 
#
# 1 125.4118 7.8270 21.7333 0.0000 0.0000 0.0000
# 2 7.8270 94.8136 34.7279 0.0000 0.0000 0.0000
# 3 21.7333 34.7279 116.2250 0.0000 0.0000 0.0000
# 4 0.0000 0.0000 0.0000 39.7356 0.0000 0.0000
# 5 0.0000 0.0000 0.0000 0.0000 31.8679 0.0000
# 6 0.0000 0.0000 0.0000 0.0000 0.0000 35.3543
#
#
#
# Elastic Compliance Matrix: (Units=1/GPa)
#
#
# Indices 1 2 3 4 5 6 
#
# 1 0.008242 -0.000130 -0.001502 0.000000 0.000000 0.000000
# 2 -0.000130 0.011845 -0.003515 0.000000 0.000000 0.000000
# 3 -0.001502 -0.003515 0.009935 0.000000 0.000000 0.000000
# 4 0.000000 0.000000 0.000000 0.025166 0.000000 0.000000
# 5 0.000000 0.000000 0.000000 0.000000 0.031380 0.000000
# 6 0.000000 0.000000 0.000000 0.000000 0.000000 0.028285
#
#
# Mechanical properties :
#
#
# Convention : Reuss Voigt Hill
#
# Bulk Modulus (GPa) = 50.69026 51.66962 51.17994
# Shear Modulus (GPa) = 37.95803 39.53572 38.74688
#
# Velocity S-wave (km/s) = 3.93524 4.01618 3.97592
# Velocity P-wave (km/s) = 6.42874 6.52583 6.47746
#
# Compressibility (1/GPa) = 0.01972766
#
# Stress axis : x y z
#
# Youngs Moduli (GPa) = 121.32674 84.42232 100.65210
#
# Poissons Ratio (x) = 0.01099 0.15121
# Poissons Ratio (y) = 0.01579 0.35379
# Poissons Ratio (z) = 0.18228 0.29674
#
# Static dielectric constant tensor:
#      x y z
#    x 1.974490 0.000000 0.000000 
#    y 0.000000 2.018210 0.000000 
#    z 0.000000 0.000000 1.959710 
# 
# From -- ./inp_files/6066.got.cif
#   From: 2010.05.17/outbox.cif.g08.bks.cpg/sg43_4_cif.got.tgz:6066.got - 2010.06.03 19:21:55.
