data_PCOD9371748
_publ_section_title
;
Structure prediction by ZEFSAII (Michael W. Deem and Ramdas Pophale) SiO2 
 PCOD9371748
Probable space group: F D D 2
;
_chemical_formula_sum "Si O2"
_cell_formula_units_Z 72
_cell_length_a 9.444817
_cell_length_b 18.983190
_cell_length_c 16.705952
_cell_angle_alpha 90.000000
_cell_angle_beta 90.000000
_cell_angle_gamma 90.000000
_cell_volume 2995.256169
_symmetry_space_group_name_H-M "F D D 2"
_symmetry_group_IT_number 43
_symmetry_cell_setting 'orthorhombic'
loop_
_space_group_symop_operation_xyz
x,y,z
-x,-y,z
1/4-x,1/4+y,1/4+z
1/4+x,1/4-y,1/4+z
x,1/2+y,1/2+z
-x,1/2-y,1/2+z
1/4-x,3/4+y,3/4+z
1/4+x,3/4-y,3/4+z
1/2+x,y,1/2+z
1/2-x,-y,1/2+z
3/4-x,1/4+y,3/4+z
3/4+x,1/4-y,3/4+z
1/2+x,1/2+y,z
1/2-x,1/2-y,z
3/4-x,3/4+y,1/4+z
3/4+x,3/4-y,1/4+z
loop_
_atom_site_type_symbol
_atom_site_label
_atom_site_fract_x
_atom_site_fract_y
_atom_site_fract_z
Si Si1 0.062271 0.377274 0.600930
Si Si2 0.036136 0.148937 0.653853
Si Si3 0.759787 0.043552 0.221714
Si Si4 0.000000 0.000000 0.412117
Si Si5 0.966230 0.628376 0.434900
O O1 0.108920 0.429744 0.669707
O O2 0.161316 0.309251 0.615018
O O3 0.095122 0.407828 0.514331
O O4 0.894948 0.366079 0.614138
O O5 0.037821 0.174698 0.560587
O O6 0.119539 0.077693 0.679169
O O7 0.127382 0.206030 0.704882
O O8 0.871735 0.149318 0.670237
O O9 0.761092 0.959668 0.211954
#
# Coordination Sequence:
#
# PCOD9371748 Si02
#       5
#    16  16  16   8  16
#     4  11  24  45  75  96 145 184 231 284 365 397
#     4  11  24  46  74  99 144 184 231 285 359 402
#     4  11  24  47  70 101 145 188 224 292 350 423
#     4  10  22  46  68  96 138 194 210 286 352 416
#     4  12  25  46  69 108 137 181 236 300 332 425
#
# _framework density 24.03801
#
# number of rings (size 3 to 8) (size 9 to 14) (size 15 to 20)
#    0.000    0.889    2.222    5.333    0.000    0.889 
#   40.000    0.000    0.000    0.000    0.000    0.000 
#    0.000    0.000    0.000    0.000    0.000    0.000 
#
# Total GULP energy -100497.340075 kJ/mol
# GULP energy per Si atom -5583.185560 kJ/mol
# Density = 2.398330 g / cm^3
# Si number density = 24.038010 Si / 1000 Ang^3
#
#
#
# Elastic Constant Matrix: (Units=GPa)
#
#
# Indices 1 2 3 4 5 6 
#
# 1 148.9047 33.5239 -7.6553 0.0000 0.0000 0.0000
# 2 33.5239 66.8709 30.0260 0.0000 0.0000 0.0000
# 3 -7.6553 30.0260 77.7925 0.0000 0.0000 0.0000
# 4 0.0000 0.0000 0.0000 13.3476 0.0000 0.0000
# 5 0.0000 0.0000 0.0000 0.0000 38.2190 0.0000
# 6 0.0000 0.0000 0.0000 0.0000 0.0000 26.3706
#
#
#
# Elastic Compliance Matrix: (Units=1/GPa)
#
#
# Indices 1 2 3 4 5 6 
#
# 1 0.008059 -0.005318 0.002846 0.000000 0.000000 0.000000
# 2 -0.005318 0.021598 -0.008860 0.000000 0.000000 0.000000
# 3 0.002846 -0.008860 0.016554 0.000000 0.000000 0.000000
# 4 0.000000 0.000000 0.000000 0.074920 0.000000 0.000000
# 5 0.000000 0.000000 0.000000 0.000000 0.026165 0.000000
# 6 0.000000 0.000000 0.000000 0.000000 0.000000 0.037921
#
#
# Mechanical properties :
#
#
# Convention : Reuss Voigt Hill
#
# Bulk Modulus (GPa) = 42.46669 45.03968 43.75319
# Shear Modulus (GPa) = 23.17696 31.43235 27.30466
#
# Velocity S-wave (km/s) = 3.10849 3.62001 3.37396
# Velocity P-wave (km/s) = 5.53068 6.02081 5.78095
#
# Compressibility (1/GPa) = 0.02354787
#
# Stress axis : x y z
#
# Youngs Moduli (GPa) = 124.08022 46.29966 60.40689
#
# Poissons Ratio (x) = 0.24623 -0.17190
# Poissons Ratio (y) = 0.65987 0.53519
# Poissons Ratio (z) = -0.35310 0.41021
#
# Static dielectric constant tensor:
#      x y z
#    x 1.907380 0.000000 0.000000 
#    y 0.000000 2.032700 0.000000 
#    z 0.000000 0.000000 1.938060 
# 
# From -- ./inp_files/9453.got.cif
#   From: 2010.05.17/outbox.cif.g08.bks.cpg/sg43_5_cif.got.tgz:9453.got - 2010.06.03 19:21:55.
