data_PCOD9371504
_publ_section_title
;
Structure prediction by ZEFSAII (Michael W. Deem and Ramdas Pophale) SiO2 
 PCOD9371504
Probable space group: F D D 2
;
_chemical_formula_sum "Si O2"
_cell_formula_units_Z 80
_cell_length_a 6.467780
_cell_length_b 28.111031
_cell_length_c 18.427886
_cell_angle_alpha 90.000000
_cell_angle_beta 90.000000
_cell_angle_gamma 90.000000
_cell_volume 3350.483859
_symmetry_space_group_name_H-M "F D D 2"
_symmetry_group_IT_number 43
_symmetry_cell_setting 'orthorhombic'
loop_
_space_group_symop_operation_xyz
x,y,z
-x,-y,z
1/4-x,1/4+y,1/4+z
1/4+x,1/4-y,1/4+z
x,1/2+y,1/2+z
-x,1/2-y,1/2+z
1/4-x,3/4+y,3/4+z
1/4+x,3/4-y,3/4+z
1/2+x,y,1/2+z
1/2-x,-y,1/2+z
3/4-x,1/4+y,3/4+z
3/4+x,1/4-y,3/4+z
1/2+x,1/2+y,z
1/2-x,1/2-y,z
3/4-x,3/4+y,1/4+z
3/4+x,3/4-y,1/4+z
loop_
_atom_site_type_symbol
_atom_site_label
_atom_site_fract_x
_atom_site_fract_y
_atom_site_fract_z
Si Si1 0.866563 0.897616 0.096150
Si Si2 0.116641 0.797509 0.596618
Si Si3 0.010641 0.769176 0.749544
Si Si4 0.069735 0.832499 0.302021
Si Si5 0.315058 0.582842 0.208374
O O1 0.756466 0.846153 0.101157
O O2 0.740004 0.940431 0.060382
O O3 0.080848 0.897006 0.049295
O O4 0.960010 0.917760 0.171410
O O5 0.250000 0.750000 0.594833
O O6 0.984289 0.791931 0.670091
O O7 0.985811 0.797146 0.522597
O O8 0.250000 0.750000 0.752996
O O9 0.906170 0.719167 0.767676
O O10 0.091239 0.831166 0.389808
O O11 0.193613 0.868225 0.251989
#
# Coordination Sequence:
#
# PCOD9371504 Si02
#       5
#    16  16  16  16  16
#     4   9  20  39  65  95 130 176 219 281 327 397
#     4  11  23  41  68  95 130 181 228 275 339 409
#     4   9  18  39  64  85 132 174 214 265 353 386
#     4   9  21  43  63  94 130 171 219 283 332 403
#     4  10  22  41  65  95 132 167 234 272 335 407
#
# _framework density 23.877147999999998
#
# number of rings (size 3 to 8) (size 9 to 14) (size 15 to 20)
#    1.200    1.200    0.000    3.600    2.800    0.000 
#   10.800    1.000    4.400    0.000    0.000    0.000 
#    0.000    0.000    0.000    0.000    0.000    0.000 
#
# Total GULP energy -111510.977541 kJ/mol
# GULP energy per Si atom -5575.548877 kJ/mol
# Density = 2.382280 g / cm^3
# Si number density = 23.877148 Si / 1000 Ang^3
#
#
#
# Elastic Constant Matrix: (Units=GPa)
#
#
# Indices 1 2 3 4 5 6 
#
# 1 53.8358 37.6870 44.4857 0.0000 0.0000 0.0000
# 2 37.6870 146.3985 91.4168 0.0000 0.0000 0.0000
# 3 44.4857 91.4168 212.4473 0.0000 0.0000 0.0000
# 4 0.0000 0.0000 0.0000 40.7774 0.0000 0.0000
# 5 0.0000 0.0000 0.0000 0.0000 30.6472 0.0000
# 6 0.0000 0.0000 0.0000 0.0000 0.0000 35.6219
#
#
#
# Elastic Compliance Matrix: (Units=1/GPa)
#
#
# Indices 1 2 3 4 5 6 
#
# 1 0.024208 -0.004193 -0.003265 0.000000 0.000000 0.000000
# 2 -0.004193 0.010067 -0.003454 0.000000 0.000000 0.000000
# 3 -0.003265 -0.003454 0.006877 0.000000 0.000000 0.000000
# 4 0.000000 0.000000 0.000000 0.024523 0.000000 0.000000
# 5 0.000000 0.000000 0.000000 0.000000 0.032629 0.000000
# 6 0.000000 0.000000 0.000000 0.000000 0.000000 0.028073
#
#
# Mechanical properties :
#
#
# Convention : Reuss Voigt Hill
#
# Bulk Modulus (GPa) = 51.73743 84.42895 68.08319
# Shear Modulus (GPa) = 32.33249 37.34877 34.84063
#
# Velocity S-wave (km/s) = 3.68383 3.95929 3.82404
# Velocity P-wave (km/s) = 6.30946 7.50585 6.93351
#
# Compressibility (1/GPa) = 0.01932837
#
# Stress axis : x y z
#
# Youngs Moduli (GPa) = 41.30847 99.33693 145.41603
#
# Poissons Ratio (x) = 0.41654 0.47475
# Poissons Ratio (y) = 0.17321 0.50223
# Poissons Ratio (z) = 0.13486 0.34308
#
# Static dielectric constant tensor:
#      x y z
#    x 2.173140 0.000000 0.000000 
#    y 0.000000 1.876670 0.000000 
#    z 0.000000 0.000000 1.908180 
# 
# From -- ./inp_files/12755.got.cif
#   From: 2010.05.17/outbox.cif.g08.bks.cpg/sg43_7_cif.got.tgz:12755.got - 2010.06.03 19:21:55.
