data_PCOD9371167
_publ_section_title
;
Structure prediction by ZEFSAII (Michael W. Deem and Ramdas Pophale) SiO2 
 PCOD9371167
Probable space group: F D D 2
;
_chemical_formula_sum "Si O2"
_cell_formula_units_Z 96
_cell_length_a 20.225053
_cell_length_b 19.089773
_cell_length_c 11.970315
_cell_angle_alpha 90.000000
_cell_angle_beta 90.000000
_cell_angle_gamma 90.000000
_cell_volume 4621.638917
_symmetry_space_group_name_H-M "F D D 2"
_symmetry_group_IT_number 43
_symmetry_cell_setting 'orthorhombic'
loop_
_space_group_symop_operation_xyz
x,y,z
-x,-y,z
1/4-x,1/4+y,1/4+z
1/4+x,1/4-y,1/4+z
x,1/2+y,1/2+z
-x,1/2-y,1/2+z
1/4-x,3/4+y,3/4+z
1/4+x,3/4-y,3/4+z
1/2+x,y,1/2+z
1/2-x,-y,1/2+z
3/4-x,1/4+y,3/4+z
3/4+x,1/4-y,3/4+z
1/2+x,1/2+y,z
1/2-x,1/2-y,z
3/4-x,3/4+y,1/4+z
3/4+x,3/4-y,1/4+z
loop_
_atom_site_type_symbol
_atom_site_label
_atom_site_fract_x
_atom_site_fract_y
_atom_site_fract_z
Si Si1 0.718527 0.651145 0.919950
Si Si2 0.419157 0.364124 0.313031
Si Si3 0.406079 0.257026 0.526129
Si Si4 0.443902 0.602509 0.405800
Si Si5 0.705113 0.507215 0.900560
Si Si6 0.641442 0.278462 0.464734
O O1 0.715259 0.651104 0.785081
O O2 0.719962 0.574965 0.975781
O O3 0.654821 0.697074 0.947722
O O4 0.787507 0.686316 0.952711
O O5 0.401555 0.310080 0.417373
O O6 0.369379 0.426203 0.275930
O O7 0.487684 0.402882 0.342135
O O8 0.437779 0.312696 0.212795
O O9 0.359997 0.295810 0.618580
O O10 0.481980 0.253225 0.568006
O O11 0.408899 0.678359 0.386732
O O12 0.640319 0.532991 0.835490
#
# Coordination Sequence:
#
# PCOD9371167 Si02
#       6
#    16  16  16  16  16  16
#     4  10  22  39  73 102 129 165 237 295 339 396
#     4  12  27  44  66 101 147 188 230 286 358 425
#     4  12  26  45  70 104 141 183 237 290 355 425
#     4  11  22  41  71 103 129 176 229 298 345 409
#     4  11  25  44  67  97 138 190 228 280 355 417
#     4  10  21  40  67 107 127 166 232 293 344 392
#
# _framework density 20.771853
#
# number of rings (size 3 to 8) (size 9 to 14) (size 15 to 20)
#    0.000    1.000    5.000    1.500   11.667    0.000 
#    0.000    0.000    7.333    0.000    0.000    0.000 
#    0.000    0.000    0.000    0.000    0.000    0.000 
#
# Total GULP energy -133679.213258 kJ/mol
# GULP energy per Si atom -5569.967219 kJ/mol
# Density = 2.072457 g / cm^3
# Si number density = 20.771853 Si / 1000 Ang^3
#
#
#
# Elastic Constant Matrix: (Units=GPa)
#
#
# Indices 1 2 3 4 5 6 
#
# 1 92.4526 32.9417 26.3336 0.0000 0.0000 0.0000
# 2 32.9417 120.8342 19.1767 0.0000 0.0000 0.0000
# 3 26.3336 19.1767 44.0251 0.0000 0.0000 0.0000
# 4 0.0000 0.0000 0.0000 -121.4305 0.0000 0.0000
# 5 0.0000 0.0000 0.0000 0.0000 21.0945 0.0000
# 6 0.0000 0.0000 0.0000 0.0000 0.0000 49.1542
#
#
#
# Elastic Compliance Matrix: (Units=1/GPa)
#
#
# Indices 1 2 3 4 5 6 
#
# 1 0.013774 -0.002629 -0.007093 0.000000 0.000000 0.000000
# 2 -0.002629 0.009392 -0.002518 0.000000 0.000000 0.000000
# 3 -0.007093 -0.002518 0.028054 0.000000 0.000000 0.000000
# 4 0.000000 0.000000 0.000000 -0.008235 0.000000 0.000000
# 5 0.000000 0.000000 0.000000 0.000000 0.047406 0.000000
# 6 0.000000 0.000000 0.000000 0.000000 0.000000 0.020344
#
#
# Mechanical properties :
#
#
# Convention : Reuss Voigt Hill
#
# Bulk Modulus (GPa) = 37.40008 46.02398 41.71203
# Shear Modulus (GPa) = 34.69096 1.68763 18.18930
#
# Velocity S-wave (km/s) = 4.09111 0.90234 2.96238
# Velocity P-wave (km/s) = 6.35299 4.82604 5.64142
#
# Compressibility (1/GPa) = 0.02673791
#
# Stress axis : x y z
#
# Youngs Moduli (GPa) = 72.60258 106.47057 35.64519
#
# Poissons Ratio (x) = 0.27993 0.25285
# Poissons Ratio (y) = 0.19089 0.08977
# Poissons Ratio (z) = 0.51500 0.26814
#
# Static dielectric constant tensor:
#      x y z
#    x 1.722480 0.000000 0.000000 
#    y 0.000000 3.067950 0.000000 
#    z 0.000000 0.000000 1.784260 
# 
# From -- ./inp_files/7089.got.cif
#   From: 2010.05.17/outbox.cif.g08.bks.cpg/sg43_4_cif.got.tgz:7089.got - 2010.06.03 19:21:55.
