data_PCOD9371256
_publ_section_title
;
Structure prediction by ZEFSAII (Michael W. Deem and Ramdas Pophale) SiO2 
 PCOD9371256
Probable space group: F D D 2
;
_chemical_formula_sum "Si O2"
_cell_formula_units_Z 120
_cell_length_a 29.461481
_cell_length_b 14.532992
_cell_length_c 11.891763
_cell_angle_alpha 90.000000
_cell_angle_beta 90.000000
_cell_angle_gamma 90.000000
_cell_volume 5091.618483
_symmetry_space_group_name_H-M "F D D 2"
_symmetry_group_IT_number 43
_symmetry_cell_setting 'orthorhombic'
loop_
_space_group_symop_operation_xyz
x,y,z
-x,-y,z
1/4-x,1/4+y,1/4+z
1/4+x,1/4-y,1/4+z
x,1/2+y,1/2+z
-x,1/2-y,1/2+z
1/4-x,3/4+y,3/4+z
1/4+x,3/4-y,3/4+z
1/2+x,y,1/2+z
1/2-x,-y,1/2+z
3/4-x,1/4+y,3/4+z
3/4+x,1/4-y,3/4+z
1/2+x,1/2+y,z
1/2-x,1/2-y,z
3/4-x,3/4+y,1/4+z
3/4+x,3/4-y,1/4+z
loop_
_atom_site_type_symbol
_atom_site_label
_atom_site_fract_x
_atom_site_fract_y
_atom_site_fract_z
Si Si1 0.319094 0.487733 0.834810
Si Si2 0.015744 0.126029 0.797387
Si Si3 0.218851 0.494020 0.872200
Si Si4 0.412160 0.415211 0.508670
Si Si5 0.354485 0.526269 0.064695
Si Si6 0.935329 0.611771 0.465772
Si Si7 0.500000 0.500000 0.587900
Si Si8 0.860506 0.078058 0.617844
O O1 0.266099 0.480708 0.802436
O O2 0.345492 0.391916 0.854387
O O3 0.346166 0.545498 0.741942
O O4 0.321671 0.533103 0.957627
O O5 0.019935 0.231170 0.753727
O O6 0.998406 0.080536 0.681773
O O7 0.068117 0.109900 0.825337
O O8 0.980258 0.097971 0.891179
O O9 0.179401 0.420489 0.836952
O O10 0.201052 0.590702 0.830772
O O11 0.400422 0.365912 0.392673
O O12 0.456861 0.479267 0.511647
O O13 0.372800 0.481729 0.555042
O O14 0.342542 0.437273 0.140471
O O15 0.403615 0.528778 0.004785
#
# Coordination Sequence:
#
# PCOD9371256 Si02
#       8
#    16  16  16  16  16  16   8  16
#     4  12  24  41  68 104 135 178 234 288 350 414
#     4  11  22  40  67  99 136 173 228 288 341 404
#     4  10  21  42  66  98 133 178 224 278 344 408
#     4  10  23  44  68  99 136 184 228 283 346 414
#     4  11  25  43  68  93 139 182 224 286 350 413
#     4  11  23  44  67  96 138 179 225 281 353 409
#     4  10  22  42  70 100 134 176 236 290 334 396
#     4  12  25  41  69 104 134 182 238 283 344 423
#
# _framework density 23.568145000000001
#
# number of rings (size 3 to 8) (size 9 to 14) (size 15 to 20)
#    0.000    1.067    2.667    4.800    3.733    1.067 
#    0.000    1.333    0.000    0.000    0.000    0.000 
#    0.000    0.000    0.000    0.000    0.000    0.000 
#
# Total GULP energy -167328.923251 kJ/mol
# GULP energy per Si atom -5577.630775 kJ/mol
# Density = 2.351450 g / cm^3
# Si number density = 23.568145 Si / 1000 Ang^3
#
#
#
# Elastic Constant Matrix: (Units=GPa)
#
#
# Indices 1 2 3 4 5 6 
#
# 1 135.6521 35.4239 9.9623 0.0000 0.0000 0.0000
# 2 35.4239 61.0947 21.1121 0.0000 0.0000 0.0000
# 3 9.9623 21.1121 85.8758 0.0000 0.0000 0.0000
# 4 0.0000 0.0000 0.0000 40.2892 0.0000 0.0000
# 5 0.0000 0.0000 0.0000 0.0000 42.3002 0.0000
# 6 0.0000 0.0000 0.0000 0.0000 0.0000 42.8698
#
#
#
# Elastic Compliance Matrix: (Units=1/GPa)
#
#
# Indices 1 2 3 4 5 6 
#
# 1 0.008692 -0.005127 0.000252 0.000000 0.000000 0.000000
# 2 -0.005127 0.020912 -0.004546 0.000000 0.000000 0.000000
# 3 0.000252 -0.004546 0.012733 0.000000 0.000000 0.000000
# 4 0.000000 0.000000 0.000000 0.024821 0.000000 0.000000
# 5 0.000000 0.000000 0.000000 0.000000 0.023641 0.000000
# 6 0.000000 0.000000 0.000000 0.000000 0.000000 0.023326
#
#
# Mechanical properties :
#
#
# Convention : Reuss Voigt Hill
#
# Bulk Modulus (GPa) = 42.56277 46.17992 44.37134
# Shear Modulus (GPa) = 35.51173 39.50012 37.50593
#
# Velocity S-wave (km/s) = 3.88592 4.09833 3.99354
# Velocity P-wave (km/s) = 6.18324 6.48320 6.33500
#
# Compressibility (1/GPa) = 0.02349471
#
# Stress axis : x y z
#
# Youngs Moduli (GPa) = 115.04653 47.81995 78.53509
#
# Poissons Ratio (x) = 0.24517 -0.01980
# Poissons Ratio (y) = 0.58984 0.35704
# Poissons Ratio (z) = -0.02900 0.21740
#
# Static dielectric constant tensor:
#      x y z
#    x 1.964380 0.000000 0.000000 
#    y 0.000000 2.076790 0.000000 
#    z 0.000000 0.000000 1.916920 
# 
# From -- ./inp_files/8362.got.cif
#   From: 2010.05.17/outbox.cif.g08.bks.cpg/sg43_5_cif.got.tgz:8362.got - 2010.06.03 19:21:55.
