data_PCOD9371835
_publ_section_title
;
Structure prediction by ZEFSAII (Michael W. Deem and Ramdas Pophale) SiO2 
 PCOD9371835
Probable space group: F D D 2
;
_chemical_formula_sum "Si O2"
_cell_formula_units_Z 96
_cell_length_a 17.726620
_cell_length_b 26.981213
_cell_length_c 7.942605
_cell_angle_alpha 90.000000
_cell_angle_beta 90.000000
_cell_angle_gamma 90.000000
_cell_volume 3798.834472
_symmetry_space_group_name_H-M "F D D 2"
_symmetry_group_IT_number 43
_symmetry_cell_setting 'orthorhombic'
loop_
_space_group_symop_operation_xyz
x,y,z
-x,-y,z
1/4-x,1/4+y,1/4+z
1/4+x,1/4-y,1/4+z
x,1/2+y,1/2+z
-x,1/2-y,1/2+z
1/4-x,3/4+y,3/4+z
1/4+x,3/4-y,3/4+z
1/2+x,y,1/2+z
1/2-x,-y,1/2+z
3/4-x,1/4+y,3/4+z
3/4+x,1/4-y,3/4+z
1/2+x,1/2+y,z
1/2-x,1/2-y,z
3/4-x,3/4+y,1/4+z
3/4+x,3/4-y,1/4+z
loop_
_atom_site_type_symbol
_atom_site_label
_atom_site_fract_x
_atom_site_fract_y
_atom_site_fract_z
Si Si1 0.645668 0.170255 0.890410
Si Si2 0.471080 0.933268 0.431820
Si Si3 0.803273 0.177575 0.045752
Si Si4 0.457276 0.316521 0.886517
Si Si5 0.504925 0.724599 0.533532
Si Si6 0.396929 0.983432 0.117969
O O1 0.690988 0.189604 0.727825
O O2 0.583113 0.207067 0.957746
O O3 0.714679 0.163591 0.022767
O O4 0.569566 0.033663 0.942085
O O5 0.429562 0.947133 0.607058
O O6 0.457736 0.874507 0.410512
O O7 0.445900 0.961894 0.268725
O O8 0.852964 0.129991 0.091911
O O9 0.499884 0.300682 0.715048
O O10 0.374640 0.291458 0.868562
O O11 0.496323 0.284416 0.034926
O O12 0.435590 0.710328 0.412346
#
# Coordination Sequence:
#
# PCOD9371835 Si02
#       6
#    16  16  16  16  16  16
#     4  10  23  41  77  99 145 196 249 306 384 443
#     4  10  25  45  77 113 149 206 254 316 391 465
#     4  10  23  42  75 105 146 196 250 310 386 456
#     4  10  25  43  79 109 155 201 266 309 400 474
#     4  10  24  45  75 109 146 204 254 317 384 469
#     4  10  24  46  78 108 153 198 264 311 386 467
#
# _framework density 25.270907999999999
#
# number of rings (size 3 to 8) (size 9 to 14) (size 15 to 20)
#    2.000    0.000    0.000    2.000    7.000    0.000 
#    3.000    0.833   11.000    0.000    0.000    0.000 
#    0.000    0.000    0.000    0.000    0.000    0.000 
#
# Total GULP energy -134287.201448 kJ/mol
# GULP energy per Si atom -5595.300060 kJ/mol
# Density = 2.521339 g / cm^3
# Si number density = 25.270908 Si / 1000 Ang^3
#
#
#
# Elastic Constant Matrix: (Units=GPa)
#
#
# Indices 1 2 3 4 5 6 
#
# 1 164.7171 40.5771 58.3491 0.0000 0.0000 0.0000
# 2 40.5771 116.2841 66.0477 0.0000 0.0000 0.0000
# 3 58.3491 66.0477 175.9921 0.0000 0.0001 0.0000
# 4 0.0000 0.0000 0.0000 18.8064 0.0000 0.0000
# 5 0.0000 0.0000 0.0001 0.0000 51.6030 0.0000
# 6 0.0000 0.0000 0.0000 0.0000 0.0000 39.0064
#
#
#
# Elastic Compliance Matrix: (Units=1/GPa)
#
#
# Indices 1 2 3 4 5 6 
#
# 1 0.007064 -0.001442 -0.001801 0.000000 0.000000 0.000000
# 2 -0.001442 0.011224 -0.003734 0.000000 0.000000 0.000000
# 3 -0.001801 -0.003734 0.007680 0.000000 0.000000 0.000000
# 4 0.000000 0.000000 0.000000 0.053173 0.000000 0.000000
# 5 0.000000 0.000000 0.000000 0.000000 0.019379 0.000000
# 6 0.000000 0.000000 0.000000 0.000000 0.000000 0.025637
#
#
# Mechanical properties :
#
#
# Convention : Reuss Voigt Hill
#
# Bulk Modulus (GPa) = 83.23383 87.43791 85.33587
# Shear Modulus (GPa) = 35.18250 41.35112 38.26681
#
# Velocity S-wave (km/s) = 3.73529 4.04953 3.89558
# Velocity P-wave (km/s) = 7.18410 7.51932 7.35362
#
# Compressibility (1/GPa) = 0.01201435
#
# Stress axis : x y z
#
# Youngs Moduli (GPa) = 141.55830 89.09697 130.20058
#
# Poissons Ratio (x) = 0.12849 0.23447
# Poissons Ratio (y) = 0.20415 0.48617
# Poissons Ratio (z) = 0.25493 0.33269
#
# Static dielectric constant tensor:
#      x y z
#    x 2.050380 0.000000 0.000000 
#    y 0.000000 1.978260 0.000000 
#    z 0.000000 0.000000 2.001260 
# 
# From -- ./inp_files/3779.got.cif
#   From: 2010.05.17/outbox.cif.g08.bks.cpg/sg43_2_cif.got.tgz:3779.got - 2010.06.03 19:21:55.
