data_PCOD9371598
_publ_section_title
;
Structure prediction by ZEFSAII (Michael W. Deem and Ramdas Pophale) SiO2 
 PCOD9371598
Probable space group: F D D 2
;
_chemical_formula_sum "Si O2"
_cell_formula_units_Z 64
_cell_length_a 18.826391
_cell_length_b 25.701754
_cell_length_c 4.881277
_cell_angle_alpha 90.000000
_cell_angle_beta 90.000000
_cell_angle_gamma 90.000000
_cell_volume 2361.909702
_symmetry_space_group_name_H-M "F D D 2"
_symmetry_group_IT_number 43
_symmetry_cell_setting 'orthorhombic'
loop_
_space_group_symop_operation_xyz
x,y,z
-x,-y,z
1/4-x,1/4+y,1/4+z
1/4+x,1/4-y,1/4+z
x,1/2+y,1/2+z
-x,1/2-y,1/2+z
1/4-x,3/4+y,3/4+z
1/4+x,3/4-y,3/4+z
1/2+x,y,1/2+z
1/2-x,-y,1/2+z
3/4-x,1/4+y,3/4+z
3/4+x,1/4-y,3/4+z
1/2+x,1/2+y,z
1/2-x,1/2-y,z
3/4-x,3/4+y,1/4+z
3/4+x,3/4-y,1/4+z
loop_
_atom_site_type_symbol
_atom_site_label
_atom_site_fract_x
_atom_site_fract_y
_atom_site_fract_z
Si Si1 0.881662 0.080978 0.870510
Si Si2 0.748904 0.532323 0.643639
Si Si3 0.209591 0.321098 0.223424
Si Si4 0.848697 0.731276 0.732242
O O1 0.847152 0.132903 0.749793
O O2 0.888837 0.036380 0.634362
O O3 0.958630 0.087489 0.010745
O O4 0.819327 0.063990 0.081319
O O5 0.760798 0.479737 0.462040
O O6 0.673670 0.548839 0.520469
O O7 0.180412 0.275969 0.427073
O O8 0.206331 0.299733 0.917589
#
# Coordination Sequence:
#
# PCOD9371598 Si02
#       4
#    16  16  16  16
#     4  11  27  49  76 110 154 196 254 318 383 464
#     4  10  22  42  71  99 134 184 233 293 364 431
#     4  12  28  47  75 111 148 201 253 314 388 459
#     4  11  26  48  74 108 149 199 254 313 381 456
#
# _framework density 27.096719
#
# number of rings (size 3 to 8) (size 9 to 14) (size 15 to 20)
#    0.000    1.000    0.000    5.250    0.000   24.000 
#    0.000    0.000    0.000    0.000    0.000    0.000 
#    0.000    0.000    0.000    0.000    0.000    0.000 
#
# Total GULP energy -89601.536600 kJ/mol
# GULP energy per Si atom -5600.096037 kJ/mol
# Density = 2.703505 g / cm^3
# Si number density = 27.096719 Si / 1000 Ang^3
#
#
#
# Elastic Constant Matrix: (Units=GPa)
#
#
# Indices 1 2 3 4 5 6 
#
# 1 249.7126 34.1787 21.0839 0.1166 -0.1487 -0.0697
# 2 34.1787 118.8843 13.8705 0.0468 -0.1436 -0.0834
# 3 21.0839 13.8705 98.1940 0.1313 -0.1695 -0.0469
# 4 0.1166 0.0468 0.1313 16.9417 -0.1007 -0.0550
# 5 -0.1487 -0.1436 -0.1695 -0.1007 43.6603 0.0547
# 6 -0.0697 -0.0834 -0.0469 -0.0550 0.0547 41.1903
#
#
#
# Elastic Compliance Matrix: (Units=1/GPa)
#
#
# Indices 1 2 3 4 5 6 
#
# 1 0.004222 -0.001127 -0.000747 -0.000020 0.000008 0.000004
# 2 -0.001127 0.008853 -0.001009 -0.000009 0.000021 0.000015
# 3 -0.000747 -0.001009 0.010487 -0.000073 0.000035 0.000008
# 4 -0.000020 -0.000009 -0.000073 0.059028 0.000136 0.000079
# 5 0.000008 0.000021 0.000035 0.000136 0.022905 -0.000030
# 6 0.000004 0.000015 0.000008 0.000079 -0.000030 0.024278
#
#
# Mechanical properties :
#
#
# Convention : Reuss Voigt Hill
#
# Bulk Modulus (GPa) = 56.18911 67.22857 61.70884
# Shear Modulus (GPa) = 35.34329 46.86898 41.10613
#
# Velocity S-wave (km/s) = 3.61548 4.16347 3.89911
# Velocity P-wave (km/s) = 6.18146 6.92655 6.56458
#
# Compressibility (1/GPa) = 0.01779704
#
# Stress axis : x y z
#
# Youngs Moduli (GPa) = 236.85941 112.95428 95.35595
#
# Poissons Ratio (x) = 0.12725 0.07126
# Poissons Ratio (y) = 0.26684 0.09618
# Poissons Ratio (z) = 0.17701 0.11393
#
# Static dielectric constant tensor:
#      x y z
#    x 2.130730 0.000200 0.000130 
#    y 0.000200 2.157320 -0.000210 
#    z 0.000130 -0.000210 2.053280 
# 
# From -- ./inp_files/682.got.cif
#   From: 2010.05.17/outbox.cif.g08.bks.cpg/sg43_1_cif.got.tgz:682.got - 2010.06.03 19:21:55.
