data_PCOD9371554
_publ_section_title
;
Structure prediction by ZEFSAII (Michael W. Deem and Ramdas Pophale) SiO2 
 PCOD9371554
Probable space group: F D D 2
;
_chemical_formula_sum "Si O2"
_cell_formula_units_Z 80
_cell_length_a 15.993172
_cell_length_b 22.372550
_cell_length_c 9.340429
_cell_angle_alpha 90.000000
_cell_angle_beta 90.000000
_cell_angle_gamma 90.000000
_cell_volume 3342.080595
_symmetry_space_group_name_H-M "F D D 2"
_symmetry_group_IT_number 43
_symmetry_cell_setting 'orthorhombic'
loop_
_space_group_symop_operation_xyz
x,y,z
-x,-y,z
1/4-x,1/4+y,1/4+z
1/4+x,1/4-y,1/4+z
x,1/2+y,1/2+z
-x,1/2-y,1/2+z
1/4-x,3/4+y,3/4+z
1/4+x,3/4-y,3/4+z
1/2+x,y,1/2+z
1/2-x,-y,1/2+z
3/4-x,1/4+y,3/4+z
3/4+x,1/4-y,3/4+z
1/2+x,1/2+y,z
1/2-x,1/2-y,z
3/4-x,3/4+y,1/4+z
3/4+x,3/4-y,1/4+z
loop_
_atom_site_type_symbol
_atom_site_label
_atom_site_fract_x
_atom_site_fract_y
_atom_site_fract_z
Si Si1 0.689676 0.382627 0.673510
Si Si2 0.156704 0.326215 0.645644
Si Si3 0.846735 0.319403 0.705026
Si Si4 0.188625 0.007316 0.164526
Si Si5 0.936986 0.149732 0.429838
O O1 0.748995 0.324098 0.673149
O O2 0.650588 0.403809 0.824161
O O3 0.751951 0.436569 0.631155
O O4 0.616656 0.372058 0.562121
O O5 0.107113 0.383122 0.583103
O O6 0.124917 0.273942 0.542201
O O7 0.253357 0.344419 0.633593
O O8 0.124164 0.323700 0.807733
O O9 0.889369 0.261330 0.771392
O O10 0.247793 0.952823 0.212296
#
# Coordination Sequence:
#
# PCOD9371554 Si02
#       5
#    16  16  16  16  16
#     4  11  24  45  71 104 141 181 235 301 355 420
#     4  10  22  43  68  98 135 182 232 285 349 420
#     4  10  22  43  68  98 135 182 232 285 349 420
#     4  10  22  42  66 100 144 188 230 278 351 432
#     4  11  24  45  71 104 141 181 235 301 355 420
#
# _framework density 23.937183000000001
#
# number of rings (size 3 to 8) (size 9 to 14) (size 15 to 20)
#    0.000    1.600    0.000    6.000    0.000   12.800 
#    0.000   36.000    0.000    0.000    0.000    0.000 
#    0.000    0.000    0.000    0.000    0.000    0.000 
#
# Total GULP energy -111911.176493 kJ/mol
# GULP energy per Si atom -5595.558825 kJ/mol
# Density = 2.388270 g / cm^3
# Si number density = 23.937183 Si / 1000 Ang^3
#
#
#
# Elastic Constant Matrix: (Units=GPa)
#
#
# Indices 1 2 3 4 5 6 
#
# 1 160.5426 67.2666 75.6780 0.0000 0.0000 0.0000
# 2 67.2666 98.0342 50.9063 0.0000 0.0000 0.0000
# 3 75.6780 50.9063 131.1286 0.0000 0.0000 0.0000
# 4 0.0000 0.0000 0.0000 37.0991 0.0000 0.0000
# 5 0.0000 0.0000 0.0000 0.0000 60.8996 0.0000
# 6 0.0000 0.0000 0.0000 0.0000 0.0000 46.4887
#
#
#
# Elastic Compliance Matrix: (Units=1/GPa)
#
#
# Indices 1 2 3 4 5 6 
#
# 1 0.010149 -0.004913 -0.003950 0.000000 0.000000 0.000000
# 2 -0.004913 0.015154 -0.003048 0.000000 0.000000 0.000000
# 3 -0.003950 -0.003048 0.011089 0.000000 0.000000 0.000000
# 4 0.000000 0.000000 0.000000 0.026955 0.000000 0.000000
# 5 0.000000 0.000000 0.000000 0.000000 0.016420 0.000000
# 6 0.000000 0.000000 0.000000 0.000000 0.000000 0.021511
#
#
# Mechanical properties :
#
#
# Convention : Reuss Voigt Hill
#
# Bulk Modulus (GPa) = 79.54860 86.37859 82.96360
# Shear Modulus (GPa) = 38.67259 41.95445 40.31352
#
# Velocity S-wave (km/s) = 4.02380 4.19106 4.10828
# Velocity P-wave (km/s) = 7.40893 7.71905 7.56558
#
# Compressibility (1/GPa) = 0.01257093
#
# Stress axis : x y z
#
# Youngs Moduli (GPa) = 98.52758 65.98883 90.17855
#
# Poissons Ratio (x) = 0.32419 0.35623
# Poissons Ratio (y) = 0.48405 0.27484
# Poissons Ratio (z) = 0.38921 0.20112
#
# Static dielectric constant tensor:
#      x y z
#    x 1.912770 0.000000 0.000000 
#    y 0.000000 2.031530 0.000000 
#    z 0.000000 0.000000 1.888490 
# 
# From -- ./inp_files/2813.got.cif
#   From: 2010.05.17/outbox.cif.g08.bks.cpg/sg43_2_cif.got.tgz:2813.got - 2010.06.03 19:21:55.
