data_PCOD9371557
_publ_section_title
;
Structure prediction by ZEFSAII (Michael W. Deem and Ramdas Pophale) SiO2 
 PCOD9371557
Probable space group: F D D 2
;
_chemical_formula_sum "Si O2"
_cell_formula_units_Z 88
_cell_length_a 12.198887
_cell_length_b 25.522163
_cell_length_c 12.478666
_cell_angle_alpha 90.000000
_cell_angle_beta 90.000000
_cell_angle_gamma 90.000000
_cell_volume 3885.132611
_symmetry_space_group_name_H-M "F D D 2"
_symmetry_group_IT_number 43
_symmetry_cell_setting 'orthorhombic'
loop_
_space_group_symop_operation_xyz
x,y,z
-x,-y,z
1/4-x,1/4+y,1/4+z
1/4+x,1/4-y,1/4+z
x,1/2+y,1/2+z
-x,1/2-y,1/2+z
1/4-x,3/4+y,3/4+z
1/4+x,3/4-y,3/4+z
1/2+x,y,1/2+z
1/2-x,-y,1/2+z
3/4-x,1/4+y,3/4+z
3/4+x,1/4-y,3/4+z
1/2+x,1/2+y,z
1/2-x,1/2-y,z
3/4-x,3/4+y,1/4+z
3/4+x,3/4-y,1/4+z
loop_
_atom_site_type_symbol
_atom_site_label
_atom_site_fract_x
_atom_site_fract_y
_atom_site_fract_z
Si Si1 0.293264 0.377767 0.146050
Si Si2 0.337590 0.677578 0.273534
Si Si3 0.181101 0.112073 0.916340
Si Si4 0.000000 0.500000 0.612834
Si Si5 0.224937 0.842362 0.034591
Si Si6 0.991885 0.729979 0.292557
O O1 0.184900 0.345187 0.118535
O O2 0.369923 0.373054 0.247177
O O3 0.253751 0.438554 0.140278
O O4 0.359853 0.371431 0.035594
O O5 0.240331 0.657599 0.351155
O O6 0.295718 0.680886 0.151744
O O7 0.421980 0.629861 0.284139
O O8 0.411173 0.728450 0.298526
O O9 0.251661 0.059894 0.940815
O O10 0.992023 0.450637 0.692684
O O11 0.884389 0.501000 0.547678
#
# Coordination Sequence:
#
# PCOD9371557 Si02
#       6
#    16  16  16   8  16  16
#     4   9  21  44  62  92 134 182 226 284 353 430
#     4  12  24  40  67 103 136 183 239 299 363 436
#     4  10  22  42  66  91 142 180 225 296 354 424
#     4  10  22  46  70  98 134 186 242 302 350 450
#     4  11  24  39  71  96 139 180 238 293 366 427
#     4   9  24  42  68  99 136 180 242 284 363 434
#
# _framework density 22.650448999999998
#
# number of rings (size 3 to 8) (size 9 to 14) (size 15 to 20)
#    1.091    0.727    0.000    3.273    5.091    0.727 
#    3.273    0.000    4.000    0.000    0.000    0.000 
#    0.000    0.000    0.000    0.000    0.000    0.000 
#
# Total GULP energy -122517.580889 kJ/mol
# GULP energy per Si atom -5568.980950 kJ/mol
# Density = 2.259890 g / cm^3
# Si number density = 22.650449 Si / 1000 Ang^3
#
#
#
# Elastic Constant Matrix: (Units=GPa)
#
#
# Indices 1 2 3 4 5 6 
#
# 1 103.8268 22.2415 22.1284 0.0000 0.0000 0.0000
# 2 22.2415 74.1103 21.3575 0.0000 0.0000 0.0000
# 3 22.1284 21.3575 79.3939 0.0000 0.0000 0.0000
# 4 0.0000 0.0000 0.0000 31.0555 0.0000 0.0000
# 5 0.0000 0.0000 0.0000 0.0000 26.6746 0.0000
# 6 0.0000 0.0000 0.0000 0.0000 0.0000 36.0669
#
#
#
# Elastic Compliance Matrix: (Units=1/GPa)
#
#
# Indices 1 2 3 4 5 6 
#
# 1 0.010663 -0.002541 -0.002289 0.000000 0.000000 0.000000
# 2 -0.002541 0.015233 -0.003390 0.000000 0.000000 0.000000
# 3 -0.002289 -0.003390 0.014145 0.000000 0.000000 0.000000
# 4 0.000000 0.000000 0.000000 0.032200 0.000000 0.000000
# 5 0.000000 0.000000 0.000000 0.000000 0.037489 0.000000
# 6 0.000000 0.000000 0.000000 0.000000 0.000000 0.027726
#
#
# Mechanical properties :
#
#
# Convention : Reuss Voigt Hill
#
# Bulk Modulus (GPa) = 42.36654 43.19840 42.78247
# Shear Modulus (GPa) = 30.90952 31.53297 31.22125
#
# Velocity S-wave (km/s) = 3.69810 3.73521 3.71670
# Velocity P-wave (km/s) = 6.08109 6.14130 6.11127
#
# Compressibility (1/GPa) = 0.02360353
#
# Stress axis : x y z
#
# Youngs Moduli (GPa) = 93.77821 65.64809 70.69569
#
# Poissons Ratio (x) = 0.16679 0.16180
# Poissons Ratio (y) = 0.23826 0.23963
# Poissons Ratio (z) = 0.21462 0.22252
#
# Static dielectric constant tensor:
#      x y z
#    x 1.915390 0.000000 0.000000 
#    y 0.000000 1.884590 0.000000 
#    z 0.000000 0.000000 1.827890 
# 
# From -- ./inp_files/5740.got.cif
#   From: 2010.05.17/outbox.cif.g08.bks.cpg/sg43_3_cif.got.tgz:5740.got - 2010.06.03 19:21:55.
