data_PCOD9371448
_publ_section_title
;
Structure prediction by ZEFSAII (Michael W. Deem and Ramdas Pophale) SiO2 
 PCOD9371448
Probable space group: F D D 2
;
_chemical_formula_sum "Si O2"
_cell_formula_units_Z 120
_cell_length_a 25.231016
_cell_length_b 14.927469
_cell_length_c 15.752246
_cell_angle_alpha 90.000000
_cell_angle_beta 90.000000
_cell_angle_gamma 90.000000
_cell_volume 5932.850467
_symmetry_space_group_name_H-M "F D D 2"
_symmetry_group_IT_number 43
_symmetry_cell_setting 'orthorhombic'
loop_
_space_group_symop_operation_xyz
x,y,z
-x,-y,z
1/4-x,1/4+y,1/4+z
1/4+x,1/4-y,1/4+z
x,1/2+y,1/2+z
-x,1/2-y,1/2+z
1/4-x,3/4+y,3/4+z
1/4+x,3/4-y,3/4+z
1/2+x,y,1/2+z
1/2-x,-y,1/2+z
3/4-x,1/4+y,3/4+z
3/4+x,1/4-y,3/4+z
1/2+x,1/2+y,z
1/2-x,1/2-y,z
3/4-x,3/4+y,1/4+z
3/4+x,3/4-y,1/4+z
loop_
_atom_site_type_symbol
_atom_site_label
_atom_site_fract_x
_atom_site_fract_y
_atom_site_fract_z
Si Si1 0.897538 0.823696 0.627680
Si Si2 0.250000 0.250000 0.059510
Si Si3 0.673694 0.023948 0.195692
Si Si4 0.111102 0.916843 0.841404
Si Si5 0.011052 0.594486 0.025982
Si Si6 0.215012 0.940368 0.524882
Si Si7 0.553545 0.046966 0.843942
Si Si8 0.171721 0.983436 0.009179
O O1 0.869265 0.917318 0.646208
O O2 0.950793 0.840473 0.576723
O O3 0.915575 0.781115 0.717290
O O4 0.854404 0.764260 0.580500
O O5 0.199607 0.201241 0.102703
O O6 0.221154 0.333499 0.015284
O O7 0.711365 0.096649 0.243277
O O8 0.642729 0.962823 0.263131
O O9 0.705606 0.969084 0.122874
O O10 0.106741 0.811807 0.814438
O O11 0.140921 0.950165 0.925783
O O12 0.000000 0.500000 0.073595
O O13 0.042484 0.559314 0.943538
O O14 0.269884 0.978524 0.489248
O O15 0.565869 0.144533 0.810969
O O16 0.500000 0.000000 0.808835
#
# Coordination Sequence:
#
# PCOD9371448 Si02
#       8
#    16   8  16  16  16  16  16  16
#     4  12  24  38  73  99 132 178 228 280 349 402
#     4  10  22  40  64  96 138 170 222 280 330 422
#     4  12  23  43  67  99 140 174 223 294 341 415
#     4  11  25  43  71 101 140 185 233 281 360 419
#     4  11  24  42  66 102 136 174 230 291 343 408
#     4  11  23  42  65 100 135 176 223 283 346 407
#     4  11  23  46  66  98 135 176 231 289 345 405
#     4  11  25  46  69  98 142 187 229 290 347 436
#
# _framework density 20.226365000000001
#
# number of rings (size 3 to 8) (size 9 to 14) (size 15 to 20)
#    0.000    0.800    5.333    2.400    2.800    0.000 
#    0.000    1.333    1.467    0.000    0.000    0.000 
#    0.000    0.000    0.000    0.000    0.000    0.000 
#
# Total GULP energy -167358.363264 kJ/mol
# GULP energy per Si atom -5578.612109 kJ/mol
# Density = 2.018033 g / cm^3
# Si number density = 20.226365 Si / 1000 Ang^3
#
#
#
# Elastic Constant Matrix: (Units=GPa)
#
#
# Indices 1 2 3 4 5 6 
#
# 1 101.9237 43.3360 34.3306 0.0000 0.0000 0.0000
# 2 43.3360 139.6766 39.7703 0.0000 0.0000 0.0000
# 3 34.3306 39.7703 52.4014 0.0000 0.0000 0.0000
# 4 0.0000 0.0000 0.0000 24.2068 0.0000 0.0000
# 5 0.0000 0.0000 0.0000 0.0000 18.2981 0.0000
# 6 0.0000 0.0000 0.0000 0.0000 0.0000 40.6994
#
#
#
# Elastic Compliance Matrix: (Units=1/GPa)
#
#
# Indices 1 2 3 4 5 6 
#
# 1 0.013037 -0.002058 -0.006980 0.000000 0.000000 0.000000
# 2 -0.002058 0.009458 -0.005830 0.000000 0.000000 0.000000
# 3 -0.006980 -0.005830 0.028081 0.000000 0.000000 0.000000
# 4 0.000000 0.000000 0.000000 0.041311 0.000000 0.000000
# 5 0.000000 0.000000 0.000000 0.000000 0.054651 0.000000
# 6 0.000000 0.000000 0.000000 0.000000 0.000000 0.024570
#
#
# Mechanical properties :
#
#
# Convention : Reuss Voigt Hill
#
# Bulk Modulus (GPa) = 47.98161 58.76393 53.37277
# Shear Modulus (GPa) = 24.06294 28.41186 26.23740
#
# Velocity S-wave (km/s) = 3.45292 3.75199 3.60556
# Velocity P-wave (km/s) = 6.29847 6.91998 6.61652
#
# Compressibility (1/GPa) = 0.02084132
#
# Stress axis : x y z
#
# Youngs Moduli (GPa) = 76.70489 105.73330 35.61157
#
# Poissons Ratio (x) = 0.21755 0.24855
# Poissons Ratio (y) = 0.15782 0.20762
# Poissons Ratio (z) = 0.53536 0.61643
#
# Static dielectric constant tensor:
#      x y z
#    x 1.745660 0.000000 0.000000 
#    y 0.000000 1.778810 0.000000 
#    z 0.000000 0.000000 1.732920 
# 
# From -- ./inp_files/14876.got.cif
#   From: 2010.05.17/outbox.cif.g08.bks.cpg/sg43_8_cif.got.tgz:14876.got - 2010.06.03 19:21:55.
