data_PCOD9371789
_publ_section_title
;
Structure prediction by ZEFSAII (Michael W. Deem and Ramdas Pophale) SiO2 
 PCOD9371789
Probable space group: F D D 2
;
_chemical_formula_sum "Si O2"
_cell_formula_units_Z 80
_cell_length_a 28.557693
_cell_length_b 8.235457
_cell_length_c 13.576009
_cell_angle_alpha 90.000000
_cell_angle_beta 90.000000
_cell_angle_gamma 90.000000
_cell_volume 3192.882538
_symmetry_space_group_name_H-M "F D D 2"
_symmetry_group_IT_number 43
_symmetry_cell_setting 'orthorhombic'
loop_
_space_group_symop_operation_xyz
x,y,z
-x,-y,z
1/4-x,1/4+y,1/4+z
1/4+x,1/4-y,1/4+z
x,1/2+y,1/2+z
-x,1/2-y,1/2+z
1/4-x,3/4+y,3/4+z
1/4+x,3/4-y,3/4+z
1/2+x,y,1/2+z
1/2-x,-y,1/2+z
3/4-x,1/4+y,3/4+z
3/4+x,1/4-y,3/4+z
1/2+x,1/2+y,z
1/2-x,1/2-y,z
3/4-x,3/4+y,1/4+z
3/4+x,3/4-y,1/4+z
loop_
_atom_site_type_symbol
_atom_site_label
_atom_site_fract_x
_atom_site_fract_y
_atom_site_fract_z
Si Si1 0.845068 0.279584 0.756780
Si Si2 0.500000 0.000000 0.852470
Si Si3 0.580432 0.957398 0.151793
Si Si4 0.750000 0.750000 0.294092
Si Si5 0.514385 0.731108 0.693462
Si Si6 0.843375 0.634339 0.693371
O O1 0.883817 0.163398 0.706173
O O2 0.796640 0.177276 0.747963
O O3 0.830717 0.444674 0.702585
O O4 0.868848 0.355908 0.856232
O O5 0.498356 0.163987 0.788084
O O6 0.548313 0.015157 0.909415
O O7 0.531424 0.857519 0.148885
O O8 0.558759 0.114634 0.207863
O O9 0.602102 0.030917 0.050320
O O10 0.725879 0.617804 0.363123
#
# Coordination Sequence:
#
# PCOD9371789 Si02
#       6
#    16   8  16   8  16  16
#     4  12  28  52  78 124 165 225 284 352 424 511
#     4  11  24  52  86 123 168 214 277 350 428 520
#     4  11  24  52  84 123 167 216 280 348 432 510
#     4  11  24  50  78 111 170 214 273 348 416 496
#     4  10  22  48  85 120 166 213 264 355 423 506
#     4  12  28  51  83 123 163 226 281 344 437 514
#
# _framework density 25.055731000000002
#
# number of rings (size 3 to 8) (size 9 to 14) (size 15 to 20)
#    0.000    0.800    4.000    2.400    2.800    3.200 
#    3.600    0.000    0.000    0.000    0.000    0.000 
#    0.000    0.000    0.000    0.000    0.000    0.000 
#
# Total GULP energy -111444.217275 kJ/mol
# GULP energy per Si atom -5572.210864 kJ/mol
# Density = 2.499870 g / cm^3
# Si number density = 25.055731 Si / 1000 Ang^3
#
#
#
# Elastic Constant Matrix: (Units=GPa)
#
#
# Indices 1 2 3 4 5 6 
#
# 1 188.6889 35.3973 62.1373 0.0000 0.0000 0.0000
# 2 35.3973 123.3134 41.4907 0.0000 0.0000 0.0000
# 3 62.1373 41.4907 85.0709 0.0000 0.0000 0.0000
# 4 0.0000 0.0000 0.0000 43.1236 0.0000 0.0000
# 5 0.0000 0.0000 0.0000 0.0000 7.6250 0.0000
# 6 0.0000 0.0000 0.0000 0.0000 0.0000 68.9235
#
#
#
# Elastic Compliance Matrix: (Units=1/GPa)
#
#
# Indices 1 2 3 4 5 6 
#
# 1 0.006991 -0.000345 -0.004938 0.000000 0.000000 0.000000
# 2 -0.000345 0.009718 -0.004488 0.000000 0.000000 0.000000
# 3 -0.004938 -0.004488 0.017550 0.000000 0.000000 0.000000
# 4 0.000000 0.000000 0.000000 0.023189 0.000000 0.000000
# 5 0.000000 0.000000 0.000000 0.000000 0.131148 0.000000
# 6 0.000000 0.000000 0.000000 0.000000 0.000000 0.014509
#
#
# Mechanical properties :
#
#
# Convention : Reuss Voigt Hill
#
# Bulk Modulus (GPa) = 67.94405 75.01376 71.47890
# Shear Modulus (GPa) = 21.97301 41.13759 31.55530
#
# Velocity S-wave (km/s) = 2.96457 4.05636 3.55266
# Velocity P-wave (km/s) = 6.23653 7.20712 6.73932
#
# Compressibility (1/GPa) = 0.01471799
#
# Stress axis : x y z
#
# Youngs Moduli (GPa) = 143.05114 102.89660 56.97965
#
# Poissons Ratio (x) = 0.03553 0.28134
# Poissons Ratio (y) = 0.04940 0.25571
# Poissons Ratio (z) = 0.70633 0.46177
#
# Static dielectric constant tensor:
#      x y z
#    x 2.043840 0.000000 0.000000 
#    y 0.000000 2.038310 0.000000 
#    z 0.000000 0.000000 2.135070 
# 
# From -- ./inp_files/15200.got.cif
#   From: 2010.05.17/outbox.cif.g08.bks.cpg/sg43_8_cif.got.tgz:15200.got - 2010.06.03 19:21:55.
