data_PCOD9371848
_publ_section_title
;
Structure prediction by ZEFSAII (Michael W. Deem and Ramdas Pophale) SiO2 
 PCOD9371848
Probable space group: F D D 2
;
_chemical_formula_sum "Si O2"
_cell_formula_units_Z 112
_cell_length_a 13.518098
_cell_length_b 25.102344
_cell_length_c 14.562094
_cell_angle_alpha 90.000000
_cell_angle_beta 90.000000
_cell_angle_gamma 90.000000
_cell_volume 4941.441946
_symmetry_space_group_name_H-M "F D D 2"
_symmetry_group_IT_number 43
_symmetry_cell_setting 'orthorhombic'
loop_
_space_group_symop_operation_xyz
x,y,z
-x,-y,z
1/4-x,1/4+y,1/4+z
1/4+x,1/4-y,1/4+z
x,1/2+y,1/2+z
-x,1/2-y,1/2+z
1/4-x,3/4+y,3/4+z
1/4+x,3/4-y,3/4+z
1/2+x,y,1/2+z
1/2-x,-y,1/2+z
3/4-x,1/4+y,3/4+z
3/4+x,1/4-y,3/4+z
1/2+x,1/2+y,z
1/2-x,1/2-y,z
3/4-x,3/4+y,1/4+z
3/4+x,3/4-y,1/4+z
loop_
_atom_site_type_symbol
_atom_site_label
_atom_site_fract_x
_atom_site_fract_y
_atom_site_fract_z
Si Si1 0.750000 0.250000 0.344050
Si Si2 0.966709 0.394606 0.689629
Si Si3 0.569451 0.658111 0.367113
Si Si4 0.106732 0.152410 0.011455
Si Si5 0.554936 0.763113 0.968586
Si Si6 0.422222 0.571322 0.441055
Si Si7 0.000000 0.000000 0.296922
Si Si8 0.676156 0.852110 0.061585
O O1 0.649924 0.255707 0.401354
O O2 0.763149 0.299918 0.276154
O O3 0.922364 0.349861 0.757880
O O4 0.917716 0.389208 0.590983
O O5 0.957901 0.452153 0.736702
O O6 0.083332 0.388472 0.669208
O O7 0.534999 0.714441 0.407642
O O8 0.480279 0.618284 0.390918
O O9 0.217201 0.171894 0.037574
O O10 0.039553 0.205545 0.013356
O O11 0.090334 0.125552 0.912602
O O12 0.591071 0.809049 0.038607
O O13 0.417244 0.524774 0.365940
O O14 0.329924 0.598572 0.489237
#
# Coordination Sequence:
#
# PCOD9371848 Si02
#       8
#     8  16  16  16  16  16   8  16
#     4  11  16  38  63 100 130 160 209 288 334 409
#     4  11  24  46  65  98 141 180 233 278 345 423
#     4  10  23  42  69  97 128 179 227 288 340 402
#     4  12  25  44  67  97 143 183 226 285 341 423
#     4  11  22  40  69  97 136 172 228 282 346 407
#     4   9  19  36  71  97 128 163 223 290 339 396
#     4   9  22  42  65  96 132 180 217 280 348 401
#     4  11  22  43  66 103 131 179 228 286 351 404
#
# _framework density 22.665448999999999
#
# number of rings (size 3 to 8) (size 9 to 14) (size 15 to 20)
#    0.000    1.429    2.857    1.714    0.000    9.143 
#    7.714    1.429    0.000    0.000    0.000    0.000 
#    0.000    0.000    0.000    0.000    0.000    0.000 
#
# Total GULP energy -156415.428862 kJ/mol
# GULP energy per Si atom -5586.265317 kJ/mol
# Density = 2.261386 g / cm^3
# Si number density = 22.665449 Si / 1000 Ang^3
#
#
#
# Elastic Constant Matrix: (Units=GPa)
#
#
# Indices 1 2 3 4 5 6 
#
# 1 35.4658 -5.4485 15.6125 0.0000 0.0000 0.0000
# 2 -5.4485 84.6983 64.1550 0.0000 0.0000 0.0000
# 3 15.6125 64.1550 136.4107 0.0000 0.0000 0.0000
# 4 0.0000 0.0000 0.0000 23.3550 0.0000 0.0000
# 5 0.0000 0.0000 0.0000 0.0000 18.4171 0.0000
# 6 0.0000 0.0000 0.0000 0.0000 0.0000 28.8164
#
#
#
# Elastic Compliance Matrix: (Units=1/GPa)
#
#
# Indices 1 2 3 4 5 6 
#
# 1 0.032596 0.007647 -0.007327 0.000000 0.000000 0.000000
# 2 0.007647 0.020134 -0.010344 0.000000 0.000000 0.000000
# 3 -0.007327 -0.010344 0.013034 0.000000 0.000000 0.000000
# 4 0.000000 0.000000 0.000000 0.042817 0.000000 0.000000
# 5 0.000000 0.000000 0.000000 0.000000 0.054297 0.000000
# 6 0.000000 0.000000 0.000000 0.000000 0.000000 0.034702
#
#
# Mechanical properties :
#
#
# Convention : Reuss Voigt Hill
#
# Bulk Modulus (GPa) = 21.87440 45.02364 33.44902
# Shear Modulus (GPa) = 21.47123 26.26807 23.86965
#
# Velocity S-wave (km/s) = 3.08118 3.40803 3.24872
# Velocity P-wave (km/s) = 4.72548 5.94926 5.37233
#
# Compressibility (1/GPa) = 0.04571555
#
# Stress axis : x y z
#
# Youngs Moduli (GPa) = 30.67819 49.66761 76.72003
#
# Poissons Ratio (x) = -0.37980 0.56214
# Poissons Ratio (y) = -0.23459 0.79361
# Poissons Ratio (z) = 0.22478 0.51378
#
# Static dielectric constant tensor:
#      x y z
#    x 1.881510 0.000000 0.000000 
#    y 0.000000 1.896830 0.000000 
#    z 0.000000 0.000000 1.849060 
# 
# From -- ./inp_files/10225.got.cif
#   From: 2010.05.17/outbox.cif.g08.bks.cpg/sg43_6_cif.got.tgz:10225.got - 2010.06.03 19:21:55.
