data_PCOD9371603
_publ_section_title
;
Structure prediction by ZEFSAII (Michael W. Deem and Ramdas Pophale) SiO2 
 PCOD9371603
Probable space group: F D D 2
;
_chemical_formula_sum "Si O2"
_cell_formula_units_Z 96
_cell_length_a 10.700186
_cell_length_b 24.423773
_cell_length_c 16.101027
_cell_angle_alpha 90.000000
_cell_angle_beta 90.000000
_cell_angle_gamma 90.000000
_cell_volume 4207.824909
_symmetry_space_group_name_H-M "F D D 2"
_symmetry_group_IT_number 43
_symmetry_cell_setting 'orthorhombic'
loop_
_space_group_symop_operation_xyz
x,y,z
-x,-y,z
1/4-x,1/4+y,1/4+z
1/4+x,1/4-y,1/4+z
x,1/2+y,1/2+z
-x,1/2-y,1/2+z
1/4-x,3/4+y,3/4+z
1/4+x,3/4-y,3/4+z
1/2+x,y,1/2+z
1/2-x,-y,1/2+z
3/4-x,1/4+y,3/4+z
3/4+x,1/4-y,3/4+z
1/2+x,1/2+y,z
1/2-x,1/2-y,z
3/4-x,3/4+y,1/4+z
3/4+x,3/4-y,1/4+z
loop_
_atom_site_type_symbol
_atom_site_label
_atom_site_fract_x
_atom_site_fract_y
_atom_site_fract_z
Si Si1 0.958462 0.646639 0.086260
Si Si2 0.940399 0.860089 0.406094
Si Si3 0.661034 0.793007 0.887975
Si Si4 0.266657 0.009992 0.284977
Si Si5 0.822882 0.159785 0.991271
Si Si6 0.702361 0.188730 0.657458
O O1 0.023957 0.706457 0.086849
O O2 0.816947 0.659372 0.110607
O O3 0.011497 0.599070 0.144004
O O4 0.988313 0.627039 0.992446
O O5 0.802539 0.842824 0.436713
O O6 0.946457 0.908624 0.340524
O O7 0.024061 0.813362 0.359635
O O8 0.750000 0.750000 0.841070
O O9 0.622073 0.763044 0.972750
O O10 0.159677 0.037439 0.230074
O O11 0.336755 0.051296 0.345472
O O12 0.903629 0.104841 0.974015
O O13 0.750000 0.250000 0.683411
#
# Coordination Sequence:
#
# PCOD9371603 Si02
#       6
#    16  16  16  16  16  16
#     4  10  22  43  70 104 141 192 255 305 365 447
#     4  11  24  45  72 105 149 186 252 301 373 442
#     4  11  22  43  70 103 141 189 250 302 368 441
#     4  10  22  42  73 103 149 193 245 308 378 437
#     4  12  23  47  72 108 154 195 244 321 371 449
#     4  10  22  43  71 105 145 198 252 307 372 452
#
# _framework density 22.814637000000001
#
# number of rings (size 3 to 8) (size 9 to 14) (size 15 to 20)
#    0.000    1.333    3.333    3.500    0.000    2.667 
#    6.000   10.000    0.000    0.000    0.000    0.000 
#    0.000    0.000    0.000    0.000    0.000    0.000 
#
# Total GULP energy -133762.260560 kJ/mol
# GULP energy per Si atom -5573.427523 kJ/mol
# Density = 2.276271 g / cm^3
# Si number density = 22.814637 Si / 1000 Ang^3
#
#
#
# Elastic Constant Matrix: (Units=GPa)
#
#
# Indices 1 2 3 4 5 6 
#
# 1 146.8302 69.7345 23.1564 0.0000 0.0000 0.0000
# 2 69.7345 109.5993 20.5115 0.0000 0.0000 0.0000
# 3 23.1564 20.5115 49.0349 0.0000 0.0000 0.0000
# 4 0.0000 0.0000 0.0000 27.6729 0.0000 0.0000
# 5 0.0000 0.0000 0.0000 0.0000 32.5972 0.0000
# 6 0.0000 0.0000 0.0000 0.0000 0.0000 50.2150
#
#
#
# Elastic Compliance Matrix: (Units=1/GPa)
#
#
# Indices 1 2 3 4 5 6 
#
# 1 0.009980 -0.005932 -0.002231 0.000000 0.000000 0.000000
# 2 -0.005932 0.013425 -0.002814 0.000000 0.000000 0.000000
# 3 -0.002231 -0.002814 0.022625 0.000000 0.000000 0.000000
# 4 0.000000 0.000000 0.000000 0.036136 0.000000 0.000000
# 5 0.000000 0.000000 0.000000 0.000000 0.030677 0.000000
# 6 0.000000 0.000000 0.000000 0.000000 0.000000 0.019914
#
#
# Mechanical properties :
#
#
# Convention : Reuss Voigt Hill
#
# Bulk Modulus (GPa) = 41.53908 59.14101 50.34005
# Shear Modulus (GPa) = 30.72400 34.90116 32.81258
#
# Velocity S-wave (km/s) = 3.67369 3.91547 3.79651
# Velocity P-wave (km/s) = 6.02009 6.81321 6.42889
#
# Compressibility (1/GPa) = 0.02407371
#
# Stress axis : x y z
#
# Youngs Moduli (GPa) = 100.20089 74.48575 44.19952
#
# Poissons Ratio (x) = 0.44187 0.09863
# Poissons Ratio (y) = 0.59442 0.12439
# Poissons Ratio (z) = 0.22359 0.20963
#
# Static dielectric constant tensor:
#      x y z
#    x 1.909000 0.000000 0.000000 
#    y 0.000000 1.946190 0.000000 
#    z 0.000000 0.000000 1.876900 
# 
# From -- ./inp_files/13313.got.cif
#   From: 2010.05.17/outbox.cif.g08.bks.cpg/sg43_7_cif.got.tgz:13313.got - 2010.06.03 19:21:55.
