data_PCOD9371658
_publ_section_title
;
Structure prediction by ZEFSAII (Michael W. Deem and Ramdas Pophale) SiO2 
 PCOD9371658
Probable space group: F D D 2
;
_chemical_formula_sum "Si O2"
_cell_formula_units_Z 88
_cell_length_a 21.406470
_cell_length_b 11.563497
_cell_length_c 15.812890
_cell_angle_alpha 90.000000
_cell_angle_beta 90.000000
_cell_angle_gamma 90.000000
_cell_volume 3914.222404
_symmetry_space_group_name_H-M "F D D 2"
_symmetry_group_IT_number 43
_symmetry_cell_setting 'orthorhombic'
loop_
_space_group_symop_operation_xyz
x,y,z
-x,-y,z
1/4-x,1/4+y,1/4+z
1/4+x,1/4-y,1/4+z
x,1/2+y,1/2+z
-x,1/2-y,1/2+z
1/4-x,3/4+y,3/4+z
1/4+x,3/4-y,3/4+z
1/2+x,y,1/2+z
1/2-x,-y,1/2+z
3/4-x,1/4+y,3/4+z
3/4+x,1/4-y,3/4+z
1/2+x,1/2+y,z
1/2-x,1/2-y,z
3/4-x,3/4+y,1/4+z
3/4+x,3/4-y,1/4+z
loop_
_atom_site_type_symbol
_atom_site_label
_atom_site_fract_x
_atom_site_fract_y
_atom_site_fract_z
Si Si1 0.165977 0.000736 0.913210
Si Si2 0.000000 0.500000 0.288136
Si Si3 0.511920 0.248961 0.375120
Si Si4 0.627464 0.745484 0.355378
Si Si5 0.444231 0.208548 0.695677
Si Si6 0.127785 0.572702 0.239497
O O1 0.151606 0.869537 0.884380
O O2 0.240493 0.013730 0.916292
O O3 0.139155 0.081676 0.839967
O O4 0.134395 0.005347 0.005107
O O5 0.995866 0.384368 0.344443
O O6 0.936423 0.500904 0.234336
O O7 0.440874 0.284248 0.394305
O O8 0.539191 0.318672 0.293906
O O9 0.561258 0.267042 0.448919
O O10 0.674453 0.647630 0.387747
O O11 0.390091 0.304586 0.699340
#
# Coordination Sequence:
#
# PCOD9371658 Si02
#       6
#    16   8  16  16  16  16
#     4  11  26  46  75 109 142 195 248 297 365 445
#     4  10  22  44  64 104 140 188 248 306 340 452
#     4  10  24  43  73 102 145 187 245 295 374 432
#     4  11  25  48  73 108 144 189 247 304 363 441
#     4  10  26  45  69 106 150 186 242 305 367 441
#     4  11  25  43  73 103 146 190 239 304 373 432
#
# _framework density 22.482116000000001
#
# number of rings (size 3 to 8) (size 9 to 14) (size 15 to 20)
#    0.000    1.455    1.818    0.545   10.182    0.727 
#    0.000    1.818    0.000    0.000    0.000    0.000 
#    0.000    0.000    0.000    0.000    0.000    0.000 
#
# Total GULP energy -123024.267077 kJ/mol
# GULP energy per Si atom -5592.012140 kJ/mol
# Density = 2.243095 g / cm^3
# Si number density = 22.482116 Si / 1000 Ang^3
#
#
#
# Elastic Constant Matrix: (Units=GPa)
#
#
# Indices 1 2 3 4 5 6 
#
# 1 86.9314 -8.3701 32.5948 0.0000 0.0000 0.0000
# 2 -8.3701 68.6463 29.3970 0.0000 0.0000 0.0000
# 3 32.5948 29.3970 79.8476 0.0000 0.0000 0.0000
# 4 0.0000 0.0000 0.0000 24.1454 0.0000 0.0000
# 5 0.0000 0.0000 0.0000 0.0000 45.5692 0.0000
# 6 0.0000 0.0000 0.0000 0.0000 0.0000 39.8807
#
#
#
# Elastic Compliance Matrix: (Units=1/GPa)
#
#
# Indices 1 2 3 4 5 6 
#
# 1 0.015049 0.005302 -0.008095 0.000000 0.000000 0.000000
# 2 0.005302 0.019162 -0.009219 0.000000 0.000000 0.000000
# 3 -0.008095 -0.009219 0.019222 0.000000 0.000000 0.000000
# 4 0.000000 0.000000 0.000000 0.041416 0.000000 0.000000
# 5 0.000000 0.000000 0.000000 0.000000 0.021945 0.000000
# 6 0.000000 0.000000 0.000000 0.000000 0.000000 0.025075
#
#
# Mechanical properties :
#
#
# Convention : Reuss Voigt Hill
#
# Bulk Modulus (GPa) = 34.00379 38.07431 36.03905
# Shear Modulus (GPa) = 28.45831 34.03929 31.24880
#
# Velocity S-wave (km/s) = 3.56170 3.89531 3.73224
# Velocity P-wave (km/s) = 5.66320 6.09946 5.88538
#
# Compressibility (1/GPa) = 0.02940849
#
# Stress axis : x y z
#
# Youngs Moduli (GPa) = 66.44966 52.18751 52.02277
#
# Poissons Ratio (x) = -0.27667 0.42112
# Poissons Ratio (y) = -0.35228 0.47959
# Poissons Ratio (z) = 0.53791 0.48111
#
# Static dielectric constant tensor:
#      x y z
#    x 1.862980 0.000000 0.000000 
#    y 0.000000 1.854970 0.000000 
#    z 0.000000 0.000000 1.849200 
# 
# From -- ./inp_files/10034.got.cif
#   From: 2010.05.17/outbox.cif.g08.bks.cpg/sg43_6_cif.got.tgz:10034.got - 2010.06.03 19:21:55.
