data_PCOD9371529
_publ_section_title
;
Structure prediction by ZEFSAII (Michael W. Deem and Ramdas Pophale) SiO2 
 PCOD9371529
Probable space group: F D D 2
;
_chemical_formula_sum "Si O2"
_cell_formula_units_Z 88
_cell_length_a 5.009353
_cell_length_b 35.117506
_cell_length_c 22.818385
_cell_angle_alpha 90.000000
_cell_angle_beta 90.000000
_cell_angle_gamma 90.000000
_cell_volume 4014.118651
_symmetry_space_group_name_H-M "F D D 2"
_symmetry_group_IT_number 43
_symmetry_cell_setting 'orthorhombic'
loop_
_space_group_symop_operation_xyz
x,y,z
-x,-y,z
1/4-x,1/4+y,1/4+z
1/4+x,1/4-y,1/4+z
x,1/2+y,1/2+z
-x,1/2-y,1/2+z
1/4-x,3/4+y,3/4+z
1/4+x,3/4-y,3/4+z
1/2+x,y,1/2+z
1/2-x,-y,1/2+z
3/4-x,1/4+y,3/4+z
3/4+x,1/4-y,3/4+z
1/2+x,1/2+y,z
1/2-x,1/2-y,z
3/4-x,3/4+y,1/4+z
3/4+x,3/4-y,1/4+z
loop_
_atom_site_type_symbol
_atom_site_label
_atom_site_fract_x
_atom_site_fract_y
_atom_site_fract_z
Si Si1 0.000000 0.000000 0.949550
Si Si2 0.500000 0.000000 0.864283
Si Si3 0.500000 0.500000 0.144948
Si Si4 0.878902 0.603039 0.082117
Si Si5 0.368596 0.060162 0.547276
Si Si6 0.353373 0.570451 0.283560
Si Si7 0.158832 0.936778 0.705178
O O1 0.249857 0.999445 0.907028
O O2 0.027674 0.963538 0.992046
O O3 0.533407 0.963311 0.823260
O O4 0.364676 0.530671 0.101815
O O5 0.289104 0.476116 0.182409
O O6 0.577846 0.593217 0.063670
O O7 0.907685 0.589145 0.148943
O O8 0.074144 0.576963 0.042461
O O9 0.979208 0.645535 0.071815
O O10 0.602185 0.582297 0.242621
O O11 0.106711 0.557358 0.242852
#
# Coordination Sequence:
#
# PCOD9371529 Si02
#       7
#     8   8   8  16  16  16  16
#     4  11  24  44  67  96 133 178 212 267 334 386
#     4  12  27  44  65  94 135 176 219 264 322 406
#     4   9  21  40  68 102 128 162 221 271 324 388
#     4  11  24  43  66 100 131 170 224 274 323 387
#     4  10  22  41  70  99 129 167 222 276 322 380
#     4  12  27  44  65  97 133 174 222 265 327 401
#     4  11  24  43  70  95 132 174 211 278 334 377
#
# _framework density 21.922619999999998
#
# number of rings (size 3 to 8) (size 9 to 14) (size 15 to 20)
#    0.000    1.091    0.000    6.000    0.000   16.727 
#    0.000    1.818    0.000    0.000    0.000    0.000 
#    0.000    0.000    0.000    0.000    0.000    0.000 
#
# Total GULP energy -123184.312764 kJ/mol
# GULP energy per Si atom -5599.286944 kJ/mol
# Density = 2.187272 g / cm^3
# Si number density = 21.922620 Si / 1000 Ang^3
#
#
#
# Elastic Constant Matrix: (Units=GPa)
#
#
# Indices 1 2 3 4 5 6 
#
# 1 107.2323 10.7489 52.6819 0.0000 0.0000 0.0000
# 2 10.7489 117.6820 58.8916 0.0000 0.0000 0.0000
# 3 52.6819 58.8916 133.7599 0.0000 0.0000 0.0000
# 4 0.0000 0.0000 0.0000 14.3204 0.0000 0.0000
# 5 0.0000 0.0000 0.0000 0.0000 44.0163 0.0000
# 6 0.0000 0.0000 0.0000 0.0000 0.0000 35.0387
#
#
#
# Elastic Compliance Matrix: (Units=1/GPa)
#
#
# Indices 1 2 3 4 5 6 
#
# 1 0.011793 0.001600 -0.005349 0.000000 0.000000 0.000000
# 2 0.001600 0.011116 -0.005524 0.000000 0.000000 0.000000
# 3 -0.005349 -0.005524 0.012015 0.000000 0.000000 0.000000
# 4 0.000000 0.000000 0.000000 0.069830 0.000000 0.000000
# 5 0.000000 0.000000 0.000000 0.000000 0.022719 0.000000
# 6 0.000000 0.000000 0.000000 0.000000 0.000000 0.028540
#
#
# Mechanical properties :
#
#
# Convention : Reuss Voigt Hill
#
# Bulk Modulus (GPa) = 61.06155 67.03546 64.04851
# Shear Modulus (GPa) = 27.77486 34.43188 31.10337
#
# Velocity S-wave (km/s) = 3.56329 3.96739 3.77076
# Velocity P-wave (km/s) = 6.69649 7.18551 6.94531
#
# Compressibility (1/GPa) = 0.01637692
#
# Stress axis : x y z
#
# Youngs Moduli (GPa) = 84.79508 89.96222 83.22951
#
# Poissons Ratio (x) = -0.14391 0.44520
# Poissons Ratio (y) = -0.13564 0.45977
# Poissons Ratio (z) = 0.45358 0.49696
#
# Static dielectric constant tensor:
#      x y z
#    x 1.762210 0.000000 0.000000 
#    y 0.000000 1.807310 0.000000 
#    z 0.000000 0.000000 1.803380 
# 
# From -- ./inp_files/19585.got.cif
#   From: 2010.05.17/outbox.cif.g08.bks.cpg/sg43_10_cif.got.tgz:19585.got - 2010.06.03 19:21:55.
