data_PCOD9371028
_publ_section_title
;
Structure prediction by ZEFSAII (Michael W. Deem and Ramdas Pophale) SiO2 
 PCOD9371028
Probable space group: F D D 2
;
_chemical_formula_sum "Si O2"
_cell_formula_units_Z 128
_cell_length_a 12.500369
_cell_length_b 25.541640
_cell_length_c 20.983975
_cell_angle_alpha 90.000000
_cell_angle_beta 90.000000
_cell_angle_gamma 90.000000
_cell_volume 6699.761961
_symmetry_space_group_name_H-M "F D D 2"
_symmetry_group_IT_number 43
_symmetry_cell_setting 'orthorhombic'
loop_
_space_group_symop_operation_xyz
x,y,z
-x,-y,z
1/4-x,1/4+y,1/4+z
1/4+x,1/4-y,1/4+z
x,1/2+y,1/2+z
-x,1/2-y,1/2+z
1/4-x,3/4+y,3/4+z
1/4+x,3/4-y,3/4+z
1/2+x,y,1/2+z
1/2-x,-y,1/2+z
3/4-x,1/4+y,3/4+z
3/4+x,1/4-y,3/4+z
1/2+x,1/2+y,z
1/2-x,1/2-y,z
3/4-x,3/4+y,1/4+z
3/4+x,3/4-y,1/4+z
loop_
_atom_site_type_symbol
_atom_site_label
_atom_site_fract_x
_atom_site_fract_y
_atom_site_fract_z
Si Si1 0.338799 0.907793 0.449460
Si Si2 0.208876 0.477058 0.430127
Si Si3 0.411201 0.342207 0.806678
Si Si4 0.624672 0.513171 0.179983
Si Si5 0.549477 0.881178 0.418101
Si Si6 0.124672 0.986829 0.326156
Si Si7 0.700523 0.368822 0.338037
Si Si8 0.708877 0.022942 0.076011
O O1 0.250000 0.913169 0.503069
O O2 0.455292 0.887864 0.470838
O O3 0.277248 0.870280 0.399856
O O4 0.352321 0.967267 0.424352
O O5 0.132284 0.428126 0.417512
O O6 0.304404 0.482820 0.378698
O O7 0.250000 0.471792 0.503069
O O8 0.472752 0.379720 0.856282
O O9 0.294708 0.362136 0.785300
O O10 0.397679 0.282733 0.831786
O O11 0.500000 0.500000 0.171505
O O12 0.644418 0.575152 0.171516
O O13 0.654886 0.500000 0.253069
O O14 0.695596 0.482820 0.127441
O O15 0.144418 0.924848 0.334622
O O16 0.000000 0.000000 0.334634
O O17 0.617716 0.321874 0.338626
#
# Coordination Sequence:
#
# PCOD9371028 Si02
#       8
#    16  16  16  16  16  16  16  16
#     4   9  20  38  59  88 119 151 200 251 295 363
#     4  10  22  38  63  92 117 159 203 248 303 365
#     4   9  20  38  59  88 119 151 200 251 295 363
#     4  10  24  42  58  91 128 159 207 257 301 369
#     4  10  21  37  62  87 119 161 195 247 308 358
#     4  10  24  42  58  91 128 159 207 257 301 369
#     4  10  21  37  62  87 119 161 195 247 308 358
#     4  10  22  38  63  92 117 159 203 248 303 365
#
# _framework density 19.105156999999998
#
# number of rings (size 3 to 8) (size 9 to 14) (size 15 to 20)
#    0.000    2.250    0.000    0.750    7.000    7.000 
#    0.000    0.000    0.000    0.000    0.000    0.000 
#    0.000    0.000    0.000    0.000    0.000    0.000 
#
# Total GULP energy -178237.813074 kJ/mol
# GULP energy per Si atom -5569.931659 kJ/mol
# Density = 1.906167 g / cm^3
# Si number density = 19.105157 Si / 1000 Ang^3
#
#
#
# Elastic Constant Matrix: (Units=GPa)
#
#
# Indices 1 2 3 4 5 6 
#
# 1 153.9427 98.7013 62.2781 0.0000 0.0000 0.0000
# 2 98.7013 139.6778 45.8445 0.0000 0.0000 0.0000
# 3 62.2781 45.8445 94.1427 0.0000 0.0000 0.0000
# 4 0.0000 0.0000 0.0000 17.8630 0.0000 0.0000
# 5 0.0000 0.0000 0.0000 0.0000 27.6690 0.0000
# 6 0.0000 0.0000 0.0000 0.0000 0.0000 33.5838
#
#
#
# Elastic Compliance Matrix: (Units=1/GPa)
#
#
# Indices 1 2 3 4 5 6 
#
# 1 0.013716 -0.007991 -0.005182 0.000000 0.000000 0.000000
# 2 -0.007991 0.013177 -0.001130 0.000000 0.000000 0.000000
# 3 -0.005182 -0.001130 0.014601 0.000000 0.000000 0.000000
# 4 0.000000 0.000000 0.000000 0.055982 0.000000 0.000000
# 5 0.000000 0.000000 0.000000 0.000000 0.036142 0.000000
# 6 0.000000 0.000000 0.000000 0.000000 0.000000 0.029776
#
#
# Mechanical properties :
#
#
# Convention : Reuss Voigt Hill
#
# Bulk Modulus (GPa) = 77.60080 89.04567 83.32324
# Shear Modulus (GPa) = 25.47160 27.88576 26.67868
#
# Velocity S-wave (km/s) = 3.65531 3.82461 3.74091
# Velocity P-wave (km/s) = 7.64990 8.13713 7.89727
#
# Compressibility (1/GPa) = 0.01288646
#
# Stress axis : x y z
#
# Youngs Moduli (GPa) = 72.90689 75.88748 68.48989
#
# Poissons Ratio (x) = 0.60645 0.35492
# Poissons Ratio (y) = 0.58263 0.07742
# Poissons Ratio (z) = 0.37781 0.08578
#
# Static dielectric constant tensor:
#      x y z
#    x 1.773840 0.000000 0.000000 
#    y 0.000000 1.707110 0.000000 
#    z 0.000000 0.000000 1.860310 
# 
# From -- ./inp_files/21343.got.cif
#   From: 2010.05.17/outbox.cif.g08.bks.cpg/sg43_11_cif.got.tgz:21343.got - 2010.06.03 19:21:55.
