data_PCOD9371033
_publ_section_title
;
Structure prediction by ZEFSAII (Michael W. Deem and Ramdas Pophale) SiO2 
 PCOD9371033
Probable space group: F D D 2
;
_chemical_formula_sum "Si O2"
_cell_formula_units_Z 104
_cell_length_a 9.619298
_cell_length_b 26.293087
_cell_length_c 23.101251
_cell_angle_alpha 90.000000
_cell_angle_beta 90.000000
_cell_angle_gamma 90.000000
_cell_volume 5842.792410
_symmetry_space_group_name_H-M "F D D 2"
_symmetry_group_IT_number 43
_symmetry_cell_setting 'orthorhombic'
loop_
_space_group_symop_operation_xyz
x,y,z
-x,-y,z
1/4-x,1/4+y,1/4+z
1/4+x,1/4-y,1/4+z
x,1/2+y,1/2+z
-x,1/2-y,1/2+z
1/4-x,3/4+y,3/4+z
1/4+x,3/4-y,3/4+z
1/2+x,y,1/2+z
1/2-x,-y,1/2+z
3/4-x,1/4+y,3/4+z
3/4+x,1/4-y,3/4+z
1/2+x,1/2+y,z
1/2-x,1/2-y,z
3/4-x,3/4+y,1/4+z
3/4+x,3/4-y,1/4+z
loop_
_atom_site_type_symbol
_atom_site_label
_atom_site_fract_x
_atom_site_fract_y
_atom_site_fract_z
Si Si1 0.969950 0.273913 0.484620
Si Si2 0.181752 0.329315 0.977777
Si Si3 0.250000 0.750000 0.189527
Si Si4 0.927452 0.449118 0.826923
Si Si5 0.910884 0.152416 0.349845
Si Si6 0.838497 0.497934 0.611256
Si Si7 0.872878 0.568996 0.037244
O O1 0.917212 0.216746 0.499020
O O2 0.831734 0.304572 0.467091
O O3 0.040546 0.302990 0.538147
O O4 0.067289 0.267387 0.428572
O O5 0.126612 0.351939 0.917450
O O6 0.183746 0.375601 0.021614
O O7 0.337763 0.714626 0.144759
O O8 0.343911 0.784888 0.230679
O O9 0.000000 0.500000 0.801908
O O10 0.024837 0.399656 0.825069
O O11 0.772010 0.172056 0.318033
O O12 0.024718 0.196722 0.348635
O O13 0.740132 0.459818 0.575696
O O14 0.000000 0.500000 0.596158
#
# Coordination Sequence:
#
# PCOD9371033 Si02
#       7
#    16  16   8  16  16  16  16
#     4  10  21  41  60  93 128 154 211 262 311 371
#     4  10  21  37  66  90 119 171 204 255 314 373
#     4  10  22  38  62  86 122 168 204 248 306 376
#     4  10  21  38  59  92 125 155 207 254 311 366
#     4  11  21  39  64  89 121 170 210 250 311 377
#     4  11  24  38  63  94 123 163 210 266 307 360
#     4  12  21  41  64  89 122 167 213 253 309 382
#
# _framework density 17.799709
#
# number of rings (size 3 to 8) (size 9 to 14) (size 15 to 20)
#    0.462    0.923    4.615    1.385    2.154    1.231 
#    0.000    0.000    6.769    0.000    0.000    0.000 
#    0.000    0.000    0.000    0.000    0.000    0.000 
#
# Total GULP energy -144916.943884 kJ/mol
# GULP energy per Si atom -5573.728611 kJ/mol
# Density = 1.775920 g / cm^3
# Si number density = 17.799709 Si / 1000 Ang^3
#
#
#
# Elastic Constant Matrix: (Units=GPa)
#
#
# Indices 1 2 3 4 5 6 
#
# 1 108.0769 60.3131 45.8955 0.0000 0.0000 0.0000
# 2 60.3131 107.4661 46.8610 0.0000 0.0000 0.0000
# 3 45.8955 46.8610 79.4447 0.0000 0.0000 0.0000
# 4 0.0000 0.0000 0.0000 28.4875 0.0000 0.0000
# 5 0.0000 0.0000 0.0000 0.0000 31.5701 0.0000
# 6 0.0000 0.0000 0.0000 0.0000 0.0000 25.3229
#
#
#
# Elastic Compliance Matrix: (Units=1/GPa)
#
#
# Indices 1 2 3 4 5 6 
#
# 1 0.014767 -0.006149 -0.004904 0.000000 0.000000 0.000000
# 2 -0.006149 0.015088 -0.005347 0.000000 0.000000 0.000000
# 3 -0.004904 -0.005347 0.018574 0.000000 0.000000 0.000000
# 4 0.000000 0.000000 0.000000 0.035103 0.000000 0.000000
# 5 0.000000 0.000000 0.000000 0.000000 0.031675 0.000000
# 6 0.000000 0.000000 0.000000 0.000000 0.000000 0.039490
#
#
# Mechanical properties :
#
#
# Convention : Reuss Voigt Hill
#
# Bulk Modulus (GPa) = 63.98473 66.79189 65.38831
# Shear Modulus (GPa) = 25.94602 26.53731 26.24167
#
# Velocity S-wave (km/s) = 3.82208 3.86539 3.84379
# Velocity P-wave (km/s) = 7.45002 7.58467 7.51765
#
# Compressibility (1/GPa) = 0.01562873
#
# Stress axis : x y z
#
# Youngs Moduli (GPa) = 67.72020 66.27714 53.83763
#
# Poissons Ratio (x) = 0.40756 0.26400
# Poissons Ratio (y) = 0.41643 0.28789
# Poissons Ratio (z) = 0.33207 0.35441
#
# Static dielectric constant tensor:
#      x y z
#    x 1.603000 0.000000 0.000000 
#    y 0.000000 1.611770 0.000000 
#    z 0.000000 0.000000 1.616720 
# 
# From -- ./inp_files/20399.got.cif
#   From: 2010.05.17/outbox.cif.g08.bks.cpg/sg43_11_cif.got.tgz:20399.got - 2010.06.03 19:21:55.
