data_PCOD9371087
_publ_section_title
;
Structure prediction by ZEFSAII (Michael W. Deem and Ramdas Pophale) SiO2 
 PCOD9371087
Probable space group: F D D 2
;
_chemical_formula_sum "Si O2"
_cell_formula_units_Z 72
_cell_length_a 27.830708
_cell_length_b 9.339311
_cell_length_c 11.840137
_cell_angle_alpha 90.000000
_cell_angle_beta 90.000000
_cell_angle_gamma 90.000000
_cell_volume 3077.484115
_symmetry_space_group_name_H-M "F D D 2"
_symmetry_group_IT_number 43
_symmetry_cell_setting 'orthorhombic'
loop_
_space_group_symop_operation_xyz
x,y,z
-x,-y,z
1/4-x,1/4+y,1/4+z
1/4+x,1/4-y,1/4+z
x,1/2+y,1/2+z
-x,1/2-y,1/2+z
1/4-x,3/4+y,3/4+z
1/4+x,3/4-y,3/4+z
1/2+x,y,1/2+z
1/2-x,-y,1/2+z
3/4-x,1/4+y,3/4+z
3/4+x,1/4-y,3/4+z
1/2+x,1/2+y,z
1/2-x,1/2-y,z
3/4-x,3/4+y,1/4+z
3/4+x,3/4-y,1/4+z
loop_
_atom_site_type_symbol
_atom_site_label
_atom_site_fract_x
_atom_site_fract_y
_atom_site_fract_z
Si Si1 0.807054 0.305280 0.468190
Si Si2 0.322814 0.751237 0.932723
Si Si3 0.750000 0.250000 0.258204
Si Si4 0.007962 0.302253 0.798162
Si Si5 0.147178 0.732847 0.691708
O O1 0.794184 0.241127 0.346137
O O2 0.761401 0.396818 0.515340
O O3 0.826864 0.224256 0.577164
O O4 0.851191 0.415285 0.449021
O O5 0.375187 0.679066 0.948275
O O6 0.318113 0.753872 0.798286
O O7 0.284009 0.646712 0.988576
O O8 0.308298 0.900507 0.991033
O O9 0.743433 0.111592 0.176811
#
# Coordination Sequence:
#
# PCOD9371087 Si02
#       5
#    16  16   8  16  16
#     4  10  21  39  60  84 120 153 196 245 298 350
#     4   8  16  33  57  84 112 151 193 238 297 345
#     4  10  22  40  56  90 124 148 204 246 282 368
#     4   9  20  38  59  86 115 157 196 243 289 365
#     4   9  18  35  59  87 115 151 197 246 293 360
#
# _framework density 23.395734999999998
#
# number of rings (size 3 to 8) (size 9 to 14) (size 15 to 20)
#    0.000    3.111    0.000    0.000    3.111    1.778 
#    8.000   20.000    0.000    0.000    0.000    0.000 
#    0.000    0.000    0.000    0.000    0.000    0.000 
#
# Total GULP energy -100271.666200 kJ/mol
# GULP energy per Si atom -5570.648122 kJ/mol
# Density = 2.334249 g / cm^3
# Si number density = 23.395735 Si / 1000 Ang^3
#
#
#
# Elastic Constant Matrix: (Units=GPa)
#
#
# Indices 1 2 3 4 5 6 
#
# 1 78.7565 -0.0956 52.3433 0.0000 0.0000 0.0000
# 2 -0.0956 41.4565 27.8736 0.0000 0.0000 0.0000
# 3 52.3433 27.8736 205.6335 0.0000 0.0000 0.0000
# 4 0.0000 0.0000 0.0000 -16.6517 0.0000 0.0000
# 5 0.0000 0.0000 0.0000 0.0000-2926.5021 0.0000
# 6 0.0000 0.0000 0.0000 0.0000 0.0000 31.6835
#
#
#
# Elastic Compliance Matrix: (Units=1/GPa)
#
#
# Indices 1 2 3 4 5 6 
#
# 1 0.015610 0.002979 -0.004377 0.000000 0.000000 0.000000
# 2 0.002979 0.027109 -0.004433 0.000000 0.000000 0.000000
# 3 -0.004377 -0.004433 0.006578 0.000000 0.000000 0.000000
# 4 0.000000 0.000000 0.000000 -0.060054 0.000000 0.000000
# 5 0.000000 0.000000 0.000000 0.000000 -0.000342 0.000000
# 6 0.000000 0.000000 0.000000 0.000000 0.000000 0.031562
#
#
# Mechanical properties :
#
#
# Convention : Reuss Voigt Hill
#
# Bulk Modulus (GPa) = 26.57087 54.00988 40.29037
# Shear Modulus (GPa) = 111.92816 -565.91239 -226.99211
#
# Velocity S-wave (km/s) = 6.92424 -15.56959 -9.86070
# Velocity P-wave (km/s) = 8.67805 17.32284 10.60123
#
# Compressibility (1/GPa) = 0.03763520
#
# Stress axis : x y z
#
# Youngs Moduli (GPa) = 64.06034 36.88798 152.01840
#
# Poissons Ratio (x) = -0.10990 0.66544
# Poissons Ratio (y) = -0.19085 0.67389
# Poissons Ratio (z) = 0.28042 0.16352
#
# Static dielectric constant tensor:
#      x y z
#    x 1.949880 0.000000 0.000000 
#    y 0.000000 2.094610 0.000000 
#    z 0.000000 0.000000 1.863170 
# 
# From -- ./inp_files/4633.got.cif
#   From: 2010.05.17/outbox.cif.g08.bks.cpg/sg43_3_cif.got.tgz:4633.got - 2010.06.03 19:21:55.
