data_PCOD9371609
_publ_section_title
;
Structure prediction by ZEFSAII (Michael W. Deem and Ramdas Pophale) SiO2 
 PCOD9371609
Probable space group: F D D 2
;
_chemical_formula_sum "Si O2"
_cell_formula_units_Z 48
_cell_length_a 9.508581
_cell_length_b 10.678888
_cell_length_c 17.031590
_cell_angle_alpha 90.000000
_cell_angle_beta 90.000000
_cell_angle_gamma 90.000000
_cell_volume 1729.405899
_symmetry_space_group_name_H-M "F D D 2"
_symmetry_group_IT_number 43
_symmetry_cell_setting 'orthorhombic'
loop_
_space_group_symop_operation_xyz
x,y,z
-x,-y,z
1/4-x,1/4+y,1/4+z
1/4+x,1/4-y,1/4+z
x,1/2+y,1/2+z
-x,1/2-y,1/2+z
1/4-x,3/4+y,3/4+z
1/4+x,3/4-y,3/4+z
1/2+x,y,1/2+z
1/2-x,-y,1/2+z
3/4-x,1/4+y,3/4+z
3/4+x,1/4-y,3/4+z
1/2+x,1/2+y,z
1/2-x,1/2-y,z
3/4-x,3/4+y,1/4+z
3/4+x,3/4-y,1/4+z
loop_
_atom_site_type_symbol
_atom_site_label
_atom_site_fract_x
_atom_site_fract_y
_atom_site_fract_z
Si Si1 0.292947 0.905810 0.421350
Si Si2 0.263006 0.932604 0.115978
Si Si3 0.500000 0.500000 0.224614
Si Si4 0.750000 0.750000 0.073566
O O1 0.384708 0.806855 0.366421
O O2 0.129188 0.911359 0.402979
O O3 0.304441 0.851032 0.507381
O O4 0.373255 0.021392 0.386252
O O5 0.134635 0.960961 0.173128
O O6 0.224187 0.868993 0.033651
#
# Coordination Sequence:
#
# PCOD9371609 Si02
#       4
#    16  16   8   8
#     4  10  23  46  71 103 143 188 236 300 358 428
#     4  10  25  45  70 105 143 188 239 299 357 428
#     4  12  26  46  74 106 144 190 244 298 362 428
#     4  10  22  42  76 106 144 190 238 294 364 428
#
# _framework density 27.755196000000002
#
# number of rings (size 3 to 8) (size 9 to 14) (size 15 to 20)
#    0.000    2.000    0.000    4.000    0.000   18.667 
#    0.000    0.000    0.000    0.000    0.000    0.000 
#    0.000    0.000    0.000    0.000    0.000    0.000 
#
# Total GULP energy -66941.583441 kJ/mol
# GULP energy per Si atom -5578.465287 kJ/mol
# Density = 2.769202 g / cm^3
# Si number density = 27.755196 Si / 1000 Ang^3
#
#
#
# Elastic Constant Matrix: (Units=GPa)
#
#
# Indices 1 2 3 4 5 6 
#
# 1 189.7621 -21.4652 106.4682 0.0000 0.0000 0.0000
# 2 -21.4652 62.1461 32.1956 0.0000 0.0000 0.0000
# 3 106.4682 32.1956 268.7422 0.0000 0.0000 0.0000
# 4 0.0000 0.0000 0.0000 60.7547 0.0000 0.0000
# 5 0.0000 0.0000 0.0000 0.0000 79.5768 0.0000
# 6 0.0000 0.0000 0.0000 0.0000 0.0000 49.4503
#
#
#
# Elastic Compliance Matrix: (Units=1/GPa)
#
#
# Indices 1 2 3 4 5 6 
#
# 1 0.007844 0.004605 -0.003659 0.000000 0.000000 0.000000
# 2 0.004605 0.019859 -0.004203 0.000000 0.000000 0.000000
# 3 -0.003659 -0.004203 0.005674 0.000000 0.000000 0.000000
# 4 0.000000 0.000000 0.000000 0.016460 0.000000 0.000000
# 5 0.000000 0.000000 0.000000 0.000000 0.012566 0.000000
# 6 0.000000 0.000000 0.000000 0.000000 0.000000 0.020222
#
#
# Mechanical properties :
#
#
# Convention : Reuss Voigt Hill
#
# Bulk Modulus (GPa) = 37.22781 83.89417 60.56099
# Shear Modulus (GPa) = 50.97106 64.85314 57.91210
#
# Velocity S-wave (km/s) = 4.29003 4.83910 4.57281
# Velocity P-wave (km/s) = 6.16289 7.84312 7.05322
#
# Compressibility (1/GPa) = 0.02686164
#
# Stress axis : x y z
#
# Youngs Moduli (GPa) = 127.49251 50.35435 176.23507
#
# Poissons Ratio (x) = -0.23187 0.64486
# Poissons Ratio (y) = -0.58708 0.74080
# Poissons Ratio (z) = 0.46650 0.21166
#
# Static dielectric constant tensor:
#      x y z
#    x 2.043710 0.000000 0.000000 
#    y 0.000000 2.594310 0.000000 
#    z 0.000000 0.000000 2.183320 
# 
# From -- ./inp_files/8813.got.cif
#   From: 2010.05.17/outbox.cif.g08.bks.cpg/sg43_5_cif.got.tgz:8813.got - 2010.06.03 19:21:55.
