data_PCOD9371989
_publ_section_title
;
Structure prediction by ZEFSAII (Michael W. Deem and Ramdas Pophale) SiO2 
 PCOD9371989
Probable space group: F D D 2
;
_chemical_formula_sum "Si O2"
_cell_formula_units_Z 120
_cell_length_a 20.686920
_cell_length_b 18.518926
_cell_length_c 13.405919
_cell_angle_alpha 90.000000
_cell_angle_beta 90.000000
_cell_angle_gamma 90.000000
_cell_volume 5135.801411
_symmetry_space_group_name_H-M "F D D 2"
_symmetry_group_IT_number 43
_symmetry_cell_setting 'orthorhombic'
loop_
_space_group_symop_operation_xyz
x,y,z
-x,-y,z
1/4-x,1/4+y,1/4+z
1/4+x,1/4-y,1/4+z
x,1/2+y,1/2+z
-x,1/2-y,1/2+z
1/4-x,3/4+y,3/4+z
1/4+x,3/4-y,3/4+z
1/2+x,y,1/2+z
1/2-x,-y,1/2+z
3/4-x,1/4+y,3/4+z
3/4+x,1/4-y,3/4+z
1/2+x,1/2+y,z
1/2-x,1/2-y,z
3/4-x,3/4+y,1/4+z
3/4+x,3/4-y,1/4+z
loop_
_atom_site_type_symbol
_atom_site_label
_atom_site_fract_x
_atom_site_fract_y
_atom_site_fract_z
Si Si1 0.361514 0.270255 0.185140
Si Si2 0.561157 0.335462 0.835795
Si Si3 0.798962 0.186896 0.503965
Si Si4 0.750000 0.750000 0.335694
Si Si5 0.192672 0.304861 0.610147
Si Si6 0.651630 0.860072 0.803861
Si Si7 0.007686 0.863924 0.215787
Si Si8 0.700528 0.514641 0.294375
O O1 0.409190 0.221578 0.256044
O O2 0.359735 0.348889 0.125659
O O3 0.337295 0.216082 0.099320
O O4 0.304606 0.281736 0.265029
O O5 0.499119 0.373223 0.786070
O O6 0.535835 0.295473 0.935449
O O7 0.750000 0.250000 0.469218
O O8 0.847929 0.165735 0.416721
O O9 0.767382 0.683100 0.404702
O O10 0.250000 0.250000 0.588161
O O11 0.182280 0.303857 0.727809
O O12 0.212619 0.382492 0.563462
O O13 0.124232 0.284965 0.564456
O O14 0.580629 0.874185 0.757265
O O15 0.698342 0.929041 0.798682
O O16 0.009096 0.799889 0.135124
#
# Coordination Sequence:
#
# PCOD9371989 Si02
#       8
#    16  16  16   8  16  16  16  16
#     4  11  22  43  73  97 131 184 232 278 340 420
#     4  11  23  42  69  99 132 176 233 280 340 402
#     4  10  23  48  66  89 133 186 218 265 344 417
#     4  12  18  44  72  88 128 180 220 270 348 406
#     4  11  22  40  66  92 124 175 208 256 343 391
#     4  11  24  40  63  93 133 165 216 272 318 405
#     4  11  21  38  65  96 123 169 216 265 326 399
#     4  11  23  40  63  98 131 159 215 277 323 391
#
# _framework density 23.365389
#
# number of rings (size 3 to 8) (size 9 to 14) (size 15 to 20)
#    0.000    1.067    5.333    2.000    1.867    2.133 
#   14.400    0.000    0.000    0.000    0.000    0.000 
#    0.000    0.000    0.000    0.000    0.000    0.000 
#
# Total GULP energy -167467.687341 kJ/mol
# GULP energy per Si atom -5582.256245 kJ/mol
# Density = 2.331221 g / cm^3
# Si number density = 23.365389 Si / 1000 Ang^3
#
#
#
# Elastic Constant Matrix: (Units=GPa)
#
#
# Indices 1 2 3 4 5 6 
#
# 1 37.0479 20.5564 30.3568 0.0000 0.0000 0.0000
# 2 20.5564 59.0710 23.6526 0.0000 0.0000 0.0000
# 3 30.3568 23.6526 125.7618 0.0000 0.0000 0.0000
# 4 0.0000 0.0000 0.0000 17.9081 0.0000 0.0000
# 5 0.0000 0.0000 0.0000 0.0000 26.8513 0.0000
# 6 0.0000 0.0000 0.0000 0.0000 0.0000 30.6561
#
#
#
# Elastic Compliance Matrix: (Units=1/GPa)
#
#
# Indices 1 2 3 4 5 6 
#
# 1 0.038934 -0.010583 -0.007408 0.000000 0.000000 0.000000
# 2 -0.010583 0.021184 -0.001430 0.000000 0.000000 0.000000
# 3 -0.007408 -0.001430 0.010009 0.000000 0.000000 0.000000
# 4 0.000000 0.000000 0.000000 0.055841 0.000000 0.000000
# 5 0.000000 0.000000 0.000000 0.000000 0.037242 0.000000
# 6 0.000000 0.000000 0.000000 0.000000 0.000000 0.032620
#
#
# Mechanical properties :
#
#
# Convention : Reuss Voigt Hill
#
# Bulk Modulus (GPa) = 31.96293 41.22361 36.59327
# Shear Modulus (GPa) = 20.40002 24.90408 22.65205
#
# Velocity S-wave (km/s) = 2.95801 3.26828 3.11701
# Velocity P-wave (km/s) = 5.03743 5.65009 5.35254
#
# Compressibility (1/GPa) = 0.03128624
#
# Stress axis : x y z
#
# Youngs Moduli (GPa) = 25.68465 47.20551 99.91501
#
# Poissons Ratio (x) = 0.49956 0.74013
# Poissons Ratio (y) = 0.27181 0.14285
# Poissons Ratio (z) = 0.19026 0.06749
#
# Static dielectric constant tensor:
#      x y z
#    x 1.961950 0.000000 0.000000 
#    y 0.000000 1.870480 0.000000 
#    z 0.000000 0.000000 1.854580 
# 
# From -- ./inp_files/7201.got.cif
#   From: 2010.05.17/outbox.cif.g08.bks.cpg/sg43_4_cif.got.tgz:7201.got - 2010.06.03 19:21:55.
