data_PCOD9371136
_publ_section_title
;
Structure prediction by ZEFSAII (Michael W. Deem and Ramdas Pophale) SiO2 
 PCOD9371136
Probable space group: F D D 2
;
_chemical_formula_sum "Si O2"
_cell_formula_units_Z 120
_cell_length_a 16.839442
_cell_length_b 9.308966
_cell_length_c 28.676534
_cell_angle_alpha 90.000000
_cell_angle_beta 90.000000
_cell_angle_gamma 90.000000
_cell_volume 4495.270182
_symmetry_space_group_name_H-M "F D D 2"
_symmetry_group_IT_number 43
_symmetry_cell_setting 'orthorhombic'
loop_
_space_group_symop_operation_xyz
x,y,z
-x,-y,z
1/4-x,1/4+y,1/4+z
1/4+x,1/4-y,1/4+z
x,1/2+y,1/2+z
-x,1/2-y,1/2+z
1/4-x,3/4+y,3/4+z
1/4+x,3/4-y,3/4+z
1/2+x,y,1/2+z
1/2-x,-y,1/2+z
3/4-x,1/4+y,3/4+z
3/4+x,1/4-y,3/4+z
1/2+x,1/2+y,z
1/2-x,1/2-y,z
3/4-x,3/4+y,1/4+z
3/4+x,3/4-y,1/4+z
loop_
_atom_site_type_symbol
_atom_site_label
_atom_site_fract_x
_atom_site_fract_y
_atom_site_fract_z
Si Si1 0.137196 0.209555 0.790880
Si Si2 0.926005 0.224881 0.623664
Si Si3 0.406506 0.963498 0.785839
Si Si4 0.711981 0.925392 0.157237
Si Si5 0.158330 0.209367 0.681915
Si Si6 0.500000 0.000000 0.286692
Si Si7 0.883681 0.535573 0.627592
Si Si8 0.357805 0.443822 0.974350
O O1 0.135816 0.382564 0.790756
O O2 0.153421 0.179396 0.736502
O O3 0.048993 0.146051 0.800546
O O4 0.191840 0.123477 0.828584
O O5 0.830172 0.202265 0.629523
O O6 0.937472 0.395081 0.619087
O O7 0.946750 0.183174 0.677061
O O8 0.380906 0.868579 0.829822
O O9 0.390723 0.857892 0.741864
O O10 0.500000 0.000000 0.786630
O O11 0.693372 0.869041 0.209316
O O12 0.652420 0.063020 0.152360
O O13 0.798698 0.974857 0.145403
O O14 0.250000 0.250000 0.673059
O O15 0.101606 0.337782 0.665210
O O16 0.429343 0.086028 0.261117
#
# Coordination Sequence:
#
# PCOD9371136 Si02
#       8
#    16  16  16  16  16   8  16  16
#     4  12  23  38  64  93 127 167 213 269 324 399
#     4  10  22  37  60  90 122 158 210 259 323 386
#     4  12  23  36  61  96 130 158 216 270 334 376
#     4   9  20  37  58  88 123 155 208 259 324 378
#     4  10  21  40  61  89 125 168 213 262 326 389
#     4  12  22  40  64  90 122 164 212 262 332 378
#     4  11  21  37  64  94 124 166 211 278 321 384
#     4  10  23  38  56  90 125 166 199 268 323 393
#
# _framework density 26.694724999999998
#
# number of rings (size 3 to 8) (size 9 to 14) (size 15 to 20)
#    0.800    0.533    2.667    4.800    1.867    0.000 
#    1.200    0.000    0.000    0.000    0.000    0.000 
#    0.000    0.000    0.000    0.000    0.000    0.000 
#
# Total GULP energy -167243.669687 kJ/mol
# GULP energy per Si atom -5574.788990 kJ/mol
# Density = 2.663397 g / cm^3
# Si number density = 26.694725 Si / 1000 Ang^3
#
#
#
# Elastic Constant Matrix: (Units=GPa)
#
#
# Indices 1 2 3 4 5 6 
#
# 1 49.6041 8.8107 -18.9077 0.0000 0.0000 0.0000
# 2 8.8107 223.0426 45.5342 0.0000 0.0000 0.0000
# 3 -18.9077 45.5342 83.0886 0.0000 0.0000 0.0000
# 4 0.0000 0.0000 0.0000 23.7395 0.0000 0.0000
# 5 0.0000 0.0000 0.0000 0.0000 -158.1825 0.0000
# 6 0.0000 0.0000 0.0000 0.0000 0.0000 34.2149
#
#
#
# Elastic Compliance Matrix: (Units=1/GPa)
#
#
# Indices 1 2 3 4 5 6 
#
# 1 0.023017 -0.002228 0.006459 0.000000 0.000000 0.000000
# 2 -0.002228 0.005264 -0.003392 0.000000 0.000000 0.000000
# 3 0.006459 -0.003392 0.015364 0.000000 0.000000 0.000000
# 4 0.000000 0.000000 0.000000 0.042124 0.000000 0.000000
# 5 0.000000 0.000000 0.000000 0.000000 -0.006322 0.000000
# 6 0.000000 0.000000 0.000000 0.000000 0.000000 0.029227
#
#
# Mechanical properties :
#
#
# Convention : Reuss Voigt Hill
#
# Bulk Modulus (GPa) = 22.06371 47.40109 34.73240
# Shear Modulus (GPa) = 40.94897 1.30759 21.12828
#
# Velocity S-wave (km/s) = 3.92084 0.70064 2.81637
# Velocity P-wave (km/s) = 5.36475 4.29532 4.85954
#
# Compressibility (1/GPa) = 0.04532329
#
# Stress axis : x y z
#
# Youngs Moduli (GPa) = 43.44582 189.97479 65.08816
#
# Poissons Ratio (x) = 0.42322 -0.42038
# Poissons Ratio (y) = 0.09679 0.22076
# Poissons Ratio (z) = -0.28060 0.64433
#
# Static dielectric constant tensor:
#      x y z
#    x 2.140120 0.000000 0.000000 
#    y 0.000000 2.134920 0.000000 
#    z 0.000000 0.000000 2.298600 
# 
# From -- ./inp_files/26751.got.cif
#   From: 2010.05.17/outbox.cif.g08.bks.cpg/sg43_14_cif.got.tgz:26751.got - 2010.06.03 19:21:55.
