data_PCOD9371530
_publ_section_title
;
Structure prediction by ZEFSAII (Michael W. Deem and Ramdas Pophale) SiO2 
 PCOD9371530
Probable space group: F D D 2
;
_chemical_formula_sum "Si O2"
_cell_formula_units_Z 112
_cell_length_a 14.564392
_cell_length_b 15.155769
_cell_length_c 23.611429
_cell_angle_alpha 90.000000
_cell_angle_beta 90.000000
_cell_angle_gamma 90.000000
_cell_volume 5211.858410
_symmetry_space_group_name_H-M "F D D 2"
_symmetry_group_IT_number 43
_symmetry_cell_setting 'orthorhombic'
loop_
_space_group_symop_operation_xyz
x,y,z
-x,-y,z
1/4-x,1/4+y,1/4+z
1/4+x,1/4-y,1/4+z
x,1/2+y,1/2+z
-x,1/2-y,1/2+z
1/4-x,3/4+y,3/4+z
1/4+x,3/4-y,3/4+z
1/2+x,y,1/2+z
1/2-x,-y,1/2+z
3/4-x,1/4+y,3/4+z
3/4+x,1/4-y,3/4+z
1/2+x,1/2+y,z
1/2-x,1/2-y,z
3/4-x,3/4+y,1/4+z
3/4+x,3/4-y,1/4+z
loop_
_atom_site_type_symbol
_atom_site_label
_atom_site_fract_x
_atom_site_fract_y
_atom_site_fract_z
Si Si1 0.400166 0.999185 0.207660
Si Si2 0.041139 0.157561 0.421066
Si Si3 0.750000 0.250000 0.832343
Si Si4 0.666958 0.898404 0.051398
Si Si5 0.500000 0.000000 0.999717
Si Si6 0.711346 0.847019 0.176452
Si Si7 0.690993 0.939315 0.541836
Si Si8 0.591302 0.570428 0.185354
O O1 0.359196 0.098347 0.216668
O O2 0.500000 0.000000 0.176759
O O3 0.310728 0.950836 0.180401
O O4 0.422663 0.936529 0.260875
O O5 0.045558 0.144733 0.353490
O O6 0.126974 0.218135 0.442394
O O7 0.046755 0.070164 0.457971
O O8 0.664897 0.219036 0.795779
O O9 0.714250 0.324398 0.876583
O O10 0.572981 0.948204 0.037120
O O11 0.667869 0.861083 0.114676
O O12 0.744826 0.973504 0.040842
O O13 0.750000 0.750000 0.186133
O O14 0.807790 0.895359 0.173797
O O15 0.699101 0.873231 0.488614
#
# Coordination Sequence:
#
# PCOD9371530 Si02
#       8
#    16  16   8  16   8  16  16  16
#     4  10  22  41  70  99 142 183 234 297 359 430
#     4   9  21  47  61 101 142 175 244 299 348 454
#     4  10  22  45  66  94 144 171 234 296 344 440
#     4  11  23  44  70 102 141 191 237 295 369 431
#     4  10  24  43  72  94 144 185 236 306 364 426
#     4  11  24  46  67 101 144 180 242 300 357 445
#     4  11  23  40  70  97 138 190 233 289 377 428
#     4  10  23  42  67  96 136 184 228 297 359 430
#
# _framework density 21.489456000000001
#
# number of rings (size 3 to 8) (size 9 to 14) (size 15 to 20)
#    0.000    1.714    4.286    0.429    8.000    1.714 
#    7.714    0.000    0.000    0.000    0.000    0.000 
#    0.000    0.000    0.000    0.000    0.000    0.000 
#
# Total GULP energy -155986.630037 kJ/mol
# GULP energy per Si atom -5570.951073 kJ/mol
# Density = 2.144054 g / cm^3
# Si number density = 21.489456 Si / 1000 Ang^3
#
#
#
# Elastic Constant Matrix: (Units=GPa)
#
#
# Indices 1 2 3 4 5 6 
#
# 1 97.3780 42.8048 27.8859 0.0000 0.0000 0.0000
# 2 42.8048 119.3516 52.7499 0.0000 0.0000 0.0000
# 3 27.8859 52.7499 131.8110 0.0000 0.0000 0.0000
# 4 0.0000 0.0000 0.0000 14.7766 0.0000 0.0000
# 5 0.0000 0.0000 0.0000 0.0000 30.8386 0.0000
# 6 0.0000 0.0000 0.0000 0.0000 0.0000 32.5060
#
#
#
# Elastic Compliance Matrix: (Units=1/GPa)
#
#
# Indices 1 2 3 4 5 6 
#
# 1 0.012302 -0.003963 -0.001017 0.000000 0.000000 0.000000
# 2 -0.003963 0.011455 -0.003746 0.000000 0.000000 0.000000
# 3 -0.001017 -0.003746 0.009301 0.000000 0.000000 0.000000
# 4 0.000000 0.000000 0.000000 0.067675 0.000000 0.000000
# 5 0.000000 0.000000 0.000000 0.000000 0.032427 0.000000
# 6 0.000000 0.000000 0.000000 0.000000 0.000000 0.030764
#
#
# Mechanical properties :
#
#
# Convention : Reuss Voigt Hill
#
# Bulk Modulus (GPa) = 64.07191 66.15799 65.11495
# Shear Modulus (GPa) = 26.79851 30.63091 28.71471
#
# Velocity S-wave (km/s) = 3.53520 3.77953 3.65940
# Velocity P-wave (km/s) = 6.82230 7.06396 6.94418
#
# Compressibility (1/GPa) = 0.01560746
#
# Stress axis : x y z
#
# Youngs Moduli (GPa) = 81.28513 87.29454 107.51673
#
# Poissons Ratio (x) = 0.34593 0.10932
# Poissons Ratio (y) = 0.32211 0.40276
# Poissons Ratio (z) = 0.08265 0.32701
#
# Static dielectric constant tensor:
#      x y z
#    x 1.827240 0.000000 0.000000 
#    y 0.000000 2.020560 0.000000 
#    z 0.000000 0.000000 1.789090 
# 
# From -- ./inp_files/21752.got.cif
#   From: 2010.05.17/outbox.cif.g08.bks.cpg/sg43_11_cif.got.tgz:21752.got - 2010.06.03 19:21:55.
