data_PCOD9371833
_publ_section_title
;
Structure prediction by ZEFSAII (Michael W. Deem and Ramdas Pophale) SiO2 
 PCOD9371833
Probable space group: F D D 2
;
_chemical_formula_sum "Si O2"
_cell_formula_units_Z 120
_cell_length_a 10.295493
_cell_length_b 18.978459
_cell_length_c 26.232389
_cell_angle_alpha 90.000000
_cell_angle_beta 90.000000
_cell_angle_gamma 90.000000
_cell_volume 5125.614475
_symmetry_space_group_name_H-M "F D D 2"
_symmetry_group_IT_number 43
_symmetry_cell_setting 'orthorhombic'
loop_
_space_group_symop_operation_xyz
x,y,z
-x,-y,z
1/4-x,1/4+y,1/4+z
1/4+x,1/4-y,1/4+z
x,1/2+y,1/2+z
-x,1/2-y,1/2+z
1/4-x,3/4+y,3/4+z
1/4+x,3/4-y,3/4+z
1/2+x,y,1/2+z
1/2-x,-y,1/2+z
3/4-x,1/4+y,3/4+z
3/4+x,1/4-y,3/4+z
1/2+x,1/2+y,z
1/2-x,1/2-y,z
3/4-x,3/4+y,1/4+z
3/4+x,3/4-y,1/4+z
loop_
_atom_site_type_symbol
_atom_site_label
_atom_site_fract_x
_atom_site_fract_y
_atom_site_fract_z
Si Si1 0.143499 0.702191 0.902770
Si Si2 0.013018 0.298196 0.319262
Si Si3 0.000000 0.500000 0.115673
Si Si4 0.205193 0.488640 0.462545
Si Si5 0.175990 0.417051 0.361110
Si Si6 0.379280 0.287395 0.577216
Si Si7 0.670277 0.887591 0.926113
Si Si8 0.701008 0.359224 0.239847
O O1 0.250000 0.750000 0.930280
O O2 0.069210 0.754665 0.866829
O O3 0.212919 0.642183 0.869598
O O4 0.057926 0.667780 0.945483
O O5 0.078878 0.260805 0.270057
O O6 0.062659 0.378369 0.329053
O O7 0.860776 0.281741 0.328624
O O8 0.046499 0.562554 0.153024
O O9 0.138670 0.438647 0.419723
O O10 0.204064 0.563419 0.433215
O O11 0.345426 0.448728 0.472509
O O12 0.251333 0.482538 0.334438
O O13 0.250000 0.250000 0.557099
O O14 0.343242 0.319478 0.632418
O O15 0.415226 0.353595 0.542099
O O16 0.603246 0.902905 0.980821
#
# Coordination Sequence:
#
# PCOD9371833 Si02
#       8
#    16  16   8  16  16  16  16  16
#     4   9  18  38  61  92 130 168 220 299 352 426
#     4  11  23  43  68 102 144 191 248 297 382 463
#     4  12  26  42  70  98 148 198 242 314 376 452
#     4  10  23  41  72  97 133 194 239 302 379 456
#     4   9  22  44  67 101 144 178 239 317 370 442
#     4  11  23  40  71 104 138 183 241 312 383 451
#     4  11  24  43  62  99 138 183 243 307 359 449
#     4  11  21  37  67  99 133 175 240 297 367 450
#
# _framework density 23.411826000000001
#
# number of rings (size 3 to 8) (size 9 to 14) (size 15 to 20)
#    0.000    1.600    1.333    4.000    5.600    1.067 
#    0.000    5.333    0.000    0.000    0.000    0.000 
#    0.000    0.000    0.000    0.000    0.000    0.000 
#
# Total GULP energy -167188.563818 kJ/mol
# GULP energy per Si atom -5572.952127 kJ/mol
# Density = 2.335854 g / cm^3
# Si number density = 23.411826 Si / 1000 Ang^3
#
#
#
# Elastic Constant Matrix: (Units=GPa)
#
#
# Indices 1 2 3 4 5 6 
#
# 1 69.3718 30.7413 24.9672 0.0000 0.0000 0.0000
# 2 30.7413 126.5941 37.3015 0.0000 0.0000 0.0000
# 3 24.9672 37.3015 106.6918 0.0000 0.0000 0.0000
# 4 0.0000 0.0000 0.0000 25.1245 0.0000 0.0000
# 5 0.0000 0.0000 0.0000 0.0000 9.4461 0.0000
# 6 0.0000 0.0000 0.0000 0.0000 0.0000 31.3855
#
#
#
# Elastic Compliance Matrix: (Units=1/GPa)
#
#
# Indices 1 2 3 4 5 6 
#
# 1 0.016874 -0.003271 -0.002805 0.000000 0.000000 0.000000
# 2 -0.003271 0.009441 -0.002535 0.000000 0.000000 0.000000
# 3 -0.002805 -0.002535 0.010916 0.000000 0.000000 0.000000
# 4 0.000000 0.000000 0.000000 0.039802 0.000000 0.000000
# 5 0.000000 0.000000 0.000000 0.000000 0.105863 0.000000
# 6 0.000000 0.000000 0.000000 0.000000 0.000000 0.031862
#
#
# Mechanical properties :
#
#
# Convention : Reuss Voigt Hill
#
# Bulk Modulus (GPa) = 49.98092 54.29752 52.13922
# Shear Modulus (GPa) = 20.95125 27.16773 24.05949
#
# Velocity S-wave (km/s) = 2.99473 3.41020 3.20920
# Velocity P-wave (km/s) = 5.77519 6.22484 6.00423
#
# Compressibility (1/GPa) = 0.02000763
#
# Stress axis : x y z
#
# Youngs Moduli (GPa) = 59.26206 105.92570 91.61234
#
# Poissons Ratio (x) = 0.34649 0.25699
# Poissons Ratio (y) = 0.19385 0.23225
# Poissons Ratio (z) = 0.16624 0.26854
#
# Static dielectric constant tensor:
#      x y z
#    x 2.603020 0.000000 0.000000 
#    y 0.000000 1.764440 0.000000 
#    z 0.000000 0.000000 1.882390 
# 
# From -- ./inp_files/25173.got.cif
#   From: 2010.05.17/outbox.cif.g08.bks.cpg/sg43_13_cif.got.tgz:25173.got - 2010.06.03 19:21:55.
