data_PCOD9371192
_publ_section_title
;
Structure prediction by ZEFSAII (Michael W. Deem and Ramdas Pophale) SiO2 
 PCOD9371192
Probable space group: F D D 2
;
_chemical_formula_sum "Si O2"
_cell_formula_units_Z 120
_cell_length_a 16.779799
_cell_length_b 19.291801
_cell_length_c 13.459479
_cell_angle_alpha 90.000000
_cell_angle_beta 90.000000
_cell_angle_gamma 90.000000
_cell_volume 4357.002176
_symmetry_space_group_name_H-M "F D D 2"
_symmetry_group_IT_number 43
_symmetry_cell_setting 'orthorhombic'
loop_
_space_group_symop_operation_xyz
x,y,z
-x,-y,z
1/4-x,1/4+y,1/4+z
1/4+x,1/4-y,1/4+z
x,1/2+y,1/2+z
-x,1/2-y,1/2+z
1/4-x,3/4+y,3/4+z
1/4+x,3/4-y,3/4+z
1/2+x,y,1/2+z
1/2-x,-y,1/2+z
3/4-x,1/4+y,3/4+z
3/4+x,1/4-y,3/4+z
1/2+x,1/2+y,z
1/2-x,1/2-y,z
3/4-x,3/4+y,1/4+z
3/4+x,3/4-y,1/4+z
loop_
_atom_site_type_symbol
_atom_site_label
_atom_site_fract_x
_atom_site_fract_y
_atom_site_fract_z
Si Si1 0.175464 0.537195 0.097040
Si Si2 0.928640 0.706272 0.608842
Si Si3 0.491593 0.923368 0.821643
Si Si4 0.759794 0.910515 0.847739
Si Si5 0.304302 0.656359 0.852013
Si Si6 0.250000 0.250000 0.843632
Si Si7 0.173679 0.292205 0.142667
Si Si8 0.729056 0.087200 0.585958
O O1 0.199905 0.616214 0.115357
O O2 0.252898 0.490763 0.117864
O O3 0.090365 0.510726 0.136190
O O4 0.173141 0.533045 0.977111
O O5 0.851540 0.660285 0.586919
O O6 0.938764 0.785802 0.570361
O O7 0.002613 0.660266 0.573563
O O8 0.493273 0.927933 0.701289
O O9 0.500000 0.000000 0.865518
O O10 0.757088 0.831992 0.806182
O O11 0.839521 0.958340 0.837308
O O12 0.764202 0.901272 0.967652
O O13 0.323525 0.711959 0.763783
O O14 0.395317 0.634687 0.875417
O O15 0.250000 0.250000 0.103429
O O16 0.197216 0.371382 0.127874
#
# Coordination Sequence:
#
# PCOD9371192 Si02
#       8
#    16  16  16  16  16   8  16  16
#     4  10  24  42  67  94 133 173 221 276 328 399
#     4  10  22  43  64  97 131 173 217 275 331 397
#     4  11  23  41  66  98 132 171 225 275 327 398
#     4  10  23  39  64  95 128 171 217 272 317 395
#     4  10  22  39  66  96 136 167 219 272 332 397
#     4  12  22  46  64  90 132 166 222 272 328 382
#     4  11  21  38  65  96 134 175 213 268 334 393
#     4  10  21  41  62  96 131 172 217 265 338 388
#
# _framework density 27.541874
#
# number of rings (size 3 to 8) (size 9 to 14) (size 15 to 20)
#    0.000    1.600    1.333    2.800    1.867    6.400 
#    0.000    1.333    0.000    0.000    0.000    0.000 
#    0.000    0.000    0.000    0.000    0.000    0.000 
#
# Total GULP energy -167308.796708 kJ/mol
# GULP energy per Si atom -5576.959890 kJ/mol
# Density = 2.747919 g / cm^3
# Si number density = 27.541874 Si / 1000 Ang^3
#
#
#
# Elastic Constant Matrix: (Units=GPa)
#
#
# Indices 1 2 3 4 5 6 
#
# 1 153.1539 53.0990 -9.4310 0.0000 0.0000 0.0000
# 2 53.0990 142.4439 2.1796 0.0000 0.0000 0.0000
# 3 -9.4310 2.1796 88.8648 0.0000 0.0000 0.0000
# 4 0.0000 0.0000 0.0000 3.6138 0.0000 0.0000
# 5 0.0000 0.0000 0.0000 0.0000 9.6846 0.0000
# 6 0.0000 0.0000 0.0000 0.0000 0.0000 69.7061
#
#
#
# Elastic Compliance Matrix: (Units=1/GPa)
#
#
# Indices 1 2 3 4 5 6 
#
# 1 0.007566 -0.002834 0.000872 0.000000 0.000000 0.000000
# 2 -0.002834 0.008084 -0.000499 0.000000 0.000000 0.000000
# 3 0.000872 -0.000499 0.011358 0.000000 0.000000 0.000000
# 4 0.000000 0.000000 0.000000 0.276719 0.000000 0.000000
# 5 0.000000 0.000000 0.000000 0.000000 0.103256 0.000000
# 6 0.000000 0.000000 0.000000 0.000000 0.000000 0.014346
#
#
# Mechanical properties :
#
#
# Convention : Reuss Voigt Hill
#
# Bulk Modulus (GPa) = 45.27487 52.90641 49.09064
# Shear Modulus (GPa) = 11.53106 39.17524 25.35315
#
# Velocity S-wave (km/s) = 2.04837 3.77555 3.03732
# Velocity P-wave (km/s) = 4.69773 6.18526 5.49209
#
# Compressibility (1/GPa) = 0.02208731
#
# Stress axis : x y z
#
# Youngs Moduli (GPa) = 132.17889 123.69788 88.04458
#
# Poissons Ratio (x) = 0.35050 -0.07681
# Poissons Ratio (y) = 0.37454 0.04393
# Poissons Ratio (z) = -0.11531 0.06173
#
# Static dielectric constant tensor:
#      x y z
#    x 2.224530 0.000000 0.000000 
#    y 0.000000 2.336220 0.000000 
#    z 0.000000 0.000000 2.254620 
# 
# From -- ./inp_files/14282.got.cif
#   From: 2010.05.17/outbox.cif.g08.bks.cpg/sg43_8_cif.got.tgz:14282.got - 2010.06.03 19:21:55.
