data_PCOD9371672
_publ_section_title
;
Structure prediction by ZEFSAII (Michael W. Deem and Ramdas Pophale) SiO2 
 PCOD9371672
Probable space group: F D D 2
;
_chemical_formula_sum "Si O2"
_cell_formula_units_Z 120
_cell_length_a 25.798806
_cell_length_b 26.067605
_cell_length_c 7.488585
_cell_angle_alpha 90.000000
_cell_angle_beta 90.000000
_cell_angle_gamma 90.000000
_cell_volume 5036.171395
_symmetry_space_group_name_H-M "F D D 2"
_symmetry_group_IT_number 43
_symmetry_cell_setting 'orthorhombic'
loop_
_space_group_symop_operation_xyz
x,y,z
-x,-y,z
1/4-x,1/4+y,1/4+z
1/4+x,1/4-y,1/4+z
x,1/2+y,1/2+z
-x,1/2-y,1/2+z
1/4-x,3/4+y,3/4+z
1/4+x,3/4-y,3/4+z
1/2+x,y,1/2+z
1/2-x,-y,1/2+z
3/4-x,1/4+y,3/4+z
3/4+x,1/4-y,3/4+z
1/2+x,1/2+y,z
1/2-x,1/2-y,z
3/4-x,3/4+y,1/4+z
3/4+x,3/4-y,1/4+z
loop_
_atom_site_type_symbol
_atom_site_label
_atom_site_fract_x
_atom_site_fract_y
_atom_site_fract_z
Si Si1 0.499979 0.191460 0.003280
Si Si2 0.435963 0.093904 0.434937
Si Si3 0.290895 0.948462 0.642884
Si Si4 0.635546 0.034758 0.136021
Si Si5 0.349473 0.120066 0.710225
Si Si6 0.616877 0.664018 0.863228
Si Si7 0.841543 0.188388 0.763303
Si Si8 0.750000 0.250000 0.809913
O O1 0.491746 0.188706 0.214578
O O2 0.540395 0.148564 0.939441
O O3 0.524549 0.247598 0.970644
O O4 0.442594 0.191445 0.920340
O O5 0.464150 0.145701 0.499739
O O6 0.384600 0.093435 0.558750
O O7 0.419539 0.094865 0.226720
O O8 0.470825 0.044895 0.457104
O O9 0.351870 0.948648 0.594946
O O10 0.609528 0.068862 0.980526
O O11 0.599194 0.040105 0.311537
O O12 0.644735 0.974166 0.116773
O O13 0.367395 0.100809 0.906462
O O14 0.582213 0.621963 0.970643
O O15 0.798590 0.216952 0.881479
#
# Coordination Sequence:
#
# PCOD9371672 Si02
#       8
#    16  16  16  16  16  16  16   8
#     4  11  24  42  74 100 141 183 242 289 360 420
#     4  11  26  45  71 103 145 188 232 294 364 421
#     4  10  24  44  70 104 137 186 240 298 349 423
#     4  10  22  44  68 103 138 179 235 301 339 423
#     4  11  26  46  68 105 142 180 237 295 355 426
#     4  10  22  47  71  96 141 185 234 296 348 412
#     4   9  21  41  68  99 141 180 231 283 352 420
#     4  12  22  42  70 102 146 188 226 282 366 428
#
# _framework density 23.827624
#
# number of rings (size 3 to 8) (size 9 to 14) (size 15 to 20)
#    0.000    1.600    1.333    2.400   11.200    0.000 
#    4.800    0.667    0.000    0.000    0.000    0.000 
#    0.000    0.000    0.000    0.000    0.000    0.000 
#
# Total GULP energy -167428.829061 kJ/mol
# GULP energy per Si atom -5580.960969 kJ/mol
# Density = 2.377339 g / cm^3
# Si number density = 23.827624 Si / 1000 Ang^3
#
#
#
# Elastic Constant Matrix: (Units=GPa)
#
#
# Indices 1 2 3 4 5 6 
#
# 1 123.8955 61.2222 21.8634 0.0028 0.0058 0.0016
# 2 61.2222 162.1097 10.7964 -0.0042 0.0095 0.0080
# 3 21.8634 10.7964 74.0903 -0.0112 0.0182 0.0125
# 4 0.0028 -0.0042 -0.0112 16.8520 0.0044 0.0057
# 5 0.0058 0.0095 0.0182 0.0044 12.3840 -0.0086
# 6 0.0016 0.0080 0.0125 0.0057 -0.0086 37.5402
#
#
#
# Elastic Compliance Matrix: (Units=1/GPa)
#
#
# Indices 1 2 3 4 5 6 
#
# 1 0.010367 -0.003748 -0.002513 -0.000004 0.000002 0.000001
# 2 -0.003748 0.007584 0.000001 0.000002 -0.000004 -0.000001
# 3 -0.002513 0.000001 0.014239 0.000010 -0.000020 -0.000005
# 4 -0.000004 0.000002 0.000010 0.059340 -0.000021 -0.000009
# 5 0.000002 -0.000004 -0.000020 -0.000021 0.080749 0.000019
# 6 0.000001 -0.000001 -0.000005 -0.000009 0.000019 0.026638
#
#
# Mechanical properties :
#
#
# Convention : Reuss Voigt Hill
#
# Bulk Modulus (GPa) = 50.84064 60.87326 55.85695
# Shear Modulus (GPa) = 22.93651 31.10280 27.01966
#
# Velocity S-wave (km/s) = 3.10595 3.61685 3.37109
# Velocity P-wave (km/s) = 5.85198 6.56086 6.21654
#
# Compressibility (1/GPa) = 0.01966930
#
# Stress axis : x y z
#
# Youngs Moduli (GPa) = 96.46288 131.85711 70.23209
#
# Poissons Ratio (x) = 0.49416 0.17649
# Poissons Ratio (y) = 0.36151 -0.00005
# Poissons Ratio (z) = 0.24241 -0.00010
#
# Static dielectric constant tensor:
#      x y z
#    x 1.939460 0.000000 0.000000 
#    y 0.000000 1.981620 -0.000010 
#    z 0.000000 -0.000010 1.922570 
# 
# From -- ./inp_files/4403.got.cif
#   From: 2010.05.17/outbox.cif.g08.bks.cpg/sg43_3_cif.got.tgz:4403.got - 2010.06.03 19:21:55.
