data_PCOD9371002
_publ_section_title
;
Structure prediction by ZEFSAII (Michael W. Deem and Ramdas Pophale) SiO2 
 PCOD9371002
Probable space group: F D D 2
;
_chemical_formula_sum "Si O2"
_cell_formula_units_Z 112
_cell_length_a 16.192710
_cell_length_b 10.472158
_cell_length_c 36.589199
_cell_angle_alpha 90.000000
_cell_angle_beta 90.000000
_cell_angle_gamma 90.000000
_cell_volume 6204.526249
_symmetry_space_group_name_H-M "F D D 2"
_symmetry_group_IT_number 43
_symmetry_cell_setting 'orthorhombic'
loop_
_space_group_symop_operation_xyz
x,y,z
-x,-y,z
1/4-x,1/4+y,1/4+z
1/4+x,1/4-y,1/4+z
x,1/2+y,1/2+z
-x,1/2-y,1/2+z
1/4-x,3/4+y,3/4+z
1/4+x,3/4-y,3/4+z
1/2+x,y,1/2+z
1/2-x,-y,1/2+z
3/4-x,1/4+y,3/4+z
3/4+x,1/4-y,3/4+z
1/2+x,1/2+y,z
1/2-x,1/2-y,z
3/4-x,3/4+y,1/4+z
3/4+x,3/4-y,1/4+z
loop_
_atom_site_type_symbol
_atom_site_label
_atom_site_fract_x
_atom_site_fract_y
_atom_site_fract_z
Si Si1 0.660633 0.470614 0.907390
Si Si2 0.658936 0.687885 0.304208
Si Si3 0.150442 0.000000 0.642433
Si Si4 0.287513 0.619344 0.189412
Si Si5 0.589367 0.279387 0.127475
Si Si6 0.408936 0.437885 0.230657
Si Si7 0.787513 0.880656 0.095454
O O1 0.649225 0.622828 0.902968
O O2 0.750000 0.432162 0.892433
O O3 0.656214 0.417345 0.948249
O O4 0.590629 0.407529 0.881621
O O5 0.750000 0.750000 0.300485
O O6 0.656214 0.582655 0.336616
O O7 0.625000 0.625000 0.267433
O O8 0.596861 0.797665 0.317902
O O9 0.211068 0.965415 0.608930
O O10 0.211068 0.034585 0.675935
O O11 0.100775 0.127172 0.631897
O O12 0.250000 0.750000 0.204734
O O13 0.340628 0.657528 0.153244
O O14 0.346861 0.547665 0.216963
O O15 0.500000 0.500000 0.234380
O O16 0.750000 0.750000 0.080131
#
# Coordination Sequence:
#
# PCOD9371002 Si02
#       7
#    16  16  16  16  16  16  16
#     4  11  21  40  65  92 123 163 219 261 305 377
#     4  12  26  41  63  92 128 171 210 260 324 384
#     4  10  21  34  65  96 122 150 204 276 311 354
#     4  10  21  39  64  92 124 163 211 262 307 370
#     4  11  21  40  65  92 123 163 219 261 305 377
#     4  12  26  41  63  92 128 171 210 260 324 384
#     4  10  21  39  64  92 124 163 211 262 307 370
#
# _framework density 18.051338999999999
#
# number of rings (size 3 to 8) (size 9 to 14) (size 15 to 20)
#    0.000    1.143    5.714    0.429    4.000    0.000 
#    0.000    4.286    0.000    0.000    0.000    0.000 
#    0.000    0.000    0.000    0.000    0.000    0.000 
#
# Total GULP energy -156392.430196 kJ/mol
# GULP energy per Si atom -5585.443936 kJ/mol
# Density = 1.801025 g / cm^3
# Si number density = 18.051339 Si / 1000 Ang^3
#
#
#
# Elastic Constant Matrix: (Units=GPa)
#
#
# Indices 1 2 3 4 5 6 
#
# 1 92.0792 43.6453 55.5000 0.0000 0.0000 0.0000
# 2 43.6453 107.8390 72.5877 0.0000 0.0000 0.0000
# 3 55.5000 72.5877 145.1190 0.0000 0.0000 0.0000
# 4 0.0000 0.0000 0.0000 5.1430 0.0000 0.0000
# 5 0.0000 0.0000 0.0000 0.0000 23.1467 0.0000
# 6 0.0000 0.0000 0.0000 0.0000 0.0000 40.3050
#
#
#
# Elastic Compliance Matrix: (Units=1/GPa)
#
#
# Indices 1 2 3 4 5 6 
#
# 1 0.014853 -0.003298 -0.004031 0.000000 0.000000 0.000000
# 2 -0.003298 0.014712 -0.006098 0.000000 0.000000 0.000000
# 3 -0.004031 -0.006098 0.011482 0.000000 0.000000 0.000000
# 4 0.000000 0.000000 0.000000 0.194438 0.000000 0.000000
# 5 0.000000 0.000000 0.000000 0.000000 0.043203 0.000000
# 6 0.000000 0.000000 0.000000 0.000000 0.000000 0.024811
#
#
# Mechanical properties :
#
#
# Convention : Reuss Voigt Hill
#
# Bulk Modulus (GPa) = 70.44932 76.50036 73.47484
# Shear Modulus (GPa) = 14.92160 25.27255 20.09707
#
# Velocity S-wave (km/s) = 2.87822 3.74577 3.34028
# Velocity P-wave (km/s) = 7.08219 7.82170 7.46111
#
# Compressibility (1/GPa) = 0.01419460
#
# Stress axis : x y z
#
# Youngs Moduli (GPa) = 67.32611 67.96986 87.08987
#
# Poissons Ratio (x) = 0.22419 0.35103
# Poissons Ratio (y) = 0.22207 0.53104
# Poissons Ratio (z) = 0.27137 0.41445
#
# Static dielectric constant tensor:
#      x y z
#    x 1.621740 0.000000 0.000000 
#    y 0.000000 1.643150 0.000000 
#    z 0.000000 0.000000 1.587140 
# 
# From -- ./inp_files/28625.got.cif
#   From: 2010.05.17/outbox.cif.g08.bks.cpg/sg43_15_cif.got.tgz:28625.got - 2010.06.03 19:21:55.
