data_PCOD9371619
_publ_section_title
;
Structure prediction by ZEFSAII (Michael W. Deem and Ramdas Pophale) SiO2 
 PCOD9371619
Probable space group: F D D 2
;
_chemical_formula_sum "Si O2"
_cell_formula_units_Z 64
_cell_length_a 16.633867
_cell_length_b 12.302620
_cell_length_c 12.307287
_cell_angle_alpha 90.000000
_cell_angle_beta 90.000000
_cell_angle_gamma 90.000000
_cell_volume 2518.564994
_symmetry_space_group_name_H-M "F D D 2"
_symmetry_group_IT_number 43
_symmetry_cell_setting 'orthorhombic'
loop_
_space_group_symop_operation_xyz
x,y,z
-x,-y,z
1/4-x,1/4+y,1/4+z
1/4+x,1/4-y,1/4+z
x,1/2+y,1/2+z
-x,1/2-y,1/2+z
1/4-x,3/4+y,3/4+z
1/4+x,3/4-y,3/4+z
1/2+x,y,1/2+z
1/2-x,-y,1/2+z
3/4-x,1/4+y,3/4+z
3/4+x,1/4-y,3/4+z
1/2+x,1/2+y,z
1/2-x,1/2-y,z
3/4-x,3/4+y,1/4+z
3/4+x,3/4-y,1/4+z
loop_
_atom_site_type_symbol
_atom_site_label
_atom_site_fract_x
_atom_site_fract_y
_atom_site_fract_z
Si Si1 0.544014 0.343336 0.964520
Si Si2 0.432891 0.073459 0.942380
Si Si3 0.413299 0.612001 0.199699
Si Si4 0.419459 0.964612 0.329278
O O1 0.588415 0.225956 0.951142
O O2 0.459472 0.370460 0.904577
O O3 0.600780 0.431384 0.902164
O O4 0.540028 0.390576 0.086458
O O5 0.453978 0.097173 0.817095
O O6 0.500000 0.000000 0.996504
O O7 0.360947 0.988053 0.944777
O O8 0.404651 0.174130 0.011379
O O9 0.500000 0.000000 0.262257
#
# Coordination Sequence:
#
# PCOD9371619 Si02
#       4
#    16  16  16  16
#     4   8  20  43  70  95 141 199 252 293 373 472
#     4  11  25  41  69 110 150 183 246 327 389 435
#     4  10  22  43  65 109 138 191 243 325 372 453
#     4   8  21  44  70 100 141 205 244 293 376 478
#
# _framework density 25.411294999999999
#
# number of rings (size 3 to 8) (size 9 to 14) (size 15 to 20)
#    1.500    1.000    0.000    0.000    7.000    3.000 
#    9.000    0.000    0.000    0.000    0.000    0.000 
#    0.000    0.000    0.000    0.000    0.000    0.000 
#
# Total GULP energy -89143.293356 kJ/mol
# GULP energy per Si atom -5571.455835 kJ/mol
# Density = 2.535346 g / cm^3
# Si number density = 25.411295 Si / 1000 Ang^3
#
#
#
# Elastic Constant Matrix: (Units=GPa)
#
#
# Indices 1 2 3 4 5 6 
#
# 1 33.8621 -15.2932 34.8676 0.0000 0.0000 0.0000
# 2 -15.2932 102.3490 39.3244 0.0000 0.0000 0.0000
# 3 34.8676 39.3244 155.9878 0.0000 0.0000 0.0000
# 4 0.0000 0.0000 0.0000 2.0757 0.0000 0.0000
# 5 0.0000 0.0000 0.0000 0.0000 1.8885 0.0000
# 6 0.0000 0.0000 0.0000 0.0000 0.0000 47.4305
#
#
#
# Elastic Compliance Matrix: (Units=1/GPa)
#
#
# Indices 1 2 3 4 5 6 
#
# 1 0.050522 0.013163 -0.014611 0.000000 0.000000 0.000000
# 2 0.013163 0.014248 -0.006534 0.000000 0.000000 0.000000
# 3 -0.014611 -0.006534 0.011324 0.000000 0.000000 0.000000
# 4 0.000000 0.000000 0.000000 0.481756 0.000000 0.000000
# 5 0.000000 0.000000 0.000000 0.000000 0.529518 0.000000
# 6 0.000000 0.000000 0.000000 0.000000 0.000000 0.021083
#
#
# Mechanical properties :
#
#
# Convention : Reuss Voigt Hill
#
# Bulk Modulus (GPa) = 16.63108 45.55516 31.09312
# Shear Modulus (GPa) = 4.36888 25.83230 15.10059
#
# Velocity S-wave (km/s) = 1.31263 3.19182 2.44036
# Velocity P-wave (km/s) = 2.97595 5.61691 4.49478
#
# Compressibility (1/GPa) = 0.06012839
#
# Stress axis : x y z
#
# Youngs Moduli (GPa) = 19.79354 70.18593 88.30764
#
# Poissons Ratio (x) = -0.92385 1.29029
# Poissons Ratio (y) = -0.26054 0.57702
# Poissons Ratio (z) = 0.28921 0.45861
#
# Static dielectric constant tensor:
#      x y z
#    x 2.454370 0.000000 0.000000 
#    y 0.000000 2.041180 0.000000 
#    z 0.000000 0.000000 1.980300 
# 
# From -- ./inp_files/6478.got.cif
#   From: 2010.05.17/outbox.cif.g08.bks.cpg/sg43_4_cif.got.tgz:6478.got - 2010.06.03 19:21:55.
