data_PCOD9371395
_publ_section_title
;
Structure prediction by ZEFSAII (Michael W. Deem and Ramdas Pophale) SiO2 
 PCOD9371395
Probable space group: F D D 2
;
_chemical_formula_sum "Si O2"
_cell_formula_units_Z 104
_cell_length_a 17.693733
_cell_length_b 10.680830
_cell_length_c 27.613912
_cell_angle_alpha 90.000000
_cell_angle_beta 90.000000
_cell_angle_gamma 90.000000
_cell_volume 5218.580759
_symmetry_space_group_name_H-M "F D D 2"
_symmetry_group_IT_number 43
_symmetry_cell_setting 'orthorhombic'
loop_
_space_group_symop_operation_xyz
x,y,z
-x,-y,z
1/4-x,1/4+y,1/4+z
1/4+x,1/4-y,1/4+z
x,1/2+y,1/2+z
-x,1/2-y,1/2+z
1/4-x,3/4+y,3/4+z
1/4+x,3/4-y,3/4+z
1/2+x,y,1/2+z
1/2-x,-y,1/2+z
3/4-x,1/4+y,3/4+z
3/4+x,1/4-y,3/4+z
1/2+x,1/2+y,z
1/2-x,1/2-y,z
3/4-x,3/4+y,1/4+z
3/4+x,3/4-y,1/4+z
loop_
_atom_site_type_symbol
_atom_site_label
_atom_site_fract_x
_atom_site_fract_y
_atom_site_fract_z
Si Si1 0.697922 0.869920 0.062260
Si Si2 0.201082 0.866485 0.904847
Si Si3 0.961609 0.257407 0.894074
Si Si4 0.210818 0.385084 0.739100
Si Si5 0.292605 0.406146 0.498000
Si Si6 0.726468 0.606952 0.840599
Si Si7 0.250000 0.250000 0.588515
O O1 0.750000 0.750000 0.058030
O O2 0.608730 0.856018 0.069532
O O3 0.728999 0.940205 0.109628
O O4 0.711289 0.951651 0.014545
O O5 0.250000 0.750000 0.884975
O O6 0.114589 0.825844 0.895603
O O7 0.224335 0.875698 0.961727
O O8 0.225525 0.997627 0.880537
O O9 0.992945 0.274090 0.948283
O O10 0.955140 0.398869 0.871290
O O11 0.250000 0.250000 0.736422
O O12 0.123237 0.370768 0.724294
O O13 0.221422 0.426890 0.794334
O O14 0.295007 0.332461 0.549093
O O15 0.750000 0.750000 0.855449
#
# Coordination Sequence:
#
# PCOD9371395 Si02
#       7
#    16  16  16  16  16  16   8
#     4  11  23  45  66  97 138 183 229 296 353 432
#     4  12  25  43  68 103 140 178 231 305 344 424
#     4  11  23  40  70  97 138 172 231 287 360 404
#     4  11  21  40  65  98 130 178 236 285 338 440
#     4  11  22  41  67  95 139 176 232 285 350 426
#     4  11  25  46  70  97 141 188 240 283 363 429
#     4  10  22  38  66 100 128 184 214 278 360 418
#
# _framework density 19.928789999999999
#
# number of rings (size 3 to 8) (size 9 to 14) (size 15 to 20)
#    0.000    0.923    7.692    0.000    2.154    1.846 
#    2.769    0.769    0.000    0.000    0.000    0.000 
#    0.000    0.000    0.000    0.000    0.000    0.000 
#
# Total GULP energy -144918.206193 kJ/mol
# GULP energy per Si atom -5573.777161 kJ/mol
# Density = 1.988343 g / cm^3
# Si number density = 19.928790 Si / 1000 Ang^3
#
#
#
# Elastic Constant Matrix: (Units=GPa)
#
#
# Indices 1 2 3 4 5 6 
#
# 1 84.3995 14.5584 15.8893 0.0000 0.0000 0.0000
# 2 14.5584 113.8974 35.2667 0.0000 0.0000 0.0000
# 3 15.8893 35.2667 92.6244 0.0000 0.0000 0.0000
# 4 0.0000 0.0000 0.0000 36.1279 0.0000 0.0000
# 5 0.0000 0.0000 0.0000 0.0000 25.6517 0.0000
# 6 0.0000 0.0000 0.0000 0.0000 0.0000 27.3249
#
#
#
# Elastic Compliance Matrix: (Units=1/GPa)
#
#
# Indices 1 2 3 4 5 6 
#
# 1 0.012353 -0.001046 -0.001721 0.000000 0.000000 0.000000
# 2 -0.001046 0.010042 -0.003644 0.000000 0.000000 0.000000
# 3 -0.001721 -0.003644 0.012479 0.000000 0.000000 0.000000
# 4 0.000000 0.000000 0.000000 0.027679 0.000000 0.000000
# 5 0.000000 0.000000 0.000000 0.000000 0.038984 0.000000
# 6 0.000000 0.000000 0.000000 0.000000 0.000000 0.036597
#
#
# Mechanical properties :
#
#
# Convention : Reuss Voigt Hill
#
# Bulk Modulus (GPa) = 45.34764 46.92780 46.13772
# Shear Modulus (GPa) = 31.58443 32.83469 32.20956
#
# Velocity S-wave (km/s) = 3.98535 4.06347 4.02460
# Velocity P-wave (km/s) = 6.63187 6.75386 6.69314
#
# Compressibility (1/GPa) = 0.02205186
#
# Stress axis : x y z
#
# Youngs Moduli (GPa) = 80.95322 99.58321 80.13512
#
# Poissons Ratio (x) = 0.10418 0.13789
# Poissons Ratio (y) = 0.08469 0.29201
# Poissons Ratio (z) = 0.13930 0.36288
#
# Static dielectric constant tensor:
#      x y z
#    x 1.688380 0.000000 0.000000 
#    y 0.000000 1.797560 0.000000 
#    z 0.000000 0.000000 1.722290 
# 
# From -- ./inp_files/26005.got.cif
#   From: 2010.05.17/outbox.cif.g08.bks.cpg/sg43_14_cif.got.tgz:26005.got - 2010.06.03 19:21:55.
