data_PCOD9371086
_publ_section_title
;
Structure prediction by ZEFSAII (Michael W. Deem and Ramdas Pophale) SiO2 
 PCOD9371086
Probable space group: F D D 2
;
_chemical_formula_sum "Si O2"
_cell_formula_units_Z 80
_cell_length_a 23.516478
_cell_length_b 11.672587
_cell_length_c 11.149271
_cell_angle_alpha 90.000000
_cell_angle_beta 90.000000
_cell_angle_gamma 90.000000
_cell_volume 3060.454100
_symmetry_space_group_name_H-M "F D D 2"
_symmetry_group_IT_number 43
_symmetry_cell_setting 'orthorhombic'
loop_
_space_group_symop_operation_xyz
x,y,z
-x,-y,z
1/4-x,1/4+y,1/4+z
1/4+x,1/4-y,1/4+z
x,1/2+y,1/2+z
-x,1/2-y,1/2+z
1/4-x,3/4+y,3/4+z
1/4+x,3/4-y,3/4+z
1/2+x,y,1/2+z
1/2-x,-y,1/2+z
3/4-x,1/4+y,3/4+z
3/4+x,1/4-y,3/4+z
1/2+x,1/2+y,z
1/2-x,1/2-y,z
3/4-x,3/4+y,1/4+z
3/4+x,3/4-y,1/4+z
loop_
_atom_site_type_symbol
_atom_site_label
_atom_site_fract_x
_atom_site_fract_y
_atom_site_fract_z
Si Si1 0.175201 0.915700 0.083000
Si Si2 0.693149 0.232436 0.867090
Si Si3 0.845031 0.444406 0.017833
Si Si4 0.603726 0.822577 0.031573
Si Si5 0.703477 0.648326 0.013682
O O1 0.188373 0.819488 0.981656
O O2 0.154377 0.858298 0.210051
O O3 0.114438 0.972925 0.045421
O O4 0.212479 0.031655 0.091725
O O5 0.750000 0.250000 0.794023
O O6 0.698521 0.105776 0.923854
O O7 0.829552 0.403979 0.149278
O O8 0.849885 0.577142 0.033863
O O9 0.641825 0.709025 0.037085
O O10 0.556157 0.845424 0.130142
O O11 0.750000 0.750000 0.015357
#
# Coordination Sequence:
#
# PCOD9371086 Si02
#       5
#    16  16  16  16  16
#     4  10  21  42  63  98 134 166 230 281 320 418
#     4  10  21  38  72  92 126 176 224 273 333 392
#     4   9  18  39  64  87 129 169 218 282 319 386
#     4  10  21  41  60  96 133 168 225 281 322 401
#     4  11  25  42  67  95 140 181 216 279 356 392
#
# _framework density 26.139911999999999
#
# number of rings (size 3 to 8) (size 9 to 14) (size 15 to 20)
#    1.200    0.800    2.000    1.200    2.800    0.800 
#    0.000    4.000    0.000    0.000    0.000    0.000 
#    0.000    0.000    0.000    0.000    0.000    0.000 
#
# Total GULP energy -111358.578794 kJ/mol
# GULP energy per Si atom -5567.928940 kJ/mol
# Density = 2.608042 g / cm^3
# Si number density = 26.139912 Si / 1000 Ang^3
#
#
#
# Elastic Constant Matrix: (Units=GPa)
#
#
# Indices 1 2 3 4 5 6 
#
# 1 75.3310 9.4110 -3.9620 0.0000 0.0000 0.0000
# 2 9.4110 146.3394 19.0056 0.0000 0.0000 0.0000
# 3 -3.9620 19.0056 118.0748 0.0000 0.0000 0.0000
# 4 0.0000 0.0000 0.0000 16.4887 0.0000 0.0000
# 5 0.0000 0.0000 0.0000 0.0000 13.4202 0.0000
# 6 0.0000 0.0000 0.0000 0.0000 0.0000 46.4480
#
#
#
# Elastic Compliance Matrix: (Units=1/GPa)
#
#
# Indices 1 2 3 4 5 6 
#
# 1 0.013424 -0.000941 0.000602 0.000000 0.000000 0.000000
# 2 -0.000941 0.007045 -0.001166 0.000000 0.000000 0.000000
# 3 0.000602 -0.001166 0.008677 0.000000 0.000000 0.000000
# 4 0.000000 0.000000 0.000000 0.060648 0.000000 0.000000
# 5 0.000000 0.000000 0.000000 0.000000 0.074515 0.000000
# 6 0.000000 0.000000 0.000000 0.000000 0.000000 0.021529
#
#
# Mechanical properties :
#
#
# Convention : Reuss Voigt Hill
#
# Bulk Modulus (GPa) = 38.26115 43.18383 40.72249
# Shear Modulus (GPa) = 25.30870 36.29075 30.79973
#
# Velocity S-wave (km/s) = 3.11497 3.73007 3.43631
# Velocity P-wave (km/s) = 5.25416 5.92514 5.59971
#
# Compressibility (1/GPa) = 0.02613617
#
# Stress axis : x y z
#
# Youngs Moduli (GPa) = 74.49334 141.93739 115.24677
#
# Poissons Ratio (x) = 0.13363 -0.06938
# Poissons Ratio (y) = 0.07013 0.13433
# Poissons Ratio (z) = -0.04484 0.16545
#
# Static dielectric constant tensor:
#      x y z
#    x 2.154720 0.000000 0.000000 
#    y 0.000000 2.100370 0.000000 
#    z 0.000000 0.000000 2.143950 
# 
# From -- ./inp_files/11446.got.cif
#   From: 2010.05.17/outbox.cif.g08.bks.cpg/sg43_6_cif.got.tgz:11446.got - 2010.06.03 19:21:55.
