data_PCOD9371556
_publ_section_title
;
Structure prediction by ZEFSAII (Michael W. Deem and Ramdas Pophale) SiO2 
 PCOD9371556
Probable space group: F D D 2
;
_chemical_formula_sum "Si O2"
_cell_formula_units_Z 104
_cell_length_a 17.142916
_cell_length_b 10.248695
_cell_length_c 24.197306
_cell_angle_alpha 90.000000
_cell_angle_beta 90.000000
_cell_angle_gamma 90.000000
_cell_volume 4251.285608
_symmetry_space_group_name_H-M "F D D 2"
_symmetry_group_IT_number 43
_symmetry_cell_setting 'orthorhombic'
loop_
_space_group_symop_operation_xyz
x,y,z
-x,-y,z
1/4-x,1/4+y,1/4+z
1/4+x,1/4-y,1/4+z
x,1/2+y,1/2+z
-x,1/2-y,1/2+z
1/4-x,3/4+y,3/4+z
1/4+x,3/4-y,3/4+z
1/2+x,y,1/2+z
1/2-x,-y,1/2+z
3/4-x,1/4+y,3/4+z
3/4+x,1/4-y,3/4+z
1/2+x,1/2+y,z
1/2-x,1/2-y,z
3/4-x,3/4+y,1/4+z
3/4+x,3/4-y,1/4+z
loop_
_atom_site_type_symbol
_atom_site_label
_atom_site_fract_x
_atom_site_fract_y
_atom_site_fract_z
Si Si1 0.054291 0.192179 0.573240
Si Si2 0.730239 0.511365 0.036743
Si Si3 0.842860 0.472463 0.658817
Si Si4 0.167644 0.741306 0.168227
Si Si5 0.075630 0.441791 0.503510
Si Si6 0.000000 0.000000 0.215849
Si Si7 0.351355 0.849334 0.285160
O O1 0.091434 0.213760 0.633158
O O2 0.092353 0.308998 0.537607
O O3 0.960189 0.191926 0.566616
O O4 0.081315 0.046949 0.556501
O O5 0.693373 0.510217 0.098561
O O6 0.650016 0.536245 0.002822
O O7 0.804942 0.606588 0.038542
O O8 0.759735 0.376284 0.006894
O O9 0.835299 0.611480 0.688971
O O10 0.802413 0.359788 0.693351
O O11 0.933678 0.451595 0.672555
O O12 0.250000 0.750000 0.135889
O O13 0.170808 0.647106 0.220434
O O14 0.000000 0.500000 0.531525
#
# Coordination Sequence:
#
# PCOD9371556 Si02
#       7
#    16  16  16  16  16   8  16
#     4  11  23  40  70 106 137 182 234 304 357 430
#     4  11  22  40  70  96 140 189 230 299 365 436
#     4  11  22  38  68 100 129 180 242 299 350 426
#     4  12  21  38  73 101 137 187 234 297 373 428
#     4  11  24  44  64 101 142 184 248 303 350 435
#     4  10  22  42  66 108 134 166 264 300 350 438
#     4  11  22  45  66 107 149 170 239 311 365 435
#
# _framework density 24.463189
#
# number of rings (size 3 to 8) (size 9 to 14) (size 15 to 20)
#    0.000    0.923    6.154    1.846    2.154    0.000 
#    2.769    0.769    0.000    0.000    0.000    0.000 
#    0.000    0.000    0.000    0.000    0.000    0.000 
#
# Total GULP energy -144887.503180 kJ/mol
# GULP energy per Si atom -5572.596276 kJ/mol
# Density = 2.440751 g / cm^3
# Si number density = 24.463189 Si / 1000 Ang^3
#
#
#
# Elastic Constant Matrix: (Units=GPa)
#
#
# Indices 1 2 3 4 5 6 
#
# 1 178.6381 41.7333 60.6102 0.0000 0.0000 0.0000
# 2 41.7333 29.2794 18.2355 0.0000 0.0000 0.0000
# 3 60.6102 18.2355 119.1557 0.0000 0.0000 0.0000
# 4 0.0000 0.0000 0.0000 4.3911 0.0000 0.0000
# 5 0.0000 0.0000 0.0000 0.0000 43.2981 0.0000
# 6 0.0000 0.0000 0.0000 0.0000 0.0000 38.3126
#
#
#
# Elastic Compliance Matrix: (Units=1/GPa)
#
#
# Indices 1 2 3 4 5 6 
#
# 1 0.009256 -0.011342 -0.002973 0.000000 0.000000 0.000000
# 2 -0.011342 0.051650 -0.002135 0.000000 0.000000 0.000000
# 3 -0.002973 -0.002135 0.010231 0.000000 0.000000 0.000000
# 4 0.000000 0.000000 0.000000 0.227735 0.000000 0.000000
# 5 0.000000 0.000000 0.000000 0.000000 0.023096 0.000000
# 6 0.000000 0.000000 0.000000 0.000000 0.000000 0.026101
#
#
# Mechanical properties :
#
#
# Convention : Reuss Voigt Hill
#
# Bulk Modulus (GPa) = 26.15217 63.13681 44.64449
# Shear Modulus (GPa) = 12.69956 30.96663 21.83309
#
# Velocity S-wave (km/s) = 2.28091 3.56173 2.99069
# Velocity P-wave (km/s) = 4.20124 6.54061 5.49681
#
# Compressibility (1/GPa) = 0.03823775
#
# Stress axis : x y z
#
# Youngs Moduli (GPa) = 108.03634 19.36117 97.74063
#
# Poissons Ratio (x) = 0.21959 0.29053
# Poissons Ratio (y) = 1.22534 0.20870
# Poissons Ratio (z) = 0.32114 0.04134
#
# Static dielectric constant tensor:
#      x y z
#    x 2.173490 0.000000 0.000000 
#    y 0.000000 1.987750 0.000000 
#    z 0.000000 0.000000 1.949410 
# 
# From -- ./inp_files/26029.got.cif
#   From: 2010.05.17/outbox.cif.g08.bks.cpg/sg43_14_cif.got.tgz:26029.got - 2010.06.03 19:21:55.
