data_PCOD9371385
_publ_section_title
;
Structure prediction by ZEFSAII (Michael W. Deem and Ramdas Pophale) SiO2 
 PCOD9371385
Probable space group: F D D 2
;
_chemical_formula_sum "Si O2"
_cell_formula_units_Z 120
_cell_length_a 12.145726
_cell_length_b 19.390448
_cell_length_c 24.847448
_cell_angle_alpha 90.000000
_cell_angle_beta 90.000000
_cell_angle_gamma 90.000000
_cell_volume 5851.849026
_symmetry_space_group_name_H-M "F D D 2"
_symmetry_group_IT_number 43
_symmetry_cell_setting 'orthorhombic'
loop_
_space_group_symop_operation_xyz
x,y,z
-x,-y,z
1/4-x,1/4+y,1/4+z
1/4+x,1/4-y,1/4+z
x,1/2+y,1/2+z
-x,1/2-y,1/2+z
1/4-x,3/4+y,3/4+z
1/4+x,3/4-y,3/4+z
1/2+x,y,1/2+z
1/2-x,-y,1/2+z
3/4-x,1/4+y,3/4+z
3/4+x,1/4-y,3/4+z
1/2+x,1/2+y,z
1/2-x,1/2-y,z
3/4-x,3/4+y,1/4+z
3/4+x,3/4-y,1/4+z
loop_
_atom_site_type_symbol
_atom_site_label
_atom_site_fract_x
_atom_site_fract_y
_atom_site_fract_z
Si Si1 0.332881 0.883220 0.727640
Si Si2 0.307855 0.396816 0.513351
Si Si3 0.052059 0.712580 0.202299
Si Si4 0.148040 0.640157 0.514297
Si Si5 0.500000 0.000000 0.187066
Si Si6 0.367780 0.277845 0.430008
Si Si7 0.131242 0.213563 0.129969
Si Si8 0.670898 0.101380 0.134820
O O1 0.425891 0.860305 0.768942
O O2 0.215927 0.856807 0.746505
O O3 0.366463 0.847681 0.672455
O O4 0.332804 0.964046 0.714107
O O5 0.337054 0.468748 0.484379
O O6 0.338786 0.336341 0.472927
O O7 0.352171 0.384131 0.572552
O O8 0.147264 0.668007 0.172802
O O9 0.992762 0.664865 0.248196
O O10 0.964474 0.736120 0.154763
O O11 0.175783 0.702841 0.474838
O O12 0.126569 0.675827 0.572019
O O13 0.421650 0.952409 0.152654
O O14 0.250000 0.250000 0.406386
O O15 0.461370 0.313170 0.393170
O O16 0.250000 0.250000 0.131011
#
# Coordination Sequence:
#
# PCOD9371385 Si02
#       8
#    16  16  16  16   8  16  16  16
#     4  10  22  42  66  94 134 168 233 280 318 420
#     4  10  25  45  64 100 133 180 223 276 343 402
#     4  10  25  43  64 107 136 172 233 280 337 421
#     4  11  21  38  69  97 132 177 222 279 346 395
#     4  10  22  38  62 106 132 170 222 278 334 414
#     4  10  23  45  66  95 134 174 230 275 326 414
#     4  11  22  40  67  97 137 178 222 287 347 398
#     4  11  24  43  70  95 140 179 222 278 349 403
#
# _framework density 20.506338
#
# number of rings (size 3 to 8) (size 9 to 14) (size 15 to 20)
#    0.000    1.600    3.333    0.000    3.733    4.800 
#    4.800    0.000    0.000    0.000    0.000    0.000 
#    0.000    0.000    0.000    0.000    0.000    0.000 
#
# Total GULP energy -167227.471190 kJ/mol
# GULP energy per Si atom -5574.249040 kJ/mol
# Density = 2.045966 g / cm^3
# Si number density = 20.506338 Si / 1000 Ang^3
#
#
#
# Elastic Constant Matrix: (Units=GPa)
#
#
# Indices 1 2 3 4 5 6 
#
# 1 65.5612 14.0643 19.9729 0.0000 0.0000 0.0000
# 2 14.0643 89.7471 0.6887 0.0000 0.0000 0.0000
# 3 19.9729 0.6887 48.7359 0.0000 0.0000 0.0000
# 4 0.0000 0.0000 0.0000 12.6679 0.0000 0.0000
# 5 0.0000 0.0000 0.0000 0.0000 62.2910 0.0000
# 6 0.0000 0.0000 0.0000 0.0000 0.0000 27.4032
#
#
#
# Elastic Compliance Matrix: (Units=1/GPa)
#
#
# Indices 1 2 3 4 5 6 
#
# 1 0.018097 -0.002779 -0.007377 0.000000 0.000000 0.000000
# 2 -0.002779 0.011570 0.000975 0.000000 0.000000 0.000000
# 3 -0.007377 0.000975 0.023528 0.000000 0.000000 0.000000
# 4 0.000000 0.000000 0.000000 0.078940 0.000000 0.000000
# 5 0.000000 0.000000 0.000000 0.000000 0.016054 0.000000
# 6 0.000000 0.000000 0.000000 0.000000 0.000000 0.036492
#
#
# Mechanical properties :
#
#
# Convention : Reuss Voigt Hill
#
# Bulk Modulus (GPa) = 28.70794 30.38846 29.54820
# Shear Modulus (GPa) = 23.29335 31.76030 27.52682
#
# Velocity S-wave (km/s) = 3.37398 3.93975 3.66779
# Velocity P-wave (km/s) = 5.40447 5.96211 5.69013
#
# Compressibility (1/GPa) = 0.03483357
#
# Stress axis : x y z
#
# Youngs Moduli (GPa) = 55.25925 86.42680 42.50211
#
# Poissons Ratio (x) = 0.24021 0.31354
# Poissons Ratio (y) = 0.15358 -0.04146
# Poissons Ratio (z) = 0.40765 -0.08431
#
# Static dielectric constant tensor:
#      x y z
#    x 1.833390 0.000000 0.000000 
#    y 0.000000 1.741740 0.000000 
#    z 0.000000 0.000000 1.756200 
# 
# From -- ./inp_files/21234.got.cif
#   From: 2010.05.17/outbox.cif.g08.bks.cpg/sg43_11_cif.got.tgz:21234.got - 2010.06.03 19:21:55.
