data_PCOD9371239
_publ_section_title
;
Structure prediction by ZEFSAII (Michael W. Deem and Ramdas Pophale) SiO2 
 PCOD9371239
Probable space group: F D D 2
;
_chemical_formula_sum "Si O2"
_cell_formula_units_Z 64
_cell_length_a 14.175797
_cell_length_b 25.450132
_cell_length_c 7.641404
_cell_angle_alpha 90.000000
_cell_angle_beta 90.000000
_cell_angle_gamma 90.000000
_cell_volume 2756.834442
_symmetry_space_group_name_H-M "F D D 2"
_symmetry_group_IT_number 43
_symmetry_cell_setting 'orthorhombic'
loop_
_space_group_symop_operation_xyz
x,y,z
-x,-y,z
1/4-x,1/4+y,1/4+z
1/4+x,1/4-y,1/4+z
x,1/2+y,1/2+z
-x,1/2-y,1/2+z
1/4-x,3/4+y,3/4+z
1/4+x,3/4-y,3/4+z
1/2+x,y,1/2+z
1/2-x,-y,1/2+z
3/4-x,1/4+y,3/4+z
3/4+x,1/4-y,3/4+z
1/2+x,1/2+y,z
1/2-x,1/2-y,z
3/4-x,3/4+y,1/4+z
3/4+x,3/4-y,1/4+z
loop_
_atom_site_type_symbol
_atom_site_label
_atom_site_fract_x
_atom_site_fract_y
_atom_site_fract_z
Si Si1 0.898224 0.291142 0.912960
Si Si2 0.444784 0.565106 0.503460
Si Si3 0.399675 0.654342 0.250021
Si Si4 0.939707 0.776084 0.058505
O O1 0.880759 0.261325 0.731907
O O2 0.835227 0.281804 0.082933
O O3 0.880688 0.353341 0.882310
O O4 0.001462 0.271415 0.974751
O O5 0.425534 0.623924 0.429640
O O6 0.555520 0.562641 0.540325
O O7 0.376743 0.551967 0.663842
O O8 0.479808 0.684912 0.140730
#
# Coordination Sequence:
#
# PCOD9371239 Si02
#       4
#    16  16  16  16
#     4  10  21  42  61  95 127 169 210 272 325 387
#     4  10  23  39  65  92 128 171 214 269 332 384
#     4  10  22  42  63  95 125 168 223 259 329 396
#     4  12  22  43  68  89 138 168 217 278 327 391
#
# _framework density 23.215033999999999
#
# number of rings (size 3 to 8) (size 9 to 14) (size 15 to 20)
#    1.500    0.000    5.000    0.000    3.500    1.000 
#    0.000    0.000    5.500    0.000    0.000    0.000 
#    0.000    0.000    0.000    0.000    0.000    0.000 
#
# Total GULP energy -89115.565050 kJ/mol
# GULP energy per Si atom -5569.722816 kJ/mol
# Density = 2.316220 g / cm^3
# Si number density = 23.215034 Si / 1000 Ang^3
#
#
#
# Elastic Constant Matrix: (Units=GPa)
#
#
# Indices 1 2 3 4 5 6 
#
# 1 148.3307 36.6322 60.1131 0.0000 0.0000 0.0000
# 2 36.6322 98.9257 39.4785 0.0000 0.0000 0.0000
# 3 60.1131 39.4785 170.9981 0.0000 0.0000 0.0000
# 4 0.0000 0.0000 0.0000 33.4263 0.0000 0.0000
# 5 0.0000 0.0000 0.0000 0.0000 24.8551 0.0000
# 6 0.0000 0.0000 0.0000 0.0000 0.0000 50.5299
#
#
#
# Elastic Compliance Matrix: (Units=1/GPa)
#
#
# Indices 1 2 3 4 5 6 
#
# 1 0.008235 -0.002086 -0.002413 0.000000 0.000000 0.000000
# 2 -0.002086 0.011663 -0.001959 0.000000 0.000000 0.000000
# 3 -0.002413 -0.001959 0.007149 0.000000 0.000000 0.000000
# 4 0.000000 0.000000 0.000000 0.029917 0.000000 0.000000
# 5 0.000000 0.000000 0.000000 0.000000 0.040233 0.000000
# 6 0.000000 0.000000 0.000000 0.000000 0.000000 0.019790
#
#
# Mechanical properties :
#
#
# Convention : Reuss Voigt Hill
#
# Bulk Modulus (GPa) = 70.77614 76.74468 73.76041
# Shear Modulus (GPa) = 37.14325 40.56431 38.85378
#
# Velocity S-wave (km/s) = 4.00430 4.18464 4.09546
# Velocity P-wave (km/s) = 7.20643 7.51520 7.36243
#
# Compressibility (1/GPa) = 0.01412906
#
# Stress axis : x y z
#
# Youngs Moduli (GPa) = 121.43362 85.74098 139.88535
#
# Poissons Ratio (x) = 0.17888 0.33758
# Poissons Ratio (y) = 0.25335 0.27407
# Poissons Ratio (z) = 0.29305 0.16799
#
# Static dielectric constant tensor:
#      x y z
#    x 1.943680 0.000000 0.000000 
#    y 0.000000 1.912320 0.000000 
#    z 0.000000 0.000000 1.874500 
# 
# From -- ./inp_files/2360.got.cif
#   From: 2010.05.17/outbox.cif.g08.bks.cpg/sg43_2_cif.got.tgz:2360.got - 2010.06.03 19:21:55.
