data_PCOD9371040
_publ_section_title
;
Structure prediction by ZEFSAII (Michael W. Deem and Ramdas Pophale) SiO2 
 PCOD9371040
Probable space group: F D D 2
;
_chemical_formula_sum "Si O2"
_cell_formula_units_Z 112
_cell_length_a 16.430482
_cell_length_b 21.991834
_cell_length_c 12.361451
_cell_angle_alpha 90.000000
_cell_angle_beta 90.000000
_cell_angle_gamma 90.000000
_cell_volume 4466.642607
_symmetry_space_group_name_H-M "F D D 2"
_symmetry_group_IT_number 43
_symmetry_cell_setting 'orthorhombic'
loop_
_space_group_symop_operation_xyz
x,y,z
-x,-y,z
1/4-x,1/4+y,1/4+z
1/4+x,1/4-y,1/4+z
x,1/2+y,1/2+z
-x,1/2-y,1/2+z
1/4-x,3/4+y,3/4+z
1/4+x,3/4-y,3/4+z
1/2+x,y,1/2+z
1/2-x,-y,1/2+z
3/4-x,1/4+y,3/4+z
3/4+x,1/4-y,3/4+z
1/2+x,1/2+y,z
1/2-x,1/2-y,z
3/4-x,3/4+y,1/4+z
3/4+x,3/4-y,1/4+z
loop_
_atom_site_type_symbol
_atom_site_label
_atom_site_fract_x
_atom_site_fract_y
_atom_site_fract_z
Si Si1 0.119883 0.248850 0.289880
Si Si2 0.750470 0.652215 0.281949
Si Si3 0.576463 0.620613 0.556063
Si Si4 0.568043 0.759294 0.832442
Si Si5 0.581024 0.212352 0.555324
Si Si6 0.254175 0.323953 0.027573
Si Si7 0.309644 0.306602 0.680983
O O1 0.180122 0.302042 0.326984
O O2 0.165326 0.184774 0.312137
O O3 0.111428 0.246257 0.160193
O O4 0.026459 0.254594 0.319760
O O5 0.755944 0.582899 0.320616
O O6 0.762290 0.654723 0.150564
O O7 0.646620 0.571007 0.533862
O O8 0.540185 0.603092 0.675335
O O9 0.629278 0.680446 0.581180
O O10 0.502639 0.609851 0.471990
O O11 0.629857 0.710560 0.779944
O O12 0.574590 0.760025 0.961048
O O13 0.649719 0.164593 0.517559
O O14 0.250000 0.250000 0.018845
O O15 0.250000 0.250000 0.660502
#
# Coordination Sequence:
#
# PCOD9371040 Si02
#       7
#    16  16  16  16  16  16  16
#     4  10  23  40  58  93 128 166 215 272 325 396
#     4  10  21  38  59  87 130 163 210 275 330 388
#     4  11  21  39  62  94 133 168 212 276 334 391
#     4  11  22  38  63  95 127 167 217 272 334 389
#     4  11  21  36  63  93 124 166 215 266 331 394
#     4  11  17  35  59  93 125 150 208 277 333 374
#     4  10  23  40  64  99 131 171 220 274 335 409
#
# _framework density 25.074762
#
# number of rings (size 3 to 8) (size 9 to 14) (size 15 to 20)
#    0.000    1.429    5.714    1.286    6.000    1.143 
#    5.143    0.000    0.000    0.000    3.714    0.000 
#    0.000    0.000    0.000    0.000    0.000    0.000 
#
# Total GULP energy -156333.517429 kJ/mol
# GULP energy per Si atom -5583.339908 kJ/mol
# Density = 2.501769 g / cm^3
# Si number density = 25.074762 Si / 1000 Ang^3
#
#
#
# Elastic Constant Matrix: (Units=GPa)
#
#
# Indices 1 2 3 4 5 6 
#
# 1 133.5943 9.7981 13.9172 0.0000 0.0000 0.0000
# 2 9.7981 60.9895 -6.6181 0.0000 0.0000 0.0000
# 3 13.9172 -6.6181 27.8434 0.0000 0.0000 0.0000
# 4 0.0000 0.0000 0.0000 6.3267 0.0000 0.0000
# 5 0.0000 0.0000 0.0000 0.0000 34.4983 0.0000
# 6 0.0000 0.0000 0.0000 0.0000 0.0000 35.9423
#
#
#
# Elastic Compliance Matrix: (Units=1/GPa)
#
#
# Indices 1 2 3 4 5 6 
#
# 1 0.008081 -0.001783 -0.004463 0.000000 0.000000 0.000000
# 2 -0.001783 0.017224 0.004985 0.000000 0.000000 0.000000
# 3 -0.004463 0.004985 0.039331 0.000000 0.000000 0.000000
# 4 0.000000 0.000000 0.000000 0.158061 0.000000 0.000000
# 5 0.000000 0.000000 0.000000 0.000000 0.028987 0.000000
# 6 0.000000 0.000000 0.000000 0.000000 0.000000 0.027822
#
#
# Mechanical properties :
#
#
# Convention : Reuss Voigt Hill
#
# Bulk Modulus (GPa) = 16.09938 28.51350 22.30644
# Shear Modulus (GPa) = 16.51626 29.04212 22.77919
#
# Velocity S-wave (km/s) = 2.56926 3.40696 3.01732
# Velocity P-wave (km/s) = 3.90333 5.18387 4.58849
#
# Compressibility (1/GPa) = 0.06211419
#
# Stress axis : x y z
#
# Youngs Moduli (GPa) = 123.74703 58.06005 25.42538
#
# Poissons Ratio (x) = 0.10349 0.11347
# Poissons Ratio (y) = 0.22058 -0.12674
# Poissons Ratio (z) = 0.55227 -0.28942
#
# Static dielectric constant tensor:
#      x y z
#    x 2.199580 0.000000 0.000000 
#    y 0.000000 2.038250 0.000000 
#    z 0.000000 0.000000 2.007720 
# 
# From -- ./inp_files/10180.got.cif
#   From: 2010.05.17/outbox.cif.g08.bks.cpg/sg43_6_cif.got.tgz:10180.got - 2010.06.03 19:21:55.
