data_PCOD9371713
_publ_section_title
;
Structure prediction by ZEFSAII (Michael W. Deem and Ramdas Pophale) SiO2 
 PCOD9371713
Probable space group: F D D 2
;
_chemical_formula_sum "Si O2"
_cell_formula_units_Z 80
_cell_length_a 16.042598
_cell_length_b 6.632022
_cell_length_c 27.086833
_cell_angle_alpha 90.000000
_cell_angle_beta 90.000000
_cell_angle_gamma 90.000000
_cell_volume 2881.899883
_symmetry_space_group_name_H-M "F D D 2"
_symmetry_group_IT_number 43
_symmetry_cell_setting 'orthorhombic'
loop_
_space_group_symop_operation_xyz
x,y,z
-x,-y,z
1/4-x,1/4+y,1/4+z
1/4+x,1/4-y,1/4+z
x,1/2+y,1/2+z
-x,1/2-y,1/2+z
1/4-x,3/4+y,3/4+z
1/4+x,3/4-y,3/4+z
1/2+x,y,1/2+z
1/2-x,-y,1/2+z
3/4-x,1/4+y,3/4+z
3/4+x,1/4-y,3/4+z
1/2+x,1/2+y,z
1/2-x,1/2-y,z
3/4-x,3/4+y,1/4+z
3/4+x,3/4-y,1/4+z
loop_
_atom_site_type_symbol
_atom_site_label
_atom_site_fract_x
_atom_site_fract_y
_atom_site_fract_z
Si Si1 0.013324 0.762703 0.871460
Si Si2 0.369947 0.210867 0.451674
Si Si3 0.083028 0.625610 0.244097
Si Si4 0.661111 0.179690 0.388164
Si Si5 0.089732 0.047191 0.046282
O O1 0.081236 0.734686 0.829196
O O2 0.917364 0.723318 0.858405
O O3 0.054763 0.684771 0.921498
O O4 0.000000 0.000000 0.882040
O O5 0.177876 0.110354 0.481076
O O6 0.333885 0.056193 0.408754
O O7 0.404266 0.071575 0.495041
O O8 0.101591 0.537697 0.190472
O O9 0.150174 0.534390 0.282291
O O10 0.000000 0.500000 0.259315
O O11 0.750000 0.250000 0.368483
O O12 0.000000 0.000000 0.068518
#
# Coordination Sequence:
#
# PCOD9371713 Si02
#       5
#    16  16  16  16  16
#     4  10  22  47  76 107 157 197 252 325 382 459
#     4  10  22  46  79 106 147 205 248 323 402 454
#     4  10  22  44  76 106 151 198 253 316 392 460
#     4   9  20  40  72 116 143 191 255 315 385 466
#     4  11  24  45  73 112 154 200 261 322 383 463
#
# _framework density 27.759466
#
# number of rings (size 3 to 8) (size 9 to 14) (size 15 to 20)
#    0.000    2.000    0.000    3.600    0.000   11.200 
#   18.000   14.000    0.000    0.000    0.000    0.000 
#    0.000    0.000    0.000    0.000    0.000    0.000 
#
# Total GULP energy -111599.970247 kJ/mol
# GULP energy per Si atom -5579.998512 kJ/mol
# Density = 2.769628 g / cm^3
# Si number density = 27.759466 Si / 1000 Ang^3
#
#
#
# Elastic Constant Matrix: (Units=GPa)
#
#
# Indices 1 2 3 4 5 6 
#
# 1 251.2927 61.5061 86.0979 0.0000 0.0000 0.0000
# 2 61.5061 194.5402 29.3413 0.0000 0.0000 0.0000
# 3 86.0979 29.3413 108.5746 0.0000 0.0000 0.0000
# 4 0.0000 0.0000 0.0000 15.7267 0.0000 0.0000
# 5 0.0000 0.0000 0.0000 0.0000 49.7868 0.0000
# 6 0.0000 0.0000 0.0000 0.0000 0.0000 24.5771
#
#
#
# Elastic Compliance Matrix: (Units=1/GPa)
#
#
# Indices 1 2 3 4 5 6 
#
# 1 0.005708 -0.001170 -0.004211 0.000000 0.000000 0.000000
# 2 -0.001170 0.005598 -0.000585 0.000000 0.000000 0.000000
# 3 -0.004211 -0.000585 0.012707 0.000000 0.000000 0.000000
# 4 0.000000 0.000000 0.000000 0.063586 0.000000 0.000000
# 5 0.000000 0.000000 0.000000 0.000000 0.020086 0.000000
# 6 0.000000 0.000000 0.000000 0.000000 0.000000 0.040688
#
#
# Mechanical properties :
#
#
# Convention : Reuss Voigt Hill
#
# Bulk Modulus (GPa) = 82.76155 100.92200 91.84178
# Shear Modulus (GPa) = 30.42610 43.18230 36.80420
#
# Velocity S-wave (km/s) = 3.31427 3.94837 3.64514
# Velocity P-wave (km/s) = 6.67266 7.56446 7.13251
#
# Compressibility (1/GPa) = 0.01208291
#
# Stress axis : x y z
#
# Youngs Moduli (GPa) = 175.18284 178.62152 78.69491
#
# Poissons Ratio (x) = 0.20893 0.33135
# Poissons Ratio (y) = 0.20491 0.04607
# Poissons Ratio (z) = 0.73761 0.10456
#
# Static dielectric constant tensor:
#      x y z
#    x 2.390350 0.000000 0.000000 
#    y 0.000000 2.297620 0.000000 
#    z 0.000000 0.000000 2.095500 
# 
# From -- ./inp_files/24938.got.cif
#   From: 2010.05.17/outbox.cif.g08.bks.cpg/sg43_13_cif.got.tgz:24938.got - 2010.06.03 19:21:55.
