data_PCOD9371029
_publ_section_title
;
Structure prediction by ZEFSAII (Michael W. Deem and Ramdas Pophale) SiO2 
 PCOD9371029
Probable space group: F D D 2
;
_chemical_formula_sum "Si O2"
_cell_formula_units_Z 112
_cell_length_a 26.568084
_cell_length_b 20.069472
_cell_length_c 8.853779
_cell_angle_alpha 90.000000
_cell_angle_beta 90.000000
_cell_angle_gamma 90.000000
_cell_volume 4720.900640
_symmetry_space_group_name_H-M "F D D 2"
_symmetry_group_IT_number 43
_symmetry_cell_setting 'orthorhombic'
loop_
_space_group_symop_operation_xyz
x,y,z
-x,-y,z
1/4-x,1/4+y,1/4+z
1/4+x,1/4-y,1/4+z
x,1/2+y,1/2+z
-x,1/2-y,1/2+z
1/4-x,3/4+y,3/4+z
1/4+x,3/4-y,3/4+z
1/2+x,y,1/2+z
1/2-x,-y,1/2+z
3/4-x,1/4+y,3/4+z
3/4+x,1/4-y,3/4+z
1/2+x,1/2+y,z
1/2-x,1/2-y,z
3/4-x,3/4+y,1/4+z
3/4+x,3/4-y,1/4+z
loop_
_atom_site_type_symbol
_atom_site_label
_atom_site_fract_x
_atom_site_fract_y
_atom_site_fract_z
Si Si1 0.829787 0.067417 0.004460
Si Si2 0.681427 0.216153 0.870013
Si Si3 0.307410 0.522684 0.469284
Si Si4 0.029765 0.293436 0.408538
Si Si5 0.473735 0.403424 0.028999
Si Si6 0.172644 0.723565 0.220481
Si Si7 0.979266 0.893087 0.519067
O O1 0.887671 0.077358 0.046595
O O2 0.796613 0.108955 0.123505
O O3 0.818650 0.989484 0.041183
O O4 0.811968 0.096482 0.845978
O O5 0.733869 0.178759 0.895241
O O6 0.692176 0.279270 0.760471
O O7 0.666871 0.236502 0.039450
O O8 0.271351 0.504589 0.608333
O O9 0.298965 0.472504 0.327795
O O10 0.364739 0.533055 0.518304
O O11 0.285250 0.590429 0.397249
O O12 0.011130 0.369636 0.408842
O O13 0.212046 0.663325 0.250001
O O14 0.198895 0.788160 0.291529
#
# Coordination Sequence:
#
# PCOD9371029 Si02
#       7
#    16  16  16  16  16  16  16
#     4  11  21  36  64  98 122 169 218 271 316 378
#     4  11  22  37  67 100 128 180 216 271 336 379
#     4  11  25  42  65  99 125 180 220 274 336 387
#     4  11  24  42  62  92 133 164 218 275 322 391
#     4  11  23  42  61  97 139 158 226 278 318 397
#     4  11  20  39  65  97 130 179 220 272 337 383
#     4  10  21  37  62  96 134 157 227 279 315 399
#
# _framework density 23.724287
#
# number of rings (size 3 to 8) (size 9 to 14) (size 15 to 20)
#    0.000    1.143    7.143    0.857    4.000    2.286 
#    2.571    4.286    0.000    0.000    0.000    0.000 
#    0.000    0.000    0.000    0.000    0.000    0.000 
#
# Total GULP energy -156076.552775 kJ/mol
# GULP energy per Si atom -5574.162599 kJ/mol
# Density = 2.367029 g / cm^3
# Si number density = 23.724287 Si / 1000 Ang^3
#
#
#
# Elastic Constant Matrix: (Units=GPa)
#
#
# Indices 1 2 3 4 5 6 
#
# 1 181.7218 25.7614 16.8019 0.0001 0.0000 0.0000
# 2 25.7614 87.9252 6.5222 -0.0003 -0.0001 0.0000
# 3 16.8019 6.5222 13.3805 -0.0012 -0.0002 0.0001
# 4 0.0001 -0.0003 -0.0012 17.4544 -0.0001 0.0001
# 5 0.0000 -0.0001 -0.0002 -0.0001 16.6845 0.0000
# 6 0.0000 0.0000 0.0001 0.0001 0.0000 38.7861
#
#
#
# Elastic Compliance Matrix: (Units=1/GPa)
#
#
# Indices 1 2 3 4 5 6 
#
# 1 0.006370 -0.001321 -0.007355 -0.000001 0.000000 0.000000
# 2 -0.001321 0.012074 -0.004227 0.000000 0.000000 0.000000
# 3 -0.007355 -0.004227 0.086032 0.000006 0.000001 0.000000
# 4 -0.000001 0.000000 0.000006 0.057292 0.000000 0.000000
# 5 0.000000 0.000000 0.000001 0.000000 0.059936 0.000000
# 6 0.000000 0.000000 0.000000 0.000000 0.000000 0.025782
#
#
# Mechanical properties :
#
#
# Convention : Reuss Voigt Hill
#
# Bulk Modulus (GPa) = 12.71129 42.35538 27.53333
# Shear Modulus (GPa) = 16.69362 30.18111 23.43737
#
# Velocity S-wave (km/s) = 2.65552 3.57061 3.14651
# Velocity P-wave (km/s) = 3.84343 5.90685 4.98311
#
# Compressibility (1/GPa) = 0.07867024
#
# Stress axis : x y z
#
# Youngs Moduli (GPa) = 156.98045 82.82370 11.62360
#
# Poissons Ratio (x) = 0.10939 0.08549
# Poissons Ratio (y) = 0.20734 0.04913
# Poissons Ratio (z) = 1.15463 0.35008
#
# Static dielectric constant tensor:
#      x y z
#    x 1.901110 0.000000 0.000000 
#    y 0.000000 1.989580 0.000000 
#    z 0.000000 0.000000 2.004320 
# 
# From -- ./inp_files/8002.got.cif
#   From: 2010.05.17/outbox.cif.g08.bks.cpg/sg43_5_cif.got.tgz:8002.got - 2010.06.03 19:21:55.
