data_PCOD9371782
_publ_section_title
;
Structure prediction by ZEFSAII (Michael W. Deem and Ramdas Pophale) SiO2 
 PCOD9371782
Probable space group: F D D 2
;
_chemical_formula_sum "Si O2"
_cell_formula_units_Z 56
_cell_length_a 13.558824
_cell_length_b 19.919824
_cell_length_c 8.262480
_cell_angle_alpha 90.000000
_cell_angle_beta 90.000000
_cell_angle_gamma 90.000000
_cell_volume 2231.608164
_symmetry_space_group_name_H-M "F D D 2"
_symmetry_group_IT_number 43
_symmetry_cell_setting 'orthorhombic'
loop_
_space_group_symop_operation_xyz
x,y,z
-x,-y,z
1/4-x,1/4+y,1/4+z
1/4+x,1/4-y,1/4+z
x,1/2+y,1/2+z
-x,1/2-y,1/2+z
1/4-x,3/4+y,3/4+z
1/4+x,3/4-y,3/4+z
1/2+x,y,1/2+z
1/2-x,-y,1/2+z
3/4-x,1/4+y,3/4+z
3/4+x,1/4-y,3/4+z
1/2+x,1/2+y,z
1/2-x,1/2-y,z
3/4-x,3/4+y,1/4+z
3/4+x,3/4-y,1/4+z
loop_
_atom_site_type_symbol
_atom_site_label
_atom_site_fract_x
_atom_site_fract_y
_atom_site_fract_z
Si Si1 0.091358 0.810697 0.783340
Si Si2 0.500000 0.000000 0.768566
Si Si3 0.503750 0.404041 0.539326
Si Si4 0.068343 0.271243 0.944871
O O1 0.178061 0.795296 0.908552
O O2 0.070027 0.882020 0.694403
O O3 0.104061 0.761820 0.628401
O O4 0.989867 0.789349 0.867969
O O5 0.450013 0.051973 0.895326
O O6 0.408989 0.444414 0.600964
O O7 0.487320 0.331322 0.459846
#
# Coordination Sequence:
#
# PCOD9371782 Si02
#       4
#    16   8  16  16
#     4  10  25  47  78 115 148 215 257 324 395 472
#     4  12  24  54  78 112 168 204 260 338 396 470
#     4  10  25  46  79 114 150 208 263 323 394 473
#     4  10  22  48  72 111 157 195 265 319 387 468
#
# _framework density 25.094010000000001
#
# number of rings (size 3 to 8) (size 9 to 14) (size 15 to 20)
#    1.714    0.000    0.000    3.429    4.000    1.143 
#   20.571    0.000    0.000    0.000    0.000    0.000 
#    0.000    0.000    0.000    0.000    0.000    0.000 
#
# Total GULP energy -78032.141308 kJ/mol
# GULP energy per Si atom -5573.724379 kJ/mol
# Density = 2.503690 g / cm^3
# Si number density = 25.094010 Si / 1000 Ang^3
#
#
#
# Elastic Constant Matrix: (Units=GPa)
#
#
# Indices 1 2 3 4 5 6 
#
# 1 150.9882 55.8923 81.9777 0.0000 0.0000 0.0000
# 2 55.8923 60.6196 68.9187 0.0000 0.0000 0.0000
# 3 81.9777 68.9187 157.2257 0.0000 0.0000 0.0000
# 4 0.0000 0.0000 0.0000 63.9184 0.0000 0.0000
# 5 0.0000 0.0000 0.0000 0.0000 55.6084 0.0000
# 6 0.0000 0.0000 0.0000 0.0000 0.0000 36.4405
#
#
#
# Elastic Compliance Matrix: (Units=1/GPa)
#
#
# Indices 1 2 3 4 5 6 
#
# 1 0.010510 -0.006898 -0.002456 0.000000 0.000000 0.000000
# 2 -0.006898 0.037411 -0.012802 0.000000 0.000000 0.000000
# 3 -0.002456 -0.012802 0.013253 0.000000 0.000000 0.000000
# 4 0.000000 0.000000 0.000000 0.015645 0.000000 0.000000
# 5 0.000000 0.000000 0.000000 0.000000 0.017983 0.000000
# 6 0.000000 0.000000 0.000000 0.000000 0.000000 0.027442
#
#
# Mechanical properties :
#
#
# Convention : Reuss Voigt Hill
#
# Bulk Modulus (GPa) = 59.30818 86.93455 73.12137
# Shear Modulus (GPa) = 29.03969 41.99644 35.51807
#
# Velocity S-wave (km/s) = 3.40551 4.09536 3.76626
# Velocity P-wave (km/s) = 6.25692 7.55522 6.93651
#
# Compressibility (1/GPa) = 0.01686108
#
# Stress axis : x y z
#
# Youngs Moduli (GPa) = 95.14634 26.72977 75.45509
#
# Poissons Ratio (x) = 0.18438 0.18535
# Poissons Ratio (y) = 0.65631 0.96601
# Poissons Ratio (z) = 0.23371 0.34221
#
# Static dielectric constant tensor:
#      x y z
#    x 2.000920 0.000000 0.000000 
#    y 0.000000 2.057350 0.000000 
#    z 0.000000 0.000000 1.996250 
# 
# From -- ./inp_files/2214.got.cif
#   From: 2010.05.17/outbox.cif.g08.bks.cpg/sg43_2_cif.got.tgz:2214.got - 2010.06.03 19:21:55.
