data_PCOD9371473
_publ_section_title
;
Structure prediction by ZEFSAII (Michael W. Deem and Ramdas Pophale) SiO2 
 PCOD9371473
Probable space group: F D D 2
;
_chemical_formula_sum "Si O2"
_cell_formula_units_Z 120
_cell_length_a 17.193661
_cell_length_b 21.467952
_cell_length_c 14.717989
_cell_angle_alpha 90.000000
_cell_angle_beta 90.000000
_cell_angle_gamma 90.000000
_cell_volume 5432.596497
_symmetry_space_group_name_H-M "F D D 2"
_symmetry_group_IT_number 43
_symmetry_cell_setting 'orthorhombic'
loop_
_space_group_symop_operation_xyz
x,y,z
-x,-y,z
1/4-x,1/4+y,1/4+z
1/4+x,1/4-y,1/4+z
x,1/2+y,1/2+z
-x,1/2-y,1/2+z
1/4-x,3/4+y,3/4+z
1/4+x,3/4-y,3/4+z
1/2+x,y,1/2+z
1/2-x,-y,1/2+z
3/4-x,1/4+y,3/4+z
3/4+x,1/4-y,3/4+z
1/2+x,1/2+y,z
1/2-x,1/2-y,z
3/4-x,3/4+y,1/4+z
3/4+x,3/4-y,1/4+z
loop_
_atom_site_type_symbol
_atom_site_label
_atom_site_fract_x
_atom_site_fract_y
_atom_site_fract_z
Si Si1 0.638295 0.411854 0.500000
Si Si2 0.969556 0.343170 0.429768
Si Si3 0.000000 0.500000 0.993855
Si Si4 0.129502 0.830933 0.836932
Si Si5 0.926772 0.382521 0.907565
Si Si6 0.498121 0.380515 0.206137
Si Si7 0.535359 0.762509 0.184929
Si Si8 0.948830 0.702074 0.982786
O O1 0.680437 0.385122 0.587490
O O2 0.563609 0.451897 0.534397
O O3 0.701443 0.454904 0.450810
O O4 0.610048 0.350795 0.445032
O O5 0.924230 0.374664 0.513527
O O6 0.953882 0.268922 0.436226
O O7 0.061038 0.354288 0.406778
O O8 0.055086 0.547596 0.940131
O O9 0.198899 0.816237 0.905494
O O10 0.087837 0.781101 0.771684
O O11 0.836409 0.367791 0.921265
O O12 0.971327 0.380548 0.810941
O O13 0.969136 0.331676 0.970137
O O14 0.471735 0.311067 0.177495
O O15 0.566265 0.786584 0.088831
#
# Coordination Sequence:
#
# PCOD9371473 Si02
#       8
#    16  16   8  16  16  16  16  16
#     4  10  22  40  68  98 136 175 233 290 356 429
#     4  11  23  46  67 103 139 188 232 298 352 436
#     4  10  22  42  66 100 134 182 230 290 356 432
#     4  11  24  45  72  98 142 189 240 284 365 421
#     4  11  26  43  72 107 138 191 238 295 366 435
#     4  12  25  48  70 101 147 188 237 303 355 438
#     4  11  23  45  69  99 140 183 232 301 353 437
#     4  11  24  41  72  99 138 182 232 298 362 423
#
# _framework density 22.088885000000001
#
# number of rings (size 3 to 8) (size 9 to 14) (size 15 to 20)
#    0.000    1.067    4.000    2.400    3.733    1.067 
#    2.400    6.000    0.000    0.000    0.000    0.000 
#    0.000    0.000    0.000    0.000    0.000    0.000 
#
# Total GULP energy -167097.388251 kJ/mol
# GULP energy per Si atom -5569.912942 kJ/mol
# Density = 2.203861 g / cm^3
# Si number density = 22.088885 Si / 1000 Ang^3
#
#
#
# Elastic Constant Matrix: (Units=GPa)
#
#
# Indices 1 2 3 4 5 6 
#
# 1 116.3909 22.7954 15.4259 0.0000 0.0000 0.0000
# 2 22.7954 50.3583 -2.8417 0.0000 0.0000 0.0000
# 3 15.4259 -2.8417 50.3536 0.0000 0.0000 0.0000
# 4 0.0000 0.0000 0.0000 22.9189 0.0000 0.0000
# 5 0.0000 0.0000 0.0000 0.0000 32.0481 0.0000
# 6 0.0000 0.0000 0.0000 0.0000 0.0000 21.5601
#
#
#
# Elastic Compliance Matrix: (Units=1/GPa)
#
#
# Indices 1 2 3 4 5 6 
#
# 1 0.009949 -0.004691 -0.003313 0.000000 0.000000 0.000000
# 2 -0.004691 0.022133 0.002686 0.000000 0.000000 0.000000
# 3 -0.003313 0.002686 0.021026 0.000000 0.000000 0.000000
# 4 0.000000 0.000000 0.000000 0.043632 0.000000 0.000000
# 5 0.000000 0.000000 0.000000 0.000000 0.031203 0.000000
# 6 0.000000 0.000000 0.000000 0.000000 0.000000 0.046382
#
#
# Mechanical properties :
#
#
# Convention : Reuss Voigt Hill
#
# Bulk Modulus (GPa) = 23.54420 31.98466 27.76443
# Shear Modulus (GPa) = 25.11075 27.42030 26.26553
#
# Velocity S-wave (km/s) = 3.37531 3.52712 3.45205
# Velocity P-wave (km/s) = 5.08648 5.57663 5.33719
#
# Compressibility (1/GPa) = 0.04247330
#
# Stress axis : x y z
#
# Youngs Moduli (GPa) = 100.50769 45.18220 47.56009
#
# Poissons Ratio (x) = 0.21194 0.15756
# Poissons Ratio (y) = 0.47145 -0.12775
# Poissons Ratio (z) = 0.33296 -0.12136
#
# Static dielectric constant tensor:
#      x y z
#    x 1.908450 0.000000 0.000000 
#    y 0.000000 1.834100 0.000000 
#    z 0.000000 0.000000 1.882460 
# 
# From -- ./inp_files/10698.got.cif
#   From: 2010.05.17/outbox.cif.g08.bks.cpg/sg43_6_cif.got.tgz:10698.got - 2010.06.03 19:21:55.
