data_PCOD9371760
_publ_section_title
;
Structure prediction by ZEFSAII (Michael W. Deem and Ramdas Pophale) SiO2 
 PCOD9371760
Probable space group: F D D 2
;
_chemical_formula_sum "Si O2"
_cell_formula_units_Z 64
_cell_length_a 26.991462
_cell_length_b 16.813625
_cell_length_c 4.935593
_cell_angle_alpha 90.000000
_cell_angle_beta 90.000000
_cell_angle_gamma 90.000000
_cell_volume 2239.892138
_symmetry_space_group_name_H-M "F D D 2"
_symmetry_group_IT_number 43
_symmetry_cell_setting 'orthorhombic'
loop_
_space_group_symop_operation_xyz
x,y,z
-x,-y,z
1/4-x,1/4+y,1/4+z
1/4+x,1/4-y,1/4+z
x,1/2+y,1/2+z
-x,1/2-y,1/2+z
1/4-x,3/4+y,3/4+z
1/4+x,3/4-y,3/4+z
1/2+x,y,1/2+z
1/2-x,-y,1/2+z
3/4-x,1/4+y,3/4+z
3/4+x,1/4-y,3/4+z
1/2+x,1/2+y,z
1/2-x,1/2-y,z
3/4-x,3/4+y,1/4+z
3/4+x,3/4-y,1/4+z
loop_
_atom_site_type_symbol
_atom_site_label
_atom_site_fract_x
_atom_site_fract_y
_atom_site_fract_z
Si Si1 0.309731 0.555795 0.197580
Si Si2 0.287100 0.896579 0.415189
Si Si3 0.586018 0.462977 0.070706
Si Si4 0.374626 0.442084 0.548320
O O1 0.266766 0.612931 0.289309
O O2 0.363216 0.596057 0.110936
O O3 0.331151 0.503151 0.439836
O O4 0.289779 0.490215 0.994510
O O5 0.295459 0.843192 0.682328
O O6 0.332233 0.883402 0.211440
O O7 0.583411 0.519502 0.327161
O O8 0.601102 0.523927 0.829567
#
# Coordination Sequence:
#
# PCOD9371760 Si02
#       4
#    16  16  16  16
#     4  10  24  45  75 109 139 210 266 316 409 484
#     4  12  24  47  82 105 156 214 271 336 400 505
#     4  10  22  46  73 111 152 202 258 333 409 469
#     4  10  24  46  69 114 156 195 265 335 404 476
#
# _framework density 28.572806
#
# number of rings (size 3 to 8) (size 9 to 14) (size 15 to 20)
#    1.500    0.000    2.500    1.500    3.500    0.000 
#    0.000    3.750    5.500    0.000    0.000    0.000 
#    0.000    0.000    0.000    0.000    0.000    0.000 
#
# Total GULP energy -89102.254064 kJ/mol
# GULP energy per Si atom -5568.890879 kJ/mol
# Density = 2.850777 g / cm^3
# Si number density = 28.572806 Si / 1000 Ang^3
#
#
#
# Elastic Constant Matrix: (Units=GPa)
#
#
# Indices 1 2 3 4 5 6 
#
# 1 144.5264 71.9663 70.3686 0.0001 -0.0004 -0.0002
# 2 71.9663 171.9941 46.9639 0.0019 0.0004 0.0003
# 3 70.3686 46.9639 134.0667 0.0048 -0.0005 -0.0001
# 4 0.0001 0.0019 0.0048 25.5818 0.0003 0.0004
# 5 -0.0004 0.0004 -0.0005 0.0003 56.7815 0.0005
# 6 -0.0002 0.0003 -0.0001 0.0004 0.0005 48.8781
#
#
#
# Elastic Compliance Matrix: (Units=1/GPa)
#
#
# Indices 1 2 3 4 5 6 
#
# 1 0.010730 -0.003264 -0.004488 0.000001 0.000000 0.000000
# 2 -0.003264 0.007422 -0.000887 0.000000 0.000000 0.000000
# 3 -0.004488 -0.000887 0.010125 -0.000002 0.000000 0.000000
# 4 0.000001 0.000000 -0.000002 0.039090 0.000000 0.000000
# 5 0.000000 0.000000 0.000000 0.000000 0.017611 0.000000
# 6 0.000000 0.000000 0.000000 0.000000 0.000000 0.020459
#
#
# Mechanical properties :
#
#
# Convention : Reuss Voigt Hill
#
# Bulk Modulus (GPa) = 90.91802 92.13163 91.52483
# Shear Modulus (GPa) = 39.56236 43.66752 41.61494
#
# Velocity S-wave (km/s) = 3.72508 3.91358 3.82049
# Velocity P-wave (km/s) = 7.09862 7.26195 7.18075
#
# Compressibility (1/GPa) = 0.01099892
#
# Stress axis : x y z
#
# Youngs Moduli (GPa) = 93.19799 134.73417 98.76064
#
# Poissons Ratio (x) = 0.43977 0.44328
# Poissons Ratio (y) = 0.30420 0.08758
# Poissons Ratio (z) = 0.41832 0.11947
#
# Static dielectric constant tensor:
#      x y z
#    x 2.271000 0.000000 0.000000 
#    y 0.000000 2.432970 0.000000 
#    z 0.000000 0.000000 2.334560 
# 
# From -- ./inp_files/857.got.cif
#   From: 2010.05.17/outbox.cif.g08.bks.cpg/sg43_1_cif.got.tgz:857.got - 2010.06.03 19:21:55.
