data_PCOD9371306
_publ_section_title
;
Structure prediction by ZEFSAII (Michael W. Deem and Ramdas Pophale) SiO2 
 PCOD9371306
Probable space group: F D D 2
;
_chemical_formula_sum "Si O2"
_cell_formula_units_Z 88
_cell_length_a 13.606333
_cell_length_b 20.920648
_cell_length_c 13.717289
_cell_angle_alpha 90.000000
_cell_angle_beta 90.000000
_cell_angle_gamma 90.000000
_cell_volume 3904.671626
_symmetry_space_group_name_H-M "F D D 2"
_symmetry_group_IT_number 43
_symmetry_cell_setting 'orthorhombic'
loop_
_space_group_symop_operation_xyz
x,y,z
-x,-y,z
1/4-x,1/4+y,1/4+z
1/4+x,1/4-y,1/4+z
x,1/2+y,1/2+z
-x,1/2-y,1/2+z
1/4-x,3/4+y,3/4+z
1/4+x,3/4-y,3/4+z
1/2+x,y,1/2+z
1/2-x,-y,1/2+z
3/4-x,1/4+y,3/4+z
3/4+x,1/4-y,3/4+z
1/2+x,1/2+y,z
1/2-x,1/2-y,z
3/4-x,3/4+y,1/4+z
3/4+x,3/4-y,1/4+z
loop_
_atom_site_type_symbol
_atom_site_label
_atom_site_fract_x
_atom_site_fract_y
_atom_site_fract_z
Si Si1 0.000000 0.500000 0.812361
Si Si2 0.756799 0.650754 0.940286
Si Si3 0.592132 0.293057 0.916046
Si Si4 0.810461 0.827671 0.730760
Si Si5 0.174770 0.913334 0.808414
Si Si6 0.754762 0.993074 0.975707
O O1 0.095146 0.505079 0.744838
O O2 0.005510 0.437219 0.880649
O O3 0.749700 0.672013 0.829490
O O4 0.868434 0.639693 0.974336
O O5 0.713713 0.578117 0.941694
O O6 0.680352 0.684929 0.012289
O O7 0.659530 0.344538 0.859284
O O8 0.548173 0.247363 0.832915
O O9 0.503964 0.330677 0.970985
O O10 0.888524 0.768874 0.734976
O O11 0.212000 0.957895 0.895418
#
# Coordination Sequence:
#
# PCOD9371306 Si02
#       6
#     8  16  16  16  16  16
#     4  12  26  44  58  98 142 166 218 272 340 406
#     4   9  19  42  66  93 127 167 223 267 326 400
#     4  11  24  40  67  98 129 174 225 267 334 406
#     4  10  21  44  63  91 135 167 211 279 323 402
#     4  11  20  43  67  95 128 174 219 283 325 396
#     4   9  21  41  66  89 131 168 219 271 329 385
#
# _framework density 22.537106000000001
#
# number of rings (size 3 to 8) (size 9 to 14) (size 15 to 20)
#    1.091    0.727    3.636    0.000    2.545    1.455 
#    6.545    0.000    0.000    0.000    0.000    0.000 
#    0.000    0.000    0.000    0.000    0.000    0.000 
#
# Total GULP energy -122720.148730 kJ/mol
# GULP energy per Si atom -5578.188579 kJ/mol
# Density = 2.248581 g / cm^3
# Si number density = 22.537106 Si / 1000 Ang^3
#
#
#
# Elastic Constant Matrix: (Units=GPa)
#
#
# Indices 1 2 3 4 5 6 
#
# 1 54.8066 1.1873 27.1939 0.0000 0.0000 0.0000
# 2 1.1873 17.2569 1.3820 0.0000 0.0000 0.0000
# 3 27.1939 1.3820 128.9090 0.0000 0.0000 0.0000
# 4 0.0000 0.0000 0.0000 22.7323 0.0000 0.0000
# 5 0.0000 0.0000 0.0000 0.0000 29.3806 0.0000
# 6 0.0000 0.0000 0.0000 0.0000 0.0000 29.8933
#
#
#
# Elastic Compliance Matrix: (Units=1/GPa)
#
#
# Indices 1 2 3 4 5 6 
#
# 1 0.020398 -0.001060 -0.004292 0.000000 0.000000 0.000000
# 2 -0.001060 0.058053 -0.000399 0.000000 0.000000 0.000000
# 3 -0.004292 -0.000399 0.008667 0.000000 0.000000 0.000000
# 4 0.000000 0.000000 0.000000 0.043990 0.000000 0.000000
# 5 0.000000 0.000000 0.000000 0.000000 0.034036 0.000000
# 6 0.000000 0.000000 0.000000 0.000000 0.000000 0.033452
#
#
# Mechanical properties :
#
#
# Convention : Reuss Voigt Hill
#
# Bulk Modulus (GPa) = 13.22445 28.94432 21.08439
# Shear Modulus (GPa) = 21.24916 27.81519 24.53218
#
# Velocity S-wave (km/s) = 3.07392 3.51692 3.30286
# Velocity P-wave (km/s) = 4.29875 5.41872 4.89090
#
# Compressibility (1/GPa) = 0.07561751
#
# Stress axis : x y z
#
# Youngs Moduli (GPa) = 49.02343 17.22573 115.37954
#
# Poissons Ratio (x) = 0.01826 0.49518
# Poissons Ratio (y) = 0.05195 0.04601
# Poissons Ratio (z) = 0.21040 0.00687
#
# Static dielectric constant tensor:
#      x y z
#    x 1.879490 0.000000 0.000000 
#    y 0.000000 1.873030 0.000000 
#    z 0.000000 0.000000 1.825180 
# 
# From -- ./inp_files/6208.got.cif
#   From: 2010.05.17/outbox.cif.g08.bks.cpg/sg43_4_cif.got.tgz:6208.got - 2010.06.03 19:21:55.
