data_PCOD9371168
_publ_section_title
;
Structure prediction by ZEFSAII (Michael W. Deem and Ramdas Pophale) SiO2 
 PCOD9371168
Probable space group: F D D 2
;
_chemical_formula_sum "Si O2"
_cell_formula_units_Z 104
_cell_length_a 10.001685
_cell_length_b 29.002914
_cell_length_c 17.347406
_cell_angle_alpha 90.000000
_cell_angle_beta 90.000000
_cell_angle_gamma 90.000000
_cell_volume 5032.101010
_symmetry_space_group_name_H-M "F D D 2"
_symmetry_group_IT_number 43
_symmetry_cell_setting 'orthorhombic'
loop_
_space_group_symop_operation_xyz
x,y,z
-x,-y,z
1/4-x,1/4+y,1/4+z
1/4+x,1/4-y,1/4+z
x,1/2+y,1/2+z
-x,1/2-y,1/2+z
1/4-x,3/4+y,3/4+z
1/4+x,3/4-y,3/4+z
1/2+x,y,1/2+z
1/2-x,-y,1/2+z
3/4-x,1/4+y,3/4+z
3/4+x,1/4-y,3/4+z
1/2+x,1/2+y,z
1/2-x,1/2-y,z
3/4-x,3/4+y,1/4+z
3/4+x,3/4-y,1/4+z
loop_
_atom_site_type_symbol
_atom_site_label
_atom_site_fract_x
_atom_site_fract_y
_atom_site_fract_z
Si Si1 0.750000 0.750000 0.221591
Si Si2 0.764846 0.150201 0.961957
Si Si3 0.734326 0.852819 0.283410
Si Si4 0.500000 0.500000 0.285668
Si Si5 0.250000 0.250000 0.973286
Si Si6 0.287533 0.484343 0.839254
Si Si7 0.524726 0.901069 0.165790
Si Si8 0.533565 0.866393 0.007533
O O1 0.752923 0.798152 0.267172
O O2 0.880913 0.743201 0.167064
O O3 0.803104 0.141609 0.872943
O O4 0.757404 0.204416 0.982837
O O5 0.617572 0.130471 0.979124
O O6 0.874399 0.126737 0.015882
O O7 0.629900 0.877755 0.224889
O O8 0.633537 0.497536 0.336923
O O9 0.376687 0.262324 0.026551
O O10 0.266599 0.203909 0.926987
O O11 0.299259 0.432807 0.803256
O O12 0.570287 0.898895 0.078218
O O13 0.384750 0.876327 0.187203
#
# Coordination Sequence:
#
# PCOD9371168 Si02
#       8
#     8  16  16   8   8  16  16  16
#     4  11  23  42  62  96 130 166 226 274 312 374
#     4  11  25  41  64  98 130 172 209 273 328 389
#     4  12  25  41  67  96 131 170 226 265 323 384
#     4  10  21  40  67  93 133 168 214 254 349 386
#     4   9  20  34  65  89 129 164 222 250 323 378
#     4   9  19  37  63  93 123 167 206 270 316 388
#     4  11  21  40  65  93 121 175 215 264 312 388
#     4  10  21  41  63  89 129 164 206 264 325 381
#
# _framework density 20.667313
#
# number of rings (size 3 to 8) (size 9 to 14) (size 15 to 20)
#    0.000    1.538    1.538    3.231    6.462    0.000 
#    0.000    4.615    0.000    0.923    0.000    0.000 
#    0.000    0.000    0.000    0.000    0.000    0.000 
#
# Total GULP energy -145041.771497 kJ/mol
# GULP energy per Si atom -5578.529673 kJ/mol
# Density = 2.062027 g / cm^3
# Si number density = 20.667313 Si / 1000 Ang^3
#
#
#
# Elastic Constant Matrix: (Units=GPa)
#
#
# Indices 1 2 3 4 5 6 
#
# 1 108.8698 0.0169 -7.2173 0.0000 0.0000 0.0000
# 2 0.0169 61.7207 8.9443 0.0000 0.0000 0.0000
# 3 -7.2173 8.9443 56.8839 0.0000 0.0000 0.0000
# 4 0.0000 0.0000 0.0000 350.9253 0.0000 0.0000
# 5 0.0000 0.0000 0.0000 0.0000 15.4870 0.0000
# 6 0.0000 0.0000 0.0000 0.0000 0.0000 21.0179
#
#
#
# Elastic Compliance Matrix: (Units=1/GPa)
#
#
# Indices 1 2 3 4 5 6 
#
# 1 0.009265 -0.000177 0.001203 0.000000 0.000000 0.000000
# 2 -0.000177 0.016583 -0.002630 0.000000 0.000000 0.000000
# 3 0.001203 -0.002630 0.018146 0.000000 0.000000 0.000000
# 4 0.000000 0.000000 0.000000 0.002850 0.000000 0.000000
# 5 0.000000 0.000000 0.000000 0.000000 0.064570 0.000000
# 6 0.000000 0.000000 0.000000 0.000000 0.000000 0.047579
#
#
# Mechanical properties :
#
#
# Convention : Reuss Voigt Hill
#
# Bulk Modulus (GPa) = 24.51757 25.66248 25.09003
# Shear Modulus (GPa) = 28.44215 92.53473 60.48844
#
# Velocity S-wave (km/s) = 3.71373 6.69856 5.41583
# Velocity P-wave (km/s) = 5.50252 8.50126 7.16063
#
# Compressibility (1/GPa) = 0.04078708
#
# Stress axis : x y z
#
# Youngs Moduli (GPa) = 107.93214 60.30203 55.10894
#
# Poissons Ratio (x) = 0.01067 -0.06632
# Poissons Ratio (y) = 0.01910 0.14493
# Poissons Ratio (z) = -0.12988 0.15859
#
# Static dielectric constant tensor:
#      x y z
#    x 1.921780 0.000000 0.000000 
#    y 0.000000 1.758700 0.000000 
#    z 0.000000 0.000000 1.736610 
# 
# From -- ./inp_files/13451.got.cif
#   From: 2010.05.17/outbox.cif.g08.bks.cpg/sg43_7_cif.got.tgz:13451.got - 2010.06.03 19:21:55.
