data_PCOD9371496
_publ_section_title
;
Structure prediction by ZEFSAII (Michael W. Deem and Ramdas Pophale) SiO2 
 PCOD9371496
Probable space group: F D D 2
;
_chemical_formula_sum "Si O2"
_cell_formula_units_Z 112
_cell_length_a 8.914895
_cell_length_b 28.916266
_cell_length_c 21.133944
_cell_angle_alpha 90.000000
_cell_angle_beta 90.000000
_cell_angle_gamma 90.000000
_cell_volume 5448.023797
_symmetry_space_group_name_H-M "F D D 2"
_symmetry_group_IT_number 43
_symmetry_cell_setting 'orthorhombic'
loop_
_space_group_symop_operation_xyz
x,y,z
-x,-y,z
1/4-x,1/4+y,1/4+z
1/4+x,1/4-y,1/4+z
x,1/2+y,1/2+z
-x,1/2-y,1/2+z
1/4-x,3/4+y,3/4+z
1/4+x,3/4-y,3/4+z
1/2+x,y,1/2+z
1/2-x,-y,1/2+z
3/4-x,1/4+y,3/4+z
3/4+x,1/4-y,3/4+z
1/2+x,1/2+y,z
1/2-x,1/2-y,z
3/4-x,3/4+y,1/4+z
3/4+x,3/4-y,1/4+z
loop_
_atom_site_type_symbol
_atom_site_label
_atom_site_fract_x
_atom_site_fract_y
_atom_site_fract_z
Si Si1 0.500000 0.500000 0.523260
Si Si2 0.784599 0.630872 0.058543
Si Si3 0.289708 0.551222 0.815407
Si Si4 0.940411 0.915851 0.613850
Si Si5 0.515512 0.197383 0.202428
Si Si6 0.193369 0.176407 0.573738
Si Si7 0.196643 0.538834 0.240618
Si Si8 0.000000 0.500000 0.413338
O O1 0.466911 0.456773 0.566147
O O2 0.646743 0.489632 0.483566
O O3 0.614138 0.647632 0.066518
O O4 0.892364 0.609185 0.113407
O O5 0.855789 0.680689 0.041827
O O6 0.792712 0.597107 0.997619
O O7 0.316921 0.516108 0.754994
O O8 0.371752 0.524022 0.871585
O O9 0.113080 0.556792 0.825460
O O10 0.829679 0.878601 0.581647
O O11 0.381917 0.689941 0.425673
O O12 0.599275 0.192089 0.135507
O O13 0.341317 0.210345 0.199576
O O14 0.114831 0.195853 0.510118
#
# Coordination Sequence:
#
# PCOD9371496 Si02
#       8
#     8  16  16  16  16  16  16   8
#     4  10  24  41  72  94 125 188 218 280 346 414
#     4  10  22  41  64  94 128 176 219 279 341 411
#     4  12  23  39  67 100 131 169 229 282 348 402
#     4  10  23  43  68  93 134 176 228 274 348 419
#     4  11  22  42  65  93 129 172 229 272 339 415
#     4  11  23  42  67  97 134 176 227 283 343 414
#     4  11  21  40  68  96 128 177 225 284 336 415
#     4  12  22  37  66  94 129 170 222 288 330 410
#
# _framework density 20.557912999999999
#
# number of rings (size 3 to 8) (size 9 to 14) (size 15 to 20)
#    0.000    1.143    4.286    2.143    2.000    1.143 
#    2.571    0.000    9.429    0.000    0.000    0.000 
#    0.000    0.000    0.000    0.000    0.000    0.000 
#
# Total GULP energy -155998.174489 kJ/mol
# GULP energy per Si atom -5571.363375 kJ/mol
# Density = 2.051112 g / cm^3
# Si number density = 20.557913 Si / 1000 Ang^3
#
#
#
# Elastic Constant Matrix: (Units=GPa)
#
#
# Indices 1 2 3 4 5 6 
#
# 1 154.8092 50.4590 51.6127 0.0000 0.0000 0.0000
# 2 50.4590 113.5566 35.9542 0.0000 0.0000 0.0000
# 3 51.6127 35.9542 85.8241 0.0000 0.0000 0.0000
# 4 0.0000 0.0000 0.0000 20.5296 0.0000 0.0000
# 5 0.0000 0.0000 0.0000 0.0000 38.0277 0.0000
# 6 0.0000 0.0000 0.0000 0.0000 0.0000 36.8114
#
#
#
# Elastic Compliance Matrix: (Units=1/GPa)
#
#
# Indices 1 2 3 4 5 6 
#
# 1 0.008671 -0.002539 -0.004151 0.000000 0.000000 0.000000
# 2 -0.002539 0.010896 -0.003038 0.000000 0.000000 0.000000
# 3 -0.004151 -0.003038 0.015421 0.000000 0.000000 0.000000
# 4 0.000000 0.000000 0.000000 0.048710 0.000000 0.000000
# 5 0.000000 0.000000 0.000000 0.000000 0.026297 0.000000
# 6 0.000000 0.000000 0.000000 0.000000 0.000000 0.027165
#
#
# Mechanical properties :
#
#
# Convention : Reuss Voigt Hill
#
# Bulk Modulus (GPa) = 64.38109 70.02685 67.20397
# Shear Modulus (GPa) = 30.90370 33.48468 32.19419
#
# Velocity S-wave (km/s) = 3.88138 4.04021 3.96160
# Velocity P-wave (km/s) = 7.17438 7.47674 7.32712
#
# Compressibility (1/GPa) = 0.01553251
#
# Stress axis : x y z
#
# Youngs Moduli (GPa) = 115.32766 91.77566 64.84767
#
# Poissons Ratio (x) = 0.23299 0.26918
# Poissons Ratio (y) = 0.29278 0.19701
# Poissons Ratio (z) = 0.47872 0.27882
#
# Static dielectric constant tensor:
#      x y z
#    x 1.808240 0.000000 0.000000 
#    y 0.000000 1.908890 0.000000 
#    z 0.000000 0.000000 1.764050 
# 
# From -- ./inp_files/28185.got.cif
#   From: 2010.05.17/outbox.cif.g08.bks.cpg/sg43_15_cif.got.tgz:28185.got - 2010.06.03 19:21:55.
