data_PCOD9371786
_publ_section_title
;
Structure prediction by ZEFSAII (Michael W. Deem and Ramdas Pophale) SiO2 
 PCOD9371786
Probable space group: F D D 2
;
_chemical_formula_sum "Si O2"
_cell_formula_units_Z 40
_cell_length_a 8.002094
_cell_length_b 7.739966
_cell_length_c 27.089384
_cell_angle_alpha 90.000000
_cell_angle_beta 90.000000
_cell_angle_gamma 90.000000
_cell_volume 1677.806340
_symmetry_space_group_name_H-M "F D D 2"
_symmetry_group_IT_number 43
_symmetry_cell_setting 'orthorhombic'
loop_
_space_group_symop_operation_xyz
x,y,z
-x,-y,z
1/4-x,1/4+y,1/4+z
1/4+x,1/4-y,1/4+z
x,1/2+y,1/2+z
-x,1/2-y,1/2+z
1/4-x,3/4+y,3/4+z
1/4+x,3/4-y,3/4+z
1/2+x,y,1/2+z
1/2-x,-y,1/2+z
3/4-x,1/4+y,3/4+z
3/4+x,1/4-y,3/4+z
1/2+x,1/2+y,z
1/2-x,1/2-y,z
3/4-x,3/4+y,1/4+z
3/4+x,3/4-y,1/4+z
loop_
_atom_site_type_symbol
_atom_site_label
_atom_site_fract_x
_atom_site_fract_y
_atom_site_fract_z
Si Si1 0.934810 0.814979 0.527510
Si Si2 0.565790 0.195063 0.621004
Si Si3 0.000000 0.500000 0.467223
O O1 0.750000 0.750000 0.514973
O O2 0.946157 0.808464 0.587072
O O3 0.038976 0.662389 0.501710
O O4 0.000000 0.000000 0.510621
O O5 0.750000 0.250000 0.600879
O O6 0.595430 0.225566 0.678970
O O7 0.500000 0.000000 0.614380
#
# Coordination Sequence:
#
# PCOD9371786 Si02
#       3
#    16  16   8
#     4  12  26  49  79 112 158 212 265 330 401 474
#     4  10  22  48  74 108 155 206 259 329 388 474
#     4  10  26  48  76 110 168 198 278 316 410 468
#
# _framework density 23.840655000000002
#
# number of rings (size 3 to 8) (size 9 to 14) (size 15 to 20)
#    1.200    0.000    2.000    3.600    0.000    0.000 
#   14.400    0.000    0.000    0.000    0.000    0.000 
#    0.000    0.000    0.000    0.000    0.000    0.000 
#
# Total GULP energy -55725.685916 kJ/mol
# GULP energy per Si atom -5572.568592 kJ/mol
# Density = 2.378639 g / cm^3
# Si number density = 23.840655 Si / 1000 Ang^3
#
#
#
# Elastic Constant Matrix: (Units=GPa)
#
#
# Indices 1 2 3 4 5 6 
#
# 1 96.1566 46.2247 20.3688 0.0000 0.0000 0.0000
# 2 46.2247 231.7697 57.3824 0.0000 0.0000 0.0000
# 3 20.3688 57.3824 124.7762 0.0000 0.0000 0.0000
# 4 0.0000 0.0000 0.0000 12.6158 0.0000 0.0000
# 5 0.0000 0.0000 0.0000 0.0000 34.7728 0.0000
# 6 0.0000 0.0000 0.0000 0.0000 0.0000 42.2055
#
#
#
# Elastic Compliance Matrix: (Units=1/GPa)
#
#
# Indices 1 2 3 4 5 6 
#
# 1 0.011599 -0.002081 -0.000936 0.000000 0.000000 0.000000
# 2 -0.002081 0.005243 -0.002071 0.000000 0.000000 0.000000
# 3 -0.000936 -0.002071 0.009120 0.000000 0.000000 0.000000
# 4 0.000000 0.000000 0.000000 0.079266 0.000000 0.000000
# 5 0.000000 0.000000 0.000000 0.000000 0.028758 0.000000
# 6 0.000000 0.000000 0.000000 0.000000 0.000000 0.023694
#
#
# Mechanical properties :
#
#
# Convention : Reuss Voigt Hill
#
# Bulk Modulus (GPa) = 63.35842 77.85048 70.60445
# Shear Modulus (GPa) = 28.88219 39.83393 34.35806
#
# Velocity S-wave (km/s) = 3.48439 4.09203 3.80037
# Velocity P-wave (km/s) = 6.54381 7.41968 6.99547
#
# Compressibility (1/GPa) = 0.01578322
#
# Stress axis : x y z
#
# Youngs Moduli (GPa) = 86.21716 190.74687 109.65320
#
# Poissons Ratio (x) = 0.39704 0.10265
# Poissons Ratio (y) = 0.17946 0.22711
# Poissons Ratio (z) = 0.08071 0.39507
#
# Static dielectric constant tensor:
#      x y z
#    x 2.154160 0.000000 0.000000 
#    y 0.000000 1.924830 0.000000 
#    z 0.000000 0.000000 1.849750 
# 
# From -- ./inp_files/19674.got.cif
#   From: 2010.05.17/outbox.cif.g08.bks.cpg/sg43_10_cif.got.tgz:19674.got - 2010.06.03 19:21:55.
