data_PCOD9371255
_publ_section_title
;
Structure prediction by ZEFSAII (Michael W. Deem and Ramdas Pophale) SiO2 
 PCOD9371255
Probable space group: F D D 2
;
_chemical_formula_sum "Si O2"
_cell_formula_units_Z 120
_cell_length_a 24.103908
_cell_length_b 24.630752
_cell_length_c 8.896863
_cell_angle_alpha 90.000000
_cell_angle_beta 90.000000
_cell_angle_gamma 90.000000
_cell_volume 5282.044255
_symmetry_space_group_name_H-M "F D D 2"
_symmetry_group_IT_number 43
_symmetry_cell_setting 'orthorhombic'
loop_
_space_group_symop_operation_xyz
x,y,z
-x,-y,z
1/4-x,1/4+y,1/4+z
1/4+x,1/4-y,1/4+z
x,1/2+y,1/2+z
-x,1/2-y,1/2+z
1/4-x,3/4+y,3/4+z
1/4+x,3/4-y,3/4+z
1/2+x,y,1/2+z
1/2-x,-y,1/2+z
3/4-x,1/4+y,3/4+z
3/4+x,1/4-y,3/4+z
1/2+x,1/2+y,z
1/2-x,1/2-y,z
3/4-x,3/4+y,1/4+z
3/4+x,3/4-y,1/4+z
loop_
_atom_site_type_symbol
_atom_site_label
_atom_site_fract_x
_atom_site_fract_y
_atom_site_fract_z
Si Si1 0.500000 0.000000 0.882601
Si Si2 0.469933 0.602137 0.928589
Si Si3 0.965149 0.899430 0.199001
Si Si4 0.381684 0.817176 0.846352
Si Si5 0.679321 0.174993 0.355811
Si Si6 0.574138 0.243488 0.304619
Si Si7 0.208788 0.519489 0.717350
Si Si8 0.581667 0.360822 0.338121
O O1 0.465764 0.958042 0.778697
O O2 0.538595 0.964449 0.990472
O O3 0.427616 0.563287 0.018435
O O4 0.463258 0.584830 0.757151
O O5 0.452267 0.665396 0.952160
O O6 0.527190 0.596524 0.019864
O O7 0.021138 0.869444 0.262249
O O8 0.915804 0.861159 0.250390
O O9 0.415186 0.762212 0.863236
O O10 0.370114 0.844440 0.008874
O O11 0.617469 0.199204 0.363555
O O12 0.674644 0.119455 0.263996
O O13 0.520584 0.243245 0.411043
O O14 0.604416 0.301545 0.309889
O O15 0.551544 0.244542 0.133235
#
# Coordination Sequence:
#
# PCOD9371255 Si02
#       8
#     8  16  16  16  16  16  16  16
#     4  10  24  44  72  92 138 196 232 280 372 426
#     4  11  27  42  66 106 145 173 248 291 361 417
#     4  10  21  42  67  96 130 185 232 288 349 433
#     4  11  21  42  72  96 136 188 233 294 349 426
#     4  11  26  45  66 106 142 182 230 302 355 425
#     4  12  25  44  72 102 136 186 236 286 355 422
#     4  12  25  44  71 102 139 184 237 292 352 425
#     4  10  21  42  66  98 131 175 234 283 348 428
#
# _framework density 22.718477
#
# number of rings (size 3 to 8) (size 9 to 14) (size 15 to 20)
#    0.000    1.067    5.333    0.800    5.600    0.533 
#    2.400    0.000    0.000    0.000    0.000    0.000 
#    0.000    0.000    0.000    0.000    0.000    0.000 
#
# Total GULP energy -167683.043287 kJ/mol
# GULP energy per Si atom -5589.434776 kJ/mol
# Density = 2.266677 g / cm^3
# Si number density = 22.718477 Si / 1000 Ang^3
#
#
#
# Elastic Constant Matrix: (Units=GPa)
#
#
# Indices 1 2 3 4 5 6 
#
# 1 45.3268 1.9806 12.4270 0.0000 0.0000 0.0000
# 2 1.9806 51.2618 22.4001 0.0008 -0.0004 -0.0003
# 3 12.4270 22.4001 143.7184 -0.0003 -0.0007 -0.0007
# 4 0.0000 0.0008 -0.0003 25.7715 -0.0002 -0.0005
# 5 0.0000 -0.0004 -0.0007 -0.0002 33.4110 0.0003
# 6 0.0000 -0.0003 -0.0007 -0.0005 0.0003 24.0484
#
#
#
# Elastic Compliance Matrix: (Units=1/GPa)
#
#
# Indices 1 2 3 4 5 6 
#
# 1 0.022598 -0.000021 -0.001951 0.000000 0.000000 0.000000
# 2 -0.000021 0.020933 -0.003261 -0.000001 0.000000 0.000000
# 3 -0.001951 -0.003261 0.007635 0.000000 0.000000 0.000000
# 4 0.000000 -0.000001 0.000000 0.038803 0.000000 0.000001
# 5 0.000000 0.000000 0.000000 0.000000 0.029930 0.000000
# 6 0.000000 0.000000 0.000000 0.000001 0.000000 0.041583
#
#
# Mechanical properties :
#
#
# Convention : Reuss Voigt Hill
#
# Bulk Modulus (GPa) = 24.56913 34.88025 29.72469
# Shear Modulus (GPa) = 26.95218 30.21279 28.58249
#
# Velocity S-wave (km/s) = 3.44809 3.65070 3.55084
# Velocity P-wave (km/s) = 5.16628 5.75819 5.47025
#
# Compressibility (1/GPa) = 0.04070149
#
# Stress axis : x y z
#
# Youngs Moduli (GPa) = 44.25222 47.77041 130.97608
#
# Poissons Ratio (x) = 0.00099 0.25550
# Poissons Ratio (y) = 0.00091 0.42710
# Poissons Ratio (z) = 0.08633 0.15578
#
# Static dielectric constant tensor:
#      x y z
#    x 1.840040 0.000000 0.000000 
#    y 0.000000 1.857950 0.000000 
#    z 0.000000 0.000000 1.880930 
# 
# From -- ./inp_files/3998.got.cif
#   From: 2010.05.17/outbox.cif.g08.bks.cpg/sg43_2_cif.got.tgz:3998.got - 2010.06.03 19:21:55.
