data_PCOD9371456
_publ_section_title
;
Structure prediction by ZEFSAII (Michael W. Deem and Ramdas Pophale) SiO2 
 PCOD9371456
Probable space group: F D D 2
;
_chemical_formula_sum "Si O2"
_cell_formula_units_Z 120
_cell_length_a 9.085716
_cell_length_b 28.572848
_cell_length_c 23.245989
_cell_angle_alpha 90.000000
_cell_angle_beta 90.000000
_cell_angle_gamma 90.000000
_cell_volume 6034.769912
_symmetry_space_group_name_H-M "F D D 2"
_symmetry_group_IT_number 43
_symmetry_cell_setting 'orthorhombic'
loop_
_space_group_symop_operation_xyz
x,y,z
-x,-y,z
1/4-x,1/4+y,1/4+z
1/4+x,1/4-y,1/4+z
x,1/2+y,1/2+z
-x,1/2-y,1/2+z
1/4-x,3/4+y,3/4+z
1/4+x,3/4-y,3/4+z
1/2+x,y,1/2+z
1/2-x,-y,1/2+z
3/4-x,1/4+y,3/4+z
3/4+x,1/4-y,3/4+z
1/2+x,1/2+y,z
1/2-x,1/2-y,z
3/4-x,3/4+y,1/4+z
3/4+x,3/4-y,1/4+z
loop_
_atom_site_type_symbol
_atom_site_label
_atom_site_fract_x
_atom_site_fract_y
_atom_site_fract_z
Si Si1 0.657179 0.027976 0.660010
Si Si2 0.627147 0.929323 0.247676
Si Si3 0.250000 0.250000 0.215157
Si Si4 0.070345 0.080514 0.048796
Si Si5 0.624399 0.960950 0.801792
Si Si6 0.209905 0.465889 0.368824
Si Si7 0.928789 0.692607 0.939249
Si Si8 0.562565 0.617628 0.356635
O O1 0.721232 0.056246 0.715255
O O2 0.645327 0.064773 0.608291
O O3 0.500000 0.000000 0.663840
O O4 0.775877 0.986905 0.650308
O O5 0.618186 0.875359 0.265692
O O6 0.624903 0.955628 0.308958
O O7 0.490598 0.941159 0.207093
O O8 0.173263 0.286832 0.256788
O O9 0.142016 0.221981 0.173231
O O10 0.905913 0.096286 0.067785
O O11 0.729210 0.951974 0.747751
O O12 0.552813 0.912295 0.820103
O O13 0.500000 0.000000 0.787873
O O14 0.707592 0.985498 0.855021
O O15 0.320897 0.422280 0.376579
O O16 0.985869 0.646263 0.907513
#
# Coordination Sequence:
#
# PCOD9371456 Si02
#       8
#    16  16   8  16  16  16  16  16
#     4  12  24  46  72  96 136 184 235 278 342 424
#     4  11  27  42  70 105 132 175 235 292 338 404
#     4  12  24  40  68  92 144 172 220 286 344 414
#     4  11  26  43  65 100 134 182 226 279 348 409
#     4  10  22  40  66  93 129 174 219 272 331 413
#     4  10  23  41  66  95 133 178 224 274 346 411
#     4  12  23  41  71  97 131 171 226 283 343 396
#     4  10  24  39  65  99 129 171 229 268 341 410
#
# _framework density 19.884768999999999
#
# number of rings (size 3 to 8) (size 9 to 14) (size 15 to 20)
#    0.000    1.067    3.333    1.600   11.200    1.067 
#    0.000    0.000    0.000    0.000    0.000    0.000 
#    0.000    0.000    0.000    0.000    0.000    0.000 
#
# Total GULP energy -167530.476038 kJ/mol
# GULP energy per Si atom -5584.349201 kJ/mol
# Density = 1.983951 g / cm^3
# Si number density = 19.884769 Si / 1000 Ang^3
#
#
#
# Elastic Constant Matrix: (Units=GPa)
#
#
# Indices 1 2 3 4 5 6 
#
# 1 68.2518 22.1405 19.6657 0.0000 0.0000 0.0000
# 2 22.1405 107.6736 37.0157 0.0000 0.0000 0.0000
# 3 19.6657 37.0157 74.9585 0.0000 0.0000 0.0000
# 4 0.0000 0.0000 0.0000 38.2824 0.0000 0.0000
# 5 0.0000 0.0000 0.0000 0.0000 16.3535 0.0000
# 6 0.0000 0.0000 0.0000 0.0000 0.0000 32.0724
#
#
#
# Elastic Compliance Matrix: (Units=1/GPa)
#
#
# Indices 1 2 3 4 5 6 
#
# 1 0.016296 -0.002266 -0.003156 0.000000 0.000000 0.000000
# 2 -0.002266 0.011501 -0.005085 0.000000 0.000000 0.000000
# 3 -0.003156 -0.005085 0.016680 0.000000 0.000000 0.000000
# 4 0.000000 0.000000 0.000000 0.026122 0.000000 0.000000
# 5 0.000000 0.000000 0.000000 0.000000 0.061149 0.000000
# 6 0.000000 0.000000 0.000000 0.000000 0.000000 0.031179
#
#
# Mechanical properties :
#
#
# Convention : Reuss Voigt Hill
#
# Bulk Modulus (GPa) = 42.62089 45.39197 44.00643
# Shear Modulus (GPa) = 26.07385 28.81248 27.44316
#
# Velocity S-wave (km/s) = 3.62504 3.81067 3.71901
# Velocity P-wave (km/s) = 6.24514 6.49913 6.37340
#
# Compressibility (1/GPa) = 0.02346267
#
# Stress axis : x y z
#
# Youngs Moduli (GPa) = 61.36426 86.94606 59.95225
#
# Poissons Ratio (x) = 0.19700 0.18924
# Poissons Ratio (y) = 0.13904 0.30486
# Poissons Ratio (z) = 0.19370 0.44213
#
# Static dielectric constant tensor:
#      x y z
#    x 1.732200 0.000000 0.000000 
#    y 0.000000 1.726150 0.000000 
#    z 0.000000 0.000000 1.688720 
# 
# From -- ./inp_files/20525.got.cif
#   From: 2010.05.17/outbox.cif.g08.bks.cpg/sg43_11_cif.got.tgz:20525.got - 2010.06.03 19:21:55.
