data_PCOD9371705
_publ_section_title
;
Structure prediction by ZEFSAII (Michael W. Deem and Ramdas Pophale) SiO2 
 PCOD9371705
Probable space group: F D D 2
;
_chemical_formula_sum "Si O2"
_cell_formula_units_Z 56
_cell_length_a 27.284492
_cell_length_b 12.735315
_cell_length_c 7.334147
_cell_angle_alpha 90.000000
_cell_angle_beta 90.000000
_cell_angle_gamma 90.000000
_cell_volume 2548.444465
_symmetry_space_group_name_H-M "F D D 2"
_symmetry_group_IT_number 43
_symmetry_cell_setting 'orthorhombic'
loop_
_space_group_symop_operation_xyz
x,y,z
-x,-y,z
1/4-x,1/4+y,1/4+z
1/4+x,1/4-y,1/4+z
x,1/2+y,1/2+z
-x,1/2-y,1/2+z
1/4-x,3/4+y,3/4+z
1/4+x,3/4-y,3/4+z
1/2+x,y,1/2+z
1/2-x,-y,1/2+z
3/4-x,1/4+y,3/4+z
3/4+x,1/4-y,3/4+z
1/2+x,1/2+y,z
1/2-x,1/2-y,z
3/4-x,3/4+y,1/4+z
3/4+x,3/4-y,1/4+z
loop_
_atom_site_type_symbol
_atom_site_label
_atom_site_fract_x
_atom_site_fract_y
_atom_site_fract_z
Si Si1 0.587452 0.366893 0.847040
Si Si2 0.960108 0.281159 0.130925
Si Si3 0.316228 0.021732 0.296443
Si Si4 0.250000 0.250000 0.988684
O O1 0.583599 0.337265 0.633872
O O2 0.642962 0.400388 0.873041
O O3 0.544751 0.454612 0.861882
O O4 0.572925 0.268989 0.973873
O O5 0.936578 0.269255 0.329651
O O6 0.011100 0.215954 0.119701
O O7 0.977051 0.403170 0.123853
#
# Coordination Sequence:
#
# PCOD9371705 Si02
#       4
#    16  16  16   8
#     4  11  25  44  73 104 147 192 244 309 367 439
#     4  11  23  47  72 108 146 191 246 305 372 437
#     4  11  23  44  72 104 145 188 244 301 365 437
#     4  10  22  44  74 102 148 182 248 310 354 450
#
# _framework density 21.974188999999999
#
# number of rings (size 3 to 8) (size 9 to 14) (size 15 to 20)
#    0.000    1.143    5.714    1.714    0.000    4.571 
#    0.000   15.714    0.000    0.000    0.000    0.000 
#    0.000    0.000    0.000    0.000    0.000    0.000 
#
# Total GULP energy -78041.421753 kJ/mol
# GULP energy per Si atom -5574.387268 kJ/mol
# Density = 2.192418 g / cm^3
# Si number density = 21.974189 Si / 1000 Ang^3
#
#
#
# Elastic Constant Matrix: (Units=GPa)
#
#
# Indices 1 2 3 4 5 6 
#
# 1 127.8901 70.4033 64.1940 0.0000 0.0000 0.0000
# 2 70.4033 108.8887 65.3090 0.0000 0.0000 0.0000
# 3 64.1940 65.3090 107.7475 0.0000 0.0000 0.0000
# 4 0.0000 0.0000 0.0000 25.5631 0.0000 0.0000
# 5 0.0000 0.0000 0.0000 0.0000 24.2666 0.0000
# 6 0.0000 0.0000 0.0000 0.0000 0.0000 50.3298
#
#
#
# Elastic Compliance Matrix: (Units=1/GPa)
#
#
# Indices 1 2 3 4 5 6 
#
# 1 0.013274 -0.006032 -0.004252 0.000000 0.000000 0.000000
# 2 -0.006032 0.017171 -0.006814 0.000000 0.000000 0.000000
# 3 -0.004252 -0.006814 0.015944 0.000000 0.000000 0.000000
# 4 0.000000 0.000000 0.000000 0.039119 0.000000 0.000000
# 5 0.000000 0.000000 0.000000 0.000000 0.041209 0.000000
# 6 0.000000 0.000000 0.000000 0.000000 0.000000 0.019869
#
#
# Mechanical properties :
#
#
# Convention : Reuss Voigt Hill
#
# Bulk Modulus (GPa) = 82.01536 82.70435 82.35985
# Shear Modulus (GPa) = 27.04937 29.67323 28.36130
#
# Velocity S-wave (km/s) = 3.51231 3.67872 3.59648
# Velocity P-wave (km/s) = 7.33846 7.46744 7.40323
#
# Compressibility (1/GPa) = 0.01219284
#
# Stress axis : x y z
#
# Youngs Moduli (GPa) = 75.33282 58.23882 62.71789
#
# Poissons Ratio (x) = 0.35131 0.26670
# Poissons Ratio (y) = 0.45443 0.42734
# Poissons Ratio (z) = 0.32034 0.39682
#
# Static dielectric constant tensor:
#      x y z
#    x 1.898210 0.000000 0.000000 
#    y 0.000000 1.874390 0.000000 
#    z 0.000000 0.000000 1.800960 
# 
# From -- ./inp_files/1856.got.cif
#   From: 2010.05.17/outbox.cif.g08.bks.cpg/sg43_1_cif.got.tgz:1856.got - 2010.06.03 19:21:55.
