data_PCOD9371419
_publ_section_title
;
Structure prediction by ZEFSAII (Michael W. Deem and Ramdas Pophale) SiO2 
 PCOD9371419
Probable space group: F D D 2
;
_chemical_formula_sum "Si O2"
_cell_formula_units_Z 96
_cell_length_a 28.296215
_cell_length_b 15.991635
_cell_length_c 9.299075
_cell_angle_alpha 90.000000
_cell_angle_beta 90.000000
_cell_angle_gamma 90.000000
_cell_volume 4207.856937
_symmetry_space_group_name_H-M "F D D 2"
_symmetry_group_IT_number 43
_symmetry_cell_setting 'orthorhombic'
loop_
_space_group_symop_operation_xyz
x,y,z
-x,-y,z
1/4-x,1/4+y,1/4+z
1/4+x,1/4-y,1/4+z
x,1/2+y,1/2+z
-x,1/2-y,1/2+z
1/4-x,3/4+y,3/4+z
1/4+x,3/4-y,3/4+z
1/2+x,y,1/2+z
1/2-x,-y,1/2+z
3/4-x,1/4+y,3/4+z
3/4+x,1/4-y,3/4+z
1/2+x,1/2+y,z
1/2-x,1/2-y,z
3/4-x,3/4+y,1/4+z
3/4+x,3/4-y,1/4+z
loop_
_atom_site_type_symbol
_atom_site_label
_atom_site_fract_x
_atom_site_fract_y
_atom_site_fract_z
Si Si1 0.842526 0.087972 0.559510
Si Si2 0.901568 0.713979 0.238589
Si Si3 0.231873 0.110759 0.491858
Si Si4 0.832581 0.156351 0.970598
Si Si5 0.621842 0.849286 0.781749
Si Si6 0.493080 0.201602 0.420165
O O1 0.881182 0.151248 0.621670
O O2 0.843021 0.104375 0.389179
O O3 0.790612 0.098732 0.627711
O O4 0.859937 0.994135 0.584470
O O5 0.861039 0.712795 0.359977
O O6 0.910731 0.807107 0.179530
O O7 0.948398 0.680621 0.318958
O O8 0.276806 0.170165 0.476736
O O9 0.179550 0.143135 0.523247
O O10 0.230299 0.062201 0.337064
O O11 0.244931 0.046245 0.620557
O O12 0.855351 0.160163 0.126713
#
# Coordination Sequence:
#
# PCOD9371419 Si02
#       6
#    16  16  16  16  16  16
#     4  11  24  42  64  93 127 163 210 259 312 371
#     4  11  22  40  65  91 124 163 208 255 310 370
#     4  10  22  39  64  91 124 169 213 248 309 388
#     4  11  22  40  65  91 124 163 208 255 310 370
#     4  11  24  42  64  93 127 163 210 259 312 371
#     4  10  22  39  64  91 124 169 213 248 309 388
#
# _framework density 22.814463
#
# number of rings (size 3 to 8) (size 9 to 14) (size 15 to 20)
#    0.000    1.333    3.333    2.000   14.000    0.000 
#    0.000   10.000    0.000    0.000    0.000    0.000 
#    0.000    0.000    0.000    0.000    0.000    0.000 
#
# Total GULP energy -134261.961762 kJ/mol
# GULP energy per Si atom -5594.248407 kJ/mol
# Density = 2.276254 g / cm^3
# Si number density = 22.814463 Si / 1000 Ang^3
#
#
#
# Elastic Constant Matrix: (Units=GPa)
#
#
# Indices 1 2 3 4 5 6 
#
# 1 95.2093 27.5976 0.3165 0.0000 0.0000 0.0000
# 2 27.5976 66.8730 -5.9244 0.0000 0.0000 0.0000
# 3 0.3165 -5.9244 56.7549 0.0000 0.0000 0.0000
# 4 0.0000 0.0000 0.0000 35.0806 0.0000 0.0000
# 5 0.0000 0.0000 0.0000 0.0000 37.6981 0.0000
# 6 0.0000 0.0000 0.0000 0.0000 0.0000 37.0695
#
#
#
# Elastic Compliance Matrix: (Units=1/GPa)
#
#
# Indices 1 2 3 4 5 6 
#
# 1 0.011950 -0.004983 -0.000587 0.000000 0.000000 0.000000
# 2 -0.004983 0.017172 0.001820 0.000000 0.000000 0.000000
# 3 -0.000587 0.001820 0.017813 0.000000 0.000000 0.000000
# 4 0.000000 0.000000 0.000000 0.028506 0.000000 0.000000
# 5 0.000000 0.000000 0.000000 0.000000 0.026527 0.000000
# 6 0.000000 0.000000 0.000000 0.000000 0.000000 0.026976
#
#
# Mechanical properties :
#
#
# Convention : Reuss Voigt Hill
#
# Bulk Modulus (GPa) = 25.35878 29.20184 27.28031
# Shear Modulus (GPa) = 33.42524 35.09281 34.25903
#
# Velocity S-wave (km/s) = 3.83180 3.92622 3.87930
# Velocity P-wave (km/s) = 5.54223 5.77764 5.66116
#
# Compressibility (1/GPa) = 0.03943407
#
# Stress axis : x y z
#
# Youngs Moduli (GPa) = 83.68448 58.23578 56.13904
#
# Poissons Ratio (x) = 0.29022 0.03294
# Poissons Ratio (y) = 0.41704 -0.10219
# Poissons Ratio (z) = 0.04911 -0.10600
#
# Static dielectric constant tensor:
#      x y z
#    x 1.838180 0.000000 0.000000 
#    y 0.000000 1.876920 0.000000 
#    z 0.000000 0.000000 1.870220 
# 
# From -- ./inp_files/3310.got.cif
#   From: 2010.05.17/outbox.cif.g08.bks.cpg/sg43_2_cif.got.tgz:3310.got - 2010.06.03 19:21:55.
