data_PCOD9371550
_publ_section_title
;
Structure prediction by ZEFSAII (Michael W. Deem and Ramdas Pophale) SiO2 
 PCOD9371550
Probable space group: F D D 2
;
_chemical_formula_sum "Si O2"
_cell_formula_units_Z 112
_cell_length_a 14.815291
_cell_length_b 22.569318
_cell_length_c 14.825695
_cell_angle_alpha 90.000000
_cell_angle_beta 90.000000
_cell_angle_gamma 90.000000
_cell_volume 4957.282668
_symmetry_space_group_name_H-M "F D D 2"
_symmetry_group_IT_number 43
_symmetry_cell_setting 'orthorhombic'
loop_
_space_group_symop_operation_xyz
x,y,z
-x,-y,z
1/4-x,1/4+y,1/4+z
1/4+x,1/4-y,1/4+z
x,1/2+y,1/2+z
-x,1/2-y,1/2+z
1/4-x,3/4+y,3/4+z
1/4+x,3/4-y,3/4+z
1/2+x,y,1/2+z
1/2-x,-y,1/2+z
3/4-x,1/4+y,3/4+z
3/4+x,1/4-y,3/4+z
1/2+x,1/2+y,z
1/2-x,1/2-y,z
3/4-x,3/4+y,1/4+z
3/4+x,3/4-y,1/4+z
loop_
_atom_site_type_symbol
_atom_site_label
_atom_site_fract_x
_atom_site_fract_y
_atom_site_fract_z
Si Si1 0.882796 0.282541 0.877410
Si Si2 0.331441 0.078437 0.152162
Si Si3 0.751689 0.360582 0.305197
Si Si4 0.298076 0.392517 0.607405
Si Si5 0.271869 0.501031 0.295803
Si Si6 0.510396 0.861575 0.657678
Si Si7 0.894324 0.160649 0.805252
O O1 0.824279 0.340443 0.858475
O O2 0.859012 0.227074 0.817571
O O3 0.986661 0.299100 0.858332
O O4 0.889979 0.261005 0.981925
O O5 0.422148 0.068354 0.096126
O O6 0.298439 0.032964 0.229435
O O7 0.249252 0.090105 0.083078
O O8 0.362376 0.135132 0.210912
O O9 0.654716 0.346596 0.349085
O O10 0.764295 0.357804 0.196134
O O11 0.760165 0.432646 0.320776
O O12 0.273089 0.368480 0.509857
O O13 0.286702 0.455092 0.377945
O O14 0.407965 0.871812 0.629556
#
# Coordination Sequence:
#
# PCOD9371550 Si02
#       7
#    16  16  16  16  16  16  16
#     4  10  22  42  64  96 139 166 223 279 337 407
#     4  10  22  43  67  93 131 179 224 274 335 409
#     4  11  23  46  68  94 140 177 227 283 346 399
#     4  11  23  41  69 100 132 179 223 289 336 420
#     4   9  22  43  65  96 133 177 218 282 333 402
#     4  11  22  42  68  97 135 172 226 275 346 407
#     4  10  23  41  65  96 130 174 220 278 333 400
#
# _framework density 22.593022000000001
#
# number of rings (size 3 to 8) (size 9 to 14) (size 15 to 20)
#    0.000    1.714    2.857    1.286    8.000    0.000 
#    2.571   18.571    0.000    0.000    0.000    0.000 
#    0.000    0.000    0.000    0.000    0.000    0.000 
#
# Total GULP energy -156012.975829 kJ/mol
# GULP energy per Si atom -5571.891994 kJ/mol
# Density = 2.254160 g / cm^3
# Si number density = 22.593022 Si / 1000 Ang^3
#
#
#
# Elastic Constant Matrix: (Units=GPa)
#
#
# Indices 1 2 3 4 5 6 
#
# 1 90.4930 9.6238 8.2023 0.0000 0.0000 0.0000
# 2 9.6238 62.6745 21.3431 0.0000 0.0000 0.0000
# 3 8.2023 21.3431 55.0365 0.0000 0.0000 0.0000
# 4 0.0000 0.0000 0.0000 10.5426 0.0000 0.0000
# 5 0.0000 0.0000 0.0000 0.0000 -17.4538 0.0000
# 6 0.0000 0.0000 0.0000 0.0000 0.0000 25.1890
#
#
#
# Elastic Compliance Matrix: (Units=1/GPa)
#
#
# Indices 1 2 3 4 5 6 
#
# 1 0.011298 -0.001338 -0.001165 0.000000 0.000000 0.000000
# 2 -0.001338 0.018542 -0.006991 0.000000 0.000000 0.000000
# 3 -0.001165 -0.006991 0.021054 0.000000 0.000000 0.000000
# 4 0.000000 0.000000 0.000000 0.094853 0.000000 0.000000
# 5 0.000000 0.000000 0.000000 0.000000 -0.057294 0.000000
# 6 0.000000 0.000000 0.000000 0.000000 0.000000 0.039700
#
#
# Mechanical properties :
#
#
# Convention : Reuss Voigt Hill
#
# Bulk Modulus (GPa) = 31.34167 31.83802 31.58984
# Shear Modulus (GPa) = 31.69034 14.92456 23.30745
#
# Velocity S-wave (km/s) = 3.74927 2.57297 3.21537
# Velocity P-wave (km/s) = 5.71359 4.79056 5.27231
#
# Compressibility (1/GPa) = 0.03190641
#
# Stress axis : x y z
#
# Youngs Moduli (GPa) = 88.50745 53.93267 47.49587
#
# Poissons Ratio (x) = 0.07217 0.05533
# Poissons Ratio (y) = 0.11844 0.33204
# Poissons Ratio (z) = 0.10310 0.37704
#
# Static dielectric constant tensor:
#      x y z
#    x 1.908910 0.000000 0.000000 
#    y 0.000000 1.898100 0.000000 
#    z 0.000000 0.000000 2.074180 
# 
# From -- ./inp_files/10186.got.cif
#   From: 2010.05.17/outbox.cif.g08.bks.cpg/sg43_6_cif.got.tgz:10186.got - 2010.06.03 19:21:55.
