data_PCOD9371810
_publ_section_title
;
Structure prediction by ZEFSAII (Michael W. Deem and Ramdas Pophale) SiO2 
 PCOD9371810
Probable space group: F D D 2
;
_chemical_formula_sum "Si O2"
_cell_formula_units_Z 112
_cell_length_a 12.759117
_cell_length_b 29.546121
_cell_length_c 14.451624
_cell_angle_alpha 90.000000
_cell_angle_beta 90.000000
_cell_angle_gamma 90.000000
_cell_volume 5448.008112
_symmetry_space_group_name_H-M "F D D 2"
_symmetry_group_IT_number 43
_symmetry_cell_setting 'orthorhombic'
loop_
_space_group_symop_operation_xyz
x,y,z
-x,-y,z
1/4-x,1/4+y,1/4+z
1/4+x,1/4-y,1/4+z
x,1/2+y,1/2+z
-x,1/2-y,1/2+z
1/4-x,3/4+y,3/4+z
1/4+x,3/4-y,3/4+z
1/2+x,y,1/2+z
1/2-x,-y,1/2+z
3/4-x,1/4+y,3/4+z
3/4+x,1/4-y,3/4+z
1/2+x,1/2+y,z
1/2-x,1/2-y,z
3/4-x,3/4+y,1/4+z
3/4+x,3/4-y,1/4+z
loop_
_atom_site_type_symbol
_atom_site_label
_atom_site_fract_x
_atom_site_fract_y
_atom_site_fract_z
Si Si1 0.360665 0.913702 0.967190
Si Si2 0.250000 0.250000 0.756053
Si Si3 0.000000 0.000000 0.154224
Si Si4 0.687805 0.935290 0.950470
Si Si5 0.474667 0.267478 0.503305
Si Si6 0.010414 0.833725 0.015455
Si Si7 0.798006 0.897071 0.657652
Si Si8 0.631662 0.332980 0.828214
O O1 0.316023 0.918949 0.864970
O O2 0.450605 0.876448 0.957050
O O3 0.282990 0.897178 0.047144
O O4 0.408735 0.960705 0.000695
O O5 0.160177 0.210385 0.746145
O O6 0.104712 0.988583 0.214253
O O7 0.968620 0.955912 0.094914
O O8 0.713388 0.961440 0.855253
O O9 0.649214 0.883787 0.929472
O O10 0.786605 0.935942 0.017593
O O11 0.525862 0.217851 0.499434
O O12 0.544210 0.302048 0.444271
O O13 0.926324 0.873124 0.027077
O O14 0.086707 0.844701 0.929847
#
# Coordination Sequence:
#
# PCOD9371810 Si02
#       8
#    16   8   8  16  16  16  16  16
#     4  11  22  40  69 100 131 175 236 289 337 408
#     4  10  23  38  70  99 130 176 241 280 346 397
#     4  10  25  46  70 105 134 182 239 294 332 427
#     4  11  24  45  68 100 140 182 226 295 344 411
#     4  11  23  43  71  99 139 178 241 286 345 405
#     4  11  25  42  69  99 142 185 228 283 351 428
#     4  11  24  40  69 100 132 177 233 290 344 401
#     4  11  27  43  70 100 149 184 230 283 362 413
#
# _framework density 20.557973
#
# number of rings (size 3 to 8) (size 9 to 14) (size 15 to 20)
#    0.000    1.143    2.857    2.143   12.000    1.143 
#    0.000    0.000    0.000    0.000    0.000    0.000 
#    0.000    0.000    0.000    0.000    0.000    0.000 
#
# Total GULP energy -155880.175319 kJ/mol
# GULP energy per Si atom -5567.149119 kJ/mol
# Density = 2.051118 g / cm^3
# Si number density = 20.557973 Si / 1000 Ang^3
#
#
#
# Elastic Constant Matrix: (Units=GPa)
#
#
# Indices 1 2 3 4 5 6 
#
# 1 65.1256 46.6423 28.8452 0.0000 0.0000 0.0000
# 2 46.6423 115.7340 56.6283 0.0000 0.0000 0.0000
# 3 28.8452 56.6283 95.5814 0.0000 0.0000 0.0000
# 4 0.0000 0.0000 0.0000 25.8911 0.0000 0.0000
# 5 0.0000 0.0000 0.0000 0.0000 17.8971 0.0000
# 6 0.0000 0.0000 0.0000 0.0000 0.0000 33.9865
#
#
#
# Elastic Compliance Matrix: (Units=1/GPa)
#
#
# Indices 1 2 3 4 5 6 
#
# 1 0.021837 -0.007852 -0.001938 0.000000 0.000000 0.000000
# 2 -0.007852 0.014992 -0.006512 0.000000 0.000000 0.000000
# 3 -0.001938 -0.006512 0.014905 0.000000 0.000000 0.000000
# 4 0.000000 0.000000 0.000000 0.038623 0.000000 0.000000
# 5 0.000000 0.000000 0.000000 0.000000 0.055875 0.000000
# 6 0.000000 0.000000 0.000000 0.000000 0.000000 0.029423
#
#
# Mechanical properties :
#
#
# Convention : Reuss Voigt Hill
#
# Bulk Modulus (GPa) = 52.27662 60.07473 56.17568
# Shear Modulus (GPa) = 23.29516 25.17662 24.23589
#
# Velocity S-wave (km/s) = 3.36987 3.50332 3.43724
# Velocity P-wave (km/s) = 6.37381 6.75647 6.56793
#
# Compressibility (1/GPa) = 0.01912901
#
# Stress axis : x y z
#
# Youngs Moduli (GPa) = 45.79363 66.70443 67.09020
#
# Poissons Ratio (x) = 0.52379 0.13001
# Poissons Ratio (y) = 0.35959 0.43690
# Poissons Ratio (z) = 0.08874 0.43439
#
# Static dielectric constant tensor:
#      x y z
#    x 1.704850 0.000000 0.000000 
#    y 0.000000 1.793830 0.000000 
#    z 0.000000 0.000000 1.733590 
# 
# From -- ./inp_files/8307.got.cif
#   From: 2010.05.17/outbox.cif.g08.bks.cpg/sg43_5_cif.got.tgz:8307.got - 2010.06.03 19:21:55.
