data_PCOD9371876
_publ_section_title
;
Structure prediction by ZEFSAII (Michael W. Deem and Ramdas Pophale) SiO2 
 PCOD9371876
Probable space group: F D D 2
;
_chemical_formula_sum "Si O2"
_cell_formula_units_Z 112
_cell_length_a 14.511358
_cell_length_b 25.844285
_cell_length_c 12.047403
_cell_angle_alpha 90.000000
_cell_angle_beta 90.000000
_cell_angle_gamma 90.000000
_cell_volume 4518.205879
_symmetry_space_group_name_H-M "F D D 2"
_symmetry_group_IT_number 43
_symmetry_cell_setting 'orthorhombic'
loop_
_space_group_symop_operation_xyz
x,y,z
-x,-y,z
1/4-x,1/4+y,1/4+z
1/4+x,1/4-y,1/4+z
x,1/2+y,1/2+z
-x,1/2-y,1/2+z
1/4-x,3/4+y,3/4+z
1/4+x,3/4-y,3/4+z
1/2+x,y,1/2+z
1/2-x,-y,1/2+z
3/4-x,1/4+y,3/4+z
3/4+x,1/4-y,3/4+z
1/2+x,1/2+y,z
1/2-x,1/2-y,z
3/4-x,3/4+y,1/4+z
3/4+x,3/4-y,1/4+z
loop_
_atom_site_type_symbol
_atom_site_label
_atom_site_fract_x
_atom_site_fract_y
_atom_site_fract_z
Si Si1 0.375588 0.785548 0.167790
Si Si2 0.900932 0.217726 0.354859
Si Si3 0.026356 0.603237 0.971286
Si Si4 0.268255 0.855092 0.651064
Si Si5 0.190191 0.603554 0.418241
Si Si6 0.653601 0.442614 0.069550
Si Si7 0.200816 0.525937 0.723948
O O1 0.356984 0.765889 0.291559
O O2 0.282627 0.816747 0.138924
O O3 0.471877 0.815859 0.175594
O O4 0.398484 0.738178 0.086290
O O5 0.830302 0.172753 0.324479
O O6 0.990294 0.198909 0.284724
O O7 0.953015 0.242423 0.461283
O O8 0.944183 0.630225 0.039099
O O9 0.088879 0.645146 0.908256
O O10 0.165420 0.836221 0.678355
O O11 0.292922 0.857141 0.520756
O O12 0.338903 0.820835 0.719783
O O13 0.280530 0.914813 0.694715
O O14 0.637661 0.496863 0.131675
#
# Coordination Sequence:
#
# PCOD9371876 Si02
#       7
#    16  16  16  16  16  16  16
#     4  12  23  44  71 100 136 178 238 299 345 426
#     4  10  23  43  69 100 135 174 242 291 347 416
#     4  12  23  43  74 100 130 189 237 293 349 422
#     4  12  27  45  72 102 148 187 226 297 375 425
#     4  12  24  45  68 105 139 185 231 288 365 436
#     4  10  25  43  71 101 138 184 233 288 354 435
#     4  10  24  45  70 102 140 179 238 298 342 432
#
# _framework density 24.788601
#
# number of rings (size 3 to 8) (size 9 to 14) (size 15 to 20)
#    0.857    0.000    4.286    2.143    6.000    0.000 
#    0.000    4.286    0.000    0.000    0.000    0.000 
#    0.000    0.000    0.000    0.000    0.000    0.000 
#
# Total GULP energy -156079.334447 kJ/mol
# GULP energy per Si atom -5574.261945 kJ/mol
# Density = 2.473218 g / cm^3
# Si number density = 24.788601 Si / 1000 Ang^3
#
#
#
# Elastic Constant Matrix: (Units=GPa)
#
#
# Indices 1 2 3 4 5 6 
#
# 1 109.1471 -7.1384 11.9098 0.0000 0.0000 0.0000
# 2 -7.1384 48.9611 -13.7733 0.0000 0.0000 0.0000
# 3 11.9098 -13.7733 76.5561 0.0000 0.0000 0.0000
# 4 0.0000 0.0000 0.0000 33.1906 0.0000 0.0000
# 5 0.0000 0.0000 0.0000 0.0000 33.8814 0.0000
# 6 0.0000 0.0000 0.0000 0.0000 0.0000 35.8722
#
#
#
# Elastic Compliance Matrix: (Units=1/GPa)
#
#
# Indices 1 2 3 4 5 6 
#
# 1 0.009367 0.001007 -0.001276 0.000000 0.000000 0.000000
# 2 0.001007 0.021621 0.003733 0.000000 0.000000 0.000000
# 3 -0.001276 0.003733 0.013933 0.000000 0.000000 0.000000
# 4 0.000000 0.000000 0.000000 0.030129 0.000000 0.000000
# 5 0.000000 0.000000 0.000000 0.000000 0.029515 0.000000
# 6 0.000000 0.000000 0.000000 0.000000 0.000000 0.027877
#
#
# Mechanical properties :
#
#
# Convention : Reuss Voigt Hill
#
# Bulk Modulus (GPa) = 19.28685 24.07337 21.68011
# Shear Modulus (GPa) = 35.01487 36.83326 35.92406
#
# Velocity S-wave (km/s) = 3.76245 3.85891 3.81099
# Velocity P-wave (km/s) = 5.16451 5.43944 5.30376
#
# Compressibility (1/GPa) = 0.05184879
#
# Stress axis : x y z
#
# Youngs Moduli (GPa) = 106.75744 46.25051 71.77455
#
# Poissons Ratio (x) = -0.04656 0.09159
# Poissons Ratio (y) = -0.10747 -0.26796
# Poissons Ratio (z) = 0.13623 -0.17267
#
# Static dielectric constant tensor:
#      x y z
#    x 1.921460 0.000000 0.000000 
#    y 0.000000 2.168950 0.000000 
#    z 0.000000 0.000000 2.023480 
# 
# From -- ./inp_files/6327.got.cif
#   From: 2010.05.17/outbox.cif.g08.bks.cpg/sg43_4_cif.got.tgz:6327.got - 2010.06.03 19:21:55.
