data_PCOD9371836
_publ_section_title
;
Structure prediction by ZEFSAII (Michael W. Deem and Ramdas Pophale) SiO2 
 PCOD9371836
Probable space group: F D D 2
;
_chemical_formula_sum "Si O2"
_cell_formula_units_Z 88
_cell_length_a 12.501202
_cell_length_b 14.341379
_cell_length_c 22.513770
_cell_angle_alpha 90.000000
_cell_angle_beta 90.000000
_cell_angle_gamma 90.000000
_cell_volume 4036.369454
_symmetry_space_group_name_H-M "F D D 2"
_symmetry_group_IT_number 43
_symmetry_cell_setting 'orthorhombic'
loop_
_space_group_symop_operation_xyz
x,y,z
-x,-y,z
1/4-x,1/4+y,1/4+z
1/4+x,1/4-y,1/4+z
x,1/2+y,1/2+z
-x,1/2-y,1/2+z
1/4-x,3/4+y,3/4+z
1/4+x,3/4-y,3/4+z
1/2+x,y,1/2+z
1/2-x,-y,1/2+z
3/4-x,1/4+y,3/4+z
3/4+x,1/4-y,3/4+z
1/2+x,1/2+y,z
1/2-x,1/2-y,z
3/4-x,3/4+y,1/4+z
3/4+x,3/4-y,1/4+z
loop_
_atom_site_type_symbol
_atom_site_label
_atom_site_fract_x
_atom_site_fract_y
_atom_site_fract_z
Si Si1 0.667011 0.385766 0.920840
Si Si2 0.250000 0.750000 0.021333
Si Si3 0.276244 0.576979 0.442877
Si Si4 0.250000 0.250000 0.726478
Si Si5 0.026270 0.316337 0.319930
Si Si6 0.750000 0.250000 0.835065
Si Si7 0.394976 0.902218 0.078429
O O1 0.694409 0.492237 0.932128
O O2 0.560897 0.369627 0.880370
O O3 0.757791 0.340624 0.877381
O O4 0.680873 0.320222 0.978813
O O5 0.325293 0.812517 0.062097
O O6 0.393888 0.529736 0.443413
O O7 0.256744 0.617576 0.508946
O O8 0.282751 0.643010 0.386477
O O9 0.282392 0.167211 0.770719
O O10 0.138511 0.264813 0.303285
O O11 0.936193 0.239449 0.332457
#
# Coordination Sequence:
#
# PCOD9371836 Si02
#       7
#    16   8  16   8  16   8  16
#     4   9  19  35  59  91 124 154 218 257 313 356
#     4  11  19  32  62 100 116 159 215 270 302 363
#     4  11  22  38  62  90 128 171 204 262 315 384
#     4  10  23  42  57  94 135 167 204 268 312 392
#     4   9  20  37  58  91 123 165 200 268 305 373
#     4   7  18  32  57  80 123 150 205 256 296 351
#     4  11  24  36  65  95 130 165 213 249 335 368
#
# _framework density 21.801770999999999
#
# number of rings (size 3 to 8) (size 9 to 14) (size 15 to 20)
#    1.091    1.091    3.636    0.545    7.636    0.000 
#    0.000    5.455    0.000    0.000    0.000    0.000 
#    0.000    0.000    0.000    0.000    0.000    0.000 
#
# Total GULP energy -122520.322225 kJ/mol
# GULP energy per Si atom -5569.105556 kJ/mol
# Density = 2.175215 g / cm^3
# Si number density = 21.801771 Si / 1000 Ang^3
#
#
#
# Elastic Constant Matrix: (Units=GPa)
#
#
# Indices 1 2 3 4 5 6 
#
# 1 53.3120 23.1139 28.4722 0.0000 0.0000 0.0000
# 2 23.1139 63.2948 34.7930 0.0000 0.0000 0.0000
# 3 28.4722 34.7930 118.7778 0.0000 0.0000 0.0000
# 4 0.0000 0.0000 0.0000 -22.7907 0.0000 0.0000
# 5 0.0000 0.0000 0.0000 0.0000 -395.1370 0.0000
# 6 0.0000 0.0000 0.0000 0.0000 0.0000 20.9307
#
#
#
# Elastic Compliance Matrix: (Units=1/GPa)
#
#
# Indices 1 2 3 4 5 6 
#
# 1 0.023598 -0.006565 -0.003734 0.000000 0.000000 0.000000
# 2 -0.006565 0.020658 -0.004477 0.000000 0.000000 0.000000
# 3 -0.003734 -0.004477 0.010626 0.000000 0.000000 0.000000
# 4 0.000000 0.000000 0.000000 -0.043878 0.000000 0.000000
# 5 0.000000 0.000000 0.000000 0.000000 -0.002531 0.000000
# 6 0.000000 0.000000 0.000000 0.000000 0.000000 0.047777
#
#
# Mechanical properties :
#
#
# Convention : Reuss Voigt Hill
#
# Bulk Modulus (GPa) = 39.48044 45.34919 42.41482
# Shear Modulus (GPa) = 53.05337 -69.46569 -8.20616
#
# Velocity S-wave (km/s) = 4.93835 -5.65080 -1.94220
# Velocity P-wave (km/s) = 7.11790 4.66150 3.80361
#
# Compressibility (1/GPa) = 0.02532900
#
# Stress axis : x y z
#
# Youngs Moduli (GPa) = 42.37681 48.40800 94.11221
#
# Poissons Ratio (x) = 0.31780 0.35137
# Poissons Ratio (y) = 0.27821 0.42138
# Poissons Ratio (z) = 0.15822 0.21674
#
# Static dielectric constant tensor:
#      x y z
#    x 4.014710 0.000000 0.000000 
#    y 0.000000 1.822720 0.000000 
#    z 0.000000 0.000000 1.827850 
# 
# From -- ./inp_files/17623.got.cif
#   From: 2010.05.17/outbox.cif.g08.bks.cpg/sg43_9_cif.got.tgz:17623.got - 2010.06.03 19:21:55.
