data_PCOD9371437
_publ_section_title
;
Structure prediction by ZEFSAII (Michael W. Deem and Ramdas Pophale) SiO2 
 PCOD9371437
Probable space group: F D D 2
;
_chemical_formula_sum "Si O2"
_cell_formula_units_Z 104
_cell_length_a 31.935482
_cell_length_b 11.090333
_cell_length_c 14.978067
_cell_angle_alpha 90.000000
_cell_angle_beta 90.000000
_cell_angle_gamma 90.000000
_cell_volume 5304.858825
_symmetry_space_group_name_H-M "F D D 2"
_symmetry_group_IT_number 43
_symmetry_cell_setting 'orthorhombic'
loop_
_space_group_symop_operation_xyz
x,y,z
-x,-y,z
1/4-x,1/4+y,1/4+z
1/4+x,1/4-y,1/4+z
x,1/2+y,1/2+z
-x,1/2-y,1/2+z
1/4-x,3/4+y,3/4+z
1/4+x,3/4-y,3/4+z
1/2+x,y,1/2+z
1/2-x,-y,1/2+z
3/4-x,1/4+y,3/4+z
3/4+x,1/4-y,3/4+z
1/2+x,1/2+y,z
1/2-x,1/2-y,z
3/4-x,3/4+y,1/4+z
3/4+x,3/4-y,1/4+z
loop_
_atom_site_type_symbol
_atom_site_label
_atom_site_fract_x
_atom_site_fract_y
_atom_site_fract_z
Si Si1 0.520828 0.366922 0.751110
Si Si2 0.146375 0.231307 0.049519
Si Si3 0.791491 0.812724 0.729306
Si Si4 0.000000 0.500000 0.637846
Si Si5 0.196340 0.959874 0.831076
Si Si6 0.872748 0.261581 0.343818
Si Si7 0.456989 0.649723 0.289565
O O1 0.500000 0.500000 0.733167
O O2 0.562048 0.402132 0.808972
O O3 0.540445 0.296691 0.664743
O O4 0.487275 0.269550 0.790006
O O5 0.102313 0.174030 0.079157
O O6 0.144221 0.356856 0.101858
O O7 0.141830 0.268813 0.944253
O O8 0.750000 0.750000 0.766067
O O9 0.832355 0.764499 0.779796
O O10 0.789452 0.808702 0.623141
O O11 0.793663 0.955236 0.747919
O O12 0.973940 0.407050 0.581156
O O13 0.969723 0.577285 0.701719
O O14 0.908567 0.185006 0.297069
#
# Coordination Sequence:
#
# PCOD9371437 Si02
#       7
#    16  16  16   8  16  16  16
#     4  11  21  35  64  91 118 164 212 247 304 374
#     4  11  20  38  60  92 122 157 202 263 299 362
#     4  11  22  41  66  91 121 158 212 263 300 366
#     4  10  24  44  62  84 134 170 196 254 320 378
#     4  10  22  40  62  88 125 159 203 252 314 354
#     4  11  21  36  65  91 119 157 207 257 304 355
#     4  11  22  41  62  91 126 165 203 257 315 363
#
# _framework density 19.604668
#
# number of rings (size 3 to 8) (size 9 to 14) (size 15 to 20)
#    0.000    1.231    8.462    0.462    0.000    0.000 
#    6.923    0.000    0.000    0.000    0.000    0.000 
#    0.000    0.000    0.000    0.000    0.000    0.000 
#
# Total GULP energy -144842.400424 kJ/mol
# GULP energy per Si atom -5570.861555 kJ/mol
# Density = 1.956005 g / cm^3
# Si number density = 19.604668 Si / 1000 Ang^3
#
#
#
# Elastic Constant Matrix: (Units=GPa)
#
#
# Indices 1 2 3 4 5 6 
#
# 1 156.4070 41.0941 17.4951 0.0000 0.0000 0.0000
# 2 41.0941 41.2532 -19.3095 0.0000 0.0000 0.0000
# 3 17.4951 -19.3095 26.3258 0.0000 0.0000 0.0000
# 4 0.0000 0.0000 0.0000 8.8015 0.0000 0.0000
# 5 0.0000 0.0000 0.0000 0.0000 28.7274 0.0000
# 6 0.0000 0.0000 0.0000 0.0000 0.0000 34.5074
#
#
#
# Elastic Compliance Matrix: (Units=1/GPa)
#
#
# Indices 1 2 3 4 5 6 
#
# 1 0.026715 -0.053179 -0.056759 0.000000 0.000000 0.000000
# 2 -0.053179 0.142774 0.140063 0.000000 0.000000 0.000000
# 3 -0.056759 0.140063 0.178439 0.000000 0.000000 0.000000
# 4 0.000000 0.000000 0.000000 0.113617 0.000000 0.000000
# 5 0.000000 0.000000 0.000000 0.000000 0.034810 0.000000
# 6 0.000000 0.000000 0.000000 0.000000 0.000000 0.028979
#
#
# Mechanical properties :
#
#
# Convention : Reuss Voigt Hill
#
# Bulk Modulus (GPa) = 2.44992 33.61615 18.03304
# Shear Modulus (GPa) = 8.31747 26.72102 17.51925
#
# Velocity S-wave (km/s) = 2.06199 3.69588 2.99260
# Velocity P-wave (km/s) = 2.63087 5.94953 4.59991
#
# Compressibility (1/GPa) = 0.40817694
#
# Stress axis : x y z
#
# Youngs Moduli (GPa) = 37.43267 7.00407 5.60415
#
# Poissons Ratio (x) = 0.37247 0.31809
# Poissons Ratio (y) = 1.99064 -0.78493
# Poissons Ratio (z) = 2.12466 -0.98101
#
# Static dielectric constant tensor:
#      x y z
#    x 1.730220 0.000000 0.000000 
#    y 0.000000 1.702000 0.000000 
#    z 0.000000 0.000000 1.709580 
# 
# From -- ./inp_files/15269.got.cif
#   From: 2010.05.17/outbox.cif.g08.bks.cpg/sg43_8_cif.got.tgz:15269.got - 2010.06.03 19:21:55.
