data_PCOD9371227
_publ_section_title
;
Structure prediction by ZEFSAII (Michael W. Deem and Ramdas Pophale) SiO2 
 PCOD9371227
Probable space group: F D D 2
;
_chemical_formula_sum "Si O2"
_cell_formula_units_Z 120
_cell_length_a 10.701193
_cell_length_b 23.453308
_cell_length_c 21.679327
_cell_angle_alpha 90.000000
_cell_angle_beta 90.000000
_cell_angle_gamma 90.000000
_cell_volume 5441.042270
_symmetry_space_group_name_H-M "F D D 2"
_symmetry_group_IT_number 43
_symmetry_cell_setting 'orthorhombic'
loop_
_space_group_symop_operation_xyz
x,y,z
-x,-y,z
1/4-x,1/4+y,1/4+z
1/4+x,1/4-y,1/4+z
x,1/2+y,1/2+z
-x,1/2-y,1/2+z
1/4-x,3/4+y,3/4+z
1/4+x,3/4-y,3/4+z
1/2+x,y,1/2+z
1/2-x,-y,1/2+z
3/4-x,1/4+y,3/4+z
3/4+x,1/4-y,3/4+z
1/2+x,1/2+y,z
1/2-x,1/2-y,z
3/4-x,3/4+y,1/4+z
3/4+x,3/4-y,1/4+z
loop_
_atom_site_type_symbol
_atom_site_label
_atom_site_fract_x
_atom_site_fract_y
_atom_site_fract_z
Si Si1 0.750000 0.750000 0.455451
Si Si2 0.853124 0.015249 0.002506
Si Si3 0.177100 0.807926 0.512443
Si Si4 0.929808 0.192459 0.645215
Si Si5 0.171045 0.111779 0.648763
Si Si6 0.077380 0.149240 0.973991
Si Si7 0.003246 0.241884 0.875497
Si Si8 0.829375 0.146610 0.039829
O O1 0.872320 0.754538 0.411812
O O2 0.756949 0.693980 0.499249
O O3 0.800249 0.997955 0.936141
O O4 0.824462 0.081560 0.015248
O O5 0.000000 0.000000 0.009497
O O6 0.784600 0.978605 0.055861
O O7 0.250000 0.750000 0.491600
O O8 0.118547 0.795106 0.577732
O O9 0.074935 0.839997 0.469683
O O10 0.293342 0.850364 0.510327
O O11 0.824629 0.158721 0.684831
O O12 0.049821 0.151307 0.641806
O O13 0.281017 0.142505 0.610239
O O14 0.161600 0.048353 0.620079
O O15 0.066039 0.194956 0.918519
O O16 0.972338 0.161525 0.024393
#
# Coordination Sequence:
#
# PCOD9371227 Si02
#       8
#     8  16  16  16  16  16  16  16
#     4  10  22  42  72 104 134 194 234 290 368 432
#     4  11  21  42  64 106 140 179 235 308 357 419
#     4  11  23  43  67  98 142 192 238 290 350 434
#     4  11  25  39  67  99 144 177 238 293 363 421
#     4  10  24  44  65  97 141 190 225 296 356 431
#     4  10  22  40  67 103 129 185 238 292 359 423
#     4  10  21  41  69  95 139 180 241 292 356 437
#     4  10  23  43  71  99 144 178 242 295 358 436
#
# _framework density 22.054597000000001
#
# number of rings (size 3 to 8) (size 9 to 14) (size 15 to 20)
#    0.000    1.600    3.333    0.400    5.600    0.000 
#    2.400    2.667    0.000    0.000    0.000    0.000 
#    0.000    0.000    0.000    0.000    0.000    0.000 
#
# Total GULP energy -167115.091638 kJ/mol
# GULP energy per Si atom -5570.503055 kJ/mol
# Density = 2.200440 g / cm^3
# Si number density = 22.054597 Si / 1000 Ang^3
#
#
#
# Elastic Constant Matrix: (Units=GPa)
#
#
# Indices 1 2 3 4 5 6 
#
# 1 45.7625 18.0205 49.9741 0.0000 0.0000 0.0000
# 2 18.0205 90.5864 31.2458 0.0000 0.0000 0.0000
# 3 49.9741 31.2458 155.3856 0.0000 0.0000 0.0000
# 4 0.0000 0.0000 0.0000 26.3157 0.0000 0.0000
# 5 0.0000 0.0000 0.0000 0.0000 18.2493 0.0000
# 6 0.0000 0.0000 0.0000 0.0000 0.0000 13.2832
#
#
#
# Elastic Compliance Matrix: (Units=1/GPa)
#
#
# Indices 1 2 3 4 5 6 
#
# 1 0.034558 -0.003268 -0.010457 0.000000 0.000000 0.000000
# 2 -0.003268 0.012171 -0.001396 0.000000 0.000000 0.000000
# 3 -0.010457 -0.001396 0.010080 0.000000 0.000000 0.000000
# 4 0.000000 0.000000 0.000000 0.038000 0.000000 0.000000
# 5 0.000000 0.000000 0.000000 0.000000 0.054797 0.000000
# 6 0.000000 0.000000 0.000000 0.000000 0.000000 0.075283
#
#
# Mechanical properties :
#
#
# Convention : Reuss Voigt Hill
#
# Bulk Modulus (GPa) = 37.64220 54.46836 46.05528
# Shear Modulus (GPa) = 18.94030 24.40259 21.67144
#
# Velocity S-wave (km/s) = 2.93369 3.32996 3.13809
# Velocity P-wave (km/s) = 5.34604 6.28773 5.83591
#
# Compressibility (1/GPa) = 0.02656593
#
# Stress axis : x y z
#
# Youngs Moduli (GPa) = 28.93645 82.16314 99.20985
#
# Poissons Ratio (x) = 0.26849 1.03748
# Poissons Ratio (y) = 0.09456 0.13854
# Poissons Ratio (z) = 0.30260 0.11474
#
# Static dielectric constant tensor:
#      x y z
#    x 1.852280 0.000000 0.000000 
#    y 0.000000 1.903780 0.000000 
#    z 0.000000 0.000000 1.853970 
# 
# From -- ./inp_files/17279.got.cif
#   From: 2010.05.17/outbox.cif.g08.bks.cpg/sg43_9_cif.got.tgz:17279.got - 2010.06.03 19:21:55.
