data_PCOD9371564
_publ_section_title
;
Structure prediction by ZEFSAII (Michael W. Deem and Ramdas Pophale) SiO2 
 PCOD9371564
Probable space group: F D D 2
;
_chemical_formula_sum "Si O2"
_cell_formula_units_Z 120
_cell_length_a 13.845116
_cell_length_b 15.548924
_cell_length_c 24.670248
_cell_angle_alpha 90.000000
_cell_angle_beta 90.000000
_cell_angle_gamma 90.000000
_cell_volume 5310.928503
_symmetry_space_group_name_H-M "F D D 2"
_symmetry_group_IT_number 43
_symmetry_cell_setting 'orthorhombic'
loop_
_space_group_symop_operation_xyz
x,y,z
-x,-y,z
1/4-x,1/4+y,1/4+z
1/4+x,1/4-y,1/4+z
x,1/2+y,1/2+z
-x,1/2-y,1/2+z
1/4-x,3/4+y,3/4+z
1/4+x,3/4-y,3/4+z
1/2+x,y,1/2+z
1/2-x,-y,1/2+z
3/4-x,1/4+y,3/4+z
3/4+x,1/4-y,3/4+z
1/2+x,1/2+y,z
1/2-x,1/2-y,z
3/4-x,3/4+y,1/4+z
3/4+x,3/4-y,1/4+z
loop_
_atom_site_type_symbol
_atom_site_label
_atom_site_fract_x
_atom_site_fract_y
_atom_site_fract_z
Si Si1 0.667640 0.485253 0.840570
Si Si2 0.127947 0.042700 0.687724
Si Si3 0.750000 0.750000 0.612966
Si Si4 0.445098 0.109817 0.245633
Si Si5 0.165990 0.377229 0.824392
Si Si6 0.982503 0.907926 0.162882
Si Si7 0.075078 0.610403 0.957801
Si Si8 0.855384 0.770929 0.206309
O O1 0.596397 0.436584 0.799108
O O2 0.739686 0.560843 0.823187
O O3 0.735592 0.410106 0.864385
O O4 0.610987 0.514074 0.894411
O O5 0.091621 0.070432 0.628515
O O6 0.235088 0.076367 0.697926
O O7 0.055350 0.088526 0.730675
O O8 0.115198 0.942102 0.699423
O O9 0.680912 0.686755 0.579213
O O10 0.680901 0.796129 0.657281
O O11 0.427509 0.211200 0.240915
O O12 0.173334 0.324860 0.768582
O O13 0.072913 0.905794 0.202541
O O14 0.891549 0.869319 0.197543
O O15 0.000000 0.000000 0.136945
O O16 0.750000 0.750000 0.227949
#
# Coordination Sequence:
#
# PCOD9371564 Si02
#       8
#    16  16   8  16  16  16  16  16
#     4  10  22  43  69  94 142 188 233 299 363 438
#     4  10  23  38  70 101 139 176 244 301 347 460
#     4  10  22  42  66  98 140 170 238 290 346 438
#     4  11  22  42  68 100 135 188 236 294 373 425
#     4  11  21  43  63 102 135 189 226 294 361 424
#     4  10  24  45  68 100 142 179 242 299 355 456
#     4  11  23  41  72  97 136 187 227 296 367 417
#     4  10  24  43  66  97 143 180 232 305 348 434
#
# _framework density 22.594919000000001
#
# number of rings (size 3 to 8) (size 9 to 14) (size 15 to 20)
#    0.800    0.800    4.000    0.000    6.533    1.600 
#    0.000    4.000    0.000    0.000    0.000    0.000 
#    0.000    0.000    0.000    0.000    0.000    0.000 
#
# Total GULP energy -167045.930135 kJ/mol
# GULP energy per Si atom -5568.197671 kJ/mol
# Density = 2.254349 g / cm^3
# Si number density = 22.594919 Si / 1000 Ang^3
#
#
#
# Elastic Constant Matrix: (Units=GPa)
#
#
# Indices 1 2 3 4 5 6 
#
# 1 93.7348 1.8261 17.7858 0.0000 0.0000 0.0000
# 2 1.8261 54.5501 -2.7438 0.0000 0.0000 0.0000
# 3 17.7858 -2.7438 70.4907 0.0000 0.0000 0.0000
# 4 0.0000 0.0000 0.0000 27.2615 0.0000 0.0000
# 5 0.0000 0.0000 0.0000 0.0000 19.7635 0.0000
# 6 0.0000 0.0000 0.0000 0.0000 0.0000 25.1455
#
#
#
# Elastic Compliance Matrix: (Units=1/GPa)
#
#
# Indices 1 2 3 4 5 6 
#
# 1 0.011219 -0.000519 -0.002851 0.000000 0.000000 0.000000
# 2 -0.000519 0.018392 0.000847 0.000000 0.000000 0.000000
# 3 -0.002851 0.000847 0.014939 0.000000 0.000000 0.000000
# 4 0.000000 0.000000 0.000000 0.036682 0.000000 0.000000
# 5 0.000000 0.000000 0.000000 0.000000 0.050598 0.000000
# 6 0.000000 0.000000 0.000000 0.000000 0.000000 0.039769
#
#
# Mechanical properties :
#
#
# Convention : Reuss Voigt Hill
#
# Bulk Modulus (GPa) = 25.31426 28.05687 26.68556
# Shear Modulus (GPa) = 26.34177 27.89460 27.11819
#
# Velocity S-wave (km/s) = 3.41813 3.51743 3.46813
# Velocity P-wave (km/s) = 5.17745 5.37966 5.27952
#
# Compressibility (1/GPa) = 0.03950343
#
# Stress axis : x y z
#
# Youngs Moduli (GPa) = 89.13075 54.37220 66.94078
#
# Poissons Ratio (x) = 0.02822 0.19085
# Poissons Ratio (y) = 0.04626 -0.05669
# Poissons Ratio (z) = 0.25411 -0.04604
#
# Static dielectric constant tensor:
#      x y z
#    x 1.861980 0.000000 0.000000 
#    y 0.000000 1.309790 0.000000 
#    z 0.000000 0.000000 1.858960 
# 
# From -- ./inp_files/21824.got.cif
#   From: 2010.05.17/outbox.cif.g08.bks.cpg/sg43_11_cif.got.tgz:21824.got - 2010.06.03 19:21:55.
