data_PCOD9371402
_publ_section_title
;
Structure prediction by ZEFSAII (Michael W. Deem and Ramdas Pophale) SiO2 
 PCOD9371402
Probable space group: F D D 2
;
_chemical_formula_sum "Si O2"
_cell_formula_units_Z 120
_cell_length_a 29.897184
_cell_length_b 23.720866
_cell_length_c 8.407235
_cell_angle_alpha 90.000000
_cell_angle_beta 90.000000
_cell_angle_gamma 90.000000
_cell_volume 5962.302570
_symmetry_space_group_name_H-M "F D D 2"
_symmetry_group_IT_number 43
_symmetry_cell_setting 'orthorhombic'
loop_
_space_group_symop_operation_xyz
x,y,z
-x,-y,z
1/4-x,1/4+y,1/4+z
1/4+x,1/4-y,1/4+z
x,1/2+y,1/2+z
-x,1/2-y,1/2+z
1/4-x,3/4+y,3/4+z
1/4+x,3/4-y,3/4+z
1/2+x,y,1/2+z
1/2-x,-y,1/2+z
3/4-x,1/4+y,3/4+z
3/4+x,1/4-y,3/4+z
1/2+x,1/2+y,z
1/2-x,1/2-y,z
3/4-x,3/4+y,1/4+z
3/4+x,3/4-y,1/4+z
loop_
_atom_site_type_symbol
_atom_site_label
_atom_site_fract_x
_atom_site_fract_y
_atom_site_fract_z
Si Si1 0.598735 0.929608 0.537840
Si Si2 0.778981 0.856037 0.007675
Si Si3 0.527755 0.314319 0.484668
Si Si4 0.826989 0.237038 0.069313
Si Si5 0.834838 0.441561 0.918321
Si Si6 0.802970 0.605750 0.532672
Si Si7 0.748877 0.940008 0.249249
Si Si8 0.250000 0.750000 0.318466
O O1 0.565920 0.917563 0.385423
O O2 0.598112 0.873114 0.643823
O O3 0.652182 0.931612 0.502696
O O4 0.580788 0.979095 0.653408
O O5 0.798451 0.892541 0.861189
O O6 0.751220 0.804483 0.932552
O O7 0.747114 0.903319 0.090135
O O8 0.558270 0.307711 0.330426
O O9 0.478444 0.336472 0.429857
O O10 0.523331 0.249650 0.535361
O O11 0.875045 0.234846 0.154171
O O12 0.791240 0.258336 0.197150
O O13 0.815426 0.171369 0.042261
O O14 0.801036 0.452833 0.774109
O O15 0.769837 0.600466 0.384094
#
# Coordination Sequence:
#
# PCOD9371402 Si02
#       8
#    16  16  16  16  16  16  16   8
#     4  10  23  40  65  90 131 170 216 281 332 405
#     4  11  24  40  59 102 134 169 220 282 339 389
#     4  11  20  42  66  92 131 164 226 278 333 395
#     4  11  23  42  65  89 127 179 225 267 332 419
#     4   9  21  41  61  92 118 170 223 261 333 396
#     4  10  22  41  63  95 117 175 225 260 337 406
#     4  10  22  38  67  91 125 170 216 279 330 393
#     4  12  26  40  62  94 136 180 218 274 338 410
#
# _framework density 20.126453000000001
#
# number of rings (size 3 to 8) (size 9 to 14) (size 15 to 20)
#    0.000    1.600    1.333    3.200    5.600    3.200 
#    2.400    0.000    0.000    0.000    0.000    0.000 
#    0.000    0.000    0.000    0.000    0.000    0.000 
#
# Total GULP energy -167057.645108 kJ/mol
# GULP energy per Si atom -5568.588170 kJ/mol
# Density = 2.008064 g / cm^3
# Si number density = 20.126453 Si / 1000 Ang^3
#
#
#
# Elastic Constant Matrix: (Units=GPa)
#
#
# Indices 1 2 3 4 5 6 
#
# 1 72.2074 10.2052 12.9197 -0.0001 0.0001 -0.0001
# 2 10.2052 88.2971 34.2532 -0.0007 0.0004 -0.0001
# 3 12.9197 34.2532 54.5552 -0.0009 0.0005 -0.0001
# 4 -0.0001 -0.0007 -0.0009 32.0368 0.0004 -0.0001
# 5 0.0001 0.0004 0.0005 0.0004 11.5060 0.0001
# 6 -0.0001 -0.0001 -0.0001 -0.0001 0.0001 18.9171
#
#
#
# Elastic Compliance Matrix: (Units=1/GPa)
#
#
# Indices 1 2 3 4 5 6 
#
# 1 0.014476 -0.000454 -0.003143 0.000000 0.000000 0.000000
# 2 -0.000454 0.014986 -0.009302 0.000000 0.000000 0.000000
# 3 -0.003143 -0.009302 0.024915 0.000000 -0.000001 0.000000
# 4 0.000000 0.000000 0.000000 0.031214 -0.000001 0.000000
# 5 0.000000 0.000000 -0.000001 -0.000001 0.086911 0.000000
# 6 0.000000 0.000000 0.000000 0.000000 0.000000 0.052862
#
#
# Mechanical properties :
#
#
# Convention : Reuss Voigt Hill
#
# Bulk Modulus (GPa) = 34.99081 36.64623 35.81852
# Shear Modulus (GPa) = 19.18003 23.00411 21.09207
#
# Velocity S-wave (km/s) = 3.09038 3.38446 3.24076
# Velocity P-wave (km/s) = 5.49155 5.78967 5.64258
#
# Compressibility (1/GPa) = 0.02857893
#
# Stress axis : x y z
#
# Youngs Moduli (GPa) = 69.08219 66.72749 40.13687
#
# Poissons Ratio (x) = 0.03027 0.12616
# Poissons Ratio (y) = 0.03134 0.37335
# Poissons Ratio (z) = 0.21714 0.62069
#
# Static dielectric constant tensor:
#      x y z
#    x 1.808430 0.000000 0.000000 
#    y 0.000000 1.764930 0.000000 
#    z 0.000000 0.000000 1.730460 
# 
# From -- ./inp_files/4807.got.cif
#   From: 2010.05.17/outbox.cif.g08.bks.cpg/sg43_3_cif.got.tgz:4807.got - 2010.06.03 19:21:55.
