data_PCOD9371706
_publ_section_title
;
Structure prediction by ZEFSAII (Michael W. Deem and Ramdas Pophale) SiO2 
 PCOD9371706
Probable space group: F D D 2
;
_chemical_formula_sum "Si O2"
_cell_formula_units_Z 88
_cell_length_a 29.562436
_cell_length_b 10.721937
_cell_length_c 11.661840
_cell_angle_alpha 90.000000
_cell_angle_beta 90.000000
_cell_angle_gamma 90.000000
_cell_volume 3696.413499
_symmetry_space_group_name_H-M "F D D 2"
_symmetry_group_IT_number 43
_symmetry_cell_setting 'orthorhombic'
loop_
_space_group_symop_operation_xyz
x,y,z
-x,-y,z
1/4-x,1/4+y,1/4+z
1/4+x,1/4-y,1/4+z
x,1/2+y,1/2+z
-x,1/2-y,1/2+z
1/4-x,3/4+y,3/4+z
1/4+x,3/4-y,3/4+z
1/2+x,y,1/2+z
1/2-x,-y,1/2+z
3/4-x,1/4+y,3/4+z
3/4+x,1/4-y,3/4+z
1/2+x,1/2+y,z
1/2-x,1/2-y,z
3/4-x,3/4+y,1/4+z
3/4+x,3/4-y,1/4+z
loop_
_atom_site_type_symbol
_atom_site_label
_atom_site_fract_x
_atom_site_fract_y
_atom_site_fract_z
Si Si1 0.943213 0.817116 0.184310
Si Si2 0.166397 0.295407 0.728309
Si Si3 0.553415 0.971442 0.221550
Si Si4 0.949263 0.452912 0.466227
Si Si5 0.602989 0.313014 0.037547
Si Si6 0.750000 0.750000 0.573773
O O1 0.941133 0.677376 0.230717
O O2 0.898794 0.892905 0.223906
O O3 0.986191 0.885763 0.241604
O O4 0.946245 0.831658 0.046216
O O5 0.169265 0.256543 0.858759
O O6 0.119592 0.272699 0.663089
O O7 0.171114 0.446474 0.727973
O O8 0.206849 0.232941 0.656394
O O9 0.569517 0.041838 0.336874
O O10 0.500000 0.000000 0.201242
O O11 0.926819 0.564676 0.537409
O O12 0.000000 0.500000 0.450599
#
# Coordination Sequence:
#
# PCOD9371706 Si02
#       6
#    16  16  16  16  16   8
#     4  11  24  46  76 106 150 203 256 313 397 469
#     4  11  24  46  72 108 152 194 250 325 386 458
#     4  11  27  46  72 117 156 194 256 334 380 476
#     4  11  24  45  75 108 143 201 255 318 385 473
#     4  11  24  48  73 104 148 200 259 316 387 472
#     4  10  22  44  74 102 148 204 252 310 382 474
#
# _framework density 23.806861000000001
#
# number of rings (size 3 to 8) (size 9 to 14) (size 15 to 20)
#    0.000    1.091    3.636    2.182    2.545    4.364 
#    3.273    0.000    0.000    0.000    0.000    0.000 
#    0.000    0.000    0.000    0.000    0.000    0.000 
#
# Total GULP energy -123065.746179 kJ/mol
# GULP energy per Si atom -5593.897554 kJ/mol
# Density = 2.375268 g / cm^3
# Si number density = 23.806861 Si / 1000 Ang^3
#
#
#
# Elastic Constant Matrix: (Units=GPa)
#
#
# Indices 1 2 3 4 5 6 
#
# 1 60.8958 13.0523 29.3538 0.0000 0.0000 0.0000
# 2 13.0523 73.8525 26.0334 0.0000 0.0000 0.0000
# 3 29.3538 26.0334 188.9683 0.0000 0.0000 0.0000
# 4 0.0000 0.0000 0.0000 32.2789 0.0000 0.0000
# 5 0.0000 0.0000 0.0000 0.0000 28.9047 0.0000
# 6 0.0000 0.0000 0.0000 0.0000 0.0000 32.4986
#
#
#
# Elastic Compliance Matrix: (Units=1/GPa)
#
#
# Indices 1 2 3 4 5 6 
#
# 1 0.018122 -0.002323 -0.002495 0.000000 0.000000 0.000000
# 2 -0.002323 0.014529 -0.001641 0.000000 0.000000 0.000000
# 3 -0.002495 -0.001641 0.005905 0.000000 0.000000 0.000000
# 4 0.000000 0.000000 0.000000 0.030980 0.000000 0.000000
# 5 0.000000 0.000000 0.000000 0.000000 0.034596 0.000000
# 6 0.000000 0.000000 0.000000 0.000000 0.000000 0.030771
#
#
# Mechanical properties :
#
#
# Convention : Reuss Voigt Hill
#
# Bulk Modulus (GPa) = 39.00308 51.17730 45.09019
# Shear Modulus (GPa) = 31.97576 35.75494 33.86535
#
# Velocity S-wave (km/s) = 3.66885 3.87961 3.77570
# Velocity P-wave (km/s) = 5.86225 6.45074 6.16352
#
# Compressibility (1/GPa) = 0.02563900
#
# Stress axis : x y z
#
# Youngs Moduli (GPa) = 55.18117 68.82550 169.33382
#
# Poissons Ratio (x) = 0.15990 0.42248
# Poissons Ratio (y) = 0.12820 0.27784
# Poissons Ratio (z) = 0.13767 0.11293
#
# Static dielectric constant tensor:
#      x y z
#    x 1.911510 0.000000 0.000000 
#    y 0.000000 1.875110 0.000000 
#    z 0.000000 0.000000 1.996160 
# 
# From -- ./inp_files/5736.got.cif
#   From: 2010.05.17/outbox.cif.g08.bks.cpg/sg43_3_cif.got.tgz:5736.got - 2010.06.03 19:21:55.
