data_PCOD9371517
_publ_section_title
;
Structure prediction by ZEFSAII (Michael W. Deem and Ramdas Pophale) SiO2 
 PCOD9371517
Probable space group: F D D 2
;
_chemical_formula_sum "Si O2"
_cell_formula_units_Z 112
_cell_length_a 21.903073
_cell_length_b 18.458645
_cell_length_c 11.062516
_cell_angle_alpha 90.000000
_cell_angle_beta 90.000000
_cell_angle_gamma 90.000000
_cell_volume 4472.586822
_symmetry_space_group_name_H-M "F D D 2"
_symmetry_group_IT_number 43
_symmetry_cell_setting 'orthorhombic'
loop_
_space_group_symop_operation_xyz
x,y,z
-x,-y,z
1/4-x,1/4+y,1/4+z
1/4+x,1/4-y,1/4+z
x,1/2+y,1/2+z
-x,1/2-y,1/2+z
1/4-x,3/4+y,3/4+z
1/4+x,3/4-y,3/4+z
1/2+x,y,1/2+z
1/2-x,-y,1/2+z
3/4-x,1/4+y,3/4+z
3/4+x,1/4-y,3/4+z
1/2+x,1/2+y,z
1/2-x,1/2-y,z
3/4-x,3/4+y,1/4+z
3/4+x,3/4-y,1/4+z
loop_
_atom_site_type_symbol
_atom_site_label
_atom_site_fract_x
_atom_site_fract_y
_atom_site_fract_z
Si Si1 0.487544 0.415255 0.897140
Si Si2 0.728342 0.669131 0.411540
Si Si3 0.673024 0.037334 0.374679
Si Si4 0.527933 0.310066 0.379693
Si Si5 0.189778 0.440895 0.968232
Si Si6 0.891991 0.771334 0.464388
Si Si7 0.875253 0.127287 0.843938
O O1 0.500000 0.500000 0.899656
O O2 0.446602 0.385283 0.786492
O O3 0.485322 0.393260 0.041448
O O4 0.400706 0.295342 0.103971
O O5 0.750000 0.750000 0.438174
O O6 0.734011 0.619308 0.527863
O O7 0.655439 0.678138 0.391333
O O8 0.687060 0.081619 0.251824
O O9 0.626343 0.076879 0.466623
O O10 0.741986 0.034715 0.426697
O O11 0.571874 0.248886 0.323117
O O12 0.461155 0.278849 0.416057
O O13 0.146790 0.452076 0.852994
O O14 0.302742 0.365068 0.108487
O O15 0.866258 0.690000 0.445675
#
# Coordination Sequence:
#
# PCOD9371517 Si02
#       7
#    16  16  16  16  16  16  16
#     4  10  22  41  68 107 140 188 254 321 373 457
#     4  11  27  43  72 109 145 194 261 319 382 469
#     4  10  24  41  68 103 139 191 248 308 382 454
#     4  11  24  44  66 102 149 191 247 314 387 467
#     4  10  23  43  69  99 146 192 244 312 387 460
#     4  11  24  45  70 104 148 199 247 319 394 451
#     4  11  22  43  70 103 143 191 251 314 373 466
#
# _framework density 25.041435
#
# number of rings (size 3 to 8) (size 9 to 14) (size 15 to 20)
#    0.000    1.429    2.857    1.714    4.000    5.714 
#    0.000    6.429    0.000    0.000    0.000    0.000 
#    0.000    0.000    0.000    0.000    0.000    0.000 
#
# Total GULP energy -156370.167278 kJ/mol
# GULP energy per Si atom -5584.648831 kJ/mol
# Density = 2.498444 g / cm^3
# Si number density = 25.041435 Si / 1000 Ang^3
#
#
#
# Elastic Constant Matrix: (Units=GPa)
#
#
# Indices 1 2 3 4 5 6 
#
# 1 75.7899 23.3980 32.8746 0.0000 0.0000 0.0000
# 2 23.3980 126.7184 86.5221 0.0000 0.0000 0.0000
# 3 32.8746 86.5221 182.2815 0.0000 0.0000 0.0000
# 4 0.0000 0.0000 0.0000 53.2479 0.0000 0.0000
# 5 0.0000 0.0000 0.0000 0.0000 51.8574 0.0000
# 6 0.0000 0.0000 0.0000 0.0000 0.0000 43.8449
#
#
#
# Elastic Compliance Matrix: (Units=1/GPa)
#
#
# Indices 1 2 3 4 5 6 
#
# 1 0.014461 -0.001316 -0.001983 0.000000 0.000000 0.000000
# 2 -0.001316 0.011795 -0.005361 0.000000 0.000000 0.000000
# 3 -0.001983 -0.005361 0.008389 0.000000 0.000000 0.000000
# 4 0.000000 0.000000 0.000000 0.018780 0.000000 0.000000
# 5 0.000000 0.000000 0.000000 0.000000 0.019284 0.000000
# 6 0.000000 0.000000 0.000000 0.000000 0.000000 0.022808
#
#
# Mechanical properties :
#
#
# Convention : Reuss Voigt Hill
#
# Bulk Modulus (GPa) = 57.72579 74.48658 66.10618
# Shear Modulus (GPa) = 42.15422 45.92305 44.03863
#
# Velocity S-wave (km/s) = 4.10735 4.28703 4.19815
# Velocity P-wave (km/s) = 6.75248 7.36985 7.06791
#
# Compressibility (1/GPa) = 0.01732328
#
# Stress axis : x y z
#
# Youngs Moduli (GPa) = 69.15174 84.78012 119.20932
#
# Poissons Ratio (x) = 0.11156 0.23645
# Poissons Ratio (y) = 0.09099 0.63913
# Poissons Ratio (z) = 0.13716 0.45454
#
# Static dielectric constant tensor:
#      x y z
#    x 2.125070 0.000000 0.000000 
#    y 0.000000 2.000120 0.000000 
#    z 0.000000 0.000000 2.086320 
# 
# From -- ./inp_files/7651.got.cif
#   From: 2010.05.17/outbox.cif.g08.bks.cpg/sg43_4_cif.got.tgz:7651.got - 2010.06.03 19:21:55.
