data_PCOD9371166
_publ_section_title
;
Structure prediction by ZEFSAII (Michael W. Deem and Ramdas Pophale) SiO2 
 PCOD9371166
Probable space group: F D D 2
;
_chemical_formula_sum "Si O2"
_cell_formula_units_Z 96
_cell_length_a 19.437379
_cell_length_b 8.580748
_cell_length_c 22.336356
_cell_angle_alpha 90.000000
_cell_angle_beta 90.000000
_cell_angle_gamma 90.000000
_cell_volume 3725.419414
_symmetry_space_group_name_H-M "F D D 2"
_symmetry_group_IT_number 43
_symmetry_cell_setting 'orthorhombic'
loop_
_space_group_symop_operation_xyz
x,y,z
-x,-y,z
1/4-x,1/4+y,1/4+z
1/4+x,1/4-y,1/4+z
x,1/2+y,1/2+z
-x,1/2-y,1/2+z
1/4-x,3/4+y,3/4+z
1/4+x,3/4-y,3/4+z
1/2+x,y,1/2+z
1/2-x,-y,1/2+z
3/4-x,1/4+y,3/4+z
3/4+x,1/4-y,3/4+z
1/2+x,1/2+y,z
1/2-x,1/2-y,z
3/4-x,3/4+y,1/4+z
3/4+x,3/4-y,1/4+z
loop_
_atom_site_type_symbol
_atom_site_label
_atom_site_fract_x
_atom_site_fract_y
_atom_site_fract_z
Si Si1 0.449279 0.889476 0.289980
Si Si2 0.944379 0.113262 0.368300
Si Si3 0.974511 0.179773 0.965128
Si Si4 0.234365 0.071586 0.918059
Si Si5 0.149858 0.168068 0.400184
Si Si6 0.076910 0.187092 0.065281
O O1 0.420358 0.736461 0.320292
O O2 0.500639 0.838791 0.237863
O O3 0.500000 0.000000 0.328993
O O4 0.383957 0.991554 0.271658
O O5 0.983064 0.210842 0.419513
O O6 0.889395 0.996935 0.394851
O O7 0.000000 0.000000 0.338134
O O8 0.895395 0.229531 0.948350
O O9 0.004420 0.213985 0.031937
O O10 0.000000 0.000000 0.958538
O O11 0.250000 0.250000 0.896858
O O12 0.274906 0.906252 0.909063
O O13 0.168777 0.032151 0.877748
O O14 0.152290 0.265691 0.338016
#
# Coordination Sequence:
#
# PCOD9371166 Si02
#       6
#    16  16  16  16  16  16
#     4  11  24  45  70 103 147 195 247 313 378 448
#     4  10  21  40  67 101 139 187 241 299 366 441
#     4  11  24  43  72 106 145 195 249 308 377 448
#     4  11  26  45  69 105 144 189 245 301 370 443
#     4  11  24  44  70 107 147 191 247 305 373 448
#     4  12  26  47  73 106 149 193 249 312 375 452
#
# _framework density 25.768910999999999
#
# number of rings (size 3 to 8) (size 9 to 14) (size 15 to 20)
#    0.000    1.000    0.000    7.000    0.000   11.333 
#    0.000    1.667    0.000    0.000    0.000    0.000 
#    0.000    0.000    0.000    0.000    0.000    0.000 
#
# Total GULP energy -133651.695214 kJ/mol
# GULP energy per Si atom -5568.820634 kJ/mol
# Density = 2.571026 g / cm^3
# Si number density = 25.768911 Si / 1000 Ang^3
#
#
#
# Elastic Constant Matrix: (Units=GPa)
#
#
# Indices 1 2 3 4 5 6 
#
# 1 53.6155 25.9055 13.8307 0.0000 0.0000 0.0000
# 2 25.9055 176.2086 24.4870 0.0000 0.0000 0.0000
# 3 13.8307 24.4870 84.7582 0.0000 0.0000 0.0000
# 4 0.0000 0.0000 0.0000 38.0953 0.0000 0.0000
# 5 0.0000 0.0000 0.0000 0.0000 26.9937 0.0000
# 6 0.0000 0.0000 0.0000 0.0000 0.0000 52.4811
#
#
#
# Elastic Compliance Matrix: (Units=1/GPa)
#
#
# Indices 1 2 3 4 5 6 
#
# 1 0.020610 -0.002670 -0.002592 0.000000 0.000000 0.000000
# 2 -0.002670 0.006258 -0.001372 0.000000 0.000000 0.000000
# 3 -0.002592 -0.001372 0.012618 0.000000 0.000000 0.000000
# 4 0.000000 0.000000 0.000000 0.026250 0.000000 0.000000
# 5 0.000000 0.000000 0.000000 0.000000 0.037046 0.000000
# 6 0.000000 0.000000 0.000000 0.000000 0.000000 0.019054
#
#
# Mechanical properties :
#
#
# Convention : Reuss Voigt Hill
#
# Bulk Modulus (GPa) = 38.14185 49.22540 43.68362
# Shear Modulus (GPa) = 34.76005 40.20461 37.48233
#
# Velocity S-wave (km/s) = 3.67674 3.95422 3.81800
# Velocity P-wave (km/s) = 5.73221 6.32392 6.03532
#
# Compressibility (1/GPa) = 0.02621792
#
# Stress axis : x y z
#
# Youngs Moduli (GPa) = 48.52043 159.78741 79.25385
#
# Poissons Ratio (x) = 0.42660 0.20541
# Poissons Ratio (y) = 0.12954 0.10877
# Poissons Ratio (z) = 0.12575 0.21929
#
# Static dielectric constant tensor:
#      x y z
#    x 2.237350 0.000000 0.000000 
#    y 0.000000 2.046670 0.000000 
#    z 0.000000 0.000000 2.092160 
# 
# From -- ./inp_files/22584.got.cif
#   From: 2010.05.17/outbox.cif.g08.bks.cpg/sg43_12_cif.got.tgz:22584.got - 2010.06.03 19:21:55.
