data_PCOD9371922
_publ_section_title
;
Structure prediction by ZEFSAII (Michael W. Deem and Ramdas Pophale) SiO2 
 PCOD9371922
Probable space group: F D D 2
;
_chemical_formula_sum "Si O2"
_cell_formula_units_Z 104
_cell_length_a 18.493090
_cell_length_b 8.195264
_cell_length_c 31.706145
_cell_angle_alpha 90.000000
_cell_angle_beta 90.000000
_cell_angle_gamma 90.000000
_cell_volume 4805.248735
_symmetry_space_group_name_H-M "F D D 2"
_symmetry_group_IT_number 43
_symmetry_cell_setting 'orthorhombic'
loop_
_space_group_symop_operation_xyz
x,y,z
-x,-y,z
1/4-x,1/4+y,1/4+z
1/4+x,1/4-y,1/4+z
x,1/2+y,1/2+z
-x,1/2-y,1/2+z
1/4-x,3/4+y,3/4+z
1/4+x,3/4-y,3/4+z
1/2+x,y,1/2+z
1/2-x,-y,1/2+z
3/4-x,1/4+y,3/4+z
3/4+x,1/4-y,3/4+z
1/2+x,1/2+y,z
1/2-x,1/2-y,z
3/4-x,3/4+y,1/4+z
3/4+x,3/4-y,1/4+z
loop_
_atom_site_type_symbol
_atom_site_label
_atom_site_fract_x
_atom_site_fract_y
_atom_site_fract_z
Si Si1 0.131979 0.291526 0.846760
Si Si2 0.650636 0.513418 0.498017
Si Si3 0.250000 0.750000 0.796997
Si Si4 0.489409 0.755016 0.611480
Si Si5 0.718844 0.565348 0.949656
Si Si6 0.794760 0.416633 0.182869
Si Si7 0.664740 0.107562 0.721507
O O1 0.110632 0.260579 0.798282
O O2 0.181110 0.453451 0.846888
O O3 0.078764 0.301616 0.886803
O O4 0.185823 0.146276 0.858982
O O5 0.734874 0.482821 0.490008
O O6 0.602914 0.379674 0.470690
O O7 0.629188 0.689714 0.478961
O O8 0.291447 0.634232 0.829275
O O9 0.304058 0.841782 0.766534
O O10 0.495028 0.793979 0.660368
O O11 0.750000 0.750000 0.940804
O O12 0.635979 0.506314 0.955162
O O13 0.750000 0.250000 0.179540
O O14 0.736245 0.555208 0.195189
#
# Coordination Sequence:
#
# PCOD9371922 Si02
#       7
#    16  16   8  16  16  16  16
#     4  11  22  45  72 102 137 186 241 290 361 435
#     4  11  23  46  74 100 144 193 238 295 370 437
#     4  12  26  42  72 102 140 180 248 296 346 438
#     4  11  24  43  71  98 137 187 237 287 358 434
#     4  12  26  47  71 101 145 189 237 301 369 433
#     4  10  23  44  75 105 145 190 237 303 371 438
#     4  11  27  43  69 104 140 189 239 292 366 435
#
# _framework density 21.643000000000001
#
# number of rings (size 3 to 8) (size 9 to 14) (size 15 to 20)
#    0.000    0.923    4.615    1.385   12.923    1.231 
#    2.769    0.000    0.000    0.000    0.000    0.000 
#    0.000    0.000    0.000    0.000    0.000    0.000 
#
# Total GULP energy -144955.683083 kJ/mol
# GULP energy per Si atom -5575.218580 kJ/mol
# Density = 2.159374 g / cm^3
# Si number density = 21.643000 Si / 1000 Ang^3
#
#
#
# Elastic Constant Matrix: (Units=GPa)
#
#
# Indices 1 2 3 4 5 6 
#
# 1 116.6094 37.9499 61.9716 0.0000 0.0000 0.0000
# 2 37.9499 94.7709 27.7129 0.0000 0.0000 0.0000
# 3 61.9716 27.7129 173.2977 0.0000 0.0000 0.0000
# 4 0.0000 0.0000 0.0000 34.8148 0.0000 0.0000
# 5 0.0000 0.0000 0.0000 0.0000 3134.0842 0.0000
# 6 0.0000 0.0000 0.0000 0.0000 0.0000 28.6927
#
#
#
# Elastic Compliance Matrix: (Units=1/GPa)
#
#
# Indices 1 2 3 4 5 6 
#
# 1 0.011662 -0.003620 -0.003592 0.000000 0.000000 0.000000
# 2 -0.003620 0.012193 -0.000655 0.000000 0.000000 0.000000
# 3 -0.003592 -0.000655 0.007160 0.000000 0.000000 0.000000
# 4 0.000000 0.000000 0.000000 0.028723 0.000000 0.000000
# 5 0.000000 0.000000 0.000000 0.000000 0.000319 0.000000
# 6 0.000000 0.000000 0.000000 0.000000 0.000000 0.034852
#
#
# Mechanical properties :
#
#
# Convention : Reuss Voigt Hill
#
# Bulk Modulus (GPa) = 65.43956 71.10521 68.27238
# Shear Modulus (GPa) = 43.20140 656.65459 349.92799
#
# Velocity S-wave (km/s) = 4.47261 17.43736 12.72921
# Velocity P-wave (km/s) = 7.54810 20.93658 15.73712
#
# Compressibility (1/GPa) = 0.01528128
#
# Stress axis : x y z
#
# Youngs Moduli (GPa) = 85.74524 82.01484 139.67247
#
# Poissons Ratio (x) = 0.29688 0.50166
# Poissons Ratio (y) = 0.31038 0.09154
# Poissons Ratio (z) = 0.30797 0.05375
#
# Static dielectric constant tensor:
#      x y z
#    x 0.699870 0.000000 0.000000 
#    y 0.000000 1.844060 0.000000 
#    z 0.000000 0.000000 1.790430 
# 
# From -- ./inp_files/29692.got.cif
#   From: 2010.05.17/outbox.cif.g08.bks.cpg/sg43_15_cif.got.tgz:29692.got - 2010.06.03 19:21:55.
