data_PCOD9371607
_publ_section_title
;
Structure prediction by ZEFSAII (Michael W. Deem and Ramdas Pophale) SiO2 
 PCOD9371607
Probable space group: F D D 2
;
_chemical_formula_sum "Si O2"
_cell_formula_units_Z 104
_cell_length_a 19.219245
_cell_length_b 27.056500
_cell_length_c 7.157007
_cell_angle_alpha 90.000000
_cell_angle_beta 90.000000
_cell_angle_gamma 90.000000
_cell_volume 3721.683020
_symmetry_space_group_name_H-M "F D D 2"
_symmetry_group_IT_number 43
_symmetry_cell_setting 'orthorhombic'
loop_
_space_group_symop_operation_xyz
x,y,z
-x,-y,z
1/4-x,1/4+y,1/4+z
1/4+x,1/4-y,1/4+z
x,1/2+y,1/2+z
-x,1/2-y,1/2+z
1/4-x,3/4+y,3/4+z
1/4+x,3/4-y,3/4+z
1/2+x,y,1/2+z
1/2-x,-y,1/2+z
3/4-x,1/4+y,3/4+z
3/4+x,1/4-y,3/4+z
1/2+x,1/2+y,z
1/2-x,1/2-y,z
3/4-x,3/4+y,1/4+z
3/4+x,3/4-y,1/4+z
loop_
_atom_site_type_symbol
_atom_site_label
_atom_site_fract_x
_atom_site_fract_y
_atom_site_fract_z
Si Si1 0.808232 0.835953 0.746090
Si Si2 0.896637 0.768236 0.955145
Si Si3 0.292525 0.094980 0.712865
Si Si4 0.202571 0.016795 0.105063
Si Si5 0.750000 0.250000 0.002685
Si Si6 0.412154 0.911593 0.615170
Si Si7 0.143126 0.838968 0.428624
O O1 0.843424 0.813274 0.933974
O O2 0.722452 0.846608 0.816688
O O3 0.794866 0.786659 0.626723
O O4 0.798909 0.898874 0.714071
O O5 0.867959 0.717417 0.869358
O O6 0.967686 0.783158 0.853587
O O7 0.917441 0.750566 0.162012
O O8 0.295535 0.035472 0.709140
O O9 0.312978 0.118443 0.505301
O O10 0.366742 0.103007 0.848457
O O11 0.161851 0.065104 0.178018
O O12 0.791081 0.210441 0.883136
O O13 0.412041 0.902282 0.395747
#
# Coordination Sequence:
#
# PCOD9371607 Si02
#       7
#    16  16  16  16   8  16  16
#     4  11  23  43  68 103 135 185 239 292 355 441
#     4  11  25  42  69 105 144 190 243 303 363 437
#     4  11  24  45  72  99 141 190 233 293 370 429
#     4  11  25  44  70 104 147 189 241 301 368 438
#     4  10  22  42  74  98 148 186 242 294 376 422
#     4  10  24  43  66 106 134 182 237 294 345 436
#     4  11  24  41  69  99 140 180 240 289 365 428
#
# _framework density 27.944348999999999
#
# number of rings (size 3 to 8) (size 9 to 14) (size 15 to 20)
#    0.000    1.231    1.538    3.692    6.462    2.462 
#    0.000    4.615    0.000    0.000    0.000    0.000 
#    0.000    0.000    0.000    0.000    0.000    0.000 
#
# Total GULP energy -145180.023670 kJ/mol
# GULP energy per Si atom -5583.847064 kJ/mol
# Density = 2.788075 g / cm^3
# Si number density = 27.944349 Si / 1000 Ang^3
#
#
#
# Elastic Constant Matrix: (Units=GPa)
#
#
# Indices 1 2 3 4 5 6 
#
# 1 112.0215 34.6223 18.0710 -0.0022 -0.0314 0.0007
# 2 34.6223 131.9075 -3.0893 -0.0016 -0.0686 0.0008
# 3 18.0710 -3.0893 116.1054 -0.0104 -0.1371 0.0030
# 4 -0.0022 -0.0016 -0.0104 24.2579 -0.2128 0.0032
# 5 -0.0314 -0.0686 -0.1371 -0.2128 400.6331 0.0501
# 6 0.0007 0.0008 0.0030 0.0032 0.0501 89.2418
#
#
#
# Elastic Compliance Matrix: (Units=1/GPa)
#
#
# Indices 1 2 3 4 5 6 
#
# 1 0.010014 -0.002667 -0.001630 0.000000 0.000000 0.000000
# 2 -0.002667 0.008296 0.000636 0.000001 0.000001 0.000000
# 3 -0.001630 0.000636 0.008883 0.000004 0.000003 0.000000
# 4 0.000000 0.000001 0.000004 0.041224 0.000022 -0.000002
# 5 0.000000 0.000001 0.000003 0.000022 0.002496 -0.000001
# 6 0.000000 0.000000 0.000000 -0.000002 -0.000001 0.011206
#
#
# Mechanical properties :
#
#
# Convention : Reuss Voigt Hill
#
# Bulk Modulus (GPa) = 50.32078 51.02692 50.67385
# Shear Modulus (GPa) = 52.04895 123.52192 87.78544
#
# Velocity S-wave (km/s) = 4.32046 6.65573 5.61093
# Velocity P-wave (km/s) = 6.55249 8.79573 7.75564
#
# Compressibility (1/GPa) = 0.01987251
#
# Stress axis : x y z
#
# Youngs Moduli (GPa) = 99.86150 120.54207 112.56943
#
# Poissons Ratio (x) = 0.32143 0.18344
# Poissons Ratio (y) = 0.26629 -0.07157
# Poissons Ratio (z) = 0.16273 -0.07664
#
# Static dielectric constant tensor:
#      x y z
#    x 0.860490 0.001150 0.000120 
#    y 0.001150 2.215170 0.000000 
#    z 0.000120 0.000000 2.277060 
# 
# From -- ./inp_files/3362.got.cif
#   From: 2010.05.17/outbox.cif.g08.bks.cpg/sg43_2_cif.got.tgz:3362.got - 2010.06.03 19:21:55.
