data_PCOD9371217
_publ_section_title
;
Structure prediction by ZEFSAII (Michael W. Deem and Ramdas Pophale) SiO2 
 PCOD9371217
Probable space group: F D D 2
;
_chemical_formula_sum "Si O2"
_cell_formula_units_Z 112
_cell_length_a 15.700571
_cell_length_b 13.401862
_cell_length_c 24.233403
_cell_angle_alpha 90.000000
_cell_angle_beta 90.000000
_cell_angle_gamma 90.000000
_cell_volume 5099.117193
_symmetry_space_group_name_H-M "F D D 2"
_symmetry_group_IT_number 43
_symmetry_cell_setting 'orthorhombic'
loop_
_space_group_symop_operation_xyz
x,y,z
-x,-y,z
1/4-x,1/4+y,1/4+z
1/4+x,1/4-y,1/4+z
x,1/2+y,1/2+z
-x,1/2-y,1/2+z
1/4-x,3/4+y,3/4+z
1/4+x,3/4-y,3/4+z
1/2+x,y,1/2+z
1/2-x,-y,1/2+z
3/4-x,1/4+y,3/4+z
3/4+x,1/4-y,3/4+z
1/2+x,1/2+y,z
1/2-x,1/2-y,z
3/4-x,3/4+y,1/4+z
3/4+x,3/4-y,1/4+z
loop_
_atom_site_type_symbol
_atom_site_label
_atom_site_fract_x
_atom_site_fract_y
_atom_site_fract_z
Si Si1 0.524092 0.327025 0.261700
Si Si2 0.999087 0.746403 0.478466
Si Si3 0.405726 0.513031 0.665424
Si Si4 0.645972 0.649074 0.405144
Si Si5 0.168047 0.193652 0.622249
Si Si6 0.330738 0.311077 0.284013
Si Si7 0.671225 0.178494 0.291063
O O1 0.539967 0.387593 0.205808
O O2 0.550591 0.398710 0.313443
O O3 0.427170 0.292045 0.264965
O O4 0.588277 0.232680 0.266062
O O5 0.938994 0.804524 0.434156
O O6 0.940507 0.673017 0.513537
O O7 0.077808 0.690651 0.448903
O O8 0.049164 0.823736 0.517485
O O9 0.500000 0.500000 0.690417
O O10 0.372097 0.401213 0.651857
O O11 0.414337 0.569665 0.607229
O O12 0.643723 0.537249 0.378622
O O13 0.664711 0.709142 0.349834
O O14 0.250000 0.250000 0.647345
O O15 0.250000 0.250000 0.262363
O O16 0.750000 0.250000 0.277566
#
# Coordination Sequence:
#
# PCOD9371217 Si02
#       7
#    16  16  16  16  16  16  16
#     4  11  24  41  73 102 145 183 229 301 367 409
#     4  12  25  46  72 103 145 190 240 301 354 440
#     4  10  23  38  66 105 149 182 228 292 374 425
#     4  12  24  41  77 103 136 180 236 302 371 407
#     4  11  20  40  68 109 135 170 242 306 336 424
#     4  12  31  49  63 103 149 189 249 291 358 458
#     4  10  21  41  68 113 140 170 236 302 357 426
#
# _framework density 21.964585
#
# number of rings (size 3 to 8) (size 9 to 14) (size 15 to 20)
#    0.000    0.857    4.286    2.571    6.000    2.286 
#    0.000    0.000    0.000    0.000    0.000    0.000 
#    0.000    0.000    0.000    0.000    0.000    0.000 
#
# Total GULP energy -156233.790774 kJ/mol
# GULP energy per Si atom -5579.778242 kJ/mol
# Density = 2.191459 g / cm^3
# Si number density = 21.964585 Si / 1000 Ang^3
#
#
#
# Elastic Constant Matrix: (Units=GPa)
#
#
# Indices 1 2 3 4 5 6 
#
# 1 174.4587 35.8046 47.5987 0.0000 0.0000 0.0000
# 2 35.8046 66.4399 10.6238 0.0000 0.0000 0.0000
# 3 47.5987 10.6238 69.8984 0.0000 0.0000 0.0000
# 4 0.0000 0.0000 0.0000 207.8744 0.0000 0.0000
# 5 0.0000 0.0000 0.0000 0.0000 -6.2544 0.0000
# 6 0.0000 0.0000 0.0000 0.0000 0.0000 39.2581
#
#
#
# Elastic Compliance Matrix: (Units=1/GPa)
#
#
# Indices 1 2 3 4 5 6 
#
# 1 0.007725 -0.003405 -0.004743 0.000000 0.000000 0.000000
# 2 -0.003405 0.016927 -0.000254 0.000000 0.000000 0.000000
# 3 -0.004743 -0.000254 0.017575 0.000000 0.000000 0.000000
# 4 0.000000 0.000000 0.000000 0.004811 0.000000 0.000000
# 5 0.000000 0.000000 0.000000 0.000000 -0.159886 0.000000
# 6 0.000000 0.000000 0.000000 0.000000 0.000000 0.025472
#
#
# Mechanical properties :
#
#
# Convention : Reuss Voigt Hill
#
# Bulk Modulus (GPa) = 39.33468 55.42791 47.38129
# Shear Modulus (GPa) = -80.51610 62.62694 -8.94458
#
# Velocity S-wave (km/s) = -6.06109 5.34552 -2.02018
# Velocity P-wave (km/s) = 5.57094 7.96174 4.02207
#
# Compressibility (1/GPa) = 0.02542286
#
# Stress axis : x y z
#
# Youngs Moduli (GPa) = 129.45384 59.07879 56.89938
#
# Poissons Ratio (x) = 0.20113 0.26987
# Poissons Ratio (y) = 0.44073 0.01447
# Poissons Ratio (z) = 0.61398 0.01502
#
# Static dielectric constant tensor:
#      x y z
#    x 1.858110 0.000000 0.000000 
#    y 0.000000 1.592840 0.000000 
#    z 0.000000 0.000000 1.860760 
# 
# From -- ./inp_files/21744.got.cif
#   From: 2010.05.17/outbox.cif.g08.bks.cpg/sg43_11_cif.got.tgz:21744.got - 2010.06.03 19:21:55.
