data_PCOD9371236
_publ_section_title
;
Structure prediction by ZEFSAII (Michael W. Deem and Ramdas Pophale) SiO2 
 PCOD9371236
Probable space group: F D D 2
;
_chemical_formula_sum "Si O2"
_cell_formula_units_Z 104
_cell_length_a 43.366717
_cell_length_b 7.319577
_cell_length_c 12.669519
_cell_angle_alpha 90.000000
_cell_angle_beta 90.000000
_cell_angle_gamma 90.000000
_cell_volume 4021.635046
_symmetry_space_group_name_H-M "F D D 2"
_symmetry_group_IT_number 43
_symmetry_cell_setting 'orthorhombic'
loop_
_space_group_symop_operation_xyz
x,y,z
-x,-y,z
1/4-x,1/4+y,1/4+z
1/4+x,1/4-y,1/4+z
x,1/2+y,1/2+z
-x,1/2-y,1/2+z
1/4-x,3/4+y,3/4+z
1/4+x,3/4-y,3/4+z
1/2+x,y,1/2+z
1/2-x,-y,1/2+z
3/4-x,1/4+y,3/4+z
3/4+x,1/4-y,3/4+z
1/2+x,1/2+y,z
1/2-x,1/2-y,z
3/4-x,3/4+y,1/4+z
3/4+x,3/4-y,1/4+z
loop_
_atom_site_type_symbol
_atom_site_label
_atom_site_fract_x
_atom_site_fract_y
_atom_site_fract_z
Si Si1 0.962252 0.500129 0.696250
Si Si2 0.752203 0.957848 0.176826
Si Si3 0.065717 0.872945 0.971703
Si Si4 0.670673 0.466321 0.562690
Si Si5 0.647649 0.340796 0.333484
Si Si6 0.546959 0.365596 0.585804
Si Si7 0.750000 0.250000 0.474597
O O1 0.947825 0.573584 0.585893
O O2 0.944362 0.617192 0.785828
O O3 0.952084 0.289618 0.676386
O O4 0.000000 0.500000 0.701256
O O5 0.750000 0.750000 0.219794
O O6 0.680570 0.798645 0.143047
O O7 0.788083 0.008989 0.181456
O O8 0.727029 0.063084 0.243501
O O9 0.095834 0.754961 0.000245
O O10 0.661236 0.382958 0.449052
O O11 0.637842 0.547487 0.597221
O O12 0.746839 0.417118 0.554583
O O13 0.669643 0.172932 0.298020
O O14 0.528726 0.521789 0.648356
#
# Coordination Sequence:
#
# PCOD9371236 Si02
#       7
#    16  16  16  16  16  16   8
#     4  11  24  48  81 117 159 209 272 352 411 499
#     4  10  21  41  73 112 152 203 245 332 408 474
#     4  11  22  48  77 108 165 205 263 348 417 488
#     4  11  29  51  79 112 162 219 277 335 426 505
#     4  11  29  47  77 113 153 221 273 339 410 510
#     4  12  22  45  80 110 161 201 271 340 407 499
#     4  10  24  40  72 116 152 202 248 326 420 480
#
# _framework density 25.860130000000002
#
# number of rings (size 3 to 8) (size 9 to 14) (size 15 to 20)
#    0.462    0.615    3.077    1.846    8.615    1.231 
#    2.769    1.538   11.846    0.000    0.000    0.000 
#    0.000    0.000    0.000    0.000    0.000    0.000 
#
# Total GULP energy -145132.068671 kJ/mol
# GULP energy per Si atom -5582.002641 kJ/mol
# Density = 2.580127 g / cm^3
# Si number density = 25.860130 Si / 1000 Ang^3
#
#
#
# Elastic Constant Matrix: (Units=GPa)
#
#
# Indices 1 2 3 4 5 6 
#
# 1 199.8359 58.5420 81.2628 0.0000 0.0000 0.0000
# 2 58.5420 94.7905 78.4215 0.0000 0.0000 0.0000
# 3 81.2628 78.4215 161.3155 0.0000 0.0000 0.0000
# 4 0.0000 0.0000 0.0000 48.3466 0.0000 0.0000
# 5 0.0000 0.0000 0.0000 0.0000 38.1755 0.0000
# 6 0.0000 0.0000 0.0000 0.0000 0.0000 43.5806
#
#
#
# Elastic Compliance Matrix: (Units=1/GPa)
#
#
# Indices 1 2 3 4 5 6 
#
# 1 0.006557 -0.002203 -0.002232 0.000000 0.000000 0.000000
# 2 -0.002203 0.018387 -0.007829 0.000000 0.000000 0.000000
# 3 -0.002232 -0.007829 0.011129 0.000000 0.000000 0.000000
# 4 0.000000 0.000000 0.000000 0.020684 0.000000 0.000000
# 5 0.000000 0.000000 0.000000 0.000000 0.026195 0.000000
# 6 0.000000 0.000000 0.000000 0.000000 0.000000 0.022946
#
#
# Mechanical properties :
#
#
# Convention : Reuss Voigt Hill
#
# Bulk Modulus (GPa) = 86.61360 99.15494 92.88427
# Shear Modulus (GPa) = 37.23698 41.86827 39.55262
#
# Velocity S-wave (km/s) = 3.79877 4.02808 3.91510
# Velocity P-wave (km/s) = 7.26682 7.74983 7.51221
#
# Compressibility (1/GPa) = 0.01154553
#
# Stress axis : x y z
#
# Youngs Moduli (GPa) = 152.50422 54.38620 89.85142
#
# Poissons Ratio (x) = 0.11981 0.20058
# Poissons Ratio (y) = 0.33595 0.70344
# Poissons Ratio (z) = 0.34043 0.42579
#
# Static dielectric constant tensor:
#      x y z
#    x 2.143060 0.000000 0.000000 
#    y 0.000000 2.210570 0.000000 
#    z 0.000000 0.000000 2.136830 
# 
# From -- ./inp_files/18988.got.cif
#   From: 2010.05.17/outbox.cif.g08.bks.cpg/sg43_10_cif.got.tgz:18988.got - 2010.06.03 19:21:55.
