data_PCOD9371746
_publ_section_title
;
Structure prediction by ZEFSAII (Michael W. Deem and Ramdas Pophale) SiO2 
 PCOD9371746
Probable space group: F D D 2
;
_chemical_formula_sum "Si O2"
_cell_formula_units_Z 120
_cell_length_a 7.670287
_cell_length_b 28.948381
_cell_length_c 26.022790
_cell_angle_alpha 90.000000
_cell_angle_beta 90.000000
_cell_angle_gamma 90.000000
_cell_volume 5778.162498
_symmetry_space_group_name_H-M "F D D 2"
_symmetry_group_IT_number 43
_symmetry_cell_setting 'orthorhombic'
loop_
_space_group_symop_operation_xyz
x,y,z
-x,-y,z
1/4-x,1/4+y,1/4+z
1/4+x,1/4-y,1/4+z
x,1/2+y,1/2+z
-x,1/2-y,1/2+z
1/4-x,3/4+y,3/4+z
1/4+x,3/4-y,3/4+z
1/2+x,y,1/2+z
1/2-x,-y,1/2+z
3/4-x,1/4+y,3/4+z
3/4+x,1/4-y,3/4+z
1/2+x,1/2+y,z
1/2-x,1/2-y,z
3/4-x,3/4+y,1/4+z
3/4+x,3/4-y,1/4+z
loop_
_atom_site_type_symbol
_atom_site_label
_atom_site_fract_x
_atom_site_fract_y
_atom_site_fract_z
Si Si1 0.398174 0.042432 0.491290
Si Si2 0.035754 0.055138 0.442210
Si Si3 0.438476 0.361927 0.009770
Si Si4 0.941257 0.771505 0.951475
Si Si5 0.456187 0.759307 0.335302
Si Si6 0.108025 0.897622 0.544088
Si Si7 0.270913 0.844218 0.082889
Si Si8 0.250000 0.250000 0.528622
O O1 0.236979 0.058152 0.457593
O O2 0.528004 0.085122 0.495019
O O3 0.500000 0.000000 0.466827
O O4 0.318041 0.021276 0.545199
O O5 0.934454 0.075942 0.490954
O O6 0.000110 0.087425 0.393446
O O7 0.000000 0.000000 0.435218
O O8 0.441482 0.326934 0.961504
O O9 0.246502 0.357313 0.033862
O O10 0.592707 0.355012 0.051667
O O11 0.750000 0.750000 0.960886
O O12 0.996161 0.753071 0.895213
O O13 0.084441 0.757406 0.992553
O O14 0.250000 0.750000 0.326611
O O15 0.461737 0.814234 0.326868
O O16 0.927241 0.879011 0.567901
O O17 0.306488 0.792876 0.062915
#
# Coordination Sequence:
#
# PCOD9371746 Si02
#       8
#    16  16  16  16  16  16  16   8
#     4  12  22  44  69 101 144 178 230 301 348 426
#     4  12  23  46  71  98 139 191 229 289 365 421
#     4  11  24  44  66 102 136 178 238 291 346 427
#     4  10  24  41  65  97 135 179 231 283 349 417
#     4  11  21  40  65  96 134 178 226 282 357 408
#     4  12  23  43  68  98 137 175 230 292 342 425
#     4  11  25  45  68  96 137 179 233 285 351 414
#     4  10  22  46  64  90 134 178 220 282 342 412
#
# _framework density 20.767848999999998
#
# number of rings (size 3 to 8) (size 9 to 14) (size 15 to 20)
#    0.000    0.800    6.000    0.800    2.800    1.067 
#    4.800    0.667    0.000    0.000    0.000    0.000 
#    0.000    0.000    0.000    0.000    0.000    0.000 
#
# Total GULP energy -167379.666797 kJ/mol
# GULP energy per Si atom -5579.322227 kJ/mol
# Density = 2.072058 g / cm^3
# Si number density = 20.767849 Si / 1000 Ang^3
#
#
#
# Elastic Constant Matrix: (Units=GPa)
#
#
# Indices 1 2 3 4 5 6 
#
# 1 93.2499 15.6736 21.5278 0.0000 0.0000 0.0000
# 2 15.6736 87.9176 21.2590 0.0000 0.0000 0.0000
# 3 21.5278 21.2590 83.9394 0.0000 0.0000 0.0000
# 4 0.0000 0.0000 0.0000 4.9771 0.0000 0.0000
# 5 0.0000 0.0000 0.0000 0.0000 16.5909 0.0000
# 6 0.0000 0.0000 0.0000 0.0000 0.0000 30.1288
#
#
#
# Elastic Compliance Matrix: (Units=1/GPa)
#
#
# Indices 1 2 3 4 5 6 
#
# 1 0.011566 -0.001432 -0.002603 0.000000 0.000000 0.000000
# 2 -0.001432 0.012294 -0.002746 0.000000 0.000000 0.000000
# 3 -0.002603 -0.002746 0.013277 0.000000 0.000000 0.000000
# 4 0.000000 0.000000 0.000000 0.200921 0.000000 0.000000
# 5 0.000000 0.000000 0.000000 0.000000 0.060274 0.000000
# 6 0.000000 0.000000 0.000000 0.000000 0.000000 0.033191
#
#
# Mechanical properties :
#
#
# Convention : Reuss Voigt Hill
#
# Bulk Modulus (GPa) = 42.42344 42.44753 42.43549
# Shear Modulus (GPa) = 14.16660 24.11579 19.14120
#
# Velocity S-wave (km/s) = 2.61462 3.41135 3.03920
# Velocity P-wave (km/s) = 5.43937 5.99998 5.72654
#
# Compressibility (1/GPa) = 0.02357187
#
# Stress axis : x y z
#
# Youngs Moduli (GPa) = 86.46281 81.34257 75.32054
#
# Poissons Ratio (x) = 0.11651 0.19609
# Poissons Ratio (y) = 0.12384 0.20685
# Poissons Ratio (z) = 0.22510 0.22339
#
# Static dielectric constant tensor:
#      x y z
#    x 0.867070 0.000000 0.000000 
#    y 0.000000 1.799020 0.000000 
#    z 0.000000 0.000000 1.732220 
# 
# From -- ./inp_files/20541.got.cif
#   From: 2010.05.17/outbox.cif.g08.bks.cpg/sg43_11_cif.got.tgz:20541.got - 2010.06.03 19:21:55.
