data_PCOD9371970
_publ_section_title
;
Structure prediction by ZEFSAII (Michael W. Deem and Ramdas Pophale) SiO2 
 PCOD9371970
Probable space group: F D D 2
;
_chemical_formula_sum "Si O2"
_cell_formula_units_Z 120
_cell_length_a 20.922474
_cell_length_b 28.057821
_cell_length_c 8.197387
_cell_angle_alpha 90.000000
_cell_angle_beta 90.000000
_cell_angle_gamma 90.000000
_cell_volume 4812.186116
_symmetry_space_group_name_H-M "F D D 2"
_symmetry_group_IT_number 43
_symmetry_cell_setting 'orthorhombic'
loop_
_space_group_symop_operation_xyz
x,y,z
-x,-y,z
1/4-x,1/4+y,1/4+z
1/4+x,1/4-y,1/4+z
x,1/2+y,1/2+z
-x,1/2-y,1/2+z
1/4-x,3/4+y,3/4+z
1/4+x,3/4-y,3/4+z
1/2+x,y,1/2+z
1/2-x,-y,1/2+z
3/4-x,1/4+y,3/4+z
3/4+x,1/4-y,3/4+z
1/2+x,1/2+y,z
1/2-x,1/2-y,z
3/4-x,3/4+y,1/4+z
3/4+x,3/4-y,1/4+z
loop_
_atom_site_type_symbol
_atom_site_label
_atom_site_fract_x
_atom_site_fract_y
_atom_site_fract_z
Si Si1 0.752141 0.654988 0.207270
Si Si2 0.414508 0.556761 0.216402
Si Si3 0.193604 0.377421 0.694925
Si Si4 0.712562 0.037823 0.159348
Si Si5 0.626671 0.364694 0.847824
Si Si6 0.750000 0.250000 0.521919
Si Si7 0.914587 0.239114 0.763941
Si Si8 0.915388 0.979017 0.493617
O O1 0.723694 0.664433 0.389685
O O2 0.694518 0.635247 0.097740
O O3 0.816747 0.624000 0.219521
O O4 0.768383 0.705684 0.131782
O O5 0.360411 0.591715 0.292126
O O6 0.426890 0.513509 0.340620
O O7 0.384438 0.531017 0.056173
O O8 0.256855 0.409725 0.686998
O O9 0.158518 0.375384 0.520678
O O10 0.200821 0.322499 0.745380
O O11 0.682203 0.019909 0.327469
O O12 0.658511 0.034826 0.020594
O O13 0.771065 0.004460 0.106867
O O14 0.614703 0.308623 0.835689
O O15 0.808974 0.257676 0.399633
#
# Coordination Sequence:
#
# PCOD9371970 Si02
#       8
#    16  16  16  16  16   8  16  16
#     4  11  26  49  74 111 148 201 253 322 388 477
#     4  10  23  46  77 103 147 191 255 307 388 453
#     4  10  25  42  70 113 139 195 249 314 376 466
#     4  11  25  44  75 102 152 186 261 309 385 468
#     4  11  25  44  77 103 151 193 258 313 395 463
#     4  12  30  46  68 108 154 194 252 314 394 468
#     4  11  23  45  71 109 141 202 243 325 382 472
#     4  12  26  46  72 107 147 202 246 320 382 467
#
# _framework density 24.936692000000001
#
# number of rings (size 3 to 8) (size 9 to 14) (size 15 to 20)
#    0.000    1.067    1.333    4.000    7.467    3.200 
#    2.400    0.000    0.000    0.000    0.000    0.000 
#    0.000    0.000    0.000    0.000    0.000    0.000 
#
# Total GULP energy -167909.701413 kJ/mol
# GULP energy per Si atom -5596.990047 kJ/mol
# Density = 2.487993 g / cm^3
# Si number density = 24.936692 Si / 1000 Ang^3
#
#
#
# Elastic Constant Matrix: (Units=GPa)
#
#
# Indices 1 2 3 4 5 6 
#
# 1 148.0670 45.2591 26.8837 0.0018 -0.0026 -0.0010
# 2 45.2591 107.2802 30.8913 0.0006 -0.0006 -0.0003
# 3 26.8837 30.8913 75.4079 0.0044 -0.0067 -0.0022
# 4 0.0018 0.0006 0.0044 23.6952 -0.0026 -0.0007
# 5 -0.0026 -0.0006 -0.0067 -0.0026 32.1257 0.0013
# 6 -0.0010 -0.0003 -0.0022 -0.0007 0.0013 43.8121
#
#
#
# Elastic Compliance Matrix: (Units=1/GPa)
#
#
# Indices 1 2 3 4 5 6 
#
# 1 0.007931 -0.002870 -0.001652 0.000000 0.000000 0.000000
# 2 -0.002870 0.011607 -0.003732 0.000001 -0.000001 0.000000
# 3 -0.001652 -0.003732 0.015379 -0.000003 0.000003 0.000001
# 4 0.000000 0.000001 -0.000003 0.042203 0.000003 0.000001
# 5 0.000000 -0.000001 0.000003 0.000003 0.031128 -0.000001
# 6 0.000000 0.000000 0.000001 0.000001 -0.000001 0.022825
#
#
# Mechanical properties :
#
#
# Convention : Reuss Voigt Hill
#
# Bulk Modulus (GPa) = 54.31969 59.64704 56.98336
# Shear Modulus (GPa) = 32.52777 35.10800 33.81789
#
# Velocity S-wave (km/s) = 3.61559 3.75625 3.68659
# Velocity P-wave (km/s) = 6.26580 6.54094 6.40485
#
# Compressibility (1/GPa) = 0.01840953
#
# Stress axis : x y z
#
# Youngs Moduli (GPa) = 126.08864 86.15649 65.02519
#
# Poissons Ratio (x) = 0.24729 0.10740
# Poissons Ratio (y) = 0.36191 0.24264
# Poissons Ratio (z) = 0.20825 0.32149
#
# Static dielectric constant tensor:
#      x y z
#    x 2.060700 0.000000 0.000000 
#    y 0.000000 1.951520 0.000000 
#    z 0.000000 0.000000 1.962900 
# 
# From -- ./inp_files/3918.got.cif
#   From: 2010.05.17/outbox.cif.g08.bks.cpg/sg43_2_cif.got.tgz:3918.got - 2010.06.03 19:21:55.
