data_PCOD9371121
_publ_section_title
;
Structure prediction by ZEFSAII (Michael W. Deem and Ramdas Pophale) SiO2 
 PCOD9371121
Probable space group: F D D 2
;
_chemical_formula_sum "Si O2"
_cell_formula_units_Z 80
_cell_length_a 16.472799
_cell_length_b 10.063481
_cell_length_c 19.412031
_cell_angle_alpha 90.000000
_cell_angle_beta 90.000000
_cell_angle_gamma 90.000000
_cell_volume 3218.004199
_symmetry_space_group_name_H-M "F D D 2"
_symmetry_group_IT_number 43
_symmetry_cell_setting 'orthorhombic'
loop_
_space_group_symop_operation_xyz
x,y,z
-x,-y,z
1/4-x,1/4+y,1/4+z
1/4+x,1/4-y,1/4+z
x,1/2+y,1/2+z
-x,1/2-y,1/2+z
1/4-x,3/4+y,3/4+z
1/4+x,3/4-y,3/4+z
1/2+x,y,1/2+z
1/2-x,-y,1/2+z
3/4-x,1/4+y,3/4+z
3/4+x,1/4-y,3/4+z
1/2+x,1/2+y,z
1/2-x,1/2-y,z
3/4-x,3/4+y,1/4+z
3/4+x,3/4-y,1/4+z
loop_
_atom_site_type_symbol
_atom_site_label
_atom_site_fract_x
_atom_site_fract_y
_atom_site_fract_z
Si Si1 0.560248 0.598567 0.888210
Si Si2 0.307704 0.434914 0.980200
Si Si3 0.835210 0.170405 0.084973
Si Si4 0.292989 0.548657 0.225608
Si Si5 0.635872 0.370418 0.501102
O O1 0.500000 0.500000 0.849585
O O2 0.635381 0.517915 0.918415
O O3 0.499645 0.669371 0.940536
O O4 0.598659 0.682959 0.826985
O O5 0.323152 0.533654 0.042745
O O6 0.346280 0.288358 0.992120
O O7 0.213481 0.427225 0.960426
O O8 0.750000 0.250000 0.081696
O O9 0.843935 0.122997 0.165034
O O10 0.903868 0.252930 0.041783
O O11 0.209412 0.629633 0.239033
#
# Coordination Sequence:
#
# PCOD9371121 Si02
#       5
#    16  16  16  16  16
#     4  11  18  38  70 102 142 187 258 317 382 475
#     4  10  21  39  68 107 140 196 259 319 386 465
#     4  12  27  48  71 108 159 203 264 331 403 482
#     4  11  26  46  71 110 148 200 257 326 406 470
#     4  10  21  40  73 101 145 194 258 322 390 483
#
# _framework density 24.860130000000002
#
# number of rings (size 3 to 8) (size 9 to 14) (size 15 to 20)
#    0.000    1.200    6.000    0.000    0.000    4.800 
#    3.600    0.000    0.000    0.000    0.000    0.000 
#    0.000    0.000    0.000    0.000    0.000    0.000 
#
# Total GULP energy -111376.373848 kJ/mol
# GULP energy per Si atom -5568.818692 kJ/mol
# Density = 2.480355 g / cm^3
# Si number density = 24.860130 Si / 1000 Ang^3
#
#
#
# Elastic Constant Matrix: (Units=GPa)
#
#
# Indices 1 2 3 4 5 6 
#
# 1 206.4318 66.2975 83.1723 0.0000 0.0000 0.0000
# 2 66.2975 71.8624 -0.4670 0.0000 0.0000 0.0000
# 3 83.1723 -0.4670 87.3000 0.0000 0.0000 0.0000
# 4 0.0000 0.0000 0.0000 11.7967 0.0000 0.0000
# 5 0.0000 0.0000 0.0000 0.0000 33.3846 0.0000
# 6 0.0000 0.0000 0.0000 0.0000 0.0000 40.9684
#
#
#
# Elastic Compliance Matrix: (Units=1/GPa)
#
#
# Indices 1 2 3 4 5 6 
#
# 1 0.015337 -0.014245 -0.014688 0.000000 0.000000 0.000000
# 2 -0.014245 0.027146 0.013716 0.000000 0.000000 0.000000
# 3 -0.014688 0.013716 0.025522 0.000000 0.000000 0.000000
# 4 0.000000 0.000000 0.000000 0.084769 0.000000 0.000000
# 5 0.000000 0.000000 0.000000 0.000000 0.029954 0.000000
# 6 0.000000 0.000000 0.000000 0.000000 0.000000 0.024409
#
#
# Mechanical properties :
#
#
# Convention : Reuss Voigt Hill
#
# Bulk Modulus (GPa) = 26.61544 73.73329 50.17437
# Shear Modulus (GPa) = 19.99257 31.66938 25.83098
#
# Velocity S-wave (km/s) = 2.83892 3.57305 3.22693
# Velocity P-wave (km/s) = 4.63414 6.83710 5.84043
#
# Compressibility (1/GPa) = 0.03757217
#
# Stress axis : x y z
#
# Youngs Moduli (GPa) = 65.20270 36.83766 39.18265
#
# Poissons Ratio (x) = 0.52474 0.57551
# Poissons Ratio (y) = 0.92879 -0.53744
# Poissons Ratio (z) = 0.95769 -0.50528
#
# Static dielectric constant tensor:
#      x y z
#    x 1.926480 0.000000 0.000000 
#    y 0.000000 2.116150 0.000000 
#    z 0.000000 0.000000 2.116890 
# 
# From -- ./inp_files/21595.got.cif
#   From: 2010.05.17/outbox.cif.g08.bks.cpg/sg43_11_cif.got.tgz:21595.got - 2010.06.03 19:21:55.
