data_PCOD9371700
_publ_section_title
;
Structure prediction by ZEFSAII (Michael W. Deem and Ramdas Pophale) SiO2 
 PCOD9371700
Probable space group: F D D 2
;
_chemical_formula_sum "Si O2"
_cell_formula_units_Z 72
_cell_length_a 16.698469
_cell_length_b 21.106463
_cell_length_c 9.741388
_cell_angle_alpha 90.000000
_cell_angle_beta 90.000000
_cell_angle_gamma 90.000000
_cell_volume 3433.309515
_symmetry_space_group_name_H-M "F D D 2"
_symmetry_group_IT_number 43
_symmetry_cell_setting 'orthorhombic'
loop_
_space_group_symop_operation_xyz
x,y,z
-x,-y,z
1/4-x,1/4+y,1/4+z
1/4+x,1/4-y,1/4+z
x,1/2+y,1/2+z
-x,1/2-y,1/2+z
1/4-x,3/4+y,3/4+z
1/4+x,3/4-y,3/4+z
1/2+x,y,1/2+z
1/2-x,-y,1/2+z
3/4-x,1/4+y,3/4+z
3/4+x,1/4-y,3/4+z
1/2+x,1/2+y,z
1/2-x,1/2-y,z
3/4-x,3/4+y,1/4+z
3/4+x,3/4-y,1/4+z
loop_
_atom_site_type_symbol
_atom_site_label
_atom_site_fract_x
_atom_site_fract_y
_atom_site_fract_z
Si Si1 0.500000 0.000000 0.502741
Si Si2 0.126541 0.097417 0.930245
Si Si3 0.480142 0.689929 0.939836
Si Si4 0.264779 0.088954 0.707943
Si Si5 0.690330 0.136388 0.944833
O O1 0.431711 0.963963 0.416863
O O2 0.539505 0.946903 0.600438
O O3 0.195049 0.100781 0.816816
O O4 0.066637 0.156740 0.927010
O O5 0.170522 0.089548 0.076802
O O6 0.485582 0.764670 0.921806
O O7 0.448032 0.672496 0.090967
O O8 0.251076 0.127722 0.568693
O O9 0.352682 0.107030 0.759007
#
# Coordination Sequence:
#
# PCOD9371700 Si02
#       5
#     8  16  16  16  16
#     4  10  22  44  72  92 134 188 222 264 348 428
#     4  11  24  42  67  99 132 174 223 274 341 397
#     4  11  24  44  68  95 134 180 221 273 341 410
#     4  12  25  43  67 102 135 171 226 289 326 397
#     4  11  24  44  69  99 132 178 229 274 342 400
#
# _framework density 20.971019999999999
#
# number of rings (size 3 to 8) (size 9 to 14) (size 15 to 20)
#    0.000    0.889    2.222    5.333    6.222    0.000 
#    0.000    0.000    0.000    0.000    0.000    0.000 
#    0.000    0.000    0.000    0.000    0.000    0.000 
#
# Total GULP energy -100706.036083 kJ/mol
# GULP energy per Si atom -5594.779782 kJ/mol
# Density = 2.092329 g / cm^3
# Si number density = 20.971020 Si / 1000 Ang^3
#
#
#
# Elastic Constant Matrix: (Units=GPa)
#
#
# Indices 1 2 3 4 5 6 
#
# 1 106.4103 6.3802 -1.4379 0.0000 0.0000 0.0000
# 2 6.3802 45.6309 -22.7292 0.0000 0.0000 0.0000
# 3 -1.4379 -22.7292 38.2128 0.0000 0.0000 0.0000
# 4 0.0000 0.0000 0.0000 12.3838 0.0000 0.0000
# 5 0.0000 0.0000 0.0000 0.0000 54.8840 0.0000
# 6 0.0000 0.0000 0.0000 0.0000 0.0000 20.7157
#
#
#
# Elastic Compliance Matrix: (Units=1/GPa)
#
#
# Indices 1 2 3 4 5 6 
#
# 1 0.009487 -0.001632 -0.000614 0.000000 0.000000 0.000000
# 2 -0.001632 0.031422 0.018629 0.000000 0.000000 0.000000
# 3 -0.000614 0.018629 0.037227 0.000000 0.000000 0.000000
# 4 0.000000 0.000000 0.000000 0.080751 0.000000 0.000000
# 5 0.000000 0.000000 0.000000 0.000000 0.018220 0.000000
# 6 0.000000 0.000000 0.000000 0.000000 0.000000 0.048273
#
#
# Mechanical properties :
#
#
# Convention : Reuss Voigt Hill
#
# Bulk Modulus (GPa) = 9.01703 17.18670 13.10187
# Shear Modulus (GPa) = 21.77875 31.46609 26.62242
#
# Velocity S-wave (km/s) = 3.22610 3.87777 3.56685
# Velocity P-wave (km/s) = 4.26451 5.31627 4.81917
#
# Compressibility (1/GPa) = 0.11090122
#
# Stress axis : x y z
#
# Youngs Moduli (GPa) = 105.40557 31.82444 26.86250
#
# Poissons Ratio (x) = 0.05195 0.01649
# Poissons Ratio (y) = 0.17206 -0.50042
# Poissons Ratio (z) = 0.06471 -0.59285
#
# Static dielectric constant tensor:
#      x y z
#    x 1.727370 0.000000 0.000000 
#    y 0.000000 1.736830 0.000000 
#    z 0.000000 0.000000 1.726680 
# 
# From -- ./inp_files/2330.got.cif
#   From: 2010.05.17/outbox.cif.g08.bks.cpg/sg43_2_cif.got.tgz:2330.got - 2010.06.03 19:21:55.
