data_PCOD9371981
_publ_section_title
;
Structure prediction by ZEFSAII (Michael W. Deem and Ramdas Pophale) SiO2 
 PCOD9371981
Probable space group: F D D 2
;
_chemical_formula_sum "Si O2"
_cell_formula_units_Z 96
_cell_length_a 16.955386
_cell_length_b 21.385145
_cell_length_c 10.013281
_cell_angle_alpha 90.000000
_cell_angle_beta 90.000000
_cell_angle_gamma 90.000000
_cell_volume 3630.749484
_symmetry_space_group_name_H-M "F D D 2"
_symmetry_group_IT_number 43
_symmetry_cell_setting 'orthorhombic'
loop_
_space_group_symop_operation_xyz
x,y,z
-x,-y,z
1/4-x,1/4+y,1/4+z
1/4+x,1/4-y,1/4+z
x,1/2+y,1/2+z
-x,1/2-y,1/2+z
1/4-x,3/4+y,3/4+z
1/4+x,3/4-y,3/4+z
1/2+x,y,1/2+z
1/2-x,-y,1/2+z
3/4-x,1/4+y,3/4+z
3/4+x,1/4-y,3/4+z
1/2+x,1/2+y,z
1/2-x,1/2-y,z
3/4-x,3/4+y,1/4+z
3/4+x,3/4-y,1/4+z
loop_
_atom_site_type_symbol
_atom_site_label
_atom_site_fract_x
_atom_site_fract_y
_atom_site_fract_z
Si Si1 0.992906 0.067327 0.871630
Si Si2 0.014707 0.211509 0.841810
Si Si3 0.813044 0.799259 0.723571
Si Si4 0.595926 0.818694 0.963853
Si Si5 0.320625 0.859095 0.959573
Si Si6 0.334146 0.561351 0.952816
O O1 0.998425 0.142400 0.894302
O O2 0.069312 0.059502 0.778572
O O3 0.899855 0.063632 0.837341
O O4 0.000000 0.000000 0.954757
O O5 0.947130 0.243552 0.751128
O O6 0.096284 0.211096 0.760180
O O7 0.034314 0.262092 0.956720
O O8 0.750000 0.750000 0.774940
O O9 0.800711 0.870761 0.773624
O O10 0.807319 0.802773 0.562947
O O11 0.610995 0.841446 0.810578
O O12 0.369326 0.839534 0.831600
O O13 0.238162 0.892445 0.927422
#
# Coordination Sequence:
#
# PCOD9371981 Si02
#       6
#    16  16  16  16  16  16
#     4  11  26  48  72 107 150 196 244 309 388 442
#     4  10  23  47  71 103 147 186 245 308 366 446
#     4   9  20  39  76 102 134 180 243 304 360 434
#     4   8  21  45  71 108 137 190 246 305 361 441
#     4   9  23  46  73 103 141 191 246 291 363 440
#     4  11  25  47  72 107 152 191 244 305 373 449
#
# _framework density 26.440823000000002
#
# number of rings (size 3 to 8) (size 9 to 14) (size 15 to 20)
#    1.000    1.333    0.000    0.000    4.667    6.667 
#    6.000    8.333    0.000    0.000    0.000    0.000 
#    0.000    0.000    0.000    0.000    0.000    0.000 
#
# Total GULP energy -133846.073261 kJ/mol
# GULP energy per Si atom -5576.919719 kJ/mol
# Density = 2.638064 g / cm^3
# Si number density = 26.440823 Si / 1000 Ang^3
#
#
#
# Elastic Constant Matrix: (Units=GPa)
#
#
# Indices 1 2 3 4 5 6 
#
# 1 186.1096 94.3863 42.6180 0.0000 0.0000 0.0000
# 2 94.3863 228.7943 52.6485 0.0000 0.0000 0.0000
# 3 42.6180 52.6485 65.9561 0.0000 0.0000 0.0000
# 4 0.0000 0.0000 0.0000 15.0009 0.0000 0.0000
# 5 0.0000 0.0000 0.0000 0.0000 45.5519 0.0000
# 6 0.0000 0.0000 0.0000 0.0000 0.0000 43.9807
#
#
#
# Elastic Compliance Matrix: (Units=1/GPa)
#
#
# Indices 1 2 3 4 5 6 
#
# 1 0.007191 -0.002324 -0.002791 0.000000 0.000000 0.000000
# 2 -0.002324 0.006105 -0.003372 0.000000 0.000000 0.000000
# 3 -0.002791 -0.003372 0.019657 0.000000 0.000000 0.000000
# 4 0.000000 0.000000 0.000000 0.066663 0.000000 0.000000
# 5 0.000000 0.000000 0.000000 0.000000 0.021953 0.000000
# 6 0.000000 0.000000 0.000000 0.000000 0.000000 0.022737
#
#
# Mechanical properties :
#
#
# Convention : Reuss Voigt Hill
#
# Bulk Modulus (GPa) = 62.58360 95.57396 79.07878
# Shear Modulus (GPa) = 30.01074 40.32051 35.16563
#
# Velocity S-wave (km/s) = 3.37265 3.90928 3.65084
# Velocity P-wave (km/s) = 6.23595 7.52339 6.90972
#
# Compressibility (1/GPa) = 0.01597863
#
# Stress axis : x y z
#
# Youngs Moduli (GPa) = 139.05989 163.78715 50.87347
#
# Poissons Ratio (x) = 0.38069 0.14200
# Poissons Ratio (y) = 0.32322 0.17153
# Poissons Ratio (z) = 0.38815 0.55225
#
# Static dielectric constant tensor:
#      x y z
#    x 2.026560 0.000000 0.000000 
#    y 0.000000 2.187220 0.000000 
#    z 0.000000 0.000000 2.189460 
# 
# From -- ./inp_files/10076.got.cif
#   From: 2010.05.17/outbox.cif.g08.bks.cpg/sg43_6_cif.got.tgz:10076.got - 2010.06.03 19:21:55.
