data_PCOD9371502
_publ_section_title
;
Structure prediction by ZEFSAII (Michael W. Deem and Ramdas Pophale) SiO2 
 PCOD9371502
Probable space group: F D D 2
;
_chemical_formula_sum "Si O2"
_cell_formula_units_Z 120
_cell_length_a 15.399966
_cell_length_b 11.820273
_cell_length_c 32.016845
_cell_angle_alpha 90.000000
_cell_angle_beta 90.000000
_cell_angle_gamma 90.000000
_cell_volume 5828.084000
_symmetry_space_group_name_H-M "F D D 2"
_symmetry_group_IT_number 43
_symmetry_cell_setting 'orthorhombic'
loop_
_space_group_symop_operation_xyz
x,y,z
-x,-y,z
1/4-x,1/4+y,1/4+z
1/4+x,1/4-y,1/4+z
x,1/2+y,1/2+z
-x,1/2-y,1/2+z
1/4-x,3/4+y,3/4+z
1/4+x,3/4-y,3/4+z
1/2+x,y,1/2+z
1/2-x,-y,1/2+z
3/4-x,1/4+y,3/4+z
3/4+x,1/4-y,3/4+z
1/2+x,1/2+y,z
1/2-x,1/2-y,z
3/4-x,3/4+y,1/4+z
3/4+x,3/4-y,1/4+z
loop_
_atom_site_type_symbol
_atom_site_label
_atom_site_fract_x
_atom_site_fract_y
_atom_site_fract_z
Si Si1 0.000000 0.000000 0.639621
Si Si2 0.402051 0.489859 0.825850
Si Si3 0.086766 0.424743 0.492406
Si Si4 0.564421 0.393819 0.152841
Si Si5 0.383792 0.245477 0.817914
Si Si6 0.913065 0.245082 0.827987
Si Si7 0.826321 0.970749 0.911521
Si Si8 0.653654 0.688253 0.494974
O O1 0.074300 0.040430 0.606942
O O2 0.957455 0.095186 0.668186
O O3 0.500000 0.500000 0.809181
O O4 0.357688 0.377096 0.806730
O O5 0.370068 0.619693 0.824214
O O6 0.398802 0.466392 0.875653
O O7 0.138565 0.449035 0.534542
O O8 0.140751 0.465033 0.452039
O O9 0.082840 0.289030 0.491960
O O10 0.000000 0.500000 0.492533
O O11 0.500000 0.500000 0.156202
O O12 0.629136 0.431720 0.116713
O O13 0.505492 0.287045 0.142227
O O14 0.598977 0.378468 0.199722
O O15 0.483589 0.261150 0.831686
O O16 0.384802 0.152728 0.781199
O O17 0.750000 0.750000 0.500273
#
# Coordination Sequence:
#
# PCOD9371502 Si02
#       8
#     8  16  16  16  16  16  16  16
#     4  10  26  40  66  88 128 194 216 272 344 420
#     4   9  19  35  60  88 124 167 213 262 326 396
#     4  12  25  38  67 100 129 169 220 283 339 401
#     4  11  20  37  68  93 126 168 218 279 337 399
#     4  10  22  41  65  89 131 175 221 267 340 408
#     4  11  21  38  65 100 128 166 225 279 331 398
#     4  11  21  42  59  92 132 170 222 273 340 392
#     4  11  21  42  64  92 131 174 214 286 347 389
#
# _framework density 20.589957999999999
#
# number of rings (size 3 to 8) (size 9 to 14) (size 15 to 20)
#    0.000    1.333    5.333    0.800    1.867    3.200 
#    6.000    0.000    5.867    0.000    0.000    0.000 
#    0.000    0.000    0.000    0.000    0.000    0.000 
#
# Total GULP energy -167197.188185 kJ/mol
# GULP energy per Si atom -5573.239606 kJ/mol
# Density = 2.054309 g / cm^3
# Si number density = 20.589958 Si / 1000 Ang^3
#
#
#
# Elastic Constant Matrix: (Units=GPa)
#
#
# Indices 1 2 3 4 5 6 
#
# 1 61.5732 24.0260 14.5899 0.0000 0.0000 0.0000
# 2 24.0260 101.2605 43.1992 0.0000 0.0000 0.0000
# 3 14.5899 43.1992 86.3027 0.0000 0.0000 0.0000
# 4 0.0000 0.0000 0.0000 24.5460 0.0000 0.0000
# 5 0.0000 0.0000 0.0000 0.0000 21.4295 0.0000
# 6 0.0000 0.0000 0.0000 0.0000 0.0000 30.3871
#
#
#
# Elastic Compliance Matrix: (Units=1/GPa)
#
#
# Indices 1 2 3 4 5 6 
#
# 1 0.017987 -0.003777 -0.001150 0.000000 0.000000 0.000000
# 2 -0.003777 0.013350 -0.006044 0.000000 0.000000 0.000000
# 3 -0.001150 -0.006044 0.014807 0.000000 0.000000 0.000000
# 4 0.000000 0.000000 0.000000 0.040740 0.000000 0.000000
# 5 0.000000 0.000000 0.000000 0.000000 0.046665 0.000000
# 6 0.000000 0.000000 0.000000 0.000000 0.000000 0.032909
#
#
# Mechanical properties :
#
#
# Convention : Reuss Voigt Hill
#
# Bulk Modulus (GPa) = 41.31930 45.86298 43.59114
# Shear Modulus (GPa) = 25.44957 26.42729 25.93843
#
# Velocity S-wave (km/s) = 3.51952 3.58649 3.55316
# Velocity P-wave (km/s) = 6.05205 6.28278 6.16849
#
# Compressibility (1/GPa) = 0.02420176
#
# Stress axis : x y z
#
# Youngs Moduli (GPa) = 55.59506 74.90555 67.53620
#
# Poissons Ratio (x) = 0.28293 0.07768
# Poissons Ratio (y) = 0.20999 0.40818
# Poissons Ratio (z) = 0.06394 0.45272
#
# Static dielectric constant tensor:
#      x y z
#    x 1.791280 0.000000 0.000000 
#    y 0.000000 1.859930 0.000000 
#    z 0.000000 0.000000 1.701580 
# 
# From -- ./inp_files/29514.got.cif
#   From: 2010.05.17/outbox.cif.g08.bks.cpg/sg43_15_cif.got.tgz:29514.got - 2010.06.03 19:21:55.
