data_PCOD9371964
_publ_section_title
;
Structure prediction by ZEFSAII (Michael W. Deem and Ramdas Pophale) SiO2 
 PCOD9371964
Probable space group: F D D 2
;
_chemical_formula_sum "Si O2"
_cell_formula_units_Z 96
_cell_length_a 9.936825
_cell_length_b 27.719428
_cell_length_c 15.224158
_cell_angle_alpha 90.000000
_cell_angle_beta 90.000000
_cell_angle_gamma 90.000000
_cell_volume 4193.389353
_symmetry_space_group_name_H-M "F D D 2"
_symmetry_group_IT_number 43
_symmetry_cell_setting 'orthorhombic'
loop_
_space_group_symop_operation_xyz
x,y,z
-x,-y,z
1/4-x,1/4+y,1/4+z
1/4+x,1/4-y,1/4+z
x,1/2+y,1/2+z
-x,1/2-y,1/2+z
1/4-x,3/4+y,3/4+z
1/4+x,3/4-y,3/4+z
1/2+x,y,1/2+z
1/2-x,-y,1/2+z
3/4-x,1/4+y,3/4+z
3/4+x,1/4-y,3/4+z
1/2+x,1/2+y,z
1/2-x,1/2-y,z
3/4-x,3/4+y,1/4+z
3/4+x,3/4-y,1/4+z
loop_
_atom_site_type_symbol
_atom_site_label
_atom_site_fract_x
_atom_site_fract_y
_atom_site_fract_z
Si Si1 0.000000 0.000000 0.580230
Si Si2 0.296219 0.484934 0.303264
Si Si3 0.500000 0.000000 0.367644
Si Si4 0.373069 0.340700 0.597665
Si Si5 0.131339 0.830727 0.211188
Si Si6 0.755195 0.064011 0.642136
Si Si7 0.864338 0.658661 0.208623
O O1 0.896921 0.036659 0.626196
O O2 0.095926 0.034585 0.523024
O O3 0.374936 0.533686 0.327993
O O4 0.317723 0.442164 0.373846
O O5 0.330735 0.470907 0.204160
O O6 0.136147 0.495810 0.311523
O O7 0.476171 0.953498 0.428511
O O8 0.326209 0.375079 0.518463
O O9 0.275656 0.349676 0.679038
O O10 0.522539 0.350306 0.633464
O O11 0.779607 0.110244 0.703700
O O12 0.686763 0.079264 0.550632
#
# Coordination Sequence:
#
# PCOD9371964 Si02
#       7
#     8  16   8  16  16  16  16
#     4  12  21  42  71  94 132 182 230 287 336 423
#     4  11  25  45  65 106 139 179 231 291 349 422
#     4  10  23  46  71  92 144 180 230 293 348 407
#     4  11  23  44  72  99 137 179 237 290 346 413
#     4  12  24  45  69 100 137 180 230 292 346 416
#     4  12  25  40  71 101 140 183 237 280 361 416
#     4  11  22  45  67 104 135 187 235 295 341 431
#
# _framework density 22.893174999999999
#
# number of rings (size 3 to 8) (size 9 to 14) (size 15 to 20)
#    0.000    0.667    5.000    2.500    2.333    5.333 
#    6.000    0.000    0.000    0.000    0.000    0.000 
#    0.000    0.000    0.000    0.000    0.000    0.000 
#
# Total GULP energy -134130.519374 kJ/mol
# GULP energy per Si atom -5588.771641 kJ/mol
# Density = 2.284107 g / cm^3
# Si number density = 22.893175 Si / 1000 Ang^3
#
#
#
# Elastic Constant Matrix: (Units=GPa)
#
#
# Indices 1 2 3 4 5 6 
#
# 1 33.2246 17.9481 6.5205 0.0000 0.0000 0.0000
# 2 17.9481 118.0399 60.3293 0.0000 0.0000 0.0000
# 3 6.5205 60.3293 127.4625 0.0000 0.0000 0.0000
# 4 0.0000 0.0000 0.0000 -17.3930 0.0000 0.0000
# 5 0.0000 0.0000 0.0000 0.0000 16.3700 0.0000
# 6 0.0000 0.0000 0.0000 0.0000 0.0000 32.4475
#
#
#
# Elastic Compliance Matrix: (Units=1/GPa)
#
#
# Indices 1 2 3 4 5 6 
#
# 1 0.032870 -0.005459 0.000902 0.000000 0.000000 0.000000
# 2 -0.005459 0.012082 -0.005439 0.000000 0.000000 0.000000
# 3 0.000902 -0.005439 0.010374 0.000000 0.000000 0.000000
# 4 0.000000 0.000000 0.000000 -0.057494 0.000000 0.000000
# 5 0.000000 0.000000 0.000000 0.000000 0.061087 0.000000
# 6 0.000000 0.000000 0.000000 0.000000 0.000000 0.030819
#
#
# Mechanical properties :
#
#
# Convention : Reuss Voigt Hill
#
# Bulk Modulus (GPa) = 28.30160 49.81365 39.05763
# Shear Modulus (GPa) = 41.14983 19.21350 30.18166
#
# Velocity S-wave (km/s) = 4.24426 2.90015 3.63488
# Velocity P-wave (km/s) = 6.03387 5.74638 5.89188
#
# Compressibility (1/GPa) = 0.03533370
#
# Stress axis : x y z
#
# Youngs Moduli (GPa) = 30.42274 82.76999 96.39786
#
# Poissons Ratio (x) = 0.45185 -0.08698
# Poissons Ratio (y) = 0.16608 0.52432
# Poissons Ratio (z) = -0.02745 0.45020
#
# Static dielectric constant tensor:
#      x y z
#    x 1.893820 0.000000 0.000000 
#    y 0.000000 1.858740 0.000000 
#    z 0.000000 0.000000 1.816970 
# 
# From -- ./inp_files/9738.got.cif
#   From: 2010.05.17/outbox.cif.g08.bks.cpg/sg43_5_cif.got.tgz:9738.got - 2010.06.03 19:21:55.
