data_PCOD9371025
_publ_section_title
;
Structure prediction by ZEFSAII (Michael W. Deem and Ramdas Pophale) SiO2 
 PCOD9371025
Probable space group: F D D 2
;
_chemical_formula_sum "Si O2"
_cell_formula_units_Z 112
_cell_length_a 21.300421
_cell_length_b 24.113106
_cell_length_c 10.041866
_cell_angle_alpha 90.000000
_cell_angle_beta 90.000000
_cell_angle_gamma 90.000000
_cell_volume 5157.696280
_symmetry_space_group_name_H-M "F D D 2"
_symmetry_group_IT_number 43
_symmetry_cell_setting 'orthorhombic'
loop_
_space_group_symop_operation_xyz
x,y,z
-x,-y,z
1/4-x,1/4+y,1/4+z
1/4+x,1/4-y,1/4+z
x,1/2+y,1/2+z
-x,1/2-y,1/2+z
1/4-x,3/4+y,3/4+z
1/4+x,3/4-y,3/4+z
1/2+x,y,1/2+z
1/2-x,-y,1/2+z
3/4-x,1/4+y,3/4+z
3/4+x,1/4-y,3/4+z
1/2+x,1/2+y,z
1/2-x,1/2-y,z
3/4-x,3/4+y,1/4+z
3/4+x,3/4-y,1/4+z
loop_
_atom_site_type_symbol
_atom_site_label
_atom_site_fract_x
_atom_site_fract_y
_atom_site_fract_z
Si Si1 0.550106 0.666165 0.492080
Si Si2 0.654511 0.953799 0.036079
Si Si3 0.189620 0.284052 0.711765
Si Si4 0.222864 0.589073 0.635668
Si Si5 0.919242 0.154340 0.584663
Si Si6 0.542213 0.548043 0.915286
Si Si7 0.113960 0.011801 0.181014
O O1 0.571189 0.685161 0.640086
O O2 0.557058 0.600372 0.469471
O O3 0.474927 0.674249 0.489189
O O4 0.595300 0.705775 0.404907
O O5 0.622914 0.013086 0.034584
O O6 0.713500 0.946814 0.132471
O O7 0.600320 0.909283 0.065916
O O8 0.250000 0.250000 0.762781
O O9 0.178882 0.261691 0.561142
O O10 0.196199 0.591893 0.484983
O O11 0.247118 0.648791 0.682406
O O12 0.166832 0.558762 0.711079
O O13 0.852773 0.185679 0.578713
O O14 0.500000 0.500000 0.855138
O O15 0.571745 0.527639 0.054755
#
# Coordination Sequence:
#
# PCOD9371025 Si02
#       7
#    16  16  16  16  16  16  16
#     4  10  21  37  60  86 122 160 201 251 303 356
#     4   9  19  38  58  87 118 152 203 252 298 362
#     4  11  21  38  62  89 119 162 204 250 306 358
#     4   9  20  40  60  86 121 158 196 255 303 362
#     4   9  18  40  59  84 123 150 202 252 296 361
#     4  10  21  40  63  90 121 157 200 249 304 363
#     4  10  23  40  59  90 125 158 203 250 300 370
#
# _framework density 21.715121
#
# number of rings (size 3 to 8) (size 9 to 14) (size 15 to 20)
#    0.000    2.286    1.429    0.429    2.000    1.143 
#   15.429    1.429    0.000    0.000    0.000    0.000 
#    0.000    0.000    0.000    0.000    0.000    0.000 
#
# Total GULP energy -156214.528719 kJ/mol
# GULP energy per Si atom -5579.090311 kJ/mol
# Density = 2.166570 g / cm^3
# Si number density = 21.715121 Si / 1000 Ang^3
#
#
#
# Elastic Constant Matrix: (Units=GPa)
#
#
# Indices 1 2 3 4 5 6 
#
# 1 133.7478 77.4717 9.2622 0.0000 0.0000 0.0000
# 2 77.4717 134.2495 5.5712 0.0000 0.0000 0.0000
# 3 9.2622 5.5712 19.4638 0.0000 -0.0001 0.0000
# 4 0.0000 0.0000 0.0000 23.2342 0.0000 0.0000
# 5 0.0000 0.0000 -0.0001 0.0000 8.9864 0.0000
# 6 0.0000 0.0000 0.0000 0.0000 0.0000 46.1632
#
#
#
# Elastic Compliance Matrix: (Units=1/GPa)
#
#
# Indices 1 2 3 4 5 6 
#
# 1 0.011476 -0.006473 -0.003608 0.000000 0.000000 0.000000
# 2 -0.006473 0.011189 -0.000123 0.000000 0.000000 0.000000
# 3 -0.003608 -0.000123 0.053129 0.000000 0.000000 0.000000
# 4 0.000000 0.000000 0.000000 0.043040 0.000000 0.000000
# 5 0.000000 0.000000 0.000000 0.000000 0.111280 0.000000
# 6 0.000000 0.000000 0.000000 0.000000 0.000000 0.021662
#
#
# Mechanical properties :
#
#
# Convention : Reuss Voigt Hill
#
# Bulk Modulus (GPa) = 18.05465 52.45239 35.25352
# Shear Modulus (GPa) = 17.20305 28.68714 22.94510
#
# Velocity S-wave (km/s) = 2.81769 3.63859 3.25413
# Velocity P-wave (km/s) = 4.34950 6.46991 5.51262
#
# Compressibility (1/GPa) = 0.05538738
#
# Stress axis : x y z
#
# Youngs Moduli (GPa) = 87.13962 89.37271 18.82195
#
# Poissons Ratio (x) = 0.57848 0.06791
# Poissons Ratio (y) = 0.56402 0.00231
# Poissons Ratio (z) = 0.31442 0.01096
#
# Static dielectric constant tensor:
#      x y z
#    x 1.797300 0.000000 0.000000 
#    y 0.000000 1.796930 0.000000 
#    z 0.000000 0.000000 1.803480 
# 
# From -- ./inp_files/7155.got.cif
#   From: 2010.05.17/outbox.cif.g08.bks.cpg/sg43_4_cif.got.tgz:7155.got - 2010.06.03 19:21:55.
