data_PCOD9371806
_publ_section_title
;
Structure prediction by ZEFSAII (Michael W. Deem and Ramdas Pophale) SiO2 
 PCOD9371806
Probable space group: F D D 2
;
_chemical_formula_sum "Si O2"
_cell_formula_units_Z 104
_cell_length_a 12.169340
_cell_length_b 21.954496
_cell_length_c 17.335233
_cell_angle_alpha 90.000000
_cell_angle_beta 90.000000
_cell_angle_gamma 90.000000
_cell_volume 4631.484127
_symmetry_space_group_name_H-M "F D D 2"
_symmetry_group_IT_number 43
_symmetry_cell_setting 'orthorhombic'
loop_
_space_group_symop_operation_xyz
x,y,z
-x,-y,z
1/4-x,1/4+y,1/4+z
1/4+x,1/4-y,1/4+z
x,1/2+y,1/2+z
-x,1/2-y,1/2+z
1/4-x,3/4+y,3/4+z
1/4+x,3/4-y,3/4+z
1/2+x,y,1/2+z
1/2-x,-y,1/2+z
3/4-x,1/4+y,3/4+z
3/4+x,1/4-y,3/4+z
1/2+x,1/2+y,z
1/2-x,1/2-y,z
3/4-x,3/4+y,1/4+z
3/4+x,3/4-y,1/4+z
loop_
_atom_site_type_symbol
_atom_site_label
_atom_site_fract_x
_atom_site_fract_y
_atom_site_fract_z
Si Si1 0.824826 0.937762 0.326470
Si Si2 0.444488 0.435246 0.680253
Si Si3 0.616893 0.404717 0.557728
Si Si4 0.250000 0.250000 0.691885
Si Si5 0.241350 0.490035 0.588967
Si Si6 0.388615 0.036732 0.730974
Si Si7 0.720072 0.895832 0.468821
O O1 0.918199 0.959529 0.388684
O O2 0.731075 0.905388 0.377225
O O3 0.873573 0.891851 0.261650
O O4 0.799423 0.001533 0.282770
O O5 0.500000 0.500000 0.698002
O O6 0.530707 0.397182 0.627554
O O7 0.403762 0.401239 0.756059
O O8 0.340344 0.451497 0.627151
O O9 0.563931 0.453645 0.497709
O O10 0.722950 0.440373 0.590060
O O11 0.140181 0.474810 0.643006
O O12 0.221885 0.462378 0.505547
O O13 0.420761 0.106430 0.742579
O O14 0.500000 0.000000 0.746438
#
# Coordination Sequence:
#
# PCOD9371806 Si02
#       7
#    16  16  16   8  16  16  16
#     4  11  21  34  55  91 127 166 212 272 342 401
#     4  10  23  41  63  99 131 174 220 276 340 405
#     4  11  22  39  64  96 132 168 222 278 337 413
#     4  12  18  32  56  94 126 150 204 272 338 382
#     4  11  21  36  64  95 128 173 219 283 347 397
#     4  10  23  38  56  91 133 171 216 282 340 413
#     4  11  19  34  59  89 129 164 221 276 344 399
#
# _framework density 22.455005
#
# number of rings (size 3 to 8) (size 9 to 14) (size 15 to 20)
#    0.000    1.231    7.692    0.923    2.154    0.000 
#    0.000    6.154    0.000    0.000    0.000    0.000 
#    0.000    0.000    0.000    0.000    0.000    0.000 
#
# Total GULP energy -145129.739679 kJ/mol
# GULP energy per Si atom -5581.913065 kJ/mol
# Density = 2.240390 g / cm^3
# Si number density = 22.455005 Si / 1000 Ang^3
#
#
#
# Elastic Constant Matrix: (Units=GPa)
#
#
# Indices 1 2 3 4 5 6 
#
# 1 29.6125 15.6152 29.2966 0.0000 0.0000 0.0000
# 2 15.6152 54.4209 38.8324 0.0000 0.0000 0.0000
# 3 29.2966 38.8324 103.6740 0.0000 0.0000 0.0000
# 4 0.0000 0.0000 0.0000 32.9832 0.0000 0.0000
# 5 0.0000 0.0000 0.0000 0.0000 37.4774 0.0000
# 6 0.0000 0.0000 0.0000 0.0000 0.0000 7.5689
#
#
#
# Elastic Compliance Matrix: (Units=1/GPa)
#
#
# Indices 1 2 3 4 5 6 
#
# 1 0.048092 -0.005598 -0.011493 0.000000 0.000000 0.000000
# 2 -0.005598 0.025730 -0.008055 0.000000 0.000000 0.000000
# 3 -0.011493 -0.008055 0.015911 0.000000 0.000000 0.000000
# 4 0.000000 0.000000 0.000000 0.030319 0.000000 0.000000
# 5 0.000000 0.000000 0.000000 0.000000 0.026683 0.000000
# 6 0.000000 0.000000 0.000000 0.000000 0.000000 0.132120
#
#
# Mechanical properties :
#
#
# Convention : Reuss Voigt Hill
#
# Bulk Modulus (GPa) = 25.35576 39.46621 32.41098
# Shear Modulus (GPa) = 14.60735 22.53676 18.57206
#
# Velocity S-wave (km/s) = 2.55329 3.17147 2.87902
# Velocity P-wave (km/s) = 4.47311 5.56999 5.05141
#
# Compressibility (1/GPa) = 0.03943878
#
# Stress axis : x y z
#
# Youngs Moduli (GPa) = 20.79340 38.86579 62.85107
#
# Poissons Ratio (x) = 0.21758 0.72236
# Poissons Ratio (y) = 0.11641 0.50629
# Poissons Ratio (z) = 0.23898 0.31308
#
# Static dielectric constant tensor:
#      x y z
#    x 1.885090 0.000000 0.000000 
#    y 0.000000 1.866340 0.000000 
#    z 0.000000 0.000000 1.855850 
# 
# From -- ./inp_files/13945.got.cif
#   From: 2010.05.17/outbox.cif.g08.bks.cpg/sg43_7_cif.got.tgz:13945.got - 2010.06.03 19:21:55.
