data_PCOD9371135
_publ_section_title
;
Structure prediction by ZEFSAII (Michael W. Deem and Ramdas Pophale) SiO2 
 PCOD9371135
Probable space group: F D D 2
;
_chemical_formula_sum "Si O2"
_cell_formula_units_Z 88
_cell_length_a 11.616959
_cell_length_b 20.269748
_cell_length_c 16.460972
_cell_angle_alpha 90.000000
_cell_angle_beta 90.000000
_cell_angle_gamma 90.000000
_cell_volume 3876.111685
_symmetry_space_group_name_H-M "F D D 2"
_symmetry_group_IT_number 43
_symmetry_cell_setting 'orthorhombic'
loop_
_space_group_symop_operation_xyz
x,y,z
-x,-y,z
1/4-x,1/4+y,1/4+z
1/4+x,1/4-y,1/4+z
x,1/2+y,1/2+z
-x,1/2-y,1/2+z
1/4-x,3/4+y,3/4+z
1/4+x,3/4-y,3/4+z
1/2+x,y,1/2+z
1/2-x,-y,1/2+z
3/4-x,1/4+y,3/4+z
3/4+x,1/4-y,3/4+z
1/2+x,1/2+y,z
1/2-x,1/2-y,z
3/4-x,3/4+y,1/4+z
3/4+x,3/4-y,1/4+z
loop_
_atom_site_type_symbol
_atom_site_label
_atom_site_fract_x
_atom_site_fract_y
_atom_site_fract_z
Si Si1 0.430679 0.064868 0.626080
Si Si2 0.323709 0.672592 0.037856
Si Si3 0.826270 0.309786 0.446326
Si Si4 0.750000 0.750000 0.684977
Si Si5 0.993968 0.783738 0.494737
Si Si6 0.106889 0.154129 0.780877
O O1 0.417350 0.116389 0.554059
O O2 0.496045 0.091465 0.708218
O O3 0.300523 0.045569 0.652949
O O4 0.500000 0.000000 0.601814
O O5 0.270468 0.686814 0.126601
O O6 0.385706 0.743128 0.026737
O O7 0.750000 0.250000 0.408278
O O8 0.901726 0.266777 0.507911
O O9 0.910506 0.335946 0.376512
O O10 0.745619 0.365599 0.485195
O O11 0.855987 0.777194 0.738788
O O12 0.033091 0.853837 0.528563
#
# Coordination Sequence:
#
# PCOD9371135 Si02
#       6
#    16  16  16   8  16  16
#     4  10  22  39  64  92 128 164 215 264 323 376
#     4  11  22  39  63  97 120 167 210 268 315 379
#     4  10  23  38  60  91 126 168 202 258 317 380
#     4  12  20  34  70  94 118 154 218 266 302 366
#     4  10  21  40  61  84 132 164 208 258 322 374
#     4  11  22  38  62  94 126 163 213 259 314 375
#
# _framework density 22.703164000000001
#
# number of rings (size 3 to 8) (size 9 to 14) (size 15 to 20)
#    0.000    1.455    5.455    1.091    0.000    4.364 
#    0.000    1.818    0.000    0.000    0.000    0.000 
#    0.000    0.000    0.000    0.000    0.000    0.000 
#
# Total GULP energy -122472.661861 kJ/mol
# GULP energy per Si atom -5566.939176 kJ/mol
# Density = 2.265149 g / cm^3
# Si number density = 22.703164 Si / 1000 Ang^3
#
#
#
# Elastic Constant Matrix: (Units=GPa)
#
#
# Indices 1 2 3 4 5 6 
#
# 1 44.2916 23.6492 12.5234 0.0000 0.0000 0.0000
# 2 23.6492 96.8894 27.7503 0.0000 0.0000 0.0000
# 3 12.5234 27.7503 65.3710 0.0000 0.0000 0.0000
# 4 0.0000 0.0000 0.0000 28.4575 0.0000 0.0000
# 5 0.0000 0.0000 0.0000 0.0000 2.3509 0.0000
# 6 0.0000 0.0000 0.0000 0.0000 0.0000 45.9840
#
#
#
# Elastic Compliance Matrix: (Units=1/GPa)
#
#
# Indices 1 2 3 4 5 6 
#
# 1 0.026355 -0.005677 -0.002639 0.000000 0.000000 0.000000
# 2 -0.005677 0.012972 -0.004419 0.000000 0.000000 0.000000
# 3 -0.002639 -0.004419 0.017679 0.000000 0.000000 0.000000
# 4 0.000000 0.000000 0.000000 0.035140 0.000000 0.000000
# 5 0.000000 0.000000 0.000000 0.000000 0.425377 0.000000
# 6 0.000000 0.000000 0.000000 0.000000 0.000000 0.021747
#
#
# Mechanical properties :
#
#
# Convention : Reuss Voigt Hill
#
# Bulk Modulus (GPa) = 31.71010 37.15532 34.43271
# Shear Modulus (GPa) = 8.69184 24.86708 16.77946
#
# Velocity S-wave (km/s) = 1.95877 3.31314 2.72155
# Velocity P-wave (km/s) = 4.37187 5.57110 5.00751
#
# Compressibility (1/GPa) = 0.03153570
#
# Stress axis : x y z
#
# Youngs Moduli (GPa) = 37.94346 77.08642 56.56464
#
# Poissons Ratio (x) = 0.43762 0.14927
# Poissons Ratio (y) = 0.21541 0.24998
# Poissons Ratio (z) = 0.10013 0.34067
#
# Static dielectric constant tensor:
#      x y z
#    x 1.978310 0.000000 0.000000 
#    y 0.000000 1.856490 0.000000 
#    z 0.000000 0.000000 1.915350 
# 
# From -- ./inp_files/13256.got.cif
#   From: 2010.05.17/outbox.cif.g08.bks.cpg/sg43_7_cif.got.tgz:13256.got - 2010.06.03 19:21:55.
