data_PCOD9371589
_publ_section_title
;
Structure prediction by ZEFSAII (Michael W. Deem and Ramdas Pophale) SiO2 
 PCOD9371589
Probable space group: F D D 2
;
_chemical_formula_sum "Si O2"
_cell_formula_units_Z 120
_cell_length_a 17.766059
_cell_length_b 11.530160
_cell_length_c 24.778617
_cell_angle_alpha 90.000000
_cell_angle_beta 90.000000
_cell_angle_gamma 90.000000
_cell_volume 5075.788259
_symmetry_space_group_name_H-M "F D D 2"
_symmetry_group_IT_number 43
_symmetry_cell_setting 'orthorhombic'
loop_
_space_group_symop_operation_xyz
x,y,z
-x,-y,z
1/4-x,1/4+y,1/4+z
1/4+x,1/4-y,1/4+z
x,1/2+y,1/2+z
-x,1/2-y,1/2+z
1/4-x,3/4+y,3/4+z
1/4+x,3/4-y,3/4+z
1/2+x,y,1/2+z
1/2-x,-y,1/2+z
3/4-x,1/4+y,3/4+z
3/4+x,1/4-y,3/4+z
1/2+x,1/2+y,z
1/2-x,1/2-y,z
3/4-x,3/4+y,1/4+z
3/4+x,3/4-y,1/4+z
loop_
_atom_site_type_symbol
_atom_site_label
_atom_site_fract_x
_atom_site_fract_y
_atom_site_fract_z
Si Si1 0.206623 0.461935 0.917240
Si Si2 0.558708 0.268498 0.886290
Si Si3 0.188135 0.600968 0.200374
Si Si4 0.300626 0.070462 0.792905
Si Si5 0.500000 0.500000 0.833904
Si Si6 0.921168 0.548456 0.544322
Si Si7 0.428105 0.060116 0.718362
Si Si8 0.410081 0.602992 0.736161
O O1 0.120211 0.447609 0.934730
O O2 0.212982 0.416435 0.856318
O O3 0.215565 0.598516 0.926807
O O4 0.264574 0.396379 0.956526
O O5 0.501645 0.171532 0.906823
O O6 0.512622 0.386094 0.871593
O O7 0.602883 0.220503 0.835095
O O8 0.622903 0.272024 0.932888
O O9 0.230406 0.612460 0.257367
O O10 0.136831 0.486369 0.201277
O O11 0.377246 0.117195 0.765655
O O12 0.311990 0.932164 0.784318
O O13 0.432662 0.530381 0.790658
O O14 0.893574 0.463444 0.496686
O O15 0.000000 0.500000 0.565598
O O16 0.500000 0.000000 0.744654
#
# Coordination Sequence:
#
# PCOD9371589 Si02
#       8
#    16  16  16  16   8  16  16  16
#     4  12  26  48  72 101 149 196 231 302 362 433
#     4  10  24  40  71 106 140 181 235 297 358 421
#     4  11  25  47  67 104 145 183 243 295 355 437
#     4  11  26  45  71 103 138 196 237 293 368 429
#     4  10  22  42  70 106 142 184 234 298 366 416
#     4  11  21  44  74 101 140 185 233 304 358 417
#     4  11  25  48  71 106 141 183 248 296 355 437
#     4  11  23  45  70 104 146 183 243 298 357 431
#
# _framework density 23.641648
#
# number of rings (size 3 to 8) (size 9 to 14) (size 15 to 20)
#    0.000    1.067    4.000    1.200    0.000    9.600 
#    4.800    0.000    0.000    0.000    0.000    0.000 
#    0.000    0.000    0.000    0.000    0.000    0.000 
#
# Total GULP energy -167517.490148 kJ/mol
# GULP energy per Si atom -5583.916338 kJ/mol
# Density = 2.358784 g / cm^3
# Si number density = 23.641648 Si / 1000 Ang^3
#
#
#
# Elastic Constant Matrix: (Units=GPa)
#
#
# Indices 1 2 3 4 5 6 
#
# 1 125.4865 21.1954 20.7597 0.0000 0.0000 0.0000
# 2 21.1954 49.3607 15.3080 0.0000 0.0000 0.0000
# 3 20.7597 15.3080 79.9903 0.0000 0.0000 0.0000
# 4 0.0000 0.0000 0.0000 23.0512 0.0000 0.0000
# 5 0.0000 0.0000 0.0000 0.0000 -29.3412 0.0000
# 6 0.0000 0.0000 0.0000 0.0000 0.0000 21.6918
#
#
#
# Elastic Compliance Matrix: (Units=1/GPa)
#
#
# Indices 1 2 3 4 5 6 
#
# 1 0.008794 -0.003262 -0.001658 0.000000 0.000000 0.000000
# 2 -0.003262 0.022747 -0.003507 0.000000 0.000000 0.000000
# 3 -0.001658 -0.003507 0.013603 0.000000 0.000000 0.000000
# 4 0.000000 0.000000 0.000000 0.043382 0.000000 0.000000
# 5 0.000000 0.000000 0.000000 0.000000 -0.034082 0.000000
# 6 0.000000 0.000000 0.000000 0.000000 0.000000 0.046100
#
#
# Mechanical properties :
#
#
# Convention : Reuss Voigt Hill
#
# Bulk Modulus (GPa) = 35.34701 41.04040 38.19371
# Shear Modulus (GPa) = 39.42328 16.25197 27.83763
#
# Velocity S-wave (km/s) = 4.08798 2.62473 3.43517
# Velocity P-wave (km/s) = 6.10456 5.15584 5.65015
#
# Compressibility (1/GPa) = 0.02829093
#
# Stress axis : x y z
#
# Youngs Moduli (GPa) = 113.71046 43.96141 73.51366
#
# Poissons Ratio (x) = 0.14340 0.12189
# Poissons Ratio (y) = 0.37093 0.25778
# Poissons Ratio (z) = 0.18854 0.15416
#
# Static dielectric constant tensor:
#      x y z
#    x 2.186070 0.000000 0.000000 
#    y 0.000000 1.935120 0.000000 
#    z 0.000000 0.000000 1.937650 
# 
# From -- ./inp_files/26057.got.cif
#   From: 2010.05.17/outbox.cif.g08.bks.cpg/sg43_14_cif.got.tgz:26057.got - 2010.06.03 19:21:55.
