data_PCOD9371210
_publ_section_title
;
Structure prediction by ZEFSAII (Michael W. Deem and Ramdas Pophale) SiO2 
 PCOD9371210
Probable space group: F D D 2
;
_chemical_formula_sum "Si O2"
_cell_formula_units_Z 88
_cell_length_a 25.254558
_cell_length_b 11.697132
_cell_length_c 11.577770
_cell_angle_alpha 90.000000
_cell_angle_beta 90.000000
_cell_angle_gamma 90.000000
_cell_volume 3420.141550
_symmetry_space_group_name_H-M "F D D 2"
_symmetry_group_IT_number 43
_symmetry_cell_setting 'orthorhombic'
loop_
_space_group_symop_operation_xyz
x,y,z
-x,-y,z
1/4-x,1/4+y,1/4+z
1/4+x,1/4-y,1/4+z
x,1/2+y,1/2+z
-x,1/2-y,1/2+z
1/4-x,3/4+y,3/4+z
1/4+x,3/4-y,3/4+z
1/2+x,y,1/2+z
1/2-x,-y,1/2+z
3/4-x,1/4+y,3/4+z
3/4+x,1/4-y,3/4+z
1/2+x,1/2+y,z
1/2-x,1/2-y,z
3/4-x,3/4+y,1/4+z
3/4+x,3/4-y,1/4+z
loop_
_atom_site_type_symbol
_atom_site_label
_atom_site_fract_x
_atom_site_fract_y
_atom_site_fract_z
Si Si1 0.632221 0.702549 0.296970
Si Si2 0.250000 0.250000 0.684206
Si Si3 0.954521 0.164345 0.860515
Si Si4 0.571004 0.691672 0.964385
Si Si5 0.238539 0.087932 0.881405
Si Si6 0.816369 0.912148 0.514192
O O1 0.569197 0.715686 0.312252
O O2 0.660450 0.627456 0.199444
O O3 0.653181 0.827953 0.261281
O O4 0.651869 0.656024 0.419021
O O5 0.268813 0.156448 0.780489
O O6 0.211283 0.179808 0.599717
O O7 0.964146 0.095726 0.741775
O O8 0.010355 0.165912 0.924648
O O9 0.596180 0.752552 0.852815
O O10 0.561464 0.780843 0.066799
O O11 0.276771 0.993591 0.940012
#
# Coordination Sequence:
#
# PCOD9371210 Si02
#       6
#    16   8  16  16  16  16
#     4  12  24  46  69 104 149 191 241 311 366 437
#     4  10  22  38  70 104 136 178 232 302 348 432
#     4  11  25  40  72 105 140 192 241 303 365 442
#     4  10  22  44  72 101 137 192 238 297 368 431
#     4  10  21  41  67 103 134 179 242 289 364 443
#     4  10  22  41  70 102 137 186 234 290 366 442
#
# _framework density 25.729928000000001
#
# number of rings (size 3 to 8) (size 9 to 14) (size 15 to 20)
#    0.000    1.455    1.818    2.727    5.091    2.909 
#    0.000   10.909    0.000    0.000    0.000    0.000 
#    0.000    0.000    0.000    0.000    0.000    0.000 
#
# Total GULP energy -122924.879413 kJ/mol
# GULP energy per Si atom -5587.494519 kJ/mol
# Density = 2.567137 g / cm^3
# Si number density = 25.729928 Si / 1000 Ang^3
#
#
#
# Elastic Constant Matrix: (Units=GPa)
#
#
# Indices 1 2 3 4 5 6 
#
# 1 87.2769 26.1035 50.4024 0.0000 0.0000 0.0000
# 2 26.1035 102.0575 59.9967 0.0000 0.0000 0.0000
# 3 50.4024 59.9967 227.0980 0.0000 0.0000 0.0000
# 4 0.0000 0.0000 0.0000 61.6410 0.0000 0.0000
# 5 0.0000 0.0000 0.0000 0.0000 34.9272 0.0000
# 6 0.0000 0.0000 0.0000 0.0000 0.0000 27.2214
#
#
#
# Elastic Compliance Matrix: (Units=1/GPa)
#
#
# Indices 1 2 3 4 5 6 
#
# 1 0.013478 -0.001999 -0.002463 0.000000 0.000000 0.000000
# 2 -0.001999 0.011897 -0.002699 0.000000 0.000000 0.000000
# 3 -0.002463 -0.002699 0.005663 0.000000 0.000000 0.000000
# 4 0.000000 0.000000 0.000000 0.016223 0.000000 0.000000
# 5 0.000000 0.000000 0.000000 0.000000 0.028631 0.000000
# 6 0.000000 0.000000 0.000000 0.000000 0.000000 0.036736
#
#
# Mechanical properties :
#
#
# Convention : Reuss Voigt Hill
#
# Bulk Modulus (GPa) = 59.82812 76.60416 68.21614
# Shear Modulus (GPa) = 37.72939 43.41990 40.57464
#
# Velocity S-wave (km/s) = 3.83346 4.11241 3.97538
# Velocity P-wave (km/s) = 6.54956 7.23783 6.90228
#
# Compressibility (1/GPa) = 0.01671455
#
# Stress axis : x y z
#
# Youngs Moduli (GPa) = 74.19366 84.05796 176.57977
#
# Poissons Ratio (x) = 0.16806 0.43495
# Poissons Ratio (y) = 0.14834 0.47662
# Poissons Ratio (z) = 0.18275 0.22689
#
# Static dielectric constant tensor:
#      x y z
#    x 2.012540 0.000000 0.000000 
#    y 0.000000 2.143530 0.000000 
#    z 0.000000 0.000000 2.052500 
# 
# From -- ./inp_files/5771.got.cif
#   From: 2010.05.17/outbox.cif.g08.bks.cpg/sg43_3_cif.got.tgz:5771.got - 2010.06.03 19:21:55.
