data_PCOD9371337
_publ_section_title
;
Structure prediction by ZEFSAII (Michael W. Deem and Ramdas Pophale) SiO2 
 PCOD9371337
Probable space group: F D D 2
;
_chemical_formula_sum "Si O2"
_cell_formula_units_Z 120
_cell_length_a 24.096809
_cell_length_b 11.399182
_cell_length_c 17.768077
_cell_angle_alpha 90.000000
_cell_angle_beta 90.000000
_cell_angle_gamma 90.000000
_cell_volume 4880.604889
_symmetry_space_group_name_H-M "F D D 2"
_symmetry_group_IT_number 43
_symmetry_cell_setting 'orthorhombic'
loop_
_space_group_symop_operation_xyz
x,y,z
-x,-y,z
1/4-x,1/4+y,1/4+z
1/4+x,1/4-y,1/4+z
x,1/2+y,1/2+z
-x,1/2-y,1/2+z
1/4-x,3/4+y,3/4+z
1/4+x,3/4-y,3/4+z
1/2+x,y,1/2+z
1/2-x,-y,1/2+z
3/4-x,1/4+y,3/4+z
3/4+x,1/4-y,3/4+z
1/2+x,1/2+y,z
1/2-x,1/2-y,z
3/4-x,3/4+y,1/4+z
3/4+x,3/4-y,1/4+z
loop_
_atom_site_type_symbol
_atom_site_label
_atom_site_fract_x
_atom_site_fract_y
_atom_site_fract_z
Si Si1 0.481635 0.384506 0.695130
Si Si2 0.741066 0.610664 0.632815
Si Si3 0.397571 0.498889 0.918829
Si Si4 0.591518 0.648234 0.480734
Si Si5 0.500000 0.500000 0.004177
Si Si6 0.928125 0.676921 0.602286
Si Si7 0.644437 0.952055 0.067289
Si Si8 0.177702 0.053221 0.051778
O O1 0.500000 0.500000 0.648694
O O2 0.467972 0.271397 0.644254
O O3 0.431267 0.367773 0.755483
O O4 0.534849 0.384708 0.749790
O O5 0.750000 0.750000 0.624733
O O6 0.777687 0.580795 0.706852
O O7 0.681981 0.547476 0.615276
O O8 0.780016 0.548131 0.572533
O O9 0.369873 0.399301 0.868784
O O10 0.405892 0.618221 0.871575
O O11 0.456585 0.445868 0.944951
O O12 0.366679 0.504823 0.997496
O O13 0.635647 0.634858 0.411517
O O14 0.605969 0.748012 0.540811
O O15 0.599018 0.525493 0.522967
O O16 0.467920 0.588703 0.057869
#
# Coordination Sequence:
#
# PCOD9371337 Si02
#       8
#    16  16  16  16   8  16  16  16
#     4  10  21  45  69 101 145 189 243 305 377 436
#     4  11  24  45  70 103 144 200 244 306 382 450
#     4  12  25  45  75 106 147 192 253 309 387 445
#     4  11  24  47  71 111 150 193 251 315 380 458
#     4  12  26  48  72 104 148 190 256 312 374 462
#     4  11  26  46  76 109 151 193 251 320 375 468
#     4  10  23  43  72 105 143 192 247 310 373 456
#     4  11  26  44  75 105 144 198 245 311 373 458
#
# _framework density 24.587116999999999
#
# number of rings (size 3 to 8) (size 9 to 14) (size 15 to 20)
#    0.000    1.067    1.333    4.800    3.733    2.667 
#   18.000    1.333    0.000    0.000    0.000    0.000 
#    0.000    0.000    0.000    0.000    0.000    0.000 
#
# Total GULP energy -167451.799790 kJ/mol
# GULP energy per Si atom -5581.726660 kJ/mol
# Density = 2.453116 g / cm^3
# Si number density = 24.587117 Si / 1000 Ang^3
#
#
#
# Elastic Constant Matrix: (Units=GPa)
#
#
# Indices 1 2 3 4 5 6 
#
# 1 36.3536 5.6921 21.9987 0.0000 0.0000 0.0000
# 2 5.6921 128.1735 46.9505 0.0000 0.0000 0.0000
# 3 21.9987 46.9505 119.9221 0.0000 0.0000 0.0000
# 4 0.0000 0.0000 0.0000 31.8077 0.0000 0.0000
# 5 0.0000 0.0000 0.0000 0.0000 22.7271 0.0000
# 6 0.0000 0.0000 0.0000 0.0000 0.0000 29.3399
#
#
#
# Elastic Compliance Matrix: (Units=1/GPa)
#
#
# Indices 1 2 3 4 5 6 
#
# 1 0.031017 0.000825 -0.006013 0.000000 0.000000 0.000000
# 2 0.000825 0.009130 -0.003726 0.000000 0.000000 0.000000
# 3 -0.006013 -0.003726 0.010900 0.000000 0.000000 0.000000
# 4 0.000000 0.000000 0.000000 0.031439 0.000000 0.000000
# 5 0.000000 0.000000 0.000000 0.000000 0.044000 0.000000
# 6 0.000000 0.000000 0.000000 0.000000 0.000000 0.034083
#
#
# Mechanical properties :
#
#
# Convention : Reuss Voigt Hill
#
# Bulk Modulus (GPa) = 30.10210 48.19241 39.14725
# Shear Modulus (GPa) = 26.38931 30.76214 28.57573
#
# Velocity S-wave (km/s) = 3.27968 3.54100 3.41284
# Velocity P-wave (km/s) = 5.15862 6.03004 5.61127
#
# Compressibility (1/GPa) = 0.03322028
#
# Stress axis : x y z
#
# Youngs Moduli (GPa) = 32.24046 109.52813 91.73939
#
# Poissons Ratio (x) = -0.09037 0.55161
# Poissons Ratio (y) = -0.02660 0.34181
# Poissons Ratio (z) = 0.19386 0.40809
#
# Static dielectric constant tensor:
#      x y z
#    x 2.024470 0.000000 0.000000 
#    y 0.000000 2.071250 0.000000 
#    z 0.000000 0.000000 2.053910 
# 
# From -- ./inp_files/15092.got.cif
#   From: 2010.05.17/outbox.cif.g08.bks.cpg/sg43_8_cif.got.tgz:15092.got - 2010.06.03 19:21:55.
