data_PCOD9371061
_publ_section_title
;
Structure prediction by ZEFSAII (Michael W. Deem and Ramdas Pophale) SiO2 
 PCOD9371061
Probable space group: F D D 2
;
_chemical_formula_sum "Si O2"
_cell_formula_units_Z 64
_cell_length_a 6.996946
_cell_length_b 12.626810
_cell_length_c 30.893359
_cell_angle_alpha 90.000000
_cell_angle_beta 90.000000
_cell_angle_gamma 90.000000
_cell_volume 2729.400702
_symmetry_space_group_name_H-M "F D D 2"
_symmetry_group_IT_number 43
_symmetry_cell_setting 'orthorhombic'
loop_
_space_group_symop_operation_xyz
x,y,z
-x,-y,z
1/4-x,1/4+y,1/4+z
1/4+x,1/4-y,1/4+z
x,1/2+y,1/2+z
-x,1/2-y,1/2+z
1/4-x,3/4+y,3/4+z
1/4+x,3/4-y,3/4+z
1/2+x,y,1/2+z
1/2-x,-y,1/2+z
3/4-x,1/4+y,3/4+z
3/4+x,1/4-y,3/4+z
1/2+x,1/2+y,z
1/2-x,1/2-y,z
3/4-x,3/4+y,1/4+z
3/4+x,3/4-y,1/4+z
loop_
_atom_site_type_symbol
_atom_site_label
_atom_site_fract_x
_atom_site_fract_y
_atom_site_fract_z
Si Si1 0.500000 0.500000 0.202050
Si Si2 0.371444 0.845643 0.488411
Si Si3 0.683288 0.633098 0.887888
Si Si4 0.478228 0.653086 0.125735
Si Si5 0.500000 0.500000 0.053151
O O1 0.662957 0.554674 0.230408
O O2 0.414761 0.590544 0.169378
O O3 0.250000 0.750000 0.506789
O O4 0.302642 0.872100 0.440157
O O5 0.357083 0.942398 0.520694
O O6 0.750000 0.750000 0.874323
O O7 0.795219 0.528760 0.872702
O O8 0.459697 0.617044 0.876820
O O9 0.410544 0.588467 0.084181
#
# Coordination Sequence:
#
# PCOD9371061 Si02
#       5
#     8  16  16  16   8
#     4   9  18  40  62  90 114 168 216 248 300 382
#     4  10  21  38  62  90 125 164 206 256 314 368
#     4   9  18  38  65  88 115 169 218 249 304 376
#     4   9  19  36  62  87 127 160 204 263 308 366
#     4  11  22  38  56  94 130 162 196 260 332 358
#
# _framework density 23.448371999999999
#
# number of rings (size 3 to 8) (size 9 to 14) (size 15 to 20)
#    0.000    2.500    0.000    3.000    3.500    0.000 
#    4.500   27.500    0.000    0.000    0.000    0.000 
#    0.000    0.000    0.000    0.000    0.000    0.000 
#
# Total GULP energy -89443.615257 kJ/mol
# GULP energy per Si atom -5590.225954 kJ/mol
# Density = 2.339500 g / cm^3
# Si number density = 23.448372 Si / 1000 Ang^3
#
#
#
# Elastic Constant Matrix: (Units=GPa)
#
#
# Indices 1 2 3 4 5 6 
#
# 1 63.0619 31.1278 22.4964 0.0000 0.0000 0.0000
# 2 31.1278 223.2876 69.2218 0.0000 0.0000 0.0000
# 3 22.4964 69.2218 66.2330 0.0000 0.0000 0.0000
# 4 0.0000 0.0000 0.0000 1.2594 0.0000 0.0000
# 5 0.0000 0.0000 0.0000 0.0000 -0.4210 0.0000
# 6 0.0000 0.0000 0.0000 0.0000 0.0000 37.8259
#
#
#
# Elastic Compliance Matrix: (Units=1/GPa)
#
#
# Indices 1 2 3 4 5 6 
#
# 1 0.018170 -0.000917 -0.005213 0.000000 0.000000 0.000000
# 2 -0.000917 0.006671 -0.006661 0.000000 0.000000 0.000000
# 3 -0.005213 -0.006661 0.023830 0.000000 0.000000 0.000000
# 4 0.000000 0.000000 0.000000 0.794038 0.000000 0.000000
# 5 0.000000 0.000000 0.000000 0.000000 -2.375172 0.000000
# 6 0.000000 0.000000 0.000000 0.000000 0.000000 0.026437
#
#
# Mechanical properties :
#
#
# Convention : Reuss Voigt Hill
#
# Bulk Modulus (GPa) = 43.30983 66.47495 54.89239
# Shear Modulus (GPa) = -3.39502 23.04862 9.82680
#
# Velocity S-wave (km/s) = -1.20458 3.13861 2.04937
# Velocity P-wave (km/s) = 4.07133 6.44558 5.39079
#
# Compressibility (1/GPa) = 0.02308944
#
# Stress axis : x y z
#
# Youngs Moduli (GPa) = 55.03659 149.89540 41.96305
#
# Poissons Ratio (x) = 0.13743 0.21876
# Poissons Ratio (y) = 0.05046 0.27951
# Poissons Ratio (z) = 0.28692 0.99845
#
# Static dielectric constant tensor:
#      x y z
#    x 1.970640 0.000000 0.000000 
#    y 0.000000 1.972520 0.000000 
#    z 0.000000 0.000000 1.864620 
# 
# From -- ./inp_files/27685.got.cif
#   From: 2010.05.17/outbox.cif.g08.bks.cpg/sg43_14_cif.got.tgz:27685.got - 2010.06.03 19:21:55.
