data_PCOD9371975
_publ_section_title
;
Structure prediction by ZEFSAII (Michael W. Deem and Ramdas Pophale) SiO2 
 PCOD9371975
Probable space group: F D D 2
;
_chemical_formula_sum "Si O2"
_cell_formula_units_Z 96
_cell_length_a 15.292186
_cell_length_b 22.898851
_cell_length_c 13.126153
_cell_angle_alpha 90.000000
_cell_angle_beta 90.000000
_cell_angle_gamma 90.000000
_cell_volume 4596.430789
_symmetry_space_group_name_H-M "F D D 2"
_symmetry_group_IT_number 43
_symmetry_cell_setting 'orthorhombic'
loop_
_space_group_symop_operation_xyz
x,y,z
-x,-y,z
1/4-x,1/4+y,1/4+z
1/4+x,1/4-y,1/4+z
x,1/2+y,1/2+z
-x,1/2-y,1/2+z
1/4-x,3/4+y,3/4+z
1/4+x,3/4-y,3/4+z
1/2+x,y,1/2+z
1/2-x,-y,1/2+z
3/4-x,1/4+y,3/4+z
3/4+x,1/4-y,3/4+z
1/2+x,1/2+y,z
1/2-x,1/2-y,z
3/4-x,3/4+y,1/4+z
3/4+x,3/4-y,1/4+z
loop_
_atom_site_type_symbol
_atom_site_label
_atom_site_fract_x
_atom_site_fract_y
_atom_site_fract_z
Si Si1 0.557134 0.250000 0.270960
Si Si2 0.388767 0.721207 0.667124
Si Si3 0.361233 0.028793 0.624796
Si Si4 0.500000 0.500000 0.751002
Si Si5 0.816655 0.348178 0.355102
Si Si6 0.816655 0.651822 0.686817
Si Si7 0.750000 0.750000 0.540918
O O1 0.491221 0.238006 0.177019
O O2 0.491221 0.261994 0.364901
O O3 0.615852 0.194640 0.298081
O O4 0.615851 0.305361 0.243838
O O5 0.352374 0.750000 0.770960
O O6 0.334845 0.744303 0.572020
O O7 0.386780 0.651129 0.662686
O O8 0.363220 0.098871 0.629234
O O9 0.415155 0.005697 0.719900
O O10 0.487296 0.556662 0.681102
O O11 0.750000 0.372781 0.270960
O O12 0.762705 0.693338 0.610818
#
# Coordination Sequence:
#
# PCOD9371975 Si02
#       7
#    16  16  16   8  16  16   8
#     4  10  23  47  64 110 132 182 240 271 359 404
#     4  10  27  44  67 102 139 183 232 282 352 413
#     4  10  27  44  67 102 139 183 232 282 352 413
#     4  12  24  46  70 102 144 180 230 292 348 408
#     4  12  24  46  73 103 140 180 240 289 338 416
#     4  12  24  46  73 103 140 180 240 289 338 416
#     4  12  24  46  70 102 144 180 230 292 348 408
#
# _framework density 20.885770000000001
#
# number of rings (size 3 to 8) (size 9 to 14) (size 15 to 20)
#    1.000    0.000    3.333    2.500    4.667    4.000 
#    6.000    0.000    0.000    0.000    0.000    0.000 
#    0.000    0.000    0.000    0.000    0.000    0.000 
#
# Total GULP energy -134007.884889 kJ/mol
# GULP energy per Si atom -5583.661870 kJ/mol
# Density = 2.083823 g / cm^3
# Si number density = 20.885770 Si / 1000 Ang^3
#
#
#
# Elastic Constant Matrix: (Units=GPa)
#
#
# Indices 1 2 3 4 5 6 
#
# 1 96.2107 18.9036 40.8900 0.0000 0.0000 0.0000
# 2 18.9036 119.8148 46.9182 0.0000 0.0000 0.0000
# 3 40.8900 46.9182 114.0470 0.0000 0.0000 0.0000
# 4 0.0000 0.0000 0.0000 75.1470 0.0000 0.0000
# 5 0.0000 0.0000 0.0000 0.0000 8.3405 0.0000
# 6 0.0000 0.0000 0.0000 0.0000 0.0000 -9.7570
#
#
#
# Elastic Compliance Matrix: (Units=1/GPa)
#
#
# Indices 1 2 3 4 5 6 
#
# 1 0.012269 -0.000254 -0.004294 0.000000 0.000000 0.000000
# 2 -0.000254 0.009954 -0.004004 0.000000 0.000000 0.000000
# 3 -0.004294 -0.004004 0.011955 0.000000 0.000000 0.000000
# 4 0.000000 0.000000 0.000000 0.013307 0.000000 0.000000
# 5 0.000000 0.000000 0.000000 0.000000 0.119897 0.000000
# 6 0.000000 0.000000 0.000000 0.000000 0.000000 -0.102491
#
#
# Mechanical properties :
#
#
# Convention : Reuss Voigt Hill
#
# Bulk Modulus (GPa) = 58.57030 60.38845 59.47937
# Shear Modulus (GPa) = 57.02038 29.63682 43.32860
#
# Velocity S-wave (km/s) = 5.23071 3.77104 4.55967
# Velocity P-wave (km/s) = 8.03645 6.92369 7.50073
#
# Compressibility (1/GPa) = 0.01707350
#
# Stress axis : x y z
#
# Youngs Moduli (GPa) = 81.50708 100.45988 83.64569
#
# Poissons Ratio (x) = 0.02553 0.35920
# Poissons Ratio (y) = 0.02071 0.33492
# Poissons Ratio (z) = 0.35002 0.40224
#
# Static dielectric constant tensor:
#      x y z
#    x 1.754030 0.000000 0.000000 
#    y 0.000000 1.717390 0.000000 
#    z 0.000000 0.000000 1.753090 
# 
# From -- ./inp_files/6716.got.cif
#   From: 2010.05.17/outbox.cif.g08.bks.cpg/sg43_4_cif.got.tgz:6716.got - 2010.06.03 19:21:55.
