data_PCOD9371359
_publ_section_title
;
Structure prediction by ZEFSAII (Michael W. Deem and Ramdas Pophale) SiO2 
 PCOD9371359
Probable space group: F D D 2
;
_chemical_formula_sum "Si O2"
_cell_formula_units_Z 112
_cell_length_a 11.736474
_cell_length_b 14.905078
_cell_length_c 28.249677
_cell_angle_alpha 90.000000
_cell_angle_beta 90.000000
_cell_angle_gamma 90.000000
_cell_volume 4941.802453
_symmetry_space_group_name_H-M "F D D 2"
_symmetry_group_IT_number 43
_symmetry_cell_setting 'orthorhombic'
loop_
_space_group_symop_operation_xyz
x,y,z
-x,-y,z
1/4-x,1/4+y,1/4+z
1/4+x,1/4-y,1/4+z
x,1/2+y,1/2+z
-x,1/2-y,1/2+z
1/4-x,3/4+y,3/4+z
1/4+x,3/4-y,3/4+z
1/2+x,y,1/2+z
1/2-x,-y,1/2+z
3/4-x,1/4+y,3/4+z
3/4+x,1/4-y,3/4+z
1/2+x,1/2+y,z
1/2-x,1/2-y,z
3/4-x,3/4+y,1/4+z
3/4+x,3/4-y,1/4+z
loop_
_atom_site_type_symbol
_atom_site_label
_atom_site_fract_x
_atom_site_fract_y
_atom_site_fract_z
Si Si1 0.828916 0.510230 0.863530
Si Si2 0.140675 0.813183 0.663273
Si Si3 0.862132 0.502501 0.196425
Si Si4 0.301804 0.159205 0.702076
Si Si5 0.669114 0.511811 0.016150
Si Si6 0.107157 0.567065 0.053308
Si Si7 0.261004 0.395955 0.279534
O O1 0.697714 0.531303 0.874757
O O2 0.879610 0.452267 0.907657
O O3 0.873334 0.606300 0.843530
O O4 0.829739 0.443532 0.819986
O O5 0.250000 0.750000 0.663771
O O6 0.169446 0.918162 0.659894
O O7 0.073535 0.805138 0.713887
O O8 0.796066 0.409992 0.186985
O O9 0.805095 0.536185 0.245435
O O10 0.000000 0.500000 0.198377
O O11 0.250000 0.250000 0.722332
O O12 0.355979 0.128175 0.752089
O O13 0.783830 0.495113 0.043837
O O14 0.601909 0.419682 0.004956
O O15 0.587331 0.577133 0.045952
O O16 0.000000 0.500000 0.065359
#
# Coordination Sequence:
#
# PCOD9371359 Si02
#       7
#    16  16  16  16  16  16  16
#     4  12  26  45  71 112 145 191 260 307 368 465
#     4  11  23  46  74 106 149 195 252 311 377 456
#     4  11  23  45  77 104 147 201 250 311 385 452
#     4  11  25  45  69 108 151 196 245 307 387 444
#     4  10  21  48  71  99 149 198 238 308 379 453
#     4  11  26  45  74 106 150 199 242 313 385 441
#     4  10  23  43  72 103 139 197 250 302 381 443
#
# _framework density 22.663796000000001
#
# number of rings (size 3 to 8) (size 9 to 14) (size 15 to 20)
#    0.000    1.143    5.714    0.857    8.000    3.429 
#    5.143    1.429    0.000    0.000    0.000    0.000 
#    0.000    0.000    0.000    0.000    0.000    0.000 
#
# Total GULP energy -155993.125156 kJ/mol
# GULP energy per Si atom -5571.183041 kJ/mol
# Density = 2.261221 g / cm^3
# Si number density = 22.663796 Si / 1000 Ang^3
#
#
#
# Elastic Constant Matrix: (Units=GPa)
#
#
# Indices 1 2 3 4 5 6 
#
# 1 111.1957 46.0248 6.8667 0.0000 0.0000 0.0000
# 2 46.0248 127.3109 22.9620 0.0000 0.0000 0.0000
# 3 6.8667 22.9620 79.9975 0.0000 0.0000 0.0000
# 4 0.0000 0.0000 0.0000 -21.8290 0.0000 0.0000
# 5 0.0000 0.0000 0.0000 0.0000 -22.7666 0.0000
# 6 0.0000 0.0000 0.0000 0.0000 0.0000 37.3620
#
#
#
# Elastic Compliance Matrix: (Units=1/GPa)
#
#
# Indices 1 2 3 4 5 6 
#
# 1 0.010579 -0.003860 0.000200 0.000000 0.000000 0.000000
# 2 -0.003860 0.009692 -0.002451 0.000000 0.000000 0.000000
# 3 0.000200 -0.002451 0.013187 0.000000 0.000000 0.000000
# 4 0.000000 0.000000 0.000000 -0.045811 0.000000 0.000000
# 5 0.000000 0.000000 0.000000 0.000000 -0.043924 0.000000
# 6 0.000000 0.000000 0.000000 0.000000 0.000000 0.026765
#
#
# Mechanical properties :
#
#
# Convention : Reuss Voigt Hill
#
# Bulk Modulus (GPa) = 47.09081 52.24569 49.66825
# Shear Modulus (GPa) = -489.66541 14.72999 -237.46771
#
# Velocity S-wave (km/s) = -14.71480 2.55215 -10.24724
# Velocity P-wave (km/s) = 16.36696 5.63801 10.86485
#
# Compressibility (1/GPa) = 0.02123557
#
# Stress axis : x y z
#
# Youngs Moduli (GPa) = 94.52998 103.17371 75.83424
#
# Poissons Ratio (x) = 0.39829 -0.01517
# Poissons Ratio (y) = 0.36493 0.18585
# Poissons Ratio (z) = -0.01891 0.25285
#
# Static dielectric constant tensor:
#      x y z
#    x 1.925320 0.000000 0.000000 
#    y 0.000000 1.983940 0.000000 
#    z 0.000000 0.000000 1.974360 
# 
# From -- ./inp_files/28628.got.cif
#   From: 2010.05.17/outbox.cif.g08.bks.cpg/sg43_15_cif.got.tgz:28628.got - 2010.06.03 19:21:55.
