data_PCOD9371022
_publ_section_title
;
Structure prediction by ZEFSAII (Michael W. Deem and Ramdas Pophale) SiO2 
 PCOD9371022
Probable space group: F D D 2
;
_chemical_formula_sum "Si O2"
_cell_formula_units_Z 72
_cell_length_a 5.195152
_cell_length_b 19.542999
_cell_length_c 33.735572
_cell_angle_alpha 90.000000
_cell_angle_beta 90.000000
_cell_angle_gamma 90.000000
_cell_volume 3425.133841
_symmetry_space_group_name_H-M "F D D 2"
_symmetry_group_IT_number 43
_symmetry_cell_setting 'orthorhombic'
loop_
_space_group_symop_operation_xyz
x,y,z
-x,-y,z
1/4-x,1/4+y,1/4+z
1/4+x,1/4-y,1/4+z
x,1/2+y,1/2+z
-x,1/2-y,1/2+z
1/4-x,3/4+y,3/4+z
1/4+x,3/4-y,3/4+z
1/2+x,y,1/2+z
1/2-x,-y,1/2+z
3/4-x,1/4+y,3/4+z
3/4+x,1/4-y,3/4+z
1/2+x,1/2+y,z
1/2-x,1/2-y,z
3/4-x,3/4+y,1/4+z
3/4+x,3/4-y,1/4+z
loop_
_atom_site_type_symbol
_atom_site_label
_atom_site_fract_x
_atom_site_fract_y
_atom_site_fract_z
Si Si1 0.500000 0.500000 0.486930
Si Si2 0.003559 0.706595 0.929030
Si Si3 0.597690 0.341438 0.684742
Si Si4 0.000000 0.500000 0.816366
Si Si5 0.250107 0.858683 0.000048
Si Si6 0.500000 0.500000 0.869345
O O1 0.722106 0.470448 0.458965
O O2 0.380136 0.432936 0.508207
O O3 0.750000 0.750000 0.922689
O O4 0.896519 0.632342 0.916231
O O5 0.250000 0.750000 0.914066
O O6 0.055739 0.689710 0.975242
O O7 0.770051 0.380597 0.717816
O O8 0.769671 0.314837 0.648870
O O9 0.940029 0.433787 0.789001
O O10 0.750222 0.510764 0.843065
#
# Coordination Sequence:
#
# PCOD9371022 Si02
#       6
#     8  16  16   8  16   8
#     4  10  21  36  76 104 127 176 262 289 330 412
#     4  11  21  35  66 102 133 168 243 290 338 398
#     4  11  22  42  72 102 136 192 248 288 346 449
#     4  12  29  42  72 106 153 176 235 310 392 402
#     4  11  22  41  70 103 138 188 243 292 346 449
#     4  12  28  46  66 110 144 188 227 319 372 432
#
# _framework density 21.021076000000001
#
# number of rings (size 3 to 8) (size 9 to 14) (size 15 to 20)
#    0.000    0.889    5.556    0.667   10.889    0.000 
#    0.000    0.000    2.444    2.667    0.000    0.000 
#    0.000    0.000    0.000    0.000    0.000    0.000 
#
# Total GULP energy -100303.643092 kJ/mol
# GULP energy per Si atom -5572.424616 kJ/mol
# Density = 2.097323 g / cm^3
# Si number density = 21.021076 Si / 1000 Ang^3
#
#
#
# Elastic Constant Matrix: (Units=GPa)
#
#
# Indices 1 2 3 4 5 6 
#
# 1 144.4407 45.0092 49.4789 0.0000 0.0000 0.0000
# 2 45.0092 118.7510 43.7086 0.0000 0.0000 0.0000
# 3 49.4789 43.7086 85.2462 0.0000 0.0000 0.0000
# 4 0.0000 0.0000 0.0000 24.0330 0.0000 0.0000
# 5 0.0000 0.0000 0.0000 0.0000 33.7672 0.0000
# 6 0.0000 0.0000 0.0000 0.0000 0.0000 53.2945
#
#
#
# Elastic Compliance Matrix: (Units=1/GPa)
#
#
# Indices 1 2 3 4 5 6 
#
# 1 0.008951 -0.001825 -0.004260 0.000000 0.000000 0.000000
# 2 -0.001825 0.010752 -0.004454 0.000000 0.000000 0.000000
# 3 -0.004260 -0.004454 0.016487 0.000000 0.000000 0.000000
# 4 0.000000 0.000000 0.000000 0.041609 0.000000 0.000000
# 5 0.000000 0.000000 0.000000 0.000000 0.029614 0.000000
# 6 0.000000 0.000000 0.000000 0.000000 0.000000 0.018764
#
#
# Mechanical properties :
#
#
# Convention : Reuss Voigt Hill
#
# Bulk Modulus (GPa) = 66.16735 69.42570 67.79652
# Shear Modulus (GPa) = 32.83174 36.23504 34.53339
#
# Velocity S-wave (km/s) = 3.95631 4.15631 4.05754
# Velocity P-wave (km/s) = 7.23981 7.49210 7.36704
#
# Compressibility (1/GPa) = 0.01511319
#
# Stress axis : x y z
#
# Youngs Moduli (GPa) = 111.71830 93.00697 60.65465
#
# Poissons Ratio (x) = 0.16971 0.25838
# Poissons Ratio (y) = 0.20386 0.27014
# Poissons Ratio (z) = 0.47590 0.41423
#
# Static dielectric constant tensor:
#      x y z
#    x 1.839520 0.000000 0.000000 
#    y 0.000000 1.930950 0.000000 
#    z 0.000000 0.000000 1.722240 
# 
# From -- ./inp_files/23439.got.cif
#   From: 2010.05.17/outbox.cif.g08.bks.cpg/sg43_12_cif.got.tgz:23439.got - 2010.06.03 19:21:55.
