data_PCOD9371134
_publ_section_title
;
Structure prediction by ZEFSAII (Michael W. Deem and Ramdas Pophale) SiO2 
 PCOD9371134
Probable space group: F D D 2
;
_chemical_formula_sum "Si O2"
_cell_formula_units_Z 112
_cell_length_a 11.558518
_cell_length_b 15.702287
_cell_length_c 29.035792
_cell_angle_alpha 90.000000
_cell_angle_beta 90.000000
_cell_angle_gamma 90.000000
_cell_volume 5269.855916
_symmetry_space_group_name_H-M "F D D 2"
_symmetry_group_IT_number 43
_symmetry_cell_setting 'orthorhombic'
loop_
_space_group_symop_operation_xyz
x,y,z
-x,-y,z
1/4-x,1/4+y,1/4+z
1/4+x,1/4-y,1/4+z
x,1/2+y,1/2+z
-x,1/2-y,1/2+z
1/4-x,3/4+y,3/4+z
1/4+x,3/4-y,3/4+z
1/2+x,y,1/2+z
1/2-x,-y,1/2+z
3/4-x,1/4+y,3/4+z
3/4+x,1/4-y,3/4+z
1/2+x,1/2+y,z
1/2-x,1/2-y,z
3/4-x,3/4+y,1/4+z
3/4+x,3/4-y,1/4+z
loop_
_atom_site_type_symbol
_atom_site_label
_atom_site_fract_x
_atom_site_fract_y
_atom_site_fract_z
Si Si1 0.528341 0.900890 0.240050
Si Si2 0.846608 0.178965 0.941997
Si Si3 0.630504 0.201284 0.307008
Si Si4 0.267957 0.851101 0.777074
Si Si5 0.748863 0.887771 0.890643
Si Si6 0.767074 0.454232 0.133660
Si Si7 0.823085 0.422920 0.876498
O O1 0.425345 0.849213 0.264935
O O2 0.642450 0.891950 0.270091
O O3 0.556333 0.859444 0.190522
O O4 0.500000 0.000000 0.236302
O O5 0.750000 0.250000 0.955165
O O6 0.778812 0.115543 0.908086
O O7 0.899035 0.131836 0.985945
O O8 0.949114 0.225642 0.913438
O O9 0.750000 0.250000 0.294420
O O10 0.667679 0.139192 0.349108
O O11 0.535487 0.263689 0.330892
O O12 0.250000 0.750000 0.777508
O O13 0.311094 0.885516 0.825595
O O14 0.648153 0.817299 0.896876
O O15 0.688782 0.976427 0.878131
O O16 0.693646 0.368747 0.141883
#
# Coordination Sequence:
#
# PCOD9371134 Si02
#       7
#    16  16  16  16  16  16  16
#     4  12  24  41  65  93 123 162 208 256 311 373
#     4  10  22  40  62  89 125 164 207 258 312 372
#     4  10  22  40  62  89 125 164 207 258 312 372
#     4  12  24  41  65  93 123 162 208 256 311 373
#     4  11  23  40  61  90 124 162 205 256 310 366
#     4  10  21  40  61  84 122 164 202 252 309 368
#     4  11  23  40  61  90 124 162 205 256 310 366
#
# _framework density 21.252953000000002
#
# number of rings (size 3 to 8) (size 9 to 14) (size 15 to 20)
#    0.000    1.143    0.000    8.143    0.000    2.286 
#    0.000   10.000    0.000    0.000    0.000    0.000 
#    0.000    0.000    0.000    0.000    0.000    0.000 
#
# Total GULP energy -156568.309953 kJ/mol
# GULP energy per Si atom -5591.725355 kJ/mol
# Density = 2.120458 g / cm^3
# Si number density = 21.252953 Si / 1000 Ang^3
#
#
#
# Elastic Constant Matrix: (Units=GPa)
#
#
# Indices 1 2 3 4 5 6 
#
# 1 80.4399 27.2859 28.0782 0.0000 0.0000 0.0000
# 2 27.2859 108.4097 22.3752 0.0000 0.0000 0.0000
# 3 28.0782 22.3752 75.8295 0.0000 0.0000 0.0000
# 4 0.0000 0.0000 0.0000 12.8788 0.0000 0.0000
# 5 0.0000 0.0000 0.0000 0.0000 24.2119 0.0000
# 6 0.0000 0.0000 0.0000 0.0000 0.0000 18.2326
#
#
#
# Elastic Compliance Matrix: (Units=1/GPa)
#
#
# Indices 1 2 3 4 5 6 
#
# 1 0.015038 -0.002807 -0.004740 0.000000 0.000000 0.000000
# 2 -0.002807 0.010346 -0.002014 0.000000 0.000000 0.000000
# 3 -0.004740 -0.002014 0.015537 0.000000 0.000000 0.000000
# 4 0.000000 0.000000 0.000000 0.077647 0.000000 0.000000
# 5 0.000000 0.000000 0.000000 0.000000 0.041302 0.000000
# 6 0.000000 0.000000 0.000000 0.000000 0.000000 0.054847
#
#
# Mechanical properties :
#
#
# Convention : Reuss Voigt Hill
#
# Bulk Modulus (GPa) = 45.87078 46.68420 46.27749
# Shear Modulus (GPa) = 20.73781 23.52730 22.13256
#
# Velocity S-wave (km/s) = 3.12711 3.33079 3.23055
# Velocity P-wave (km/s) = 5.88800 6.06679 5.97806
#
# Compressibility (1/GPa) = 0.02180037
#
# Stress axis : x y z
#
# Youngs Moduli (GPa) = 66.49687 96.65297 64.36298
#
# Poissons Ratio (x) = 0.27127 0.30510
# Poissons Ratio (y) = 0.18663 0.12960
# Poissons Ratio (z) = 0.31521 0.19463
#
# Static dielectric constant tensor:
#      x y z
#    x 1.730170 0.000000 0.000000 
#    y 0.000000 1.935480 0.000000 
#    z 0.000000 0.000000 1.769620 
# 
# From -- ./inp_files/6312.got.cif
#   From: 2010.05.17/outbox.cif.g08.bks.cpg/sg43_4_cif.got.tgz:6312.got - 2010.06.03 19:21:55.
