data_PCOD9371298
_publ_section_title
;
Structure prediction by ZEFSAII (Michael W. Deem and Ramdas Pophale) SiO2 
 PCOD9371298
Probable space group: F D D 2
;
_chemical_formula_sum "Si O2"
_cell_formula_units_Z 80
_cell_length_a 20.704743
_cell_length_b 18.223561
_cell_length_c 8.681006
_cell_angle_alpha 90.000000
_cell_angle_beta 90.000000
_cell_angle_gamma 90.000000
_cell_volume 3275.466374
_symmetry_space_group_name_H-M "F D D 2"
_symmetry_group_IT_number 43
_symmetry_cell_setting 'orthorhombic'
loop_
_space_group_symop_operation_xyz
x,y,z
-x,-y,z
1/4-x,1/4+y,1/4+z
1/4+x,1/4-y,1/4+z
x,1/2+y,1/2+z
-x,1/2-y,1/2+z
1/4-x,3/4+y,3/4+z
1/4+x,3/4-y,3/4+z
1/2+x,y,1/2+z
1/2-x,-y,1/2+z
3/4-x,1/4+y,3/4+z
3/4+x,1/4-y,3/4+z
1/2+x,1/2+y,z
1/2-x,1/2-y,z
3/4-x,3/4+y,1/4+z
3/4+x,3/4-y,1/4+z
loop_
_atom_site_type_symbol
_atom_site_label
_atom_site_fract_x
_atom_site_fract_y
_atom_site_fract_z
Si Si1 0.925609 0.299103 0.668220
Si Si2 0.017408 0.207455 0.843313
Si Si3 0.212571 0.678476 0.713207
Si Si4 0.594970 0.337872 0.255640
Si Si5 0.268647 0.165431 0.634930
O O1 0.965139 0.277659 0.519349
O O2 0.851597 0.296481 0.625575
O O3 0.947642 0.378445 0.733307
O O4 0.948690 0.243184 0.799468
O O5 0.071228 0.252897 0.748816
O O6 0.006714 0.120688 0.851223
O O7 0.049911 0.372269 0.891249
O O8 0.250000 0.750000 0.766360
O O9 0.180924 0.632609 0.855374
O O10 0.672410 0.344002 0.256707
O O11 0.250000 0.250000 0.624397
#
# Coordination Sequence:
#
# PCOD9371298 Si02
#       5
#    16  16  16  16  16
#     4  10  25  43  73 105 152 197 260 307 396 462
#     4  11  22  47  67 112 142 201 244 328 370 472
#     4  11  24  45  76 106 144 206 258 310 389 482
#     4  10  23  42  75 108 151 196 265 316 379 470
#     4  10  21  43  71 113 141 210 258 314 369 484
#
# _framework density 24.424004
#
# number of rings (size 3 to 8) (size 9 to 14) (size 15 to 20)
#    0.000    1.600    4.000    0.600    2.800    8.000 
#    7.200    1.000    0.000    1.200    0.000    0.000 
#    0.000    0.000    0.000    0.000    0.000    0.000 
#
# Total GULP energy -111468.668183 kJ/mol
# GULP energy per Si atom -5573.433409 kJ/mol
# Density = 2.436841 g / cm^3
# Si number density = 24.424004 Si / 1000 Ang^3
#
#
#
# Elastic Constant Matrix: (Units=GPa)
#
#
# Indices 1 2 3 4 5 6 
#
# 1 127.8420 54.1389 48.8842 -0.0001 0.0000 0.0000
# 2 54.1389 136.1049 35.4816 -0.0002 0.0001 0.0000
# 3 48.8842 35.4816 49.3169 -0.0006 0.0002 0.0001
# 4 -0.0001 -0.0002 -0.0006 35.5525 0.0001 0.0000
# 5 0.0000 0.0001 0.0002 0.0001 29.5395 0.0000
# 6 0.0000 0.0000 0.0001 0.0000 0.0000 26.8612
#
#
#
# Elastic Compliance Matrix: (Units=1/GPa)
#
#
# Indices 1 2 3 4 5 6 
#
# 1 0.013135 -0.002253 -0.011399 0.000000 0.000000 0.000000
# 2 -0.002253 0.009430 -0.004551 0.000000 0.000000 0.000000
# 3 -0.011399 -0.004551 0.034850 0.000000 0.000000 0.000000
# 4 0.000000 0.000000 0.000000 0.028127 0.000000 0.000000
# 5 0.000000 0.000000 0.000000 0.000000 0.033853 0.000000
# 6 0.000000 0.000000 0.000000 0.000000 0.000000 0.037228
#
#
# Mechanical properties :
#
#
# Convention : Reuss Voigt Hill
#
# Bulk Modulus (GPa) = 47.59838 65.58591 56.59214
# Shear Modulus (GPa) = 24.99593 30.04125 27.51859
#
# Velocity S-wave (km/s) = 3.20256 3.51092 3.36028
# Velocity P-wave (km/s) = 5.76245 6.58383 6.18679
#
# Compressibility (1/GPa) = 0.02100912
#
# Stress axis : x y z
#
# Youngs Moduli (GPa) = 76.13276 106.04487 28.69439
#
# Poissons Ratio (x) = 0.23894 0.32708
# Poissons Ratio (y) = 0.17154 0.13059
# Poissons Ratio (z) = 0.86781 0.48262
#
# Static dielectric constant tensor:
#      x y z
#    x 2.228140 0.000000 0.000000 
#    y 0.000000 2.004620 0.000000 
#    z 0.000000 0.000000 1.991450 
# 
# From -- ./inp_files/7435.got.cif
#   From: 2010.05.17/outbox.cif.g08.bks.cpg/sg43_4_cif.got.tgz:7435.got - 2010.06.03 19:21:55.
