data_PCOD9371274
_publ_section_title
;
Structure prediction by ZEFSAII (Michael W. Deem and Ramdas Pophale) SiO2 
 PCOD9371274
Probable space group: F D D 2
;
_chemical_formula_sum "Si O2"
_cell_formula_units_Z 120
_cell_length_a 24.583691
_cell_length_b 28.691605
_cell_length_c 7.997868
_cell_angle_alpha 90.000000
_cell_angle_beta 90.000000
_cell_angle_gamma 90.000000
_cell_volume 5641.260616
_symmetry_space_group_name_H-M "F D D 2"
_symmetry_group_IT_number 43
_symmetry_cell_setting 'orthorhombic'
loop_
_space_group_symop_operation_xyz
x,y,z
-x,-y,z
1/4-x,1/4+y,1/4+z
1/4+x,1/4-y,1/4+z
x,1/2+y,1/2+z
-x,1/2-y,1/2+z
1/4-x,3/4+y,3/4+z
1/4+x,3/4-y,3/4+z
1/2+x,y,1/2+z
1/2-x,-y,1/2+z
3/4-x,1/4+y,3/4+z
3/4+x,1/4-y,3/4+z
1/2+x,1/2+y,z
1/2-x,1/2-y,z
3/4-x,3/4+y,1/4+z
3/4+x,3/4-y,1/4+z
loop_
_atom_site_type_symbol
_atom_site_label
_atom_site_fract_x
_atom_site_fract_y
_atom_site_fract_z
Si Si1 0.000000 0.500000 0.137571
Si Si2 0.537436 0.265960 0.542427
Si Si3 0.831224 0.110996 0.524052
Si Si4 0.881564 0.633275 0.505215
Si Si5 0.679703 0.101757 0.122396
Si Si6 0.610408 0.456181 0.768828
Si Si7 0.217077 0.842617 0.203341
Si Si8 0.481652 0.182278 0.377247
O O1 0.950767 0.525384 0.238258
O O2 0.970360 0.459227 0.029886
O O3 0.542187 0.301772 0.387992
O O4 0.597777 0.246156 0.572821
O O5 0.499968 0.221977 0.503863
O O6 0.514050 0.294554 0.696235
O O7 0.880933 0.147358 0.509302
O O8 0.863040 0.065573 0.596703
O O9 0.806613 0.120714 0.339914
O O10 0.776106 0.109684 0.634374
O O11 0.908405 0.635851 0.689407
O O12 0.884870 0.584438 0.408033
O O13 0.820926 0.651519 0.541171
O O14 0.920583 0.666583 0.400857
O O15 0.722370 0.141101 0.169061
#
# Coordination Sequence:
#
# PCOD9371274 Si02
#       8
#     8  16  16  16  16  16  16  16
#     4  12  24  48  72 100 136 192 240 284 350 434
#     4  11  24  40  71 101 134 177 239 290 337 419
#     4  10  21  42  72  92 127 179 226 281 346 426
#     4  11  26  42  65 100 141 182 224 287 353 422
#     4  11  22  45  67  98 132 183 229 280 358 414
#     4  11  24  43  69 104 138 179 235 288 351 418
#     4  11  24  45  72  95 136 182 235 289 351 427
#     4  11  23  41  65 101 133 175 228 289 347 408
#
# _framework density 21.271840000000001
#
# number of rings (size 3 to 8) (size 9 to 14) (size 15 to 20)
#    0.000    1.067    2.667    4.000    5.600    1.067 
#    4.800    0.000    0.000    0.000    0.000    0.000 
#    0.000    0.000    0.000    0.000    0.000    0.000 
#
# Total GULP energy -167142.744292 kJ/mol
# GULP energy per Si atom -5571.424810 kJ/mol
# Density = 2.122342 g / cm^3
# Si number density = 21.271840 Si / 1000 Ang^3
#
#
#
# Elastic Constant Matrix: (Units=GPa)
#
#
# Indices 1 2 3 4 5 6 
#
# 1 55.5505 11.4230 30.5105 -0.0037 0.0055 0.0014
# 2 11.4230 74.8485 40.7693 -0.0032 0.0024 0.0013
# 3 30.5105 40.7693 81.4259 -0.0053 0.0056 0.0026
# 4 -0.0037 -0.0032 -0.0053 2.9078 0.0035 0.0007
# 5 0.0055 0.0024 0.0056 0.0035 32.9822 -0.0011
# 6 0.0014 0.0013 0.0026 0.0007 -0.0011 27.9370
#
#
#
# Elastic Compliance Matrix: (Units=1/GPa)
#
#
# Indices 1 2 3 4 5 6 
#
# 1 0.022807 0.001614 -0.009354 0.000014 -0.000002 0.000000
# 2 0.001614 0.018485 -0.009860 0.000004 0.000000 0.000000
# 3 -0.009354 -0.009860 0.020723 0.000015 -0.000001 -0.000001
# 4 0.000014 0.000004 0.000015 0.343908 -0.000036 -0.000009
# 5 -0.000002 0.000000 -0.000001 -0.000036 0.030319 0.000001
# 6 0.000000 0.000000 -0.000001 -0.000009 0.000001 0.035795
#
#
# Mechanical properties :
#
#
# Convention : Reuss Voigt Hill
#
# Bulk Modulus (GPa) = 37.29222 41.91449 39.60336
# Shear Modulus (GPa) = 9.68662 21.37353 15.53008
#
# Velocity S-wave (km/s) = 2.13626 3.17327 2.70492
# Velocity P-wave (km/s) = 4.86355 5.75961 5.33045
#
# Compressibility (1/GPa) = 0.02681524
#
# Stress axis : x y z
#
# Youngs Moduli (GPa) = 43.84534 54.09909 48.25546
#
# Poissons Ratio (x) = -0.08734 0.45140
# Poissons Ratio (y) = -0.07079 0.47580
# Poissons Ratio (z) = 0.41015 0.53342
#
# Static dielectric constant tensor:
#      x y z
#    x 1.825170 0.000000 0.000000 
#    y 0.000000 1.835080 0.000000 
#    z 0.000000 0.000000 1.848030 
# 
# From -- ./inp_files/4406.got.cif
#   From: 2010.05.17/outbox.cif.g08.bks.cpg/sg43_3_cif.got.tgz:4406.got - 2010.06.03 19:21:55.
