data_PCOD9371151
_publ_section_title
;
Structure prediction by ZEFSAII (Michael W. Deem and Ramdas Pophale) SiO2 
 PCOD9371151
Probable space group: F D D 2
;
_chemical_formula_sum "Si O2"
_cell_formula_units_Z 80
_cell_length_a 9.088579
_cell_length_b 22.007010
_cell_length_c 15.431529
_cell_angle_alpha 90.000000
_cell_angle_beta 90.000000
_cell_angle_gamma 90.000000
_cell_volume 3086.497906
_symmetry_space_group_name_H-M "F D D 2"
_symmetry_group_IT_number 43
_symmetry_cell_setting 'orthorhombic'
loop_
_space_group_symop_operation_xyz
x,y,z
-x,-y,z
1/4-x,1/4+y,1/4+z
1/4+x,1/4-y,1/4+z
x,1/2+y,1/2+z
-x,1/2-y,1/2+z
1/4-x,3/4+y,3/4+z
1/4+x,3/4-y,3/4+z
1/2+x,y,1/2+z
1/2-x,-y,1/2+z
3/4-x,1/4+y,3/4+z
3/4+x,1/4-y,3/4+z
1/2+x,1/2+y,z
1/2-x,1/2-y,z
3/4-x,3/4+y,1/4+z
3/4+x,3/4-y,1/4+z
loop_
_atom_site_type_symbol
_atom_site_label
_atom_site_fract_x
_atom_site_fract_y
_atom_site_fract_z
Si Si1 0.687460 0.183515 0.181130
Si Si2 0.879533 0.618482 0.351585
Si Si3 0.176843 0.503273 0.665598
Si Si4 0.929604 0.678604 0.061538
Si Si5 0.825841 0.603883 0.536774
O O1 0.750000 0.250000 0.201708
O O2 0.515594 0.182493 0.152638
O O3 0.714462 0.133517 0.256298
O O4 0.757451 0.159495 0.090060
O O5 0.004858 0.572789 0.323541
O O6 0.960348 0.680481 0.380361
O O7 0.787945 0.598487 0.436777
O O8 0.751942 0.637394 0.286497
O O9 0.260573 0.482831 0.751353
O O10 0.213416 0.455023 0.591327
O O11 0.000000 0.500000 0.679134
#
# Coordination Sequence:
#
# PCOD9371151 Si02
#       5
#    16  16  16  16  16
#     4  11  23  42  63  86 121 167 204 240 300 375
#     4  11  22  40  63  93 125 152 199 264 301 341
#     4   9  20  41  65  85 121 172 203 232 301 384
#     4  11  23  39  64  95 121 152 205 258 303 348
#     4  10  21  40  65  87 119 167 205 234 296 378
#
# _framework density 25.919343000000001
#
# number of rings (size 3 to 8) (size 9 to 14) (size 15 to 20)
#    0.000    1.600    0.000    6.600    0.000    4.800 
#    0.000   20.000    0.000    0.000    0.000    0.000 
#    0.000    0.000    0.000    0.000    0.000    0.000 
#
# Total GULP energy -112136.572388 kJ/mol
# GULP energy per Si atom -5606.828619 kJ/mol
# Density = 2.586035 g / cm^3
# Si number density = 25.919343 Si / 1000 Ang^3
#
#
#
# Elastic Constant Matrix: (Units=GPa)
#
#
# Indices 1 2 3 4 5 6 
#
# 1 82.3482 4.8372 22.5464 0.0000 0.0000 0.0000
# 2 4.8372 104.8718 17.1251 0.0000 0.0000 0.0000
# 3 22.5464 17.1251 66.4819 0.0000 0.0000 0.0000
# 4 0.0000 0.0000 0.0000 28.3132 0.0000 0.0000
# 5 0.0000 0.0000 0.0000 0.0000 39.3669 0.0000
# 6 0.0000 0.0000 0.0000 0.0000 0.0000 35.3065
#
#
#
# Elastic Compliance Matrix: (Units=1/GPa)
#
#
# Indices 1 2 3 4 5 6 
#
# 1 0.013388 0.000129 -0.004574 0.000000 0.000000 0.000000
# 2 0.000129 0.009955 -0.002608 0.000000 0.000000 0.000000
# 3 -0.004574 -0.002608 0.017265 0.000000 0.000000 0.000000
# 4 0.000000 0.000000 0.000000 0.035319 0.000000 0.000000
# 5 0.000000 0.000000 0.000000 0.000000 0.025402 0.000000
# 6 0.000000 0.000000 0.000000 0.000000 0.000000 0.028323
#
#
# Mechanical properties :
#
#
# Convention : Reuss Voigt Hill
#
# Bulk Modulus (GPa) = 37.73167 38.07992 37.90579
# Shear Modulus (GPa) = 32.76699 34.54354 33.65526
#
# Velocity S-wave (km/s) = 3.55940 3.65462 3.60733
# Velocity P-wave (km/s) = 5.61083 5.70368 5.65744
#
# Compressibility (1/GPa) = 0.02650294
#
# Stress axis : x y z
#
# Youngs Moduli (GPa) = 74.69256 100.44790 57.92174
#
# Poissons Ratio (x) = -0.01299 0.26492
# Poissons Ratio (y) = -0.00966 0.15108
# Poissons Ratio (z) = 0.34162 0.26200
#
# Static dielectric constant tensor:
#      x y z
#    x 2.080300 0.000000 0.000000 
#    y 0.000000 2.013070 0.000000 
#    z 0.000000 0.000000 2.196600 
# 
# From -- ./inp_files/9534.got.cif
#   From: 2010.05.17/outbox.cif.g08.bks.cpg/sg43_5_cif.got.tgz:9534.got - 2010.06.03 19:21:55.
