data_PCOD9371754
_publ_section_title
;
Structure prediction by ZEFSAII (Michael W. Deem and Ramdas Pophale) SiO2 
 PCOD9371754
Probable space group: F D D 2
;
_chemical_formula_sum "Si O2"
_cell_formula_units_Z 72
_cell_length_a 9.944103
_cell_length_b 21.277406
_cell_length_c 16.704774
_cell_angle_alpha 90.000000
_cell_angle_beta 90.000000
_cell_angle_gamma 90.000000
_cell_volume 3534.474877
_symmetry_space_group_name_H-M "F D D 2"
_symmetry_group_IT_number 43
_symmetry_cell_setting 'orthorhombic'
loop_
_space_group_symop_operation_xyz
x,y,z
-x,-y,z
1/4-x,1/4+y,1/4+z
1/4+x,1/4-y,1/4+z
x,1/2+y,1/2+z
-x,1/2-y,1/2+z
1/4-x,3/4+y,3/4+z
1/4+x,3/4-y,3/4+z
1/2+x,y,1/2+z
1/2-x,-y,1/2+z
3/4-x,1/4+y,3/4+z
3/4+x,1/4-y,3/4+z
1/2+x,1/2+y,z
1/2-x,1/2-y,z
3/4-x,3/4+y,1/4+z
3/4+x,3/4-y,1/4+z
loop_
_atom_site_type_symbol
_atom_site_label
_atom_site_fract_x
_atom_site_fract_y
_atom_site_fract_z
Si Si1 0.447579 0.071419 0.953880
Si Si2 0.321050 0.916667 0.064471
Si Si3 0.690987 0.628709 0.032474
Si Si4 0.000000 0.500000 0.174991
Si Si5 0.557559 0.930882 0.459509
O O1 0.464071 0.109234 0.872180
O O2 0.500000 0.000000 0.946532
O O3 0.547394 0.103969 0.016267
O O4 0.300019 0.081898 0.991592
O O5 0.377695 0.974116 0.119505
O O6 0.203348 0.932124 0.001732
O O7 0.706264 0.643701 0.125935
O O8 0.706413 0.692485 0.980985
O O9 0.543581 0.601424 0.021092
O O10 0.500000 0.000000 0.443931
#
# Coordination Sequence:
#
# PCOD9371754 Si02
#       5
#    16  16  16   8  16
#     4  11  23  45  70  96 134 183 224 275 335 415
#     4  11  24  44  67  99 136 172 229 275 341 397
#     4  11  24  45  71  98 134 178 233 271 346 402
#     4  10  22  46  72  94 130 192 222 268 342 432
#     4  12  26  42  66 102 137 174 221 294 330 395
#
# _framework density 20.370778000000001
#
# number of rings (size 3 to 8) (size 9 to 14) (size 15 to 20)
#    0.000    0.889    2.222    5.333    3.111    0.000 
#    8.000    1.111    0.000    0.000    0.000    0.000 
#    0.000    0.000    0.000    0.000    0.000    0.000 
#
# Total GULP energy -100564.824740 kJ/mol
# GULP energy per Si atom -5586.934708 kJ/mol
# Density = 2.032441 g / cm^3
# Si number density = 20.370778 Si / 1000 Ang^3
#
#
#
# Elastic Constant Matrix: (Units=GPa)
#
#
# Indices 1 2 3 4 5 6 
#
# 1 89.6086 11.2452 10.9086 0.0000 0.0000 0.0000
# 2 11.2452 100.4549 30.0899 0.0000 0.0000 0.0000
# 3 10.9086 30.0899 97.0196 0.0000 0.0000 0.0000
# 4 0.0000 0.0000 0.0000 5.5658 0.0000 0.0000
# 5 0.0000 0.0000 0.0000 0.0000 33.5846 0.0000
# 6 0.0000 0.0000 0.0000 0.0000 0.0000 22.7277
#
#
#
# Elastic Compliance Matrix: (Units=1/GPa)
#
#
# Indices 1 2 3 4 5 6 
#
# 1 0.011402 -0.000984 -0.000977 0.000000 0.000000 0.000000
# 2 -0.000984 0.011059 -0.003319 0.000000 0.000000 0.000000
# 3 -0.000977 -0.003319 0.011446 0.000000 0.000000 0.000000
# 4 0.000000 0.000000 0.000000 0.179667 0.000000 0.000000
# 5 0.000000 0.000000 0.000000 0.000000 0.029776 0.000000
# 6 0.000000 0.000000 0.000000 0.000000 0.000000 0.043999
#
#
# Mechanical properties :
#
#
# Convention : Reuss Voigt Hill
#
# Bulk Modulus (GPa) = 42.83076 43.50783 43.16930
# Shear Modulus (GPa) = 16.35633 28.03158 22.19396
#
# Velocity S-wave (km/s) = 2.83668 3.71356 3.30434
# Velocity P-wave (km/s) = 5.63917 6.30807 5.98297
#
# Compressibility (1/GPa) = 0.02334771
#
# Stress axis : x y z
#
# Youngs Moduli (GPa) = 87.70379 90.42339 87.36308
#
# Poissons Ratio (x) = 0.08895 0.08535
# Poissons Ratio (y) = 0.08628 0.28998
# Poissons Ratio (z) = 0.08568 0.30014
#
# Static dielectric constant tensor:
#      x y z
#    x 1.690600 0.000000 0.000000 
#    y 0.000000 2.514810 0.000000 
#    z 0.000000 0.000000 1.706820 
# 
# From -- ./inp_files/12555.got.cif
#   From: 2010.05.17/outbox.cif.g08.bks.cpg/sg43_7_cif.got.tgz:12555.got - 2010.06.03 19:21:55.
