data_PCOD9371330
_publ_section_title
;
Structure prediction by ZEFSAII (Michael W. Deem and Ramdas Pophale) SiO2 
 PCOD9371330
Probable space group: F D D 2
;
_chemical_formula_sum "Si O2"
_cell_formula_units_Z 72
_cell_length_a 13.531182
_cell_length_b 7.309318
_cell_length_c 26.694875
_cell_angle_alpha 90.000000
_cell_angle_beta 90.000000
_cell_angle_gamma 90.000000
_cell_volume 2640.222233
_symmetry_space_group_name_H-M "F D D 2"
_symmetry_group_IT_number 43
_symmetry_cell_setting 'orthorhombic'
loop_
_space_group_symop_operation_xyz
x,y,z
-x,-y,z
1/4-x,1/4+y,1/4+z
1/4+x,1/4-y,1/4+z
x,1/2+y,1/2+z
-x,1/2-y,1/2+z
1/4-x,3/4+y,3/4+z
1/4+x,3/4-y,3/4+z
1/2+x,y,1/2+z
1/2-x,-y,1/2+z
3/4-x,1/4+y,3/4+z
3/4+x,1/4-y,3/4+z
1/2+x,1/2+y,z
1/2-x,1/2-y,z
3/4-x,3/4+y,1/4+z
3/4+x,3/4-y,1/4+z
loop_
_atom_site_type_symbol
_atom_site_label
_atom_site_fract_x
_atom_site_fract_y
_atom_site_fract_z
Si Si1 0.103748 0.177824 0.972700
Si Si2 0.750000 0.250000 0.884266
Si Si3 0.268423 0.495240 0.523009
Si Si4 0.543771 0.702119 0.551680
Si Si5 0.526922 0.217549 0.886052
O O1 0.233179 0.571146 0.849705
O O2 0.062337 0.190322 0.916942
O O3 0.161751 0.357528 0.993892
O O4 0.007686 0.195476 0.006453
O O5 0.638195 0.252212 0.906774
O O6 0.824472 0.986964 0.986436
O O7 0.342684 0.331004 0.536627
O O8 0.226857 0.539625 0.578754
O O9 0.500000 0.500000 0.559348
O O10 0.500000 0.000000 0.888789
#
# Coordination Sequence:
#
# PCOD9371330 Si02
#       5
#    16   8  16  16  16
#     4  10  23  46  76 118 170 229 300 364 453 540
#     4  12  24  44  82 122 164 232 296 362 462 544
#     4  10  21  45  79 113 171 227 291 369 442 535
#     4  10  21  44  76 111 167 220 278 366 437 526
#     4  12  24  46  82 124 176 241 306 380 472 546
#
# _framework density 27.270433000000001
#
# number of rings (size 3 to 8) (size 9 to 14) (size 15 to 20)
#    0.000    1.333    4.444    2.000    0.000    0.000 
#   12.000    6.667    0.000    2.667    0.000    0.000 
#    0.000    0.000    0.000    0.000    0.000    0.000 
#
# Total GULP energy -100651.849759 kJ/mol
# GULP energy per Si atom -5591.769431 kJ/mol
# Density = 2.720836 g / cm^3
# Si number density = 27.270433 Si / 1000 Ang^3
#
#
#
# Elastic Constant Matrix: (Units=GPa)
#
#
# Indices 1 2 3 4 5 6 
#
# 1 272.6793 71.1896 60.5580 0.0000 0.0000 0.0000
# 2 71.1896 166.3745 37.9423 0.0000 0.0000 0.0000
# 3 60.5580 37.9423 131.3444 0.0000 0.0000 0.0000
# 4 0.0000 0.0000 0.0000 41.2684 0.0000 0.0000
# 5 0.0000 0.0000 0.0000 0.0000 70.1375 0.0000
# 6 0.0000 0.0000 0.0000 0.0000 0.0000 55.2063
#
#
#
# Elastic Compliance Matrix: (Units=1/GPa)
#
#
# Indices 1 2 3 4 5 6 
#
# 1 0.004421 -0.001527 -0.001597 0.000000 0.000000 0.000000
# 2 -0.001527 0.006962 -0.001307 0.000000 0.000000 0.000000
# 3 -0.001597 -0.001307 0.008727 0.000000 0.000000 0.000000
# 4 0.000000 0.000000 0.000000 0.024232 0.000000 0.000000
# 5 0.000000 0.000000 0.000000 0.000000 0.014258 0.000000
# 6 0.000000 0.000000 0.000000 0.000000 0.000000 0.018114
#
#
# Mechanical properties :
#
#
# Convention : Reuss Voigt Hill
#
# Bulk Modulus (GPa) = 88.90793 101.08646 94.99720
# Shear Modulus (GPa) = 55.97504 60.03631 58.00568
#
# Velocity S-wave (km/s) = 4.53547 4.69712 4.61700
# Velocity P-wave (km/s) = 7.75244 8.15879 7.95821
#
# Compressibility (1/GPa) = 0.01124759
#
# Stress axis : x y z
#
# Youngs Moduli (GPa) = 226.20622 143.63395 114.58093
#
# Poissons Ratio (x) = 0.21938 0.18299
# Poissons Ratio (y) = 0.34550 0.14975
# Poissons Ratio (z) = 0.36126 0.18773
#
# Static dielectric constant tensor:
#      x y z
#    x 2.192740 0.000000 0.000000 
#    y 0.000000 2.167740 0.000000 
#    z 0.000000 0.000000 2.048740 
# 
# From -- ./inp_files/17489.got.cif
#   From: 2010.05.17/outbox.cif.g08.bks.cpg/sg43_9_cif.got.tgz:17489.got - 2010.06.03 19:21:55.
