data_PCOD9371542
_publ_section_title
;
Structure prediction by ZEFSAII (Michael W. Deem and Ramdas Pophale) SiO2 
 PCOD9371542
Probable space group: F D D 2
;
_chemical_formula_sum "Si O2"
_cell_formula_units_Z 104
_cell_length_a 16.637086
_cell_length_b 12.552689
_cell_length_c 25.409451
_cell_angle_alpha 90.000000
_cell_angle_beta 90.000000
_cell_angle_gamma 90.000000
_cell_volume 5306.513976
_symmetry_space_group_name_H-M "F D D 2"
_symmetry_group_IT_number 43
_symmetry_cell_setting 'orthorhombic'
loop_
_space_group_symop_operation_xyz
x,y,z
-x,-y,z
1/4-x,1/4+y,1/4+z
1/4+x,1/4-y,1/4+z
x,1/2+y,1/2+z
-x,1/2-y,1/2+z
1/4-x,3/4+y,3/4+z
1/4+x,3/4-y,3/4+z
1/2+x,y,1/2+z
1/2-x,-y,1/2+z
3/4-x,1/4+y,3/4+z
3/4+x,1/4-y,3/4+z
1/2+x,1/2+y,z
1/2-x,1/2-y,z
3/4-x,3/4+y,1/4+z
3/4+x,3/4-y,1/4+z
loop_
_atom_site_type_symbol
_atom_site_label
_atom_site_fract_x
_atom_site_fract_y
_atom_site_fract_z
Si Si1 0.803638 0.642396 0.945320
Si Si2 0.250000 0.250000 0.554760
Si Si3 0.680815 0.330515 0.711429
Si Si4 0.834075 0.093398 0.593823
Si Si5 0.192579 0.546678 0.262672
Si Si6 0.912173 0.864749 0.580360
Si Si7 0.218696 0.489896 0.522561
O O1 0.750000 0.750000 0.956225
O O2 0.792130 0.608052 0.885590
O O3 0.896941 0.661729 0.960307
O O4 0.779096 0.544334 0.981488
O O5 0.165375 0.213417 0.581533
O O6 0.228881 0.362999 0.526990
O O7 0.750000 0.250000 0.697528
O O8 0.654535 0.377084 0.654641
O O9 0.709885 0.425488 0.748646
O O10 0.615016 0.270700 0.746443
O O11 0.873637 0.184359 0.557153
O O12 0.882356 0.986125 0.579696
O O13 0.744160 0.055596 0.575825
O O14 0.275271 0.595883 0.283378
#
# Coordination Sequence:
#
# PCOD9371542 Si02
#       7
#    16   8  16  16  16  16  16
#     4  11  20  40  70 100 130 165 233 298 337 409
#     4  10  24  44  58  84 140 182 210 270 342 418
#     4  12  24  39  66 100 133 177 231 281 347 420
#     4  10  23  41  68  95 129 179 226 292 340 406
#     4  11  22  37  69 100 130 173 225 284 352 404
#     4  11  21  43  64  96 133 177 231 281 346 412
#     4  10  22  42  62  91 133 174 217 283 343 400
#
# _framework density 19.598552999999999
#
# number of rings (size 3 to 8) (size 9 to 14) (size 15 to 20)
#    0.000    1.231    3.077    3.231    2.154    0.000 
#    8.308    1.538    6.769    0.000    0.000    0.000 
#    0.000    0.000    0.000    0.000    0.000    0.000 
#
# Total GULP energy -144800.502113 kJ/mol
# GULP energy per Si atom -5569.250081 kJ/mol
# Density = 1.955395 g / cm^3
# Si number density = 19.598553 Si / 1000 Ang^3
#
#
#
# Elastic Constant Matrix: (Units=GPa)
#
#
# Indices 1 2 3 4 5 6 
#
# 1 95.4849 36.3284 25.9223 0.0000 0.0000 0.0000
# 2 36.3284 130.8200 46.2195 0.0000 0.0000 0.0000
# 3 25.9223 46.2195 69.4926 0.0000 0.0000 0.0000
# 4 0.0000 0.0000 0.0000 31.7271 0.0000 0.0000
# 5 0.0000 0.0000 0.0000 0.0000 27.9700 0.0000
# 6 0.0000 0.0000 0.0000 0.0000 0.0000 36.8042
#
#
#
# Elastic Compliance Matrix: (Units=1/GPa)
#
#
# Indices 1 2 3 4 5 6 
#
# 1 0.012169 -0.002321 -0.002996 0.000000 0.000000 0.000000
# 2 -0.002321 0.010435 -0.006074 0.000000 0.000000 0.000000
# 3 -0.002996 -0.006074 0.019548 0.000000 0.000000 0.000000
# 4 0.000000 0.000000 0.000000 0.031519 0.000000 0.000000
# 5 0.000000 0.000000 0.000000 0.000000 0.035753 0.000000
# 6 0.000000 0.000000 0.000000 0.000000 0.000000 0.027171
#
#
# Mechanical properties :
#
#
# Convention : Reuss Voigt Hill
#
# Bulk Modulus (GPa) = 51.62782 56.97087 54.29934
# Shear Modulus (GPa) = 30.15097 31.78875 30.96986
#
# Velocity S-wave (km/s) = 3.92654 4.03177 3.97950
# Velocity P-wave (km/s) = 6.85250 7.12780 6.99151
#
# Compressibility (1/GPa) = 0.01936940
#
# Stress axis : x y z
#
# Youngs Moduli (GPa) = 82.17485 95.83389 51.15728
#
# Poissons Ratio (x) = 0.22243 0.15325
# Poissons Ratio (y) = 0.19072 0.31075
# Poissons Ratio (z) = 0.24617 0.58213
#
# Static dielectric constant tensor:
#      x y z
#    x 1.763230 0.000000 0.000000 
#    y 0.000000 1.677960 0.000000 
#    z 0.000000 0.000000 1.722930 
# 
# From -- ./inp_files/26021.got.cif
#   From: 2010.05.17/outbox.cif.g08.bks.cpg/sg43_14_cif.got.tgz:26021.got - 2010.06.03 19:21:55.
