data_PCOD9371576
_publ_section_title
;
Structure prediction by ZEFSAII (Michael W. Deem and Ramdas Pophale) SiO2 
 PCOD9371576
Probable space group: F D D 2
;
_chemical_formula_sum "Si O2"
_cell_formula_units_Z 120
_cell_length_a 25.031029
_cell_length_b 8.548399
_cell_length_c 25.730603
_cell_angle_alpha 90.000000
_cell_angle_beta 90.000000
_cell_angle_gamma 90.000000
_cell_volume 5505.711522
_symmetry_space_group_name_H-M "F D D 2"
_symmetry_group_IT_number 43
_symmetry_cell_setting 'orthorhombic'
loop_
_space_group_symop_operation_xyz
x,y,z
-x,-y,z
1/4-x,1/4+y,1/4+z
1/4+x,1/4-y,1/4+z
x,1/2+y,1/2+z
-x,1/2-y,1/2+z
1/4-x,3/4+y,3/4+z
1/4+x,3/4-y,3/4+z
1/2+x,y,1/2+z
1/2-x,-y,1/2+z
3/4-x,1/4+y,3/4+z
3/4+x,1/4-y,3/4+z
1/2+x,1/2+y,z
1/2-x,1/2-y,z
3/4-x,3/4+y,1/4+z
3/4+x,3/4-y,1/4+z
loop_
_atom_site_type_symbol
_atom_site_label
_atom_site_fract_x
_atom_site_fract_y
_atom_site_fract_z
Si Si1 0.176182 0.935162 0.973730
Si Si2 0.086631 0.692773 0.947365
Si Si3 0.505892 0.331940 0.316797
Si Si4 0.272101 0.076916 0.171018
Si Si5 0.911255 0.244471 0.128866
Si Si6 0.500000 0.000000 0.643065
Si Si7 0.386601 0.474797 0.717618
Si Si8 0.369828 0.978479 0.040103
O O1 0.119880 0.843244 0.968191
O O2 0.212359 0.850332 0.930970
O O3 0.168719 0.115981 0.962372
O O4 0.205506 0.932901 0.029377
O O5 0.113652 0.626102 0.894722
O O6 0.025082 0.720686 0.941729
O O7 0.094080 0.566422 0.991658
O O8 0.500000 0.500000 0.343902
O O9 0.519708 0.201047 0.358942
O O10 0.559785 0.335444 0.282629
O O11 0.250000 0.250000 0.182534
O O12 0.328526 0.021271 0.193844
O O13 0.916851 0.345586 0.181956
O O14 0.893568 0.378131 0.087811
O O15 0.961509 0.130616 0.115483
O O16 0.383628 0.414433 0.777859
#
# Coordination Sequence:
#
# PCOD9371576 Si02
#       8
#    16  16  16  16  16   8  16  16
#     4  11  21  42  68 103 134 180 229 306 355 420
#     4  10  22  42  68  93 141 181 233 292 350 423
#     4  12  23  40  73 102 127 175 244 288 350 426
#     4  12  26  44  66 101 139 191 231 287 365 433
#     4  10  22  44  68 100 136 186 234 290 355 431
#     4  10  22  44  70  98 142 192 234 286 370 428
#     4  11  25  42  68 102 149 178 232 304 366 424
#     4  11  23  42  67 103 137 176 238 290 353 433
#
# _framework density 21.795546999999999
#
# number of rings (size 3 to 8) (size 9 to 14) (size 15 to 20)
#    0.000    1.067    4.667    2.400    3.733    1.600 
#    1.200    2.667    0.000    0.000    0.000    0.000 
#    0.000    0.000    0.000    0.000    0.000    0.000 
#
# Total GULP energy -167173.348190 kJ/mol
# GULP energy per Si atom -5572.444940 kJ/mol
# Density = 2.174594 g / cm^3
# Si number density = 21.795547 Si / 1000 Ang^3
#
#
#
# Elastic Constant Matrix: (Units=GPa)
#
#
# Indices 1 2 3 4 5 6 
#
# 1 85.5957 29.4208 20.2370 0.0000 0.0000 0.0000
# 2 29.4208 115.3122 17.5877 0.0000 0.0000 0.0000
# 3 20.2370 17.5877 68.4578 0.0000 0.0000 0.0000
# 4 0.0000 0.0000 0.0000 6.5386 0.0000 0.0000
# 5 0.0000 0.0000 0.0000 0.0000 24.9094 0.0000
# 6 0.0000 0.0000 0.0000 0.0000 0.0000 29.6739
#
#
#
# Elastic Compliance Matrix: (Units=1/GPa)
#
#
# Indices 1 2 3 4 5 6 
#
# 1 0.013456 -0.002942 -0.003222 0.000000 0.000000 0.000000
# 2 -0.002942 0.009669 -0.001614 0.000000 0.000000 0.000000
# 3 -0.003222 -0.001614 0.015975 0.000000 0.000000 0.000000
# 4 0.000000 0.000000 0.000000 0.152938 0.000000 0.000000
# 5 0.000000 0.000000 0.000000 0.000000 0.040146 0.000000
# 6 0.000000 0.000000 0.000000 0.000000 0.000000 0.033700
#
#
# Mechanical properties :
#
#
# Convention : Reuss Voigt Hill
#
# Bulk Modulus (GPa) = 42.47508 44.87297 43.67402
# Shear Modulus (GPa) = 17.28392 25.69904 21.49148
#
# Velocity S-wave (km/s) = 2.81908 3.43752 3.14355
# Velocity P-wave (km/s) = 5.48877 6.03227 5.76692
#
# Compressibility (1/GPa) = 0.02354322
#
# Stress axis : x y z
#
# Youngs Moduli (GPa) = 74.31802 103.42446 62.59873
#
# Poissons Ratio (x) = 0.30424 0.20169
# Poissons Ratio (y) = 0.21862 0.10106
# Poissons Ratio (z) = 0.23945 0.16698
#
# Static dielectric constant tensor:
#      x y z
#    x 1.813380 0.000000 0.000000 
#    y 0.000000 1.929640 0.000000 
#    z 0.000000 0.000000 1.852840 
# 
# From -- ./inp_files/26608.got.cif
#   From: 2010.05.17/outbox.cif.g08.bks.cpg/sg43_14_cif.got.tgz:26608.got - 2010.06.03 19:21:55.
