data_PCOD9371785
_publ_section_title
;
Structure prediction by ZEFSAII (Michael W. Deem and Ramdas Pophale) SiO2 
 PCOD9371785
Probable space group: F D D 2
;
_chemical_formula_sum "Si O2"
_cell_formula_units_Z 88
_cell_length_a 17.108456
_cell_length_b 17.330952
_cell_length_c 11.809135
_cell_angle_alpha 90.000000
_cell_angle_beta 90.000000
_cell_angle_gamma 90.000000
_cell_volume 3501.477372
_symmetry_space_group_name_H-M "F D D 2"
_symmetry_group_IT_number 43
_symmetry_cell_setting 'orthorhombic'
loop_
_space_group_symop_operation_xyz
x,y,z
-x,-y,z
1/4-x,1/4+y,1/4+z
1/4+x,1/4-y,1/4+z
x,1/2+y,1/2+z
-x,1/2-y,1/2+z
1/4-x,3/4+y,3/4+z
1/4+x,3/4-y,3/4+z
1/2+x,y,1/2+z
1/2-x,-y,1/2+z
3/4-x,1/4+y,3/4+z
3/4+x,1/4-y,3/4+z
1/2+x,1/2+y,z
1/2-x,1/2-y,z
3/4-x,3/4+y,1/4+z
3/4+x,3/4-y,1/4+z
loop_
_atom_site_type_symbol
_atom_site_label
_atom_site_fract_x
_atom_site_fract_y
_atom_site_fract_z
Si Si1 0.024837 0.840255 0.054810
Si Si2 0.250000 0.750000 0.776848
Si Si3 0.918406 0.741499 0.213159
Si Si4 0.608458 0.837035 0.866453
Si Si5 0.546779 0.662102 0.809106
Si Si6 0.935746 0.875974 0.384722
O O1 0.968242 0.783004 0.117921
O O2 0.008904 0.925215 0.104919
O O3 0.116912 0.825539 0.071327
O O4 0.992293 0.851696 0.930171
O O5 0.173223 0.757615 0.699830
O O6 0.926023 0.791132 0.329387
O O7 0.967156 0.665050 0.233509
O O8 0.588395 0.747362 0.829764
O O9 0.527846 0.886282 0.867927
O O10 0.663638 0.868158 0.766177
O O11 0.646957 0.854874 0.989109
#
# Coordination Sequence:
#
# PCOD9371785 Si02
#       6
#    16   8  16  16  16  16
#     4  11  24  48  73 106 151 194 257 311 379 465
#     4  10  26  42  72 104 134 198 242 310 372 442
#     4  10  24  45  72 107 141 199 254 316 373 454
#     4  11  26  49  74 115 150 205 256 317 395 463
#     4  11  27  46  79 108 162 200 249 328 388 468
#     4  10  22  48  74 105 144 200 260 312 376 465
#
# _framework density 25.132251
#
# number of rings (size 3 to 8) (size 9 to 14) (size 15 to 20)
#    0.000    1.455    3.636    0.000   12.727    0.727 
#    3.273    0.000    0.000    0.000    0.000    0.000 
#    0.000    0.000    0.000    0.000    0.000    0.000 
#
# Total GULP energy -122702.161290 kJ/mol
# GULP energy per Si atom -5577.370968 kJ/mol
# Density = 2.507505 g / cm^3
# Si number density = 25.132251 Si / 1000 Ang^3
#
#
#
# Elastic Constant Matrix: (Units=GPa)
#
#
# Indices 1 2 3 4 5 6 
#
# 1 106.2575 22.6286 14.1295 0.0000 0.0000 0.0000
# 2 22.6286 21.4556 14.1698 0.0000 0.0000 0.0000
# 3 14.1295 14.1698 119.2659 0.0000 0.0000 0.0000
# 4 0.0000 0.0000 0.0000 30.9314 0.0000 0.0000
# 5 0.0000 0.0000 0.0000 0.0000 332.6961 0.0000
# 6 0.0000 0.0000 0.0000 0.0000 0.0000 12.4325
#
#
#
# Elastic Compliance Matrix: (Units=1/GPa)
#
#
# Indices 1 2 3 4 5 6 
#
# 1 0.012138 -0.012861 0.000090 0.000000 0.000000 0.000000
# 2 -0.012861 0.064203 -0.006104 0.000000 0.000000 0.000000
# 3 0.000090 -0.006104 0.009099 0.000000 0.000000 0.000000
# 4 0.000000 0.000000 0.000000 0.032330 0.000000 0.000000
# 5 0.000000 0.000000 0.000000 0.000000 0.003006 0.000000
# 6 0.000000 0.000000 0.000000 0.000000 0.000000 0.080434
#
#
# Mechanical properties :
#
#
# Convention : Reuss Voigt Hill
#
# Bulk Modulus (GPa) = 20.96875 38.75943 29.86409
# Shear Modulus (GPa) = 19.61880 88.28206 53.95043
#
# Velocity S-wave (km/s) = 2.79699 5.93323 4.63823
# Velocity P-wave (km/s) = 4.33502 7.89895 6.37125
#
# Compressibility (1/GPa) = 0.04769000
#
# Stress axis : x y z
#
# Youngs Moduli (GPa) = 82.38570 15.57551 109.89981
#
# Poissons Ratio (x) = 0.20032 -0.00989
# Poissons Ratio (y) = 1.05957 0.67085
# Poissons Ratio (z) = -0.00741 0.09508
#
# Static dielectric constant tensor:
#      x y z
#    x 2.004480 0.000000 0.000000 
#    y 0.000000 2.155180 0.000000 
#    z 0.000000 0.000000 2.074900 
# 
# From -- ./inp_files/6635.got.cif
#   From: 2010.05.17/outbox.cif.g08.bks.cpg/sg43_4_cif.got.tgz:6635.got - 2010.06.03 19:21:55.
