data_PCOD9371637
_publ_section_title
;
Structure prediction by ZEFSAII (Michael W. Deem and Ramdas Pophale) SiO2 
 PCOD9371637
Probable space group: F D D 2
;
_chemical_formula_sum "Si O2"
_cell_formula_units_Z 112
_cell_length_a 23.978681
_cell_length_b 16.184273
_cell_length_c 13.664126
_cell_angle_alpha 90.000000
_cell_angle_beta 90.000000
_cell_angle_gamma 90.000000
_cell_volume 5302.740124
_symmetry_space_group_name_H-M "F D D 2"
_symmetry_group_IT_number 43
_symmetry_cell_setting 'orthorhombic'
loop_
_space_group_symop_operation_xyz
x,y,z
-x,-y,z
1/4-x,1/4+y,1/4+z
1/4+x,1/4-y,1/4+z
x,1/2+y,1/2+z
-x,1/2-y,1/2+z
1/4-x,3/4+y,3/4+z
1/4+x,3/4-y,3/4+z
1/2+x,y,1/2+z
1/2-x,-y,1/2+z
3/4-x,1/4+y,3/4+z
3/4+x,1/4-y,3/4+z
1/2+x,1/2+y,z
1/2-x,1/2-y,z
3/4-x,3/4+y,1/4+z
3/4+x,3/4-y,1/4+z
loop_
_atom_site_type_symbol
_atom_site_label
_atom_site_fract_x
_atom_site_fract_y
_atom_site_fract_z
Si Si1 0.642975 0.269893 0.639010
Si Si2 0.640463 0.328789 0.312619
Si Si3 0.339194 0.837422 0.872401
Si Si4 0.250000 0.750000 0.781160
Si Si5 0.750000 0.750000 0.882477
Si Si6 0.893339 0.159313 0.911050
Si Si7 0.412141 0.830317 0.248540
Si Si8 0.214754 0.592641 0.495744
O O1 0.697128 0.266313 0.710345
O O2 0.626403 0.176641 0.608033
O O3 0.659741 0.332752 0.554694
O O4 0.588292 0.302492 0.694234
O O5 0.614176 0.363820 0.213487
O O6 0.705996 0.303458 0.319090
O O7 0.612250 0.239047 0.318996
O O8 0.631043 0.396588 0.397511
O O9 0.273276 0.822863 0.851588
O O10 0.359172 0.884847 0.774500
O O11 0.361930 0.743769 0.888422
O O12 0.780354 0.815096 0.953347
O O13 0.954682 0.167187 0.862204
O O14 0.475101 0.804820 0.222723
#
# Coordination Sequence:
#
# PCOD9371637 Si02
#       8
#    16  16  16   8   8  16  16  16
#     4  11  22  41  73 102 132 176 233 300 352 404
#     4  11  24  46  65 100 142 189 229 283 352 431
#     4  11  24  42  68  95 145 187 228 281 346 430
#     4  10  22  43  69 102 140 186 229 290 357 402
#     4  10  22  45  75 100 142 180 231 302 361 404
#     4  11  21  42  64 100 132 178 231 286 348 406
#     4  11  24  42  69 102 136 179 237 290 353 418
#     4  11  21  42  72 101 134 176 233 301 349 412
#
# _framework density 21.121155000000002
#
# number of rings (size 3 to 8) (size 9 to 14) (size 15 to 20)
#    0.000    1.143    4.286    4.286    0.000    2.286 
#    2.571    4.286    0.000    0.000    0.000    0.000 
#    0.000    0.000    0.000    0.000    0.000    0.000 
#
# Total GULP energy -155946.154561 kJ/mol
# GULP energy per Si atom -5569.505520 kJ/mol
# Density = 2.107308 g / cm^3
# Si number density = 21.121155 Si / 1000 Ang^3
#
#
#
# Elastic Constant Matrix: (Units=GPa)
#
#
# Indices 1 2 3 4 5 6 
#
# 1 76.5393 14.5987 20.8787 0.0000 0.0000 0.0000
# 2 14.5987 70.5567 -2.9686 0.0000 0.0000 0.0000
# 3 20.8787 -2.9686 88.8455 0.0000 0.0000 0.0000
# 4 0.0000 0.0000 0.0000 39.5466 0.0000 0.0000
# 5 0.0000 0.0000 0.0000 0.0000 33.7372 0.0000
# 6 0.0000 0.0000 0.0000 0.0000 0.0000 27.0825
#
#
#
# Elastic Compliance Matrix: (Units=1/GPa)
#
#
# Indices 1 2 3 4 5 6 
#
# 1 0.014639 -0.003178 -0.003546 0.000000 0.000000 0.000000
# 2 -0.003178 0.014883 0.001244 0.000000 0.000000 0.000000
# 3 -0.003546 0.001244 0.012130 0.000000 0.000000 0.000000
# 4 0.000000 0.000000 0.000000 0.025287 0.000000 0.000000
# 5 0.000000 0.000000 0.000000 0.000000 0.029641 0.000000
# 6 0.000000 0.000000 0.000000 0.000000 0.000000 0.036924
#
#
# Mechanical properties :
#
#
# Convention : Reuss Voigt Hill
#
# Bulk Modulus (GPa) = 32.58220 33.43991 33.01106
# Shear Modulus (GPa) = 32.32170 33.63543 32.97856
#
# Velocity S-wave (km/s) = 3.91615 3.99494 3.95574
# Velocity P-wave (km/s) = 5.99234 6.09477 6.04377
#
# Compressibility (1/GPa) = 0.03069161
#
# Stress axis : x y z
#
# Youngs Moduli (GPa) = 68.31193 67.19114 82.43718
#
# Poissons Ratio (x) = 0.21354 0.29235
# Poissons Ratio (y) = 0.21710 -0.10256
# Poissons Ratio (z) = 0.24225 -0.08359
#
# Static dielectric constant tensor:
#      x y z
#    x 1.784040 0.000000 0.000000 
#    y 0.000000 1.808570 0.000000 
#    z 0.000000 0.000000 1.841680 
# 
# From -- ./inp_files/11537.got.cif
#   From: 2010.05.17/outbox.cif.g08.bks.cpg/sg43_6_cif.got.tgz:11537.got - 2010.06.03 19:21:55.
