data_PCOD9371541
_publ_section_title
;
Structure prediction by ZEFSAII (Michael W. Deem and Ramdas Pophale) SiO2 
 PCOD9371541
Probable space group: F D D 2
;
_chemical_formula_sum "Si O2"
_cell_formula_units_Z 88
_cell_length_a 28.025750
_cell_length_b 18.779944
_cell_length_c 8.409669
_cell_angle_alpha 90.000000
_cell_angle_beta 90.000000
_cell_angle_gamma 90.000000
_cell_volume 4426.193938
_symmetry_space_group_name_H-M "F D D 2"
_symmetry_group_IT_number 43
_symmetry_cell_setting 'orthorhombic'
loop_
_space_group_symop_operation_xyz
x,y,z
-x,-y,z
1/4-x,1/4+y,1/4+z
1/4+x,1/4-y,1/4+z
x,1/2+y,1/2+z
-x,1/2-y,1/2+z
1/4-x,3/4+y,3/4+z
1/4+x,3/4-y,3/4+z
1/2+x,y,1/2+z
1/2-x,-y,1/2+z
3/4-x,1/4+y,3/4+z
3/4+x,1/4-y,3/4+z
1/2+x,1/2+y,z
1/2-x,1/2-y,z
3/4-x,3/4+y,1/4+z
3/4+x,3/4-y,1/4+z
loop_
_atom_site_type_symbol
_atom_site_label
_atom_site_fract_x
_atom_site_fract_y
_atom_site_fract_z
Si Si1 0.416895 0.956509 0.914890
Si Si2 0.250000 0.250000 0.892869
Si Si3 0.336880 0.981306 0.510967
Si Si4 0.421014 0.376236 0.082444
Si Si5 0.991513 0.857047 0.797060
Si Si6 0.150300 0.927620 0.328833
O O1 0.430028 0.923053 0.743136
O O2 0.391654 0.032240 0.916500
O O3 0.461815 0.966567 0.025440
O O4 0.384843 0.896842 0.001154
O O5 0.236373 0.183736 0.002255
O O6 0.378131 0.920936 0.498395
O O7 0.284281 0.947415 0.513035
O O8 0.343385 0.046339 0.387211
O O9 0.339820 0.018965 0.683145
O O10 0.467156 0.366514 0.970317
O O11 0.946538 0.834165 0.687156
#
# Coordination Sequence:
#
# PCOD9371541 Si02
#       6
#    16   8  16  16  16  16
#     4   9  20  43  58  87 122 163 208 261 325 383
#     4  10  24  40  58  92 124 164 214 268 318 398
#     4  10  22  42  61  93 128 165 210 270 321 398
#     4  10  23  40  66  92 128 169 217 267 332 386
#     4  11  23  38  64  93 127 163 222 260 329 385
#     4   9  20  40  60  85 121 162 207 257 321 385
#
# _framework density 19.881640000000001
#
# number of rings (size 3 to 8) (size 9 to 14) (size 15 to 20)
#    0.000    2.182    0.000    1.091    5.091    2.182 
#   19.636    0.000    0.000    0.000    0.000    0.000 
#    0.000    0.000    0.000    0.000    0.000    0.000 
#
# Total GULP energy -122563.875868 kJ/mol
# GULP energy per Si atom -5571.085267 kJ/mol
# Density = 1.983639 g / cm^3
# Si number density = 19.881640 Si / 1000 Ang^3
#
#
#
# Elastic Constant Matrix: (Units=GPa)
#
#
# Indices 1 2 3 4 5 6 
#
# 1 39.3793 26.8133 24.9227 0.0000 0.0000 0.0000
# 2 26.8133 101.3739 46.0627 -0.0001 0.0000 0.0000
# 3 24.9227 46.0627 37.6347 -0.0001 0.0000 0.0000
# 4 0.0000 -0.0001 -0.0001 5.8936 0.0000 0.0000
# 5 0.0000 0.0000 0.0000 0.0000 16.2657 0.0000
# 6 0.0000 0.0000 0.0000 0.0000 0.0000 33.7400
#
#
#
# Elastic Compliance Matrix: (Units=1/GPa)
#
#
# Indices 1 2 3 4 5 6 
#
# 1 0.044302 0.003634 -0.033786 -0.000001 0.000000 0.000000
# 2 0.003634 0.022522 -0.029972 0.000000 0.000000 0.000000
# 3 -0.033786 -0.029972 0.085630 0.000001 0.000000 0.000000
# 4 -0.000001 0.000000 0.000001 0.169676 0.000000 0.000000
# 5 0.000000 0.000000 0.000000 0.000000 0.061479 0.000000
# 6 0.000000 0.000000 0.000000 0.000000 0.000000 0.029638
#
#
# Mechanical properties :
#
#
# Convention : Reuss Voigt Hill
#
# Bulk Modulus (GPa) = 31.05058 41.55393 36.30226
# Shear Modulus (GPa) = 9.18726 16.55246 12.86986
#
# Velocity S-wave (km/s) = 2.15198 2.88852 2.54702
# Velocity P-wave (km/s) = 4.67186 5.66311 5.19120
#
# Compressibility (1/GPa) = 0.03220552
#
# Stress axis : x y z
#
# Youngs Moduli (GPa) = 22.57215 44.40027 11.67821
#
# Poissons Ratio (x) = -0.16134 0.39456
# Poissons Ratio (y) = -0.08202 0.35002
# Poissons Ratio (z) = 0.76262 1.33079
#
# Static dielectric constant tensor:
#      x y z
#    x 1.678050 0.000000 0.000000 
#    y 0.000000 1.933200 0.000000 
#    z 0.000000 0.000000 1.728410 
# 
# From -- ./inp_files/2901.got.cif
#   From: 2010.05.17/outbox.cif.g08.bks.cpg/sg43_2_cif.got.tgz:2901.got - 2010.06.03 19:21:55.
