data_PCOD9371729
_publ_section_title
;
Structure prediction by ZEFSAII (Michael W. Deem and Ramdas Pophale) SiO2 
 PCOD9371729
Probable space group: F D D 2
;
_chemical_formula_sum "Si O2"
_cell_formula_units_Z 56
_cell_length_a 12.563402
_cell_length_b 6.365184
_cell_length_c 25.183910
_cell_angle_alpha 90.000000
_cell_angle_beta 90.000000
_cell_angle_gamma 90.000000
_cell_volume 2013.916117
_symmetry_space_group_name_H-M "F D D 2"
_symmetry_group_IT_number 43
_symmetry_cell_setting 'orthorhombic'
loop_
_space_group_symop_operation_xyz
x,y,z
-x,-y,z
1/4-x,1/4+y,1/4+z
1/4+x,1/4-y,1/4+z
x,1/2+y,1/2+z
-x,1/2-y,1/2+z
1/4-x,3/4+y,3/4+z
1/4+x,3/4-y,3/4+z
1/2+x,y,1/2+z
1/2-x,-y,1/2+z
3/4-x,1/4+y,3/4+z
3/4+x,1/4-y,3/4+z
1/2+x,1/2+y,z
1/2-x,1/2-y,z
3/4-x,3/4+y,1/4+z
3/4+x,3/4-y,1/4+z
loop_
_atom_site_type_symbol
_atom_site_label
_atom_site_fract_x
_atom_site_fract_y
_atom_site_fract_z
Si Si1 0.863650 0.639299 0.380000
Si Si2 0.000000 0.000000 0.370139
Si Si3 0.607421 0.120987 0.023813
Si Si4 0.000000 0.000000 0.960888
Si Si5 0.750000 0.250000 0.529990
O O1 0.750000 0.750000 0.380097
O O2 0.899289 0.453772 0.419924
O O3 0.685754 0.586911 0.248544
O O4 0.909385 0.583164 0.321747
O O5 0.910622 0.081876 0.330145
O O6 0.058465 0.176745 0.402439
O O7 0.500000 0.000000 0.031980
O O8 0.555559 0.200093 0.250692
#
# Coordination Sequence:
#
# PCOD9371729 Si02
#       5
#    16   8  16   8   8
#     4  10  22  45  70 100 146 197 244 307 369 459
#     4  10  24  44  78 101 134 204 256 283 368 458
#     4  11  25  43  71 104 145 187 248 320 368 446
#     4  11  28  42  70 117 150 184 246 311 402 434
#     4   9  22  44  70 102 136 202 266 296 374 454
#
# _framework density 27.806522000000001
#
# number of rings (size 3 to 8) (size 9 to 14) (size 15 to 20)
#    0.000    1.714    0.000    1.714   14.000    0.000 
#    0.000    2.857    3.143    0.000    0.000    0.000 
#    0.000    0.000    0.000    0.000    0.000    0.000 
#
# Total GULP energy -78059.857028 kJ/mol
# GULP energy per Si atom -5575.704073 kJ/mol
# Density = 2.774323 g / cm^3
# Si number density = 27.806522 Si / 1000 Ang^3
#
#
#
# Elastic Constant Matrix: (Units=GPa)
#
#
# Indices 1 2 3 4 5 6 
#
# 1 240.5065 88.8643 56.4598 0.0000 0.0000 0.0000
# 2 88.8643 140.1855 50.4074 0.0000 0.0000 0.0000
# 3 56.4598 50.4074 77.3477 0.0000 0.0000 0.0000
# 4 0.0000 0.0000 0.0000 30.8976 0.0000 0.0000
# 5 0.0000 0.0000 0.0000 0.0000 21.2983 0.0000
# 6 0.0000 0.0000 0.0000 0.0000 0.0000 91.6407
#
#
#
# Elastic Compliance Matrix: (Units=1/GPa)
#
#
# Indices 1 2 3 4 5 6 
#
# 1 0.005746 -0.002787 -0.002378 0.000000 0.000000 0.000000
# 2 -0.002787 0.010669 -0.004918 0.000000 0.000000 0.000000
# 3 -0.002378 -0.004918 0.017869 0.000000 0.000000 0.000000
# 4 0.000000 0.000000 0.000000 0.032365 0.000000 0.000000
# 5 0.000000 0.000000 0.000000 0.000000 0.046952 0.000000
# 6 0.000000 0.000000 0.000000 0.000000 0.000000 0.010912
#
#
# Mechanical properties :
#
#
# Convention : Reuss Voigt Hill
#
# Bulk Modulus (GPa) = 70.83365 94.38920 82.61142
# Shear Modulus (GPa) = 33.47029 46.25451 39.86240
#
# Velocity S-wave (km/s) = 3.47318 4.08296 3.79035
# Velocity P-wave (km/s) = 6.45082 7.49974 6.99497
#
# Compressibility (1/GPa) = 0.01411758
#
# Stress axis : x y z
#
# Youngs Moduli (GPa) = 174.03421 93.73084 55.96150
#
# Poissons Ratio (x) = 0.26127 0.13306
# Poissons Ratio (y) = 0.48511 0.27523
# Poissons Ratio (z) = 0.41380 0.46099
#
# Static dielectric constant tensor:
#      x y z
#    x 2.142860 0.000000 0.000000 
#    y 0.000000 2.684250 0.000000 
#    z 0.000000 0.000000 2.221330 
# 
# From -- ./inp_files/17460.got.cif
#   From: 2010.05.17/outbox.cif.g08.bks.cpg/sg43_9_cif.got.tgz:17460.got - 2010.06.03 19:21:55.
