data_PCOD9371223
_publ_section_title
;
Structure prediction by ZEFSAII (Michael W. Deem and Ramdas Pophale) SiO2 
 PCOD9371223
Probable space group: F D D 2
;
_chemical_formula_sum "Si O2"
_cell_formula_units_Z 120
_cell_length_a 18.684716
_cell_length_b 10.890613
_cell_length_c 26.630291
_cell_angle_alpha 90.000000
_cell_angle_beta 90.000000
_cell_angle_gamma 90.000000
_cell_volume 5418.944947
_symmetry_space_group_name_H-M "F D D 2"
_symmetry_group_IT_number 43
_symmetry_cell_setting 'orthorhombic'
loop_
_space_group_symop_operation_xyz
x,y,z
-x,-y,z
1/4-x,1/4+y,1/4+z
1/4+x,1/4-y,1/4+z
x,1/2+y,1/2+z
-x,1/2-y,1/2+z
1/4-x,3/4+y,3/4+z
1/4+x,3/4-y,3/4+z
1/2+x,y,1/2+z
1/2-x,-y,1/2+z
3/4-x,1/4+y,3/4+z
3/4+x,1/4-y,3/4+z
1/2+x,1/2+y,z
1/2-x,1/2-y,z
3/4-x,3/4+y,1/4+z
3/4+x,3/4-y,1/4+z
loop_
_atom_site_type_symbol
_atom_site_label
_atom_site_fract_x
_atom_site_fract_y
_atom_site_fract_z
Si Si1 0.084673 0.510813 0.046300
Si Si2 0.692702 0.991840 0.966064
Si Si3 0.385064 0.063132 0.874534
Si Si4 0.386068 0.607294 0.935212
Si Si5 0.500000 0.000000 0.693349
Si Si6 0.672188 0.050767 0.525527
Si Si7 0.717540 0.941617 0.633504
Si Si8 0.414342 0.476488 0.835248
O O1 0.110207 0.639895 0.070160
O O2 0.128665 0.403609 0.074603
O O3 0.000000 0.500000 0.049895
O O4 0.114758 0.490110 0.990702
O O5 0.715582 0.134699 0.971643
O O6 0.683312 0.939041 0.910769
O O7 0.756144 0.920905 0.993687
O O8 0.450786 0.151296 0.889073
O O9 0.417614 0.928206 0.881740
O O10 0.315391 0.682400 0.916939
O O11 0.371788 0.543680 0.989295
O O12 0.446762 0.709831 0.926219
O O13 0.398180 0.506208 0.893051
O O14 0.633451 0.173807 0.545081
O O15 0.701343 0.994296 0.577793
O O16 0.500000 0.500000 0.830821
#
# Coordination Sequence:
#
# PCOD9371223 Si02
#       8
#    16  16  16  16   8  16  16  16
#     4  12  28  42  64 103 141 180 232 299 349 424
#     4  11  23  43  66 102 133 185 234 284 353 427
#     4  11  24  41  67 101 139 180 226 288 358 422
#     4  10  22  39  73 100 128 176 238 288 342 422
#     4  10  22  38  70  98 132 174 230 284 338 424
#     4  10  22  43  75  94 127 192 239 284 356 429
#     4  10  21  41  69 100 138 179 230 294 350 428
#     4  11  23  49  69  95 144 187 238 292 357 434
#
# _framework density 22.144532000000002
#
# number of rings (size 3 to 8) (size 9 to 14) (size 15 to 20)
#    0.000    1.333    4.000    0.800    9.333    1.067 
#    0.000    1.333    5.867    0.000    0.000    0.000 
#    0.000    0.000    0.000    0.000    0.000    0.000 
#
# Total GULP energy -167225.775891 kJ/mol
# GULP energy per Si atom -5574.192530 kJ/mol
# Density = 2.209413 g / cm^3
# Si number density = 22.144532 Si / 1000 Ang^3
#
#
#
# Elastic Constant Matrix: (Units=GPa)
#
#
# Indices 1 2 3 4 5 6 
#
# 1 50.7133 4.0136 -2.5688 0.0000 0.0000 0.0000
# 2 4.0136 84.5822 29.4741 0.0000 0.0000 0.0000
# 3 -2.5688 29.4741 64.4617 0.0000 0.0000 0.0000
# 4 0.0000 0.0000 0.0000 27.7032 0.0000 0.0000
# 5 0.0000 0.0000 0.0000 0.0000 29.0930 0.0000
# 6 0.0000 0.0000 0.0000 0.0000 0.0000 16.0440
#
#
#
# Elastic Compliance Matrix: (Units=1/GPa)
#
#
# Indices 1 2 3 4 5 6 
#
# 1 0.019907 -0.001453 0.001457 0.000000 0.000000 0.000000
# 2 -0.001453 0.014170 -0.006537 0.000000 0.000000 0.000000
# 3 0.001457 -0.006537 0.018560 0.000000 0.000000 0.000000
# 4 0.000000 0.000000 0.000000 0.036097 0.000000 0.000000
# 5 0.000000 0.000000 0.000000 0.000000 0.034373 0.000000
# 6 0.000000 0.000000 0.000000 0.000000 0.000000 0.062329
#
#
# Mechanical properties :
#
#
# Convention : Reuss Voigt Hill
#
# Bulk Modulus (GPa) = 25.26945 29.06612 27.16779
# Shear Modulus (GPa) = 23.61947 25.82392 24.72169
#
# Velocity S-wave (km/s) = 3.26943 3.41860 3.34485
# Velocity P-wave (km/s) = 5.06835 5.36065 5.21655
#
# Compressibility (1/GPa) = 0.03957347
#
# Stress axis : x y z
#
# Youngs Moduli (GPa) = 50.23238 70.57384 53.87945
#
# Poissons Ratio (x) = 0.10251 -0.07853
# Poissons Ratio (y) = 0.07296 0.35219
# Poissons Ratio (z) = -0.07321 0.46132
#
# Static dielectric constant tensor:
#      x y z
#    x 1.844680 0.000000 0.000000 
#    y 0.000000 1.920790 0.000000 
#    z 0.000000 0.000000 1.804850 
# 
# From -- ./inp_files/26075.got.cif
#   From: 2010.05.17/outbox.cif.g08.bks.cpg/sg43_14_cif.got.tgz:26075.got - 2010.06.03 19:21:55.
