data_PCOD9371621
_publ_section_title
;
Structure prediction by ZEFSAII (Michael W. Deem and Ramdas Pophale) SiO2 
 PCOD9371621
Probable space group: F D D 2
;
_chemical_formula_sum "Si O2"
_cell_formula_units_Z 56
_cell_length_a 25.084909
_cell_length_b 14.992548
_cell_length_c 7.624050
_cell_angle_alpha 90.000000
_cell_angle_beta 90.000000
_cell_angle_gamma 90.000000
_cell_volume 2867.303822
_symmetry_space_group_name_H-M "F D D 2"
_symmetry_group_IT_number 43
_symmetry_cell_setting 'orthorhombic'
loop_
_space_group_symop_operation_xyz
x,y,z
-x,-y,z
1/4-x,1/4+y,1/4+z
1/4+x,1/4-y,1/4+z
x,1/2+y,1/2+z
-x,1/2-y,1/2+z
1/4-x,3/4+y,3/4+z
1/4+x,3/4-y,3/4+z
1/2+x,y,1/2+z
1/2-x,-y,1/2+z
3/4-x,1/4+y,3/4+z
3/4+x,1/4-y,3/4+z
1/2+x,1/2+y,z
1/2-x,1/2-y,z
3/4-x,3/4+y,1/4+z
3/4+x,3/4-y,1/4+z
loop_
_atom_site_type_symbol
_atom_site_label
_atom_site_fract_x
_atom_site_fract_y
_atom_site_fract_z
Si Si1 0.691715 0.039630 0.632970
Si Si2 0.209236 0.070384 0.733377
Si Si3 0.250000 0.250000 0.612509
Si Si4 0.344239 0.833719 0.933961
O O1 0.687427 0.057680 0.426773
O O2 0.674020 0.122182 0.752745
O O3 0.751889 0.009846 0.678667
O O4 0.651891 0.958770 0.677733
O O5 0.255135 0.339311 0.725040
O O6 0.334922 0.908880 0.084539
O O7 0.302413 0.256343 0.491250
#
# Coordination Sequence:
#
# PCOD9371621 Si02
#       4
#    16  16   8  16
#     4  12  22  43  67  93 129 171 215 264 331 368
#     4  10  22  43  66  94 127 170 213 270 311 393
#     4   8  20  46  58  94 130 160 214 262 304 384
#     4  10  24  41  65  95 129 166 215 268 312 395
#
# _framework density 19.530542000000001
#
# number of rings (size 3 to 8) (size 9 to 14) (size 15 to 20)
#    1.714    0.000    2.857    1.714    0.000    3.429 
#    5.143    0.000    0.000    0.000    0.000    0.000 
#    0.000    0.000    0.000    0.000    0.000    0.000 
#
# Total GULP energy -78000.303393 kJ/mol
# GULP energy per Si atom -5571.450242 kJ/mol
# Density = 1.948609 g / cm^3
# Si number density = 19.530542 Si / 1000 Ang^3
#
#
#
# Elastic Constant Matrix: (Units=GPa)
#
#
# Indices 1 2 3 4 5 6 
#
# 1 71.3524 17.2984 43.7130 0.0000 0.0000 0.0000
# 2 17.2984 33.3925 -0.1349 0.0000 0.0000 0.0000
# 3 43.7130 -0.1349 128.3133 0.0000 0.0000 0.0000
# 4 0.0000 0.0000 0.0000 35.0693 0.0000 0.0000
# 5 0.0000 0.0000 0.0000 0.0000 20.8925 0.0000
# 6 0.0000 0.0000 0.0000 0.0000 0.0000 26.0863
#
#
#
# Elastic Compliance Matrix: (Units=1/GPa)
#
#
# Indices 1 2 3 4 5 6 
#
# 1 0.021074 -0.010946 -0.007191 0.000000 0.000000 0.000000
# 2 -0.010946 0.035633 0.003767 0.000000 0.000000 0.000000
# 3 -0.007191 0.003767 0.010247 0.000000 0.000000 0.000000
# 4 0.000000 0.000000 0.000000 0.028515 0.000000 0.000000
# 5 0.000000 0.000000 0.000000 0.000000 0.047864 0.000000
# 6 0.000000 0.000000 0.000000 0.000000 0.000000 0.038334
#
#
# Mechanical properties :
#
#
# Convention : Reuss Voigt Hill
#
# Bulk Modulus (GPa) = 26.16927 39.42346 32.79637
# Shear Modulus (GPa) = 22.40689 27.88841 25.14765
#
# Velocity S-wave (km/s) = 3.39082 3.78291 3.59222
# Velocity P-wave (km/s) = 5.36269 6.26976 5.83388
#
# Compressibility (1/GPa) = 0.03821276
#
# Stress axis : x y z
#
# Youngs Moduli (GPa) = 47.45168 28.06423 97.58831
#
# Poissons Ratio (x) = 0.30719 0.70175
# Poissons Ratio (y) = 0.51941 -0.36757
# Poissons Ratio (z) = 0.34122 -0.10570
#
# Static dielectric constant tensor:
#      x y z
#    x 1.705420 0.000000 0.000000 
#    y 0.000000 1.680120 0.000000 
#    z 0.000000 0.000000 1.654940 
# 
# From -- ./inp_files/1883.got.cif
#   From: 2010.05.17/outbox.cif.g08.bks.cpg/sg43_1_cif.got.tgz:1883.got - 2010.06.03 19:21:55.
