data_PCOD9371195
_publ_section_title
;
Structure prediction by ZEFSAII (Michael W. Deem and Ramdas Pophale) SiO2 
 PCOD9371195
Probable space group: F D D 2
;
_chemical_formula_sum "Si O2"
_cell_formula_units_Z 120
_cell_length_a 7.844847
_cell_length_b 26.573841
_cell_length_c 26.527154
_cell_angle_alpha 90.000000
_cell_angle_beta 90.000000
_cell_angle_gamma 90.000000
_cell_volume 5530.055229
_symmetry_space_group_name_H-M "F D D 2"
_symmetry_group_IT_number 43
_symmetry_cell_setting 'orthorhombic'
loop_
_space_group_symop_operation_xyz
x,y,z
-x,-y,z
1/4-x,1/4+y,1/4+z
1/4+x,1/4-y,1/4+z
x,1/2+y,1/2+z
-x,1/2-y,1/2+z
1/4-x,3/4+y,3/4+z
1/4+x,3/4-y,3/4+z
1/2+x,y,1/2+z
1/2-x,-y,1/2+z
3/4-x,1/4+y,3/4+z
3/4+x,1/4-y,3/4+z
1/2+x,1/2+y,z
1/2-x,1/2-y,z
3/4-x,3/4+y,1/4+z
3/4+x,3/4-y,1/4+z
loop_
_atom_site_type_symbol
_atom_site_label
_atom_site_fract_x
_atom_site_fract_y
_atom_site_fract_z
Si Si1 0.164499 0.032876 0.326640
Si Si2 0.693438 0.516634 0.730475
Si Si3 0.478283 0.272065 0.366253
Si Si4 0.325480 0.322528 0.831392
Si Si5 0.030615 0.617469 0.259356
Si Si6 0.250000 0.750000 0.638934
Si Si7 0.309451 0.140633 0.164172
Si Si8 0.761870 0.637786 0.349571
O O1 0.211215 0.021405 0.268019
O O2 0.336930 0.015109 0.355165
O O3 0.133019 0.090704 0.342648
O O4 0.000000 0.000000 0.339460
O O5 0.500000 0.500000 0.718378
O O6 0.783522 0.522291 0.676844
O O7 0.654239 0.569399 0.758234
O O8 0.523136 0.215349 0.348728
O O9 0.649052 0.299081 0.347156
O O10 0.328177 0.308153 0.346523
O O11 0.348915 0.335237 0.772799
O O12 0.339760 0.373517 0.864099
O O13 0.918095 0.618219 0.209400
O O14 0.891636 0.623630 0.304002
O O15 0.296399 0.700293 0.669792
O O16 0.119537 0.119987 0.151467
#
# Coordination Sequence:
#
# PCOD9371195 Si02
#       8
#    16  16  16  16  16   8  16  16
#     4  11  23  38  66  99 133 170 223 284 350 400
#     4  12  20  42  68  97 127 177 227 286 334 414
#     4  11  23  42  64  95 137 166 225 279 343 401
#     4  10  22  40  66  92 127 178 215 276 337 400
#     4  11  22  40  68  90 127 178 223 262 350 411
#     4  10  22  42  64  94 140 174 220 286 344 402
#     4  10  21  41  64  92 126 178 223 268 342 410
#     4  10  24  39  61  96 134 165 219 288 331 409
#
# _framework density 21.699601000000001
#
# number of rings (size 3 to 8) (size 9 to 14) (size 15 to 20)
#    0.000    1.333    4.667    1.600    3.733    4.267 
#    2.400    0.000    5.867    0.000    0.000    0.000 
#    0.000    0.000    0.000    0.000    0.000    0.000 
#
# Total GULP energy -167251.659383 kJ/mol
# GULP energy per Si atom -5575.055313 kJ/mol
# Density = 2.165021 g / cm^3
# Si number density = 21.699601 Si / 1000 Ang^3
#
#
#
# Elastic Constant Matrix: (Units=GPa)
#
#
# Indices 1 2 3 4 5 6 
#
# 1 64.1624 -0.4232 8.5768 0.0000 0.0000 0.0000
# 2 -0.4232 98.2368 8.4662 0.0000 0.0000 0.0000
# 3 8.5768 8.4662 69.6873 0.0000 0.0000 0.0000
# 4 0.0000 0.0000 0.0000 17.2035 0.0000 0.0000
# 5 0.0000 0.0000 0.0000 0.0000 24.1409 0.0000
# 6 0.0000 0.0000 0.0000 0.0000 0.0000 38.6333
#
#
#
# Elastic Compliance Matrix: (Units=1/GPa)
#
#
# Indices 1 2 3 4 5 6 
#
# 1 0.015852 0.000239 -0.001980 0.000000 0.000000 0.000000
# 2 0.000239 0.010291 -0.001280 0.000000 0.000000 0.000000
# 3 -0.001980 -0.001280 0.014749 0.000000 0.000000 0.000000
# 4 0.000000 0.000000 0.000000 0.058128 0.000000 0.000000
# 5 0.000000 0.000000 0.000000 0.000000 0.041424 0.000000
# 6 0.000000 0.000000 0.000000 0.000000 0.000000 0.025884
#
#
# Mechanical properties :
#
#
# Convention : Reuss Voigt Hill
#
# Bulk Modulus (GPa) = 28.69433 29.48069 29.08751
# Shear Modulus (GPa) = 27.17613 30.36000 28.76806
#
# Velocity S-wave (km/s) = 3.54274 3.74452 3.64502
# Velocity P-wave (km/s) = 5.47602 5.68424 5.58110
#
# Compressibility (1/GPa) = 0.03485009
#
# Stress axis : x y z
#
# Youngs Moduli (GPa) = 63.08475 97.17420 67.80138
#
# Poissons Ratio (x) = -0.02322 0.13425
# Poissons Ratio (y) = -0.01507 0.08676
# Poissons Ratio (z) = 0.12491 0.12435
#
# Static dielectric constant tensor:
#      x y z
#    x 1.793910 0.000000 0.000000 
#    y 0.000000 2.025900 0.000000 
#    z 0.000000 0.000000 1.796360 
# 
# From -- ./inp_files/24457.got.cif
#   From: 2010.05.17/outbox.cif.g08.bks.cpg/sg43_13_cif.got.tgz:24457.got - 2010.06.03 19:21:55.
