data_PCOD9371966
_publ_section_title
;
Structure prediction by ZEFSAII (Michael W. Deem and Ramdas Pophale) SiO2 
 PCOD9371966
Probable space group: F D D 2
;
_chemical_formula_sum "Si O2"
_cell_formula_units_Z 80
_cell_length_a 22.994202
_cell_length_b 16.415651
_cell_length_c 9.204680
_cell_angle_alpha 90.000000
_cell_angle_beta 90.000000
_cell_angle_gamma 90.000000
_cell_volume 3474.442650
_symmetry_space_group_name_H-M "F D D 2"
_symmetry_group_IT_number 43
_symmetry_cell_setting 'orthorhombic'
loop_
_space_group_symop_operation_xyz
x,y,z
-x,-y,z
1/4-x,1/4+y,1/4+z
1/4+x,1/4-y,1/4+z
x,1/2+y,1/2+z
-x,1/2-y,1/2+z
1/4-x,3/4+y,3/4+z
1/4+x,3/4-y,3/4+z
1/2+x,y,1/2+z
1/2-x,-y,1/2+z
3/4-x,1/4+y,3/4+z
3/4+x,1/4-y,3/4+z
1/2+x,1/2+y,z
1/2-x,1/2-y,z
3/4-x,3/4+y,1/4+z
3/4+x,3/4-y,1/4+z
loop_
_atom_site_type_symbol
_atom_site_label
_atom_site_fract_x
_atom_site_fract_y
_atom_site_fract_z
Si Si1 0.250000 0.250000 0.384720
Si Si2 0.272860 0.593607 0.193245
Si Si3 0.361491 0.184756 0.546055
Si Si4 0.034741 0.386582 0.375937
Si Si5 0.250000 0.750000 0.389373
Si Si6 0.459058 0.253593 0.720053
O O1 0.305570 0.228337 0.480425
O O2 0.235637 0.176824 0.275078
O O3 0.336572 0.602498 0.121798
O O4 0.267051 0.676669 0.283279
O O5 0.263105 0.523339 0.312714
O O6 0.230088 0.574110 0.060999
O O7 0.406766 0.161032 0.419093
O O8 0.393159 0.238621 0.669974
O O9 0.044403 0.456840 0.253762
O O10 0.983061 0.329916 0.312358
#
# Coordination Sequence:
#
# PCOD9371966 Si02
#       6
#     8  16  16  16   8  16
#     4  11  25  46  74 114 150 202 254 304 384 450
#     4  11  24  45  72 107 144 195 244 303 372 436
#     4  12  24  43  78 108 155 196 251 311 369 457
#     4  10  23  46  73 110 154 195 251 310 377 441
#     4   9  23  46  70 106 148 188 254 306 362 444
#     4  11  24  47  75 107 148 197 248 302 379 437
#
# _framework density 23.025274
#
# number of rings (size 3 to 8) (size 9 to 14) (size 15 to 20)
#    0.000    1.200    2.000    3.000    0.000    3.200 
#    0.000    4.000    0.000    0.000    0.000    0.000 
#    0.000    0.000    0.000    0.000    0.000    0.000 
#
# Total GULP energy -111579.219693 kJ/mol
# GULP energy per Si atom -5578.960985 kJ/mol
# Density = 2.297287 g / cm^3
# Si number density = 23.025274 Si / 1000 Ang^3
#
#
#
# Elastic Constant Matrix: (Units=GPa)
#
#
# Indices 1 2 3 4 5 6 
#
# 1 145.0657 62.2961 82.5658 0.0000 0.0000 0.0000
# 2 62.2961 113.8324 78.8416 0.0000 0.0000 0.0000
# 3 82.5658 78.8416 178.2276 0.0000 0.0000 0.0000
# 4 0.0000 0.0000 0.0000 62.7131 0.0000 0.0000
# 5 0.0000 0.0000 0.0000 0.0000 32.5069 0.0000
# 6 0.0000 0.0000 0.0000 0.0000 0.0000 32.2742
#
#
#
# Elastic Compliance Matrix: (Units=1/GPa)
#
#
# Indices 1 2 3 4 5 6 
#
# 1 0.010162 -0.003317 -0.003240 0.000000 0.000000 0.000000
# 2 -0.003317 0.013748 -0.004545 0.000000 0.000000 0.000000
# 3 -0.003240 -0.004545 0.009122 0.000000 0.000000 0.000000
# 4 0.000000 0.000000 0.000000 0.015946 0.000000 0.000000
# 5 0.000000 0.000000 0.000000 0.000000 0.030763 0.000000
# 6 0.000000 0.000000 0.000000 0.000000 0.000000 0.030984
#
#
# Mechanical properties :
#
#
# Convention : Reuss Voigt Hill
#
# Bulk Modulus (GPa) = 92.35430 98.28139 95.31784
# Shear Modulus (GPa) = 36.61938 39.72698 38.17318
#
# Velocity S-wave (km/s) = 3.99231 4.15826 4.07613
# Velocity P-wave (km/s) = 7.83890 8.11367 7.97747
#
# Compressibility (1/GPa) = 0.01082787
#
# Stress axis : x y z
#
# Youngs Moduli (GPa) = 98.40404 72.73757 109.61913
#
# Poissons Ratio (x) = 0.24127 0.35521
# Poissons Ratio (y) = 0.32641 0.49822
# Poissons Ratio (z) = 0.31887 0.33059
#
# Static dielectric constant tensor:
#      x y z
#    x 1.828960 0.000000 0.000000 
#    y 0.000000 2.022200 0.000000 
#    z 0.000000 0.000000 1.859010 
# 
# From -- ./inp_files/3188.got.cif
#   From: 2010.05.17/outbox.cif.g08.bks.cpg/sg43_2_cif.got.tgz:3188.got - 2010.06.03 19:21:55.
