data_PCOD9371743
_publ_section_title
;
Structure prediction by ZEFSAII (Michael W. Deem and Ramdas Pophale) SiO2 
 PCOD9371743
Probable space group: F D D 2
;
_chemical_formula_sum "Si O2"
_cell_formula_units_Z 96
_cell_length_a 21.397450
_cell_length_b 9.282824
_cell_length_c 20.916037
_cell_angle_alpha 90.000000
_cell_angle_beta 90.000000
_cell_angle_gamma 90.000000
_cell_volume 4154.526544
_symmetry_space_group_name_H-M "F D D 2"
_symmetry_group_IT_number 43
_symmetry_cell_setting 'orthorhombic'
loop_
_space_group_symop_operation_xyz
x,y,z
-x,-y,z
1/4-x,1/4+y,1/4+z
1/4+x,1/4-y,1/4+z
x,1/2+y,1/2+z
-x,1/2-y,1/2+z
1/4-x,3/4+y,3/4+z
1/4+x,3/4-y,3/4+z
1/2+x,y,1/2+z
1/2-x,-y,1/2+z
3/4-x,1/4+y,3/4+z
3/4+x,1/4-y,3/4+z
1/2+x,1/2+y,z
1/2-x,1/2-y,z
3/4-x,3/4+y,1/4+z
3/4+x,3/4-y,1/4+z
loop_
_atom_site_type_symbol
_atom_site_label
_atom_site_fract_x
_atom_site_fract_y
_atom_site_fract_z
Si Si1 0.564865 0.319334 0.867570
Si Si2 0.212030 0.111907 0.568694
Si Si3 0.016177 0.161097 0.994948
Si Si4 0.139808 0.376137 0.145737
Si Si5 0.814994 0.331641 0.925559
Si Si6 0.002817 0.331170 0.121911
O O1 0.520740 0.249930 0.813422
O O2 0.525284 0.302033 0.933271
O O3 0.574769 0.490598 0.862867
O O4 0.629253 0.236326 0.884066
O O5 0.250000 0.250000 0.598400
O O6 0.181276 0.168460 0.502814
O O7 0.158931 0.020368 0.606506
O O8 0.085569 0.155092 0.966985
O O9 0.005682 0.270523 0.050765
O O10 0.000000 0.000000 0.016024
O O11 0.071042 0.311689 0.151703
O O12 0.750000 0.250000 0.910867
O O13 0.801937 0.496978 0.907087
O O14 0.000000 0.500000 0.120729
#
# Coordination Sequence:
#
# PCOD9371743 Si02
#       6
#    16  16  16  16  16  16
#     4  10  22  45  74  93 141 186 233 277 343 424
#     4  10  24  42  71  99 136 180 229 282 349 406
#     4   9  22  44  71  96 130 186 231 272 347 415
#     4  10  23  46  67 100 132 184 232 277 344 419
#     4  11  24  44  66 105 138 185 227 287 352 415
#     4  12  27  40  63 104 140 172 230 288 345 398
#
# _framework density 23.107326
#
# number of rings (size 3 to 8) (size 9 to 14) (size 15 to 20)
#    0.000    1.667    1.667    2.000    4.667    8.000 
#    0.000    0.000    0.000    0.000    0.000    0.000 
#    0.000    0.000    0.000    0.000    0.000    0.000 
#
# Total GULP energy -133954.438716 kJ/mol
# GULP energy per Si atom -5581.434947 kJ/mol
# Density = 2.305473 g / cm^3
# Si number density = 23.107326 Si / 1000 Ang^3
#
#
#
# Elastic Constant Matrix: (Units=GPa)
#
#
# Indices 1 2 3 4 5 6 
#
# 1 70.1716 -1.5604 -9.7038 0.0000 0.0000 0.0000
# 2 -1.5604 97.4143 -7.1229 0.0000 0.0000 0.0000
# 3 -9.7038 -7.1229 29.6558 0.0000 0.0000 0.0000
# 4 0.0000 0.0000 0.0000 19.2990 0.0000 0.0000
# 5 0.0000 0.0000 0.0000 0.0000 42.6193 0.0000
# 6 0.0000 0.0000 0.0000 0.0000 0.0000 29.7224
#
#
#
# Elastic Compliance Matrix: (Units=1/GPa)
#
#
# Indices 1 2 3 4 5 6 
#
# 1 0.014961 0.000608 0.005042 0.000000 0.000000 0.000000
# 2 0.000608 0.010474 0.002715 0.000000 0.000000 0.000000
# 3 0.005042 0.002715 0.036022 0.000000 0.000000 0.000000
# 4 0.000000 0.000000 0.000000 0.051816 0.000000 0.000000
# 5 0.000000 0.000000 0.000000 0.000000 0.023464 0.000000
# 6 0.000000 0.000000 0.000000 0.000000 0.000000 0.033645
#
#
# Mechanical properties :
#
#
# Convention : Reuss Voigt Hill
#
# Bulk Modulus (GPa) = 12.78995 17.82975 15.30985
# Shear Modulus (GPa) = 27.82194 32.70339 30.26267
#
# Velocity S-wave (km/s) = 3.47368 3.76611 3.62284
# Velocity P-wave (km/s) = 4.65141 5.16180 4.91324
#
# Compressibility (1/GPa) = 0.07818641
#
# Stress axis : x y z
#
# Youngs Moduli (GPa) = 66.83825 95.47751 27.76086
#
# Poissons Ratio (x) = -0.05808 -0.13996
# Poissons Ratio (y) = -0.04066 -0.07536
# Poissons Ratio (z) = -0.33698 -0.25919
#
# Static dielectric constant tensor:
#      x y z
#    x 2.038610 0.000000 0.000000 
#    y 0.000000 1.937310 0.000000 
#    z 0.000000 0.000000 1.863660 
# 
# From -- ./inp_files/20282.got.cif
#   From: 2010.05.17/outbox.cif.g08.bks.cpg/sg43_11_cif.got.tgz:20282.got - 2010.06.03 19:21:55.
