data_PCOD9371549
_publ_section_title
;
Structure prediction by ZEFSAII (Michael W. Deem and Ramdas Pophale) SiO2 
 PCOD9371549
Probable space group: F D D 2
;
_chemical_formula_sum "Si O2"
_cell_formula_units_Z 88
_cell_length_a 19.056076
_cell_length_b 9.610413
_cell_length_c 19.129858
_cell_angle_alpha 90.000000
_cell_angle_beta 90.000000
_cell_angle_gamma 90.000000
_cell_volume 3503.380223
_symmetry_space_group_name_H-M "F D D 2"
_symmetry_group_IT_number 43
_symmetry_cell_setting 'orthorhombic'
loop_
_space_group_symop_operation_xyz
x,y,z
-x,-y,z
1/4-x,1/4+y,1/4+z
1/4+x,1/4-y,1/4+z
x,1/2+y,1/2+z
-x,1/2-y,1/2+z
1/4-x,3/4+y,3/4+z
1/4+x,3/4-y,3/4+z
1/2+x,y,1/2+z
1/2-x,-y,1/2+z
3/4-x,1/4+y,3/4+z
3/4+x,1/4-y,3/4+z
1/2+x,1/2+y,z
1/2-x,1/2-y,z
3/4-x,3/4+y,1/4+z
3/4+x,3/4-y,1/4+z
loop_
_atom_site_type_symbol
_atom_site_label
_atom_site_fract_x
_atom_site_fract_y
_atom_site_fract_z
Si Si1 0.920793 0.952110 0.827070
Si Si2 0.500000 0.000000 0.544071
Si Si3 0.586063 0.809469 0.931229
Si Si4 0.974146 0.343228 0.147657
Si Si5 0.798736 0.531287 0.739883
Si Si6 0.914795 0.898482 0.165916
O O1 0.909505 0.803468 0.867125
O O2 0.869344 0.976284 0.759695
O O3 0.897520 0.055959 0.887381
O O4 0.000000 0.000000 0.810110
O O5 0.510743 0.868227 0.497530
O O6 0.436918 0.989027 0.599100
O O7 0.643135 0.929251 0.917314
O O8 0.504532 0.849018 0.935171
O O9 0.000000 0.500000 0.166567
O O10 0.023549 0.218059 0.176715
O O11 0.968888 0.345458 0.064319
O O12 0.879692 0.497235 0.723633
#
# Coordination Sequence:
#
# PCOD9371549 Si02
#       6
#    16   8  16  16  16  16
#     4  12  24  39  73 108 134 181 247 303 357 443
#     4  10  22  42  64  96 134 184 234 294 358 432
#     4  12  23  43  70 108 141 185 249 306 366 441
#     4  11  23  43  69 109 144 187 240 315 370 426
#     4  11  23  45  71  98 145 187 244 296 370 441
#     4  11  23  43  67  98 139 191 233 297 359 444
#
# _framework density 25.118599
#
# number of rings (size 3 to 8) (size 9 to 14) (size 15 to 20)
#    0.000    0.727    7.273    1.636    0.000    0.000 
#   13.091    0.000    0.000    0.000    0.000    0.000 
#    0.000    0.000    0.000    0.000    0.000    0.000 
#
# Total GULP energy -122492.422056 kJ/mol
# GULP energy per Si atom -5567.837366 kJ/mol
# Density = 2.506143 g / cm^3
# Si number density = 25.118599 Si / 1000 Ang^3
#
#
#
# Elastic Constant Matrix: (Units=GPa)
#
#
# Indices 1 2 3 4 5 6 
#
# 1 159.7399 46.5485 39.4494 0.0000 0.0000 0.0000
# 2 46.5485 108.8402 27.0915 0.0000 0.0000 0.0000
# 3 39.4494 27.0915 77.7517 0.0000 0.0000 0.0000
# 4 0.0000 0.0000 0.0000 -16.0570 0.0000 0.0000
# 5 0.0000 0.0000 0.0000 0.0000 -159.7769 0.0000
# 6 0.0000 0.0000 0.0000 0.0000 0.0000 13.0681
#
#
#
# Elastic Compliance Matrix: (Units=1/GPa)
#
#
# Indices 1 2 3 4 5 6 
#
# 1 0.007758 -0.002560 -0.003044 0.000000 0.000000 0.000000
# 2 -0.002560 0.010905 -0.002501 0.000000 0.000000 0.000000
# 3 -0.003044 -0.002501 0.015277 0.000000 0.000000 0.000000
# 4 0.000000 0.000000 0.000000 -0.062278 0.000000 0.000000
# 5 0.000000 0.000000 0.000000 0.000000 -0.006259 0.000000
# 6 0.000000 0.000000 0.000000 0.000000 0.000000 0.076522
#
#
# Mechanical properties :
#
#
# Convention : Reuss Voigt Hill
#
# Bulk Modulus (GPa) = 56.40070 63.61227 60.00648
# Shear Modulus (GPa) = 78.06865 -17.00367 30.53249
#
# Velocity S-wave (km/s) = 5.58099 -2.60462 3.49023
# Velocity P-wave (km/s) = 8.00203 4.04158 6.33904
#
# Compressibility (1/GPa) = 0.01773028
#
# Stress axis : x y z
#
# Youngs Moduli (GPa) = 128.89903 91.69944 65.45637
#
# Poissons Ratio (x) = 0.23477 0.19926
# Poissons Ratio (y) = 0.33001 0.16369
# Poissons Ratio (z) = 0.39239 0.22932
#
# Static dielectric constant tensor:
#      x y z
#    x 2.553610 0.000000 0.000000 
#    y 0.000000 2.248280 0.000000 
#    z 0.000000 0.000000 2.052900 
# 
# From -- ./inp_files/17041.got.cif
#   From: 2010.05.17/outbox.cif.g08.bks.cpg/sg43_9_cif.got.tgz:17041.got - 2010.06.03 19:21:55.
