data_PCOD9371924
_publ_section_title
;
Structure prediction by ZEFSAII (Michael W. Deem and Ramdas Pophale) SiO2 
 PCOD9371924
Probable space group: F D D 2
;
_chemical_formula_sum "Si O2"
_cell_formula_units_Z 64
_cell_length_a 5.024560
_cell_length_b 17.946971
_cell_length_c 28.248872
_cell_angle_alpha 90.000000
_cell_angle_beta 90.000000
_cell_angle_gamma 90.000000
_cell_volume 2547.359903
_symmetry_space_group_name_H-M "F D D 2"
_symmetry_group_IT_number 43
_symmetry_cell_setting 'orthorhombic'
loop_
_space_group_symop_operation_xyz
x,y,z
-x,-y,z
1/4-x,1/4+y,1/4+z
1/4+x,1/4-y,1/4+z
x,1/2+y,1/2+z
-x,1/2-y,1/2+z
1/4-x,3/4+y,3/4+z
1/4+x,3/4-y,3/4+z
1/2+x,y,1/2+z
1/2-x,-y,1/2+z
3/4-x,1/4+y,3/4+z
3/4+x,1/4-y,3/4+z
1/2+x,1/2+y,z
1/2-x,1/2-y,z
3/4-x,3/4+y,1/4+z
3/4+x,3/4-y,1/4+z
loop_
_atom_site_type_symbol
_atom_site_label
_atom_site_fract_x
_atom_site_fract_y
_atom_site_fract_z
Si Si1 0.402891 0.320496 0.258480
Si Si2 0.131840 0.168671 0.076089
Si Si3 0.755027 0.051494 0.212893
Si Si4 0.851422 0.405606 0.107336
O O1 0.250000 0.250000 0.235758
O O2 0.172403 0.377238 0.276222
O O3 0.633520 0.367324 0.231739
O O4 0.523214 0.298462 0.310085
O O5 0.250000 0.250000 0.072953
O O6 0.345325 0.119812 0.104883
O O7 0.844754 0.164990 0.100398
O O8 0.726787 0.058959 0.156426
O O9 0.500000 0.000000 0.225094
O O10 0.000000 0.000000 0.227534
#
# Coordination Sequence:
#
# PCOD9371924 Si02
#       4
#    16  16  16  16
#     4  10  27  47  80 115 160 213 272 343 416 492
#     4  10  23  44  77 110 150 209 264 327 415 488
#     4  12  28  48  78 118 161 215 276 341 420 512
#     4  10  24  44  77 108 157 204 266 330 406 492
#
# _framework density 25.124051000000001
#
# number of rings (size 3 to 8) (size 9 to 14) (size 15 to 20)
#    1.500    0.000    0.000    3.000   10.500    1.000 
#    0.000    2.500    0.000    0.000    0.000    0.000 
#    0.000    0.000    0.000    0.000    0.000    0.000 
#
# Total GULP energy -89190.346566 kJ/mol
# GULP energy per Si atom -5574.396660 kJ/mol
# Density = 2.506687 g / cm^3
# Si number density = 25.124051 Si / 1000 Ang^3
#
#
#
# Elastic Constant Matrix: (Units=GPa)
#
#
# Indices 1 2 3 4 5 6 
#
# 1 175.2741 68.8340 18.8446 0.0000 0.0000 0.0000
# 2 68.8340 151.4636 28.1495 0.0000 0.0000 0.0000
# 3 18.8446 28.1495 78.2943 0.0000 0.0000 0.0000
# 4 0.0000 0.0000 0.0000 16.6537 0.0000 0.0000
# 5 0.0000 0.0000 0.0000 0.0000 -5.6848 0.0000
# 6 0.0000 0.0000 0.0000 0.0000 0.0000 50.8975
#
#
#
# Elastic Compliance Matrix: (Units=1/GPa)
#
#
# Indices 1 2 3 4 5 6 
#
# 1 0.006969 -0.003060 -0.000577 0.000000 0.000000 0.000000
# 2 -0.003060 0.008418 -0.002290 0.000000 0.000000 0.000000
# 3 -0.000577 -0.002290 0.013735 0.000000 0.000000 0.000000
# 4 0.000000 0.000000 0.000000 0.060047 0.000000 0.000000
# 5 0.000000 0.000000 0.000000 0.000000 -0.175906 0.000000
# 6 0.000000 0.000000 0.000000 0.000000 0.000000 0.019647
#
#
# Mechanical properties :
#
#
# Convention : Reuss Voigt Hill
#
# Bulk Modulus (GPa) = 57.91230 70.74313 64.32772
# Shear Modulus (GPa) = -101.05253 31.65351 -34.69951
#
# Velocity S-wave (km/s) = -6.34892 3.55334 -3.72038
# Velocity P-wave (km/s) = 5.53574 6.71220 2.68414
#
# Compressibility (1/GPa) = 0.01726749
#
# Stress axis : x y z
#
# Youngs Moduli (GPa) = 143.49060 118.78625 72.80833
#
# Poissons Ratio (x) = 0.36347 0.04203
# Poissons Ratio (y) = 0.43907 0.16675
# Poissons Ratio (z) = 0.08283 0.27205
#
# Static dielectric constant tensor:
#      x y z
#    x 2.136180 0.000000 0.000000 
#    y 0.000000 2.048800 0.000000 
#    z 0.000000 0.000000 2.010680 
# 
# From -- ./inp_files/27085.got.cif
#   From: 2010.05.17/outbox.cif.g08.bks.cpg/sg43_14_cif.got.tgz:27085.got - 2010.06.03 19:21:55.
