data_PCOD9371783
_publ_section_title
;
Structure prediction by ZEFSAII (Michael W. Deem and Ramdas Pophale) SiO2 
 PCOD9371783
Probable space group: F D D 2
;
_chemical_formula_sum "Si O2"
_cell_formula_units_Z 72
_cell_length_a 26.260720
_cell_length_b 17.951949
_cell_length_c 7.507105
_cell_angle_alpha 90.000000
_cell_angle_beta 90.000000
_cell_angle_gamma 90.000000
_cell_volume 3539.082814
_symmetry_space_group_name_H-M "F D D 2"
_symmetry_group_IT_number 43
_symmetry_cell_setting 'orthorhombic'
loop_
_space_group_symop_operation_xyz
x,y,z
-x,-y,z
1/4-x,1/4+y,1/4+z
1/4+x,1/4-y,1/4+z
x,1/2+y,1/2+z
-x,1/2-y,1/2+z
1/4-x,3/4+y,3/4+z
1/4+x,3/4-y,3/4+z
1/2+x,y,1/2+z
1/2-x,-y,1/2+z
3/4-x,1/4+y,3/4+z
3/4+x,1/4-y,3/4+z
1/2+x,1/2+y,z
1/2-x,1/2-y,z
3/4-x,3/4+y,1/4+z
3/4+x,3/4-y,1/4+z
loop_
_atom_site_type_symbol
_atom_site_label
_atom_site_fract_x
_atom_site_fract_y
_atom_site_fract_z
Si Si1 0.313530 0.974174 0.711290
Si Si2 0.751803 0.411056 0.386334
Si Si3 0.181558 0.781091 0.900851
Si Si4 0.750000 0.250000 0.568420
Si Si5 0.224556 0.632395 0.017392
O O1 0.277968 0.960978 0.538369
O O2 0.371576 0.961983 0.656730
O O3 0.298297 0.911469 0.852881
O O4 0.300354 0.050593 0.816733
O O5 0.749631 0.326218 0.456323
O O6 0.783220 0.408496 0.203063
O O7 0.202613 0.758698 0.705454
O O8 0.197600 0.712296 0.025411
O O9 0.216060 0.849905 0.969609
#
# Coordination Sequence:
#
# PCOD9371783 Si02
#       5
#    16  16  16   8  16
#     4  12  25  42  72 104 137 180 234 297 342 417
#     4  12  24  45  69 100 141 179 230 293 348 413
#     4  10  23  45  71  97 143 186 229 283 362 417
#     4  10  22  48  72  96 142 194 230 284 356 438
#     4  10  23  46  66 100 140 179 230 290 344 427
#
# _framework density 20.344252999999998
#
# number of rings (size 3 to 8) (size 9 to 14) (size 15 to 20)
#    0.000    1.333    6.667    1.333    3.111    1.778 
#    4.000    0.000    0.000    0.000    0.000    0.000 
#    0.000    0.000    0.000    0.000    0.000    0.000 
#
# Total GULP energy -100403.227248 kJ/mol
# GULP energy per Si atom -5577.957069 kJ/mol
# Density = 2.029795 g / cm^3
# Si number density = 20.344253 Si / 1000 Ang^3
#
#
#
# Elastic Constant Matrix: (Units=GPa)
#
#
# Indices 1 2 3 4 5 6 
#
# 1 135.4987 45.5639 56.0619 0.0000 0.0000 0.0000
# 2 45.5639 97.4716 47.2686 0.0000 0.0000 0.0000
# 3 56.0619 47.2686 137.4164 -0.0001 0.0000 0.0000
# 4 0.0000 0.0000 -0.0001 38.3124 0.0000 0.0000
# 5 0.0000 0.0000 0.0000 0.0000 -0.6124 0.0000
# 6 0.0000 0.0000 0.0000 0.0000 0.0000 11.8649
#
#
#
# Elastic Compliance Matrix: (Units=1/GPa)
#
#
# Indices 1 2 3 4 5 6 
#
# 1 0.009604 -0.003108 -0.002849 0.000000 0.000000 0.000000
# 2 -0.003108 0.013319 -0.003314 0.000000 0.000000 0.000000
# 3 -0.002849 -0.003314 0.009579 0.000000 0.000000 0.000000
# 4 0.000000 0.000000 0.000000 0.026101 -0.000001 0.000000
# 5 0.000000 0.000000 0.000000 -0.000001 -1.632930 0.000000
# 6 0.000000 0.000000 0.000000 0.000000 0.000000 0.084282
#
#
# Mechanical properties :
#
#
# Convention : Reuss Voigt Hill
#
# Bulk Modulus (GPa) = 71.62636 74.24172 72.93404
# Shear Modulus (GPa) = -3.40867 24.67914 10.63524
#
# Velocity S-wave (km/s) = -1.29581 3.48670 2.28888
# Velocity P-wave (km/s) = 5.74846 7.26508 6.55081
#
# Compressibility (1/GPa) = 0.01396134
#
# Stress axis : x y z
#
# Youngs Moduli (GPa) = 104.12323 75.08017 104.39136
#
# Poissons Ratio (x) = 0.23333 0.29742
# Poissons Ratio (y) = 0.32359 0.34591
# Poissons Ratio (z) = 0.29666 0.24879
#
# Static dielectric constant tensor:
#      x y z
#    x 1.721170 0.000000 0.000000 
#    y 0.000000 1.787660 0.000000 
#    z 0.000000 0.000000 1.719540 
# 
# From -- ./inp_files/3258.got.cif
#   From: 2010.05.17/outbox.cif.g08.bks.cpg/sg43_2_cif.got.tgz:3258.got - 2010.06.03 19:21:55.
