data_PCOD9371933
_publ_section_title
;
Structure prediction by ZEFSAII (Michael W. Deem and Ramdas Pophale) SiO2 
 PCOD9371933
Probable space group: F D D 2
;
_chemical_formula_sum "Si O2"
_cell_formula_units_Z 112
_cell_length_a 33.512654
_cell_length_b 14.885530
_cell_length_c 9.683260
_cell_angle_alpha 90.000000
_cell_angle_beta 90.000000
_cell_angle_gamma 90.000000
_cell_volume 4830.529270
_symmetry_space_group_name_H-M "F D D 2"
_symmetry_group_IT_number 43
_symmetry_cell_setting 'orthorhombic'
loop_
_space_group_symop_operation_xyz
x,y,z
-x,-y,z
1/4-x,1/4+y,1/4+z
1/4+x,1/4-y,1/4+z
x,1/2+y,1/2+z
-x,1/2-y,1/2+z
1/4-x,3/4+y,3/4+z
1/4+x,3/4-y,3/4+z
1/2+x,y,1/2+z
1/2-x,-y,1/2+z
3/4-x,1/4+y,3/4+z
3/4+x,1/4-y,3/4+z
1/2+x,1/2+y,z
1/2-x,1/2-y,z
3/4-x,3/4+y,1/4+z
3/4+x,3/4-y,1/4+z
loop_
_atom_site_type_symbol
_atom_site_label
_atom_site_fract_x
_atom_site_fract_y
_atom_site_fract_z
Si Si1 0.632857 0.630672 0.385410
Si Si2 0.239878 0.440207 0.996922
Si Si3 0.714706 0.071382 0.761668
Si Si4 0.909249 0.886724 0.850680
Si Si5 0.750000 0.750000 0.848852
Si Si6 0.170461 0.319106 0.421491
Si Si7 0.250000 0.250000 0.363499
Si Si8 0.588765 0.996324 0.086975
O O1 0.669175 0.578191 0.310493
O O2 0.600023 0.642971 0.266092
O O3 0.649372 0.722999 0.445640
O O4 0.612284 0.572636 0.503447
O O5 0.272838 0.462632 0.111566
O O6 0.195508 0.431292 0.063144
O O7 0.237371 0.510873 0.873754
O O8 0.248369 0.341588 0.936591
O O9 0.729711 0.174030 0.770947
O O10 0.866041 0.841694 0.829311
O O11 0.913520 0.970435 0.746193
O O12 0.915206 0.911158 0.009900
O O13 0.706338 0.742179 0.778923
O O14 0.216659 0.301130 0.450004
#
# Coordination Sequence:
#
# PCOD9371933 Si02
#       8
#    16  16  16  16   8  16   8  16
#     4  11  25  43  67 101 137 181 224 294 347 413
#     4  11  24  46  70 104 139 184 237 294 350 421
#     4  11  24  46  71 101 140 180 234 296 349 417
#     4  11  23  43  71  98 137 182 232 284 347 427
#     4  10  27  45  74 102 141 195 232 288 355 439
#     4  11  24  42  70  97 134 183 233 278 350 421
#     4  10  23  45  68  96 137 183 228 288 349 417
#     4  11  24  46  68 100 143 178 232 290 356 404
#
# _framework density 23.185865
#
# number of rings (size 3 to 8) (size 9 to 14) (size 15 to 20)
#    0.000    1.143    2.857    2.143   10.000    2.857 
#    5.143    0.000    0.000    0.000    0.000    0.000 
#    0.000    0.000    0.000    0.000    0.000    0.000 
#
# Total GULP energy -156649.825163 kJ/mol
# GULP energy per Si atom -5594.636613 kJ/mol
# Density = 2.313309 g / cm^3
# Si number density = 23.185865 Si / 1000 Ang^3
#
#
#
# Elastic Constant Matrix: (Units=GPa)
#
#
# Indices 1 2 3 4 5 6 
#
# 1 132.8559 21.9167 4.0263 0.0000 0.0000 0.0000
# 2 21.9167 55.1820 6.4774 0.0000 0.0000 0.0000
# 3 4.0263 6.4774 49.8921 0.0000 0.0000 0.0000
# 4 0.0000 0.0000 0.0000 22.5183 0.0000 0.0000
# 5 0.0000 0.0000 0.0000 0.0000 23.6753 0.0000
# 6 0.0000 0.0000 0.0000 0.0000 0.0000 35.7006
#
#
#
# Elastic Compliance Matrix: (Units=1/GPa)
#
#
# Indices 1 2 3 4 5 6 
#
# 1 0.008057 -0.003172 -0.000238 0.000000 0.000000 0.000000
# 2 -0.003172 0.019651 -0.002295 0.000000 0.000000 0.000000
# 3 -0.000238 -0.002295 0.020360 0.000000 0.000000 0.000000
# 4 0.000000 0.000000 0.000000 0.044408 0.000000 0.000000
# 5 0.000000 0.000000 0.000000 0.000000 0.042238 0.000000
# 6 0.000000 0.000000 0.000000 0.000000 0.000000 0.028011
#
#
# Mechanical properties :
#
#
# Convention : Reuss Voigt Hill
#
# Bulk Modulus (GPa) = 27.27963 33.64119 30.46041
# Shear Modulus (GPa) = 26.83020 30.07950 28.45485
#
# Velocity S-wave (km/s) = 3.40542 3.60574 3.50701
# Velocity P-wave (km/s) = 5.22051 5.64588 5.43736
#
# Compressibility (1/GPa) = 0.03665739
#
# Stress axis : x y z
#
# Youngs Moduli (GPa) = 124.10821 50.88747 49.11476
#
# Poissons Ratio (x) = 0.16143 0.01171
# Poissons Ratio (y) = 0.39370 0.11273
# Poissons Ratio (z) = 0.02959 0.11680
#
# Static dielectric constant tensor:
#      x y z
#    x 1.919700 0.000000 0.000000 
#    y 0.000000 1.845250 0.000000 
#    z 0.000000 0.000000 1.851780 
# 
# From -- ./inp_files/8325.got.cif
#   From: 2010.05.17/outbox.cif.g08.bks.cpg/sg43_5_cif.got.tgz:8325.got - 2010.06.03 19:21:55.
