data_PCOD9371335
_publ_section_title
;
Structure prediction by ZEFSAII (Michael W. Deem and Ramdas Pophale) SiO2 
 PCOD9371335
Probable space group: F D D 2
;
_chemical_formula_sum "Si O2"
_cell_formula_units_Z 88
_cell_length_a 29.806650
_cell_length_b 19.418439
_cell_length_c 7.309104
_cell_angle_alpha 90.000000
_cell_angle_beta 90.000000
_cell_angle_gamma 90.000000
_cell_volume 4230.499271
_symmetry_space_group_name_H-M "F D D 2"
_symmetry_group_IT_number 43
_symmetry_cell_setting 'orthorhombic'
loop_
_space_group_symop_operation_xyz
x,y,z
-x,-y,z
1/4-x,1/4+y,1/4+z
1/4+x,1/4-y,1/4+z
x,1/2+y,1/2+z
-x,1/2-y,1/2+z
1/4-x,3/4+y,3/4+z
1/4+x,3/4-y,3/4+z
1/2+x,y,1/2+z
1/2-x,-y,1/2+z
3/4-x,1/4+y,3/4+z
3/4+x,1/4-y,3/4+z
1/2+x,1/2+y,z
1/2-x,1/2-y,z
3/4-x,3/4+y,1/4+z
3/4+x,3/4-y,1/4+z
loop_
_atom_site_type_symbol
_atom_site_label
_atom_site_fract_x
_atom_site_fract_y
_atom_site_fract_z
Si Si1 0.077215 0.716269 0.461360
Si Si2 0.679655 0.220246 0.469250
Si Si3 0.821791 0.375870 0.126251
Si Si4 0.772393 0.126558 0.975785
Si Si5 0.000000 0.000000 0.006431
Si Si6 0.173830 0.878939 0.349722
O O1 0.128672 0.698802 0.515620
O O2 0.073230 0.798140 0.462718
O O3 0.043173 0.681014 0.597903
O O4 0.068484 0.684878 0.259171
O O5 0.689460 0.180380 0.281109
O O6 0.717006 0.207720 0.622138
O O7 0.679412 0.302410 0.433608
O O8 0.871300 0.362735 0.046709
O O9 0.781113 0.376955 0.986951
O O10 0.780386 0.200866 0.882793
O O11 0.794072 0.117759 0.175330
#
# Coordination Sequence:
#
# PCOD9371335 Si02
#       6
#    16  16  16  16   8  16
#     4  10  24  44  64  96 133 175 215 280 343 397
#     4  10  21  45  68  90 136 175 223 277 332 402
#     4  10  24  42  67  95 130 179 221 277 340 396
#     4  12  25  39  69  99 130 171 227 271 340 406
#     4  12  24  40  72 104 130 178 234 272 338 412
#     4  10  22  47  64  90 136 173 221 280 332 406
#
# _framework density 20.801327000000001
#
# number of rings (size 3 to 8) (size 9 to 14) (size 15 to 20)
#    0.000    1.455    1.818    2.182    5.091    0.000 
#    0.000    0.000    0.000    0.000    0.000    0.000 
#    0.000    0.000    0.000    0.000    0.000    0.000 
#
# Total GULP energy -122941.072814 kJ/mol
# GULP energy per Si atom -5588.230582 kJ/mol
# Density = 2.075398 g / cm^3
# Si number density = 20.801327 Si / 1000 Ang^3
#
#
#
# Elastic Constant Matrix: (Units=GPa)
#
#
# Indices 1 2 3 4 5 6 
#
# 1 78.0445 -11.0898 41.0151 0.0000 0.0000 0.0000
# 2 -11.0898 38.4100 -5.7999 0.0000 0.0000 0.0000
# 3 41.0151 -5.7999 61.2703 0.0000 0.0000 0.0000
# 4 0.0000 0.0000 0.0000 28.1515 0.0000 0.0000
# 5 0.0000 0.0000 0.0000 0.0000 35.3360 0.0000
# 6 0.0000 0.0000 0.0000 0.0000 0.0000 25.5485
#
#
#
# Elastic Compliance Matrix: (Units=1/GPa)
#
#
# Indices 1 2 3 4 5 6 
#
# 1 0.020318 0.003868 -0.013235 0.000000 0.000000 0.000000
# 2 0.003868 0.027149 -0.000019 0.000000 0.000000 0.000000
# 3 -0.013235 -0.000019 0.025179 0.000000 0.000000 0.000000
# 4 0.000000 0.000000 0.000000 0.035522 0.000000 0.000000
# 5 0.000000 0.000000 0.000000 0.000000 0.028300 0.000000
# 6 0.000000 0.000000 0.000000 0.000000 0.000000 0.039141
#
#
# Mechanical properties :
#
#
# Convention : Reuss Voigt Hill
#
# Bulk Modulus (GPa) = 18.56220 25.10838 21.83529
# Shear Modulus (GPa) = 23.54712 28.04717 25.79715
#
# Velocity S-wave (km/s) = 3.36817 3.67595 3.52542
# Velocity P-wave (km/s) = 4.90602 5.48759 5.20493
#
# Compressibility (1/GPa) = 0.05387293
#
# Stress axis : x y z
#
# Youngs Moduli (GPa) = 49.21651 36.83415 39.71542
#
# Poissons Ratio (x) = -0.14247 0.52564
# Poissons Ratio (y) = -0.19036 0.00076
# Poissons Ratio (z) = 0.65139 0.00071
#
# Static dielectric constant tensor:
#      x y z
#    x 1.764620 0.000000 0.000000 
#    y 0.000000 1.755650 0.000000 
#    z 0.000000 0.000000 1.722830 
# 
# From -- ./inp_files/1399.got.cif
#   From: 2010.05.17/outbox.cif.g08.bks.cpg/sg43_1_cif.got.tgz:1399.got - 2010.06.03 19:21:55.
