data_PCOD9371143
_publ_section_title
;
Structure prediction by ZEFSAII (Michael W. Deem and Ramdas Pophale) SiO2 
 PCOD9371143
Probable space group: F D D 2
;
_chemical_formula_sum "Si O2"
_cell_formula_units_Z 104
_cell_length_a 13.840988
_cell_length_b 15.388694
_cell_length_c 20.798528
_cell_angle_alpha 90.000000
_cell_angle_beta 90.000000
_cell_angle_gamma 90.000000
_cell_volume 4429.976835
_symmetry_space_group_name_H-M "F D D 2"
_symmetry_group_IT_number 43
_symmetry_cell_setting 'orthorhombic'
loop_
_space_group_symop_operation_xyz
x,y,z
-x,-y,z
1/4-x,1/4+y,1/4+z
1/4+x,1/4-y,1/4+z
x,1/2+y,1/2+z
-x,1/2-y,1/2+z
1/4-x,3/4+y,3/4+z
1/4+x,3/4-y,3/4+z
1/2+x,y,1/2+z
1/2-x,-y,1/2+z
3/4-x,1/4+y,3/4+z
3/4+x,1/4-y,3/4+z
1/2+x,1/2+y,z
1/2-x,1/2-y,z
3/4-x,3/4+y,1/4+z
3/4+x,3/4-y,1/4+z
loop_
_atom_site_type_symbol
_atom_site_label
_atom_site_fract_x
_atom_site_fract_y
_atom_site_fract_z
Si Si1 0.000000 0.500000 0.800290
Si Si2 0.839319 0.958816 0.399397
Si Si3 0.500000 0.000000 0.109776
Si Si4 0.148937 0.374241 0.347304
Si Si5 0.677549 0.065260 0.032723
Si Si6 0.500000 0.500000 0.824062
Si Si7 0.388165 0.295511 0.973170
Si Si8 0.188393 0.471826 0.652646
O O1 0.092995 0.497081 0.847308
O O2 0.019605 0.408220 0.765231
O O3 0.739163 0.931749 0.367742
O O4 0.822307 0.996549 0.470030
O O5 0.902304 0.873506 0.417069
O O6 0.429318 0.941065 0.065454
O O7 0.571832 0.949032 0.159543
O O8 0.047668 0.423194 0.363985
O O9 0.145737 0.370716 0.269505
O O10 0.147835 0.285180 0.384602
O O11 0.747383 0.031468 0.088470
O O12 0.585692 0.521316 0.773438
O O13 0.492905 0.260128 0.956669
#
# Coordination Sequence:
#
# PCOD9371143 Si02
#       8
#     8  16   8  16  16   8  16  16
#     4  10  25  44  61  98 125 177 226 260 344 404
#     4  11  24  41  64  93 133 175 216 273 332 406
#     4   9  17  42  66  96 122 169 223 280 326 379
#     4  10  21  40  63  97 126 170 217 266 335 399
#     4  10  23  40  63  95 131 169 220 272 335 392
#     4   7  18  40  61  94 123 166 217 260 322 387
#     4   8  18  39  64  89 126 166 212 278 326 383
#     4  10  22  40  62  94 127 173 216 266 335 393
#
# _framework density 23.476421999999999
#
# number of rings (size 3 to 8) (size 9 to 14) (size 15 to 20)
#    0.923    1.538    0.000    0.923    4.308    2.462 
#   16.615    0.000    0.000    0.000    0.000    0.000 
#    0.000    0.000    0.000    0.000    0.000    0.000 
#
# Total GULP energy -144807.895576 kJ/mol
# GULP energy per Si atom -5569.534445 kJ/mol
# Density = 2.342299 g / cm^3
# Si number density = 23.476422 Si / 1000 Ang^3
#
#
#
# Elastic Constant Matrix: (Units=GPa)
#
#
# Indices 1 2 3 4 5 6 
#
# 1 99.9742 13.5255 28.1600 0.0000 0.0000 0.0000
# 2 13.5255 30.2180 -14.6126 0.0000 0.0000 0.0000
# 3 28.1600 -14.6126 60.1728 0.0000 0.0000 0.0000
# 4 0.0000 0.0000 0.0000 -19.3166 0.0000 0.0000
# 5 0.0000 0.0000 0.0000 0.0000 64.6970 0.0000
# 6 0.0000 0.0000 0.0000 0.0000 0.0000 22.0537
#
#
#
# Elastic Compliance Matrix: (Units=1/GPa)
#
#
# Indices 1 2 3 4 5 6 
#
# 1 0.014036 -0.010717 -0.009171 0.000000 0.000000 0.000000
# 2 -0.010717 0.045680 0.016109 0.000000 0.000000 0.000000
# 3 -0.009171 0.016109 0.024823 0.000000 0.000000 0.000000
# 4 0.000000 0.000000 0.000000 -0.051769 0.000000 0.000000
# 5 0.000000 0.000000 0.000000 0.000000 0.015457 0.000000
# 6 0.000000 0.000000 0.000000 0.000000 0.000000 0.045344
#
#
# Mechanical properties :
#
#
# Convention : Reuss Voigt Hill
#
# Bulk Modulus (GPa) = 12.99071 27.16787 20.07929
# Shear Modulus (GPa) = 39.43561 24.37296 31.90429
#
# Velocity S-wave (km/s) = 4.10298 3.22559 3.69045
# Velocity P-wave (km/s) = 5.29069 5.04679 5.17018
#
# Compressibility (1/GPa) = 0.07697807
#
# Stress axis : x y z
#
# Youngs Moduli (GPa) = 71.24633 21.89165 40.28574
#
# Poissons Ratio (x) = 0.23462 0.36947
# Poissons Ratio (y) = 0.76357 -0.64895
# Poissons Ratio (z) = 0.65341 -0.35264
#
# Static dielectric constant tensor:
#      x y z
#    x 1.858580 0.000000 0.000000 
#    y 0.000000 1.951630 0.000000 
#    z 0.000000 0.000000 1.902110 
# 
# From -- ./inp_files/17693.got.cif
#   From: 2010.05.17/outbox.cif.g08.bks.cpg/sg43_9_cif.got.tgz:17693.got - 2010.06.03 19:21:55.
