data_PCOD9371767
_publ_section_title
;
Structure prediction by ZEFSAII (Michael W. Deem and Ramdas Pophale) SiO2 
 PCOD9371767
Probable space group: F D D 2
;
_chemical_formula_sum "Si O2"
_cell_formula_units_Z 72
_cell_length_a 22.061115
_cell_length_b 22.803007
_cell_length_c 6.186555
_cell_angle_alpha 90.000000
_cell_angle_beta 90.000000
_cell_angle_gamma 90.000000
_cell_volume 3112.206872
_symmetry_space_group_name_H-M "F D D 2"
_symmetry_group_IT_number 43
_symmetry_cell_setting 'orthorhombic'
loop_
_space_group_symop_operation_xyz
x,y,z
-x,-y,z
1/4-x,1/4+y,1/4+z
1/4+x,1/4-y,1/4+z
x,1/2+y,1/2+z
-x,1/2-y,1/2+z
1/4-x,3/4+y,3/4+z
1/4+x,3/4-y,3/4+z
1/2+x,y,1/2+z
1/2-x,-y,1/2+z
3/4-x,1/4+y,3/4+z
3/4+x,1/4-y,3/4+z
1/2+x,1/2+y,z
1/2-x,1/2-y,z
3/4-x,3/4+y,1/4+z
3/4+x,3/4-y,1/4+z
loop_
_atom_site_type_symbol
_atom_site_label
_atom_site_fract_x
_atom_site_fract_y
_atom_site_fract_z
Si Si1 0.921339 0.711441 0.185010
Si Si2 0.728091 0.142895 0.647462
Si Si3 0.846802 0.788819 0.499824
Si Si4 0.053202 0.210337 0.821157
Si Si5 0.000000 0.500000 0.098436
O O1 0.932771 0.643380 0.236647
O O2 0.871789 0.737982 0.343275
O O3 0.989169 0.736075 0.239480
O O4 0.912028 0.739041 0.950552
O O5 0.690684 0.166406 0.850787
O O6 0.780513 0.096192 0.705790
O O7 0.756196 0.194987 0.508375
O O8 0.906312 0.812165 0.623010
O O9 0.804188 0.763496 0.684901
#
# Coordination Sequence:
#
# PCOD9371767 Si02
#       5
#    16  16  16  16   8
#     4  10  22  46  75 111 145 200 260 314 382 454
#     4  10  26  48  75 114 158 201 261 318 388 467
#     4  12  25  47  76 114 158 202 256 317 392 467
#     4  10  22  46  79 108 150 199 256 315 386 454
#     4  12  28  50  70 116 160 214 248 320 396 458
#
# _framework density 23.134708
#
# number of rings (size 3 to 8) (size 9 to 14) (size 15 to 20)
#    1.333    0.000    2.222    2.000    3.111    5.333 
#   16.000    0.000    0.000    0.000    0.000    0.000 
#    0.000    0.000    0.000    0.000    0.000    0.000 
#
# Total GULP energy -100464.573748 kJ/mol
# GULP energy per Si atom -5581.365208 kJ/mol
# Density = 2.308205 g / cm^3
# Si number density = 23.134708 Si / 1000 Ang^3
#
#
#
# Elastic Constant Matrix: (Units=GPa)
#
#
# Indices 1 2 3 4 5 6 
#
# 1 72.6289 18.6838 32.6148 0.0087 -0.0315 -0.0347
# 2 18.6838 117.9767 43.2137 0.0094 -0.0099 -0.0162
# 3 32.6148 43.2137 95.5006 0.0225 -0.0413 -0.0366
# 4 0.0087 0.0094 0.0225 32.1283 -0.0099 -0.0081
# 5 -0.0315 -0.0099 -0.0413 -0.0099 50.1798 0.0492
# 6 -0.0347 -0.0162 -0.0366 -0.0081 0.0492 -6.9251
#
#
#
# Elastic Compliance Matrix: (Units=1/GPa)
#
#
# Indices 1 2 3 4 5 6 
#
# 1 0.016304 -0.000650 -0.005274 -0.000001 0.000006 -0.000052
# 2 -0.000650 0.010186 -0.004387 0.000000 -0.000002 0.000003
# 3 -0.005274 -0.004387 0.014257 -0.000007 0.000008 -0.000039
# 4 -0.000001 0.000000 -0.000007 0.031125 0.000006 -0.000036
# 5 0.000006 -0.000002 0.000008 0.000006 0.019928 0.000141
# 6 -0.000052 0.000003 -0.000039 -0.000036 0.000141 -0.144400
#
#
# Mechanical properties :
#
#
# Convention : Reuss Voigt Hill
#
# Bulk Modulus (GPa) = 49.68904 52.79231 51.24067
# Shear Modulus (GPa) = -197.87767 27.84951 -85.01408
#
# Velocity S-wave (km/s) = -9.25843 3.47334 -6.06854
# Velocity P-wave (km/s) = 9.63154 6.24136 5.18710
#
# Compressibility (1/GPa) = 0.02012516
#
# Stress axis : x y z
#
# Youngs Moduli (GPa) = 61.33402 98.17196 70.13906
#
# Poissons Ratio (x) = 0.06384 0.36990
# Poissons Ratio (y) = 0.03989 0.30771
# Poissons Ratio (z) = 0.32347 0.43069
#
# Static dielectric constant tensor:
#      x y z
#    x 1.900470 -0.000010 0.000000 
#    y -0.000010 1.885910 -0.000020 
#    z 0.000000 -0.000020 1.903700 
# 
# From -- ./inp_files/909.got.cif
#   From: 2010.05.17/outbox.cif.g08.bks.cpg/sg43_1_cif.got.tgz:909.got - 2010.06.03 19:21:55.
