data_PCOD9371980
_publ_section_title
;
Structure prediction by ZEFSAII (Michael W. Deem and Ramdas Pophale) SiO2 
 PCOD9371980
Probable space group: F D D 2
;
_chemical_formula_sum "Si O2"
_cell_formula_units_Z 96
_cell_length_a 17.914111
_cell_length_b 22.612340
_cell_length_c 10.116517
_cell_angle_alpha 90.000000
_cell_angle_beta 90.000000
_cell_angle_gamma 90.000000
_cell_volume 4097.998390
_symmetry_space_group_name_H-M "F D D 2"
_symmetry_group_IT_number 43
_symmetry_cell_setting 'orthorhombic'
loop_
_space_group_symop_operation_xyz
x,y,z
-x,-y,z
1/4-x,1/4+y,1/4+z
1/4+x,1/4-y,1/4+z
x,1/2+y,1/2+z
-x,1/2-y,1/2+z
1/4-x,3/4+y,3/4+z
1/4+x,3/4-y,3/4+z
1/2+x,y,1/2+z
1/2-x,-y,1/2+z
3/4-x,1/4+y,3/4+z
3/4+x,1/4-y,3/4+z
1/2+x,1/2+y,z
1/2-x,1/2-y,z
3/4-x,3/4+y,1/4+z
3/4+x,3/4-y,1/4+z
loop_
_atom_site_type_symbol
_atom_site_label
_atom_site_fract_x
_atom_site_fract_y
_atom_site_fract_z
Si Si1 0.857695 0.492010 0.254580
Si Si2 0.200177 0.886834 0.833724
Si Si3 0.136832 0.738579 0.200746
Si Si4 0.975259 0.907141 0.363173
Si Si5 0.714288 0.168456 0.599781
Si Si6 0.508511 0.657858 0.610679
O O1 0.798678 0.546322 0.275300
O O2 0.927575 0.517061 0.336035
O O3 0.821009 0.433883 0.314047
O O4 0.882850 0.490159 0.102637
O O5 0.235984 0.844861 0.725221
O O6 0.111553 0.878299 0.857249
O O7 0.237919 0.874950 0.974748
O O8 0.201293 0.689773 0.172432
O O9 0.161744 0.792693 0.108322
O O10 0.058038 0.708727 0.174399
O O11 0.952016 0.861309 0.475568
O O12 0.751627 0.145494 0.464483
#
# Coordination Sequence:
#
# PCOD9371980 Si02
#       6
#    16  16  16  16  16  16
#     4  10  25  42  74 106 142 194 245 301 368 453
#     4  10  24  45  70 106 151 184 246 312 369 441
#     4  11  26  47  68 110 146 191 255 294 383 448
#     4  11  27  45  73 105 145 192 239 313 363 454
#     4  10  23  47  70 105 144 192 244 303 372 442
#     4  12  25  44  80  98 143 200 238 302 372 444
#
# _framework density 23.426068999999998
#
# number of rings (size 3 to 8) (size 9 to 14) (size 15 to 20)
#    1.000    0.333    3.333    0.000    9.333    0.000 
#    6.000    0.000    0.000    0.000    0.000    0.000 
#    0.000    0.000    0.000    0.000    0.000    0.000 
#
# Total GULP energy -134137.771635 kJ/mol
# GULP energy per Si atom -5589.073818 kJ/mol
# Density = 2.337275 g / cm^3
# Si number density = 23.426069 Si / 1000 Ang^3
#
#
#
# Elastic Constant Matrix: (Units=GPa)
#
#
# Indices 1 2 3 4 5 6 
#
# 1 74.0038 2.3568 9.7053 0.0000 0.0000 0.0000
# 2 2.3568 57.8249 16.1240 0.0000 0.0000 0.0000
# 3 9.7053 16.1240 133.5539 0.0000 0.0000 0.0000
# 4 0.0000 0.0000 0.0000 20.6475 0.0000 0.0000
# 5 0.0000 0.0000 0.0000 0.0000 21.0858 0.0000
# 6 0.0000 0.0000 0.0000 0.0000 0.0000 27.7106
#
#
#
# Elastic Compliance Matrix: (Units=1/GPa)
#
#
# Indices 1 2 3 4 5 6 
#
# 1 0.013648 -0.000289 -0.000957 0.000000 0.000000 0.000000
# 2 -0.000289 0.017902 -0.002140 0.000000 0.000000 0.000000
# 3 -0.000957 -0.002140 0.007816 0.000000 0.000000 0.000000
# 4 0.000000 0.000000 0.000000 0.048432 0.000000 0.000000
# 5 0.000000 0.000000 0.000000 0.000000 0.047425 0.000000
# 6 0.000000 0.000000 0.000000 0.000000 0.000000 0.036087
#
#
# Mechanical properties :
#
#
# Convention : Reuss Voigt Hill
#
# Bulk Modulus (GPa) = 30.68224 35.75053 33.21639
# Shear Modulus (GPa) = 26.46243 29.70186 28.08214
#
# Velocity S-wave (km/s) = 3.36462 3.56462 3.46606
# Velocity P-wave (km/s) = 5.31226 5.67769 5.49801
#
# Compressibility (1/GPa) = 0.03259215
#
# Stress axis : x y z
#
# Youngs Moduli (GPa) = 73.27340 55.85905 127.95008
#
# Poissons Ratio (x) = 0.01617 0.12243
# Poissons Ratio (y) = 0.02121 0.27385
# Poissons Ratio (z) = 0.07011 0.11956
#
# Static dielectric constant tensor:
#      x y z
#    x 1.960300 0.000000 0.000000 
#    y 0.000000 1.925170 0.000000 
#    z 0.000000 0.000000 1.811240 
# 
# From -- ./inp_files/3785.got.cif
#   From: 2010.05.17/outbox.cif.g08.bks.cpg/sg43_2_cif.got.tgz:3785.got - 2010.06.03 19:21:55.
