data_PCOD9371537
_publ_section_title
;
Structure prediction by ZEFSAII (Michael W. Deem and Ramdas Pophale) SiO2 
 PCOD9371537
Probable space group: F D D 2
;
_chemical_formula_sum "Si O2"
_cell_formula_units_Z 80
_cell_length_a 12.127468
_cell_length_b 16.890334
_cell_length_c 15.293092
_cell_angle_alpha 90.000000
_cell_angle_beta 90.000000
_cell_angle_gamma 90.000000
_cell_volume 3132.590858
_symmetry_space_group_name_H-M "F D D 2"
_symmetry_group_IT_number 43
_symmetry_cell_setting 'orthorhombic'
loop_
_space_group_symop_operation_xyz
x,y,z
-x,-y,z
1/4-x,1/4+y,1/4+z
1/4+x,1/4-y,1/4+z
x,1/2+y,1/2+z
-x,1/2-y,1/2+z
1/4-x,3/4+y,3/4+z
1/4+x,3/4-y,3/4+z
1/2+x,y,1/2+z
1/2-x,-y,1/2+z
3/4-x,1/4+y,3/4+z
3/4+x,1/4-y,3/4+z
1/2+x,1/2+y,z
1/2-x,1/2-y,z
3/4-x,3/4+y,1/4+z
3/4+x,3/4-y,1/4+z
loop_
_atom_site_type_symbol
_atom_site_label
_atom_site_fract_x
_atom_site_fract_y
_atom_site_fract_z
Si Si1 0.329948 0.449538 0.794120
Si Si2 0.651070 0.922647 0.931665
Si Si3 0.301127 0.422015 0.214271
Si Si4 0.111131 0.093422 0.409104
Si Si5 0.250000 0.250000 0.411016
Si Si6 0.250000 0.250000 0.171671
O O1 0.420906 0.387539 0.760454
O O2 0.229274 0.409547 0.848127
O O3 0.290805 0.510364 0.720269
O O4 0.389932 0.501920 0.865871
O O5 0.521115 0.904035 0.916267
O O6 0.655043 0.014806 0.957509
O O7 0.365955 0.427107 0.307134
O O8 0.389819 0.446220 0.140558
O O9 0.252819 0.334181 0.217996
O O10 0.174615 0.172393 0.437627
#
# Coordination Sequence:
#
# PCOD9371537 Si02
#       6
#    16  16  16  16   8   8
#     4  11  25  49  72 108 152 195 255 313 392 458
#     4  10  22  47  73 110 150 195 250 316 378 463
#     4  11  23  45  69 103 142 193 245 307 371 458
#     4  10  22  41  73 106 146 192 249 307 372 452
#     4  12  21  44  70 106 137 188 246 294 370 445
#     4  12  29  46  72 104 153 196 248 318 390 459
#
# _framework density 25.537966000000001
#
# number of rings (size 3 to 8) (size 9 to 14) (size 15 to 20)
#    0.000    1.200    2.000    5.400    2.800    0.000 
#   10.800    0.000    0.000    0.000    0.000    0.000 
#    0.000    0.000    0.000    0.000    0.000    0.000 
#
# Total GULP energy -111416.344074 kJ/mol
# GULP energy per Si atom -5570.817204 kJ/mol
# Density = 2.547984 g / cm^3
# Si number density = 25.537966 Si / 1000 Ang^3
#
#
#
# Elastic Constant Matrix: (Units=GPa)
#
#
# Indices 1 2 3 4 5 6 
#
# 1 98.4367 40.1879 12.2652 0.0000 0.0000 0.0000
# 2 40.1879 222.6723 31.9536 0.0000 0.0000 0.0000
# 3 12.2652 31.9536 44.5433 0.0000 0.0000 0.0000
# 4 0.0000 0.0000 0.0000 4.1757 0.0000 0.0000
# 5 0.0000 0.0000 0.0000 0.0000 50.8006 0.0000
# 6 0.0000 0.0000 0.0000 0.0000 0.0000 47.1014
#
#
#
# Elastic Compliance Matrix: (Units=1/GPa)
#
#
# Indices 1 2 3 4 5 6 
#
# 1 0.011095 -0.001744 -0.001804 0.000000 0.000000 0.000000
# 2 -0.001744 0.005280 -0.003308 0.000000 0.000000 0.000000
# 3 -0.001804 -0.003308 0.025320 0.000000 0.000000 0.000000
# 4 0.000000 0.000000 0.000000 0.239481 0.000000 0.000000
# 5 0.000000 0.000000 0.000000 0.000000 0.019685 0.000000
# 6 0.000000 0.000000 0.000000 0.000000 0.000000 0.021231
#
#
# Mechanical properties :
#
#
# Convention : Reuss Voigt Hill
#
# Bulk Modulus (GPa) = 35.73469 59.38510 47.55989
# Shear Modulus (GPa) = 14.48722 39.16525 26.82623
#
# Velocity S-wave (km/s) = 2.38435 3.92038 3.24457
# Velocity P-wave (km/s) = 4.64794 6.61790 5.71839
#
# Compressibility (1/GPa) = 0.02798401
#
# Stress axis : x y z
#
# Youngs Moduli (GPa) = 90.12680 189.38501 39.49487
#
# Poissons Ratio (x) = 0.33021 0.07126
# Poissons Ratio (y) = 0.15714 0.13064
# Poissons Ratio (z) = 0.16263 0.62644
#
# Static dielectric constant tensor:
#      x y z
#    x 1.994550 0.000000 0.000000 
#    y 0.000000 2.054020 0.000000 
#    z 0.000000 0.000000 2.205560 
# 
# From -- ./inp_files/17018.got.cif
#   From: 2010.05.17/outbox.cif.g08.bks.cpg/sg43_9_cif.got.tgz:17018.got - 2010.06.03 19:21:55.
