data_PCOD9371798
_publ_section_title
;
Structure prediction by ZEFSAII (Michael W. Deem and Ramdas Pophale) SiO2 
 PCOD9371798
Probable space group: F D D 2
;
_chemical_formula_sum "Si O2"
_cell_formula_units_Z 72
_cell_length_a 30.697094
_cell_length_b 5.012452
_cell_length_c 18.542579
_cell_angle_alpha 90.000000
_cell_angle_beta 90.000000
_cell_angle_gamma 90.000000
_cell_volume 2853.104172
_symmetry_space_group_name_H-M "F D D 2"
_symmetry_group_IT_number 43
_symmetry_cell_setting 'orthorhombic'
loop_
_space_group_symop_operation_xyz
x,y,z
-x,-y,z
1/4-x,1/4+y,1/4+z
1/4+x,1/4-y,1/4+z
x,1/2+y,1/2+z
-x,1/2-y,1/2+z
1/4-x,3/4+y,3/4+z
1/4+x,3/4-y,3/4+z
1/2+x,y,1/2+z
1/2-x,-y,1/2+z
3/4-x,1/4+y,3/4+z
3/4+x,1/4-y,3/4+z
1/2+x,1/2+y,z
1/2-x,1/2-y,z
3/4-x,3/4+y,1/4+z
3/4+x,3/4-y,1/4+z
loop_
_atom_site_type_symbol
_atom_site_label
_atom_site_fract_x
_atom_site_fract_y
_atom_site_fract_z
Si Si1 0.250000 0.750000 0.757261
Si Si2 0.112512 0.332489 0.189982
Si Si3 0.191915 0.589182 0.887470
Si Si4 0.250000 0.250000 0.656237
Si Si5 0.750000 0.750000 0.983066
Si Si6 0.925830 0.678251 0.335814
O O1 0.210753 0.646111 0.808318
O O2 0.260589 0.501115 0.706389
O O3 0.095286 0.611449 0.154767
O O4 0.113280 0.305625 0.277012
O O5 0.076757 0.111407 0.168756
O O6 0.156195 0.228318 0.152853
O O7 0.233658 0.480390 0.930726
O O8 0.293764 0.173711 0.611377
O O9 0.710012 0.726768 0.036942
#
# Coordination Sequence:
#
# PCOD9371798 Si02
#       6
#     8  16  16   8   8  16
#     4  12  25  47  78 117 155 200 274 324 385 483
#     4  11  27  47  81 108 164 193 264 323 410 462
#     4  11  24  48  77 116 151 207 248 329 397 472
#     4  12  27  45  80 110 162 210 266 328 392 484
#     4  10  22  50  82 105 151 206 260 316 393 491
#     4  11  26  51  76 117 152 213 259 329 397 470
#
# _framework density 25.235669000000001
#
# number of rings (size 3 to 8) (size 9 to 14) (size 15 to 20)
#    0.000    0.889    0.000    6.667    3.111    8.889 
#    8.000    0.000    0.000    0.000    0.000    0.000 
#    0.000    0.000    0.000    0.000    0.000    0.000 
#
# Total GULP energy -100674.408737 kJ/mol
# GULP energy per Si atom -5593.022708 kJ/mol
# Density = 2.517823 g / cm^3
# Si number density = 25.235669 Si / 1000 Ang^3
#
#
#
# Elastic Constant Matrix: (Units=GPa)
#
#
# Indices 1 2 3 4 5 6 
#
# 1 122.5859 15.5904 48.6484 0.0011 0.0004 -0.0014
# 2 15.5904 130.2449 53.8937 -0.0059 -0.0009 -0.0016
# 3 48.6484 53.8937 179.9049 -0.0005 -0.0001 -0.0002
# 4 0.0011 -0.0059 -0.0005 64.3407 -0.0010 -0.0032
# 5 0.0004 -0.0009 -0.0001 -0.0010 34.3862 -0.0007
# 6 -0.0014 -0.0016 -0.0002 -0.0032 -0.0007 39.4690
#
#
#
# Elastic Compliance Matrix: (Units=1/GPa)
#
#
# Indices 1 2 3 4 5 6 
#
# 1 0.009139 -0.000081 -0.002447 0.000000 0.000000 0.000000
# 2 -0.000081 0.008765 -0.002604 0.000001 0.000000 0.000000
# 3 -0.002447 -0.002604 0.007000 0.000000 0.000000 0.000000
# 4 0.000000 0.000001 0.000000 0.015542 0.000000 0.000001
# 5 0.000000 0.000000 0.000000 0.000000 0.029081 0.000001
# 6 0.000000 0.000000 0.000000 0.000001 0.000001 0.025336
#
#
# Mechanical properties :
#
#
# Convention : Reuss Voigt Hill
#
# Bulk Modulus (GPa) = 68.30586 74.33344 71.31965
# Shear Modulus (GPa) = 45.45120 48.61272 47.03196
#
# Velocity S-wave (km/s) = 4.24851 4.39378 4.32175
# Velocity P-wave (km/s) = 7.15488 7.43371 7.29563
#
# Compressibility (1/GPa) = 0.01464003
#
# Stress axis : x y z
#
# Youngs Moduli (GPa) = 109.42174 114.09057 142.85439
#
# Poissons Ratio (x) = 0.00929 0.34955
# Poissons Ratio (y) = 0.00891 0.37195
# Poissons Ratio (z) = 0.26774 0.29706
#
# Static dielectric constant tensor:
#      x y z
#    x 2.151710 0.000000 0.000000 
#    y 0.000000 1.989500 0.000000 
#    z 0.000000 0.000000 2.012550 
# 
# From -- ./inp_files/18941.got.cif
#   From: 2010.05.17/outbox.cif.g08.bks.cpg/sg43_10_cif.got.tgz:18941.got - 2010.06.03 19:21:55.
