data_PCOD9371156
_publ_section_title
;
Structure prediction by ZEFSAII (Michael W. Deem and Ramdas Pophale) SiO2 
 PCOD9371156
Probable space group: F D D 2
;
_chemical_formula_sum "Si O2"
_cell_formula_units_Z 88
_cell_length_a 10.470476
_cell_length_b 14.447405
_cell_length_c 23.033688
_cell_angle_alpha 90.000000
_cell_angle_beta 90.000000
_cell_angle_gamma 90.000000
_cell_volume 3484.333793
_symmetry_space_group_name_H-M "F D D 2"
_symmetry_group_IT_number 43
_symmetry_cell_setting 'orthorhombic'
loop_
_space_group_symop_operation_xyz
x,y,z
-x,-y,z
1/4-x,1/4+y,1/4+z
1/4+x,1/4-y,1/4+z
x,1/2+y,1/2+z
-x,1/2-y,1/2+z
1/4-x,3/4+y,3/4+z
1/4+x,3/4-y,3/4+z
1/2+x,y,1/2+z
1/2-x,-y,1/2+z
3/4-x,1/4+y,3/4+z
3/4+x,1/4-y,3/4+z
1/2+x,1/2+y,z
1/2-x,1/2-y,z
3/4-x,3/4+y,1/4+z
3/4+x,3/4-y,1/4+z
loop_
_atom_site_type_symbol
_atom_site_label
_atom_site_fract_x
_atom_site_fract_y
_atom_site_fract_z
Si Si1 0.250000 0.750000 0.518770
Si Si2 0.849024 0.568989 0.374364
Si Si3 0.500000 0.000000 0.789166
Si Si4 0.851675 0.570501 0.160404
Si Si5 0.646851 0.844007 0.842018
Si Si6 0.019884 0.195001 0.243917
Si Si7 0.500000 0.000000 0.571594
O O1 0.362383 0.761267 0.567539
O O2 0.319991 0.816720 0.470664
O O3 0.780679 0.521560 0.428749
O O4 0.762351 0.656124 0.357171
O O5 0.981286 0.613150 0.401464
O O6 0.400879 0.052319 0.830605
O O7 0.550790 0.084209 0.749687
O O8 0.817792 0.463926 0.141183
O O9 0.958857 0.590417 0.111979
O O10 0.610970 0.798128 0.779684
O O11 0.125574 0.245128 0.281989
#
# Coordination Sequence:
#
# PCOD9371156 Si02
#       7
#     8  16   8  16  16  16   8
#     4  10  25  42  66 102 130 189 222 280 342 422
#     4  12  23  41  64 101 138 182 225 290 345 412
#     4   8  17  38  66 102 128 170 229 288 332 408
#     4  10  21  44  69  95 142 181 228 283 349 420
#     4   8  18  39  68  94 129 174 225 276 339 407
#     4  10  21  40  65  97 135 169 227 286 337 407
#     4  12  24  40  66 100 134 175 229 276 358 400
#
# _framework density 25.255906
#
# number of rings (size 3 to 8) (size 9 to 14) (size 15 to 20)
#    1.091    1.091    1.818    2.182    0.000    2.909 
#    0.000    1.818    0.000    4.364    0.000    0.000 
#    0.000    0.000    0.000    0.000    0.000    0.000 
#
# Total GULP energy -122563.318905 kJ/mol
# GULP energy per Si atom -5571.059950 kJ/mol
# Density = 2.519842 g / cm^3
# Si number density = 25.255906 Si / 1000 Ang^3
#
#
#
# Elastic Constant Matrix: (Units=GPa)
#
#
# Indices 1 2 3 4 5 6 
#
# 1 84.5314 13.0632 71.1584 0.0000 0.0000 0.0000
# 2 13.0632 88.6180 39.1426 0.0000 0.0000 0.0000
# 3 71.1584 39.1426 198.4356 0.0000 0.0000 0.0000
# 4 0.0000 0.0000 0.0000 5.3579 0.0000 0.0000
# 5 0.0000 0.0000 0.0000 0.0000 43.5208 0.0000
# 6 0.0000 0.0000 0.0000 0.0000 0.0000 41.7769
#
#
#
# Elastic Compliance Matrix: (Units=1/GPa)
#
#
# Indices 1 2 3 4 5 6 
#
# 1 0.016948 0.000204 -0.006118 0.000000 0.000000 0.000000
# 2 0.000204 0.012364 -0.002512 0.000000 0.000000 0.000000
# 3 -0.006118 -0.002512 0.007729 0.000000 0.000000 0.000000
# 4 0.000000 0.000000 0.000000 0.186639 0.000000 0.000000
# 5 0.000000 0.000000 0.000000 0.000000 0.022977 0.000000
# 6 0.000000 0.000000 0.000000 0.000000 0.000000 0.023937
#
#
# Mechanical properties :
#
#
# Convention : Reuss Voigt Hill
#
# Bulk Modulus (GPa) = 49.53151 68.70148 59.11650
# Shear Modulus (GPa) = 16.99666 34.67919 25.83793
#
# Velocity S-wave (km/s) = 2.59700 3.70957 3.20198
# Velocity P-wave (km/s) = 5.35228 6.75345 6.09328
#
# Compressibility (1/GPa) = 0.02018917
#
# Stress axis : x y z
#
# Youngs Moduli (GPa) = 59.00257 80.88090 129.38683
#
# Poissons Ratio (x) = -0.01649 0.79157
# Poissons Ratio (y) = -0.01203 0.32501
# Poissons Ratio (z) = 0.36097 0.20317
#
# Static dielectric constant tensor:
#      x y z
#    x 1.984760 0.000000 0.000000 
#    y 0.000000 2.208980 0.000000 
#    z 0.000000 0.000000 1.956270 
# 
# From -- ./inp_files/17073.got.cif
#   From: 2010.05.17/outbox.cif.g08.bks.cpg/sg43_9_cif.got.tgz:17073.got - 2010.06.03 19:21:55.
