data_PCOD9371567
_publ_section_title
;
Structure prediction by ZEFSAII (Michael W. Deem and Ramdas Pophale) SiO2 
 PCOD9371567
Probable space group: F D D 2
;
_chemical_formula_sum "Si O2"
_cell_formula_units_Z 80
_cell_length_a 10.011556
_cell_length_b 25.128665
_cell_length_c 14.697930
_cell_angle_alpha 90.000000
_cell_angle_beta 90.000000
_cell_angle_gamma 90.000000
_cell_volume 3697.661677
_symmetry_space_group_name_H-M "F D D 2"
_symmetry_group_IT_number 43
_symmetry_cell_setting 'orthorhombic'
loop_
_space_group_symop_operation_xyz
x,y,z
-x,-y,z
1/4-x,1/4+y,1/4+z
1/4+x,1/4-y,1/4+z
x,1/2+y,1/2+z
-x,1/2-y,1/2+z
1/4-x,3/4+y,3/4+z
1/4+x,3/4-y,3/4+z
1/2+x,y,1/2+z
1/2-x,-y,1/2+z
3/4-x,1/4+y,3/4+z
3/4+x,1/4-y,3/4+z
1/2+x,1/2+y,z
1/2-x,1/2-y,z
3/4-x,3/4+y,1/4+z
3/4+x,3/4-y,1/4+z
loop_
_atom_site_type_symbol
_atom_site_label
_atom_site_fract_x
_atom_site_fract_y
_atom_site_fract_z
Si Si1 0.385038 0.308277 0.081230
Si Si2 0.453105 0.290071 0.613532
Si Si3 0.750000 0.250000 0.960814
Si Si4 0.776033 0.837836 0.894736
Si Si5 0.180649 0.591256 0.679351
Si Si6 0.500000 0.500000 0.513748
O O1 0.416935 0.247875 0.106064
O O2 0.358919 0.348236 0.163086
O O3 0.278149 0.319246 0.000214
O O4 0.521557 0.329724 0.032200
O O5 0.361149 0.278791 0.524700
O O6 0.484494 0.351840 0.628308
O O7 0.366113 0.269822 0.697963
O O8 0.678050 0.297016 0.905937
O O9 0.700902 0.797041 0.830037
O O10 0.933973 0.832190 0.872506
#
# Coordination Sequence:
#
# PCOD9371567 Si02
#       6
#    16  16   8  16  16   8
#     4   9  21  41  62  93 129 168 212 265 328 381
#     4  10  22  42  67  95 131 168 220 274 321 400
#     4   9  20  42  64  95 130 174 220 269 322 396
#     4  10  23  40  64  95 130 164 218 276 320 389
#     4   9  20  41  61  91 128 170 215 263 326 387
#     4  11  24  42  68  95 122 180 226 251 344 384
#
# _framework density 21.635294999999999
#
# number of rings (size 3 to 8) (size 9 to 14) (size 15 to 20)
#    1.200    1.200    0.000    1.200    2.800    4.000 
#    7.200    0.000    0.000    0.000    0.000    0.000 
#    0.000    0.000    0.000    0.000    0.000    0.000 
#
# Total GULP energy -111502.600170 kJ/mol
# GULP energy per Si atom -5575.130008 kJ/mol
# Density = 2.158605 g / cm^3
# Si number density = 21.635295 Si / 1000 Ang^3
#
#
#
# Elastic Constant Matrix: (Units=GPa)
#
#
# Indices 1 2 3 4 5 6 
#
# 1 52.1964 42.7765 13.3960 0.0000 0.0000 0.0000
# 2 42.7765 197.2480 63.1380 0.0000 0.0000 0.0000
# 3 13.3960 63.1380 52.2473 0.0000 0.0000 0.0000
# 4 0.0000 0.0000 0.0000 34.9401 0.0000 0.0000
# 5 0.0000 0.0000 0.0000 0.0000 1.4994 0.0000
# 6 0.0000 0.0000 0.0000 0.0000 0.0000 42.9387
#
#
#
# Elastic Compliance Matrix: (Units=1/GPa)
#
#
# Indices 1 2 3 4 5 6 
#
# 1 0.023301 -0.005122 0.000216 0.000000 0.000000 0.000000
# 2 -0.005122 0.009394 -0.010039 0.000000 0.000000 0.000000
# 3 0.000216 -0.010039 0.031216 0.000000 0.000000 0.000000
# 4 0.000000 0.000000 0.000000 0.028620 0.000000 0.000000
# 5 0.000000 0.000000 0.000000 0.000000 0.666934 0.000000
# 6 0.000000 0.000000 0.000000 0.000000 0.000000 0.023289
#
#
# Mechanical properties :
#
#
# Convention : Reuss Voigt Hill
#
# Bulk Modulus (GPa) = 29.39452 60.03475 44.71463
# Shear Modulus (GPa) = 6.06807 28.03439 17.05123
#
# Velocity S-wave (km/s) = 1.67654 3.60359 2.81039
# Velocity P-wave (km/s) = 4.16697 6.71738 5.58958
#
# Compressibility (1/GPa) = 0.03401995
#
# Stress axis : x y z
#
# Youngs Moduli (GPa) = 42.91685 106.45148 32.03512
#
# Poissons Ratio (x) = 0.54527 -0.00691
# Poissons Ratio (y) = 0.21983 0.32159
# Poissons Ratio (z) = -0.00926 1.06864
#
# Static dielectric constant tensor:
#      x y z
#    x 1.872760 0.000000 0.000000 
#    y 0.000000 1.783270 0.000000 
#    z 0.000000 0.000000 1.778110 
# 
# From -- ./inp_files/9559.got.cif
#   From: 2010.05.17/outbox.cif.g08.bks.cpg/sg43_5_cif.got.tgz:9559.got - 2010.06.03 19:21:55.
