data_PCOD9371188
_publ_section_title
;
Structure prediction by ZEFSAII (Michael W. Deem and Ramdas Pophale) SiO2 
 PCOD9371188
Probable space group: F D D 2
;
_chemical_formula_sum "Si O2"
_cell_formula_units_Z 96
_cell_length_a 9.993366
_cell_length_b 15.128513
_cell_length_c 35.032648
_cell_angle_alpha 90.000000
_cell_angle_beta 90.000000
_cell_angle_gamma 90.000000
_cell_volume 5296.402741
_symmetry_space_group_name_H-M "F D D 2"
_symmetry_group_IT_number 43
_symmetry_cell_setting 'orthorhombic'
loop_
_space_group_symop_operation_xyz
x,y,z
-x,-y,z
1/4-x,1/4+y,1/4+z
1/4+x,1/4-y,1/4+z
x,1/2+y,1/2+z
-x,1/2-y,1/2+z
1/4-x,3/4+y,3/4+z
1/4+x,3/4-y,3/4+z
1/2+x,y,1/2+z
1/2-x,-y,1/2+z
3/4-x,1/4+y,3/4+z
3/4+x,1/4-y,3/4+z
1/2+x,1/2+y,z
1/2-x,1/2-y,z
3/4-x,3/4+y,1/4+z
3/4+x,3/4-y,1/4+z
loop_
_atom_site_type_symbol
_atom_site_label
_atom_site_fract_x
_atom_site_fract_y
_atom_site_fract_z
Si Si1 0.250000 0.750000 0.598861
Si Si2 0.155581 0.664594 0.948170
Si Si3 0.904972 0.858135 0.789023
Si Si4 0.588402 0.085363 0.200851
Si Si5 0.979981 0.250052 0.146190
Si Si6 0.412287 0.152556 0.784454
Si Si7 0.000000 0.000000 0.334669
O O1 0.270260 0.666941 0.570336
O O2 0.376589 0.754219 0.626586
O O3 0.250000 0.750000 0.944648
O O4 0.197019 0.590061 0.918211
O O5 0.996496 0.682822 0.944136
O O6 0.174197 0.622377 0.990110
O O7 0.929512 0.891415 0.745743
O O8 0.744078 0.863200 0.795062
O O9 0.942772 0.755089 0.791124
O O10 0.542561 0.168501 0.175280
O O11 0.500000 0.000000 0.191452
O O12 0.875676 0.259567 0.111984
O O13 0.503981 0.086369 0.808283
#
# Coordination Sequence:
#
# PCOD9371188 Si02
#       7
#     8  16  16  16  16  16   8
#     4  12  26  42  66 102 138 164 218 286 328 372
#     4  11  23  42  68  99 130 172 221 267 325 391
#     4  10  21  42  68  96 127 174 222 263 318 397
#     4  11  23  42  71  95 128 177 222 263 323 400
#     4  12  26  44  64  98 139 168 212 278 335 379
#     4  10  21  40  71  94 127 176 221 258 326 399
#     4  12  22  42  66  98 128 166 216 270 326 384
#
# _framework density 18.125509000000001
#
# number of rings (size 3 to 8) (size 9 to 14) (size 15 to 20)
#    0.000    1.000    6.667    0.000    2.333    2.667 
#    0.000    0.000    0.000    0.000    0.000    0.000 
#    0.000    0.000    0.000    0.000    0.000    0.000 
#
# Total GULP energy -134078.847039 kJ/mol
# GULP energy per Si atom -5586.618627 kJ/mol
# Density = 1.808425 g / cm^3
# Si number density = 18.125509 Si / 1000 Ang^3
#
#
#
# Elastic Constant Matrix: (Units=GPa)
#
#
# Indices 1 2 3 4 5 6 
#
# 1 112.6436 50.3206 57.6453 0.0000 0.0000 0.0000
# 2 50.3206 151.4005 52.5989 0.0000 0.0000 0.0000
# 3 57.6453 52.5989 100.7331 0.0000 0.0000 0.0000
# 4 0.0000 0.0000 0.0000 74.4648 0.0000 0.0000
# 5 0.0000 0.0000 0.0000 0.0000 -414.5298 0.0000
# 6 0.0000 0.0000 0.0000 0.0000 0.0000 31.0838
#
#
#
# Elastic Compliance Matrix: (Units=1/GPa)
#
#
# Indices 1 2 3 4 5 6 
#
# 1 0.013096 -0.002137 -0.006379 0.000000 0.000000 0.000000
# 2 -0.002137 0.008417 -0.003172 0.000000 0.000000 0.000000
# 3 -0.006379 -0.003172 0.015234 0.000000 0.000000 0.000000
# 4 0.000000 0.000000 0.000000 0.013429 0.000000 0.000000
# 5 0.000000 0.000000 0.000000 0.000000 -0.002412 0.000000
# 6 0.000000 0.000000 0.000000 0.000000 0.000000 0.032171
#
#
# Mechanical properties :
#
#
# Convention : Reuss Voigt Hill
#
# Bulk Modulus (GPa) = 74.78387 76.21185 75.49786
# Shear Modulus (GPa) = 46.39550 -48.18209 -0.89329
#
# Velocity S-wave (km/s) = 5.06482 -5.16141 -0.70278
# Velocity P-wave (km/s) = 8.69204 2.57250 6.40974
#
# Compressibility (1/GPa) = 0.01337187
#
# Stress axis : x y z
#
# Youngs Moduli (GPa) = 76.35663 118.80240 65.64227
#
# Poissons Ratio (x) = 0.25385 0.41872
# Poissons Ratio (y) = 0.16315 0.20825
# Poissons Ratio (z) = 0.48707 0.37689
#
# Static dielectric constant tensor:
#      x y z
#    x 2.302450 0.000000 0.000000 
#    y 0.000000 1.521330 0.000000 
#    z 0.000000 0.000000 1.607240 
# 
# From -- ./inp_files/28569.got.cif
#   From: 2010.05.17/outbox.cif.g08.bks.cpg/sg43_15_cif.got.tgz:28569.got - 2010.06.03 19:21:55.
