data_PCOD9371455
_publ_section_title
;
Structure prediction by ZEFSAII (Michael W. Deem and Ramdas Pophale) SiO2 
 PCOD9371455
Probable space group: F D D 2
;
_chemical_formula_sum "Si O2"
_cell_formula_units_Z 80
_cell_length_a 27.721768
_cell_length_b 17.313449
_cell_length_c 6.949628
_cell_angle_alpha 90.000000
_cell_angle_beta 90.000000
_cell_angle_gamma 90.000000
_cell_volume 3335.539399
_symmetry_space_group_name_H-M "F D D 2"
_symmetry_group_IT_number 43
_symmetry_cell_setting 'orthorhombic'
loop_
_space_group_symop_operation_xyz
x,y,z
-x,-y,z
1/4-x,1/4+y,1/4+z
1/4+x,1/4-y,1/4+z
x,1/2+y,1/2+z
-x,1/2-y,1/2+z
1/4-x,3/4+y,3/4+z
1/4+x,3/4-y,3/4+z
1/2+x,y,1/2+z
1/2-x,-y,1/2+z
3/4-x,1/4+y,3/4+z
3/4+x,1/4-y,3/4+z
1/2+x,1/2+y,z
1/2-x,1/2-y,z
3/4-x,3/4+y,1/4+z
3/4+x,3/4-y,1/4+z
loop_
_atom_site_type_symbol
_atom_site_label
_atom_site_fract_x
_atom_site_fract_y
_atom_site_fract_z
Si Si1 0.360644 0.592880 0.018410
Si Si2 0.813077 0.962829 0.273307
Si Si3 0.569507 0.555536 0.545727
Si Si4 0.503071 0.841143 0.198599
Si Si5 0.104362 0.386081 0.079388
O O1 0.347519 0.512352 0.123948
O O2 0.317669 0.647659 0.093898
O O3 0.405608 0.642585 0.104635
O O4 0.372871 0.594994 0.792390
O O5 0.786743 0.026412 0.401812
O O6 0.769250 0.921561 0.164723
O O7 0.519512 0.576970 0.646931
O O8 0.587346 0.469896 0.507460
O O9 0.606900 0.593554 0.698896
O O10 0.554718 0.836992 0.091187
#
# Coordination Sequence:
#
# PCOD9371455 Si02
#       5
#    16  16  16  16  16
#     4  10  22  42  60  96 124 164 222 256 328 400
#     4  10  22  40  66  91 130 169 216 276 322 398
#     4  11  23  40  66  91 129 172 214 273 333 387
#     4  10  23  38  62  95 126 164 226 264 330 393
#     4  11  23  40  66  91 129 172 214 273 333 387
#
# _framework density 23.984126
#
# number of rings (size 3 to 8) (size 9 to 14) (size 15 to 20)
#    0.000    1.600    0.000    5.400    8.400    0.000 
#    0.000    0.000    0.000    4.800    0.000    0.000 
#    0.000    0.000    0.000    0.000    0.000    0.000 
#
# Total GULP energy -111506.116410 kJ/mol
# GULP energy per Si atom -5575.305820 kJ/mol
# Density = 2.392954 g / cm^3
# Si number density = 23.984126 Si / 1000 Ang^3
#
#
#
# Elastic Constant Matrix: (Units=GPa)
#
#
# Indices 1 2 3 4 5 6 
#
# 1 104.1891 39.3159 24.7743 0.0000 0.0000 0.0000
# 2 39.3159 96.6208 7.9866 0.0000 0.0000 0.0000
# 3 24.7743 7.9866 63.3032 -0.0003 0.0001 0.0000
# 4 0.0000 0.0000 -0.0003 22.4660 0.0001 0.0000
# 5 0.0000 0.0000 0.0001 0.0001 38.6358 0.0000
# 6 0.0000 0.0000 0.0000 0.0000 0.0000 44.2316
#
#
#
# Elastic Compliance Matrix: (Units=1/GPa)
#
#
# Indices 1 2 3 4 5 6 
#
# 1 0.012377 -0.004685 -0.004253 0.000000 0.000000 0.000000
# 2 -0.004685 0.012232 0.000290 0.000000 0.000000 0.000000
# 3 -0.004253 0.000290 0.017425 0.000000 0.000000 0.000000
# 4 0.000000 0.000000 0.000000 0.044512 0.000000 0.000000
# 5 0.000000 0.000000 0.000000 0.000000 0.025883 0.000000
# 6 0.000000 0.000000 0.000000 0.000000 0.000000 0.022608
#
#
# Mechanical properties :
#
#
# Convention : Reuss Voigt Hill
#
# Bulk Modulus (GPa) = 40.42199 45.36294 42.89246
# Shear Modulus (GPa) = 31.13759 33.86911 32.50335
#
# Velocity S-wave (km/s) = 3.60704 3.76193 3.68530
# Velocity P-wave (km/s) = 5.85132 6.15015 6.00259
#
# Compressibility (1/GPa) = 0.02473901
#
# Stress axis : x y z
#
# Youngs Moduli (GPa) = 80.79517 81.75255 57.38962
#
# Poissons Ratio (x) = 0.38299 0.24407
# Poissons Ratio (y) = 0.37851 -0.01665
# Poissons Ratio (z) = 0.34361 -0.02372
#
# Static dielectric constant tensor:
#      x y z
#    x 2.015180 0.000000 0.000000 
#    y 0.000000 1.952020 0.000000 
#    z 0.000000 0.000000 2.008610 
# 
# From -- ./inp_files/4155.got.cif
#   From: 2010.05.17/outbox.cif.g08.bks.cpg/sg43_3_cif.got.tgz:4155.got - 2010.06.03 19:21:55.
