data_PCOD9371471
_publ_section_title
;
Structure prediction by ZEFSAII (Michael W. Deem and Ramdas Pophale) SiO2 
 PCOD9371471
Probable space group: F D D 2
;
_chemical_formula_sum "Si O2"
_cell_formula_units_Z 104
_cell_length_a 23.223370
_cell_length_b 9.962079
_cell_length_c 18.831105
_cell_angle_alpha 90.000000
_cell_angle_beta 90.000000
_cell_angle_gamma 90.000000
_cell_volume 4356.633512
_symmetry_space_group_name_H-M "F D D 2"
_symmetry_group_IT_number 43
_symmetry_cell_setting 'orthorhombic'
loop_
_space_group_symop_operation_xyz
x,y,z
-x,-y,z
1/4-x,1/4+y,1/4+z
1/4+x,1/4-y,1/4+z
x,1/2+y,1/2+z
-x,1/2-y,1/2+z
1/4-x,3/4+y,3/4+z
1/4+x,3/4-y,3/4+z
1/2+x,y,1/2+z
1/2-x,-y,1/2+z
3/4-x,1/4+y,3/4+z
3/4+x,1/4-y,3/4+z
1/2+x,1/2+y,z
1/2-x,1/2-y,z
3/4-x,3/4+y,1/4+z
3/4+x,3/4-y,1/4+z
loop_
_atom_site_type_symbol
_atom_site_label
_atom_site_fract_x
_atom_site_fract_y
_atom_site_fract_z
Si Si1 0.605285 0.007818 0.489950
Si Si2 0.812399 0.986797 0.393238
Si Si3 0.602665 0.549122 0.732053
Si Si4 0.362523 0.787222 0.007958
Si Si5 0.039725 0.604628 0.355400
Si Si6 0.500000 0.500000 0.098634
Si Si7 0.462843 0.618556 0.389421
O O1 0.644594 0.140268 0.493077
O O2 0.563314 0.029139 0.423450
O O3 0.559538 0.007510 0.554702
O O4 0.638072 0.867281 0.483044
O O5 0.833754 0.030033 0.314157
O O6 0.856838 0.892461 0.442027
O O7 0.758059 0.889073 0.389787
O O8 0.805567 0.125801 0.434237
O O9 0.595553 0.626211 0.806712
O O10 0.661482 0.587127 0.691224
O O11 0.311687 0.818668 0.063864
O O12 0.006668 0.740209 0.373853
O O13 0.000000 0.500000 0.315084
O O14 0.500000 0.500000 0.420866
#
# Coordination Sequence:
#
# PCOD9371471 Si02
#       7
#    16  16  16  16  16   8  16
#     4  10  23  42  65  98 134 179 223 276 351 406
#     4  10  22  43  68  93 136 173 233 280 343 410
#     4  10  23  44  61 100 136 176 221 293 344 410
#     4  10  22  40  68  96 130 183 227 282 340 419
#     4  11  23  41  66  96 139 173 230 280 343 417
#     4  10  22  44  66  98 130 182 230 280 326 430
#     4  10  23  43  65  97 133 180 235 281 343 417
#
# _framework density 23.871644
#
# number of rings (size 3 to 8) (size 9 to 14) (size 15 to 20)
#    0.000    1.846    2.308    0.000    7.538    1.231 
#    5.538    0.000    0.000    0.000    0.000    0.000 
#    0.000    0.000    0.000    0.000    0.000    0.000 
#
# Total GULP energy -144949.627831 kJ/mol
# GULP energy per Si atom -5574.985686 kJ/mol
# Density = 2.381731 g / cm^3
# Si number density = 23.871644 Si / 1000 Ang^3
#
#
#
# Elastic Constant Matrix: (Units=GPa)
#
#
# Indices 1 2 3 4 5 6 
#
# 1 29.8079 28.6174 9.5510 0.0000 0.0000 0.0000
# 2 28.6174 173.5433 19.4664 0.0000 0.0000 0.0000
# 3 9.5510 19.4664 66.4276 0.0000 0.0000 0.0000
# 4 0.0000 0.0000 0.0000 36.8826 0.0000 0.0000
# 5 0.0000 0.0000 0.0000 0.0000 19.1150 0.0000
# 6 0.0000 0.0000 0.0000 0.0000 0.0000 43.9301
#
#
#
# Elastic Compliance Matrix: (Units=1/GPa)
#
#
# Indices 1 2 3 4 5 6 
#
# 1 0.040878 -0.006288 -0.004035 0.000000 0.000000 0.000000
# 2 -0.006288 0.006925 -0.001125 0.000000 0.000000 0.000000
# 3 -0.004035 -0.001125 0.015964 0.000000 0.000000 0.000000
# 4 0.000000 0.000000 0.000000 0.027113 0.000000 0.000000
# 5 0.000000 0.000000 0.000000 0.000000 0.052315 0.000000
# 6 0.000000 0.000000 0.000000 0.000000 0.000000 0.022763
#
#
# Mechanical properties :
#
#
# Convention : Reuss Voigt Hill
#
# Bulk Modulus (GPa) = 24.46739 42.78316 33.62527
# Shear Modulus (GPa) = 24.69392 34.12846 29.41119
#
# Velocity S-wave (km/s) = 3.21977 3.78519 3.51387
# Velocity P-wave (km/s) = 4.90860 6.08807 5.52987
#
# Compressibility (1/GPa) = 0.04087073
#
# Stress axis : x y z
#
# Youngs Moduli (GPa) = 24.46301 144.39570 62.64140
#
# Poissons Ratio (x) = 0.90799 0.25274
# Poissons Ratio (y) = 0.15383 0.07049
# Poissons Ratio (z) = 0.09870 0.16250
#
# Static dielectric constant tensor:
#      x y z
#    x 2.020350 0.000000 0.000000 
#    y 0.000000 1.976440 0.000000 
#    z 0.000000 0.000000 1.963080 
# 
# From -- ./inp_files/18992.got.cif
#   From: 2010.05.17/outbox.cif.g08.bks.cpg/sg43_10_cif.got.tgz:18992.got - 2010.06.03 19:21:55.
