data_PCOD9371208
_publ_section_title
;
Structure prediction by ZEFSAII (Michael W. Deem and Ramdas Pophale) SiO2 
 PCOD9371208
Probable space group: F D D 2
;
_chemical_formula_sum "Si O2"
_cell_formula_units_Z 112
_cell_length_a 14.567214
_cell_length_b 32.379282
_cell_length_c 11.817079
_cell_angle_alpha 90.000000
_cell_angle_beta 90.000000
_cell_angle_gamma 90.000000
_cell_volume 5573.831728
_symmetry_space_group_name_H-M "F D D 2"
_symmetry_group_IT_number 43
_symmetry_cell_setting 'orthorhombic'
loop_
_space_group_symop_operation_xyz
x,y,z
-x,-y,z
1/4-x,1/4+y,1/4+z
1/4+x,1/4-y,1/4+z
x,1/2+y,1/2+z
-x,1/2-y,1/2+z
1/4-x,3/4+y,3/4+z
1/4+x,3/4-y,3/4+z
1/2+x,y,1/2+z
1/2-x,-y,1/2+z
3/4-x,1/4+y,3/4+z
3/4+x,1/4-y,3/4+z
1/2+x,1/2+y,z
1/2-x,1/2-y,z
3/4-x,3/4+y,1/4+z
3/4+x,3/4-y,1/4+z
loop_
_atom_site_type_symbol
_atom_site_label
_atom_site_fract_x
_atom_site_fract_y
_atom_site_fract_z
Si Si1 0.463817 0.834108 0.375000
Si Si2 0.813796 0.322475 0.208108
Si Si3 0.854668 0.487619 0.603983
Si Si4 0.924759 0.584695 0.332217
Si Si5 0.296912 0.076704 0.547703
Si Si6 0.000000 0.500000 0.799945
Si Si7 0.000000 0.000000 0.905895
Si Si8 0.608328 0.619329 0.514474
O O1 0.395346 0.810282 0.290156
O O2 0.550277 0.803865 0.381288
O O3 0.403862 0.840172 0.487907
O O4 0.501040 0.878400 0.331629
O O5 0.765986 0.288584 0.130866
O O6 0.733876 0.343319 0.282202
O O7 0.862533 0.353493 0.120808
O O8 0.794692 0.528509 0.580471
O O9 0.915189 0.496164 0.714770
O O10 0.920092 0.484725 0.492933
O O11 0.873149 0.585019 0.452916
O O12 0.969285 0.538999 0.330953
O O13 0.198893 0.091373 0.499421
O O14 0.331452 0.102450 0.656917
#
# Coordination Sequence:
#
# PCOD9371208 Si02
#       8
#    16  16  16  16  16   8   8  16
#     4  12  26  42  65  98 131 173 214 263 327 391
#     4  11  25  42  64  93 132 171 214 267 327 385
#     4  10  23  42  64  97 131 167 216 269 321 384
#     4  11  24  42  68  95 130 170 217 264 327 383
#     4  10  21  41  66  99 123 168 219 271 321 384
#     4  11  24  41  66  96 132 169 219 266 322 390
#     4   9  22  45  66  94 130 169 211 274 320 382
#     4  10  22  41  67  92 127 168 219 267 323 384
#
# _framework density 20.093896000000001
#
# number of rings (size 3 to 8) (size 9 to 14) (size 15 to 20)
#    0.000    1.429    1.429    2.571    8.000    1.714 
#    5.143    0.000    0.000    0.000    0.000    0.000 
#    0.000    0.000    0.000    0.000    0.000    0.000 
#
# Total GULP energy -156313.180734 kJ/mol
# GULP energy per Si atom -5582.613598 kJ/mol
# Density = 2.004816 g / cm^3
# Si number density = 20.093896 Si / 1000 Ang^3
#
#
#
# Elastic Constant Matrix: (Units=GPa)
#
#
# Indices 1 2 3 4 5 6 
#
# 1 66.7845 37.6366 14.7253 0.0000 0.0000 0.0000
# 2 37.6366 96.4272 22.4382 0.0000 0.0000 0.0000
# 3 14.7253 22.4382 43.6227 0.0000 0.0000 0.0000
# 4 0.0000 0.0000 0.0000 39.9283 0.0000 0.0000
# 5 0.0000 0.0000 0.0000 0.0000 21.8668 0.0000
# 6 0.0000 0.0000 0.0000 0.0000 0.0000 34.4026
#
#
#
# Elastic Compliance Matrix: (Units=1/GPa)
#
#
# Indices 1 2 3 4 5 6 
#
# 1 0.019544 -0.006921 -0.003037 0.000000 0.000000 0.000000
# 2 -0.006921 0.014232 -0.004984 0.000000 0.000000 0.000000
# 3 -0.003037 -0.004984 0.026513 0.000000 0.000000 0.000000
# 4 0.000000 0.000000 0.000000 0.025045 0.000000 0.000000
# 5 0.000000 0.000000 0.000000 0.000000 0.045731 0.000000
# 6 0.000000 0.000000 0.000000 0.000000 0.000000 0.029068
#
#
# Mechanical properties :
#
#
# Convention : Reuss Voigt Hill
#
# Bulk Modulus (GPa) = 32.89120 39.60384 36.24752
# Shear Modulus (GPa) = 24.98108 28.04182 26.51145
#
# Velocity S-wave (km/s) = 3.52975 3.73974 3.63627
# Velocity P-wave (km/s) = 5.74600 6.19675 5.97563
#
# Compressibility (1/GPa) = 0.03040327
#
# Stress axis : x y z
#
# Youngs Moduli (GPa) = 51.16720 70.26525 37.71792
#
# Poissons Ratio (x) = 0.48634 0.11455
# Poissons Ratio (y) = 0.35415 0.18799
# Poissons Ratio (z) = 0.15540 0.35020
#
# Static dielectric constant tensor:
#      x y z
#    x 1.709420 0.000000 0.000000 
#    y 0.000000 1.705250 0.000000 
#    z 0.000000 0.000000 1.687830 
# 
# From -- ./inp_files/6346.got.cif
#   From: 2010.05.17/outbox.cif.g08.bks.cpg/sg43_4_cif.got.tgz:6346.got - 2010.06.03 19:21:55.
