data_PCOD9371361
_publ_section_title
;
Structure prediction by ZEFSAII (Michael W. Deem and Ramdas Pophale) SiO2 
 PCOD9371361
Probable space group: F D D 2
;
_chemical_formula_sum "Si O2"
_cell_formula_units_Z 96
_cell_length_a 18.184663
_cell_length_b 8.330730
_cell_length_c 27.143701
_cell_angle_alpha 90.000000
_cell_angle_beta 90.000000
_cell_angle_gamma 90.000000
_cell_volume 4112.040458
_symmetry_space_group_name_H-M "F D D 2"
_symmetry_group_IT_number 43
_symmetry_cell_setting 'orthorhombic'
loop_
_space_group_symop_operation_xyz
x,y,z
-x,-y,z
1/4-x,1/4+y,1/4+z
1/4+x,1/4-y,1/4+z
x,1/2+y,1/2+z
-x,1/2-y,1/2+z
1/4-x,3/4+y,3/4+z
1/4+x,3/4-y,3/4+z
1/2+x,y,1/2+z
1/2-x,-y,1/2+z
3/4-x,1/4+y,3/4+z
3/4+x,1/4-y,3/4+z
1/2+x,1/2+y,z
1/2-x,1/2-y,z
3/4-x,3/4+y,1/4+z
3/4+x,3/4-y,1/4+z
loop_
_atom_site_type_symbol
_atom_site_label
_atom_site_fract_x
_atom_site_fract_y
_atom_site_fract_z
Si Si1 0.000000 0.500000 0.723230
Si Si2 0.825515 0.022138 0.892908
Si Si3 0.250000 0.250000 0.249888
Si Si4 0.915589 0.749963 0.931910
Si Si5 0.634622 0.310553 0.244273
Si Si6 0.817153 0.984400 0.325222
Si Si7 0.183420 0.950052 0.140798
O O1 0.956383 0.375358 0.688520
O O2 0.945227 0.612828 0.752815
O O3 0.758436 0.020381 0.855212
O O4 0.896990 0.127748 0.877389
O O5 0.849316 0.842823 0.906055
O O6 0.295254 0.132639 0.215402
O O7 0.193780 0.151831 0.283791
O O8 0.889127 0.614255 0.970244
O O9 0.978118 0.698194 0.892077
O O10 0.674544 0.350790 0.295024
O O11 0.667918 0.410813 0.198367
O O12 0.884635 0.926962 0.359661
#
# Coordination Sequence:
#
# PCOD9371361 Si02
#       7
#     8  16   8  16  16  16  16
#     4  10  21  50  74 106 158 206 252 340 400 465
#     4  11  20  44  78 112 148 201 264 318 402 475
#     4  12  21  42  76 106 152 206 264 322 392 483
#     4  12  25  45  79 114 157 209 258 338 410 474
#     4  11  25  47  75 105 157 201 266 323 401 467
#     4  12  23  45  78 110 152 217 270 319 396 489
#     4  11  21  46  73 109 153 201 249 329 392 468
#
# _framework density 23.346074000000002
#
# number of rings (size 3 to 8) (size 9 to 14) (size 15 to 20)
#    0.000    0.667    8.333    1.500    0.000    0.667 
#    9.000    0.000    0.000    0.000    0.000    0.000 
#    0.000    0.000    0.000    0.000    0.000    0.000 
#
# Total GULP energy -134170.525062 kJ/mol
# GULP energy per Si atom -5590.438544 kJ/mol
# Density = 2.329294 g / cm^3
# Si number density = 23.346074 Si / 1000 Ang^3
#
#
#
# Elastic Constant Matrix: (Units=GPa)
#
#
# Indices 1 2 3 4 5 6 
#
# 1 106.3806 68.8906 41.2214 0.0000 0.0000 0.0000
# 2 68.8906 136.9935 49.4179 0.0000 0.0000 0.0000
# 3 41.2214 49.4179 96.7421 0.0000 0.0000 0.0000
# 4 0.0000 0.0000 0.0000 30.4971 0.0000 0.0000
# 5 0.0000 0.0000 0.0000 0.0000 -6.5462 0.0000
# 6 0.0000 0.0000 0.0000 0.0000 0.0000 39.8666
#
#
#
# Elastic Compliance Matrix: (Units=1/GPa)
#
#
# Indices 1 2 3 4 5 6 
#
# 1 0.014632 -0.006263 -0.003035 0.000000 0.000000 0.000000
# 2 -0.006263 0.011630 -0.003272 0.000000 0.000000 0.000000
# 3 -0.003035 -0.003272 0.013301 0.000000 0.000000 0.000000
# 4 0.000000 0.000000 0.000000 0.032790 0.000000 0.000000
# 5 0.000000 0.000000 0.000000 0.000000 -0.152760 0.000000
# 6 0.000000 0.000000 0.000000 0.000000 0.000000 0.025084
#
#
# Mechanical properties :
#
#
# Convention : Reuss Voigt Hill
#
# Bulk Modulus (GPa) = 69.33688 73.24175 71.28932
# Shear Modulus (GPa) = -197.05253 24.80258 -86.12497
#
# Velocity S-wave (km/s) = -9.19719 3.26297 -6.08035
# Velocity P-wave (km/s) = 9.11154 6.75546 4.32343
#
# Compressibility (1/GPa) = 0.01442234
#
# Stress axis : x y z
#
# Youngs Moduli (GPa) = 68.34130 85.98787 75.17984
#
# Poissons Ratio (x) = 0.53857 0.22820
# Poissons Ratio (y) = 0.42804 0.24598
# Poissons Ratio (z) = 0.20744 0.28134
#
# Static dielectric constant tensor:
#      x y z
#    x 2.041950 0.000000 0.000000 
#    y 0.000000 1.939380 0.000000 
#    z 0.000000 0.000000 1.864670 
# 
# From -- ./inp_files/26326.got.cif
#   From: 2010.05.17/outbox.cif.g08.bks.cpg/sg43_14_cif.got.tgz:26326.got - 2010.06.03 19:21:55.
