data_PCOD9371756
_publ_section_title
;
Structure prediction by ZEFSAII (Michael W. Deem and Ramdas Pophale) SiO2 
 PCOD9371756
Probable space group: F D D 2
;
_chemical_formula_sum "Si O2"
_cell_formula_units_Z 72
_cell_length_a 23.113439
_cell_length_b 12.280612
_cell_length_c 11.136239
_cell_angle_alpha 90.000000
_cell_angle_beta 90.000000
_cell_angle_gamma 90.000000
_cell_volume 3160.989995
_symmetry_space_group_name_H-M "F D D 2"
_symmetry_group_IT_number 43
_symmetry_cell_setting 'orthorhombic'
loop_
_space_group_symop_operation_xyz
x,y,z
-x,-y,z
1/4-x,1/4+y,1/4+z
1/4+x,1/4-y,1/4+z
x,1/2+y,1/2+z
-x,1/2-y,1/2+z
1/4-x,3/4+y,3/4+z
1/4+x,3/4-y,3/4+z
1/2+x,y,1/2+z
1/2-x,-y,1/2+z
3/4-x,1/4+y,3/4+z
3/4+x,1/4-y,3/4+z
1/2+x,1/2+y,z
1/2-x,1/2-y,z
3/4-x,3/4+y,1/4+z
3/4+x,3/4-y,1/4+z
loop_
_atom_site_type_symbol
_atom_site_label
_atom_site_fract_x
_atom_site_fract_y
_atom_site_fract_z
Si Si1 0.750000 0.750000 0.418530
Si Si2 0.315724 0.471645 0.803394
Si Si3 0.436734 0.279091 0.493058
Si Si4 0.576329 0.978187 0.889937
Si Si5 0.631821 0.823059 0.286987
O O1 0.710719 0.689183 0.522616
O O2 0.695854 0.785235 0.332909
O O3 0.248936 0.503323 0.792188
O O4 0.316367 0.351787 0.749881
O O5 0.355115 0.557739 0.732802
O O6 0.344369 0.484077 0.933727
O O7 0.436540 0.396870 0.426642
O O8 0.392419 0.282598 0.602037
O O9 0.409788 0.191364 0.401579
#
# Coordination Sequence:
#
# PCOD9371756 Si02
#       5
#     8  16  16  16  16
#     4  10  22  46  72  98 152 192 246 286 378 460
#     4  12  26  45  70 109 149 186 252 313 367 433
#     4  11  25  46  74 102 148 198 248 301 380 451
#     4  11  23  46  75 106 141 202 251 300 373 454
#     4  11  27  43  71 112 144 191 247 308 375 436
#
# _framework density 22.777674000000001
#
# number of rings (size 3 to 8) (size 9 to 14) (size 15 to 20)
#    0.000    0.889    2.222    4.000    9.333    1.778 
#    0.000    0.000    0.000    0.000    0.000    0.000 
#    0.000    0.000    0.000    0.000    0.000    0.000 
#
# Total GULP energy -100263.383617 kJ/mol
# GULP energy per Si atom -5570.187979 kJ/mol
# Density = 2.272583 g / cm^3
# Si number density = 22.777674 Si / 1000 Ang^3
#
#
#
# Elastic Constant Matrix: (Units=GPa)
#
#
# Indices 1 2 3 4 5 6 
#
# 1 205.8034 52.3621 78.1267 0.0000 0.0000 0.0000
# 2 52.3621 77.4580 9.6690 0.0000 0.0000 0.0000
# 3 78.1267 9.6690 67.3926 0.0000 0.0000 0.0000
# 4 0.0000 0.0000 0.0000 25.7461 0.0000 0.0000
# 5 0.0000 0.0000 0.0000 0.0000 55.7255 0.0000
# 6 0.0000 0.0000 0.0000 0.0000 0.0000 16.1523
#
#
#
# Elastic Compliance Matrix: (Units=1/GPa)
#
#
# Indices 1 2 3 4 5 6 
#
# 1 0.010756 -0.005819 -0.011635 0.000000 0.000000 0.000000
# 2 -0.005819 0.016294 0.004408 0.000000 0.000000 0.000000
# 3 -0.011635 0.004408 0.027694 0.000000 0.000000 0.000000
# 4 0.000000 0.000000 0.000000 0.038841 0.000000 0.000000
# 5 0.000000 0.000000 0.000000 0.000000 0.017945 0.000000
# 6 0.000000 0.000000 0.000000 0.000000 0.000000 0.061911
#
#
# Mechanical properties :
#
#
# Convention : Reuss Voigt Hill
#
# Bulk Modulus (GPa) = 34.90085 70.10773 52.50429
# Shear Modulus (GPa) = 23.91410 33.55786 28.73598
#
# Velocity S-wave (km/s) = 3.24372 3.84250 3.55573
# Velocity P-wave (km/s) = 5.42076 7.10861 6.32127
#
# Compressibility (1/GPa) = 0.02865260
#
# Stress axis : x y z
#
# Youngs Moduli (GPa) = 92.96988 61.37380 36.10939
#
# Poissons Ratio (x) = 0.35713 0.42012
# Poissons Ratio (y) = 0.54098 -0.15917
# Poissons Ratio (z) = 1.08166 -0.27054
#
# Static dielectric constant tensor:
#      x y z
#    x 1.843520 0.000000 0.000000 
#    y 0.000000 2.082320 0.000000 
#    z 0.000000 0.000000 1.901450 
# 
# From -- ./inp_files/5616.got.cif
#   From: 2010.05.17/outbox.cif.g08.bks.cpg/sg43_3_cif.got.tgz:5616.got - 2010.06.03 19:21:55.
