data_PCOD9371793
_publ_section_title
;
Structure prediction by ZEFSAII (Michael W. Deem and Ramdas Pophale) SiO2 
 PCOD9371793
Probable space group: F D D 2
;
_chemical_formula_sum "Si O2"
_cell_formula_units_Z 56
_cell_length_a 11.031777
_cell_length_b 11.491093
_cell_length_c 16.547574
_cell_angle_alpha 90.000000
_cell_angle_beta 90.000000
_cell_angle_gamma 90.000000
_cell_volume 2097.689217
_symmetry_space_group_name_H-M "F D D 2"
_symmetry_group_IT_number 43
_symmetry_cell_setting 'orthorhombic'
loop_
_space_group_symop_operation_xyz
x,y,z
-x,-y,z
1/4-x,1/4+y,1/4+z
1/4+x,1/4-y,1/4+z
x,1/2+y,1/2+z
-x,1/2-y,1/2+z
1/4-x,3/4+y,3/4+z
1/4+x,3/4-y,3/4+z
1/2+x,y,1/2+z
1/2-x,-y,1/2+z
3/4-x,1/4+y,3/4+z
3/4+x,1/4-y,3/4+z
1/2+x,1/2+y,z
1/2-x,1/2-y,z
3/4-x,3/4+y,1/4+z
3/4+x,3/4-y,1/4+z
loop_
_atom_site_type_symbol
_atom_site_label
_atom_site_fract_x
_atom_site_fract_y
_atom_site_fract_z
Si Si1 0.426033 0.292371 0.629760
Si Si2 0.874869 0.060853 0.050353
Si Si3 0.750000 0.750000 0.495447
Si Si4 0.075046 0.618053 0.303128
O O1 0.407217 0.151620 0.622467
O O2 0.339223 0.324594 0.555155
O O3 0.381009 0.343440 0.713760
O O4 0.559762 0.342307 0.610463
O O5 0.840422 0.145243 0.974895
O O6 0.774569 0.966522 0.072759
O O7 0.000000 0.000000 0.029833
O O8 0.000000 0.500000 0.295861
#
# Coordination Sequence:
#
# PCOD9371793 Si02
#       4
#    16  16   8  16
#     4  10  26  47  72 117 151 205 263 330 398 482
#     4  10  22  50  66 108 148 200 257 319 394 465
#     4   8  22  46  66 108 146 188 262 310 386 464
#     4  12  25  48  83 111 160 210 270 332 411 483
#
# _framework density 26.696041999999998
#
# number of rings (size 3 to 8) (size 9 to 14) (size 15 to 20)
#    1.714    0.000    2.857    0.000    4.000    3.429 
#    7.714    0.000    0.000    0.000    0.000    0.000 
#    0.000    0.000    0.000    0.000    0.000    0.000 
#
# Total GULP energy -78059.424663 kJ/mol
# GULP energy per Si atom -5575.673190 kJ/mol
# Density = 2.663528 g / cm^3
# Si number density = 26.696042 Si / 1000 Ang^3
#
#
#
# Elastic Constant Matrix: (Units=GPa)
#
#
# Indices 1 2 3 4 5 6 
#
# 1 140.5814 71.3123 8.9076 0.0000 0.0000 0.0000
# 2 71.3123 214.7546 9.3760 0.0000 0.0000 0.0000
# 3 8.9076 9.3760 81.0482 0.0000 0.0000 0.0000
# 4 0.0000 0.0000 0.0000 -179.2075 0.0000 0.0000
# 5 0.0000 0.0000 0.0000 0.0000 60.5399 0.0000
# 6 0.0000 0.0000 0.0000 0.0000 0.0000 57.5613
#
#
#
# Elastic Compliance Matrix: (Units=1/GPa)
#
#
# Indices 1 2 3 4 5 6 
#
# 1 0.008585 -0.002824 -0.000617 0.000000 0.000000 0.000000
# 2 -0.002824 0.005609 -0.000339 0.000000 0.000000 0.000000
# 3 -0.000617 -0.000339 0.012445 0.000000 0.000000 0.000000
# 4 0.000000 0.000000 0.000000 -0.005580 0.000000 0.000000
# 5 0.000000 0.000000 0.000000 0.000000 0.016518 0.000000
# 6 0.000000 0.000000 0.000000 0.000000 0.000000 0.017373
#
#
# Mechanical properties :
#
#
# Convention : Reuss Voigt Hill
#
# Bulk Modulus (GPa) = 52.40884 68.39733 60.40308
# Shear Modulus (GPa) = 72.60239 10.89796 41.75018
#
# Velocity S-wave (km/s) = 5.22063 2.02265 3.95892
# Velocity P-wave (km/s) = 7.48427 5.57953 6.60096
#
# Compressibility (1/GPa) = 0.01908075
#
# Stress axis : x y z
#
# Youngs Moduli (GPa) = 116.48488 178.28713 80.35170
#
# Poissons Ratio (x) = 0.50344 0.04956
# Poissons Ratio (y) = 0.32893 0.02720
# Poissons Ratio (z) = 0.07185 0.06035
#
# Static dielectric constant tensor:
#      x y z
#    x 2.174380 0.000000 0.000000 
#    y 0.000000 2.195990 0.000000 
#    z 0.000000 0.000000 2.305940 
# 
# From -- ./inp_files/16855.got.cif
#   From: 2010.05.17/outbox.cif.g08.bks.cpg/sg43_9_cif.got.tgz:16855.got - 2010.06.03 19:21:55.
