data_PCOD9371119
_publ_section_title
;
Structure prediction by ZEFSAII (Michael W. Deem and Ramdas Pophale) SiO2 
 PCOD9371119
Probable space group: F D D 2
;
_chemical_formula_sum "Si O2"
_cell_formula_units_Z 80
_cell_length_a 26.263285
_cell_length_b 5.144884
_cell_length_c 23.647017
_cell_angle_alpha 90.000000
_cell_angle_beta 90.000000
_cell_angle_gamma 90.000000
_cell_volume 3195.221703
_symmetry_space_group_name_H-M "F D D 2"
_symmetry_group_IT_number 43
_symmetry_cell_setting 'orthorhombic'
loop_
_space_group_symop_operation_xyz
x,y,z
-x,-y,z
1/4-x,1/4+y,1/4+z
1/4+x,1/4-y,1/4+z
x,1/2+y,1/2+z
-x,1/2-y,1/2+z
1/4-x,3/4+y,3/4+z
1/4+x,3/4-y,3/4+z
1/2+x,y,1/2+z
1/2-x,-y,1/2+z
3/4-x,1/4+y,3/4+z
3/4+x,1/4-y,3/4+z
1/2+x,1/2+y,z
1/2-x,1/2-y,z
3/4-x,3/4+y,1/4+z
3/4+x,3/4-y,1/4+z
loop_
_atom_site_type_symbol
_atom_site_label
_atom_site_fract_x
_atom_site_fract_y
_atom_site_fract_z
Si Si1 0.215009 0.494671 0.562120
Si Si2 0.523041 0.260645 0.989315
Si Si3 0.977394 0.254772 0.117801
Si Si4 0.377643 0.711630 0.719771
Si Si5 0.869082 0.192657 0.149409
O O1 0.250000 0.750000 0.572142
O O2 0.172291 0.564840 0.515135
O O3 0.181059 0.386451 0.614933
O O4 0.250000 0.250000 0.544531
O O5 0.500000 0.500000 0.955454
O O6 0.501786 0.251095 0.053494
O O7 0.500000 0.000000 0.964109
O O8 0.580789 0.361320 0.993713
O O9 0.917199 0.293515 0.114008
O O10 0.000000 0.500000 0.149588
O O11 0.000000 0.000000 0.145376
O O12 0.362017 0.427058 0.695316
O O13 0.391441 0.915550 0.670722
#
# Coordination Sequence:
#
# PCOD9371119 Si02
#       5
#    16  16  16  16  16
#     4  12  28  51  75 109 161 212 256 318 398 474
#     4  10  21  40  67  98 134 178 233 304 372 434
#     4  10  21  39  67  98 134 177 235 305 373 434
#     4  12  26  45  74 108 147 200 259 314 378 470
#     4  12  26  45  73 109 150 199 257 315 381 468
#
# _framework density 25.037388
#
# number of rings (size 3 to 8) (size 9 to 14) (size 15 to 20)
#    0.000    0.800    2.000    4.800    0.000    8.000 
#    0.000    0.000    0.000    0.000    0.000    0.000 
#    0.000    0.000    0.000    0.000    0.000    0.000 
#
# Total GULP energy -111478.391387 kJ/mol
# GULP energy per Si atom -5573.919569 kJ/mol
# Density = 2.498040 g / cm^3
# Si number density = 25.037388 Si / 1000 Ang^3
#
#
#
# Elastic Constant Matrix: (Units=GPa)
#
#
# Indices 1 2 3 4 5 6 
#
# 1 166.6958 87.9203 44.1334 -0.0032 0.0008 -0.0016
# 2 87.9203 260.5543 42.8828 -0.0096 -0.0017 -0.0120
# 3 44.1334 42.8828 71.3428 -0.0002 -0.0003 -0.0009
# 4 -0.0032 -0.0096 -0.0002 17.6628 0.0005 -0.0021
# 5 0.0008 -0.0017 -0.0003 0.0005 30.2004 -0.0015
# 6 -0.0016 -0.0120 -0.0009 -0.0021 -0.0015 49.9627
#
#
#
# Elastic Compliance Matrix: (Units=1/GPa)
#
#
# Indices 1 2 3 4 5 6 
#
# 1 0.008108 -0.002120 -0.003741 0.000000 0.000000 0.000000
# 2 -0.002120 0.004814 -0.001582 0.000002 0.000000 0.000001
# 3 -0.003741 -0.001582 0.017282 -0.000001 0.000000 0.000000
# 4 0.000000 0.000002 -0.000001 0.056616 -0.000001 0.000002
# 5 0.000000 0.000000 0.000000 -0.000001 0.033112 0.000001
# 6 0.000000 0.000001 0.000000 0.000002 0.000001 0.020015
#
#
# Mechanical properties :
#
#
# Convention : Reuss Voigt Hill
#
# Bulk Modulus (GPa) = 65.28663 94.27399 79.78031
# Shear Modulus (GPa) = 31.26202 41.14227 36.20215
#
# Velocity S-wave (km/s) = 3.53741 4.05808 3.80666
# Velocity P-wave (km/s) = 6.54344 7.72608 7.15922
#
# Compressibility (1/GPa) = 0.01531707
#
# Stress axis : x y z
#
# Youngs Moduli (GPa) = 123.34081 207.73959 57.86371
#
# Poissons Ratio (x) = 0.44042 0.21647
# Poissons Ratio (y) = 0.26149 0.09154
# Poissons Ratio (z) = 0.46143 0.32863
#
# Static dielectric constant tensor:
#      x y z
#    x 2.134860 0.000020 -0.000010 
#    y 0.000020 1.986550 -0.000010 
#    z -0.000010 -0.000010 2.067340 
# 
# From -- ./inp_files/26687.got.cif
#   From: 2010.05.17/outbox.cif.g08.bks.cpg/sg43_14_cif.got.tgz:26687.got - 2010.06.03 19:21:55.
