data_PCOD9371475
_publ_section_title
;
Structure prediction by ZEFSAII (Michael W. Deem and Ramdas Pophale) SiO2 
 PCOD9371475
Probable space group: F D D 2
;
_chemical_formula_sum "Si O2"
_cell_formula_units_Z 112
_cell_length_a 24.524260
_cell_length_b 7.246546
_cell_length_c 29.188993
_cell_angle_alpha 90.000000
_cell_angle_beta 90.000000
_cell_angle_gamma 90.000000
_cell_volume 5187.356282
_symmetry_space_group_name_H-M "F D D 2"
_symmetry_group_IT_number 43
_symmetry_cell_setting 'orthorhombic'
loop_
_space_group_symop_operation_xyz
x,y,z
-x,-y,z
1/4-x,1/4+y,1/4+z
1/4+x,1/4-y,1/4+z
x,1/2+y,1/2+z
-x,1/2-y,1/2+z
1/4-x,3/4+y,3/4+z
1/4+x,3/4-y,3/4+z
1/2+x,y,1/2+z
1/2-x,-y,1/2+z
3/4-x,1/4+y,3/4+z
3/4+x,1/4-y,3/4+z
1/2+x,1/2+y,z
1/2-x,1/2-y,z
3/4-x,3/4+y,1/4+z
3/4+x,3/4-y,1/4+z
loop_
_atom_site_type_symbol
_atom_site_label
_atom_site_fract_x
_atom_site_fract_y
_atom_site_fract_z
Si Si1 0.385571 0.261417 0.188470
Si Si2 0.951100 0.247486 0.601711
Si Si3 0.844175 0.944158 0.756298
Si Si4 0.149218 0.677273 0.009380
Si Si5 0.675605 0.430397 0.141677
Si Si6 0.072694 0.316363 0.589876
Si Si7 0.000000 0.000000 0.320189
Si Si8 0.000000 0.500000 0.966329
O O1 0.429249 0.189739 0.151599
O O2 0.408877 0.431544 0.218101
O O3 0.340638 0.362691 0.156040
O O4 0.363521 0.117196 0.226036
O O5 0.909991 0.183436 0.561538
O O6 0.943485 0.468558 0.594135
O O7 0.984101 0.790758 0.597002
O O8 0.881861 0.773080 0.743033
O O9 0.781168 0.904932 0.744285
O O10 0.100688 0.759624 0.041774
O O11 0.203165 0.663412 0.039446
O O12 0.622585 0.311453 0.126270
O O13 0.719322 0.402487 0.101167
O O14 0.704927 0.342549 0.184879
#
# Coordination Sequence:
#
# PCOD9371475 Si02
#       8
#    16  16  16  16  16  16   8   8
#     4  11  24  44  70 101 139 179 229 288 342 412
#     4  10  22  40  70 100 135 178 225 281 342 403
#     4  12  25  42  69 106 133 181 234 282 343 414
#     4  11  22  45  72  97 141 181 227 285 342 415
#     4   9  20  40  67 105 130 180 228 278 340 406
#     4   9  19  40  70  97 135 175 222 274 345 399
#     4   9  22  42  78  94 142 194 222 286 361 400
#     4  11  22  40  66  96 130 174 236 272 337 406
#
# _framework density 21.590961
#
# number of rings (size 3 to 8) (size 9 to 14) (size 15 to 20)
#    0.000    1.714    2.857    0.857    0.000    6.286 
#    0.000    2.143    0.000    0.000    0.000    0.000 
#    0.000    0.000    0.000    0.000    0.000    0.000 
#
# Total GULP energy -156144.700442 kJ/mol
# GULP energy per Si atom -5576.596444 kJ/mol
# Density = 2.154182 g / cm^3
# Si number density = 21.590961 Si / 1000 Ang^3
#
#
#
# Elastic Constant Matrix: (Units=GPa)
#
#
# Indices 1 2 3 4 5 6 
#
# 1 115.5709 23.7450 47.4805 0.0000 -0.0044 0.0001
# 2 23.7450 64.0442 30.5528 0.0002 -0.0083 0.0003
# 3 47.4805 30.5528 118.0845 0.0000 -0.0007 0.0000
# 4 0.0000 0.0002 0.0000 3.8729 -0.0002 0.0000
# 5 -0.0044 -0.0083 -0.0007 -0.0002 144.3666 0.0055
# 6 0.0001 0.0003 0.0000 0.0000 0.0055 15.7395
#
#
#
# Elastic Compliance Matrix: (Units=1/GPa)
#
#
# Indices 1 2 3 4 5 6 
#
# 1 0.010622 -0.002168 -0.003710 0.000000 0.000000 0.000000
# 2 -0.002168 0.018256 -0.003851 -0.000001 0.000001 0.000000
# 3 -0.003710 -0.003851 0.010957 0.000000 0.000000 0.000000
# 4 0.000000 -0.000001 0.000000 0.258207 0.000000 -0.000001
# 5 0.000000 0.000001 0.000000 0.000000 0.006927 -0.000002
# 6 0.000000 0.000000 0.000000 -0.000001 -0.000002 0.063534
#
#
# Mechanical properties :
#
#
# Convention : Reuss Voigt Hill
#
# Bulk Modulus (GPa) = 49.08027 55.69512 52.38769
# Shear Modulus (GPa) = 12.66609 45.85722 29.26166
#
# Velocity S-wave (km/s) = 2.42469 4.61359 3.68540
# Velocity P-wave (km/s) = 5.53354 7.36423 6.51352
#
# Compressibility (1/GPa) = 0.02037479
#
# Stress axis : x y z
#
# Youngs Moduli (GPa) = 94.14006 54.77783 91.26724
#
# Poissons Ratio (x) = 0.11878 0.33861
# Poissons Ratio (y) = 0.20414 0.35151
# Poissons Ratio (z) = 0.34927 0.21098
#
# Static dielectric constant tensor:
#      x y z
#    x 1.351640 0.000000 -0.000010 
#    y 0.000000 1.828970 0.000000 
#    z -0.000010 0.000000 1.841100 
# 
# From -- ./inp_files/30066.got.cif
#   From: 2010.05.17/outbox.cif.g08.bks.cpg/sg43_16_cif.got.tgz:30066.got - 2010.06.03 19:21:55.
