data_PCOD9371906
_publ_section_title
;
Structure prediction by ZEFSAII (Michael W. Deem and Ramdas Pophale) SiO2 
 PCOD9371906
Probable space group: F D D 2
;
_chemical_formula_sum "Si O2"
_cell_formula_units_Z 96
_cell_length_a 8.945217
_cell_length_b 22.658527
_cell_length_c 21.031092
_cell_angle_alpha 90.000000
_cell_angle_beta 90.000000
_cell_angle_gamma 90.000000
_cell_volume 4262.696155
_symmetry_space_group_name_H-M "F D D 2"
_symmetry_group_IT_number 43
_symmetry_cell_setting 'orthorhombic'
loop_
_space_group_symop_operation_xyz
x,y,z
-x,-y,z
1/4-x,1/4+y,1/4+z
1/4+x,1/4-y,1/4+z
x,1/2+y,1/2+z
-x,1/2-y,1/2+z
1/4-x,3/4+y,3/4+z
1/4+x,3/4-y,3/4+z
1/2+x,y,1/2+z
1/2-x,-y,1/2+z
3/4-x,1/4+y,3/4+z
3/4+x,1/4-y,3/4+z
1/2+x,1/2+y,z
1/2-x,1/2-y,z
3/4-x,3/4+y,1/4+z
3/4+x,3/4-y,1/4+z
loop_
_atom_site_type_symbol
_atom_site_label
_atom_site_fract_x
_atom_site_fract_y
_atom_site_fract_z
Si Si1 0.142070 0.462175 0.982190
Si Si2 0.158013 0.987948 0.147504
Si Si3 0.092732 0.223185 0.129021
Si Si4 0.631918 0.460191 0.289108
Si Si5 0.639612 0.362335 0.379139
Si Si6 0.258102 0.602160 0.609273
O O1 0.232836 0.507652 0.936412
O O2 0.097113 0.406013 0.937546
O O3 0.000000 0.500000 0.005258
O O4 0.230869 0.432782 0.041492
O O5 0.122072 0.958856 0.214425
O O6 0.297667 0.948217 0.125591
O O7 0.211203 0.053804 0.160381
O O8 0.000000 0.000000 0.111274
O O9 0.250000 0.250000 0.148666
O O10 0.139815 0.155968 0.111478
O O11 0.030472 0.259219 0.067530
O O12 0.500000 0.500000 0.316293
O O13 0.602717 0.395994 0.314868
O O14 0.819987 0.364325 0.377789
#
# Coordination Sequence:
#
# PCOD9371906 Si02
#       6
#    16  16  16  16  16  16
#     4  11  25  45  74 104 148 198 241 305 374 443
#     4  11  27  43  66 108 139 181 236 294 356 425
#     4  11  23  43  72 109 140 189 245 296 365 431
#     4  10  23  44  70 100 139 187 230 288 355 428
#     4  11  22  45  71 101 140 191 237 290 364 437
#     4  12  26  45  69 107 143 192 240 303 364 442
#
# _framework density 22.520956999999999
#
# number of rings (size 3 to 8) (size 9 to 14) (size 15 to 20)
#    0.000    1.000    3.333    4.500    7.000    0.667 
#    3.000    0.000    0.000    0.000    0.000    0.000 
#    0.000    0.000    0.000    0.000    0.000    0.000 
#
# Total GULP energy -133724.739975 kJ/mol
# GULP energy per Si atom -5571.864166 kJ/mol
# Density = 2.246970 g / cm^3
# Si number density = 22.520957 Si / 1000 Ang^3
#
#
#
# Elastic Constant Matrix: (Units=GPa)
#
#
# Indices 1 2 3 4 5 6 
#
# 1 87.8607 31.4325 2.6306 0.0000 0.0000 0.0000
# 2 31.4325 116.3172 11.4463 0.0000 0.0000 0.0000
# 3 2.6306 11.4463 58.0691 0.0000 0.0000 0.0000
# 4 0.0000 0.0000 0.0000 28.3239 0.0000 0.0000
# 5 0.0000 0.0000 0.0000 0.0000 33.4783 0.0000
# 6 0.0000 0.0000 0.0000 0.0000 0.0000 43.5530
#
#
#
# Elastic Compliance Matrix: (Units=1/GPa)
#
#
# Indices 1 2 3 4 5 6 
#
# 1 0.012600 -0.003415 0.000102 0.000000 0.000000 0.000000
# 2 -0.003415 0.009693 -0.001756 0.000000 0.000000 0.000000
# 3 0.000102 -0.001756 0.017562 0.000000 0.000000 0.000000
# 4 0.000000 0.000000 0.000000 0.035306 0.000000 0.000000
# 5 0.000000 0.000000 0.000000 0.000000 0.029870 0.000000
# 6 0.000000 0.000000 0.000000 0.000000 0.000000 0.022961
#
#
# Mechanical properties :
#
#
# Convention : Reuss Voigt Hill
#
# Bulk Modulus (GPa) = 33.64933 39.25177 36.45055
# Shear Modulus (GPa) = 33.77570 35.52020 34.64795
#
# Velocity S-wave (km/s) = 3.87686 3.97571 3.92660
# Velocity P-wave (km/s) = 5.91725 6.20821 6.06447
#
# Compressibility (1/GPa) = 0.02971827
#
# Stress axis : x y z
#
# Youngs Moduli (GPa) = 79.36292 103.16903 56.94003
#
# Poissons Ratio (x) = 0.35233 -0.00583
# Poissons Ratio (y) = 0.27103 0.09998
# Poissons Ratio (z) = -0.00812 0.18115
#
# Static dielectric constant tensor:
#      x y z
#    x 2.046840 0.000000 0.000000 
#    y 0.000000 1.639540 0.000000 
#    z 0.000000 0.000000 1.867870 
# 
# From -- ./inp_files/20277.got.cif
#   From: 2010.05.17/outbox.cif.g08.bks.cpg/sg43_11_cif.got.tgz:20277.got - 2010.06.03 19:21:55.
