data_PCOD9371276
_publ_section_title
;
Structure prediction by ZEFSAII (Michael W. Deem and Ramdas Pophale) SiO2 
 PCOD9371276
Probable space group: F D D 2
;
_chemical_formula_sum "Si O2"
_cell_formula_units_Z 88
_cell_length_a 15.036628
_cell_length_b 27.714424
_cell_length_c 10.502845
_cell_angle_alpha 90.000000
_cell_angle_beta 90.000000
_cell_angle_gamma 90.000000
_cell_volume 4376.866182
_symmetry_space_group_name_H-M "F D D 2"
_symmetry_group_IT_number 43
_symmetry_cell_setting 'orthorhombic'
loop_
_space_group_symop_operation_xyz
x,y,z
-x,-y,z
1/4-x,1/4+y,1/4+z
1/4+x,1/4-y,1/4+z
x,1/2+y,1/2+z
-x,1/2-y,1/2+z
1/4-x,3/4+y,3/4+z
1/4+x,3/4-y,3/4+z
1/2+x,y,1/2+z
1/2-x,-y,1/2+z
3/4-x,1/4+y,3/4+z
3/4+x,1/4-y,3/4+z
1/2+x,1/2+y,z
1/2-x,1/2-y,z
3/4-x,3/4+y,1/4+z
3/4+x,3/4-y,1/4+z
loop_
_atom_site_type_symbol
_atom_site_label
_atom_site_fract_x
_atom_site_fract_y
_atom_site_fract_z
Si Si1 0.337542 0.583194 0.201680
Si Si2 0.250000 0.750000 0.285467
Si Si3 0.996236 0.149397 0.716622
Si Si4 0.368367 0.068216 0.174347
Si Si5 0.035957 0.573990 0.812655
Si Si6 0.810852 0.473436 0.653387
O O1 0.275988 0.597760 0.321649
O O2 0.326178 0.624142 0.096420
O O3 0.437978 0.579438 0.254215
O O4 0.309273 0.530673 0.152736
O O5 0.327272 0.772777 0.370952
O O6 0.218178 0.792550 0.192031
O O7 0.084429 0.149719 0.803975
O O8 0.934043 0.103797 0.747659
O O9 0.949226 0.198385 0.765521
O O10 0.275260 0.048406 0.228738
O O11 0.100001 0.545243 0.718208
#
# Coordination Sequence:
#
# PCOD9371276 Si02
#       6
#    16   8  16  16  16  16
#     4  12  23  42  69  95 126 179 222 277 332 404
#     4  12  20  42  64  96 124 170 226 260 324 410
#     4  10  21  43  60  94 125 169 215 268 328 395
#     4  10  23  39  66  89 132 169 209 273 322 402
#     4  12  24  39  69  95 130 170 224 274 336 397
#     4  10  25  42  63  94 135 163 221 276 329 391
#
# _framework density 20.105709999999998
#
# number of rings (size 3 to 8) (size 9 to 14) (size 15 to 20)
#    1.091    0.000    5.455    0.000    5.091    1.455 
#    0.000    0.000    0.000    0.000    0.000    0.000 
#    0.000    0.000    0.000    0.000    0.000    0.000 
#
# Total GULP energy -122718.912468 kJ/mol
# GULP energy per Si atom -5578.132385 kJ/mol
# Density = 2.005995 g / cm^3
# Si number density = 20.105710 Si / 1000 Ang^3
#
#
#
# Elastic Constant Matrix: (Units=GPa)
#
#
# Indices 1 2 3 4 5 6 
#
# 1 73.5704 56.3560 -1.7789 0.0000 0.0000 0.0000
# 2 56.3560 121.7757 -0.1509 0.0000 0.0000 0.0000
# 3 -1.7789 -0.1509 5.7638 0.0000 0.0000 0.0000
# 4 0.0000 0.0000 0.0000 33.2939 0.0000 0.0000
# 5 0.0000 0.0000 0.0000 0.0000 -32.5863 0.0000
# 6 0.0000 0.0000 0.0000 0.0000 0.0000 32.9263
#
#
#
# Elastic Compliance Matrix: (Units=1/GPa)
#
#
# Indices 1 2 3 4 5 6 
#
# 1 0.021284 -0.009842 0.006311 0.000000 0.000000 0.000000
# 2 -0.009842 0.012763 -0.002703 0.000000 0.000000 0.000000
# 3 0.006311 -0.002703 0.175373 0.000000 0.000000 0.000000
# 4 0.000000 0.000000 0.000000 0.030036 0.000000 0.000000
# 5 0.000000 0.000000 0.000000 0.000000 -0.030688 0.000000
# 6 0.000000 0.000000 0.000000 0.000000 0.000000 0.030371
#
#
# Mechanical properties :
#
#
# Convention : Reuss Voigt Hill
#
# Bulk Modulus (GPa) = 5.07737 34.44023 19.75880
# Shear Modulus (GPa) = 15.75999 16.50570 16.13285
#
# Velocity S-wave (km/s) = 2.80278 2.86832 2.83574
# Velocity P-wave (km/s) = 3.60623 5.30438 4.53549
#
# Compressibility (1/GPa) = 0.19695237
#
# Stress axis : x y z
#
# Youngs Moduli (GPa) = 46.98284 78.34947 5.70212
#
# Poissons Ratio (x) = 0.77114 -0.03599
# Poissons Ratio (y) = 0.46242 0.01542
# Poissons Ratio (z) = -0.29653 0.21181
#
# Static dielectric constant tensor:
#      x y z
#    x 1.725790 0.000000 0.000000 
#    y 0.000000 1.694450 0.000000 
#    z 0.000000 0.000000 1.719100 
# 
# From -- ./inp_files/6213.got.cif
#   From: 2010.05.17/outbox.cif.g08.bks.cpg/sg43_4_cif.got.tgz:6213.got - 2010.06.03 19:21:55.
