data_PCOD9371675
_publ_section_title
;
Structure prediction by ZEFSAII (Michael W. Deem and Ramdas Pophale) SiO2 
 PCOD9371675
Probable space group: F D D 2
;
_chemical_formula_sum "Si O2"
_cell_formula_units_Z 72
_cell_length_a 12.733478
_cell_length_b 19.313926
_cell_length_c 14.266161
_cell_angle_alpha 90.000000
_cell_angle_beta 90.000000
_cell_angle_gamma 90.000000
_cell_volume 3508.526219
_symmetry_space_group_name_H-M "F D D 2"
_symmetry_group_IT_number 43
_symmetry_cell_setting 'orthorhombic'
loop_
_space_group_symop_operation_xyz
x,y,z
-x,-y,z
1/4-x,1/4+y,1/4+z
1/4+x,1/4-y,1/4+z
x,1/2+y,1/2+z
-x,1/2-y,1/2+z
1/4-x,3/4+y,3/4+z
1/4+x,3/4-y,3/4+z
1/2+x,y,1/2+z
1/2-x,-y,1/2+z
3/4-x,1/4+y,3/4+z
3/4+x,1/4-y,3/4+z
1/2+x,1/2+y,z
1/2-x,1/2-y,z
3/4-x,3/4+y,1/4+z
3/4+x,3/4-y,1/4+z
loop_
_atom_site_type_symbol
_atom_site_label
_atom_site_fract_x
_atom_site_fract_y
_atom_site_fract_z
Si Si1 0.500000 0.000000 0.714810
Si Si2 0.211255 0.824293 0.781248
Si Si3 0.252479 0.570309 0.424832
Si Si4 0.089307 0.306507 0.593712
Si Si5 0.013471 0.420056 0.998609
O O1 0.475464 0.938177 0.643346
O O2 0.401554 0.001199 0.783200
O O3 0.250000 0.750000 0.740980
O O4 0.094800 0.836256 0.743410
O O5 0.287017 0.889793 0.772062
O O6 0.254549 0.488060 0.401094
O O7 0.246242 0.616521 0.332267
O O8 0.366699 0.585890 0.466097
O O9 0.177049 0.338358 0.664750
O O10 0.000000 0.500000 0.030332
#
# Coordination Sequence:
#
# PCOD9371675 Si02
#       5
#     8  16  16  16  16
#     4  10  22  44  68  96 122 196 218 276 334 412
#     4  10  27  37  69  98 134 170 223 282 344 394
#     4  11  24  42  64  98 130 170 221 280 348 391
#     4  11  22  45  67  93 134 177 233 271 334 426
#     4  10  24  43  65  94 129 178 225 273 336 413
#
# _framework density 20.521438
#
# number of rings (size 3 to 8) (size 9 to 14) (size 15 to 20)
#    0.667    0.889    3.333    1.333    6.222    3.556 
#    0.000    0.000    0.000    0.000    0.000    0.000 
#    0.000    0.000    0.000    0.000    0.000    0.000 
#
# Total GULP energy -100229.600347 kJ/mol
# GULP energy per Si atom -5568.311130 kJ/mol
# Density = 2.047473 g / cm^3
# Si number density = 20.521438 Si / 1000 Ang^3
#
#
#
# Elastic Constant Matrix: (Units=GPa)
#
#
# Indices 1 2 3 4 5 6 
#
# 1 162.7075 83.7455 65.6417 0.0000 0.0000 0.0000
# 2 83.7455 87.8326 35.9484 0.0000 0.0000 0.0000
# 3 65.6417 35.9484 72.3531 0.0000 0.0000 0.0000
# 4 0.0000 0.0000 0.0000 31.3180 0.0000 0.0000
# 5 0.0000 0.0000 0.0000 0.0000 29.4476 0.0000
# 6 0.0000 0.0000 0.0000 0.0000 0.0000 31.3975
#
#
#
# Elastic Compliance Matrix: (Units=1/GPa)
#
#
# Indices 1 2 3 4 5 6 
#
# 1 0.015200 -0.011107 -0.008271 0.000000 0.000000 0.000000
# 2 -0.011107 0.022408 -0.001056 0.000000 0.000000 0.000000
# 3 -0.008271 -0.001056 0.021850 0.000000 0.000000 0.000000
# 4 0.000000 0.000000 0.000000 0.031930 0.000000 0.000000
# 5 0.000000 0.000000 0.000000 0.000000 0.033959 0.000000
# 6 0.000000 0.000000 0.000000 0.000000 0.000000 0.031850
#
#
# Mechanical properties :
#
#
# Convention : Reuss Voigt Hill
#
# Bulk Modulus (GPa) = 53.79820 77.06270 65.43045
# Shear Modulus (GPa) = 24.47832 27.60315 26.04073
#
# Velocity S-wave (km/s) = 3.45746 3.67152 3.56610
# Velocity P-wave (km/s) = 6.49702 7.45703 6.99352
#
# Compressibility (1/GPa) = 0.01858798
#
# Stress axis : x y z
#
# Youngs Moduli (GPa) = 65.79046 44.62693 45.76645
#
# Poissons Ratio (x) = 0.49568 0.37855
# Poissons Ratio (y) = 0.73075 0.04835
# Poissons Ratio (z) = 0.54417 0.04715
#
# Static dielectric constant tensor:
#      x y z
#    x 1.741310 0.000000 0.000000 
#    y 0.000000 1.832950 0.000000 
#    z 0.000000 0.000000 1.747760 
# 
# From -- ./inp_files/9454.got.cif
#   From: 2010.05.17/outbox.cif.g08.bks.cpg/sg43_5_cif.got.tgz:9454.got - 2010.06.03 19:21:55.
