data_PCOD9371244
_publ_section_title
;
Structure prediction by ZEFSAII (Michael W. Deem and Ramdas Pophale) SiO2 
 PCOD9371244
Probable space group: F D D 2
;
_chemical_formula_sum "Si O2"
_cell_formula_units_Z 80
_cell_length_a 23.706616
_cell_length_b 5.978909
_cell_length_c 23.194419
_cell_angle_alpha 90.000000
_cell_angle_beta 90.000000
_cell_angle_gamma 90.000000
_cell_volume 3287.569985
_symmetry_space_group_name_H-M "F D D 2"
_symmetry_group_IT_number 43
_symmetry_cell_setting 'orthorhombic'
loop_
_space_group_symop_operation_xyz
x,y,z
-x,-y,z
1/4-x,1/4+y,1/4+z
1/4+x,1/4-y,1/4+z
x,1/2+y,1/2+z
-x,1/2-y,1/2+z
1/4-x,3/4+y,3/4+z
1/4+x,3/4-y,3/4+z
1/2+x,y,1/2+z
1/2-x,-y,1/2+z
3/4-x,1/4+y,3/4+z
3/4+x,1/4-y,3/4+z
1/2+x,1/2+y,z
1/2-x,1/2-y,z
3/4-x,3/4+y,1/4+z
3/4+x,3/4-y,1/4+z
loop_
_atom_site_type_symbol
_atom_site_label
_atom_site_fract_x
_atom_site_fract_y
_atom_site_fract_z
Si Si1 0.676893 0.614804 0.798080
Si Si2 0.187960 0.346223 0.414055
Si Si3 0.776853 0.495631 0.174197
Si Si4 0.145907 0.412872 0.884517
Si Si5 0.438799 0.037853 0.247621
O O1 0.693304 0.495408 0.857005
O O2 0.712647 0.544224 0.742896
O O3 0.672490 0.869428 0.821772
O O4 0.613159 0.549477 0.782942
O O5 0.250000 0.250000 0.420834
O O6 0.176189 0.464626 0.474745
O O7 0.138807 0.172604 0.397895
O O8 0.750000 0.250000 0.155306
O O9 0.839213 0.478415 0.145507
O O10 0.750000 0.750000 0.166152
O O11 0.187552 0.344958 0.936828
O O12 0.500000 0.000000 0.274463
#
# Coordination Sequence:
#
# PCOD9371244 Si02
#       5
#    16  16  16  16  16
#     4  10  25  39  68  99 136 174 249 284 362 420
#     4  11  22  40  71  97 135 181 235 292 360 426
#     4  11  27  46  71 100 145 190 236 297 369 431
#     4  10  24  43  66  98 135 182 231 297 350 429
#     4  10  21  42  63  93 135 179 227 289 352 425
#
# _framework density 24.334081999999999
#
# number of rings (size 3 to 8) (size 9 to 14) (size 15 to 20)
#    0.000    1.600    2.000    0.600   14.000    2.400 
#    0.000    0.000    0.000    0.000    0.000    0.000 
#    0.000    0.000    0.000    0.000    0.000    0.000 
#
# Total GULP energy -111443.599659 kJ/mol
# GULP energy per Si atom -5572.179983 kJ/mol
# Density = 2.427870 g / cm^3
# Si number density = 24.334082 Si / 1000 Ang^3
#
#
#
# Elastic Constant Matrix: (Units=GPa)
#
#
# Indices 1 2 3 4 5 6 
#
# 1 97.7708 43.9654 6.1782 0.0000 -0.0001 0.0005
# 2 43.9654 117.6738 20.9052 -0.0008 0.0000 0.0009
# 3 6.1782 20.9052 76.1900 0.0001 0.0001 0.0001
# 4 0.0000 -0.0008 0.0001 34.4904 0.0002 0.0002
# 5 -0.0001 0.0000 0.0001 0.0002 13.6907 -0.0001
# 6 0.0005 0.0009 0.0001 0.0002 -0.0001 46.5596
#
#
#
# Elastic Compliance Matrix: (Units=1/GPa)
#
#
# Indices 1 2 3 4 5 6 
#
# 1 0.012299 -0.004644 0.000277 0.000000 0.000000 0.000000
# 2 -0.004644 0.010687 -0.002556 0.000000 0.000000 0.000000
# 3 0.000277 -0.002556 0.013804 0.000000 0.000000 0.000000
# 4 0.000000 0.000000 0.000000 0.028994 0.000000 0.000000
# 5 0.000000 0.000000 0.000000 0.000000 0.073042 0.000000
# 6 0.000000 0.000000 0.000000 0.000000 0.000000 0.021478
#
#
# Mechanical properties :
#
#
# Convention : Reuss Voigt Hill
#
# Bulk Modulus (GPa) = 43.58460 48.19246 45.88853
# Shear Modulus (GPa) = 27.50305 33.65387 30.57846
#
# Velocity S-wave (km/s) = 3.36553 3.72290 3.54872
# Velocity P-wave (km/s) = 5.74911 6.19092 5.97410
#
# Compressibility (1/GPa) = 0.02294389
#
# Stress axis : x y z
#
# Youngs Moduli (GPa) = 81.30768 93.56858 72.44334
#
# Poissons Ratio (x) = 0.43457 -0.02007
# Poissons Ratio (y) = 0.37762 0.18515
# Poissons Ratio (z) = -0.02252 0.23914
#
# Static dielectric constant tensor:
#      x y z
#    x 1.971320 0.000000 0.000000 
#    y 0.000000 2.223760 0.000000 
#    z 0.000000 0.000000 1.851860 
# 
# From -- ./inp_files/23555.got.cif
#   From: 2010.05.17/outbox.cif.g08.bks.cpg/sg43_12_cif.got.tgz:23555.got - 2010.06.03 19:21:55.
