data_PCOD9371896
_publ_section_title
;
Structure prediction by ZEFSAII (Michael W. Deem and Ramdas Pophale) SiO2 
 PCOD9371896
Probable space group: F D D 2
;
_chemical_formula_sum "Si O2"
_cell_formula_units_Z 72
_cell_length_a 9.650229
_cell_length_b 16.237130
_cell_length_c 22.207381
_cell_angle_alpha 90.000000
_cell_angle_beta 90.000000
_cell_angle_gamma 90.000000
_cell_volume 3479.719450
_symmetry_space_group_name_H-M "F D D 2"
_symmetry_group_IT_number 43
_symmetry_cell_setting 'orthorhombic'
loop_
_space_group_symop_operation_xyz
x,y,z
-x,-y,z
1/4-x,1/4+y,1/4+z
1/4+x,1/4-y,1/4+z
x,1/2+y,1/2+z
-x,1/2-y,1/2+z
1/4-x,3/4+y,3/4+z
1/4+x,3/4-y,3/4+z
1/2+x,y,1/2+z
1/2-x,-y,1/2+z
3/4-x,1/4+y,3/4+z
3/4+x,1/4-y,3/4+z
1/2+x,1/2+y,z
1/2-x,1/2-y,z
3/4-x,3/4+y,1/4+z
3/4+x,3/4-y,1/4+z
loop_
_atom_site_type_symbol
_atom_site_label
_atom_site_fract_x
_atom_site_fract_y
_atom_site_fract_z
Si Si1 0.300020 0.462310 0.867290
Si Si2 0.000000 0.500000 0.662181
Si Si3 0.418598 0.257316 0.745832
Si Si4 0.058651 0.873992 0.840435
Si Si5 0.328891 0.331166 0.527661
O O1 0.434759 0.408087 0.882590
O O2 0.349646 0.544136 0.831647
O O3 0.208817 0.411794 0.820596
O O4 0.216876 0.485068 0.926951
O O5 0.904359 0.441744 0.623140
O O6 0.904370 0.553622 0.708002
O O7 0.250000 0.250000 0.748804
O O8 0.485425 0.332436 0.783147
O O9 0.482899 0.172389 0.773149
O O10 0.250000 0.250000 0.552716
#
# Coordination Sequence:
#
# PCOD9371896 Si02
#       5
#    16   8  16  16  16
#     4  11  24  47  67  99 141 182 230 288 347 417
#     4  10  24  42  70 100 134 182 230 284 350 416
#     4  12  25  46  69 103 138 185 233 289 352 414
#     4  11  26  43  69 103 135 182 232 285 351 417
#     4  10  23  44  67  99 134 180 229 275 353 402
#
# _framework density 20.691323000000001
#
# number of rings (size 3 to 8) (size 9 to 14) (size 15 to 20)
#    0.667    0.444    4.444    0.667    6.222    3.556 
#    0.000    0.000    0.000    0.000    0.000    0.000 
#    0.000    0.000    0.000    0.000    0.000    0.000 
#
# Total GULP energy -100285.730881 kJ/mol
# GULP energy per Si atom -5571.429493 kJ/mol
# Density = 2.064423 g / cm^3
# Si number density = 20.691323 Si / 1000 Ang^3
#
#
#
# Elastic Constant Matrix: (Units=GPa)
#
#
# Indices 1 2 3 4 5 6 
#
# 1 60.8039 30.4409 43.2778 0.0000 0.0000 0.0000
# 2 30.4409 110.8882 42.5862 0.0000 0.0000 0.0000
# 3 43.2778 42.5862 85.1744 0.0000 0.0000 0.0000
# 4 0.0000 0.0000 0.0000 52.8066 0.0000 0.0000
# 5 0.0000 0.0000 0.0000 0.0000 15.4032 0.0000
# 6 0.0000 0.0000 0.0000 0.0000 0.0000 38.9630
#
#
#
# Elastic Compliance Matrix: (Units=1/GPa)
#
#
# Indices 1 2 3 4 5 6 
#
# 1 0.026351 -0.002589 -0.012095 0.000000 0.000000 0.000000
# 2 -0.002589 0.011416 -0.004392 0.000000 0.000000 0.000000
# 3 -0.012095 -0.004392 0.020082 0.000000 0.000000 0.000000
# 4 0.000000 0.000000 0.000000 0.018937 0.000000 0.000000
# 5 0.000000 0.000000 0.000000 0.000000 0.064922 0.000000
# 6 0.000000 0.000000 0.000000 0.000000 0.000000 0.025665
#
#
# Mechanical properties :
#
#
# Convention : Reuss Voigt Hill
#
# Bulk Modulus (GPa) = 50.76919 54.38625 52.57772
# Shear Modulus (GPa) = 23.57490 30.80534 27.19012
#
# Velocity S-wave (km/s) = 3.37911 3.86269 3.62896
# Velocity P-wave (km/s) = 6.30985 6.79967 6.55933
#
# Compressibility (1/GPa) = 0.01969699
#
# Stress axis : x y z
#
# Youngs Moduli (GPa) = 37.94928 87.59936 49.79564
#
# Poissons Ratio (x) = 0.22679 0.60226
# Poissons Ratio (y) = 0.09825 0.21871
# Poissons Ratio (z) = 0.45899 0.38476
#
# Static dielectric constant tensor:
#      x y z
#    x 1.795700 0.000000 0.000000 
#    y 0.000000 1.683700 0.000000 
#    z 0.000000 0.000000 1.679830 
# 
# From -- ./inp_files/16164.got.cif
#   From: 2010.05.17/outbox.cif.g08.bks.cpg/sg43_9_cif.got.tgz:16164.got - 2010.06.03 19:21:55.
