data_PCOD9371661
_publ_section_title
;
Structure prediction by ZEFSAII (Michael W. Deem and Ramdas Pophale) SiO2 
 PCOD9371661
Probable space group: F D D 2
;
_chemical_formula_sum "Si O2"
_cell_formula_units_Z 88
_cell_length_a 22.994675
_cell_length_b 10.702495
_cell_length_c 15.518565
_cell_angle_alpha 90.000000
_cell_angle_beta 90.000000
_cell_angle_gamma 90.000000
_cell_volume 3819.124964
_symmetry_space_group_name_H-M "F D D 2"
_symmetry_group_IT_number 43
_symmetry_cell_setting 'orthorhombic'
loop_
_space_group_symop_operation_xyz
x,y,z
-x,-y,z
1/4-x,1/4+y,1/4+z
1/4+x,1/4-y,1/4+z
x,1/2+y,1/2+z
-x,1/2-y,1/2+z
1/4-x,3/4+y,3/4+z
1/4+x,3/4-y,3/4+z
1/2+x,y,1/2+z
1/2-x,-y,1/2+z
3/4-x,1/4+y,3/4+z
3/4+x,1/4-y,3/4+z
1/2+x,1/2+y,z
1/2-x,1/2-y,z
3/4-x,3/4+y,1/4+z
3/4+x,3/4-y,1/4+z
loop_
_atom_site_type_symbol
_atom_site_label
_atom_site_fract_x
_atom_site_fract_y
_atom_site_fract_z
Si Si1 0.678374 0.611747 0.082060
Si Si2 0.155960 0.826154 0.116235
Si Si3 0.250000 0.750000 0.440230
Si Si4 0.750000 0.250000 0.716666
Si Si5 0.196905 0.409918 0.805392
Si Si6 0.448416 0.326223 0.095858
Si Si7 0.000000 0.000000 0.242994
O O1 0.662970 0.466895 0.081995
O O2 0.721705 0.642710 0.159763
O O3 0.620483 0.693126 0.102079
O O4 0.715145 0.652669 0.999410
O O5 0.174474 0.846913 0.216533
O O6 0.093232 0.771910 0.091665
O O7 0.197217 0.734013 0.060295
O O8 0.200705 0.808971 0.380526
O O9 0.797285 0.186855 0.776329
O O10 0.262717 0.464907 0.807267
O O11 0.479141 0.387623 0.180284
#
# Coordination Sequence:
#
# PCOD9371661 Si02
#       7
#    16  16   8   8  16  16   8
#     4  11  25  44  71 105 144 190 251 306 372 442
#     4  12  25  47  73 105 143 190 247 303 375 458
#     4  11  29  47  69 108 150 188 249 313 381 435
#     4  10  22  44  66 110 138 192 244 312 358 450
#     4  12  26  48  72 105 147 192 244 308 378 450
#     4  11  23  43  73 101 142 190 244 299 373 436
#     4  11  25  41  71 106 142 186 241 303 367 447
#
# _framework density 23.041927000000001
#
# number of rings (size 3 to 8) (size 9 to 14) (size 15 to 20)
#    0.000    0.727    1.818    6.000    5.091    2.909 
#    3.273    0.000    0.000    0.000    0.000    0.000 
#    0.000    0.000    0.000    0.000    0.000    0.000 
#
# Total GULP energy -122859.355795 kJ/mol
# GULP energy per Si atom -5584.516173 kJ/mol
# Density = 2.298948 g / cm^3
# Si number density = 23.041927 Si / 1000 Ang^3
#
#
#
# Elastic Constant Matrix: (Units=GPa)
#
#
# Indices 1 2 3 4 5 6 
#
# 1 110.8201 16.3214 49.8067 0.0000 0.0000 0.0000
# 2 16.3214 72.0611 49.0415 0.0000 0.0000 0.0000
# 3 49.8067 49.0415 173.4502 0.0000 0.0000 0.0000
# 4 0.0000 0.0000 0.0000 -4.6743 0.0000 0.0000
# 5 0.0000 0.0000 0.0000 0.0000 22.9373 0.0000
# 6 0.0000 0.0000 0.0000 0.0000 0.0000 30.0389
#
#
#
# Elastic Compliance Matrix: (Units=1/GPa)
#
#
# Indices 1 2 3 4 5 6 
#
# 1 0.010370 -0.000399 -0.002865 0.000000 0.000000 0.000000
# 2 -0.000399 0.017199 -0.004748 0.000000 0.000000 0.000000
# 3 -0.002865 -0.004748 0.007931 0.000000 0.000000 0.000000
# 4 0.000000 0.000000 0.000000 -0.213935 0.000000 0.000000
# 5 0.000000 0.000000 0.000000 0.000000 0.043597 0.000000
# 6 0.000000 0.000000 0.000000 0.000000 0.000000 0.033290
#
#
# Mechanical properties :
#
#
# Convention : Reuss Voigt Hill
#
# Bulk Modulus (GPa) = 51.34774 65.18564 58.26669
# Shear Modulus (GPa) = -63.26535 25.73781 -18.76377
#
# Velocity S-wave (km/s) = -5.24559 3.34578 -2.85675
# Velocity P-wave (km/s) = 3.78886 6.57853 3.80274
#
# Compressibility (1/GPa) = 0.01947506
#
# Stress axis : x y z
#
# Youngs Moduli (GPa) = 96.43181 58.14310 126.09440
#
# Poissons Ratio (x) = 0.02320 0.36126
# Poissons Ratio (y) = 0.03847 0.59873
# Poissons Ratio (z) = 0.27627 0.27608
#
# Static dielectric constant tensor:
#      x y z
#    x 1.897960 0.000000 0.000000 
#    y 0.000000 1.899830 0.000000 
#    z 0.000000 0.000000 1.888330 
# 
# From -- ./inp_files/11485.got.cif
#   From: 2010.05.17/outbox.cif.g08.bks.cpg/sg43_6_cif.got.tgz:11485.got - 2010.06.03 19:21:55.
