data_PCOD9371959
_publ_section_title
;
Structure prediction by ZEFSAII (Michael W. Deem and Ramdas Pophale) SiO2 
 PCOD9371959
Probable space group: F D D 2
;
_chemical_formula_sum "Si O2"
_cell_formula_units_Z 88
_cell_length_a 21.744731
_cell_length_b 19.768116
_cell_length_c 7.720548
_cell_angle_alpha 90.000000
_cell_angle_beta 90.000000
_cell_angle_gamma 90.000000
_cell_volume 3318.695815
_symmetry_space_group_name_H-M "F D D 2"
_symmetry_group_IT_number 43
_symmetry_cell_setting 'orthorhombic'
loop_
_space_group_symop_operation_xyz
x,y,z
-x,-y,z
1/4-x,1/4+y,1/4+z
1/4+x,1/4-y,1/4+z
x,1/2+y,1/2+z
-x,1/2-y,1/2+z
1/4-x,3/4+y,3/4+z
1/4+x,3/4-y,3/4+z
1/2+x,y,1/2+z
1/2-x,-y,1/2+z
3/4-x,1/4+y,3/4+z
3/4+x,1/4-y,3/4+z
1/2+x,1/2+y,z
1/2-x,1/2-y,z
3/4-x,3/4+y,1/4+z
3/4+x,3/4-y,1/4+z
loop_
_atom_site_type_symbol
_atom_site_label
_atom_site_fract_x
_atom_site_fract_y
_atom_site_fract_z
Si Si1 0.097731 0.279153 0.345130
Si Si2 0.750000 0.750000 0.845428
Si Si3 0.819532 0.343115 0.801729
Si Si4 0.072454 0.885134 0.442193
Si Si5 0.802477 0.641333 0.113355
Si Si6 0.010975 0.717011 0.116198
O O1 0.158399 0.235512 0.300911
O O2 0.100280 0.359167 0.402756
O O3 0.065071 0.254335 0.521588
O O4 0.051195 0.252747 0.194564
O O5 0.698486 0.711501 0.734737
O O6 0.777628 0.694330 0.972500
O O7 0.745815 0.349585 0.771186
O O8 0.839175 0.368814 0.991539
O O9 0.124681 0.857884 0.573393
O O10 0.013396 0.839250 0.482165
O O11 0.786944 0.567275 0.039569
#
# Coordination Sequence:
#
# PCOD9371959 Si02
#       6
#    16   8  16  16  16  16
#     4  11  24  48  73 113 153 213 277 356 429 539
#     4  10  26  46  72 116 160 212 286 356 438 514
#     4  11  26  46  78 115 159 223 290 350 456 521
#     4  11  24  47  77 111 165 215 281 361 426 535
#     4  10  24  47  69 113 153 213 276 358 425 520
#     4  10  23  46  69 104 148 205 269 335 441 499
#
# _framework density 26.516439999999999
#
# number of rings (size 3 to 8) (size 9 to 14) (size 15 to 20)
#    0.000    1.455    1.818    1.091    5.091    3.636 
#   22.909    0.000    0.000    0.000    0.000    0.000 
#    0.000    0.000    0.000    0.000    0.000    0.000 
#
# Total GULP energy -122784.518984 kJ/mol
# GULP energy per Si atom -5581.114499 kJ/mol
# Density = 2.645609 g / cm^3
# Si number density = 26.516440 Si / 1000 Ang^3
#
#
#
# Elastic Constant Matrix: (Units=GPa)
#
#
# Indices 1 2 3 4 5 6 
#
# 1 109.6421 39.4164 28.1071 0.0004 -0.0001 0.0003
# 2 39.4164 86.5379 13.1500 0.0015 -0.0011 -0.0006
# 3 28.1071 13.1500 141.3067 0.0030 -0.0019 -0.0013
# 4 0.0004 0.0015 0.0030 34.0145 -0.0014 -0.0009
# 5 -0.0001 -0.0011 -0.0019 -0.0014 -8.6762 0.0017
# 6 0.0003 -0.0006 -0.0013 -0.0009 0.0017 42.3805
#
#
#
# Elastic Compliance Matrix: (Units=1/GPa)
#
#
# Indices 1 2 3 4 5 6 
#
# 1 0.011341 -0.004892 -0.001801 0.000000 0.000001 0.000000
# 2 -0.004892 0.013832 -0.000314 -0.000001 -0.000002 0.000000
# 3 -0.001801 -0.000314 0.007464 -0.000001 -0.000002 0.000000
# 4 0.000000 -0.000001 -0.000001 0.029399 -0.000005 0.000001
# 5 0.000001 -0.000002 -0.000002 -0.000005 -0.115257 0.000005
# 6 0.000000 0.000000 0.000000 0.000001 0.000005 0.023596
#
#
# Mechanical properties :
#
#
# Convention : Reuss Voigt Hill
#
# Bulk Modulus (GPa) = 53.69599 55.42598 54.56099
# Shear Modulus (GPa) = -531.63625 30.66463 -250.48581
#
# Velocity S-wave (km/s) = -14.17492 3.40433 -9.72982
# Velocity P-wave (km/s) = 15.73564 6.03328 10.27643
#
# Compressibility (1/GPa) = 0.01862336
#
# Stress axis : x y z
#
# Youngs Moduli (GPa) = 88.17710 72.29846 133.97321
#
# Poissons Ratio (x) = 0.35368 0.24122
# Poissons Ratio (y) = 0.43136 0.04208
# Poissons Ratio (z) = 0.15877 0.02271
#
# Static dielectric constant tensor:
#      x y z
#    x 2.324740 0.000000 0.000000 
#    y 0.000000 2.220580 0.000000 
#    z 0.000000 0.000000 2.034440 
# 
# From -- ./inp_files/3233.got.cif
#   From: 2010.05.17/outbox.cif.g08.bks.cpg/sg43_2_cif.got.tgz:3233.got - 2010.06.03 19:21:55.
