data_PCOD9371289
_publ_section_title
;
Structure prediction by ZEFSAII (Michael W. Deem and Ramdas Pophale) SiO2 
 PCOD9371289
Probable space group: F D D 2
;
_chemical_formula_sum "Si O2"
_cell_formula_units_Z 96
_cell_length_a 13.842210
_cell_length_b 14.259909
_cell_length_c 22.340926
_cell_angle_alpha 90.000000
_cell_angle_beta 90.000000
_cell_angle_gamma 90.000000
_cell_volume 4409.845334
_symmetry_space_group_name_H-M "F D D 2"
_symmetry_group_IT_number 43
_symmetry_cell_setting 'orthorhombic'
loop_
_space_group_symop_operation_xyz
x,y,z
-x,-y,z
1/4-x,1/4+y,1/4+z
1/4+x,1/4-y,1/4+z
x,1/2+y,1/2+z
-x,1/2-y,1/2+z
1/4-x,3/4+y,3/4+z
1/4+x,3/4-y,3/4+z
1/2+x,y,1/2+z
1/2-x,-y,1/2+z
3/4-x,1/4+y,3/4+z
3/4+x,1/4-y,3/4+z
1/2+x,1/2+y,z
1/2-x,1/2-y,z
3/4-x,3/4+y,1/4+z
3/4+x,3/4-y,1/4+z
loop_
_atom_site_type_symbol
_atom_site_label
_atom_site_fract_x
_atom_site_fract_y
_atom_site_fract_z
Si Si1 0.248795 0.988420 0.789570
Si Si2 0.855312 0.889551 0.978826
Si Si3 0.320256 0.833290 0.356736
Si Si4 0.906887 0.046236 0.073161
Si Si5 0.300033 0.105712 0.680808
Si Si6 0.110482 0.207634 0.723349
O O1 0.144732 0.945786 0.769365
O O2 0.310733 0.900938 0.809813
O O3 0.234637 0.071940 0.836227
O O4 0.302813 0.030296 0.732804
O O5 0.889337 0.864790 0.911303
O O6 0.741920 0.907175 0.970070
O O7 0.889515 0.982904 0.014316
O O8 0.250000 0.750000 0.378123
O O9 0.363666 0.794907 0.294182
O O10 0.818132 0.056510 0.117821
O O11 0.000000 0.000000 0.105071
O O12 0.194200 0.151211 0.688460
O O13 0.377424 0.187607 0.697023
#
# Coordination Sequence:
#
# PCOD9371289 Si02
#       6
#    16  16  16  16  16  16
#     4  10  23  46  67 101 135 188 233 288 360 421
#     4  11  26  41  69 100 141 182 230 293 355 424
#     4  11  23  42  66  99 140 176 229 294 345 428
#     4  10  24  46  67 100 138 183 236 285 352 426
#     4  10  21  43  68  96 138 174 233 286 337 425
#     4  10  22  44  65 105 133 180 231 285 359 404
#
# _framework density 21.769470999999999
#
# number of rings (size 3 to 8) (size 9 to 14) (size 15 to 20)
#    0.000    1.667    3.333    1.000    7.000    4.000 
#   12.000    0.000    0.000    0.000    0.000    0.000 
#    0.000    0.000    0.000    0.000    0.000    0.000 
#
# Total GULP energy -133924.333129 kJ/mol
# GULP energy per Si atom -5580.180547 kJ/mol
# Density = 2.171992 g / cm^3
# Si number density = 21.769471 Si / 1000 Ang^3
#
#
#
# Elastic Constant Matrix: (Units=GPa)
#
#
# Indices 1 2 3 4 5 6 
#
# 1 76.2039 20.6361 31.7813 0.0000 0.0000 0.0000
# 2 20.6361 146.1377 57.9119 0.0000 0.0000 0.0000
# 3 31.7813 57.9119 115.6681 0.0000 0.0000 0.0000
# 4 0.0000 0.0000 0.0000 27.6832 0.0000 0.0000
# 5 0.0000 0.0000 0.0000 0.0000 15.5423 0.0000
# 6 0.0000 0.0000 0.0000 0.0000 0.0000 12.7117
#
#
#
# Elastic Compliance Matrix: (Units=1/GPa)
#
#
# Indices 1 2 3 4 5 6 
#
# 1 0.014863 -0.000599 -0.003784 0.000000 0.000000 0.000000
# 2 -0.000599 0.008561 -0.004121 0.000000 0.000000 0.000000
# 3 -0.003784 -0.004121 0.011749 0.000000 0.000000 0.000000
# 4 0.000000 0.000000 0.000000 0.036123 0.000000 0.000000
# 5 0.000000 0.000000 0.000000 0.000000 0.064341 0.000000
# 6 0.000000 0.000000 0.000000 0.000000 0.000000 0.078667
#
#
# Mechanical properties :
#
#
# Convention : Reuss Voigt Hill
#
# Bulk Modulus (GPa) = 55.05626 62.07425 58.56526
# Shear Modulus (GPa) = 21.06445 26.36614 23.71529
#
# Velocity S-wave (km/s) = 3.11402 3.48394 3.30416
# Velocity P-wave (km/s) = 6.18668 6.69029 6.44341
#
# Compressibility (1/GPa) = 0.01816324
#
# Stress axis : x y z
#
# Youngs Moduli (GPa) = 67.28104 116.81202 85.11691
#
# Poissons Ratio (x) = 0.07002 0.32206
# Poissons Ratio (y) = 0.04033 0.35081
# Poissons Ratio (z) = 0.25457 0.48144
#
# Static dielectric constant tensor:
#      x y z
#    x 1.841040 0.000000 0.000000 
#    y 0.000000 1.929390 0.000000 
#    z 0.000000 0.000000 1.833200 
# 
# From -- ./inp_files/17561.got.cif
#   From: 2010.05.17/outbox.cif.g08.bks.cpg/sg43_9_cif.got.tgz:17561.got - 2010.06.03 19:21:55.
