data_PCOD9371336
_publ_section_title
;
Structure prediction by ZEFSAII (Michael W. Deem and Ramdas Pophale) SiO2 
 PCOD9371336
Probable space group: F D D 2
;
_chemical_formula_sum "Si O2"
_cell_formula_units_Z 64
_cell_length_a 22.380886
_cell_length_b 8.291585
_cell_length_c 13.169055
_cell_angle_alpha 90.000000
_cell_angle_beta 90.000000
_cell_angle_gamma 90.000000
_cell_volume 2443.821289
_symmetry_space_group_name_H-M "F D D 2"
_symmetry_group_IT_number 43
_symmetry_cell_setting 'orthorhombic'
loop_
_space_group_symop_operation_xyz
x,y,z
-x,-y,z
1/4-x,1/4+y,1/4+z
1/4+x,1/4-y,1/4+z
x,1/2+y,1/2+z
-x,1/2-y,1/2+z
1/4-x,3/4+y,3/4+z
1/4+x,3/4-y,3/4+z
1/2+x,y,1/2+z
1/2-x,-y,1/2+z
3/4-x,1/4+y,3/4+z
3/4+x,1/4-y,3/4+z
1/2+x,1/2+y,z
1/2-x,1/2-y,z
3/4-x,3/4+y,1/4+z
3/4+x,3/4-y,1/4+z
loop_
_atom_site_type_symbol
_atom_site_label
_atom_site_fract_x
_atom_site_fract_y
_atom_site_fract_z
Si Si1 0.750905 0.062666 0.477920
Si Si2 0.060532 0.108622 0.061721
Si Si3 0.443198 0.141376 0.893785
Si Si4 0.128354 0.606894 0.943472
O O1 0.750000 0.250000 0.500823
O O2 0.705785 0.993251 0.395727
O O3 0.750309 0.953597 0.580059
O O4 0.817016 0.021989 0.436794
O O5 0.110975 0.995845 0.110949
O O6 0.075888 0.203381 0.959077
O O7 0.000000 0.000000 0.048787
O O8 0.400132 0.074612 0.803377
O O9 0.433939 0.985188 0.963530
#
# Coordination Sequence:
#
# PCOD9371336 Si02
#       4
#    16  16  16  16
#     4   9  21  41  65  94 129 172 231 271 340 415
#     4  10  21  45  68  94 139 180 220 287 340 405
#     4  10  22  40  68  97 132 175 227 277 345 402
#     4   9  23  41  59 100 129 173 230 268 348 404
#
# _framework density 26.188496000000001
#
# number of rings (size 3 to 8) (size 9 to 14) (size 15 to 20)
#    1.500    1.000    0.000    0.750    3.500    2.000 
#    4.500    0.000    0.000    0.000    0.000    0.000 
#    0.000    0.000    0.000    0.000    0.000    0.000 
#
# Total GULP energy -89149.665811 kJ/mol
# GULP energy per Si atom -5571.854113 kJ/mol
# Density = 2.612889 g / cm^3
# Si number density = 26.188496 Si / 1000 Ang^3
#
#
#
# Elastic Constant Matrix: (Units=GPa)
#
#
# Indices 1 2 3 4 5 6 
#
# 1 89.5201 56.8802 22.9445 0.0000 0.0000 0.0000
# 2 56.8802 131.1620 38.8268 0.0000 0.0000 0.0000
# 3 22.9445 38.8268 83.1022 0.0000 0.0000 0.0000
# 4 0.0000 0.0000 0.0000 64.3447 0.0000 0.0000
# 5 0.0000 0.0000 0.0000 0.0000 24.9304 0.0000
# 6 0.0000 0.0000 0.0000 0.0000 0.0000 33.3451
#
#
#
# Elastic Compliance Matrix: (Units=1/GPa)
#
#
# Indices 1 2 3 4 5 6 
#
# 1 0.015544 -0.006349 -0.001326 0.000000 0.000000 0.000000
# 2 -0.006349 0.011441 -0.003592 0.000000 0.000000 0.000000
# 3 -0.001326 -0.003592 0.014078 0.000000 0.000000 0.000000
# 4 0.000000 0.000000 0.000000 0.015541 0.000000 0.000000
# 5 0.000000 0.000000 0.000000 0.000000 0.040112 0.000000
# 6 0.000000 0.000000 0.000000 0.000000 0.000000 0.029989
#
#
# Mechanical properties :
#
#
# Convention : Reuss Voigt Hill
#
# Bulk Modulus (GPa) = 53.96786 60.12081 57.04433
# Shear Modulus (GPa) = 32.17192 36.86623 34.51907
#
# Velocity S-wave (km/s) = 3.50876 3.75604 3.63450
# Velocity P-wave (km/s) = 6.08830 6.46662 6.28031
#
# Compressibility (1/GPa) = 0.01852955
#
# Stress axis : x y z
#
# Youngs Moduli (GPa) = 64.33246 87.40674 71.03356
#
# Poissons Ratio (x) = 0.55491 0.09416
# Poissons Ratio (y) = 0.40842 0.25519
# Poissons Ratio (z) = 0.08528 0.31401
#
# Static dielectric constant tensor:
#      x y z
#    x 2.362700 0.000000 0.000000 
#    y 0.000000 2.054090 0.000000 
#    z 0.000000 0.000000 2.177420 
# 
# From -- ./inp_files/8128.got.cif
#   From: 2010.05.17/outbox.cif.g08.bks.cpg/sg43_5_cif.got.tgz:8128.got - 2010.06.03 19:21:55.
