data_PCOD9371381
_publ_section_title
;
Structure prediction by ZEFSAII (Michael W. Deem and Ramdas Pophale) SiO2 
 PCOD9371381
Probable space group: F D D 2
;
_chemical_formula_sum "Si O2"
_cell_formula_units_Z 112
_cell_length_a 9.323248
_cell_length_b 19.542130
_cell_length_c 31.869957
_cell_angle_alpha 90.000000
_cell_angle_beta 90.000000
_cell_angle_gamma 90.000000
_cell_volume 5806.582651
_symmetry_space_group_name_H-M "F D D 2"
_symmetry_group_IT_number 43
_symmetry_cell_setting 'orthorhombic'
loop_
_space_group_symop_operation_xyz
x,y,z
-x,-y,z
1/4-x,1/4+y,1/4+z
1/4+x,1/4-y,1/4+z
x,1/2+y,1/2+z
-x,1/2-y,1/2+z
1/4-x,3/4+y,3/4+z
1/4+x,3/4-y,3/4+z
1/2+x,y,1/2+z
1/2-x,-y,1/2+z
3/4-x,1/4+y,3/4+z
3/4+x,1/4-y,3/4+z
1/2+x,1/2+y,z
1/2-x,1/2-y,z
3/4-x,3/4+y,1/4+z
3/4+x,3/4-y,1/4+z
loop_
_atom_site_type_symbol
_atom_site_label
_atom_site_fract_x
_atom_site_fract_y
_atom_site_fract_z
Si Si1 0.000000 0.500000 0.679700
Si Si2 0.884952 0.146258 0.396102
Si Si3 0.000000 0.000000 0.583188
Si Si4 0.672053 0.990139 0.935694
Si Si5 0.674908 0.419922 0.519051
Si Si6 0.471394 0.632302 0.133299
Si Si7 0.730249 0.050050 0.232144
Si Si8 0.878874 0.051226 0.804970
O O1 0.047067 0.562712 0.649339
O O2 0.878550 0.529849 0.710357
O O3 0.803851 0.188912 0.361843
O O4 0.816277 0.071846 0.402805
O O5 0.881285 0.186422 0.440861
O O6 0.051293 0.135457 0.382902
O O7 0.126508 0.971699 0.554423
O O8 0.729169 0.962446 0.979425
O O9 0.500000 0.000000 0.941184
O O10 0.737529 0.059489 0.918722
O O11 0.536514 0.373714 0.504924
O O12 0.788498 0.364918 0.534561
O O13 0.525655 0.666924 0.090348
O O14 0.689036 0.993248 0.266720
O O15 0.000000 0.000000 0.823945
#
# Coordination Sequence:
#
# PCOD9371381 Si02
#       8
#     8  16   8  16  16  16  16  16
#     4  10  22  40  66  83 120 168 203 248 306 380
#     4   9  22  37  64  90 119 162 203 253 303 368
#     4  12  24  34  66  97 118 158 213 254 306 366
#     4   9  18  40  62  85 116 155 200 253 301 353
#     4  10  22  38  61  90 122 150 204 262 299 352
#     4  10  22  42  60  88 126 156 205 254 307 364
#     4   9  21  42  60  85 122 165 199 248 307 366
#     4  10  23  41  60  89 125 162 198 260 307 365
#
# _framework density 19.288453000000001
#
# number of rings (size 3 to 8) (size 9 to 14) (size 15 to 20)
#    0.000    2.286    0.714    0.857   13.000    1.143 
#    3.857    0.000    0.000    0.000    0.000    0.000 
#    0.000    0.000    0.000    0.000    0.000    0.000 
#
# Total GULP energy -156098.890598 kJ/mol
# GULP energy per Si atom -5574.960378 kJ/mol
# Density = 1.924455 g / cm^3
# Si number density = 19.288453 Si / 1000 Ang^3
#
#
#
# Elastic Constant Matrix: (Units=GPa)
#
#
# Indices 1 2 3 4 5 6 
#
# 1 16.4858 16.9027 19.9865 0.0000 0.0000 0.0000
# 2 16.9027 120.3192 56.0980 0.0000 0.0000 0.0000
# 3 19.9865 56.0980 94.0627 0.0000 0.0000 0.0000
# 4 0.0000 0.0000 0.0000 8.7873 0.0000 0.0000
# 5 0.0000 0.0000 0.0000 0.0000 4.8683 0.0000
# 6 0.0000 0.0000 0.0000 0.0000 0.0000 26.5305
#
#
#
# Elastic Compliance Matrix: (Units=1/GPa)
#
#
# Indices 1 2 3 4 5 6 
#
# 1 0.083659 -0.004799 -0.014914 0.000000 0.000000 0.000000
# 2 -0.004799 0.011788 -0.006010 0.000000 0.000000 0.000000
# 3 -0.014914 -0.006010 0.017385 0.000000 0.000000 0.000000
# 4 0.000000 0.000000 0.000000 0.113800 0.000000 0.000000
# 5 0.000000 0.000000 0.000000 0.000000 0.205410 0.000000
# 6 0.000000 0.000000 0.000000 0.000000 0.000000 0.037693
#
#
# Mechanical properties :
#
#
# Convention : Reuss Voigt Hill
#
# Bulk Modulus (GPa) = 16.29059 46.31577 31.30318
# Shear Modulus (GPa) = 9.23118 17.22927 13.23022
#
# Velocity S-wave (km/s) = 2.19003 2.99196 2.62184
# Velocity P-wave (km/s) = 3.85475 6.00000 5.04278
#
# Compressibility (1/GPa) = 0.06138512
#
# Stress axis : x y z
#
# Youngs Moduli (GPa) = 11.95322 84.83427 57.52228
#
# Poissons Ratio (x) = 0.40714 0.85788
# Poissons Ratio (y) = 0.05737 0.34573
# Poissons Ratio (z) = 0.17827 0.50988
#
# Static dielectric constant tensor:
#      x y z
#    x 1.680840 0.000000 0.000000 
#    y 0.000000 1.678560 0.000000 
#    z 0.000000 0.000000 1.682070 
# 
# From -- ./inp_files/25250.got.cif
#   From: 2010.05.17/outbox.cif.g08.bks.cpg/sg43_13_cif.got.tgz:25250.got - 2010.06.03 19:21:55.
