data_PCOD9371039
_publ_section_title
;
Structure prediction by ZEFSAII (Michael W. Deem and Ramdas Pophale) SiO2 
 PCOD9371039
Probable space group: F D D 2
;
_chemical_formula_sum "Si O2"
_cell_formula_units_Z 80
_cell_length_a 9.854082
_cell_length_b 18.338400
_cell_length_c 16.276665
_cell_angle_alpha 90.000000
_cell_angle_beta 90.000000
_cell_angle_gamma 90.000000
_cell_volume 2941.325163
_symmetry_space_group_name_H-M "F D D 2"
_symmetry_group_IT_number 43
_symmetry_cell_setting 'orthorhombic'
loop_
_space_group_symop_operation_xyz
x,y,z
-x,-y,z
1/4-x,1/4+y,1/4+z
1/4+x,1/4-y,1/4+z
x,1/2+y,1/2+z
-x,1/2-y,1/2+z
1/4-x,3/4+y,3/4+z
1/4+x,3/4-y,3/4+z
1/2+x,y,1/2+z
1/2-x,-y,1/2+z
3/4-x,1/4+y,3/4+z
3/4+x,1/4-y,3/4+z
1/2+x,1/2+y,z
1/2-x,1/2-y,z
3/4-x,3/4+y,1/4+z
3/4+x,3/4-y,1/4+z
loop_
_atom_site_type_symbol
_atom_site_label
_atom_site_fract_x
_atom_site_fract_y
_atom_site_fract_z
Si Si1 0.036457 0.774239 0.724500
Si Si2 0.750000 0.250000 0.997462
Si Si3 0.536456 0.725762 0.051177
Si Si4 0.649776 0.664503 0.354696
Si Si5 0.850224 0.164503 0.420981
Si Si6 0.000000 0.500000 0.028214
O O1 0.098103 0.750001 0.637838
O O2 0.990165 0.858606 0.723678
O O3 0.885192 0.740848 0.728030
O O4 0.110355 0.735876 0.800680
O O5 0.741503 0.182707 0.933878
O O6 0.614808 0.240846 0.047646
O O7 0.490163 0.641395 0.052000
O O8 0.610355 0.764123 0.974996
O O9 0.500000 0.639198 0.387839
O O10 0.758499 0.182707 0.341798
#
# Coordination Sequence:
#
# PCOD9371039 Si02
#       6
#    16   8  16  16  16   8
#     4  11  21  37  63  89 117 156 207 250 295 357
#     4  10  21  38  59  84 122 160 198 248 305 358
#     4  11  21  37  63  89 117 156 207 250 295 357
#     4  10  22  38  59  90 123 158 199 251 304 358
#     4  10  22  38  59  90 123 158 199 251 304 358
#     4  10  21  38  59  84 122 160 198 248 305 358
#
# _framework density 27.198626000000001
#
# number of rings (size 3 to 8) (size 9 to 14) (size 15 to 20)
#    0.000    1.600    0.000    5.400    0.000    8.000 
#    0.000    5.000    0.000    0.000    0.000    0.000 
#    0.000    0.000    0.000    0.000    0.000    0.000 
#
# Total GULP energy -111766.731500 kJ/mol
# GULP energy per Si atom -5588.336575 kJ/mol
# Density = 2.713672 g / cm^3
# Si number density = 27.198626 Si / 1000 Ang^3
#
#
#
# Elastic Constant Matrix: (Units=GPa)
#
#
# Indices 1 2 3 4 5 6 
#
# 1 165.1600 26.4632 52.1935 0.0000 0.0000 0.0000
# 2 26.4632 151.2425 29.4470 0.0000 0.0000 0.0000
# 3 52.1935 29.4470 120.5684 0.0000 0.0000 0.0000
# 4 0.0000 0.0000 0.0000 40.2441 0.0000 0.0000
# 5 0.0000 0.0000 0.0000 0.0000 25.5826 0.0000
# 6 0.0000 0.0000 0.0000 0.0000 0.0000 -24.8151
#
#
#
# Elastic Compliance Matrix: (Units=1/GPa)
#
#
# Indices 1 2 3 4 5 6 
#
# 1 0.007079 -0.000674 -0.002900 0.000000 0.000000 0.000000
# 2 -0.000674 0.007006 -0.001419 0.000000 0.000000 0.000000
# 3 -0.002900 -0.001419 0.009896 0.000000 0.000000 0.000000
# 4 0.000000 0.000000 0.000000 0.024848 0.000000 0.000000
# 5 0.000000 0.000000 0.000000 0.000000 0.039089 0.000000
# 6 0.000000 0.000000 0.000000 0.000000 0.000000 -0.040298
#
#
# Mechanical properties :
#
#
# Convention : Reuss Voigt Hill
#
# Bulk Modulus (GPa) = 71.45522 72.57535 72.01528
# Shear Modulus (GPa) = 80.29244 30.12680 55.20962
#
# Velocity S-wave (km/s) = 5.43920 3.33176 4.51029
# Velocity P-wave (km/s) = 8.11019 6.44533 7.32521
#
# Compressibility (1/GPa) = 0.01399478
#
# Stress axis : x y z
#
# Youngs Moduli (GPa) = 141.25968 142.73098 101.05025
#
# Poissons Ratio (x) = 0.09621 0.29304
# Poissons Ratio (y) = 0.09521 0.14343
# Poissons Ratio (z) = 0.40964 0.20259
#
# Static dielectric constant tensor:
#      x y z
#    x 2.085960 0.000000 0.000000 
#    y 0.000000 2.365210 0.000000 
#    z 0.000000 0.000000 2.044420 
# 
# From -- ./inp_files/13246.got.cif
#   From: 2010.05.17/outbox.cif.g08.bks.cpg/sg43_7_cif.got.tgz:13246.got - 2010.06.03 19:21:55.
