data_PCOD9371671
_publ_section_title
;
Structure prediction by ZEFSAII (Michael W. Deem and Ramdas Pophale) SiO2 
 PCOD9371671
Probable space group: F D D 2
;
_chemical_formula_sum "Si O2"
_cell_formula_units_Z 112
_cell_length_a 14.844453
_cell_length_b 11.414532
_cell_length_c 31.013012
_cell_angle_alpha 90.000000
_cell_angle_beta 90.000000
_cell_angle_gamma 90.000000
_cell_volume 5254.921783
_symmetry_space_group_name_H-M "F D D 2"
_symmetry_group_IT_number 43
_symmetry_cell_setting 'orthorhombic'
loop_
_space_group_symop_operation_xyz
x,y,z
-x,-y,z
1/4-x,1/4+y,1/4+z
1/4+x,1/4-y,1/4+z
x,1/2+y,1/2+z
-x,1/2-y,1/2+z
1/4-x,3/4+y,3/4+z
1/4+x,3/4-y,3/4+z
1/2+x,y,1/2+z
1/2-x,-y,1/2+z
3/4-x,1/4+y,3/4+z
3/4+x,1/4-y,3/4+z
1/2+x,1/2+y,z
1/2-x,1/2-y,z
3/4-x,3/4+y,1/4+z
3/4+x,3/4-y,1/4+z
loop_
_atom_site_type_symbol
_atom_site_label
_atom_site_fract_x
_atom_site_fract_y
_atom_site_fract_z
Si Si1 0.933074 0.097633 0.373720
Si Si2 0.495543 0.658466 0.278536
Si Si3 0.173800 0.834410 0.532152
Si Si4 0.876829 0.220319 0.980404
Si Si5 0.232475 0.109965 0.852354
Si Si6 0.899444 0.506391 0.419930
Si Si7 0.573831 0.235731 0.455242
O O1 0.977400 0.130152 0.328188
O O2 0.833123 0.058728 0.358646
O O3 0.926086 0.204461 0.407911
O O4 0.000000 0.000000 0.393454
O O5 0.468462 0.790838 0.274919
O O6 0.434739 0.582146 0.244290
O O7 0.596714 0.621598 0.267008
O O8 0.250000 0.750000 0.551541
O O9 0.082585 0.843269 0.560789
O O10 0.148918 0.789752 0.484966
O O11 0.978300 0.262002 0.977419
O O12 0.871842 0.134544 0.937919
O O13 0.250000 0.250000 0.856288
O O14 0.175044 0.047859 0.889331
O O15 0.912474 0.404147 0.455427
O O16 0.000000 0.500000 0.399709
#
# Coordination Sequence:
#
# PCOD9371671 Si02
#       7
#    16  16  16  16  16  16  16
#     4  12  26  42  69 104 142 188 241 307 372 439
#     4  11  23  45  68  97 147 190 244 295 378 435
#     4  12  27  43  74 109 146 195 249 307 373 456
#     4  10  23  40  70  97 144 194 236 306 366 444
#     4  12  24  44  74 102 148 193 241 316 370 442
#     4  10  22  44  68 102 142 188 240 298 377 443
#     4  11  25  41  70 105 140 185 249 301 365 443
#
# _framework density 21.313351000000001
#
# number of rings (size 3 to 8) (size 9 to 14) (size 15 to 20)
#    0.000    0.857    4.286    2.143    6.000    2.286 
#    0.000    0.000    0.000    3.429    0.000    0.000 
#    0.000    0.000    0.000    0.000    0.000    0.000 
#
# Total GULP energy -155986.934543 kJ/mol
# GULP energy per Si atom -5570.961948 kJ/mol
# Density = 2.126484 g / cm^3
# Si number density = 21.313351 Si / 1000 Ang^3
#
#
#
# Elastic Constant Matrix: (Units=GPa)
#
#
# Indices 1 2 3 4 5 6 
#
# 1 114.3706 35.1084 55.3242 0.0000 0.0000 0.0000
# 2 35.1084 124.8665 24.4884 0.0000 0.0000 0.0000
# 3 55.3242 24.4884 80.7212 0.0000 0.0000 0.0000
# 4 0.0000 0.0000 0.0000 38.9207 0.0000 0.0000
# 5 0.0000 0.0000 0.0000 0.0000 38.6290 0.0000
# 6 0.0000 0.0000 0.0000 0.0000 0.0000 32.7780
#
#
#
# Elastic Compliance Matrix: (Units=1/GPa)
#
#
# Indices 1 2 3 4 5 6 
#
# 1 0.013588 -0.002120 -0.008670 0.000000 0.000000 0.000000
# 2 -0.002120 0.008846 -0.001230 0.000000 0.000000 0.000000
# 3 -0.008670 -0.001230 0.018704 0.000000 0.000000 0.000000
# 4 0.000000 0.000000 0.000000 0.025693 0.000000 0.000000
# 5 0.000000 0.000000 0.000000 0.000000 0.025887 0.000000
# 6 0.000000 0.000000 0.000000 0.000000 0.000000 0.030508
#
#
# Mechanical properties :
#
#
# Convention : Reuss Voigt Hill
#
# Bulk Modulus (GPa) = 58.49020 61.08893 59.78956
# Shear Modulus (GPa) = 32.68691 35.73470 34.21080
#
# Velocity S-wave (km/s) = 3.92041 4.09911 4.01076
# Velocity P-wave (km/s) = 6.92787 7.15040 7.04001
#
# Compressibility (1/GPa) = 0.01709688
#
# Stress axis : x y z
#
# Youngs Moduli (GPa) = 73.59354 113.04528 53.46563
#
# Poissons Ratio (x) = 0.23969 0.46353
# Poissons Ratio (y) = 0.15604 0.06579
# Poissons Ratio (z) = 0.63804 0.13910
#
# Static dielectric constant tensor:
#      x y z
#    x 1.356360 0.000000 0.000000 
#    y 0.000000 1.711200 0.000000 
#    z 0.000000 0.000000 1.775930 
# 
# From -- ./inp_files/29087.got.cif
#   From: 2010.05.17/outbox.cif.g08.bks.cpg/sg43_15_cif.got.tgz:29087.got - 2010.06.03 19:21:55.
