data_PCOD9371062
_publ_section_title
;
Structure prediction by ZEFSAII (Michael W. Deem and Ramdas Pophale) SiO2 
 PCOD9371062
Probable space group: F D D 2
;
_chemical_formula_sum "Si O2"
_cell_formula_units_Z 120
_cell_length_a 20.539844
_cell_length_b 23.431378
_cell_length_c 12.827368
_cell_angle_alpha 90.000000
_cell_angle_beta 90.000000
_cell_angle_gamma 90.000000
_cell_volume 6173.515250
_symmetry_space_group_name_H-M "F D D 2"
_symmetry_group_IT_number 43
_symmetry_cell_setting 'orthorhombic'
loop_
_space_group_symop_operation_xyz
x,y,z
-x,-y,z
1/4-x,1/4+y,1/4+z
1/4+x,1/4-y,1/4+z
x,1/2+y,1/2+z
-x,1/2-y,1/2+z
1/4-x,3/4+y,3/4+z
1/4+x,3/4-y,3/4+z
1/2+x,y,1/2+z
1/2-x,-y,1/2+z
3/4-x,1/4+y,3/4+z
3/4+x,1/4-y,3/4+z
1/2+x,1/2+y,z
1/2-x,1/2-y,z
3/4-x,3/4+y,1/4+z
3/4+x,3/4-y,1/4+z
loop_
_atom_site_type_symbol
_atom_site_label
_atom_site_fract_x
_atom_site_fract_y
_atom_site_fract_z
Si Si1 0.280127 0.187940 0.629150
Si Si2 0.173421 0.417541 0.752504
Si Si3 0.576110 0.509386 0.171638
Si Si4 0.000000 0.500000 0.312399
Si Si5 0.060592 0.273042 0.008161
Si Si6 0.648957 0.681374 0.919862
Si Si7 0.099069 0.392998 0.940619
Si Si8 0.116654 0.549902 0.448982
O O1 0.250000 0.250000 0.659952
O O2 0.318639 0.146836 0.708399
O O3 0.322080 0.200906 0.525577
O O4 0.213793 0.151479 0.616682
O O5 0.114712 0.452036 0.700413
O O6 0.238004 0.455440 0.738777
O O7 0.160228 0.413055 0.875466
O O8 0.500000 0.500000 0.148050
O O9 0.609441 0.532888 0.068512
O O10 0.043098 0.458998 0.237805
O O11 0.049888 0.534559 0.386986
O O12 0.078231 0.267389 0.130518
O O13 0.085271 0.218639 0.946048
O O14 0.104046 0.327029 0.970685
O O15 0.662529 0.678276 0.796310
O O16 0.634822 0.616209 0.948013
#
# Coordination Sequence:
#
# PCOD9371062 Si02
#       8
#    16  16  16   8  16  16  16  16
#     4  10  22  40  61  95 122 165 217 256 322 392
#     4  11  23  40  65  92 132 167 210 284 324 385
#     4  11  22  43  66  95 130 173 220 267 326 396
#     4  10  22  40  66  88 128 170 208 272 324 380
#     4   9  23  39  57  94 123 161 220 263 326 387
#     4  10  23  39  63  94 122 171 215 264 327 393
#     4  10  21  38  63  86 126 161 214 265 322 382
#     4  10  22  42  63  90 130 168 219 265 318 395
#
# _framework density 19.437873
#
# number of rings (size 3 to 8) (size 9 to 14) (size 15 to 20)
#    0.000    1.867    3.333    0.000    2.800   12.800 
#    2.400    2.667    0.000    0.000    0.000    0.000 
#    0.000    0.000    0.000    0.000    0.000    0.000 
#
# Total GULP energy -167131.386291 kJ/mol
# GULP energy per Si atom -5571.046210 kJ/mol
# Density = 1.939363 g / cm^3
# Si number density = 19.437873 Si / 1000 Ang^3
#
#
#
# Elastic Constant Matrix: (Units=GPa)
#
#
# Indices 1 2 3 4 5 6 
#
# 1 59.5171 27.4485 33.5373 0.0000 0.0000 0.0000
# 2 27.4485 64.6881 61.7484 0.0000 0.0000 0.0000
# 3 33.5373 61.7484 127.2279 0.0000 0.0000 0.0000
# 4 0.0000 0.0000 0.0000 17.3951 0.0000 0.0000
# 5 0.0000 0.0000 0.0000 0.0000 20.0838 0.0000
# 6 0.0000 0.0000 0.0000 0.0000 0.0000 34.7499
#
#
#
# Elastic Compliance Matrix: (Units=1/GPa)
#
#
# Indices 1 2 3 4 5 6 
#
# 1 0.021240 -0.006834 -0.002282 0.000000 0.000000 0.000000
# 2 -0.006834 0.031001 -0.013245 0.000000 0.000000 0.000000
# 3 -0.002282 -0.013245 0.014890 0.000000 0.000000 0.000000
# 4 0.000000 0.000000 0.000000 0.057488 0.000000 0.000000
# 5 0.000000 0.000000 0.000000 0.000000 0.049791 0.000000
# 6 0.000000 0.000000 0.000000 0.000000 0.000000 0.028777
#
#
# Mechanical properties :
#
#
# Convention : Reuss Voigt Hill
#
# Bulk Modulus (GPa) = 44.62477 55.21129 49.91803
# Shear Modulus (GPa) = 19.57886 23.02568 21.30227
#
# Velocity S-wave (km/s) = 3.17717 3.44550 3.31405
# Velocity P-wave (km/s) = 6.03876 6.65540 6.35456
#
# Compressibility (1/GPa) = 0.02240908
#
# Stress axis : x y z
#
# Youngs Moduli (GPa) = 47.08204 32.25661 67.16138
#
# Poissons Ratio (x) = 0.22045 0.15325
# Poissons Ratio (y) = 0.32177 0.88953
# Poissons Ratio (z) = 0.10743 0.42723
#
# Static dielectric constant tensor:
#      x y z
#    x 1.706850 0.000000 0.000000 
#    y 0.000000 1.673990 0.000000 
#    z 0.000000 0.000000 1.720210 
# 
# From -- ./inp_files/7223.got.cif
#   From: 2010.05.17/outbox.cif.g08.bks.cpg/sg43_4_cif.got.tgz:7223.got - 2010.06.03 19:21:55.
