data_PCOD9371035
_publ_section_title
;
Structure prediction by ZEFSAII (Michael W. Deem and Ramdas Pophale) SiO2 
 PCOD9371035
Probable space group: F D D 2
;
_chemical_formula_sum "Si O2"
_cell_formula_units_Z 120
_cell_length_a 27.822839
_cell_length_b 17.313678
_cell_length_c 12.930082
_cell_angle_alpha 90.000000
_cell_angle_beta 90.000000
_cell_angle_gamma 90.000000
_cell_volume 6228.623185
_symmetry_space_group_name_H-M "F D D 2"
_symmetry_group_IT_number 43
_symmetry_cell_setting 'orthorhombic'
loop_
_space_group_symop_operation_xyz
x,y,z
-x,-y,z
1/4-x,1/4+y,1/4+z
1/4+x,1/4-y,1/4+z
x,1/2+y,1/2+z
-x,1/2-y,1/2+z
1/4-x,3/4+y,3/4+z
1/4+x,3/4-y,3/4+z
1/2+x,y,1/2+z
1/2-x,-y,1/2+z
3/4-x,1/4+y,3/4+z
3/4+x,1/4-y,3/4+z
1/2+x,1/2+y,z
1/2-x,1/2-y,z
3/4-x,3/4+y,1/4+z
3/4+x,3/4-y,1/4+z
loop_
_atom_site_type_symbol
_atom_site_label
_atom_site_fract_x
_atom_site_fract_y
_atom_site_fract_z
Si Si1 0.206681 0.614098 0.572530
Si Si2 0.269836 0.012725 0.414698
Si Si3 0.811926 0.514036 0.753972
Si Si4 0.500000 0.000000 0.413859
Si Si5 0.175216 0.715391 0.042748
Si Si6 0.086702 0.979171 0.069139
Si Si7 0.889155 0.345756 0.632895
Si Si8 0.985484 0.882234 0.351434
O O1 0.215059 0.566428 0.469795
O O2 0.196026 0.555339 0.669205
O O3 0.249863 0.671603 0.598572
O O4 0.159047 0.666990 0.567298
O O5 0.222668 0.004811 0.348018
O O6 0.314617 0.047157 0.350841
O O7 0.262828 0.071842 0.508282
O O8 0.866937 0.525857 0.794021
O O9 0.790547 0.589867 0.696813
O O10 0.544720 0.992838 0.489359
O O11 0.181758 0.688317 0.922904
O O12 0.208920 0.660286 0.113806
O O13 0.201949 0.796837 0.063924
O O14 0.101218 0.063764 0.111466
O O15 0.126251 0.932387 0.001313
#
# Coordination Sequence:
#
# PCOD9371035 Si02
#       8
#    16  16  16   8  16  16  16  16
#     4  10  21  38  56  94 120 157 208 260 308 396
#     4  11  21  37  61  86 123 163 202 258 326 367
#     4  11  23  38  63  87 128 159 208 262 317 383
#     4  10  22  34  58  86 124 154 204 252 320 378
#     4  11  22  37  61  88 123 162 202 265 311 369
#     4  11  20  32  57  88 118 159 196 255 321 363
#     4  11  19  34  56  91 122 153 204 258 309 381
#     4  10  23  38  59  94 122 156 215 250 311 393
#
# _framework density 19.265896000000001
#
# number of rings (size 3 to 8) (size 9 to 14) (size 15 to 20)
#    0.000    1.333    4.000    2.400    5.600    0.000 
#    0.000    4.000    2.933    0.000    0.000    0.000 
#    0.000    0.000    0.000    0.000    0.000    0.000 
#
# Total GULP energy -167091.503465 kJ/mol
# GULP energy per Si atom -5569.716782 kJ/mol
# Density = 1.922205 g / cm^3
# Si number density = 19.265896 Si / 1000 Ang^3
#
#
#
# Elastic Constant Matrix: (Units=GPa)
#
#
# Indices 1 2 3 4 5 6 
#
# 1 138.5703 43.5186 40.0850 0.0000 0.0000 0.0000
# 2 43.5186 77.2813 29.8593 0.0000 0.0000 0.0000
# 3 40.0850 29.8593 43.0031 0.0000 0.0000 0.0000
# 4 0.0000 0.0000 0.0000 28.1169 0.0000 0.0000
# 5 0.0000 0.0000 0.0000 0.0000 19.8123 0.0000
# 6 0.0000 0.0000 0.0000 0.0000 0.0000 23.7167
#
#
#
# Elastic Compliance Matrix: (Units=1/GPa)
#
#
# Indices 1 2 3 4 5 6 
#
# 1 0.010325 -0.002864 -0.007636 0.000000 0.000000 0.000000
# 2 -0.002864 0.018478 -0.010161 0.000000 0.000000 0.000000
# 3 -0.007636 -0.010161 0.037427 0.000000 0.000000 0.000000
# 4 0.000000 0.000000 0.000000 0.035566 0.000000 0.000000
# 5 0.000000 0.000000 0.000000 0.000000 0.050474 0.000000
# 6 0.000000 0.000000 0.000000 0.000000 0.000000 0.042164
#
#
# Mechanical properties :
#
#
# Convention : Reuss Voigt Hill
#
# Bulk Modulus (GPa) = 40.14592 53.97561 47.06076
# Shear Modulus (GPa) = 20.48697 24.02197 22.25447
#
# Velocity S-wave (km/s) = 3.26449 3.53493 3.40240
# Velocity P-wave (km/s) = 5.92387 6.68864 6.31784
#
# Compressibility (1/GPa) = 0.02490913
#
# Stress axis : x y z
#
# Youngs Moduli (GPa) = 96.85449 54.11736 26.71880
#
# Poissons Ratio (x) = 0.15499 0.20401
# Poissons Ratio (y) = 0.27738 0.27149
# Poissons Ratio (z) = 0.73954 0.54988
#
# Static dielectric constant tensor:
#      x y z
#    x 1.769680 0.000000 0.000000 
#    y 0.000000 1.739800 0.000000 
#    z 0.000000 0.000000 1.676870 
# 
# From -- ./inp_files/11544.got.cif
#   From: 2010.05.17/outbox.cif.g08.bks.cpg/sg43_6_cif.got.tgz:11544.got - 2010.06.03 19:21:55.
