data_PCOD9371036
_publ_section_title
;
Structure prediction by ZEFSAII (Michael W. Deem and Ramdas Pophale) SiO2 
 PCOD9371036
Probable space group: F D D 2
;
_chemical_formula_sum "Si O2"
_cell_formula_units_Z 104
_cell_length_a 14.712991
_cell_length_b 25.155800
_cell_length_c 15.078250
_cell_angle_alpha 90.000000
_cell_angle_beta 90.000000
_cell_angle_gamma 90.000000
_cell_volume 5580.717545
_symmetry_space_group_name_H-M "F D D 2"
_symmetry_group_IT_number 43
_symmetry_cell_setting 'orthorhombic'
loop_
_space_group_symop_operation_xyz
x,y,z
-x,-y,z
1/4-x,1/4+y,1/4+z
1/4+x,1/4-y,1/4+z
x,1/2+y,1/2+z
-x,1/2-y,1/2+z
1/4-x,3/4+y,3/4+z
1/4+x,3/4-y,3/4+z
1/2+x,y,1/2+z
1/2-x,-y,1/2+z
3/4-x,1/4+y,3/4+z
3/4+x,1/4-y,3/4+z
1/2+x,1/2+y,z
1/2-x,1/2-y,z
3/4-x,3/4+y,1/4+z
3/4+x,3/4-y,1/4+z
loop_
_atom_site_type_symbol
_atom_site_label
_atom_site_fract_x
_atom_site_fract_y
_atom_site_fract_z
Si Si1 0.080266 0.701850 0.145810
Si Si2 0.667753 0.823924 0.903833
Si Si3 0.354235 0.008754 0.451761
Si Si4 0.594739 0.423550 0.221062
Si Si5 0.250000 0.250000 0.334502
Si Si6 0.729254 0.905878 0.583604
Si Si7 0.750000 0.250000 0.554220
Si Si8 0.750000 0.250000 0.255199
O O1 0.075173 0.637880 0.161162
O O2 0.164351 0.729346 0.197559
O O3 0.985118 0.727261 0.173767
O O4 0.098200 0.708365 0.040649
O O5 0.561640 0.812812 0.881846
O O6 0.720837 0.798412 0.820330
O O7 0.706390 0.794835 0.990627
O O8 0.418807 0.020878 0.367808
O O9 0.421041 0.978146 0.520196
O O10 0.320757 0.058849 0.509671
O O11 0.541503 0.456891 0.149184
O O12 0.662218 0.387979 0.161882
O O13 0.526063 0.391554 0.281806
#
# Coordination Sequence:
#
# PCOD9371036 Si02
#       8
#    16  16  16  16   8  16   8   8
#     4  11  23  37  68  88 126 162 211 254 327 362
#     4  10  23  38  60  89 127 156 207 259 314 369
#     4  10  21  39  61  83 116 161 200 251 306 375
#     4  10  22  35  60  84 118 157 200 252 311 372
#     4   9  21  41  55  84 120 154 203 251 305 373
#     4  10  21  38  57  86 119 155 199 254 305 373
#     4  10  22  40  60  84 124 156 210 250 312 368
#     4  11  23  41  61 102 126 168 209 275 307 391
#
# _framework density 18.635597000000001
#
# number of rings (size 3 to 8) (size 9 to 14) (size 15 to 20)
#    0.000    1.846    1.538    1.385   10.769    2.462 
#    0.000    0.000    0.000    0.000    0.000    0.000 
#    0.000    0.000    0.000    0.000    0.000    0.000 
#
# Total GULP energy -144930.349811 kJ/mol
# GULP energy per Si atom -5574.244224 kJ/mol
# Density = 1.859318 g / cm^3
# Si number density = 18.635597 Si / 1000 Ang^3
#
#
#
# Elastic Constant Matrix: (Units=GPa)
#
#
# Indices 1 2 3 4 5 6 
#
# 1 120.2958 26.9442 68.1228 0.0000 0.0000 0.0000
# 2 26.9442 44.5468 30.4153 0.0000 0.0000 0.0000
# 3 68.1228 30.4153 132.4891 0.0000 0.0000 0.0000
# 4 0.0000 0.0000 0.0000 19.0271 0.0000 0.0000
# 5 0.0000 0.0000 0.0000 0.0000 33.9022 0.0000
# 6 0.0000 0.0000 0.0000 0.0000 0.0000 24.1306
#
#
#
# Elastic Compliance Matrix: (Units=1/GPa)
#
#
# Indices 1 2 3 4 5 6 
#
# 1 0.012215 -0.003676 -0.005437 0.000000 0.000000 0.000000
# 2 -0.003676 0.027727 -0.004475 0.000000 0.000000 0.000000
# 3 -0.005437 -0.004475 0.011371 0.000000 0.000000 0.000000
# 4 0.000000 0.000000 0.000000 0.052557 0.000000 0.000000
# 5 0.000000 0.000000 0.000000 0.000000 0.029497 0.000000
# 6 0.000000 0.000000 0.000000 0.000000 0.000000 0.041441
#
#
# Mechanical properties :
#
#
# Convention : Reuss Voigt Hill
#
# Bulk Modulus (GPa) = 41.43044 60.92181 51.17612
# Shear Modulus (GPa) = 23.80623 26.86861 25.33742
#
# Velocity S-wave (km/s) = 3.57803 3.80121 3.69131
# Velocity P-wave (km/s) = 6.27295 7.21302 6.75935
#
# Compressibility (1/GPa) = 0.02413684
#
# Stress axis : x y z
#
# Youngs Moduli (GPa) = 81.86616 36.06546 87.94625
#
# Poissons Ratio (x) = 0.13259 0.47814
# Poissons Ratio (y) = 0.30096 0.39357
# Poissons Ratio (z) = 0.44509 0.16140
#
# Static dielectric constant tensor:
#      x y z
#    x 1.687330 0.000000 0.000000 
#    y 0.000000 1.642460 0.000000 
#    z 0.000000 0.000000 1.656180 
# 
# From -- ./inp_files/13986.got.cif
#   From: 2010.05.17/outbox.cif.g08.bks.cpg/sg43_7_cif.got.tgz:13986.got - 2010.06.03 19:21:55.
