data_PCOD9371293
_publ_section_title
;
Structure prediction by ZEFSAII (Michael W. Deem and Ramdas Pophale) SiO2 
 PCOD9371293
Probable space group: F D D 2
;
_chemical_formula_sum "Si O2"
_cell_formula_units_Z 120
_cell_length_a 28.688890
_cell_length_b 21.504413
_cell_length_c 8.720426
_cell_angle_alpha 90.000000
_cell_angle_beta 90.000000
_cell_angle_gamma 90.000000
_cell_volume 5379.959900
_symmetry_space_group_name_H-M "F D D 2"
_symmetry_group_IT_number 43
_symmetry_cell_setting 'orthorhombic'
loop_
_space_group_symop_operation_xyz
x,y,z
-x,-y,z
1/4-x,1/4+y,1/4+z
1/4+x,1/4-y,1/4+z
x,1/2+y,1/2+z
-x,1/2-y,1/2+z
1/4-x,3/4+y,3/4+z
1/4+x,3/4-y,3/4+z
1/2+x,y,1/2+z
1/2-x,-y,1/2+z
3/4-x,1/4+y,3/4+z
3/4+x,1/4-y,3/4+z
1/2+x,1/2+y,z
1/2-x,1/2-y,z
3/4-x,3/4+y,1/4+z
3/4+x,3/4-y,1/4+z
loop_
_atom_site_type_symbol
_atom_site_label
_atom_site_fract_x
_atom_site_fract_y
_atom_site_fract_z
Si Si1 0.500000 0.000000 0.875000
Si Si2 0.415716 0.015281 0.400305
Si Si3 0.560317 0.274023 0.584849
Si Si4 0.154071 0.121136 0.350230
Si Si5 0.858795 0.060578 0.354164
Si Si6 0.781233 0.486108 0.979335
Si Si7 0.915596 0.952422 0.179061
Si Si8 0.562912 0.921809 0.094932
O O1 0.538157 0.035517 0.774192
O O2 0.475200 0.052304 0.977284
O O3 0.426673 0.067373 0.529684
O O4 0.440427 0.037465 0.247919
O O5 0.361392 0.004272 0.360859
O O6 0.427426 0.954447 0.499643
O O7 0.523113 0.240556 0.694967
O O8 0.543671 0.266337 0.408688
O O9 0.560558 0.348030 0.621284
O O10 0.123033 0.130162 0.503879
O O11 0.193598 0.072208 0.396318
O O12 0.115632 0.106000 0.221540
O O13 0.888402 0.063411 0.509464
O O14 0.806297 0.045548 0.398832
O O15 0.879413 0.005043 0.247475
#
# Coordination Sequence:
#
# PCOD9371293 Si02
#       8
#     8  16  16  16  16  16  16  16
#     4  10  24  42  66 100 128 178 238 278 346 424
#     4  11  24  44  66 100 139 182 228 288 357 420
#     4  12  27  43  68 106 142 176 240 290 350 420
#     4  10  21  43  70  91 136 184 227 274 361 419
#     4   9  19  41  65  91 128 182 224 272 343 417
#     4  11  25  42  67 103 139 177 233 294 343 420
#     4   9  21  39  65  93 128 173 224 277 339 418
#     4  11  23  44  68  98 140 184 227 294 351 429
#
# _framework density 22.305
#
# number of rings (size 3 to 8) (size 9 to 14) (size 15 to 20)
#    0.000    1.600    2.667    0.800    9.333    0.533 
#    0.000    0.000    0.000    0.000    0.000    0.000 
#    0.000    0.000    0.000    0.000    0.000    0.000 
#
# Total GULP energy -167444.184332 kJ/mol
# GULP energy per Si atom -5581.472811 kJ/mol
# Density = 2.225423 g / cm^3
# Si number density = 22.305000 Si / 1000 Ang^3
#
#
#
# Elastic Constant Matrix: (Units=GPa)
#
#
# Indices 1 2 3 4 5 6 
#
# 1 66.9075 2.7198 9.1644 0.0000 0.0001 0.0002
# 2 2.7198 33.6049 -4.5573 0.0002 -0.0001 0.0000
# 3 9.1644 -4.5573 109.4978 0.0009 -0.0003 0.0000
# 4 0.0000 0.0002 0.0009 28.8510 -0.0002 0.0000
# 5 0.0001 -0.0001 -0.0003 -0.0002 22.2040 0.0000
# 6 0.0002 0.0000 0.0000 0.0000 0.0000 10.3344
#
#
#
# Elastic Compliance Matrix: (Units=1/GPa)
#
#
# Indices 1 2 3 4 5 6 
#
# 1 0.015185 -0.001409 -0.001330 0.000000 0.000000 0.000000
# 2 -0.001409 0.030057 0.001369 0.000000 0.000000 0.000000
# 3 -0.001330 0.001369 0.009301 0.000000 0.000000 0.000000
# 4 0.000000 0.000000 0.000000 0.034661 0.000000 0.000000
# 5 0.000000 0.000000 0.000000 0.000000 0.045037 0.000000
# 6 0.000000 0.000000 0.000000 0.000000 0.000000 0.096764
#
#
# Mechanical properties :
#
#
# Convention : Reuss Voigt Hill
#
# Bulk Modulus (GPa) = 19.30370 24.96268 22.13319
# Shear Modulus (GPa) = 19.91928 25.79010 22.85469
#
# Velocity S-wave (km/s) = 2.99162 3.40405 3.20448
# Velocity P-wave (km/s) = 4.53941 5.16390 4.86170
#
# Compressibility (1/GPa) = 0.05180354
#
# Stress axis : x y z
#
# Youngs Moduli (GPa) = 65.85271 33.26981 107.51695
#
# Poissons Ratio (x) = 0.04689 0.14295
# Poissons Ratio (y) = 0.09281 -0.14718
# Poissons Ratio (z) = 0.08756 -0.04554
#
# Static dielectric constant tensor:
#      x y z
#    x 1.798570 0.000000 0.000000 
#    y 0.000000 2.056440 0.000000 
#    z 0.000000 0.000000 1.854020 
# 
# From -- ./inp_files/3886.got.cif
#   From: 2010.05.17/outbox.cif.g08.bks.cpg/sg43_2_cif.got.tgz:3886.got - 2010.06.03 19:21:55.
