data_PCOD9371175
_publ_section_title
;
Structure prediction by ZEFSAII (Michael W. Deem and Ramdas Pophale) SiO2 
 PCOD9371175
Probable space group: F D D 2
;
_chemical_formula_sum "Si O2"
_cell_formula_units_Z 112
_cell_length_a 11.436582
_cell_length_b 23.552939
_cell_length_c 17.405392
_cell_angle_alpha 90.000000
_cell_angle_beta 90.000000
_cell_angle_gamma 90.000000
_cell_volume 4688.405474
_symmetry_space_group_name_H-M "F D D 2"
_symmetry_group_IT_number 43
_symmetry_cell_setting 'orthorhombic'
loop_
_space_group_symop_operation_xyz
x,y,z
-x,-y,z
1/4-x,1/4+y,1/4+z
1/4+x,1/4-y,1/4+z
x,1/2+y,1/2+z
-x,1/2-y,1/2+z
1/4-x,3/4+y,3/4+z
1/4+x,3/4-y,3/4+z
1/2+x,y,1/2+z
1/2-x,-y,1/2+z
3/4-x,1/4+y,3/4+z
3/4+x,1/4-y,3/4+z
1/2+x,1/2+y,z
1/2-x,1/2-y,z
3/4-x,3/4+y,1/4+z
3/4+x,3/4-y,1/4+z
loop_
_atom_site_type_symbol
_atom_site_label
_atom_site_fract_x
_atom_site_fract_y
_atom_site_fract_z
Si Si1 0.649311 0.434674 0.792330
Si Si2 0.387961 0.751241 0.014421
Si Si3 0.113349 0.262191 0.691347
Si Si4 0.064464 0.322575 0.244106
Si Si5 0.802037 0.616173 0.689978
Si Si6 0.500000 0.500000 0.666437
Si Si7 0.000000 0.000000 0.915609
Si Si8 0.181251 0.363409 0.858764
O O1 0.783574 0.444166 0.764870
O O2 0.600994 0.371045 0.804469
O O3 0.585448 0.466175 0.722094
O O4 0.601245 0.471164 0.864082
O O5 0.250000 0.750000 0.007636
O O6 0.408634 0.764713 0.105782
O O7 0.418919 0.799362 0.950651
O O8 0.250000 0.250000 0.706839
O O9 0.104682 0.331478 0.685514
O O10 0.027578 0.229514 0.750135
O O11 0.185253 0.296024 0.216480
O O12 0.005550 0.359483 0.176644
O O13 0.757909 0.623969 0.777916
O O14 0.705215 0.627194 0.625178
O O15 0.434066 0.453962 0.617314
#
# Coordination Sequence:
#
# PCOD9371175 Si02
#       8
#    16  16  16  16  16   8   8  16
#     4  10  21  40  68  92 131 175 234 286 372 426
#     4  11  22  44  69  97 137 186 237 298 377 458
#     4  11  22  39  65 102 135 182 239 300 371 440
#     4  11  23  38  67  99 132 184 233 290 374 434
#     4  12  23  42  68 101 144 185 245 307 380 443
#     4   9  20  34  60  98 128 172 227 298 362 421
#     4  11  22  42  64  92 138 170 223 302 352 439
#     4  11  22  38  66 102 138 179 241 313 364 447
#
# _framework density 23.888718999999998
#
# number of rings (size 3 to 8) (size 9 to 14) (size 15 to 20)
#    0.000    1.143    5.714    0.857    5.000    1.143 
#    2.571    0.000    0.000    0.000    0.000    0.000 
#    0.000    0.000    0.000    0.000    0.000    0.000 
#
# Total GULP energy -155918.994273 kJ/mol
# GULP energy per Si atom -5568.535510 kJ/mol
# Density = 2.383435 g / cm^3
# Si number density = 23.888719 Si / 1000 Ang^3
#
#
#
# Elastic Constant Matrix: (Units=GPa)
#
#
# Indices 1 2 3 4 5 6 
#
# 1 112.2557 25.6663 -6.1054 0.0000 0.0000 0.0000
# 2 25.6663 95.0899 -1.7366 0.0000 0.0000 0.0000
# 3 -6.1054 -1.7366 22.9034 0.0000 0.0000 0.0000
# 4 0.0000 0.0000 0.0000 25.3825 0.0000 0.0000
# 5 0.0000 0.0000 0.0000 0.0000 6.4003 0.0000
# 6 0.0000 0.0000 0.0000 0.0000 0.0000 41.7695
#
#
#
# Elastic Compliance Matrix: (Units=1/GPa)
#
#
# Indices 1 2 3 4 5 6 
#
# 1 0.009621 -0.002554 0.002371 0.000000 0.000000 0.000000
# 2 -0.002554 0.011209 0.000169 0.000000 0.000000 0.000000
# 3 0.002371 0.000169 0.044306 0.000000 0.000000 0.000000
# 4 0.000000 0.000000 0.000000 0.039397 0.000000 0.000000
# 5 0.000000 0.000000 0.000000 0.000000 0.156243 0.000000
# 6 0.000000 0.000000 0.000000 0.000000 0.000000 0.023941
#
#
# Mechanical properties :
#
#
# Convention : Reuss Voigt Hill
#
# Bulk Modulus (GPa) = 15.35874 29.54420 22.45147
# Shear Modulus (GPa) = 16.31600 28.87210 22.59405
#
# Velocity S-wave (km/s) = 2.61626 3.48028 3.07873
# Velocity P-wave (km/s) = 3.94584 5.34266 4.69647
#
# Compressibility (1/GPa) = 0.06510950
#
# Stress axis : x y z
#
# Youngs Moduli (GPa) = 103.93883 89.21635 22.57008
#
# Poissons Ratio (x) = 0.22782 -0.05352
# Poissons Ratio (y) = 0.26542 -0.00382
# Poissons Ratio (z) = -0.24645 -0.01509
#
# Static dielectric constant tensor:
#      x y z
#    x 1.839130 0.000000 0.000000 
#    y 0.000000 2.060310 0.000000 
#    z 0.000000 0.000000 1.930860 
# 
# From -- ./inp_files/17255.got.cif
#   From: 2010.05.17/outbox.cif.g08.bks.cpg/sg43_9_cif.got.tgz:17255.got - 2010.06.03 19:21:55.
