data_PCOD9371126
_publ_section_title
;
Structure prediction by ZEFSAII (Michael W. Deem and Ramdas Pophale) SiO2 
 PCOD9371126
Probable space group: F D D 2
;
_chemical_formula_sum "Si O2"
_cell_formula_units_Z 104
_cell_length_a 15.755023
_cell_length_b 20.766775
_cell_length_c 14.509123
_cell_angle_alpha 90.000000
_cell_angle_beta 90.000000
_cell_angle_gamma 90.000000
_cell_volume 4747.109630
_symmetry_space_group_name_H-M "F D D 2"
_symmetry_group_IT_number 43
_symmetry_cell_setting 'orthorhombic'
loop_
_space_group_symop_operation_xyz
x,y,z
-x,-y,z
1/4-x,1/4+y,1/4+z
1/4+x,1/4-y,1/4+z
x,1/2+y,1/2+z
-x,1/2-y,1/2+z
1/4-x,3/4+y,3/4+z
1/4+x,3/4-y,3/4+z
1/2+x,y,1/2+z
1/2-x,-y,1/2+z
3/4-x,1/4+y,3/4+z
3/4+x,1/4-y,3/4+z
1/2+x,1/2+y,z
1/2-x,1/2-y,z
3/4-x,3/4+y,1/4+z
3/4+x,3/4-y,1/4+z
loop_
_atom_site_type_symbol
_atom_site_label
_atom_site_fract_x
_atom_site_fract_y
_atom_site_fract_z
Si Si1 0.834816 0.440152 0.615180
Si Si2 0.250000 0.250000 0.446285
Si Si3 0.258539 0.644352 0.104595
Si Si4 0.250000 0.250000 0.210050
Si Si5 0.080654 0.261215 0.876038
Si Si6 0.608973 0.199736 0.577419
Si Si7 0.700155 0.119075 0.810245
Si Si8 0.750000 0.250000 0.260668
O O1 0.750673 0.475218 0.581220
O O2 0.846721 0.370892 0.565485
O O3 0.815737 0.422463 0.720201
O O4 0.915755 0.486318 0.635352
O O5 0.239446 0.188312 0.513805
O O6 0.195072 0.585573 0.117651
O O7 0.251683 0.689469 0.192907
O O8 0.356887 0.621562 0.100575
O O9 0.333991 0.256667 0.145163
O O10 0.257546 0.317351 0.265337
O O11 0.166463 0.248044 0.822207
O O12 0.094808 0.236522 0.981270
O O13 0.518418 0.173263 0.617438
#
# Coordination Sequence:
#
# PCOD9371126 Si02
#       8
#    16   8  16   8  16  16  16   8
#     4   9  21  39  68  97 135 176 223 287 347 412
#     4   9  20  43  73 102 135 172 236 300 345 427
#     4  10  24  44  70 100 136 179 241 292 358 424
#     4  10  21  39  69  95 134 186 224 290 344 412
#     4  11  25  42  68  98 138 186 235 284 359 432
#     4  10  22  41  63 101 141 177 230 284 353 421
#     4   9  21  40  64 101 130 175 228 282 344 414
#     4  11  27  46  66  97 137 188 228 298 361 417
#
# _framework density 21.908069000000001
#
# number of rings (size 3 to 8) (size 9 to 14) (size 15 to 20)
#    0.000    2.154    0.000    0.462    6.462    7.385 
#    0.000    0.000    0.000    0.000    0.000    0.000 
#    0.000    0.000    0.000    0.000    0.000    0.000 
#
# Total GULP energy -144971.880168 kJ/mol
# GULP energy per Si atom -5575.841545 kJ/mol
# Density = 2.185820 g / cm^3
# Si number density = 21.908069 Si / 1000 Ang^3
#
#
#
# Elastic Constant Matrix: (Units=GPa)
#
#
# Indices 1 2 3 4 5 6 
#
# 1 186.0729 82.4168 67.6342 0.0000 0.0000 0.0000
# 2 82.4168 109.3750 35.4624 0.0000 0.0000 0.0000
# 3 67.6342 35.4624 47.5449 0.0000 0.0000 0.0000
# 4 0.0000 0.0000 0.0000 12.8608 0.0000 0.0000
# 5 0.0000 0.0000 0.0000 0.0000 19.1133 0.0000
# 6 0.0000 0.0000 0.0000 0.0000 0.0000 46.1918
#
#
#
# Elastic Compliance Matrix: (Units=1/GPa)
#
#
# Indices 1 2 3 4 5 6 
#
# 1 0.012897 -0.004972 -0.014638 0.000000 0.000000 0.000000
# 2 -0.004972 0.013976 -0.003351 0.000000 0.000000 0.000000
# 3 -0.014638 -0.003351 0.044355 0.000000 0.000000 0.000000
# 4 0.000000 0.000000 0.000000 0.077756 0.000000 0.000000
# 5 0.000000 0.000000 0.000000 0.000000 0.052320 0.000000
# 6 0.000000 0.000000 0.000000 0.000000 0.000000 0.021649
#
#
# Mechanical properties :
#
#
# Convention : Reuss Voigt Hill
#
# Bulk Modulus (GPa) = 39.51663 79.33552 59.42608
# Shear Modulus (GPa) = 18.03025 26.13180 22.08102
#
# Velocity S-wave (km/s) = 2.87190 3.45743 3.17818
# Velocity P-wave (km/s) = 5.39201 7.22703 6.37588
#
# Compressibility (1/GPa) = 0.02530580
#
# Stress axis : x y z
#
# Youngs Moduli (GPa) = 77.53533 71.55033 22.54515
#
# Poissons Ratio (x) = 0.35578 0.33002
# Poissons Ratio (y) = 0.38554 0.07555
# Poissons Ratio (z) = 1.13497 0.23977
#
# Static dielectric constant tensor:
#      x y z
#    x 1.921500 0.000000 0.000000 
#    y 0.000000 1.831250 0.000000 
#    z 0.000000 0.000000 1.890990 
# 
# From -- ./inp_files/13919.got.cif
#   From: 2010.05.17/outbox.cif.g08.bks.cpg/sg43_7_cif.got.tgz:13919.got - 2010.06.03 19:21:55.
