data_PCOD9371246
_publ_section_title
;
Structure prediction by ZEFSAII (Michael W. Deem and Ramdas Pophale) SiO2 
 PCOD9371246
Probable space group: F D D 2
;
_chemical_formula_sum "Si O2"
_cell_formula_units_Z 128
_cell_length_a 23.619958
_cell_length_b 20.956681
_cell_length_c 12.881359
_cell_angle_alpha 90.000000
_cell_angle_beta 90.000000
_cell_angle_gamma 90.000000
_cell_volume 6376.220214
_symmetry_space_group_name_H-M "F D D 2"
_symmetry_group_IT_number 43
_symmetry_cell_setting 'orthorhombic'
loop_
_space_group_symop_operation_xyz
x,y,z
-x,-y,z
1/4-x,1/4+y,1/4+z
1/4+x,1/4-y,1/4+z
x,1/2+y,1/2+z
-x,1/2-y,1/2+z
1/4-x,3/4+y,3/4+z
1/4+x,3/4-y,3/4+z
1/2+x,y,1/2+z
1/2-x,-y,1/2+z
3/4-x,1/4+y,3/4+z
3/4+x,1/4-y,3/4+z
1/2+x,1/2+y,z
1/2-x,1/2-y,z
3/4-x,3/4+y,1/4+z
3/4+x,3/4-y,1/4+z
loop_
_atom_site_type_symbol
_atom_site_label
_atom_site_fract_x
_atom_site_fract_y
_atom_site_fract_z
Si Si1 0.517041 0.695410 0.838030
Si Si2 0.415563 0.739122 0.695896
Si Si3 0.133900 0.350650 0.022039
Si Si4 0.313460 0.234262 0.317002
Si Si5 0.974194 0.350567 0.570330
Si Si6 0.801132 0.789007 0.714239
Si Si7 0.888878 0.699050 0.803515
Si Si8 0.053575 0.922362 0.237178
O O1 0.460071 0.704045 0.771657
O O2 0.560065 0.642096 0.792946
O O3 0.552934 0.761876 0.826915
O O4 0.505886 0.674573 0.957623
O O5 0.382795 0.694519 0.615572
O O6 0.364530 0.769727 0.761383
O O7 0.448788 0.791206 0.630364
O O8 0.080014 0.398595 0.012788
O O9 0.139477 0.310221 0.916197
O O10 0.250000 0.250000 0.276131
O O11 0.320311 0.158497 0.305805
O O12 0.316012 0.259960 0.434242
O O13 0.017699 0.384622 0.649997
O O14 0.750000 0.750000 0.765905
O O15 0.853084 0.739213 0.720747
O O16 0.779958 0.812072 0.601213
O O17 0.897037 0.627533 0.762028
#
# Coordination Sequence:
#
# PCOD9371246 Si02
#       8
#    16  16  16  16  16  16  16  16
#     4  11  23  42  66  98 130 178 231 274 344 418
#     4  12  24  42  72  94 133 191 221 285 356 409
#     4  10  23  43  63  96 136 170 228 286 335 415
#     4  10  24  43  63  96 132 177 223 286 340 417
#     4  11  22  42  66  93 138 166 232 284 330 420
#     4  10  22  39  65  95 127 174 217 276 354 403
#     4  10  21  42  64  94 133 169 217 288 330 420
#     4  10  22  43  64  94 136 166 218 287 338 410
#
# _framework density 20.074589
#
# number of rings (size 3 to 8) (size 9 to 14) (size 15 to 20)
#    0.000    1.500    3.750    1.125    1.750    5.000 
#    2.250    0.625    0.000    0.000    0.000    0.000 
#    0.000    0.000    0.000    0.000    0.000    0.000 
#
# Total GULP energy -178212.292638 kJ/mol
# GULP energy per Si atom -5569.134145 kJ/mol
# Density = 2.002890 g / cm^3
# Si number density = 20.074589 Si / 1000 Ang^3
#
#
#
# Elastic Constant Matrix: (Units=GPa)
#
#
# Indices 1 2 3 4 5 6 
#
# 1 65.3848 3.5126 38.7998 0.0000 0.0000 0.0000
# 2 3.5126 62.8351 17.5630 0.0000 0.0000 0.0000
# 3 38.7998 17.5630 100.2036 0.0000 0.0000 0.0000
# 4 0.0000 0.0000 0.0000 2.1249 0.0000 0.0000
# 5 0.0000 0.0000 0.0000 0.0000 19.0526 0.0000
# 6 0.0000 0.0000 0.0000 0.0000 0.0000 21.1340
#
#
#
# Elastic Compliance Matrix: (Units=1/GPa)
#
#
# Indices 1 2 3 4 5 6 
#
# 1 0.019928 0.001096 -0.007909 0.000000 0.000000 0.000000
# 2 0.001096 0.016795 -0.003368 0.000000 0.000000 0.000000
# 3 -0.007909 -0.003368 0.013632 0.000000 0.000000 0.000000
# 4 0.000000 0.000000 0.000000 0.470613 0.000000 0.000000
# 5 0.000000 0.000000 0.000000 0.000000 0.052486 0.000000
# 6 0.000000 0.000000 0.000000 0.000000 0.000000 0.047317
#
#
# Mechanical properties :
#
#
# Convention : Reuss Voigt Hill
#
# Bulk Modulus (GPa) = 33.33925 38.68603 36.01264
# Shear Modulus (GPa) = 7.67895 19.69884 13.68890
#
# Velocity S-wave (km/s) = 1.95794 3.13594 2.61416
# Velocity P-wave (km/s) = 4.66424 5.69431 5.20482
#
# Compressibility (1/GPa) = 0.02999467
#
# Stress axis : x y z
#
# Youngs Moduli (GPa) = 50.18019 59.54213 73.35507
#
# Poissons Ratio (x) = -0.06529 0.58013
# Poissons Ratio (y) = -0.05502 0.24708
# Poissons Ratio (z) = 0.39685 0.20055
#
# Static dielectric constant tensor:
#      x y z
#    x 1.747230 0.000000 0.000000 
#    y 0.000000 1.764230 0.000000 
#    z 0.000000 0.000000 1.733200 
# 
# From -- ./inp_files/7688.got.cif
#   From: 2010.05.17/outbox.cif.g08.bks.cpg/sg43_4_cif.got.tgz:7688.got - 2010.06.03 19:21:55.
