data_PCOD9371237
_publ_section_title
;
Structure prediction by ZEFSAII (Michael W. Deem and Ramdas Pophale) SiO2 
 PCOD9371237
Probable space group: F D D 2
;
_chemical_formula_sum "Si O2"
_cell_formula_units_Z 88
_cell_length_a 15.128844
_cell_length_b 12.090525
_cell_length_c 17.984153
_cell_angle_alpha 90.000000
_cell_angle_beta 90.000000
_cell_angle_gamma 90.000000
_cell_volume 3289.583334
_symmetry_space_group_name_H-M "F D D 2"
_symmetry_group_IT_number 43
_symmetry_cell_setting 'orthorhombic'
loop_
_space_group_symop_operation_xyz
x,y,z
-x,-y,z
1/4-x,1/4+y,1/4+z
1/4+x,1/4-y,1/4+z
x,1/2+y,1/2+z
-x,1/2-y,1/2+z
1/4-x,3/4+y,3/4+z
1/4+x,3/4-y,3/4+z
1/2+x,y,1/2+z
1/2-x,-y,1/2+z
3/4-x,1/4+y,3/4+z
3/4+x,1/4-y,3/4+z
1/2+x,1/2+y,z
1/2-x,1/2-y,z
3/4-x,3/4+y,1/4+z
3/4+x,3/4-y,1/4+z
loop_
_atom_site_type_symbol
_atom_site_label
_atom_site_fract_x
_atom_site_fract_y
_atom_site_fract_z
Si Si1 0.250000 0.250000 0.901690
Si Si2 0.987391 0.780548 0.734470
Si Si3 0.112973 0.600802 0.659375
Si Si4 0.242990 0.916733 0.766984
Si Si5 0.138610 0.340258 0.640788
Si Si6 0.060435 0.794733 0.383401
O O1 0.225321 0.141786 0.949054
O O2 0.162664 0.293408 0.861607
O O3 0.890985 0.748430 0.701817
O O4 0.980446 0.789305 0.822342
O O5 0.044856 0.676635 0.706166
O O6 0.078687 0.616848 0.574032
O O7 0.204812 0.640388 0.698133
O O8 0.112344 0.466645 0.667035
O O9 0.326288 0.940555 0.821054
O O10 0.196641 0.013926 0.720445
O O11 0.241245 0.357119 0.622817
#
# Coordination Sequence:
#
# PCOD9371237 Si02
#       6
#     8  16  16  16  16  16
#     4  12  32  48  64 114 172 218 250 328 450 500
#     4  11  25  50  74 110 164 204 270 335 425 510
#     4  10  22  43  79 121 147 197 274 364 397 482
#     4  10  21  41  78 118 150 185 273 340 424 465
#     4  10  23  48  82 120 141 206 288 358 398 482
#     4  11  27  49  74 115 158 222 269 339 423 518
#
# _framework density 26.751109
#
# number of rings (size 3 to 8) (size 9 to 14) (size 15 to 20)
#    0.000    1.455    1.818    2.182    5.091   12.364 
#    6.545    0.000    0.000    0.000    0.000    0.000 
#    0.000    0.000    0.000    0.000    0.000    0.000 
#
# Total GULP energy -122665.876995 kJ/mol
# GULP energy per Si atom -5575.721682 kJ/mol
# Density = 2.669022 g / cm^3
# Si number density = 26.751109 Si / 1000 Ang^3
#
#
#
# Elastic Constant Matrix: (Units=GPa)
#
#
# Indices 1 2 3 4 5 6 
#
# 1 171.8599 41.3278 53.8141 0.0000 0.0000 0.0000
# 2 41.3278 132.1938 42.7600 0.0000 0.0000 0.0000
# 3 53.8141 42.7600 162.7018 0.0000 0.0000 0.0000
# 4 0.0000 0.0000 0.0000 5.9844 0.0000 0.0000
# 5 0.0000 0.0000 0.0000 0.0000 49.7165 0.0000
# 6 0.0000 0.0000 0.0000 0.0000 0.0000 28.1759
#
#
#
# Elastic Compliance Matrix: (Units=1/GPa)
#
#
# Indices 1 2 3 4 5 6 
#
# 1 0.006759 -0.001519 -0.001836 0.000000 0.000000 0.000000
# 2 -0.001519 0.008609 -0.001760 0.000000 0.000000 0.000000
# 3 -0.001836 -0.001760 0.007216 0.000000 0.000000 0.000000
# 4 0.000000 0.000000 0.000000 0.167100 0.000000 0.000000
# 5 0.000000 0.000000 0.000000 0.000000 0.020114 0.000000
# 6 0.000000 0.000000 0.000000 0.000000 0.000000 0.035491
#
#
# Mechanical properties :
#
#
# Convention : Reuss Voigt Hill
#
# Bulk Modulus (GPa) = 80.95157 82.50659 81.72908
# Shear Modulus (GPa) = 19.25757 38.69894 28.97825
#
# Velocity S-wave (km/s) = 2.68597 3.80758 3.29485
# Velocity P-wave (km/s) = 6.32028 7.08798 6.71511
#
# Compressibility (1/GPa) = 0.01235307
#
# Stress axis : x y z
#
# Youngs Moduli (GPa) = 147.95094 116.15906 138.57804
#
# Poissons Ratio (x) = 0.17646 0.25447
# Poissons Ratio (y) = 0.22475 0.24391
# Poissons Ratio (z) = 0.27169 0.20445
#
# Static dielectric constant tensor:
#      x y z
#    x 2.274960 0.000000 0.000000 
#    y 0.000000 2.165950 0.000000 
#    z 0.000000 0.000000 2.067390 
# 
# From -- ./inp_files/14205.got.cif
#   From: 2010.05.17/outbox.cif.g08.bks.cpg/sg43_8_cif.got.tgz:14205.got - 2010.06.03 19:21:55.
