data_PCOD9371974
_publ_section_title
;
Structure prediction by ZEFSAII (Michael W. Deem and Ramdas Pophale) SiO2 
 PCOD9371974
Probable space group: F D D 2
;
_chemical_formula_sum "Si O2"
_cell_formula_units_Z 88
_cell_length_a 16.311364
_cell_length_b 27.588265
_cell_length_c 7.141105
_cell_angle_alpha 90.000000
_cell_angle_beta 90.000000
_cell_angle_gamma 90.000000
_cell_volume 3213.513193
_symmetry_space_group_name_H-M "F D D 2"
_symmetry_group_IT_number 43
_symmetry_cell_setting 'orthorhombic'
loop_
_space_group_symop_operation_xyz
x,y,z
-x,-y,z
1/4-x,1/4+y,1/4+z
1/4+x,1/4-y,1/4+z
x,1/2+y,1/2+z
-x,1/2-y,1/2+z
1/4-x,3/4+y,3/4+z
1/4+x,3/4-y,3/4+z
1/2+x,y,1/2+z
1/2-x,-y,1/2+z
3/4-x,1/4+y,3/4+z
3/4+x,1/4-y,3/4+z
1/2+x,1/2+y,z
1/2-x,1/2-y,z
3/4-x,3/4+y,1/4+z
3/4+x,3/4-y,1/4+z
loop_
_atom_site_type_symbol
_atom_site_label
_atom_site_fract_x
_atom_site_fract_y
_atom_site_fract_z
Si Si1 0.873525 0.840656 0.471360
Si Si2 0.662645 0.472167 0.558980
Si Si3 0.991680 0.339144 0.620320
Si Si4 0.500000 0.000000 0.431205
Si Si5 0.337649 0.180136 0.981574
Si Si6 0.091081 0.289139 0.329740
O O1 0.868871 0.798931 0.627720
O O2 0.784797 0.858104 0.394526
O O3 0.830903 0.744983 0.304169
O O4 0.941702 0.832221 0.311937
O O5 0.679949 0.428828 0.707766
O O6 0.657601 0.363454 0.341848
O O7 0.626124 0.520261 0.648664
O O8 0.992708 0.234288 0.756073
O O9 0.071446 0.310204 0.532832
O O10 0.501358 0.048104 0.301770
O O11 0.388023 0.170198 0.173596
#
# Coordination Sequence:
#
# PCOD9371974 Si02
#       6
#    16  16  16   8  16  16
#     4  12  26  48  81 115 167 223 276 350 439 496
#     4  10  25  48  80 115 170 216 275 359 416 508
#     4  10  27  46  74 118 164 213 276 343 431 503
#     4   8  20  44  80 110 148 214 264 346 398 496
#     4  10  23  46  86 116 158 220 287 346 423 510
#     4   8  21  46  76 108 159 202 269 349 422 487
#
# _framework density 27.384360000000001
#
# number of rings (size 3 to 8) (size 9 to 14) (size 15 to 20)
#    2.182    0.000    0.000    1.091    7.636    0.000 
#    6.545    0.909    0.000    0.000    0.000    0.000 
#    0.000    0.000    0.000    0.000    0.000    0.000 
#
# Total GULP energy -122876.392527 kJ/mol
# GULP energy per Si atom -5585.290569 kJ/mol
# Density = 2.732203 g / cm^3
# Si number density = 27.384360 Si / 1000 Ang^3
#
#
#
# Elastic Constant Matrix: (Units=GPa)
#
#
# Indices 1 2 3 4 5 6 
#
# 1 93.2048 43.2131 43.2781 0.0000 -0.0005 0.0000
# 2 43.2131 126.5209 74.0157 0.0000 0.0000 0.0000
# 3 43.2781 74.0157 207.8416 -0.0001 -0.0009 0.0001
# 4 0.0000 0.0000 -0.0001 71.3034 0.0001 0.0000
# 5 -0.0005 0.0000 -0.0009 0.0001 54.8161 -0.0001
# 6 0.0000 0.0000 0.0001 0.0000 -0.0001 47.6027
#
#
#
# Elastic Compliance Matrix: (Units=1/GPa)
#
#
# Indices 1 2 3 4 5 6 
#
# 1 0.013076 -0.003629 -0.001430 0.000000 0.000000 0.000000
# 2 -0.003629 0.010991 -0.003158 0.000000 0.000000 0.000000
# 3 -0.001430 -0.003158 0.006234 0.000000 0.000000 0.000000
# 4 0.000000 0.000000 0.000000 0.014025 0.000000 0.000000
# 5 0.000000 0.000000 0.000000 0.000000 0.018243 0.000000
# 6 0.000000 0.000000 0.000000 0.000000 0.000000 0.021007
#
#
# Mechanical properties :
#
#
# Convention : Reuss Voigt Hill
#
# Bulk Modulus (GPa) = 72.12448 83.17569 77.65008
# Shear Modulus (GPa) = 47.78601 52.54847 50.16724
#
# Velocity S-wave (km/s) = 4.18186 4.38530 4.28479
# Velocity P-wave (km/s) = 7.05070 7.48869 7.27299
#
# Compressibility (1/GPa) = 0.01386492
#
# Stress axis : x y z
#
# Youngs Moduli (GPa) = 76.47674 90.98262 160.41247
#
# Poissons Ratio (x) = 0.33021 0.22943
# Poissons Ratio (y) = 0.27756 0.50664
# Poissons Ratio (z) = 0.10938 0.28736
#
# Static dielectric constant tensor:
#      x y z
#    x 2.150540 0.000000 0.000000 
#    y 0.000000 2.287680 0.000000 
#    z 0.000000 0.000000 2.115050 
# 
# From -- ./inp_files/3692.got.cif
#   From: 2010.05.17/outbox.cif.g08.bks.cpg/sg43_2_cif.got.tgz:3692.got - 2010.06.03 19:21:55.
