data_PCOD9371837
_publ_section_title
;
Structure prediction by ZEFSAII (Michael W. Deem and Ramdas Pophale) SiO2 
 PCOD9371837
Probable space group: F D D 2
;
_chemical_formula_sum "Si O2"
_cell_formula_units_Z 96
_cell_length_a 21.694546
_cell_length_b 23.391928
_cell_length_c 8.415932
_cell_angle_alpha 90.000000
_cell_angle_beta 90.000000
_cell_angle_gamma 90.000000
_cell_volume 4270.894095
_symmetry_space_group_name_H-M "F D D 2"
_symmetry_group_IT_number 43
_symmetry_cell_setting 'orthorhombic'
loop_
_space_group_symop_operation_xyz
x,y,z
-x,-y,z
1/4-x,1/4+y,1/4+z
1/4+x,1/4-y,1/4+z
x,1/2+y,1/2+z
-x,1/2-y,1/2+z
1/4-x,3/4+y,3/4+z
1/4+x,3/4-y,3/4+z
1/2+x,y,1/2+z
1/2-x,-y,1/2+z
3/4-x,1/4+y,3/4+z
3/4+x,1/4-y,3/4+z
1/2+x,1/2+y,z
1/2-x,1/2-y,z
3/4-x,3/4+y,1/4+z
3/4+x,3/4-y,1/4+z
loop_
_atom_site_type_symbol
_atom_site_label
_atom_site_fract_x
_atom_site_fract_y
_atom_site_fract_z
Si Si1 0.221946 0.812154 0.680160
Si Si2 0.714831 0.580784 0.297127
Si Si3 0.158744 0.871296 0.174232
Si Si4 0.509474 0.721886 0.374734
Si Si5 0.015658 0.933951 0.576125
Si Si6 0.397085 0.157557 0.019205
O O1 0.250000 0.750000 0.718503
O O2 0.244818 0.861720 0.795443
O O3 0.247967 0.830731 0.506912
O O4 0.149245 0.814194 0.644499
O O5 0.643265 0.599434 0.304843
O O6 0.733382 0.544721 0.452827
O O7 0.730648 0.538621 0.153287
O O8 0.176536 0.937625 0.155442
O O9 0.226095 0.842629 0.181753
O O10 0.133305 0.851563 0.346236
O O11 0.457329 0.696725 0.494775
O O12 0.082986 0.906968 0.563170
O O13 0.000000 0.000000 0.565394
#
# Coordination Sequence:
#
# PCOD9371837 Si02
#       6
#    16  16  16  16  16  16
#     4  10  23  42  63  99 136 175 230 278 337 402
#     4  11  25  43  67  98 136 175 226 282 339 403
#     4   9  21  41  59  96 135 171 219 276 336 408
#     4  10  24  43  66 100 129 181 227 272 352 397
#     4   9  19  36  66  98 125 178 226 272 344 397
#     4   9  20  39  68  94 136 172 221 282 334 412
#
# _framework density 22.477727999999999
#
# number of rings (size 3 to 8) (size 9 to 14) (size 15 to 20)
#    0.000    2.333    0.000    0.000    9.333    6.667 
#    3.000    1.667    0.000    0.000    0.000    0.000 
#    0.000    0.000    0.000    0.000    0.000    0.000 
#
# Total GULP energy -133860.393278 kJ/mol
# GULP energy per Si atom -5577.516387 kJ/mol
# Density = 2.242657 g / cm^3
# Si number density = 22.477728 Si / 1000 Ang^3
#
#
#
# Elastic Constant Matrix: (Units=GPa)
#
#
# Indices 1 2 3 4 5 6 
#
# 1 92.1917 45.9459 10.2720 -0.0003 0.0000 0.0001
# 2 45.9459 121.2721 24.1731 0.0000 -0.0004 -0.0006
# 3 10.2720 24.1731 43.5926 -0.0008 0.0005 0.0001
# 4 -0.0003 0.0000 -0.0008 30.9012 0.0003 0.0002
# 5 0.0000 -0.0004 0.0005 0.0003 -7.1176 0.0008
# 6 0.0001 -0.0006 0.0001 0.0002 0.0008 12.6921
#
#
#
# Elastic Compliance Matrix: (Units=1/GPa)
#
#
# Indices 1 2 3 4 5 6 
#
# 1 0.013377 -0.004992 -0.000384 0.000000 0.000000 0.000000
# 2 -0.004992 0.011133 -0.004997 0.000000 -0.000001 0.000001
# 3 -0.000384 -0.004997 0.025801 0.000001 0.000002 0.000000
# 4 0.000000 0.000000 0.000001 0.032361 0.000002 -0.000001
# 5 0.000000 -0.000001 0.000002 0.000002 -0.140497 0.000009
# 6 0.000000 0.000001 0.000000 -0.000001 0.000009 0.078789
#
#
# Mechanical properties :
#
#
# Convention : Reuss Voigt Hill
#
# Bulk Modulus (GPa) = 33.82319 46.42646 40.12482
# Shear Modulus (GPa) = 96.96098 19.07284 58.01691
#
# Velocity S-wave (km/s) = 6.57496 2.91610 5.08595
# Velocity P-wave (km/s) = 8.52762 5.66016 7.23732
#
# Compressibility (1/GPa) = 0.02956551
#
# Stress axis : x y z
#
# Youngs Moduli (GPa) = 74.75243 89.82120 38.75758
#
# Poissons Ratio (x) = 0.44836 0.01489
# Poissons Ratio (y) = 0.37314 0.19369
# Poissons Ratio (z) = 0.02872 0.44887
#
# Static dielectric constant tensor:
#      x y z
#    x 1.971590 0.000000 0.000000 
#    y 0.000000 1.872470 0.000000 
#    z 0.000000 0.000000 1.866090 
# 
# From -- ./inp_files/3732.got.cif
#   From: 2010.05.17/outbox.cif.g08.bks.cpg/sg43_2_cif.got.tgz:3732.got - 2010.06.03 19:21:55.
