data_PCOD9371071
_publ_section_title
;
Structure prediction by ZEFSAII (Michael W. Deem and Ramdas Pophale) SiO2 
 PCOD9371071
Probable space group: F D D 2
;
_chemical_formula_sum "Si O2"
_cell_formula_units_Z 96
_cell_length_a 29.268456
_cell_length_b 9.188898
_cell_length_c 15.005166
_cell_angle_alpha 90.000000
_cell_angle_beta 90.000000
_cell_angle_gamma 90.000000
_cell_volume 4035.562221
_symmetry_space_group_name_H-M "F D D 2"
_symmetry_group_IT_number 43
_symmetry_cell_setting 'orthorhombic'
loop_
_space_group_symop_operation_xyz
x,y,z
-x,-y,z
1/4-x,1/4+y,1/4+z
1/4+x,1/4-y,1/4+z
x,1/2+y,1/2+z
-x,1/2-y,1/2+z
1/4-x,3/4+y,3/4+z
1/4+x,3/4-y,3/4+z
1/2+x,y,1/2+z
1/2-x,-y,1/2+z
3/4-x,1/4+y,3/4+z
3/4+x,1/4-y,3/4+z
1/2+x,1/2+y,z
1/2-x,1/2-y,z
3/4-x,3/4+y,1/4+z
3/4+x,3/4-y,1/4+z
loop_
_atom_site_type_symbol
_atom_site_label
_atom_site_fract_x
_atom_site_fract_y
_atom_site_fract_z
Si Si1 0.052846 0.019696 0.279370
Si Si2 0.455196 0.925108 0.071842
Si Si3 0.392039 0.720823 0.351499
Si Si4 0.701081 0.786906 0.036413
Si Si5 0.887647 0.692286 0.259309
Si Si6 0.296033 0.834952 0.829923
O O1 0.089104 0.944234 0.346924
O O2 0.051751 0.934410 0.185868
O O3 0.073480 0.179711 0.250706
O O4 0.000000 0.000000 0.311974
O O5 0.458741 0.753885 0.058257
O O6 0.500000 0.000000 0.032865
O O7 0.404635 0.974914 0.044173
O O8 0.454880 0.962591 0.178383
O O9 0.433988 0.806240 0.310273
O O10 0.379257 0.821894 0.436136
O O11 0.750000 0.750000 0.074013
O O12 0.664525 0.670459 0.072855
O O13 0.841788 0.767294 0.290416
O O14 0.250000 0.750000 0.803751
#
# Coordination Sequence:
#
# PCOD9371071 Si02
#       6
#    16  16  16  16  16  16
#     4  11  23  42  70  98 130 181 232 276 336 422
#     4  10  22  39  64  93 123 170 222 269 332 404
#     4  11  22  40  68  94 130 171 219 284 341 396
#     4  10  21  38  64  91 124 164 219 270 325 402
#     4  11  24  40  62  99 133 169 219 279 344 395
#     4  11  24  41  66  93 134 175 227 274 336 417
#
# _framework density 23.788508
#
# number of rings (size 3 to 8) (size 9 to 14) (size 15 to 20)
#    0.000    1.333    3.333    2.000   14.000    0.667 
#    0.000    1.667    7.333    0.000    0.000    0.000 
#    0.000    0.000    0.000    0.000    0.000    0.000 
#
# Total GULP energy -133759.391538 kJ/mol
# GULP energy per Si atom -5573.307981 kJ/mol
# Density = 2.373436 g / cm^3
# Si number density = 23.788508 Si / 1000 Ang^3
#
#
#
# Elastic Constant Matrix: (Units=GPa)
#
#
# Indices 1 2 3 4 5 6 
#
# 1 152.8337 29.7167 26.8816 0.0000 0.0000 0.0000
# 2 29.7167 111.3526 14.1343 0.0000 0.0000 0.0000
# 3 26.8816 14.1343 52.9914 0.0000 0.0000 0.0000
# 4 0.0000 0.0000 0.0000 4.8192 0.0000 0.0000
# 5 0.0000 0.0000 0.0000 0.0000 61.4131 0.0000
# 6 0.0000 0.0000 0.0000 0.0000 0.0000 56.4001
#
#
#
# Elastic Compliance Matrix: (Units=1/GPa)
#
#
# Indices 1 2 3 4 5 6 
#
# 1 0.007436 -0.001559 -0.003357 0.000000 0.000000 0.000000
# 2 -0.001559 0.009622 -0.001776 0.000000 0.000000 0.000000
# 3 -0.003357 -0.001776 0.021047 0.000000 0.000000 0.000000
# 4 0.000000 0.000000 0.000000 0.207502 0.000000 0.000000
# 5 0.000000 0.000000 0.000000 0.000000 0.016283 0.000000
# 6 0.000000 0.000000 0.000000 0.000000 0.000000 0.017730
#
#
# Mechanical properties :
#
#
# Convention : Reuss Voigt Hill
#
# Bulk Modulus (GPa) = 40.44702 50.96033 45.70368
# Shear Modulus (GPa) = 16.59781 40.95614 28.77698
#
# Velocity S-wave (km/s) = 2.64431 4.15381 3.48185
# Velocity P-wave (km/s) = 5.13448 6.66890 5.95135
#
# Compressibility (1/GPa) = 0.02472370
#
# Stress axis : x y z
#
# Youngs Moduli (GPa) = 134.47192 103.93056 47.51174
#
# Poissons Ratio (x) = 0.16198 0.15948
# Poissons Ratio (y) = 0.20957 0.08437
# Poissons Ratio (z) = 0.45138 0.18456
#
# Static dielectric constant tensor:
#      x y z
#    x 1.905620 0.000000 0.000000 
#    y 0.000000 1.818610 0.000000 
#    z 0.000000 0.000000 1.980860 
# 
# From -- ./inp_files/18816.got.cif
#   From: 2010.05.17/outbox.cif.g08.bks.cpg/sg43_10_cif.got.tgz:18816.got - 2010.06.03 19:21:55.
