data_PCOD9371114
_publ_section_title
;
Structure prediction by ZEFSAII (Michael W. Deem and Ramdas Pophale) SiO2 
 PCOD9371114
Probable space group: F D D 2
;
_chemical_formula_sum "Si O2"
_cell_formula_units_Z 120
_cell_length_a 11.219594
_cell_length_b 22.802772
_cell_length_c 21.832507
_cell_angle_alpha 90.000000
_cell_angle_beta 90.000000
_cell_angle_gamma 90.000000
_cell_volume 5585.581518
_symmetry_space_group_name_H-M "F D D 2"
_symmetry_group_IT_number 43
_symmetry_cell_setting 'orthorhombic'
loop_
_space_group_symop_operation_xyz
x,y,z
-x,-y,z
1/4-x,1/4+y,1/4+z
1/4+x,1/4-y,1/4+z
x,1/2+y,1/2+z
-x,1/2-y,1/2+z
1/4-x,3/4+y,3/4+z
1/4+x,3/4-y,3/4+z
1/2+x,y,1/2+z
1/2-x,-y,1/2+z
3/4-x,1/4+y,3/4+z
3/4+x,1/4-y,3/4+z
1/2+x,1/2+y,z
1/2-x,1/2-y,z
3/4-x,3/4+y,1/4+z
3/4+x,3/4-y,1/4+z
loop_
_atom_site_type_symbol
_atom_site_label
_atom_site_fract_x
_atom_site_fract_y
_atom_site_fract_z
Si Si1 0.264487 0.117315 0.226000
Si Si2 0.808784 0.425914 0.080270
Si Si3 0.447468 0.310491 0.540358
Si Si4 0.364259 0.488491 0.701798
Si Si5 0.220402 0.936144 0.956960
Si Si6 0.500000 0.000000 0.703739
Si Si7 0.110759 0.534956 0.389726
Si Si8 0.968800 0.100906 0.108425
O O1 0.125397 0.135577 0.223877
O O2 0.324483 0.153431 0.170044
O O3 0.292300 0.139047 0.295560
O O4 0.295750 0.049353 0.216714
O O5 0.881183 0.365676 0.070714
O O6 0.858255 0.469158 0.131283
O O7 0.669046 0.416059 0.096676
O O8 0.809135 0.449700 0.011302
O O9 0.551805 0.314937 0.488832
O O10 0.349566 0.274363 0.501083
O O11 0.526104 0.284926 0.595633
O O12 0.500000 0.500000 0.718781
O O13 0.281014 0.911436 0.896233
O O14 0.143296 0.993243 0.946005
O O15 0.478286 0.948215 0.653936
O O16 0.000000 0.500000 0.359712
#
# Coordination Sequence:
#
# PCOD9371114 Si02
#       8
#    16  16  16  16  16   8  16  16
#     4  10  24  42  69 102 139 189 248 310 367 443
#     4  11  24  42  66 100 144 176 244 302 372 448
#     4  12  25  44  67 101 144 187 245 300 369 451
#     4  12  25  46  72  99 141 203 243 301 381 452
#     4  10  21  39  66 103 136 180 236 307 366 441
#     4  12  24  42  74 106 142 198 246 306 378 438
#     4  10  23  43  68 101 141 189 243 306 372 438
#     4  11  23  40  70 105 141 184 247 307 376 443
#
# _framework density 21.483886999999999
#
# number of rings (size 3 to 8) (size 9 to 14) (size 15 to 20)
#    0.000    1.067    2.667    2.800    8.400    1.067 
#    0.000    6.667    0.000    0.000    0.000    0.000 
#    0.000    0.000    0.000    0.000    0.000    0.000 
#
# Total GULP energy -167121.257878 kJ/mol
# GULP energy per Si atom -5570.708596 kJ/mol
# Density = 2.143499 g / cm^3
# Si number density = 21.483887 Si / 1000 Ang^3
#
#
#
# Elastic Constant Matrix: (Units=GPa)
#
#
# Indices 1 2 3 4 5 6 
#
# 1 49.0090 9.5868 27.7007 0.0000 0.0000 0.0000
# 2 9.5868 85.6350 48.7693 0.0000 0.0000 0.0000
# 3 27.7007 48.7693 137.3702 0.0000 0.0000 0.0000
# 4 0.0000 0.0000 0.0000 35.4348 0.0000 0.0000
# 5 0.0000 0.0000 0.0000 0.0000 34.2608 0.0000
# 6 0.0000 0.0000 0.0000 0.0000 0.0000 15.5490
#
#
#
# Elastic Compliance Matrix: (Units=1/GPa)
#
#
# Indices 1 2 3 4 5 6 
#
# 1 0.023030 0.000083 -0.004674 0.000000 0.000000 0.000000
# 2 0.000083 0.014637 -0.005213 0.000000 0.000000 0.000000
# 3 -0.004674 -0.005213 0.010073 0.000000 0.000000 0.000000
# 4 0.000000 0.000000 0.000000 0.028221 0.000000 0.000000
# 5 0.000000 0.000000 0.000000 0.000000 0.029188 0.000000
# 6 0.000000 0.000000 0.000000 0.000000 0.000000 0.064313
#
#
# Mechanical properties :
#
#
# Convention : Reuss Voigt Hill
#
# Bulk Modulus (GPa) = 35.54575 49.34754 42.44665
# Shear Modulus (GPa) = 25.19582 29.44608 27.32095
#
# Velocity S-wave (km/s) = 3.42830 3.70619 3.56995
# Velocity P-wave (km/s) = 5.67910 6.42915 6.06573
#
# Compressibility (1/GPa) = 0.02813276
#
# Stress axis : x y z
#
# Youngs Moduli (GPa) = 43.42231 68.31953 99.27682
#
# Poissons Ratio (x) = -0.00570 0.46397
# Poissons Ratio (y) = -0.00362 0.51756
# Poissons Ratio (z) = 0.20294 0.35617
#
# Static dielectric constant tensor:
#      x y z
#    x 1.838600 0.000000 0.000000 
#    y 0.000000 1.804460 0.000000 
#    z 0.000000 0.000000 1.835500 
# 
# From -- ./inp_files/17260.got.cif
#   From: 2010.05.17/outbox.cif.g08.bks.cpg/sg43_9_cif.got.tgz:17260.got - 2010.06.03 19:21:55.
