data_PCOD9371407
_publ_section_title
;
Structure prediction by ZEFSAII (Michael W. Deem and Ramdas Pophale) SiO2 
 PCOD9371407
Probable space group: F D D 2
;
_chemical_formula_sum "Si O2"
_cell_formula_units_Z 120
_cell_length_a 27.061166
_cell_length_b 7.821789
_cell_length_c 26.318791
_cell_angle_alpha 90.000000
_cell_angle_beta 90.000000
_cell_angle_gamma 90.000000
_cell_volume 5570.812443
_symmetry_space_group_name_H-M "F D D 2"
_symmetry_group_IT_number 43
_symmetry_cell_setting 'orthorhombic'
loop_
_space_group_symop_operation_xyz
x,y,z
-x,-y,z
1/4-x,1/4+y,1/4+z
1/4+x,1/4-y,1/4+z
x,1/2+y,1/2+z
-x,1/2-y,1/2+z
1/4-x,3/4+y,3/4+z
1/4+x,3/4-y,3/4+z
1/2+x,y,1/2+z
1/2-x,-y,1/2+z
3/4-x,1/4+y,3/4+z
3/4+x,1/4-y,3/4+z
1/2+x,1/2+y,z
1/2-x,1/2-y,z
3/4-x,3/4+y,1/4+z
3/4+x,3/4-y,1/4+z
loop_
_atom_site_type_symbol
_atom_site_label
_atom_site_fract_x
_atom_site_fract_y
_atom_site_fract_z
Si Si1 0.140715 0.576492 0.370950
Si Si2 0.828755 0.519998 0.631586
Si Si3 0.469260 0.673929 0.536829
Si Si4 0.601896 0.406701 0.319323
Si Si5 0.864664 0.582115 0.230398
Si Si6 0.064510 0.302790 0.495050
Si Si7 0.500000 0.500000 0.265847
Si Si8 0.035446 0.841288 0.780616
O O1 0.116393 0.390522 0.378757
O O2 0.191989 0.556449 0.340790
O O3 0.109637 0.715418 0.338690
O O4 0.140333 0.667181 0.425806
O O5 0.853187 0.697093 0.613018
O O6 0.809127 0.528769 0.688905
O O7 0.787249 0.475797 0.589010
O O8 0.500000 0.500000 0.534773
O O9 0.425070 0.689292 0.495583
O O10 0.512590 0.805216 0.523736
O O11 0.644287 0.455915 0.278785
O O12 0.548133 0.427915 0.294697
O O13 0.834344 0.757310 0.236088
O O14 0.909336 0.597251 0.269485
O O15 0.522031 0.678923 0.244507
O O16 0.000000 0.000000 0.774073
#
# Coordination Sequence:
#
# PCOD9371407 Si02
#       8
#    16  16  16  16  16  16   8  16
#     4  11  24  44  71  98 143 190 230 291 370 432
#     4  10  23  43  68  99 135 180 233 291 361 419
#     4  12  25  43  71 107 143 187 245 300 362 438
#     4  11  22  43  66 102 143 179 233 306 349 431
#     4  11  25  46  69 102 145 192 238 298 370 441
#     4  11  23  45  71  97 142 186 242 300 361 434
#     4  10  22  38  70  94 128 178 234 278 358 412
#     4  11  22  43  68  97 138 179 229 297 355 426
#
# _framework density 21.540842999999999
#
# number of rings (size 3 to 8) (size 9 to 14) (size 15 to 20)
#    0.000    1.067    5.333    1.200    1.867    4.800 
#    1.200    0.000    2.933    0.000    0.000    0.000 
#    0.000    0.000    0.000    0.000    0.000    0.000 
#
# Total GULP energy -167411.509502 kJ/mol
# GULP energy per Si atom -5580.383650 kJ/mol
# Density = 2.149181 g / cm^3
# Si number density = 21.540843 Si / 1000 Ang^3
#
#
#
# Elastic Constant Matrix: (Units=GPa)
#
#
# Indices 1 2 3 4 5 6 
#
# 1 137.7179 30.7606 41.6058 -0.0001 0.0000 0.0002
# 2 30.7606 109.4767 6.8421 -0.0003 0.0001 0.0003
# 3 41.6058 6.8421 88.1404 0.0000 0.0000 0.0000
# 4 -0.0001 -0.0003 0.0000 9.7196 0.0000 0.0000
# 5 0.0000 0.0001 0.0000 0.0000 22.7435 0.0000
# 6 0.0002 0.0003 0.0000 0.0000 0.0000 41.5672
#
#
#
# Elastic Compliance Matrix: (Units=1/GPa)
#
#
# Indices 1 2 3 4 5 6 
#
# 1 0.008999 -0.002274 -0.004071 0.000000 0.000000 0.000000
# 2 -0.002274 0.009754 0.000316 0.000000 0.000000 0.000000
# 3 -0.004071 0.000316 0.013243 0.000000 0.000000 0.000000
# 4 0.000000 0.000000 0.000000 0.102884 0.000000 0.000000
# 5 0.000000 0.000000 0.000000 0.000000 0.043969 0.000000
# 6 0.000000 0.000000 0.000000 0.000000 0.000000 0.024057
#
#
# Mechanical properties :
#
#
# Convention : Reuss Voigt Hill
#
# Bulk Modulus (GPa) = 50.15760 54.86134 52.50947
# Shear Modulus (GPa) = 22.56213 31.88117 27.22165
#
# Velocity S-wave (km/s) = 3.23989 3.85129 3.55874
# Velocity P-wave (km/s) = 6.10993 6.73056 6.42774
#
# Compressibility (1/GPa) = 0.01993716
#
# Stress axis : x y z
#
# Youngs Moduli (GPa) = 111.12126 102.52652 75.51242
#
# Poissons Ratio (x) = 0.23316 0.30744
# Poissons Ratio (y) = 0.25270 -0.02389
# Poissons Ratio (z) = 0.45242 -0.03243
#
# Static dielectric constant tensor:
#      x y z
#    x 1.749300 0.000000 0.000000 
#    y 0.000000 2.079740 0.000000 
#    z 0.000000 0.000000 1.828650 
# 
# From -- ./inp_files/26594.got.cif
#   From: 2010.05.17/outbox.cif.g08.bks.cpg/sg43_14_cif.got.tgz:26594.got - 2010.06.03 19:21:55.
