data_PCOD9371005
_publ_section_title
;
Structure prediction by ZEFSAII (Michael W. Deem and Ramdas Pophale) SiO2 
 PCOD9371005
Probable space group: F D D 2
;
_chemical_formula_sum "Si O2"
_cell_formula_units_Z 112
_cell_length_a 31.563906
_cell_length_b 5.449432
_cell_length_c 25.561814
_cell_angle_alpha 90.000000
_cell_angle_beta 90.000000
_cell_angle_gamma 90.000000
_cell_volume 4396.769004
_symmetry_space_group_name_H-M "F D D 2"
_symmetry_group_IT_number 43
_symmetry_cell_setting 'orthorhombic'
loop_
_space_group_symop_operation_xyz
x,y,z
-x,-y,z
1/4-x,1/4+y,1/4+z
1/4+x,1/4-y,1/4+z
x,1/2+y,1/2+z
-x,1/2-y,1/2+z
1/4-x,3/4+y,3/4+z
1/4+x,3/4-y,3/4+z
1/2+x,y,1/2+z
1/2-x,-y,1/2+z
3/4-x,1/4+y,3/4+z
3/4+x,1/4-y,3/4+z
1/2+x,1/2+y,z
1/2-x,1/2-y,z
3/4-x,3/4+y,1/4+z
3/4+x,3/4-y,1/4+z
loop_
_atom_site_type_symbol
_atom_site_label
_atom_site_fract_x
_atom_site_fract_y
_atom_site_fract_z
Si Si1 0.274285 0.502941 0.142530
Si Si2 0.304797 0.117225 0.526437
Si Si3 0.136234 0.417120 0.675400
Si Si4 0.700260 0.988060 0.416379
Si Si5 0.844073 0.145145 0.356012
Si Si6 0.489493 0.238518 0.561817
Si Si7 0.606819 0.126437 0.272197
O O1 0.250000 0.750000 0.161013
O O2 0.282533 0.550267 0.080471
O O3 0.318850 0.457053 0.172394
O O4 0.250000 0.250000 0.147050
O O5 0.340408 0.900911 0.519481
O O6 0.279089 0.056888 0.472579
O O7 0.321937 0.399958 0.527249
O O8 0.092264 0.569276 0.669865
O O9 0.134357 0.253941 0.623347
O O10 0.133492 0.232462 0.723804
O O11 0.681129 0.258167 0.406601
O O12 0.731455 0.970647 0.365736
O O13 0.809872 0.991344 0.324769
O O14 0.861570 0.364251 0.321552
O O15 0.500000 0.500000 0.538448
O O16 0.500000 0.000000 0.529418
#
# Coordination Sequence:
#
# PCOD9371005 Si02
#       7
#    16  16  16  16  16  16  16
#     4  12  28  45  67  98 141 188 232 285 337 400
#     4  11  23  42  66 100 132 172 223 282 335 402
#     4  11  23  44  69  94 133 182 228 278 329 414
#     4  10  22  39  69  99 135 169 217 277 348 398
#     4  11  21  40  67  93 136 171 211 276 333 414
#     4  10  21  35  57  97 126 160 199 256 333 385
#     4  11  24  40  71 102 125 177 230 268 337 401
#
# _framework density 25.473251999999999
#
# number of rings (size 3 to 8) (size 9 to 14) (size 15 to 20)
#    0.000    1.143    4.286    1.714    2.000    2.286 
#    0.000    2.857    0.000    0.000    0.000    0.000 
#    0.000    0.000    0.000    0.000    0.000    0.000 
#
# Total GULP energy -156337.406985 kJ/mol
# GULP energy per Si atom -5583.478821 kJ/mol
# Density = 2.541527 g / cm^3
# Si number density = 25.473252 Si / 1000 Ang^3
#
#
#
# Elastic Constant Matrix: (Units=GPa)
#
#
# Indices 1 2 3 4 5 6 
#
# 1 89.7844 30.1364 20.7980 0.0234 -0.0101 -0.0008
# 2 30.1364 129.5453 13.3232 0.0561 -0.0095 0.0080
# 3 20.7980 13.3232 70.9334 0.0015 0.0046 0.0011
# 4 0.0234 0.0561 0.0015 7.2481 0.0032 0.0001
# 5 -0.0101 -0.0095 0.0046 0.0032 6.8412 0.0013
# 6 -0.0008 0.0080 0.0011 0.0001 0.0013 60.8922
#
#
#
# Elastic Compliance Matrix: (Units=1/GPa)
#
#
# Indices 1 2 3 4 5 6 
#
# 1 0.012776 -0.002638 -0.003251 -0.000020 0.000017 0.000001
# 2 -0.002638 0.008416 -0.000807 -0.000056 0.000008 -0.000001
# 3 -0.003251 -0.000807 0.015202 0.000014 -0.000016 0.000000
# 4 -0.000020 -0.000056 0.000014 0.137967 -0.000066 0.000000
# 5 0.000017 0.000008 -0.000016 -0.000066 0.146173 -0.000003
# 6 0.000001 -0.000001 0.000000 0.000000 -0.000003 0.016422
#
#
# Mechanical properties :
#
#
# Convention : Reuss Voigt Hill
#
# Bulk Modulus (GPa) = 43.47229 46.53091 45.00160
# Shear Modulus (GPa) = 13.96584 30.06334 22.01459
#
# Velocity S-wave (km/s) = 2.34403 3.43912 2.94296
# Velocity P-wave (km/s) = 4.94255 5.83749 5.40856
#
# Compressibility (1/GPa) = 0.02300316
#
# Stress axis : x y z
#
# Youngs Moduli (GPa) = 78.27067 118.82120 65.77883
#
# Poissons Ratio (x) = 0.31343 0.21382
# Poissons Ratio (y) = 0.20646 0.05310
# Poissons Ratio (z) = 0.25443 0.09593
#
# Static dielectric constant tensor:
#      x y z
#    x 2.070400 -0.000020 0.000000 
#    y -0.000020 2.032430 -0.000010 
#    z 0.000000 -0.000010 2.087050 
# 
# From -- ./inp_files/27437.got.cif
#   From: 2010.05.17/outbox.cif.g08.bks.cpg/sg43_14_cif.got.tgz:27437.got - 2010.06.03 19:21:55.
