data_PCOD9371580
_publ_section_title
;
Structure prediction by ZEFSAII (Michael W. Deem and Ramdas Pophale) SiO2 
 PCOD9371580
Probable space group: F D D 2
;
_chemical_formula_sum "Si O2"
_cell_formula_units_Z 112
_cell_length_a 24.233751
_cell_length_b 12.821652
_cell_length_c 15.765154
_cell_angle_alpha 90.000000
_cell_angle_beta 90.000000
_cell_angle_gamma 90.000000
_cell_volume 4898.496972
_symmetry_space_group_name_H-M "F D D 2"
_symmetry_group_IT_number 43
_symmetry_cell_setting 'orthorhombic'
loop_
_space_group_symop_operation_xyz
x,y,z
-x,-y,z
1/4-x,1/4+y,1/4+z
1/4+x,1/4-y,1/4+z
x,1/2+y,1/2+z
-x,1/2-y,1/2+z
1/4-x,3/4+y,3/4+z
1/4+x,3/4-y,3/4+z
1/2+x,y,1/2+z
1/2-x,-y,1/2+z
3/4-x,1/4+y,3/4+z
3/4+x,1/4-y,3/4+z
1/2+x,1/2+y,z
1/2-x,1/2-y,z
3/4-x,3/4+y,1/4+z
3/4+x,3/4-y,1/4+z
loop_
_atom_site_type_symbol
_atom_site_label
_atom_site_fract_x
_atom_site_fract_y
_atom_site_fract_z
Si Si1 0.234742 0.873768 0.122600
Si Si2 0.207406 0.494814 0.795074
Si Si3 0.801331 0.638985 0.263965
Si Si4 0.613931 0.280813 0.580419
Si Si5 0.968588 0.832318 0.832024
Si Si6 0.760381 0.868652 0.915000
Si Si7 0.625382 0.669076 0.262338
O O1 0.250000 0.750000 0.119336
O O2 0.181140 0.903313 0.064695
O O3 0.223225 0.916268 0.218346
O O4 0.281515 0.957185 0.091836
O O5 0.254105 0.583046 0.817784
O O6 0.206850 0.430113 0.880948
O O7 0.154488 0.557768 0.767250
O O8 0.849101 0.551243 0.257295
O O9 0.771308 0.637200 0.172911
O O10 0.830953 0.742591 0.295736
O O11 0.663210 0.356945 0.556921
O O12 0.561459 0.348713 0.607423
O O13 0.621186 0.209529 0.665190
O O14 0.015912 0.858084 0.764286
O O15 0.750000 0.750000 0.903754
#
# Coordination Sequence:
#
# PCOD9371580 Si02
#       7
#    16  16  16  16  16  16  16
#     4  11  24  46  66  96 139 181 234 287 350 422
#     4  10  23  44  63  97 132 181 223 283 352 412
#     4   9  21  41  69 101 131 174 227 291 344 410
#     4  10  22  42  69 101 136 175 228 287 348 413
#     4  10  23  41  68  97 133 177 227 281 349 407
#     4  11  24  43  66  99 137 172 231 285 342 416
#     4  11  21  41  68 101 132 177 234 279 350 415
#
# _framework density 22.864156999999999
#
# number of rings (size 3 to 8) (size 9 to 14) (size 15 to 20)
#    0.000    1.714    1.429    1.714    4.000    5.714 
#   12.857    0.000    0.000    0.000    0.000    0.000 
#    0.000    0.000    0.000    0.000    0.000    0.000 
#
# Total GULP energy -156074.296846 kJ/mol
# GULP energy per Si atom -5574.082030 kJ/mol
# Density = 2.281212 g / cm^3
# Si number density = 22.864157 Si / 1000 Ang^3
#
#
#
# Elastic Constant Matrix: (Units=GPa)
#
#
# Indices 1 2 3 4 5 6 
#
# 1 62.9267 62.9133 29.3514 0.0000 0.0000 0.0000
# 2 62.9133 182.7172 30.3848 0.0000 0.0000 0.0000
# 3 29.3514 30.3848 60.3453 0.0000 0.0000 0.0000
# 4 0.0000 0.0000 0.0000 24.0965 0.0000 0.0000
# 5 0.0000 0.0000 0.0000 0.0000 28.0663 0.0000
# 6 0.0000 0.0000 0.0000 0.0000 0.0000 30.0398
#
#
#
# Elastic Compliance Matrix: (Units=1/GPa)
#
#
# Indices 1 2 3 4 5 6 
#
# 1 0.028726 -0.008259 -0.009814 0.000000 0.000000 0.000000
# 2 -0.008259 0.008348 -0.000186 0.000000 0.000000 0.000000
# 3 -0.009814 -0.000186 0.021438 0.000000 0.000000 0.000000
# 4 0.000000 0.000000 0.000000 0.041500 0.000000 0.000000
# 5 0.000000 0.000000 0.000000 0.000000 0.035630 0.000000
# 6 0.000000 0.000000 0.000000 0.000000 0.000000 0.033289
#
#
# Mechanical properties :
#
#
# Convention : Reuss Voigt Hill
#
# Bulk Modulus (GPa) = 45.46556 61.25425 53.35991
# Shear Modulus (GPa) = 23.49844 28.66317 26.08080
#
# Velocity S-wave (km/s) = 3.20932 3.54450 3.38107
# Velocity P-wave (km/s) = 5.80183 6.60303 6.21535
#
# Compressibility (1/GPa) = 0.02199467
#
# Stress axis : x y z
#
# Youngs Moduli (GPa) = 34.81133 119.79425 46.64564
#
# Poissons Ratio (x) = 0.98939 0.45776
# Poissons Ratio (y) = 0.28751 0.00868
# Poissons Ratio (z) = 0.34163 0.02228
#
# Static dielectric constant tensor:
#      x y z
#    x 1.917650 0.000000 0.000000 
#    y 0.000000 1.867560 0.000000 
#    z 0.000000 0.000000 1.939370 
# 
# From -- ./inp_files/11679.got.cif
#   From: 2010.05.17/outbox.cif.g08.bks.cpg/sg43_6_cif.got.tgz:11679.got - 2010.06.03 19:21:55.
