data_PCOD9371110
_publ_section_title
;
Structure prediction by ZEFSAII (Michael W. Deem and Ramdas Pophale) SiO2 
 PCOD9371110
Probable space group: F D D 2
;
_chemical_formula_sum "Si O2"
_cell_formula_units_Z 72
_cell_length_a 27.165874
_cell_length_b 19.306934
_cell_length_c 6.389442
_cell_angle_alpha 90.000000
_cell_angle_beta 90.000000
_cell_angle_gamma 90.000000
_cell_volume 3351.196750
_symmetry_space_group_name_H-M "F D D 2"
_symmetry_group_IT_number 43
_symmetry_cell_setting 'orthorhombic'
loop_
_space_group_symop_operation_xyz
x,y,z
-x,-y,z
1/4-x,1/4+y,1/4+z
1/4+x,1/4-y,1/4+z
x,1/2+y,1/2+z
-x,1/2-y,1/2+z
1/4-x,3/4+y,3/4+z
1/4+x,3/4-y,3/4+z
1/2+x,y,1/2+z
1/2-x,-y,1/2+z
3/4-x,1/4+y,3/4+z
3/4+x,1/4-y,3/4+z
1/2+x,1/2+y,z
1/2-x,1/2-y,z
3/4-x,3/4+y,1/4+z
3/4+x,3/4-y,1/4+z
loop_
_atom_site_type_symbol
_atom_site_label
_atom_site_fract_x
_atom_site_fract_y
_atom_site_fract_z
Si Si1 0.594462 0.652435 0.431200
Si Si2 0.650529 0.750008 0.714299
Si Si3 0.563886 0.749705 0.053847
Si Si4 0.750000 0.750000 0.978201
Si Si5 0.255164 0.598734 0.515625
O O1 0.638932 0.686667 0.561227
O O2 0.602319 0.574583 0.351490
O O3 0.582106 0.702775 0.243150
O O4 0.549027 0.650216 0.594687
O O5 0.702242 0.743821 0.830953
O O6 0.607849 0.755843 0.889178
O O7 0.543045 0.821035 0.146950
O O8 0.519963 0.707571 0.939183
O O9 0.748207 0.822886 0.100146
#
# Coordination Sequence:
#
# PCOD9371110 Si02
#       5
#    16  16  16   8  16
#     4  10  22  40  62  94 122 165 205 255 310 371
#     4  10  23  40  62  92 128 160 208 256 309 371
#     4  11  21  41  66  90 123 167 210 251 313 378
#     4  10  22  42  60  92 132 158 206 264 302 364
#     4  10  21  39  65  92 125 165 206 256 308 372
#
# _framework density 21.484860999999999
#
# number of rings (size 3 to 8) (size 9 to 14) (size 15 to 20)
#    0.000    1.778    2.222    1.333    0.000    7.111 
#    0.000    5.556    0.000    0.000    0.000    0.000 
#    0.000    0.000    0.000    0.000    0.000    0.000 
#
# Total GULP energy -100586.913515 kJ/mol
# GULP energy per Si atom -5588.161862 kJ/mol
# Density = 2.143596 g / cm^3
# Si number density = 21.484861 Si / 1000 Ang^3
#
#
#
# Elastic Constant Matrix: (Units=GPa)
#
#
# Indices 1 2 3 4 5 6 
#
# 1 77.2779 12.0052 -4.6054 0.0000 0.0000 0.0000
# 2 12.0052 104.2160 -6.6322 0.0000 0.0000 -0.0001
# 3 -4.6054 -6.6322 24.2751 0.0002 -0.0002 -0.0002
# 4 0.0000 0.0000 0.0002 34.1204 0.0000 0.0000
# 5 0.0000 0.0000 -0.0002 0.0000 15.0497 0.0000
# 6 0.0000 -0.0001 -0.0002 0.0000 0.0000 19.7056
#
#
#
# Elastic Compliance Matrix: (Units=1/GPa)
#
#
# Indices 1 2 3 4 5 6 
#
# 1 0.013284 -0.001394 0.002139 0.000000 0.000000 0.000000
# 2 -0.001394 0.009912 0.002443 0.000000 0.000000 0.000000
# 3 0.002139 0.002443 0.042268 0.000000 0.000000 0.000000
# 4 0.000000 0.000000 0.000000 0.029308 0.000000 0.000000
# 5 0.000000 0.000000 0.000000 0.000000 0.066446 0.000000
# 6 0.000000 0.000000 0.000000 0.000000 0.000000 0.050747
#
#
# Mechanical properties :
#
#
# Convention : Reuss Voigt Hill
#
# Bulk Modulus (GPa) = 13.91962 23.03381 18.47671
# Shear Modulus (GPa) = 21.78318 27.44190 24.61254
#
# Velocity S-wave (km/s) = 3.18761 3.57776 3.38831
# Velocity P-wave (km/s) = 4.47668 5.27365 4.89143
#
# Compressibility (1/GPa) = 0.07184106
#
# Stress axis : x y z
#
# Youngs Moduli (GPa) = 75.27632 100.89235 23.65865
#
# Poissons Ratio (x) = 0.14066 -0.05061
# Poissons Ratio (y) = 0.10495 -0.05781
# Poissons Ratio (z) = -0.16104 -0.24652
#
# Static dielectric constant tensor:
#      x y z
#    x 1.780570 0.000000 0.000000 
#    y 0.000000 1.796800 0.000000 
#    z 0.000000 0.000000 1.718940 
# 
# From -- ./inp_files/719.got.cif
#   From: 2010.05.17/outbox.cif.g08.bks.cpg/sg43_1_cif.got.tgz:719.got - 2010.06.03 19:21:55.
