data_PCOD9371829
_publ_section_title
;
Structure prediction by ZEFSAII (Michael W. Deem and Ramdas Pophale) SiO2 
 PCOD9371829
Probable space group: F D D 2
;
_chemical_formula_sum "Si O2"
_cell_formula_units_Z 64
_cell_length_a 15.305498
_cell_length_b 29.954156
_cell_length_c 5.072680
_cell_angle_alpha 90.000000
_cell_angle_beta 90.000000
_cell_angle_gamma 90.000000
_cell_volume 2325.637485
_symmetry_space_group_name_H-M "F D D 2"
_symmetry_group_IT_number 43
_symmetry_cell_setting 'orthorhombic'
loop_
_space_group_symop_operation_xyz
x,y,z
-x,-y,z
1/4-x,1/4+y,1/4+z
1/4+x,1/4-y,1/4+z
x,1/2+y,1/2+z
-x,1/2-y,1/2+z
1/4-x,3/4+y,3/4+z
1/4+x,3/4-y,3/4+z
1/2+x,y,1/2+z
1/2-x,-y,1/2+z
3/4-x,1/4+y,3/4+z
3/4+x,1/4-y,3/4+z
1/2+x,1/2+y,z
1/2-x,1/2-y,z
3/4-x,3/4+y,1/4+z
3/4+x,3/4-y,1/4+z
loop_
_atom_site_type_symbol
_atom_site_label
_atom_site_fract_x
_atom_site_fract_y
_atom_site_fract_z
Si Si1 0.950787 0.883674 0.040070
Si Si2 0.879847 0.257766 0.108688
Si Si3 0.525287 0.567215 0.560412
Si Si4 0.453797 0.689284 0.744794
O O1 0.948314 0.894099 0.350133
O O2 0.857511 0.897860 0.907847
O O3 0.004712 0.917875 0.850685
O O4 0.988468 0.835302 0.976929
O O5 0.803325 0.292625 0.158093
O O6 0.854587 0.218842 0.319804
O O7 0.970370 0.284218 0.100339
O O8 0.886995 0.225765 0.858650
#
# Coordination Sequence:
#
# PCOD9371829 Si02
#       4
#    16  16  16  16
#     4  11  25  44  68  98 136 176 221 275 337 401
#     4  10  23  41  68  98 133 176 227 278 334 398
#     4  10  24  46  68  96 134 178 224 277 334 399
#     4  11  24  42  68 101 135 178 224 278 337 401
#
# _framework density 27.519335000000002
#
# number of rings (size 3 to 8) (size 9 to 14) (size 15 to 20)
#    0.000    1.500    0.000    3.000    0.000   22.000 
#    0.000    0.000    0.000    0.000    0.000    0.000 
#    0.000    0.000    0.000    0.000    0.000    0.000 
#
# Total GULP energy -89207.023551 kJ/mol
# GULP energy per Si atom -5575.438972 kJ/mol
# Density = 2.745670 g / cm^3
# Si number density = 27.519335 Si / 1000 Ang^3
#
#
#
# Elastic Constant Matrix: (Units=GPa)
#
#
# Indices 1 2 3 4 5 6 
#
# 1 67.8748 -2.6576 -18.8291 -0.0035 -0.0184 0.0009
# 2 -2.6576 68.5686 24.6139 -0.0005 -0.0003 0.0002
# 3 -18.8291 24.6139 138.3973 -0.0070 -0.0246 -0.0013
# 4 -0.0035 -0.0005 -0.0070 36.5256 0.0014 -0.0008
# 5 -0.0184 -0.0003 -0.0246 0.0014 21.4001 -0.0009
# 6 0.0009 0.0002 -0.0013 -0.0008 -0.0009 46.1152
#
#
#
# Elastic Compliance Matrix: (Units=1/GPa)
#
#
# Indices 1 2 3 4 5 6 
#
# 1 0.015313 -0.000165 0.002113 0.000002 0.000016 0.000000
# 2 -0.000165 0.015580 -0.002793 0.000000 -0.000003 0.000000
# 3 0.002113 -0.002793 0.008010 0.000002 0.000011 0.000000
# 4 0.000002 0.000000 0.000002 0.027378 -0.000002 0.000000
# 5 0.000016 -0.000003 0.000011 -0.000002 0.046729 0.000001
# 6 0.000000 0.000000 0.000000 0.000000 0.000001 0.021685
#
#
# Mechanical properties :
#
#
# Convention : Reuss Voigt Hill
#
# Bulk Modulus (GPa) = 26.87346 31.23279 29.05313
# Shear Modulus (GPa) = 33.60456 38.92242 36.26349
#
# Velocity S-wave (km/s) = 3.49825 3.76489 3.63401
# Velocity P-wave (km/s) = 5.10916 5.50211 5.30927
#
# Compressibility (1/GPa) = 0.03721144
#
# Stress axis : x y z
#
# Youngs Moduli (GPa) = 65.30558 64.18371 124.84700
#
# Poissons Ratio (x) = 0.01058 -0.26375
# Poissons Ratio (y) = 0.01077 0.34874
# Poissons Ratio (z) = -0.13797 0.17929
#
# Static dielectric constant tensor:
#      x y z
#    x 2.374840 0.000010 0.000000 
#    y 0.000010 2.208390 0.000010 
#    z 0.000000 0.000010 2.272110 
# 
# From -- ./inp_files/522.got.cif
#   From: 2010.05.17/outbox.cif.g08.bks.cpg/sg43_1_cif.got.tgz:522.got - 2010.06.03 19:21:55.
