data_PCOD9371018
_publ_section_title
;
Structure prediction by ZEFSAII (Michael W. Deem and Ramdas Pophale) SiO2 
 PCOD9371018
Probable space group: F D D 2
;
_chemical_formula_sum "Si O2"
_cell_formula_units_Z 88
_cell_length_a 13.275947
_cell_length_b 25.228305
_cell_length_c 13.775999
_cell_angle_alpha 90.000000
_cell_angle_beta 90.000000
_cell_angle_gamma 90.000000
_cell_volume 4613.990387
_symmetry_space_group_name_H-M "F D D 2"
_symmetry_group_IT_number 43
_symmetry_cell_setting 'orthorhombic'
loop_
_space_group_symop_operation_xyz
x,y,z
-x,-y,z
1/4-x,1/4+y,1/4+z
1/4+x,1/4-y,1/4+z
x,1/2+y,1/2+z
-x,1/2-y,1/2+z
1/4-x,3/4+y,3/4+z
1/4+x,3/4-y,3/4+z
1/2+x,y,1/2+z
1/2-x,-y,1/2+z
3/4-x,1/4+y,3/4+z
3/4+x,1/4-y,3/4+z
1/2+x,1/2+y,z
1/2-x,1/2-y,z
3/4-x,3/4+y,1/4+z
3/4+x,3/4-y,1/4+z
loop_
_atom_site_type_symbol
_atom_site_label
_atom_site_fract_x
_atom_site_fract_y
_atom_site_fract_z
Si Si1 0.250000 0.250000 0.428210
Si Si2 0.137023 0.832189 0.156349
Si Si3 0.144426 0.069781 0.057786
Si Si4 0.477613 0.330419 0.996285
Si Si5 0.993677 0.739293 0.141707
Si Si6 0.851690 0.829013 0.562615
O O1 0.198584 0.295895 0.367814
O O2 0.167313 0.222842 0.496067
O O3 0.087144 0.775334 0.179495
O O4 0.109384 0.871127 0.242837
O O5 0.254908 0.832195 0.132203
O O6 0.077249 0.848583 0.057801
O O7 0.108179 0.125770 0.013871
O O8 0.235880 0.074928 0.135422
O O9 0.168275 0.025765 0.976640
O O10 0.451672 0.275084 0.052583
O O11 0.042929 0.683540 0.112270
#
# Coordination Sequence:
#
# PCOD9371018 Si02
#       6
#     8  16  16  16  16  16
#     4  12  18  36  64  86 112 164 214 250 300 368
#     4  10  21  36  64  91 117 160 217 258 302 381
#     4  12  24  38  65  93 130 165 210 271 319 379
#     4  10  22  40  60  97 124 162 221 257 315 389
#     4  10  24  39  60  97 129 162 208 268 319 374
#     4  12  20  39  63  92 121 160 211 261 309 384
#
# _framework density 19.072429
#
# number of rings (size 3 to 8) (size 9 to 14) (size 15 to 20)
#    1.091    0.000    7.273    0.000    5.091    1.455 
#    0.000    0.000    0.000    0.000    0.000    0.000 
#    0.000    0.000    0.000    0.000    0.000    0.000 
#
# Total GULP energy -122534.202818 kJ/mol
# GULP energy per Si atom -5569.736492 kJ/mol
# Density = 1.902902 g / cm^3
# Si number density = 19.072429 Si / 1000 Ang^3
#
#
#
# Elastic Constant Matrix: (Units=GPa)
#
#
# Indices 1 2 3 4 5 6 
#
# 1 32.9146 22.5804 18.0899 0.0000 0.0000 0.0000
# 2 22.5804 63.5946 30.1481 0.0000 0.0000 0.0000
# 3 18.0899 30.1481 32.5331 0.0000 0.0000 0.0000
# 4 0.0000 0.0000 0.0000 32.0958 0.0000 0.0000
# 5 0.0000 0.0000 0.0000 0.0000 11.3195 0.0000
# 6 0.0000 0.0000 0.0000 0.0000 0.0000 29.3484
#
#
#
# Elastic Compliance Matrix: (Units=1/GPa)
#
#
# Indices 1 2 3 4 5 6 
#
# 1 0.045648 -0.007447 -0.018482 0.000000 0.000000 0.000000
# 2 -0.007447 0.029260 -0.022974 0.000000 0.000000 0.000000
# 3 -0.018482 -0.022974 0.062305 0.000000 0.000000 0.000000
# 4 0.000000 0.000000 0.000000 0.031157 0.000000 0.000000
# 5 0.000000 0.000000 0.000000 0.000000 0.088343 0.000000
# 6 0.000000 0.000000 0.000000 0.000000 0.000000 0.034073
#
#
# Mechanical properties :
#
#
# Convention : Reuss Voigt Hill
#
# Bulk Modulus (GPa) = 25.37596 30.07546 27.72571
# Shear Modulus (GPa) = 12.44629 18.43433 15.44031
#
# Velocity S-wave (km/s) = 2.55734 3.11230 2.84837
# Velocity P-wave (km/s) = 4.69616 5.35897 5.03847
#
# Compressibility (1/GPa) = 0.03940738
#
# Stress axis : x y z
#
# Youngs Moduli (GPa) = 21.90688 34.17642 16.05019
#
# Poissons Ratio (x) = 0.25450 0.29663
# Poissons Ratio (y) = 0.16313 0.36874
# Poissons Ratio (z) = 0.40488 0.78518
#
# Static dielectric constant tensor:
#      x y z
#    x 1.643170 0.000000 0.000000 
#    y 0.000000 1.689750 0.000000 
#    z 0.000000 0.000000 1.667020 
# 
# From -- ./inp_files/6258.got.cif
#   From: 2010.05.17/outbox.cif.g08.bks.cpg/sg43_4_cif.got.tgz:6258.got - 2010.06.03 19:21:55.
