data_PCOD9371423
_publ_section_title
;
Structure prediction by ZEFSAII (Michael W. Deem and Ramdas Pophale) SiO2 
 PCOD9371423
Probable space group: F D D 2
;
_chemical_formula_sum "Si O2"
_cell_formula_units_Z 104
_cell_length_a 14.743913
_cell_length_b 22.753737
_cell_length_c 13.517413
_cell_angle_alpha 90.000000
_cell_angle_beta 90.000000
_cell_angle_gamma 90.000000
_cell_volume 4534.809801
_symmetry_space_group_name_H-M "F D D 2"
_symmetry_group_IT_number 43
_symmetry_cell_setting 'orthorhombic'
loop_
_space_group_symop_operation_xyz
x,y,z
-x,-y,z
1/4-x,1/4+y,1/4+z
1/4+x,1/4-y,1/4+z
x,1/2+y,1/2+z
-x,1/2-y,1/2+z
1/4-x,3/4+y,3/4+z
1/4+x,3/4-y,3/4+z
1/2+x,y,1/2+z
1/2-x,-y,1/2+z
3/4-x,1/4+y,3/4+z
3/4+x,1/4-y,3/4+z
1/2+x,1/2+y,z
1/2-x,1/2-y,z
3/4-x,3/4+y,1/4+z
3/4+x,3/4-y,1/4+z
loop_
_atom_site_type_symbol
_atom_site_label
_atom_site_fract_x
_atom_site_fract_y
_atom_site_fract_z
Si Si1 0.013214 0.437074 0.744490
Si Si2 0.750000 0.750000 0.675819
Si Si3 0.618522 0.626612 0.005989
Si Si4 0.151451 0.064729 0.519060
Si Si5 0.586388 0.890058 0.479645
Si Si6 0.433771 0.746924 0.682791
Si Si7 0.109504 0.499117 0.210513
O O1 0.055736 0.461990 0.846567
O O2 0.912852 0.407961 0.757981
O O3 0.000000 0.500000 0.687618
O O4 0.073917 0.379279 0.728670
O O5 0.698792 0.796441 0.740550
O O6 0.511440 0.618094 0.027150
O O7 0.661012 0.568071 0.964655
O O8 0.623256 0.681180 0.930782
O O9 0.669036 0.637319 0.110005
O O10 0.217308 0.020063 0.460666
O O11 0.152358 0.046638 0.635336
O O12 0.623227 0.955835 0.494376
O O13 0.408163 0.748688 0.567168
O O14 0.000000 0.500000 0.221343
#
# Coordination Sequence:
#
# PCOD9371423 Si02
#       7
#    16   8  16  16  16  16  16
#     4   9  24  43  66  98 137 183 237 290 359 423
#     4  10  24  46  68 104 136 182 246 292 366 440
#     4  11  22  41  64  97 136 174 233 280 348 421
#     4  11  23  48  69 103 142 184 236 301 355 443
#     4  10  22  39  65  97 133 174 224 291 343 420
#     4  10  23  42  68  97 134 178 233 289 346 415
#     4  11  24  42  67  99 137 183 227 285 355 422
#
# _framework density 22.933707999999999
#
# number of rings (size 3 to 8) (size 9 to 14) (size 15 to 20)
#    0.462    1.231    0.769    3.231    6.462    3.692 
#    8.308    0.000    0.000    0.000    0.000    0.000 
#    0.000    0.000    0.000    0.000    0.000    0.000 
#
# Total GULP energy -144855.107589 kJ/mol
# GULP energy per Si atom -5571.350292 kJ/mol
# Density = 2.288151 g / cm^3
# Si number density = 22.933708 Si / 1000 Ang^3
#
#
#
# Elastic Constant Matrix: (Units=GPa)
#
#
# Indices 1 2 3 4 5 6 
#
# 1 38.1981 2.4503 9.7589 0.0000 0.0000 0.0000
# 2 2.4503 154.1526 13.7873 0.0000 0.0000 0.0000
# 3 9.7589 13.7873 74.6360 0.0000 0.0000 0.0000
# 4 0.0000 0.0000 0.0000 1.7125 0.0000 0.0000
# 5 0.0000 0.0000 0.0000 0.0000 24.0628 0.0000
# 6 0.0000 0.0000 0.0000 0.0000 0.0000 25.7392
#
#
#
# Elastic Compliance Matrix: (Units=1/GPa)
#
#
# Indices 1 2 3 4 5 6 
#
# 1 0.027086 -0.000116 -0.003520 0.000000 0.000000 0.000000
# 2 -0.000116 0.006597 -0.001203 0.000000 0.000000 0.000000
# 3 -0.003520 -0.001203 0.014081 0.000000 0.000000 0.000000
# 4 0.000000 0.000000 0.000000 0.583942 0.000000 0.000000
# 5 0.000000 0.000000 0.000000 0.000000 0.041558 0.000000
# 6 0.000000 0.000000 0.000000 0.000000 0.000000 0.038851
#
#
# Mechanical properties :
#
#
# Convention : Reuss Voigt Hill
#
# Bulk Modulus (GPa) = 26.25715 35.44219 30.84967
# Shear Modulus (GPa) = 6.80746 26.36892 16.58819
#
# Velocity S-wave (km/s) = 1.72475 3.39453 2.69236
# Velocity P-wave (km/s) = 3.92942 5.55442 4.81102
#
# Compressibility (1/GPa) = 0.03808486
#
# Stress axis : x y z
#
# Youngs Moduli (GPa) = 36.91936 151.59433 71.01798
#
# Poissons Ratio (x) = 0.01754 0.25000
# Poissons Ratio (y) = 0.00427 0.08547
# Poissons Ratio (z) = 0.12996 0.18243
#
# Static dielectric constant tensor:
#      x y z
#    x 1.901590 0.000000 0.000000 
#    y 0.000000 2.020330 0.000000 
#    z 0.000000 0.000000 1.928190 
# 
# From -- ./inp_files/13940.got.cif
#   From: 2010.05.17/outbox.cif.g08.bks.cpg/sg43_7_cif.got.tgz:13940.got - 2010.06.03 19:21:55.
