data_PCOD9371626
_publ_section_title
;
Structure prediction by ZEFSAII (Michael W. Deem and Ramdas Pophale) SiO2 
 PCOD9371626
Probable space group: F D D 2
;
_chemical_formula_sum "Si O2"
_cell_formula_units_Z 120
_cell_length_a 20.953071
_cell_length_b 12.495930
_cell_length_c 20.471089
_cell_angle_alpha 90.000000
_cell_angle_beta 90.000000
_cell_angle_gamma 90.000000
_cell_volume 5359.906512
_symmetry_space_group_name_H-M "F D D 2"
_symmetry_group_IT_number 43
_symmetry_cell_setting 'orthorhombic'
loop_
_space_group_symop_operation_xyz
x,y,z
-x,-y,z
1/4-x,1/4+y,1/4+z
1/4+x,1/4-y,1/4+z
x,1/2+y,1/2+z
-x,1/2-y,1/2+z
1/4-x,3/4+y,3/4+z
1/4+x,3/4-y,3/4+z
1/2+x,y,1/2+z
1/2-x,-y,1/2+z
3/4-x,1/4+y,3/4+z
3/4+x,1/4-y,3/4+z
1/2+x,1/2+y,z
1/2-x,1/2-y,z
3/4-x,3/4+y,1/4+z
3/4+x,3/4-y,1/4+z
loop_
_atom_site_type_symbol
_atom_site_label
_atom_site_fract_x
_atom_site_fract_y
_atom_site_fract_z
Si Si1 0.096906 0.196886 0.016470
Si Si2 0.132806 0.860320 0.904900
Si Si3 0.014761 0.377582 0.038130
Si Si4 0.545825 0.330536 0.016972
Si Si5 0.623187 0.112362 0.896890
Si Si6 0.000000 0.000000 0.352034
Si Si7 0.509102 0.334666 0.235789
Si Si8 0.716712 0.637714 0.943306
O O1 0.123663 0.176712 0.088887
O O2 0.078493 0.322330 0.009428
O O3 0.142852 0.155209 0.960647
O O4 0.028212 0.137920 0.018449
O O5 0.085134 0.891922 0.962578
O O6 0.112125 0.739014 0.890336
O O7 0.204167 0.866686 0.936691
O O8 0.019807 0.362196 0.117024
O O9 0.000000 0.500000 0.026989
O O10 0.960878 0.299055 0.008749
O O11 0.582852 0.339998 0.083906
O O12 0.670393 0.094623 0.957052
O O13 0.562351 0.034592 0.892351
O O14 0.008113 0.899124 0.303153
O O15 0.491428 0.209975 0.236907
O O16 0.750000 0.750000 0.958619
#
# Coordination Sequence:
#
# PCOD9371626 Si02
#       8
#    16  16  16  16  16   8  16  16
#     4  10  23  43  68 106 133 186 243 294 362 433
#     4  12  22  42  71 102 145 180 239 298 366 436
#     4   9  20  45  70  92 140 190 235 290 361 438
#     4  10  22  43  67 106 135 189 230 290 373 419
#     4  12  22  42  65 105 141 182 232 295 368 425
#     4  12  26  42  72 112 140 184 244 304 368 440
#     4  12  21  44  72  99 145 184 234 301 361 429
#     4  11  23  46  68  98 140 199 240 293 369 435
#
# _framework density 22.388449999999999
#
# number of rings (size 3 to 8) (size 9 to 14) (size 15 to 20)
#    0.800    0.267    6.667    0.800    0.000    0.000 
#   10.800    0.000    0.000    0.000    0.000    0.000 
#    0.000    0.000    0.000    0.000    0.000    0.000 
#
# Total GULP energy -167538.192838 kJ/mol
# GULP energy per Si atom -5584.606428 kJ/mol
# Density = 2.233749 g / cm^3
# Si number density = 22.388450 Si / 1000 Ang^3
#
#
#
# Elastic Constant Matrix: (Units=GPa)
#
#
# Indices 1 2 3 4 5 6 
#
# 1 109.1270 17.2077 43.8305 0.0000 0.0000 0.0000
# 2 17.2077 122.6066 19.1375 0.0000 0.0000 0.0000
# 3 43.8305 19.1375 68.2179 0.0000 0.0000 0.0000
# 4 0.0000 0.0000 0.0000 4.6080 0.0000 0.0000
# 5 0.0000 0.0000 0.0000 0.0000 38.3548 0.0000
# 6 0.0000 0.0000 0.0000 0.0000 0.0000 31.3743
#
#
#
# Elastic Compliance Matrix: (Units=1/GPa)
#
#
# Indices 1 2 3 4 5 6 
#
# 1 0.012382 -0.000519 -0.007810 0.000000 0.000000 0.000000
# 2 -0.000519 0.008551 -0.002066 0.000000 0.000000 0.000000
# 3 -0.007810 -0.002066 0.020257 0.000000 0.000000 0.000000
# 4 0.000000 0.000000 0.000000 0.217016 0.000000 0.000000
# 5 0.000000 0.000000 0.000000 0.000000 0.026072 0.000000
# 6 0.000000 0.000000 0.000000 0.000000 0.000000 0.031873
#
#
# Mechanical properties :
#
#
# Convention : Reuss Voigt Hill
#
# Bulk Modulus (GPa) = 49.01719 51.14475 50.08097
# Shear Modulus (GPa) = 14.54580 29.51912 22.03246
#
# Velocity S-wave (km/s) = 2.55169 3.63505 3.14044
# Velocity P-wave (km/s) = 5.53380 6.36490 5.96385
#
# Compressibility (1/GPa) = 0.02040100
#
# Stress axis : x y z
#
# Youngs Moduli (GPa) = 80.75982 116.93986 49.36675
#
# Poissons Ratio (x) = 0.06066 0.38557
# Poissons Ratio (y) = 0.04190 0.10197
# Poissons Ratio (z) = 0.63075 0.24156
#
# Static dielectric constant tensor:
#      x y z
#    x 1.820110 0.000000 0.000000 
#    y 0.000000 1.873860 0.000000 
#    z 0.000000 0.000000 1.819040 
# 
# From -- ./inp_files/26465.got.cif
#   From: 2010.05.17/outbox.cif.g08.bks.cpg/sg43_14_cif.got.tgz:26465.got - 2010.06.03 19:21:55.
