data_PCOD9371982
_publ_section_title
;
Structure prediction by ZEFSAII (Michael W. Deem and Ramdas Pophale) SiO2 
 PCOD9371982
Probable space group: F D D 2
;
_chemical_formula_sum "Si O2"
_cell_formula_units_Z 120
_cell_length_a 24.733065
_cell_length_b 16.483800
_cell_length_c 12.093959
_cell_angle_alpha 90.000000
_cell_angle_beta 90.000000
_cell_angle_gamma 90.000000
_cell_volume 4930.645367
_symmetry_space_group_name_H-M "F D D 2"
_symmetry_group_IT_number 43
_symmetry_cell_setting 'orthorhombic'
loop_
_space_group_symop_operation_xyz
x,y,z
-x,-y,z
1/4-x,1/4+y,1/4+z
1/4+x,1/4-y,1/4+z
x,1/2+y,1/2+z
-x,1/2-y,1/2+z
1/4-x,3/4+y,3/4+z
1/4+x,3/4-y,3/4+z
1/2+x,y,1/2+z
1/2-x,-y,1/2+z
3/4-x,1/4+y,3/4+z
3/4+x,1/4-y,3/4+z
1/2+x,1/2+y,z
1/2-x,1/2-y,z
3/4-x,3/4+y,1/4+z
3/4+x,3/4-y,1/4+z
loop_
_atom_site_type_symbol
_atom_site_label
_atom_site_fract_x
_atom_site_fract_y
_atom_site_fract_z
Si Si1 0.413173 0.828958 0.677900
Si Si2 0.579744 0.594237 0.406164
Si Si3 0.834907 0.673742 0.201564
Si Si4 0.502091 0.218801 0.270250
Si Si5 0.250000 0.250000 0.061692
Si Si6 0.184134 0.656659 0.420249
Si Si7 0.032505 0.346444 0.938185
Si Si8 0.358795 0.574669 0.385423
O O1 0.397770 0.870353 0.792549
O O2 0.416173 0.893766 0.578603
O O3 0.369878 0.754777 0.670309
O O4 0.472336 0.788692 0.696739
O O5 0.514563 0.593842 0.394059
O O6 0.607173 0.506881 0.414758
O O7 0.591407 0.654729 0.508916
O O8 0.777258 0.686951 0.146870
O O9 0.871567 0.602738 0.149896
O O10 0.455305 0.150541 0.270754
O O11 0.514646 0.259928 0.388121
O O12 0.554466 0.185071 0.207288
O O13 0.202369 0.240872 0.969417
O O14 0.214957 0.620135 0.316489
O O15 0.094463 0.358575 0.903423
#
# Coordination Sequence:
#
# PCOD9371982 Si02
#       8
#    16  16  16  16   8  16  16  16
#     4  10  23  47  71 105 150 195 251 308 382 453
#     4  11  24  43  71 105 145 194 245 308 370 462
#     4  11  24  49  72 109 148 199 253 319 377 463
#     4  10  24  45  68 103 144 197 240 311 383 454
#     4  12  28  46  76 112 146 210 254 316 394 472
#     4  11  26  45  72 104 150 190 258 318 380 461
#     4  11  25  44  69 104 145 189 249 314 384 446
#     4  12  23  43  69 107 144 192 249 306 381 449
#
# _framework density 24.337585000000001
#
# number of rings (size 3 to 8) (size 9 to 14) (size 15 to 20)
#    0.000    1.067    4.000    1.200    3.733    4.267 
#    7.200    0.000    0.000    0.000    0.000    0.000 
#    0.000    0.000    0.000    0.000    0.000    0.000 
#
# Total GULP energy -167275.571599 kJ/mol
# GULP energy per Si atom -5575.852387 kJ/mol
# Density = 2.428219 g / cm^3
# Si number density = 24.337585 Si / 1000 Ang^3
#
#
#
# Elastic Constant Matrix: (Units=GPa)
#
#
# Indices 1 2 3 4 5 6 
#
# 1 114.6945 22.4370 28.0293 0.0000 0.0000 0.0000
# 2 22.4370 60.0491 30.7892 0.0000 0.0000 0.0000
# 3 28.0293 30.7892 144.1282 0.0000 0.0000 0.0000
# 4 0.0000 0.0000 0.0000 38.4625 0.0000 0.0000
# 5 0.0000 0.0000 0.0000 0.0000 34.9367 0.0000
# 6 0.0000 0.0000 0.0000 0.0000 0.0000 33.2923
#
#
#
# Elastic Compliance Matrix: (Units=1/GPa)
#
#
# Indices 1 2 3 4 5 6 
#
# 1 0.009598 -0.002953 -0.001236 0.000000 0.000000 0.000000
# 2 -0.002953 0.019610 -0.003615 0.000000 0.000000 0.000000
# 3 -0.001236 -0.003615 0.007951 0.000000 0.000000 0.000000
# 4 0.000000 0.000000 0.000000 0.025999 0.000000 0.000000
# 5 0.000000 0.000000 0.000000 0.000000 0.028623 0.000000
# 6 0.000000 0.000000 0.000000 0.000000 0.000000 0.030037
#
#
# Mechanical properties :
#
#
# Convention : Reuss Voigt Hill
#
# Bulk Modulus (GPa) = 46.39922 53.48696 49.94309
# Shear Modulus (GPa) = 34.57584 37.17938 35.87761
#
# Velocity S-wave (km/s) = 3.77328 3.91276 3.84365
# Velocity P-wave (km/s) = 6.17169 6.51443 6.34537
#
# Compressibility (1/GPa) = 0.02155209
#
# Stress axis : x y z
#
# Youngs Moduli (GPa) = 104.18330 50.99499 125.77286
#
# Poissons Ratio (x) = 0.15057 0.15544
# Poissons Ratio (y) = 0.30763 0.45465
# Poissons Ratio (z) = 0.12876 0.18434
#
# Static dielectric constant tensor:
#      x y z
#    x 2.050050 0.000000 0.000000 
#    y 0.000000 2.141160 0.000000 
#    z 0.000000 0.000000 1.978680 
# 
# From -- ./inp_files/7978.got.cif
#   From: 2010.05.17/outbox.cif.g08.bks.cpg/sg43_4_cif.got.tgz:7978.got - 2010.06.03 19:21:55.
