data_PCOD9371465
_publ_section_title
;
Structure prediction by ZEFSAII (Michael W. Deem and Ramdas Pophale) SiO2 
 PCOD9371465
Probable space group: F D D 2
;
_chemical_formula_sum "Si O2"
_cell_formula_units_Z 120
_cell_length_a 9.257466
_cell_length_b 23.547846
_cell_length_c 26.499486
_cell_angle_alpha 90.000000
_cell_angle_beta 90.000000
_cell_angle_gamma 90.000000
_cell_volume 5776.712620
_symmetry_space_group_name_H-M "F D D 2"
_symmetry_group_IT_number 43
_symmetry_cell_setting 'orthorhombic'
loop_
_space_group_symop_operation_xyz
x,y,z
-x,-y,z
1/4-x,1/4+y,1/4+z
1/4+x,1/4-y,1/4+z
x,1/2+y,1/2+z
-x,1/2-y,1/2+z
1/4-x,3/4+y,3/4+z
1/4+x,3/4-y,3/4+z
1/2+x,y,1/2+z
1/2-x,-y,1/2+z
3/4-x,1/4+y,3/4+z
3/4+x,1/4-y,3/4+z
1/2+x,1/2+y,z
1/2-x,1/2-y,z
3/4-x,3/4+y,1/4+z
3/4+x,3/4-y,1/4+z
loop_
_atom_site_type_symbol
_atom_site_label
_atom_site_fract_x
_atom_site_fract_y
_atom_site_fract_z
Si Si1 0.586395 0.443463 0.477710
Si Si2 0.027017 0.212818 0.098595
Si Si3 0.538896 0.852115 0.501449
Si Si4 0.105705 0.387089 0.781506
Si Si5 0.376163 0.204076 0.285633
Si Si6 0.015745 0.340046 0.130127
Si Si7 0.821826 0.394981 0.640398
Si Si8 0.000000 0.500000 0.812219
O O1 0.500000 0.500000 0.464326
O O2 0.471938 0.396470 0.498077
O O3 0.708852 0.463520 0.518361
O O4 0.673960 0.420076 0.430046
O O5 0.092752 0.165006 0.134344
O O6 0.071155 0.277218 0.111159
O O7 0.038286 0.191470 0.040291
O O8 0.853564 0.215539 0.099257
O O9 0.688279 0.878886 0.523522
O O10 0.427005 0.903164 0.499448
O O11 0.583457 0.830242 0.446515
O O12 0.163193 0.382161 0.838192
O O13 0.089694 0.456214 0.777963
O O14 0.250000 0.250000 0.279846
O O15 0.377889 0.183002 0.343625
O O16 0.154748 0.379100 0.134303
#
# Coordination Sequence:
#
# PCOD9371465 Si02
#       8
#    16  16  16  16  16  16  16   8
#     4  12  26  39  72 102 135 182 233 287 354 419
#     4   9  21  36  63  95 128 167 222 278 335 393
#     4  10  22  40  67  94 133 173 222 277 343 414
#     4  10  22  42  65  99 139 171 224 287 349 407
#     4  11  24  44  62  96 140 175 222 278 342 414
#     4  11  23  41  68  98 133 169 232 288 335 412
#     4  11  22  41  67  96 131 180 221 279 341 415
#     4   8  18  40  64  90 136 170 216 284 332 412
#
# _framework density 20.773059
#
# number of rings (size 3 to 8) (size 9 to 14) (size 15 to 20)
#    0.000    1.600    2.667    1.200    9.333    1.067 
#    7.200    0.000    0.000    0.000    0.000    0.000 
#    0.000    0.000    0.000    0.000    0.000    0.000 
#
# Total GULP energy -167085.262985 kJ/mol
# GULP energy per Si atom -5569.508766 kJ/mol
# Density = 2.072578 g / cm^3
# Si number density = 20.773059 Si / 1000 Ang^3
#
#
#
# Elastic Constant Matrix: (Units=GPa)
#
#
# Indices 1 2 3 4 5 6 
#
# 1 90.8197 31.8814 12.8502 0.0000 0.0000 0.0000
# 2 31.8814 39.5862 17.1211 0.0000 0.0000 0.0000
# 3 12.8502 17.1211 97.4082 0.0000 0.0000 0.0000
# 4 0.0000 0.0000 0.0000 14.7563 0.0000 0.0000
# 5 0.0000 0.0000 0.0000 0.0000 30.8098 0.0000
# 6 0.0000 0.0000 0.0000 0.0000 0.0000 37.9017
#
#
#
# Elastic Compliance Matrix: (Units=1/GPa)
#
#
# Indices 1 2 3 4 5 6 
#
# 1 0.015353 -0.012434 0.000160 0.000000 0.000000 0.000000
# 2 -0.012434 0.037410 -0.004935 0.000000 0.000000 0.000000
# 3 0.000160 -0.004935 0.011112 0.000000 0.000000 0.000000
# 4 0.000000 0.000000 0.000000 0.067768 0.000000 0.000000
# 5 0.000000 0.000000 0.000000 0.000000 0.032457 0.000000
# 6 0.000000 0.000000 0.000000 0.000000 0.000000 0.026384
#
#
# Mechanical properties :
#
#
# Convention : Reuss Voigt Hill
#
# Bulk Modulus (GPa) = 33.94768 39.05773 36.50270
# Shear Modulus (GPa) = 21.30189 27.75767 24.52978
#
# Velocity S-wave (km/s) = 3.20575 3.65942 3.44007
# Velocity P-wave (km/s) = 5.48453 6.05789 5.77833
#
# Compressibility (1/GPa) = 0.02945709
#
# Stress axis : x y z
#
# Youngs Moduli (GPa) = 65.13372 26.73101 89.98981
#
# Poissons Ratio (x) = 0.33238 -0.01441
# Poissons Ratio (y) = 0.80988 0.44410
# Poissons Ratio (z) = -0.01043 0.13192
#
# Static dielectric constant tensor:
#      x y z
#    x 1.788090 0.000000 0.000000 
#    y 0.000000 1.801340 0.000000 
#    z 0.000000 0.000000 1.789690 
# 
# From -- ./inp_files/20442.got.cif
#   From: 2010.05.17/outbox.cif.g08.bks.cpg/sg43_11_cif.got.tgz:20442.got - 2010.06.03 19:21:55.
