data_PCOD9371687
_publ_section_title
;
Structure prediction by ZEFSAII (Michael W. Deem and Ramdas Pophale) SiO2 
 PCOD9371687
Probable space group: F D D 2
;
_chemical_formula_sum "Si O2"
_cell_formula_units_Z 104
_cell_length_a 22.880220
_cell_length_b 16.661826
_cell_length_c 13.965896
_cell_angle_alpha 90.000000
_cell_angle_beta 90.000000
_cell_angle_gamma 90.000000
_cell_volume 5324.166083
_symmetry_space_group_name_H-M "F D D 2"
_symmetry_group_IT_number 43
_symmetry_cell_setting 'orthorhombic'
loop_
_space_group_symop_operation_xyz
x,y,z
-x,-y,z
1/4-x,1/4+y,1/4+z
1/4+x,1/4-y,1/4+z
x,1/2+y,1/2+z
-x,1/2-y,1/2+z
1/4-x,3/4+y,3/4+z
1/4+x,3/4-y,3/4+z
1/2+x,y,1/2+z
1/2-x,-y,1/2+z
3/4-x,1/4+y,3/4+z
3/4+x,1/4-y,3/4+z
1/2+x,1/2+y,z
1/2-x,1/2-y,z
3/4-x,3/4+y,1/4+z
3/4+x,3/4-y,1/4+z
loop_
_atom_site_type_symbol
_atom_site_label
_atom_site_fract_x
_atom_site_fract_y
_atom_site_fract_z
Si Si1 0.750000 0.250000 0.413890
Si Si2 0.324550 0.162301 0.748055
Si Si3 0.039395 0.339741 0.754532
Si Si4 0.460605 0.839741 0.573249
Si Si5 0.675450 0.662301 0.079726
Si Si6 0.750000 0.750000 0.241134
Si Si7 0.750000 0.250000 0.086647
Si Si8 0.966930 0.750000 0.413890
O O1 0.709842 0.305287 0.342830
O O2 0.709842 0.194713 0.484951
O O3 0.392902 0.182315 0.750263
O O4 0.295645 0.207039 0.657540
O O5 0.317685 0.067271 0.724949
O O6 1.000000 0.317684 0.663890
O O7 0.032444 0.434475 0.773001
O O8 0.008913 0.297533 0.843215
O O9 0.392902 0.817685 0.577518
O O10 0.491087 0.797533 0.484566
O O11 0.467556 0.934475 0.554780
O O12 0.704355 0.707039 0.170241
O O13 0.682315 0.567271 0.102832
#
# Coordination Sequence:
#
# PCOD9371687 Si02
#       8
#     8  16  16  16  16   8   8  16
#     4  10  22  44  70  92 122 176 206 270 326 364
#     4  10  23  41  65  90 129 161 213 264 311 380
#     4  11  24  39  65  90 126 169 205 258 319 374
#     4  11  24  39  65  90 126 169 205 258 319 374
#     4  10  23  41  65  90 129 161 213 264 311 380
#     4   9  23  41  57  96 120 162 212 252 316 372
#     4   9  23  41  57  96 120 162 212 252 316 372
#     4  10  25  40  59 101 120 159 220 256 314 376
#
# _framework density 19.533577000000001
#
# number of rings (size 3 to 8) (size 9 to 14) (size 15 to 20)
#    0.000    1.846    0.000    1.385   10.769    2.462 
#    0.000    9.231    0.000    0.000    0.000    0.000 
#    0.000    0.000    0.000    0.000    0.000    0.000 
#
# Total GULP energy -145097.105571 kJ/mol
# GULP energy per Si atom -5580.657907 kJ/mol
# Density = 1.948912 g / cm^3
# Si number density = 19.533577 Si / 1000 Ang^3
#
#
#
# Elastic Constant Matrix: (Units=GPa)
#
#
# Indices 1 2 3 4 5 6 
#
# 1 139.5187 10.9099 63.6229 0.0000 0.0000 0.0000
# 2 10.9099 67.4745 31.3058 0.0000 0.0000 0.0000
# 3 63.6229 31.3058 90.6934 0.0000 0.0000 0.0000
# 4 0.0000 0.0000 0.0000 59.0791 0.0000 0.0000
# 5 0.0000 0.0000 0.0000 0.0000 12.2984 0.0000
# 6 0.0000 0.0000 0.0000 0.0000 0.0000 -2.5519
#
#
#
# Elastic Compliance Matrix: (Units=1/GPa)
#
#
# Indices 1 2 3 4 5 6 
#
# 1 0.010784 0.002103 -0.008291 0.000000 0.000000 0.000000
# 2 0.002103 0.018057 -0.007708 0.000000 0.000000 0.000000
# 3 -0.008291 -0.007708 0.019503 0.000000 0.000000 0.000000
# 4 0.000000 0.000000 0.000000 0.016926 0.000000 0.000000
# 5 0.000000 0.000000 0.000000 0.000000 0.081311 0.000000
# 6 0.000000 0.000000 0.000000 0.000000 0.000000 -0.391857
#
#
# Mechanical properties :
#
#
# Convention : Reuss Voigt Hill
#
# Bulk Modulus (GPa) = 48.65825 56.59599 52.62712
# Shear Modulus (GPa) = -23.73799 26.55497 1.40849
#
# Velocity S-wave (km/s) = -3.48981 3.69108 0.85008
# Velocity P-wave (km/s) = 2.95394 6.87037 5.28809
#
# Compressibility (1/GPa) = 0.02055150
#
# Stress axis : x y z
#
# Youngs Moduli (GPa) = 92.73086 55.38106 51.27364
#
# Poissons Ratio (x) = -0.11647 0.42511
# Poissons Ratio (y) = -0.19502 0.39523
# Poissons Ratio (z) = 0.76883 0.42689
#
# Static dielectric constant tensor:
#      x y z
#    x 1.651940 0.000000 0.000000 
#    y 0.000000 1.732870 0.000000 
#    z 0.000000 0.000000 1.693720 
# 
# From -- ./inp_files/10648.got.cif
#   From: 2010.05.17/outbox.cif.g08.bks.cpg/sg43_6_cif.got.tgz:10648.got - 2010.06.03 19:21:55.
