data_PCOD9371685
_publ_section_title
;
Structure prediction by ZEFSAII (Michael W. Deem and Ramdas Pophale) SiO2 
 PCOD9371685
Probable space group: F D D 2
;
_chemical_formula_sum "Si O2"
_cell_formula_units_Z 80
_cell_length_a 29.220630
_cell_length_b 5.092123
_cell_length_c 23.446396
_cell_angle_alpha 90.000000
_cell_angle_beta 90.000000
_cell_angle_gamma 90.000000
_cell_volume 3488.707480
_symmetry_space_group_name_H-M "F D D 2"
_symmetry_group_IT_number 43
_symmetry_cell_setting 'orthorhombic'
loop_
_space_group_symop_operation_xyz
x,y,z
-x,-y,z
1/4-x,1/4+y,1/4+z
1/4+x,1/4-y,1/4+z
x,1/2+y,1/2+z
-x,1/2-y,1/2+z
1/4-x,3/4+y,3/4+z
1/4+x,3/4-y,3/4+z
1/2+x,y,1/2+z
1/2-x,-y,1/2+z
3/4-x,1/4+y,3/4+z
3/4+x,1/4-y,3/4+z
1/2+x,1/2+y,z
1/2-x,1/2-y,z
3/4-x,3/4+y,1/4+z
3/4+x,3/4-y,1/4+z
loop_
_atom_site_type_symbol
_atom_site_label
_atom_site_fract_x
_atom_site_fract_y
_atom_site_fract_z
Si Si1 0.279536 0.483175 0.940140
Si Si2 0.798749 0.618553 0.555040
Si Si3 0.195809 0.183818 0.168824
Si Si4 0.860520 0.898425 0.858893
Si Si5 0.355498 0.922167 0.785471
O O1 0.250000 0.750000 0.939243
O O2 0.326255 0.509369 0.906211
O O3 0.250000 0.250000 0.914389
O O4 0.291943 0.404143 0.005282
O O5 0.750000 0.750000 0.558052
O O6 0.807947 0.530060 0.618928
O O7 0.841929 0.772941 0.528902
O O8 0.250000 0.250000 0.173849
O O9 0.159597 0.391835 0.140797
O O10 0.174926 0.092254 0.229023
O O11 0.839554 0.633776 0.832054
O O12 0.860955 0.128054 0.810865
#
# Coordination Sequence:
#
# PCOD9371685 Si02
#       5
#    16  16  16  16  16
#     4  11  23  42  71 100 136 183 234 287 343 412
#     4  10  22  44  70 104 135 186 231 291 342 422
#     4  11  24  45  70 105 142 187 232 295 349 422
#     4  11  25  46  68 104 142 184 231 289 351 421
#     4  11  25  43  71 101 142 183 232 287 353 415
#
# _framework density 22.931128000000001
#
# number of rings (size 3 to 8) (size 9 to 14) (size 15 to 20)
#    0.000    1.200    2.000    3.000    0.000   12.000 
#    0.000    0.000    0.000    0.000    0.000    0.000 
#    0.000    0.000    0.000    0.000    0.000    0.000 
#
# Total GULP energy -111482.782816 kJ/mol
# GULP energy per Si atom -5574.139141 kJ/mol
# Density = 2.287894 g / cm^3
# Si number density = 22.931128 Si / 1000 Ang^3
#
#
#
# Elastic Constant Matrix: (Units=GPa)
#
#
# Indices 1 2 3 4 5 6 
#
# 1 155.3897 32.2540 89.6209 0.0021 0.0001 -0.0033
# 2 32.2540 79.8821 26.5813 0.0286 -0.0038 -0.0171
# 3 89.6209 26.5813 146.5276 0.0035 -0.0011 -0.0038
# 4 0.0021 0.0286 0.0035 22.8082 -0.0013 -0.0040
# 5 0.0001 -0.0038 -0.0011 -0.0013 46.3496 -0.0015
# 6 -0.0033 -0.0171 -0.0038 -0.0040 -0.0015 31.1869
#
#
#
# Elastic Compliance Matrix: (Units=1/GPa)
#
#
# Indices 1 2 3 4 5 6 
#
# 1 0.010292 -0.002193 -0.005897 0.000003 0.000000 -0.000001
# 2 -0.002193 0.013790 -0.001160 -0.000017 0.000001 0.000007
# 3 -0.005897 -0.001160 0.010642 0.000000 0.000000 0.000000
# 4 0.000003 -0.000017 0.000000 0.043844 0.000001 0.000006
# 5 0.000000 0.000001 0.000000 0.000001 0.021575 0.000001
# 6 -0.000001 0.000007 0.000000 0.000006 0.000001 0.032065
#
#
# Mechanical properties :
#
#
# Convention : Reuss Voigt Hill
#
# Bulk Modulus (GPa) = 61.64071 75.41241 68.52656
# Shear Modulus (GPa) = 32.02756 35.62517 33.82637
#
# Velocity S-wave (km/s) = 3.74128 3.94581 3.84491
# Velocity P-wave (km/s) = 6.75293 7.32920 7.04696
#
# Compressibility (1/GPa) = 0.01622304
#
# Stress axis : x y z
#
# Youngs Moduli (GPa) = 97.16579 72.51588 93.96899
#
# Poissons Ratio (x) = 0.15905 0.55412
# Poissons Ratio (y) = 0.21311 0.10902
# Poissons Ratio (z) = 0.57297 0.08413
#
# Static dielectric constant tensor:
#      x y z
#    x 1.974150 -0.000010 0.000000 
#    y -0.000010 1.965220 0.000000 
#    z 0.000000 0.000000 1.849260 
# 
# From -- ./inp_files/22912.got.cif
#   From: 2010.05.17/outbox.cif.g08.bks.cpg/sg43_12_cif.got.tgz:22912.got - 2010.06.03 19:21:55.
