data_PCOD9371398
_publ_section_title
;
Structure prediction by ZEFSAII (Michael W. Deem and Ramdas Pophale) SiO2 
 PCOD9371398
Probable space group: F D D 2
;
_chemical_formula_sum "Si O2"
_cell_formula_units_Z 120
_cell_length_a 19.310031
_cell_length_b 30.566168
_cell_length_c 8.693898
_cell_angle_alpha 90.000000
_cell_angle_beta 90.000000
_cell_angle_gamma 90.000000
_cell_volume 5131.431163
_symmetry_space_group_name_H-M "F D D 2"
_symmetry_group_IT_number 43
_symmetry_cell_setting 'orthorhombic'
loop_
_space_group_symop_operation_xyz
x,y,z
-x,-y,z
1/4-x,1/4+y,1/4+z
1/4+x,1/4-y,1/4+z
x,1/2+y,1/2+z
-x,1/2-y,1/2+z
1/4-x,3/4+y,3/4+z
1/4+x,3/4-y,3/4+z
1/2+x,y,1/2+z
1/2-x,-y,1/2+z
3/4-x,1/4+y,3/4+z
3/4+x,1/4-y,3/4+z
1/2+x,1/2+y,z
1/2-x,1/2-y,z
3/4-x,3/4+y,1/4+z
3/4+x,3/4-y,1/4+z
loop_
_atom_site_type_symbol
_atom_site_label
_atom_site_fract_x
_atom_site_fract_y
_atom_site_fract_z
Si Si1 0.641816 0.951586 0.506810
Si Si2 0.750000 0.750000 0.160786
Si Si3 0.181485 0.576840 0.210586
Si Si4 0.732988 0.978800 0.947549
Si Si5 0.860405 0.454171 0.892461
Si Si6 0.724337 0.416952 0.734569
Si Si7 0.950560 0.879305 0.425454
Si Si8 0.458092 0.908692 0.280449
O O1 0.569689 0.979830 0.497967
O O2 0.659733 0.924655 0.348640
O O3 0.651473 0.912293 0.632609
O O4 0.708291 0.985672 0.504899
O O5 0.773029 0.708965 0.056120
O O6 0.228797 0.547466 0.315152
O O7 0.224770 0.613375 0.122355
O O8 0.123315 0.596943 0.316518
O O9 0.144759 0.549460 0.077695
O O10 0.714320 0.949016 0.090605
O O11 0.661174 0.996070 0.871049
O O12 0.794111 0.431420 0.818298
O O13 0.924937 0.424385 0.849880
O O14 0.741561 0.370212 0.662060
O O15 0.963037 0.889210 0.607756
#
# Coordination Sequence:
#
# PCOD9371398 Si02
#       8
#    16   8  16  16  16  16  16  16
#     4  11  25  43  71  99 147 184 240 293 356 424
#     4  12  26  48  70 108 146 188 242 308 358 430
#     4  11  21  43  63  94 131 182 222 288 346 415
#     4  11  21  41  68  97 130 181 240 278 338 421
#     4  10  22  38  66  94 130 172 227 286 341 413
#     4  11  23  40  69 104 131 184 240 282 355 428
#     4  11  23  44  67  95 140 183 225 296 351 428
#     4  11  26  41  71  99 142 180 237 290 364 420
#
# _framework density 23.385289
#
# number of rings (size 3 to 8) (size 9 to 14) (size 15 to 20)
#    0.000    1.067    5.333    2.400    3.733    1.067 
#    0.000    0.000    0.000    1.600    0.000    0.000 
#    0.000    0.000    0.000    0.000    0.000    0.000 
#
# Total GULP energy -167042.251238 kJ/mol
# GULP energy per Si atom -5568.075041 kJ/mol
# Density = 2.333206 g / cm^3
# Si number density = 23.385289 Si / 1000 Ang^3
#
#
#
# Elastic Constant Matrix: (Units=GPa)
#
#
# Indices 1 2 3 4 5 6 
#
# 1 40.9641 7.6754 -14.6904 0.0000 0.0001 0.0000
# 2 7.6754 96.5106 25.1759 0.0000 0.0000 0.0000
# 3 -14.6904 25.1759 63.7928 -0.0002 0.0003 0.0001
# 4 0.0000 0.0000 -0.0002 33.5551 0.0001 0.0000
# 5 0.0001 0.0000 0.0003 0.0001 14.5608 -0.0001
# 6 0.0000 0.0000 0.0001 0.0000 -0.0001 41.1964
#
#
#
# Elastic Compliance Matrix: (Units=1/GPa)
#
#
# Indices 1 2 3 4 5 6 
#
# 1 0.028181 -0.004386 0.008221 0.000000 0.000000 0.000000
# 2 -0.004386 0.012233 -0.005838 0.000000 0.000000 0.000000
# 3 0.008221 -0.005838 0.019873 0.000000 0.000000 0.000000
# 4 0.000000 0.000000 0.000000 0.029802 0.000000 0.000000
# 5 0.000000 0.000000 0.000000 0.000000 0.068678 0.000000
# 6 0.000000 0.000000 0.000000 0.000000 0.000000 0.024274
#
#
# Mechanical properties :
#
#
# Convention : Reuss Voigt Hill
#
# Bulk Modulus (GPa) = 17.76787 26.39880 22.08333
# Shear Modulus (GPa) = 24.29461 30.06956 27.18208
#
# Velocity S-wave (km/s) = 3.22667 3.58974 3.41304
# Velocity P-wave (km/s) = 4.63640 5.33805 4.99955
#
# Compressibility (1/GPa) = 0.05628138
#
# Stress axis : x y z
#
# Youngs Moduli (GPa) = 35.48447 81.74477 50.32029
#
# Poissons Ratio (x) = 0.35850 -0.41366
# Poissons Ratio (y) = 0.15562 0.29376
# Poissons Ratio (z) = -0.29170 0.47721
#
# Static dielectric constant tensor:
#      x y z
#    x 2.028220 0.000000 0.000000 
#    y 0.000000 2.128560 0.000000 
#    z 0.000000 0.000000 1.911660 
# 
# From -- ./inp_files/4021.got.cif
#   From: 2010.05.17/outbox.cif.g08.bks.cpg/sg43_3_cif.got.tgz:4021.got - 2010.06.03 19:21:55.
