data_PCOD9371187
_publ_section_title
;
Structure prediction by ZEFSAII (Michael W. Deem and Ramdas Pophale) SiO2 
 PCOD9371187
Probable space group: F D D 2
;
_chemical_formula_sum "Si O2"
_cell_formula_units_Z 80
_cell_length_a 11.678295
_cell_length_b 18.660831
_cell_length_c 14.591832
_cell_angle_alpha 90.000000
_cell_angle_beta 90.000000
_cell_angle_gamma 90.000000
_cell_volume 3179.949640
_symmetry_space_group_name_H-M "F D D 2"
_symmetry_group_IT_number 43
_symmetry_cell_setting 'orthorhombic'
loop_
_space_group_symop_operation_xyz
x,y,z
-x,-y,z
1/4-x,1/4+y,1/4+z
1/4+x,1/4-y,1/4+z
x,1/2+y,1/2+z
-x,1/2-y,1/2+z
1/4-x,3/4+y,3/4+z
1/4+x,3/4-y,3/4+z
1/2+x,y,1/2+z
1/2-x,-y,1/2+z
3/4-x,1/4+y,3/4+z
3/4+x,1/4-y,3/4+z
1/2+x,1/2+y,z
1/2-x,1/2-y,z
3/4-x,3/4+y,1/4+z
3/4+x,3/4-y,1/4+z
loop_
_atom_site_type_symbol
_atom_site_label
_atom_site_fract_x
_atom_site_fract_y
_atom_site_fract_z
Si Si1 0.772162 0.989757 0.267890
Si Si2 0.500000 0.500000 0.966975
Si Si3 0.780898 0.655020 0.746888
Si Si4 0.250000 0.750000 0.082340
Si Si5 0.856851 0.870070 0.926735
Si Si6 0.508986 0.246376 0.735669
O O1 0.787386 0.070336 0.232702
O O2 0.903309 0.964259 0.270573
O O3 0.740299 0.987598 0.375197
O O4 0.677264 0.944806 0.218229
O O5 0.452701 0.432275 0.910985
O O6 0.614092 0.474619 0.021208
O O7 0.718913 0.689002 0.657576
O O8 0.710223 0.659208 0.840169
O O9 0.599354 0.801999 0.762176
O O10 0.769949 0.916196 0.992612
#
# Coordination Sequence:
#
# PCOD9371187 Si02
#       6
#    16   8  16   8  16  16
#     4  10  21  40  71 105 141 197 246 306 365 447
#     4   8  18  40  65 105 150 198 234 314 368 442
#     4  10  21  43  66 106 146 193 246 305 371 444
#     4  10  24  40  67 105 156 184 242 318 378 430
#     4   9  20  40  70 105 145 202 249 294 371 452
#     4   8  19  40  66 104 149 187 240 314 370 429
#
# _framework density 25.157630999999999
#
# number of rings (size 3 to 8) (size 9 to 14) (size 15 to 20)
#    1.200    1.600    0.000    0.000    2.800    1.600 
#   10.800    1.000    8.800    0.000    0.000   14.000 
#    0.000    0.000    0.000    0.000    0.000    0.000 
#
# Total GULP energy -111422.980301 kJ/mol
# GULP energy per Si atom -5571.149015 kJ/mol
# Density = 2.510037 g / cm^3
# Si number density = 25.157631 Si / 1000 Ang^3
#
#
#
# Elastic Constant Matrix: (Units=GPa)
#
#
# Indices 1 2 3 4 5 6 
#
# 1 196.2776 91.1196 56.8041 0.0000 0.0000 0.0000
# 2 91.1196 173.7207 56.3387 0.0000 0.0000 0.0000
# 3 56.8041 56.3387 74.8386 0.0000 0.0000 0.0000
# 4 0.0000 0.0000 0.0000 17.8957 0.0000 0.0000
# 5 0.0000 0.0000 0.0000 0.0000 40.4677 0.0000
# 6 0.0000 0.0000 0.0000 0.0000 0.0000 55.6719
#
#
#
# Elastic Compliance Matrix: (Units=1/GPa)
#
#
# Indices 1 2 3 4 5 6 
#
# 1 0.007388 -0.002721 -0.003559 0.000000 0.000000 0.000000
# 2 -0.002721 0.008618 -0.004422 0.000000 0.000000 0.000000
# 3 -0.003559 -0.004422 0.019393 0.000000 0.000000 0.000000
# 4 0.000000 0.000000 0.000000 0.055879 0.000000 0.000000
# 5 0.000000 0.000000 0.000000 0.000000 0.024711 0.000000
# 6 0.000000 0.000000 0.000000 0.000000 0.000000 0.017962
#
#
# Mechanical properties :
#
#
# Convention : Reuss Voigt Hill
#
# Bulk Modulus (GPa) = 71.46142 94.81796 83.13969
# Shear Modulus (GPa) = 31.24593 38.84537 35.04565
#
# Velocity S-wave (km/s) = 3.52803 3.93374 3.73640
# Velocity P-wave (km/s) = 6.71291 7.64224 7.19260
#
# Compressibility (1/GPa) = 0.01399356
#
# Stress axis : x y z
#
# Youngs Moduli (GPa) = 135.35343 116.04109 51.56537
#
# Poissons Ratio (x) = 0.31573 0.18354
# Poissons Ratio (y) = 0.36827 0.22803
# Poissons Ratio (z) = 0.48179 0.51316
#
# Static dielectric constant tensor:
#      x y z
#    x 2.190610 0.000000 0.000000 
#    y 0.000000 2.049970 0.000000 
#    z 0.000000 0.000000 2.006180 
# 
# From -- ./inp_files/13868.got.cif
#   From: 2010.05.17/outbox.cif.g08.bks.cpg/sg43_7_cif.got.tgz:13868.got - 2010.06.03 19:21:55.
