data_PCOD9371253
_publ_section_title
;
Structure prediction by ZEFSAII (Michael W. Deem and Ramdas Pophale) SiO2 
 PCOD9371253
Probable space group: F D D 2
;
_chemical_formula_sum "Si O2"
_cell_formula_units_Z 80
_cell_length_a 11.115785
_cell_length_b 23.078400
_cell_length_c 12.943303
_cell_angle_alpha 90.000000
_cell_angle_beta 90.000000
_cell_angle_gamma 90.000000
_cell_volume 3320.404185
_symmetry_space_group_name_H-M "F D D 2"
_symmetry_group_IT_number 43
_symmetry_cell_setting 'orthorhombic'
loop_
_space_group_symop_operation_xyz
x,y,z
-x,-y,z
1/4-x,1/4+y,1/4+z
1/4+x,1/4-y,1/4+z
x,1/2+y,1/2+z
-x,1/2-y,1/2+z
1/4-x,3/4+y,3/4+z
1/4+x,3/4-y,3/4+z
1/2+x,y,1/2+z
1/2-x,-y,1/2+z
3/4-x,1/4+y,3/4+z
3/4+x,1/4-y,3/4+z
1/2+x,1/2+y,z
1/2-x,1/2-y,z
3/4-x,3/4+y,1/4+z
3/4+x,3/4-y,1/4+z
loop_
_atom_site_type_symbol
_atom_site_label
_atom_site_fract_x
_atom_site_fract_y
_atom_site_fract_z
Si Si1 0.750000 0.750000 0.540920
Si Si2 0.790764 0.566524 0.490858
Si Si3 0.359968 0.110488 0.861568
Si Si4 0.500000 0.000000 0.440207
Si Si5 0.347744 0.635590 0.583804
Si Si6 0.288363 0.927808 0.752446
O O1 0.803220 0.804694 0.604175
O O2 0.865330 0.727638 0.478557
O O3 0.679370 0.583923 0.563566
O O4 0.753467 0.562486 0.370228
O O5 0.880357 0.620448 0.503534
O O6 0.880447 0.513127 0.506006
O O7 0.236049 0.103265 0.799378
O O8 0.299966 0.114841 0.973922
O O9 0.463098 0.945041 0.370680
O O10 0.313880 0.586605 0.668753
#
# Coordination Sequence:
#
# PCOD9371253 Si02
#       6
#     8  16  16   8  16  16
#     4  10  22  42  66  94 134 184 230 280 354 434
#     4  10  21  42  66  94 134 180 233 289 347 426
#     4  11  23  42  66  97 136 176 227 292 349 412
#     4  10  22  42  66  94 134 184 230 280 354 434
#     4  11  23  42  66  97 136 176 227 292 349 412
#     4  10  21  42  66  94 134 180 233 289 347 426
#
# _framework density 24.093451999999999
#
# number of rings (size 3 to 8) (size 9 to 14) (size 15 to 20)
#    0.000    1.600    0.000    6.000    0.000    0.000 
#    0.000   61.000    0.000    0.000    0.000    0.000 
#    0.000    0.000    0.000    0.000    0.000    0.000 
#
# Total GULP energy -111558.263665 kJ/mol
# GULP energy per Si atom -5577.913183 kJ/mol
# Density = 2.403861 g / cm^3
# Si number density = 24.093452 Si / 1000 Ang^3
#
#
#
# Elastic Constant Matrix: (Units=GPa)
#
#
# Indices 1 2 3 4 5 6 
#
# 1 142.8982 33.6434 34.7632 0.0000 0.0000 0.0000
# 2 33.6434 87.0529 39.9115 0.0000 0.0000 0.0000
# 3 34.7632 39.9115 136.6723 0.0000 0.0000 0.0000
# 4 0.0000 0.0000 0.0000 25.6228 0.0000 0.0000
# 5 0.0000 0.0000 0.0000 0.0000 85.4297 0.0000
# 6 0.0000 0.0000 0.0000 0.0000 0.0000 39.5931
#
#
#
# Elastic Compliance Matrix: (Units=1/GPa)
#
#
# Indices 1 2 3 4 5 6 
#
# 1 0.007890 -0.002458 -0.001289 0.000000 0.000000 0.000000
# 2 -0.002458 0.014029 -0.003471 0.000000 0.000000 0.000000
# 3 -0.001289 -0.003471 0.008658 0.000000 0.000000 0.000000
# 4 0.000000 0.000000 0.000000 0.039028 0.000000 0.000000
# 5 0.000000 0.000000 0.000000 0.000000 0.011706 0.000000
# 6 0.000000 0.000000 0.000000 0.000000 0.000000 0.025257
#
#
# Mechanical properties :
#
#
# Convention : Reuss Voigt Hill
#
# Bulk Modulus (GPa) = 61.95832 64.80662 63.38247
# Shear Modulus (GPa) = 39.56142 47.34948 43.45545
#
# Velocity S-wave (km/s) = 4.05655 4.43791 4.25151
# Velocity P-wave (km/s) = 6.90742 7.29497 7.10384
#
# Compressibility (1/GPa) = 0.01613988
#
# Stress axis : x y z
#
# Youngs Moduli (GPa) = 126.73677 71.28114 115.49484
#
# Poissons Ratio (x) = 0.17524 0.14888
# Poissons Ratio (y) = 0.31157 0.40094
# Poissons Ratio (z) = 0.16337 0.24745
#
# Static dielectric constant tensor:
#      x y z
#    x 1.711460 0.000000 0.000000 
#    y 0.000000 1.918540 0.000000 
#    z 0.000000 0.000000 1.946660 
# 
# From -- ./inp_files/9566.got.cif
#   From: 2010.05.17/outbox.cif.g08.bks.cpg/sg43_5_cif.got.tgz:9566.got - 2010.06.03 19:21:55.
