data_PCOD9371128
_publ_section_title
;
Structure prediction by ZEFSAII (Michael W. Deem and Ramdas Pophale) SiO2 
 PCOD9371128
Probable space group: F D D 2
;
_chemical_formula_sum "Si O2"
_cell_formula_units_Z 128
_cell_length_a 10.797396
_cell_length_b 23.239681
_cell_length_c 20.788250
_cell_angle_alpha 90.000000
_cell_angle_beta 90.000000
_cell_angle_gamma 90.000000
_cell_volume 5216.354800
_symmetry_space_group_name_H-M "F D D 2"
_symmetry_group_IT_number 43
_symmetry_cell_setting 'orthorhombic'
loop_
_space_group_symop_operation_xyz
x,y,z
-x,-y,z
1/4-x,1/4+y,1/4+z
1/4+x,1/4-y,1/4+z
x,1/2+y,1/2+z
-x,1/2-y,1/2+z
1/4-x,3/4+y,3/4+z
1/4+x,3/4-y,3/4+z
1/2+x,y,1/2+z
1/2-x,-y,1/2+z
3/4-x,1/4+y,3/4+z
3/4+x,1/4-y,3/4+z
1/2+x,1/2+y,z
1/2-x,1/2-y,z
3/4-x,3/4+y,1/4+z
3/4+x,3/4-y,1/4+z
loop_
_atom_site_type_symbol
_atom_site_label
_atom_site_fract_x
_atom_site_fract_y
_atom_site_fract_z
Si Si1 0.854552 0.488993 0.727240
Si Si2 0.776306 0.044764 0.453216
Si Si3 0.689433 0.630397 0.263152
Si Si4 0.040283 0.562971 0.081023
Si Si5 0.581832 0.106709 0.385418
Si Si6 0.031196 0.847723 0.438920
Si Si7 0.824143 0.417128 0.955573
Si Si8 0.356720 0.432195 0.084975
O O1 0.823677 0.437202 0.776067
O O2 0.769031 0.545466 0.733910
O O3 0.843328 0.464852 0.652990
O O4 0.000000 0.500000 0.735799
O O5 0.670898 0.052636 0.397823
O O6 0.713549 0.039669 0.524157
O O7 0.870428 0.099727 0.454401
O O8 0.836788 0.983636 0.439249
O O9 0.794886 0.630798 0.208298
O O10 0.564777 0.651480 0.226727
O O11 0.750925 0.672367 0.315123
O O12 0.143628 0.562978 0.135080
O O13 0.096916 0.594359 0.020245
O O14 0.000000 0.500000 0.061843
O O15 0.922372 0.595435 0.107811
O O16 0.457039 0.118481 0.345257
O O17 0.906878 0.877149 0.409978
#
# Coordination Sequence:
#
# PCOD9371128 Si02
#       8
#    16  16  16  16  16  16  16  16
#     4  11  22  41  67  96 135 174 222 284 344 411
#     4  10  22  39  66  97 135 177 227 286 340 411
#     4  10  23  39  66  97 136 170 223 288 344 402
#     4  11  22  39  67  99 124 169 230 279 327 409
#     4   9  20  39  59  93 132 169 218 279 336 401
#     4  11  23  40  69  94 136 176 215 286 346 402
#     4  12  23  39  68 100 135 173 227 283 349 411
#     4  10  21  39  70  99 125 177 237 274 333 409
#
# _framework density 24.538208999999998
#
# number of rings (size 3 to 8) (size 9 to 14) (size 15 to 20)
#    0.000    1.500    1.250    4.875    3.500    1.500 
#    0.000    0.000   38.500    0.000    0.000    0.000 
#    0.000    0.000    0.000    0.000    0.000    0.000 
#
# Total GULP energy -178536.944548 kJ/mol
# GULP energy per Si atom -5579.279517 kJ/mol
# Density = 2.448236 g / cm^3
# Si number density = 24.538209 Si / 1000 Ang^3
#
#
#
# Elastic Constant Matrix: (Units=GPa)
#
#
# Indices 1 2 3 4 5 6 
#
# 1 108.6758 18.8297 11.7206 0.0000 0.0000 0.0000
# 2 18.8297 108.4455 2.4999 0.0000 0.0000 0.0000
# 3 11.7206 2.4999 31.3397 0.0000 0.0000 0.0000
# 4 0.0000 0.0000 0.0000 27.7536 0.0000 0.0000
# 5 0.0000 0.0000 0.0000 0.0000 38.5550 0.0000
# 6 0.0000 0.0000 0.0000 0.0000 0.0000 39.0705
#
#
#
# Elastic Compliance Matrix: (Units=1/GPa)
#
#
# Indices 1 2 3 4 5 6 
#
# 1 0.009868 -0.001631 -0.003560 0.000000 0.000000 0.000000
# 2 -0.001631 0.009508 -0.000148 0.000000 0.000000 0.000000
# 3 -0.003560 -0.000148 0.033252 0.000000 0.000000 0.000000
# 4 0.000000 0.000000 0.000000 0.036031 0.000000 0.000000
# 5 0.000000 0.000000 0.000000 0.000000 0.025937 0.000000
# 6 0.000000 0.000000 0.000000 0.000000 0.000000 0.025595
#
#
# Mechanical properties :
#
#
# Convention : Reuss Voigt Hill
#
# Bulk Modulus (GPa) = 23.83925 34.95128 29.39526
# Shear Modulus (GPa) = 30.32984 35.43652 32.88318
#
# Velocity S-wave (km/s) = 3.51953 3.80430 3.66468
# Velocity P-wave (km/s) = 5.12371 5.79409 5.46918
#
# Compressibility (1/GPa) = 0.04194764
#
# Stress axis : x y z
#
# Youngs Moduli (GPa) = 101.33415 105.17561 30.07358
#
# Poissons Ratio (x) = 0.17158 0.10708
# Poissons Ratio (y) = 0.16532 0.00446
# Poissons Ratio (z) = 0.36080 0.01560
#
# Static dielectric constant tensor:
#      x y z
#    x 2.059570 0.000000 0.000000 
#    y 0.000000 3.006190 0.000000 
#    z 0.000000 0.000000 2.184900 
# 
# From -- ./inp_files/21339.got.cif
#   From: 2010.05.17/outbox.cif.g08.bks.cpg/sg43_11_cif.got.tgz:21339.got - 2010.06.03 19:21:55.
