data_PCOD9371390
_publ_section_title
;
Structure prediction by ZEFSAII (Michael W. Deem and Ramdas Pophale) SiO2 
 PCOD9371390
Probable space group: F D D 2
;
_chemical_formula_sum "Si O2"
_cell_formula_units_Z 120
_cell_length_a 19.177113
_cell_length_b 10.765649
_cell_length_c 25.742427
_cell_angle_alpha 90.000000
_cell_angle_beta 90.000000
_cell_angle_gamma 90.000000
_cell_volume 5314.628759
_symmetry_space_group_name_H-M "F D D 2"
_symmetry_group_IT_number 43
_symmetry_cell_setting 'orthorhombic'
loop_
_space_group_symop_operation_xyz
x,y,z
-x,-y,z
1/4-x,1/4+y,1/4+z
1/4+x,1/4-y,1/4+z
x,1/2+y,1/2+z
-x,1/2-y,1/2+z
1/4-x,3/4+y,3/4+z
1/4+x,3/4-y,3/4+z
1/2+x,y,1/2+z
1/2-x,-y,1/2+z
3/4-x,1/4+y,3/4+z
3/4+x,1/4-y,3/4+z
1/2+x,1/2+y,z
1/2-x,1/2-y,z
3/4-x,3/4+y,1/4+z
3/4+x,3/4-y,1/4+z
loop_
_atom_site_type_symbol
_atom_site_label
_atom_site_fract_x
_atom_site_fract_y
_atom_site_fract_z
Si Si1 0.193769 0.992698 0.257220
Si Si2 0.334011 0.394264 0.719762
Si Si3 0.750000 0.250000 0.736835
Si Si4 0.135287 0.618843 0.926466
Si Si5 0.266573 0.024931 0.482467
Si Si6 0.923084 0.448153 0.818389
Si Si7 0.063862 0.589002 0.306705
Si Si8 0.379171 0.380108 0.917769
O O1 0.223654 0.129821 0.268148
O O2 0.135788 0.954141 0.299197
O O3 0.259816 0.906008 0.247210
O O4 0.152517 0.985042 0.202791
O O5 0.351885 0.256887 0.701342
O O6 0.387415 0.456089 0.760339
O O7 0.346314 0.486569 0.672041
O O8 0.811817 0.202768 0.700060
O O9 0.113081 0.617907 0.866858
O O10 0.215087 0.604303 0.945160
O O11 0.315409 0.111478 0.517938
O O12 0.221420 0.957241 0.527901
O O13 0.307816 0.927532 0.445338
O O14 0.000000 0.500000 0.831743
O O15 0.112780 0.596334 0.356801
O O16 0.000000 0.500000 0.319794
#
# Coordination Sequence:
#
# PCOD9371390 Si02
#       8
#    16  16   8  16  16  16  16  16
#     4  11  23  44  65 100 136 179 231 288 340 427
#     4  10  24  43  65 101 139 179 240 294 338 434
#     4  10  22  38  62  96 134 178 218 282 344 406
#     4  11  26  44  72  99 140 187 236 289 355 425
#     4  11  25  46  66 107 140 183 239 299 345 433
#     4  12  25  44  71  98 140 187 229 293 362 418
#     4  11  23  41  69 100 137 190 231 286 363 414
#     4  11  22  40  68  98 141 181 235 296 353 417
#
# _framework density 22.579187999999998
#
# number of rings (size 3 to 8) (size 9 to 14) (size 15 to 20)
#    0.000    1.067    4.667    1.200    7.467    0.000 
#    0.000    1.333    2.933    0.000    0.000    0.000 
#    0.000    0.000    0.000    0.000    0.000    0.000 
#
# Total GULP energy -167311.730232 kJ/mol
# GULP energy per Si atom -5577.057674 kJ/mol
# Density = 2.252780 g / cm^3
# Si number density = 22.579188 Si / 1000 Ang^3
#
#
#
# Elastic Constant Matrix: (Units=GPa)
#
#
# Indices 1 2 3 4 5 6 
#
# 1 93.0327 18.3795 24.6839 0.0000 0.0000 0.0000
# 2 18.3795 67.0637 8.6022 0.0000 0.0000 0.0000
# 3 24.6839 8.6022 86.5866 0.0000 0.0000 0.0000
# 4 0.0000 0.0000 0.0000 21.0330 0.0000 0.0000
# 5 0.0000 0.0000 0.0000 0.0000 28.5904 0.0000
# 6 0.0000 0.0000 0.0000 0.0000 0.0000 15.9831
#
#
#
# Elastic Compliance Matrix: (Units=1/GPa)
#
#
# Indices 1 2 3 4 5 6 
#
# 1 0.012171 -0.002928 -0.003179 0.000000 0.000000 0.000000
# 2 -0.002928 0.015808 -0.000736 0.000000 0.000000 0.000000
# 3 -0.003179 -0.000736 0.012528 0.000000 0.000000 0.000000
# 4 0.000000 0.000000 0.000000 0.047544 0.000000 0.000000
# 5 0.000000 0.000000 0.000000 0.000000 0.034977 0.000000
# 6 0.000000 0.000000 0.000000 0.000000 0.000000 0.062566
#
#
# Mechanical properties :
#
#
# Convention : Reuss Voigt Hill
#
# Bulk Modulus (GPa) = 37.28228 38.89046 38.08637
# Shear Modulus (GPa) = 24.01309 26.12246 25.06778
#
# Velocity S-wave (km/s) = 3.26468 3.40505 3.33561
# Velocity P-wave (km/s) = 5.54603 5.72019 5.63379
#
# Compressibility (1/GPa) = 0.02682240
#
# Stress axis : x y z
#
# Youngs Moduli (GPa) = 82.16443 63.25924 79.81848
#
# Poissons Ratio (x) = 0.18521 0.25372
# Poissons Ratio (y) = 0.24056 0.05873
# Poissons Ratio (z) = 0.26118 0.04655
#
# Static dielectric constant tensor:
#      x y z
#    x 1.932740 0.000000 0.000000 
#    y 0.000000 1.899040 0.000000 
#    z 0.000000 0.000000 1.799080 
# 
# From -- ./inp_files/22470.got.cif
#   From: 2010.05.17/outbox.cif.g08.bks.cpg/sg43_12_cif.got.tgz:22470.got - 2010.06.03 19:21:55.
