data_PCOD9371939
_publ_section_title
;
Structure prediction by ZEFSAII (Michael W. Deem and Ramdas Pophale) SiO2 
 PCOD9371939
Probable space group: F D D 2
;
_chemical_formula_sum "Si O2"
_cell_formula_units_Z 48
_cell_length_a 22.036909
_cell_length_b 4.765823
_cell_length_c 15.151285
_cell_angle_alpha 90.000000
_cell_angle_beta 90.000000
_cell_angle_gamma 90.000000
_cell_volume 1591.248673
_symmetry_space_group_name_H-M "F D D 2"
_symmetry_group_IT_number 43
_symmetry_cell_setting 'orthorhombic'
loop_
_space_group_symop_operation_xyz
x,y,z
-x,-y,z
1/4-x,1/4+y,1/4+z
1/4+x,1/4-y,1/4+z
x,1/2+y,1/2+z
-x,1/2-y,1/2+z
1/4-x,3/4+y,3/4+z
1/4+x,3/4-y,3/4+z
1/2+x,y,1/2+z
1/2-x,-y,1/2+z
3/4-x,1/4+y,3/4+z
3/4+x,1/4-y,3/4+z
1/2+x,1/2+y,z
1/2-x,1/2-y,z
3/4-x,3/4+y,1/4+z
3/4+x,3/4-y,1/4+z
loop_
_atom_site_type_symbol
_atom_site_label
_atom_site_fract_x
_atom_site_fract_y
_atom_site_fract_z
Si Si1 0.166502 0.836505 0.034950
Si Si2 0.683230 0.367053 0.392848
Si Si3 0.188184 0.340540 0.156898
O O1 0.191120 0.654648 0.122227
O O2 0.187976 0.629842 0.957764
O O3 0.187051 0.134811 0.073096
O O4 0.095850 0.746315 0.053590
O O5 0.750000 0.250000 0.378665
O O6 0.635796 0.116354 0.430644
O O7 0.250000 0.250000 0.205902
#
# Coordination Sequence:
#
# PCOD9371939 Si02
#       3
#    16  16  16
#     4  10  24  43  74 104 151 199 259 314 391 470
#     4  10  25  47  76 113 152 207 262 325 396 480
#     4  10  23  45  71 110 146 204 254 322 388 468
#
# _framework density 30.16499
#
# number of rings (size 3 to 8) (size 9 to 14) (size 15 to 20)
#    2.000    0.000    0.000    2.000    4.667    1.333 
#    6.000    0.000    0.000    0.000    0.000    0.000 
#    0.000    0.000    0.000    0.000    0.000    0.000 
#
# Total GULP energy -66842.271487 kJ/mol
# GULP energy per Si atom -5570.189291 kJ/mol
# Density = 3.009633 g / cm^3
# Si number density = 30.164990 Si / 1000 Ang^3
#
#
#
# Elastic Constant Matrix: (Units=GPa)
#
#
# Indices 1 2 3 4 5 6 
#
# 1 304.5616 49.0671 51.7055 0.0013 -0.0003 -0.0116
# 2 49.0671 145.8916 32.0991 0.0098 -0.0008 -0.0274
# 3 51.7055 32.0991 30.5747 0.0014 0.0002 -0.0103
# 4 0.0013 0.0098 0.0014 -4.6920 0.0001 -0.0165
# 5 -0.0003 -0.0008 0.0002 0.0001 54.8381 -0.0232
# 6 -0.0116 -0.0274 -0.0103 -0.0165 -0.0232 912.3927
#
#
#
# Elastic Compliance Matrix: (Units=1/GPa)
#
#
# Indices 1 2 3 4 5 6 
#
# 1 0.004611 0.000214 -0.008023 -0.000001 0.000000 0.000000
# 2 0.000214 0.008923 -0.009731 0.000016 0.000000 0.000000
# 3 -0.008023 -0.009731 0.056490 -0.000005 0.000000 0.000000
# 4 -0.000001 0.000016 -0.000005 -0.213127 0.000000 -0.000004
# 5 0.000000 0.000000 0.000000 0.000000 0.018235 0.000000
# 6 0.000000 0.000000 0.000000 -0.000004 0.000000 0.001096
#
#
# Mechanical properties :
#
#
# Convention : Reuss Voigt Hill
#
# Bulk Modulus (GPa) = 28.61555 82.97459 55.79507
# Shear Modulus (GPa) = -64.89719 215.71817 75.41049
#
# Velocity S-wave (km/s) = -4.64336 8.46570 5.00536
# Velocity P-wave (km/s) = 4.38643 11.09612 7.20705
#
# Compressibility (1/GPa) = 0.03494603
#
# Stress axis : x y z
#
# Youngs Moduli (GPa) = 216.87895 112.06687 17.70236
#
# Poissons Ratio (x) = -0.02402 0.14202
# Poissons Ratio (y) = -0.04649 0.17226
# Poissons Ratio (z) = 1.73993 1.09048
#
# Static dielectric constant tensor:
#      x y z
#    x 2.804300 0.000000 0.000000 
#    y 0.000000 3.587640 -0.000010 
#    z 0.000000 -0.000010 2.879200 
# 
# From -- ./inp_files/18133.got.cif
#   From: 2010.05.17/outbox.cif.g08.bks.cpg/sg43_10_cif.got.tgz:18133.got - 2010.06.03 19:21:55.
