data_PCOD9371846
_publ_section_title
;
Structure prediction by ZEFSAII (Michael W. Deem and Ramdas Pophale) SiO2 
 PCOD9371846
Probable space group: F D D 2
;
_chemical_formula_sum "Si O2"
_cell_formula_units_Z 80
_cell_length_a 19.427321
_cell_length_b 9.898117
_cell_length_c 15.489642
_cell_angle_alpha 90.000000
_cell_angle_beta 90.000000
_cell_angle_gamma 90.000000
_cell_volume 2978.563612
_symmetry_space_group_name_H-M "F D D 2"
_symmetry_group_IT_number 43
_symmetry_cell_setting 'orthorhombic'
loop_
_space_group_symop_operation_xyz
x,y,z
-x,-y,z
1/4-x,1/4+y,1/4+z
1/4+x,1/4-y,1/4+z
x,1/2+y,1/2+z
-x,1/2-y,1/2+z
1/4-x,3/4+y,3/4+z
1/4+x,3/4-y,3/4+z
1/2+x,y,1/2+z
1/2-x,-y,1/2+z
3/4-x,1/4+y,3/4+z
3/4+x,1/4-y,3/4+z
1/2+x,1/2+y,z
1/2-x,1/2-y,z
3/4-x,3/4+y,1/4+z
3/4+x,3/4-y,1/4+z
loop_
_atom_site_type_symbol
_atom_site_label
_atom_site_fract_x
_atom_site_fract_y
_atom_site_fract_z
Si Si1 0.605150 0.564915 0.496450
Si Si2 0.750000 0.250000 0.393886
Si Si3 0.370854 0.105441 0.248760
Si Si4 0.136298 0.114028 0.177236
Si Si5 0.527424 0.212509 0.340680
Si Si6 0.000000 0.500000 0.851566
O O1 0.551103 0.576707 0.576328
O O2 0.627851 0.717392 0.468104
O O3 0.660295 0.447977 0.522658
O O4 0.565093 0.510234 0.414122
O O5 0.802411 0.327372 0.458836
O O6 0.344493 0.075407 0.345757
O O7 0.360468 0.267748 0.245594
O O8 0.319713 0.038423 0.180209
O O9 0.208887 0.108889 0.124273
O O10 0.502692 0.358145 0.306140
#
# Coordination Sequence:
#
# PCOD9371846 Si02
#       6
#    16   8  16  16  16   8
#     4   9  21  41  70  95 132 180 236 282 338 426
#     4   9  22  46  74  98 133 196 244 271 354 440
#     4  11  26  44  68 103 142 182 234 291 361 417
#     4  11  26  44  67 106 142 178 232 299 355 410
#     4  10  23  42  69  92 138 184 229 284 346 420
#     4   9  20  38  66  92 123 174 242 271 330 414
#
# _framework density 26.858584
#
# number of rings (size 3 to 8) (size 9 to 14) (size 15 to 20)
#    0.000    2.000    0.000    0.600   19.600    1.600 
#    0.000    0.000    0.000    0.000    0.000    0.000 
#    0.000    0.000    0.000    0.000    0.000    0.000 
#
# Total GULP energy -111524.501603 kJ/mol
# GULP energy per Si atom -5576.225080 kJ/mol
# Density = 2.679745 g / cm^3
# Si number density = 26.858584 Si / 1000 Ang^3
#
#
#
# Elastic Constant Matrix: (Units=GPa)
#
#
# Indices 1 2 3 4 5 6 
#
# 1 49.5447 0.8294 12.1469 0.0000 0.0000 0.0000
# 2 0.8294 104.8113 -4.5924 0.0000 0.0000 0.0000
# 3 12.1469 -4.5924 98.1882 0.0000 0.0000 0.0000
# 4 0.0000 0.0000 0.0000 43.0220 0.0000 0.0000
# 5 0.0000 0.0000 0.0000 0.0000 18.5399 0.0000
# 6 0.0000 0.0000 0.0000 0.0000 0.0000 38.0369
#
#
#
# Elastic Compliance Matrix: (Units=1/GPa)
#
#
# Indices 1 2 3 4 5 6 
#
# 1 0.020823 -0.000278 -0.002589 0.000000 0.000000 0.000000
# 2 -0.000278 0.009564 0.000482 0.000000 0.000000 0.000000
# 3 -0.002589 0.000482 0.010527 0.000000 0.000000 0.000000
# 4 0.000000 0.000000 0.000000 0.023244 0.000000 0.000000
# 5 0.000000 0.000000 0.000000 0.000000 0.053938 0.000000
# 6 0.000000 0.000000 0.000000 0.000000 0.000000 0.026290
#
#
# Mechanical properties :
#
#
# Convention : Reuss Voigt Hill
#
# Bulk Modulus (GPa) = 27.66729 29.92357 28.79543
# Shear Modulus (GPa) = 31.01624 36.19710 33.60667
#
# Velocity S-wave (km/s) = 3.40192 3.67508 3.54113
# Velocity P-wave (km/s) = 5.07486 5.40126 5.24060
#
# Compressibility (1/GPa) = 0.03614376
#
# Stress axis : x y z
#
# Youngs Moduli (GPa) = 48.02331 104.55589 94.99068
#
# Poissons Ratio (x) = 0.02909 0.24594
# Poissons Ratio (y) = 0.01336 -0.04576
# Poissons Ratio (z) = 0.12434 -0.05037
#
# Static dielectric constant tensor:
#      x y z
#    x 2.314170 0.000000 0.000000 
#    y 0.000000 2.189150 0.000000 
#    z 0.000000 0.000000 2.130530 
# 
# From -- ./inp_files/11193.got.cif
#   From: 2010.05.17/outbox.cif.g08.bks.cpg/sg43_6_cif.got.tgz:11193.got - 2010.06.03 19:21:55.
