data_PCOD9371998
_publ_section_title
;
Structure prediction by ZEFSAII (Michael W. Deem and Ramdas Pophale) SiO2 
 PCOD9371998
Probable space group: F D D 2
;
_chemical_formula_sum "Si O2"
_cell_formula_units_Z 96
_cell_length_a 22.526864
_cell_length_b 17.002702
_cell_length_c 9.858431
_cell_angle_alpha 90.000000
_cell_angle_beta 90.000000
_cell_angle_gamma 90.000000
_cell_volume 3775.952144
_symmetry_space_group_name_H-M "F D D 2"
_symmetry_group_IT_number 43
_symmetry_cell_setting 'orthorhombic'
loop_
_space_group_symop_operation_xyz
x,y,z
-x,-y,z
1/4-x,1/4+y,1/4+z
1/4+x,1/4-y,1/4+z
x,1/2+y,1/2+z
-x,1/2-y,1/2+z
1/4-x,3/4+y,3/4+z
1/4+x,3/4-y,3/4+z
1/2+x,y,1/2+z
1/2-x,-y,1/2+z
3/4-x,1/4+y,3/4+z
3/4+x,1/4-y,3/4+z
1/2+x,1/2+y,z
1/2-x,1/2-y,z
3/4-x,3/4+y,1/4+z
3/4+x,3/4-y,1/4+z
loop_
_atom_site_type_symbol
_atom_site_label
_atom_site_fract_x
_atom_site_fract_y
_atom_site_fract_z
Si Si1 0.864213 0.184581 0.832130
Si Si2 0.488320 0.630019 0.853371
Si Si3 0.448696 0.267761 0.647127
Si Si4 0.885240 0.916994 0.549005
Si Si5 0.250000 0.250000 0.332865
Si Si6 0.250000 0.250000 0.874313
Si Si7 0.414545 0.751653 0.561279
O O1 0.930993 0.182300 0.887110
O O2 0.811162 0.229785 0.908323
O O3 0.873950 0.225422 0.687718
O O4 0.848555 0.093952 0.805667
O O5 0.539012 0.686758 0.792769
O O6 0.479695 0.570559 0.724837
O O7 0.496280 0.574148 0.981392
O O8 0.412193 0.189979 0.685529
O O9 0.409571 0.329063 0.561388
O O10 0.515325 0.257638 0.591383
O O11 0.856095 0.945109 0.690570
O O12 0.944510 0.970446 0.538168
#
# Coordination Sequence:
#
# PCOD9371998 Si02
#       7
#    16  16  16  16   8   8  16
#     4  11  19  33  58  89 130 161 216 270 329 386
#     4   9  17  30  49  89 118 147 203 262 319 362
#     4  10  24  35  65  95 130 170 220 272 338 384
#     4  11  20  37  60  97 131 164 219 278 324 403
#     4  11  18  30  56  86 117 166 186 265 336 370
#     4   9  16  28  56  88 117 156 202 273 332 346
#     4  11  21  38  64 100 131 170 221 287 331 387
#
# _framework density 25.424050999999999
#
# number of rings (size 3 to 8) (size 9 to 14) (size 15 to 20)
#    0.000    1.667    3.333    4.000    4.667    0.000 
#    0.000    0.000   11.000    0.000    0.000    0.000 
#    0.000    0.000    0.000    0.000    0.000    0.000 
#
# Total GULP energy -134326.617150 kJ/mol
# GULP energy per Si atom -5596.942381 kJ/mol
# Density = 2.536618 g / cm^3
# Si number density = 25.424051 Si / 1000 Ang^3
#
#
#
# Elastic Constant Matrix: (Units=GPa)
#
#
# Indices 1 2 3 4 5 6 
#
# 1 173.2541 70.4711 29.4647 0.0000 0.0000 0.0000
# 2 70.4711 115.0351 10.6656 0.0000 0.0000 0.0000
# 3 29.4647 10.6656 39.7001 0.0000 0.0000 0.0000
# 4 0.0000 0.0000 0.0000 24.2976 0.0000 0.0000
# 5 0.0000 0.0000 0.0000 0.0000 39.0475 0.0000
# 6 0.0000 0.0000 0.0000 0.0000 0.0000 66.1957
#
#
#
# Elastic Compliance Matrix: (Units=1/GPa)
#
#
# Indices 1 2 3 4 5 6 
#
# 1 0.008584 -0.004787 -0.005085 0.000000 0.000000 0.000000
# 2 -0.004787 0.011585 0.000441 0.000000 0.000000 0.000000
# 3 -0.005085 0.000441 0.028844 0.000000 0.000000 0.000000
# 4 0.000000 0.000000 0.000000 0.041156 0.000000 0.000000
# 5 0.000000 0.000000 0.000000 0.000000 0.025610 0.000000
# 6 0.000000 0.000000 0.000000 0.000000 0.000000 0.015107
#
#
# Mechanical properties :
#
#
# Convention : Reuss Voigt Hill
#
# Bulk Modulus (GPa) = 33.16699 61.02133 47.09416
# Shear Modulus (GPa) = 31.28954 40.40069 35.84512
#
# Velocity S-wave (km/s) = 3.51195 3.99064 3.75892
# Velocity P-wave (km/s) = 5.43313 6.72957 6.11580
#
# Compressibility (1/GPa) = 0.03015046
#
# Stress axis : x y z
#
# Youngs Moduli (GPa) = 116.49993 86.32083 34.66902
#
# Poissons Ratio (x) = 0.41322 0.17628
# Poissons Ratio (y) = 0.55768 -0.01527
# Poissons Ratio (z) = 0.59236 -0.03803
#
# Static dielectric constant tensor:
#      x y z
#    x 2.084930 0.000000 0.000000 
#    y 0.000000 1.979320 0.000000 
#    z 0.000000 0.000000 2.076150 
# 
# From -- ./inp_files/6710.got.cif
#   From: 2010.05.17/outbox.cif.g08.bks.cpg/sg43_4_cif.got.tgz:6710.got - 2010.06.03 19:21:55.
