data_PCOD9371650
_publ_section_title
;
Structure prediction by ZEFSAII (Michael W. Deem and Ramdas Pophale) SiO2 
 PCOD9371650
Probable space group: F D D 2
;
_chemical_formula_sum "Si O2"
_cell_formula_units_Z 72
_cell_length_a 22.279747
_cell_length_b 12.791336
_cell_length_c 11.736100
_cell_angle_alpha 90.000000
_cell_angle_beta 90.000000
_cell_angle_gamma 90.000000
_cell_volume 3344.644497
_symmetry_space_group_name_H-M "F D D 2"
_symmetry_group_IT_number 43
_symmetry_cell_setting 'orthorhombic'
loop_
_space_group_symop_operation_xyz
x,y,z
-x,-y,z
1/4-x,1/4+y,1/4+z
1/4+x,1/4-y,1/4+z
x,1/2+y,1/2+z
-x,1/2-y,1/2+z
1/4-x,3/4+y,3/4+z
1/4+x,3/4-y,3/4+z
1/2+x,y,1/2+z
1/2-x,-y,1/2+z
3/4-x,1/4+y,3/4+z
3/4+x,1/4-y,3/4+z
1/2+x,1/2+y,z
1/2-x,1/2-y,z
3/4-x,3/4+y,1/4+z
3/4+x,3/4-y,1/4+z
loop_
_atom_site_type_symbol
_atom_site_label
_atom_site_fract_x
_atom_site_fract_y
_atom_site_fract_z
Si Si1 0.000000 0.500000 0.757140
Si Si2 0.339891 0.728990 0.186921
Si Si3 0.566546 0.093760 0.184744
Si Si4 0.817313 0.875362 0.021046
Si Si5 0.102534 0.647804 0.722665
O O1 0.953134 0.546093 0.850754
O O2 0.958395 0.417852 0.690705
O O3 0.392829 0.807747 0.213438
O O4 0.310850 0.677954 0.298760
O O5 0.361119 0.635523 0.104103
O O6 0.502775 0.113915 0.244229
O O7 0.593811 0.984287 0.227763
O O8 0.839978 0.884159 0.150193
O O9 0.840499 0.979970 0.961916
#
# Coordination Sequence:
#
# PCOD9371650 Si02
#       5
#     8  16  16  16  16
#     4   8  22  38  74  96 132 174 254 276 356 430
#     4  10  22  43  73 100 134 192 247 288 355 448
#     4  11  24  42  72 104 144 186 241 302 369 439
#     4  11  24  43  66 106 142 181 231 303 371 415
#     4  10  23  45  70 102 138 184 236 299 359 435
#
# _framework density 21.526951
#
# number of rings (size 3 to 8) (size 9 to 14) (size 15 to 20)
#    1.333    0.444    0.000    4.000    3.111    0.000 
#    0.000   11.111    0.000    0.000    0.000    0.000 
#    0.000    0.000    0.000    0.000    0.000    0.000 
#
# Total GULP energy -100224.825707 kJ/mol
# GULP energy per Si atom -5568.045873 kJ/mol
# Density = 2.147795 g / cm^3
# Si number density = 21.526951 Si / 1000 Ang^3
#
#
#
# Elastic Constant Matrix: (Units=GPa)
#
#
# Indices 1 2 3 4 5 6 
#
# 1 99.2271 51.6858 51.7895 0.0000 0.0000 0.0000
# 2 51.6858 121.8987 25.1551 0.0000 0.0000 0.0000
# 3 51.7895 25.1551 105.7821 0.0000 0.0000 0.0000
# 4 0.0000 0.0000 0.0000 18.9646 0.0000 0.0000
# 5 0.0000 0.0000 0.0000 0.0000 45.6087 0.0000
# 6 0.0000 0.0000 0.0000 0.0000 0.0000 32.6122
#
#
#
# Elastic Compliance Matrix: (Units=1/GPa)
#
#
# Indices 1 2 3 4 5 6 
#
# 1 0.016529 -0.005614 -0.006757 0.000000 0.000000 0.000000
# 2 -0.005614 0.010534 0.000244 0.000000 0.000000 0.000000
# 3 -0.006757 0.000244 0.012704 0.000000 0.000000 0.000000
# 4 0.000000 0.000000 0.000000 0.052730 0.000000 0.000000
# 5 0.000000 0.000000 0.000000 0.000000 0.021926 0.000000
# 6 0.000000 0.000000 0.000000 0.000000 0.000000 0.030663
#
#
# Mechanical properties :
#
#
# Convention : Reuss Voigt Hill
#
# Bulk Modulus (GPa) = 64.47047 64.90760 64.68904
# Shear Modulus (GPa) = 28.65151 32.65560 30.65355
#
# Velocity S-wave (km/s) = 3.65219 3.89905 3.77764
# Velocity P-wave (km/s) = 6.91364 7.10544 7.01020
#
# Compressibility (1/GPa) = 0.01551098
#
# Stress axis : x y z
#
# Youngs Moduli (GPa) = 60.49986 94.93427 78.71671
#
# Poissons Ratio (x) = 0.53295 0.53192
# Poissons Ratio (y) = 0.33964 -0.01918
# Poissons Ratio (z) = 0.40882 -0.02313
#
# Static dielectric constant tensor:
#      x y z
#    x 1.845850 0.000000 0.000000 
#    y 0.000000 1.762880 0.000000 
#    z 0.000000 0.000000 1.837570 
# 
# From -- ./inp_files/4101.got.cif
#   From: 2010.05.17/outbox.cif.g08.bks.cpg/sg43_3_cif.got.tgz:4101.got - 2010.06.03 19:21:55.
