data_PCOD9371176
_publ_section_title
;
Structure prediction by ZEFSAII (Michael W. Deem and Ramdas Pophale) SiO2 
 PCOD9371176
Probable space group: F D D 2
;
_chemical_formula_sum "Si O2"
_cell_formula_units_Z 96
_cell_length_a 18.240783
_cell_length_b 19.559168
_cell_length_c 11.922887
_cell_angle_alpha 90.000000
_cell_angle_beta 90.000000
_cell_angle_gamma 90.000000
_cell_volume 4253.782515
_symmetry_space_group_name_H-M "F D D 2"
_symmetry_group_IT_number 43
_symmetry_cell_setting 'orthorhombic'
loop_
_space_group_symop_operation_xyz
x,y,z
-x,-y,z
1/4-x,1/4+y,1/4+z
1/4+x,1/4-y,1/4+z
x,1/2+y,1/2+z
-x,1/2-y,1/2+z
1/4-x,3/4+y,3/4+z
1/4+x,3/4-y,3/4+z
1/2+x,y,1/2+z
1/2-x,-y,1/2+z
3/4-x,1/4+y,3/4+z
3/4+x,1/4-y,3/4+z
1/2+x,1/2+y,z
1/2-x,1/2-y,z
3/4-x,3/4+y,1/4+z
3/4+x,3/4-y,1/4+z
loop_
_atom_site_type_symbol
_atom_site_label
_atom_site_fract_x
_atom_site_fract_y
_atom_site_fract_z
Si Si1 0.000000 0.000000 0.561151
Si Si2 0.500000 0.500000 0.963226
Si Si3 0.270002 0.609319 0.373496
Si Si4 0.515082 0.357606 0.088186
Si Si5 0.531745 0.237059 0.918982
Si Si6 0.842558 0.507519 0.438461
Si Si7 0.893791 0.682981 0.801635
O O1 0.979910 0.067946 0.629873
O O2 0.074358 0.024866 0.502203
O O3 0.423705 0.491211 0.897512
O O4 0.506854 0.431609 0.036586
O O5 0.280293 0.578624 0.248913
O O6 0.218576 0.552134 0.426777
O O7 0.354897 0.632587 0.393325
O O8 0.438199 0.323727 0.125816
O O9 0.563748 0.353241 0.200676
O O10 0.543606 0.304181 0.993881
O O11 0.591131 0.230004 0.821643
O O12 0.451395 0.233056 0.861479
#
# Coordination Sequence:
#
# PCOD9371176 Si02
#       7
#     8   8  16  16  16  16  16
#     4   8  20  38  68 102 120 172 222 266 346 390
#     4  12  26  42  68  92 132 182 222 272 344 402
#     4   9  20  41  64  97 129 170 222 267 333 404
#     4  10  24  44  65  99 131 174 227 272 340 408
#     4  10  21  40  68  93 137 170 217 284 333 396
#     4  10  24  45  64  98 136 176 224 280 337 401
#     4   9  20  42  67  97 129 172 221 271 345 399
#
# _framework density 22.568151
#
# number of rings (size 3 to 8) (size 9 to 14) (size 15 to 20)
#    1.000    1.333    0.000    1.000    4.667    4.000 
#    3.000    8.333    0.000    0.000    0.000    0.000 
#    0.000    0.000    0.000    0.000    0.000    0.000 
#
# Total GULP energy -133611.053365 kJ/mol
# GULP energy per Si atom -5567.127224 kJ/mol
# Density = 2.251678 g / cm^3
# Si number density = 22.568151 Si / 1000 Ang^3
#
#
#
# Elastic Constant Matrix: (Units=GPa)
#
#
# Indices 1 2 3 4 5 6 
#
# 1 134.7355 17.5093 -5.7080 0.0000 0.0000 0.0000
# 2 17.5093 135.7319 9.2501 0.0000 0.0000 0.0000
# 3 -5.7080 9.2501 30.3581 0.0000 0.0000 0.0000
# 4 0.0000 0.0000 0.0000 25.8809 0.0000 0.0000
# 5 0.0000 0.0000 0.0000 0.0000 10.2461 0.0000
# 6 0.0000 0.0000 0.0000 0.0000 0.0000 -0.8900
#
#
#
# Elastic Compliance Matrix: (Units=1/GPa)
#
#
# Indices 1 2 3 4 5 6 
#
# 1 0.007641 -0.001107 0.001774 0.000000 0.000000 0.000000
# 2 -0.001107 0.007684 -0.002549 0.000000 0.000000 0.000000
# 3 0.001774 -0.002549 0.034050 0.000000 0.000000 0.000000
# 4 0.000000 0.000000 0.000000 0.038639 0.000000 0.000000
# 5 0.000000 0.000000 0.000000 0.000000 0.097598 0.000000
# 6 0.000000 0.000000 0.000000 0.000000 0.000000 -1.123599
#
#
# Mechanical properties :
#
#
# Convention : Reuss Voigt Hill
#
# Bulk Modulus (GPa) = 21.92448 38.10313 30.01380
# Shear Modulus (GPa) = -5.44059 25.69901 10.12921
#
# Velocity S-wave (km/s) = -1.55434 3.37817 2.12085
# Velocity P-wave (km/s) = 2.55237 5.66888 4.39607
#
# Compressibility (1/GPa) = 0.04561113
#
# Stress axis : x y z
#
# Youngs Moduli (GPa) = 130.87472 130.14143 29.36822
#
# Poissons Ratio (x) = 0.14401 -0.05209
# Poissons Ratio (y) = 0.14482 0.07487
# Poissons Ratio (z) = -0.23215 0.33177
#
# Static dielectric constant tensor:
#      x y z
#    x 1.938720 0.000000 0.000000 
#    y 0.000000 1.866770 0.000000 
#    z 0.000000 0.000000 1.845370 
# 
# From -- ./inp_files/7119.got.cif
#   From: 2010.05.17/outbox.cif.g08.bks.cpg/sg43_4_cif.got.tgz:7119.got - 2010.06.03 19:21:55.
