data_PCOD9371141
_publ_section_title
;
Structure prediction by ZEFSAII (Michael W. Deem and Ramdas Pophale) SiO2 
 PCOD9371141
Probable space group: F D D 2
;
_chemical_formula_sum "Si O2"
_cell_formula_units_Z 112
_cell_length_a 15.039038
_cell_length_b 12.375803
_cell_length_c 25.675929
_cell_angle_alpha 90.000000
_cell_angle_beta 90.000000
_cell_angle_gamma 90.000000
_cell_volume 4778.808311
_symmetry_space_group_name_H-M "F D D 2"
_symmetry_group_IT_number 43
_symmetry_cell_setting 'orthorhombic'
loop_
_space_group_symop_operation_xyz
x,y,z
-x,-y,z
1/4-x,1/4+y,1/4+z
1/4+x,1/4-y,1/4+z
x,1/2+y,1/2+z
-x,1/2-y,1/2+z
1/4-x,3/4+y,3/4+z
1/4+x,3/4-y,3/4+z
1/2+x,y,1/2+z
1/2-x,-y,1/2+z
3/4-x,1/4+y,3/4+z
3/4+x,1/4-y,3/4+z
1/2+x,1/2+y,z
1/2-x,1/2-y,z
3/4-x,3/4+y,1/4+z
3/4+x,3/4-y,1/4+z
loop_
_atom_site_type_symbol
_atom_site_label
_atom_site_fract_x
_atom_site_fract_y
_atom_site_fract_z
Si Si1 0.584562 0.921658 0.815170
Si Si2 0.648617 0.276144 0.543780
Si Si3 0.593494 0.047999 0.519000
Si Si4 0.135412 0.191771 0.156527
Si Si5 0.562471 0.812078 0.640041
Si Si6 0.147056 0.743489 0.237399
Si Si7 0.958504 0.766038 0.367505
O O1 0.618007 0.852138 0.767075
O O2 0.546991 0.834821 0.857479
O O3 0.500000 0.000000 0.803769
O O4 0.663223 0.994726 0.838452
O O5 0.750000 0.250000 0.528065
O O6 0.592077 0.177278 0.520371
O O7 0.645630 0.268703 0.606459
O O8 0.617133 0.391137 0.524256
O O9 0.670284 0.014268 0.559909
O O10 0.500000 0.000000 0.538239
O O11 0.609077 0.998707 0.461981
O O12 0.205282 0.094024 0.150160
O O13 0.036439 0.145714 0.146916
O O14 0.583676 0.733035 0.687892
O O15 0.635964 0.904916 0.642448
O O16 0.250000 0.750000 0.221707
#
# Coordination Sequence:
#
# PCOD9371141 Si02
#       7
#    16  16  16  16  16  16  16
#     4  10  23  43  65  91 129 168 210 261 315 376
#     4  11  24  44  64  93 130 163 208 266 315 372
#     4  11  24  41  64  93 124 166 214 263 313 372
#     4  11  22  40  66  92 122 168 214 255 313 377
#     4  11  23  40  61  94 130 165 205 261 315 370
#     4  12  25  42  65  95 128 169 209 255 317 380
#     4  10  21  40  63  92 125 161 210 265 309 367
#
# _framework density 23.436806000000001
#
# number of rings (size 3 to 8) (size 9 to 14) (size 15 to 20)
#    0.000    1.143    0.000    8.143    0.000    8.000 
#    0.000    2.857    0.000    0.000    0.000    0.000 
#    0.000    0.000    0.000    0.000    0.000    0.000 
#
# Total GULP energy -156798.864077 kJ/mol
# GULP energy per Si atom -5599.959431 kJ/mol
# Density = 2.338346 g / cm^3
# Si number density = 23.436806 Si / 1000 Ang^3
#
#
#
# Elastic Constant Matrix: (Units=GPa)
#
#
# Indices 1 2 3 4 5 6 
#
# 1 78.7925 0.1030 -9.2850 0.0000 0.0000 0.0000
# 2 0.1030 100.6698 42.8475 0.0000 0.0000 0.0000
# 3 -9.2850 42.8475 87.2723 0.0000 0.0000 0.0000
# 4 0.0000 0.0000 0.0000 21.0691 0.0000 0.0000
# 5 0.0000 0.0000 0.0000 0.0000 24.0807 0.0000
# 6 0.0000 0.0000 0.0000 0.0000 0.0000 26.6563
#
#
#
# Elastic Compliance Matrix: (Units=1/GPa)
#
#
# Indices 1 2 3 4 5 6 
#
# 1 0.012898 -0.000755 0.001743 0.000000 0.000000 0.000000
# 2 -0.000755 0.012602 -0.006267 0.000000 0.000000 0.000000
# 3 0.001743 -0.006267 0.014721 0.000000 0.000000 0.000000
# 4 0.000000 0.000000 0.000000 0.047463 0.000000 0.000000
# 5 0.000000 0.000000 0.000000 0.000000 0.041527 0.000000
# 6 0.000000 0.000000 0.000000 0.000000 0.000000 0.037515
#
#
# Mechanical properties :
#
#
# Convention : Reuss Voigt Hill
#
# Bulk Modulus (GPa) = 33.71353 37.11840 35.41596
# Shear Modulus (GPa) = 26.71349 29.89914 28.30631
#
# Velocity S-wave (km/s) = 3.37977 3.57562 3.47907
# Velocity P-wave (km/s) = 5.44486 5.73749 5.59309
#
# Compressibility (1/GPa) = 0.02966168
#
# Stress axis : x y z
#
# Youngs Moduli (GPa) = 77.53172 79.35396 67.93087
#
# Poissons Ratio (x) = 0.05991 -0.11840
# Poissons Ratio (y) = 0.05854 0.42575
# Poissons Ratio (z) = -0.13513 0.49734
#
# Static dielectric constant tensor:
#      x y z
#    x 1.901830 0.000000 0.000000 
#    y 0.000000 1.888840 0.000000 
#    z 0.000000 0.000000 1.878920 
# 
# From -- ./inp_files/29072.got.cif
#   From: 2010.05.17/outbox.cif.g08.bks.cpg/sg43_15_cif.got.tgz:29072.got - 2010.06.03 19:21:55.
