data_PCOD9371158
_publ_section_title
;
Structure prediction by ZEFSAII (Michael W. Deem and Ramdas Pophale) SiO2 
 PCOD9371158
Probable space group: F D D 2
;
_chemical_formula_sum "Si O2"
_cell_formula_units_Z 120
_cell_length_a 22.366033
_cell_length_b 20.783442
_cell_length_c 10.700798
_cell_angle_alpha 90.000000
_cell_angle_beta 90.000000
_cell_angle_gamma 90.000000
_cell_volume 4974.192646
_symmetry_space_group_name_H-M "F D D 2"
_symmetry_group_IT_number 43
_symmetry_cell_setting 'orthorhombic'
loop_
_space_group_symop_operation_xyz
x,y,z
-x,-y,z
1/4-x,1/4+y,1/4+z
1/4+x,1/4-y,1/4+z
x,1/2+y,1/2+z
-x,1/2-y,1/2+z
1/4-x,3/4+y,3/4+z
1/4+x,3/4-y,3/4+z
1/2+x,y,1/2+z
1/2-x,-y,1/2+z
3/4-x,1/4+y,3/4+z
3/4+x,1/4-y,3/4+z
1/2+x,1/2+y,z
1/2-x,1/2-y,z
3/4-x,3/4+y,1/4+z
3/4+x,3/4-y,1/4+z
loop_
_atom_site_type_symbol
_atom_site_label
_atom_site_fract_x
_atom_site_fract_y
_atom_site_fract_z
Si Si1 0.936887 0.734870 0.026560
Si Si2 0.973141 0.404279 0.742716
Si Si3 0.149304 0.265954 0.800105
Si Si4 0.483532 0.599937 0.499750
Si Si5 0.005349 0.865161 0.968529
Si Si6 0.112645 0.776657 0.029373
Si Si7 0.635149 0.964597 0.527869
Si Si8 0.250000 0.750000 0.690130
O O1 0.979989 0.673864 0.036587
O O2 0.915776 0.744131 0.168166
O O3 0.964686 0.801058 0.970051
O O4 0.884378 0.719978 0.928593
O O5 0.934325 0.466997 0.767039
O O6 0.921365 0.351208 0.757709
O O7 0.994836 0.396651 0.604031
O O8 0.021864 0.397890 0.848939
O O9 0.203155 0.316724 0.780080
O O10 0.181438 0.195955 0.802558
O O11 0.105171 0.268698 0.678317
O O12 0.071315 0.834915 0.975917
O O13 0.992706 0.927101 0.879365
O O14 0.100532 0.725044 0.923111
O O15 0.565601 0.984167 0.501533
#
# Coordination Sequence:
#
# PCOD9371158 Si02
#       8
#    16  16  16  16  16  16  16   8
#     4  11  26  47  66 101 144 181 229 285 348 415
#     4  10  21  40  65  99 135 171 228 280 337 404
#     4  10  25  44  74 101 136 185 231 281 345 413
#     4  10  23  44  71 101 137 185 232 279 345 416
#     4  11  24  41  68  99 139 181 227 283 349 406
#     4  11  22  40  67 101 128 172 230 279 336 401
#     4  11  25  41  67 100 134 178 223 286 345 406
#     4  12  24  40  68 102 134 182 224 284 344 412
#
# _framework density 24.124517000000001
#
# number of rings (size 3 to 8) (size 9 to 14) (size 15 to 20)
#    0.000    1.333    2.667    1.600    3.733    5.333 
#    2.400    0.000    0.000    0.000    0.000    0.000 
#    0.000    0.000    0.000    0.000    0.000    0.000 
#
# Total GULP energy -167066.593387 kJ/mol
# GULP energy per Si atom -5568.886446 kJ/mol
# Density = 2.406961 g / cm^3
# Si number density = 24.124517 Si / 1000 Ang^3
#
#
#
# Elastic Constant Matrix: (Units=GPa)
#
#
# Indices 1 2 3 4 5 6 
#
# 1 72.4196 53.3197 6.0175 0.0000 0.0000 0.0000
# 2 53.3197 104.6875 5.0725 0.0000 0.0000 0.0000
# 3 6.0175 5.0725 55.3795 0.0000 0.0000 0.0000
# 4 0.0000 0.0000 0.0000 -4.5424 0.0000 0.0000
# 5 0.0000 0.0000 0.0000 0.0000 -55.2905 0.0000
# 6 0.0000 0.0000 0.0000 0.0000 0.0000 31.8472
#
#
#
# Elastic Compliance Matrix: (Units=1/GPa)
#
#
# Indices 1 2 3 4 5 6 
#
# 1 0.022198 -0.011239 -0.001383 0.000000 0.000000 0.000000
# 2 -0.011239 0.015285 -0.000179 0.000000 0.000000 0.000000
# 3 -0.001383 -0.000179 0.018224 0.000000 0.000000 0.000000
# 4 0.000000 0.000000 0.000000 -0.220147 0.000000 0.000000
# 5 0.000000 0.000000 0.000000 0.000000 -0.018086 0.000000
# 6 0.000000 0.000000 0.000000 0.000000 0.000000 0.031400
#
#
# Mechanical properties :
#
#
# Convention : Reuss Voigt Hill
#
# Bulk Modulus (GPa) = 33.21564 40.14509 36.68037
# Shear Modulus (GPa) = -43.29388 5.60798 -18.84295
#
# Velocity S-wave (km/s) = -4.24087 1.52632 -2.79780
# Velocity P-wave (km/s) = 3.19087 4.44782 2.19106
#
# Compressibility (1/GPa) = 0.03010630
#
# Stress axis : x y z
#
# Youngs Moduli (GPa) = 45.04882 65.42278 54.87319
#
# Poissons Ratio (x) = 0.73529 0.07587
# Poissons Ratio (y) = 0.50630 0.00981
# Poissons Ratio (z) = 0.06228 0.01170
#
# Static dielectric constant tensor:
#      x y z
#    x 2.005720 0.000000 0.000000 
#    y 0.000000 2.583590 0.000000 
#    z 0.000000 0.000000 2.008550 
# 
# From -- ./inp_files/7632.got.cif
#   From: 2010.05.17/outbox.cif.g08.bks.cpg/sg43_4_cif.got.tgz:7632.got - 2010.06.03 19:21:55.
