data_PCOD9371679
_publ_section_title
;
Structure prediction by ZEFSAII (Michael W. Deem and Ramdas Pophale) SiO2 
 PCOD9371679
Probable space group: F D D 2
;
_chemical_formula_sum "Si O2"
_cell_formula_units_Z 112
_cell_length_a 12.190929
_cell_length_b 28.396370
_cell_length_c 12.508521
_cell_angle_alpha 90.000000
_cell_angle_beta 90.000000
_cell_angle_gamma 90.000000
_cell_volume 4330.176415
_symmetry_space_group_name_H-M "F D D 2"
_symmetry_group_IT_number 43
_symmetry_cell_setting 'orthorhombic'
loop_
_space_group_symop_operation_xyz
x,y,z
-x,-y,z
1/4-x,1/4+y,1/4+z
1/4+x,1/4-y,1/4+z
x,1/2+y,1/2+z
-x,1/2-y,1/2+z
1/4-x,3/4+y,3/4+z
1/4+x,3/4-y,3/4+z
1/2+x,y,1/2+z
1/2-x,-y,1/2+z
3/4-x,1/4+y,3/4+z
3/4+x,1/4-y,3/4+z
1/2+x,1/2+y,z
1/2-x,1/2-y,z
3/4-x,3/4+y,1/4+z
3/4+x,3/4-y,1/4+z
loop_
_atom_site_type_symbol
_atom_site_label
_atom_site_fract_x
_atom_site_fract_y
_atom_site_fract_z
Si Si1 0.856963 0.262434 0.916510
Si Si2 0.830148 0.363317 0.117307
Si Si3 0.787284 0.942197 0.767427
Si Si4 0.915173 0.541850 0.055005
Si Si5 0.389934 0.345611 0.022268
Si Si6 0.619564 0.899237 0.509791
Si Si7 0.071858 0.801722 0.741338
O O1 0.750000 0.250000 0.986210
O O2 0.862484 0.311539 0.852336
O O3 0.852633 0.222209 0.827725
O O4 0.970779 0.262161 0.979894
O O5 0.936997 0.340547 0.063323
O O6 0.846943 0.414192 0.173508
O O7 0.796906 0.329419 0.215530
O O8 0.730374 0.370218 0.035256
O O9 0.860694 0.952154 0.869822
O O10 0.892483 0.564770 0.170611
O O11 0.795838 0.527399 0.008050
O O12 0.000000 0.500000 0.063107
O O13 0.513886 0.365611 0.011502
O O14 0.377774 0.327181 0.142918
O O15 0.315124 0.392998 0.016686
#
# Coordination Sequence:
#
# PCOD9371679 Si02
#       7
#    16  16  16  16  16  16  16
#     4  11  24  43  67 104 139 181 236 295 351 419
#     4  10  22  44  69 101 135 189 239 288 356 430
#     4  10  23  42  71  95 139 188 232 289 351 428
#     4  11  26  46  72 106 140 186 243 298 357 434
#     4  12  23  46  70  98 141 184 230 291 366 423
#     4  11  24  42  72  99 136 185 234 289 357 431
#     4  11  24  46  68 102 143 184 232 296 356 420
#
# _framework density 25.864996000000001
#
# number of rings (size 3 to 8) (size 9 to 14) (size 15 to 20)
#    0.000    1.143    4.286    1.714    0.000    7.429 
#    2.571    0.000    0.000    0.000    0.000    0.000 
#    0.000    0.000    0.000    0.000    0.000    0.000 
#
# Total GULP energy -156843.387852 kJ/mol
# GULP energy per Si atom -5601.549566 kJ/mol
# Density = 2.580613 g / cm^3
# Si number density = 25.864996 Si / 1000 Ang^3
#
#
#
# Elastic Constant Matrix: (Units=GPa)
#
#
# Indices 1 2 3 4 5 6 
#
# 1 79.9372 10.3937 2.9883 0.0000 0.0000 0.0000
# 2 10.3937 52.0428 10.5398 0.0000 0.0000 0.0000
# 3 2.9883 10.5398 136.3003 0.0000 0.0000 0.0000
# 4 0.0000 0.0000 0.0000 38.6076 0.0000 0.0000
# 5 0.0000 0.0000 0.0000 0.0000 32.2943 0.0000
# 6 0.0000 0.0000 0.0000 0.0000 0.0000 45.0708
#
#
#
# Elastic Compliance Matrix: (Units=1/GPa)
#
#
# Indices 1 2 3 4 5 6 
#
# 1 0.012844 -0.002548 -0.000085 0.000000 0.000000 0.000000
# 2 -0.002548 0.020026 -0.001493 0.000000 0.000000 0.000000
# 3 -0.000085 -0.001493 0.007454 0.000000 0.000000 0.000000
# 4 0.000000 0.000000 0.000000 0.025902 0.000000 0.000000
# 5 0.000000 0.000000 0.000000 0.000000 0.030965 0.000000
# 6 0.000000 0.000000 0.000000 0.000000 0.000000 0.022187
#
#
# Mechanical properties :
#
#
# Convention : Reuss Voigt Hill
#
# Bulk Modulus (GPa) = 31.17813 35.12489 33.15151
# Shear Modulus (GPa) = 36.14792 39.48512 37.81652
#
# Velocity S-wave (km/s) = 3.74245 3.91139 3.82785
# Velocity P-wave (km/s) = 5.54572 5.83166 5.69048
#
# Compressibility (1/GPa) = 0.03207376
#
# Stress axis : x y z
#
# Youngs Moduli (GPa) = 77.85565 49.93474 134.15578
#
# Poissons Ratio (x) = 0.12724 0.01135
# Poissons Ratio (y) = 0.19838 0.20026
# Poissons Ratio (z) = 0.00658 0.07454
#
# Static dielectric constant tensor:
#      x y z
#    x 2.074830 0.000000 0.000000 
#    y 0.000000 2.036610 0.000000 
#    z 0.000000 0.000000 2.036470 
# 
# From -- ./inp_files/6338.got.cif
#   From: 2010.05.17/outbox.cif.g08.bks.cpg/sg43_4_cif.got.tgz:6338.got - 2010.06.03 19:21:55.
