data_PCOD9371414
_publ_section_title
;
Structure prediction by ZEFSAII (Michael W. Deem and Ramdas Pophale) SiO2 
 PCOD9371414
Probable space group: F D D 2
;
_chemical_formula_sum "Si O2"
_cell_formula_units_Z 88
_cell_length_a 26.420010
_cell_length_b 22.039895
_cell_length_c 6.377711
_cell_angle_alpha 90.000000
_cell_angle_beta 90.000000
_cell_angle_gamma 90.000000
_cell_volume 3713.704420
_symmetry_space_group_name_H-M "F D D 2"
_symmetry_group_IT_number 43
_symmetry_cell_setting 'orthorhombic'
loop_
_space_group_symop_operation_xyz
x,y,z
-x,-y,z
1/4-x,1/4+y,1/4+z
1/4+x,1/4-y,1/4+z
x,1/2+y,1/2+z
-x,1/2-y,1/2+z
1/4-x,3/4+y,3/4+z
1/4+x,3/4-y,3/4+z
1/2+x,y,1/2+z
1/2-x,-y,1/2+z
3/4-x,1/4+y,3/4+z
3/4+x,1/4-y,3/4+z
1/2+x,1/2+y,z
1/2-x,1/2-y,z
3/4-x,3/4+y,1/4+z
3/4+x,3/4-y,1/4+z
loop_
_atom_site_type_symbol
_atom_site_label
_atom_site_fract_x
_atom_site_fract_y
_atom_site_fract_z
Si Si1 0.250000 0.250000 0.368531
Si Si2 0.114931 0.634634 0.700109
Si Si3 0.258092 0.113958 0.223119
Si Si4 0.671508 0.541437 0.466813
Si Si5 0.405793 0.040924 0.798543
Si Si6 0.303343 0.395517 0.847246
O O1 0.243824 0.185960 0.248648
O O2 0.300009 0.242765 0.507127
O O3 0.153341 0.613712 0.519371
O O4 0.061034 0.641281 0.592172
O O5 0.126603 0.587744 0.892032
O O6 0.134295 0.694670 0.816728
O O7 0.219493 0.066866 0.336912
O O8 0.249006 0.103190 0.975077
O O9 0.644218 0.478490 0.421636
O O10 0.686959 0.545687 0.707799
O O11 0.436722 0.092398 0.926884
#
# Coordination Sequence:
#
# PCOD9371414 Si02
#       6
#     8  16  16  16  16  16
#     4  12  20  38  72  98 126 180 234 296 338 422
#     4  10  22  42  65  93 137 177 223 290 347 418
#     4  11  23  42  65  99 136 178 233 287 356 421
#     4  10  22  42  65  92 140 176 226 292 348 421
#     4  11  23  42  65 100 139 180 239 288 348 427
#     4  10  22  39  62 102 126 175 234 284 358 401
#
# _framework density 23.696016
#
# number of rings (size 3 to 8) (size 9 to 14) (size 15 to 20)
#    0.000    1.455    7.273    0.000    0.000    9.455 
#    3.273    0.000    0.000    0.000    0.000    0.000 
#    0.000    0.000    0.000    0.000    0.000    0.000 
#
# Total GULP energy -122594.911560 kJ/mol
# GULP energy per Si atom -5572.495980 kJ/mol
# Density = 2.364208 g / cm^3
# Si number density = 23.696016 Si / 1000 Ang^3
#
#
#
# Elastic Constant Matrix: (Units=GPa)
#
#
# Indices 1 2 3 4 5 6 
#
# 1 157.1451 21.1470 51.6646 -0.0029 0.0020 0.0008
# 2 21.1470 17.5429 10.2968 -0.0063 0.0011 0.0038
# 3 51.6646 10.2968 136.5734 -0.0121 -0.0039 0.0075
# 4 -0.0029 -0.0063 -0.0121 12.0498 -0.0006 0.0061
# 5 0.0020 0.0011 -0.0039 -0.0006 42.0887 0.0017
# 6 0.0008 0.0038 0.0075 0.0061 0.0017 13.2036
#
#
#
# Elastic Compliance Matrix: (Units=1/GPa)
#
#
# Indices 1 2 3 4 5 6 
#
# 1 0.008344 -0.008585 -0.002509 -0.000005 0.000000 0.000003
# 2 -0.008585 0.068476 -0.001915 0.000032 -0.000002 -0.000018
# 3 -0.002509 -0.001915 0.008416 0.000007 0.000001 -0.000004
# 4 -0.000005 0.000032 0.000007 0.082989 0.000001 -0.000039
# 5 0.000000 -0.000002 0.000001 0.000001 0.023759 -0.000003
# 6 0.000003 -0.000018 -0.000004 -0.000039 -0.000003 0.075737
#
#
# Mechanical properties :
#
#
# Convention : Reuss Voigt Hill
#
# Bulk Modulus (GPa) = 16.88704 53.05312 34.97008
# Shear Modulus (GPa) = 15.95006 28.67863 22.31434
#
# Velocity S-wave (km/s) = 2.59725 3.48267 3.07203
# Velocity P-wave (km/s) = 4.01700 6.21367 5.23192
#
# Compressibility (1/GPa) = 0.05921700
#
# Stress axis : x y z
#
# Youngs Moduli (GPa) = 119.84980 14.60361 118.82662
#
# Poissons Ratio (x) = 0.12538 0.29815
# Poissons Ratio (y) = 1.02894 0.22755
# Poissons Ratio (z) = 0.30072 0.02797
#
# Static dielectric constant tensor:
#      x y z
#    x 1.950170 0.000020 0.000010 
#    y 0.000020 2.184310 0.000000 
#    z 0.000010 0.000000 1.908390 
# 
# From -- ./inp_files/997.got.cif
#   From: 2010.05.17/outbox.cif.g08.bks.cpg/sg43_1_cif.got.tgz:997.got - 2010.06.03 19:21:55.
