data_PCOD9371000
_publ_section_title
;
Structure prediction by ZEFSAII (Michael W. Deem and Ramdas Pophale) SiO2 
 PCOD9371000
Probable space group: F D D 2
;
_chemical_formula_sum "Si O2"
_cell_formula_units_Z 112
_cell_length_a 25.604224
_cell_length_b 16.922365
_cell_length_c 12.731117
_cell_angle_alpha 90.000000
_cell_angle_beta 90.000000
_cell_angle_gamma 90.000000
_cell_volume 5516.189605
_symmetry_space_group_name_H-M "F D D 2"
_symmetry_group_IT_number 43
_symmetry_cell_setting 'orthorhombic'
loop_
_space_group_symop_operation_xyz
x,y,z
-x,-y,z
1/4-x,1/4+y,1/4+z
1/4+x,1/4-y,1/4+z
x,1/2+y,1/2+z
-x,1/2-y,1/2+z
1/4-x,3/4+y,3/4+z
1/4+x,3/4-y,3/4+z
1/2+x,y,1/2+z
1/2-x,-y,1/2+z
3/4-x,1/4+y,3/4+z
3/4+x,1/4-y,3/4+z
1/2+x,1/2+y,z
1/2-x,1/2-y,z
3/4-x,3/4+y,1/4+z
3/4+x,3/4-y,1/4+z
loop_
_atom_site_type_symbol
_atom_site_label
_atom_site_fract_x
_atom_site_fract_y
_atom_site_fract_z
Si Si1 0.021356 0.148563 0.736880
Si Si2 0.441849 0.074087 0.393764
Si Si3 0.373931 0.671524 0.565445
Si Si4 0.237958 0.556085 0.261201
Si Si5 0.716476 0.937896 0.542039
Si Si6 0.377926 0.693000 0.786739
Si Si7 0.012837 0.620118 0.574231
O O1 0.081648 0.133841 0.762394
O O2 0.989022 0.089281 0.811841
O O3 0.008515 0.147525 0.613766
O O4 0.002051 0.234600 0.772611
O O5 0.405585 0.150968 0.383962
O O6 0.467451 0.076014 0.509472
O O7 0.406935 0.001331 0.351952
O O8 0.425710 0.682294 0.498023
O O9 0.394583 0.646072 0.680584
O O10 0.270291 0.584060 0.160610
O O11 0.241344 0.461411 0.284140
O O12 0.733580 0.877626 0.450613
O O13 0.656935 0.971703 0.530142
O O14 0.317362 0.671163 0.794065
#
# Coordination Sequence:
#
# PCOD9371000 Si02
#       7
#    16  16  16  16  16  16  16
#     4  10  21  33  55  88 112 146 191 242 285 344
#     4  11  20  33  57  89 116 140 192 251 285 344
#     4  12  21  34  58  91 110 148 196 246 293 334
#     4  11  20  38  58  77 125 157 189 239 299 359
#     4  10  21  38  59  83 119 157 190 239 299 362
#     4  11  18  32  57  88 111 148 190 245 291 346
#     4  11  20  36  56  88 120 148 193 246 303 345
#
# _framework density 20.30387
#
# number of rings (size 3 to 8) (size 9 to 14) (size 15 to 20)
#    0.000    1.143   10.000    0.429    0.000    0.000 
#    0.000    2.857    0.000    0.000    7.429    0.000 
#    0.000    0.000    0.000    0.000    0.000    0.000 
#
# Total GULP energy -155982.421303 kJ/mol
# GULP energy per Si atom -5570.800761 kJ/mol
# Density = 2.025766 g / cm^3
# Si number density = 20.303870 Si / 1000 Ang^3
#
#
#
# Elastic Constant Matrix: (Units=GPa)
#
#
# Indices 1 2 3 4 5 6 
#
# 1 82.5026 9.4645 26.7651 0.0000 0.0000 0.0000
# 2 9.4645 36.2712 15.4005 0.0000 0.0000 0.0000
# 3 26.7651 15.4005 136.9853 0.0000 0.0000 0.0000
# 4 0.0000 0.0000 0.0000 11.2441 0.0000 0.0000
# 5 0.0000 0.0000 0.0000 0.0000 35.6415 0.0000
# 6 0.0000 0.0000 0.0000 0.0000 0.0000 26.5878
#
#
#
# Elastic Compliance Matrix: (Units=1/GPa)
#
#
# Indices 1 2 3 4 5 6 
#
# 1 0.013146 -0.002457 -0.002292 0.000000 0.000000 0.000000
# 2 -0.002457 0.029411 -0.002826 0.000000 0.000000 0.000000
# 3 -0.002292 -0.002826 0.008066 0.000000 0.000000 0.000000
# 4 0.000000 0.000000 0.000000 0.088936 0.000000 0.000000
# 5 0.000000 0.000000 0.000000 0.000000 0.028057 0.000000
# 6 0.000000 0.000000 0.000000 0.000000 0.000000 0.037611
#
#
# Mechanical properties :
#
#
# Convention : Reuss Voigt Hill
#
# Bulk Modulus (GPa) = 28.19158 39.89103 34.04130
# Shear Modulus (GPa) = 21.53285 28.30326 24.91806
#
# Velocity S-wave (km/s) = 3.26011 3.73766 3.50702
# Velocity P-wave (km/s) = 5.29963 6.19003 5.76205
#
# Compressibility (1/GPa) = 0.03547159
#
# Stress axis : x y z
#
# Youngs Moduli (GPa) = 76.06653 34.00053 123.98142
#
# Poissons Ratio (x) = 0.08354 0.28421
# Poissons Ratio (y) = 0.18690 0.35043
# Poissons Ratio (z) = 0.17437 0.09610
#
# Static dielectric constant tensor:
#      x y z
#    x 1.776730 0.000000 0.000000 
#    y 0.000000 1.771990 0.000000 
#    z 0.000000 0.000000 1.806520 
# 
# From -- ./inp_files/8001.got.cif
#   From: 2010.05.17/outbox.cif.g08.bks.cpg/sg43_5_cif.got.tgz:8001.got - 2010.06.03 19:21:55.
