data_PCOD9371458
_publ_section_title
;
Structure prediction by ZEFSAII (Michael W. Deem and Ramdas Pophale) SiO2 
 PCOD9371458
Probable space group: F D D 2
;
_chemical_formula_sum "Si O2"
_cell_formula_units_Z 88
_cell_length_a 32.091977
_cell_length_b 23.143283
_cell_length_c 4.844859
_cell_angle_alpha 90.000000
_cell_angle_beta 90.000000
_cell_angle_gamma 90.000000
_cell_volume 3598.343182
_symmetry_space_group_name_H-M "F D D 2"
_symmetry_group_IT_number 43
_symmetry_cell_setting 'orthorhombic'
loop_
_space_group_symop_operation_xyz
x,y,z
-x,-y,z
1/4-x,1/4+y,1/4+z
1/4+x,1/4-y,1/4+z
x,1/2+y,1/2+z
-x,1/2-y,1/2+z
1/4-x,3/4+y,3/4+z
1/4+x,3/4-y,3/4+z
1/2+x,y,1/2+z
1/2-x,-y,1/2+z
3/4-x,1/4+y,3/4+z
3/4+x,1/4-y,3/4+z
1/2+x,1/2+y,z
1/2-x,1/2-y,z
3/4-x,3/4+y,1/4+z
3/4+x,3/4-y,1/4+z
loop_
_atom_site_type_symbol
_atom_site_label
_atom_site_fract_x
_atom_site_fract_y
_atom_site_fract_z
Si Si1 0.417910 0.532293 0.217100
Si Si2 0.142543 0.147490 0.967533
Si Si3 0.435375 0.915494 0.490214
Si Si4 0.500000 0.000000 0.449005
Si Si5 0.962277 0.694471 0.334413
Si Si6 0.482945 0.322981 0.335972
O O1 0.411071 0.552983 0.523605
O O2 0.409521 0.465483 0.151375
O O3 0.466744 0.535955 0.130707
O O4 0.391401 0.573674 0.018673
O O5 0.174328 0.094392 0.989031
O O6 0.098545 0.125375 0.853447
O O7 0.469334 0.952592 0.315020
O O8 0.458906 0.877022 0.715403
O O9 0.975179 0.684081 0.650629
O O10 0.957866 0.763071 0.291455
O O11 0.002204 0.675319 0.150673
#
# Coordination Sequence:
#
# PCOD9371458 Si02
#       6
#    16  16  16   8  16  16
#     4  10  26  44  69 101 134 185 229 283 350 417
#     4  12  24  43  68  97 141 169 226 294 345 408
#     4  10  24  44  72  99 138 181 232 288 347 418
#     4   8  20  48  66 104 132 186 238 278 348 426
#     4  10  22  40  66  95 131 174 223 273 341 400
#     4  10  22  43  65  95 129 180 224 270 333 418
#
# _framework density 24.455698000000002
#
# number of rings (size 3 to 8) (size 9 to 14) (size 15 to 20)
#    1.091    0.727    0.000    3.273    2.545    5.091 
#    6.545    0.000    0.000    0.000    0.000    0.000 
#    0.000    0.000    0.000    0.000    0.000    0.000 
#
# Total GULP energy -122951.646894 kJ/mol
# GULP energy per Si atom -5588.711222 kJ/mol
# Density = 2.440004 g / cm^3
# Si number density = 24.455698 Si / 1000 Ang^3
#
#
#
# Elastic Constant Matrix: (Units=GPa)
#
#
# Indices 1 2 3 4 5 6 
#
# 1 79.0846 36.1313 -5.7952 0.0317 -0.0118 0.0065
# 2 36.1313 127.7557 5.2822 0.0276 -0.0572 -0.0178
# 3 -5.7952 5.2822 66.4551 0.0280 -0.0729 -0.0285
# 4 0.0317 0.0276 0.0280 23.3706 -0.0448 -0.0170
# 5 -0.0118 -0.0572 -0.0729 -0.0448 3.3673 -0.0118
# 6 0.0065 -0.0178 -0.0285 -0.0170 -0.0118 43.4129
#
#
#
# Elastic Compliance Matrix: (Units=1/GPa)
#
#
# Indices 1 2 3 4 5 6 
#
# 1 0.014692 -0.004222 0.001617 -0.000017 0.000015 -0.000003
# 2 -0.004222 0.009067 -0.001089 -0.000003 0.000116 0.000004
# 3 0.001617 -0.001089 0.015276 -0.000019 0.000318 0.000009
# 4 -0.000017 -0.000003 -0.000019 0.042790 0.000569 0.000017
# 5 0.000015 0.000116 0.000318 0.000569 0.296988 0.000081
# 6 -0.000003 0.000004 0.000009 0.000017 0.000081 0.023035
#
#
# Mechanical properties :
#
#
# Convention : Reuss Voigt Hill
#
# Bulk Modulus (GPa) = 31.59906 38.28136 34.94021
# Shear Modulus (GPa) = 11.91089 29.87530 20.89309
#
# Velocity S-wave (km/s) = 2.20929 3.49894 2.92605
# Velocity P-wave (km/s) = 4.41100 5.65781 5.07286
#
# Compressibility (1/GPa) = 0.03164651
#
# Stress axis : x y z
#
# Youngs Moduli (GPa) = 68.06389 110.29550 65.46370
#
# Poissons Ratio (x) = 0.46567 -0.10584
# Poissons Ratio (y) = 0.28737 0.07127
# Poissons Ratio (z) = -0.11005 0.12008
#
# Static dielectric constant tensor:
#      x y z
#    x 1.979280 0.000080 0.000020 
#    y 0.000080 1.949610 -0.000050 
#    z 0.000020 -0.000050 1.859780 
# 
# From -- ./inp_files/1402.got.cif
#   From: 2010.05.17/outbox.cif.g08.bks.cpg/sg43_1_cif.got.tgz:1402.got - 2010.06.03 19:21:55.
