data_PCOD9371566
_publ_section_title
;
Structure prediction by ZEFSAII (Michael W. Deem and Ramdas Pophale) SiO2 
 PCOD9371566
Probable space group: F D D 2
;
_chemical_formula_sum "Si O2"
_cell_formula_units_Z 56
_cell_length_a 4.935273
_cell_length_b 15.069154
_cell_length_c 26.904128
_cell_angle_alpha 90.000000
_cell_angle_beta 90.000000
_cell_angle_gamma 90.000000
_cell_volume 2000.870462
_symmetry_space_group_name_H-M "F D D 2"
_symmetry_group_IT_number 43
_symmetry_cell_setting 'orthorhombic'
loop_
_space_group_symop_operation_xyz
x,y,z
-x,-y,z
1/4-x,1/4+y,1/4+z
1/4+x,1/4-y,1/4+z
x,1/2+y,1/2+z
-x,1/2-y,1/2+z
1/4-x,3/4+y,3/4+z
1/4+x,3/4-y,3/4+z
1/2+x,y,1/2+z
1/2-x,-y,1/2+z
3/4-x,1/4+y,3/4+z
3/4+x,1/4-y,3/4+z
1/2+x,1/2+y,z
1/2-x,1/2-y,z
3/4-x,3/4+y,1/4+z
3/4+x,3/4-y,1/4+z
loop_
_atom_site_type_symbol
_atom_site_label
_atom_site_fract_x
_atom_site_fract_y
_atom_site_fract_z
Si Si1 0.169139 0.850285 0.270860
Si Si2 0.500000 0.000000 0.392635
Si Si3 0.695744 0.575435 0.108377
Si Si4 0.390016 0.348964 0.962113
O O1 0.250000 0.750000 0.256111
O O2 0.279757 0.846314 0.327586
O O3 0.369117 0.918247 0.242547
O O4 0.874133 0.876885 0.251678
O O5 0.670724 0.925736 0.363208
O O6 0.330076 0.937748 0.429121
O O7 0.500000 0.500000 0.085624
O O8 0.754726 0.543940 0.164670
#
# Coordination Sequence:
#
# PCOD9371566 Si02
#       4
#    16   8  16  16
#     4  12  20  41  69  96 131 189 237 292 370 450
#     4   8  20  48  60 100 138 192 222 316 360 440
#     4  10  22  42  67 103 136 184 243 304 361 447
#     4  10  23  42  65  95 140 183 232 299 374 437
#
# _framework density 27.987815999999999
#
# number of rings (size 3 to 8) (size 9 to 14) (size 15 to 20)
#    1.714    0.000    2.857    1.714    0.000    4.571 
#    5.143    0.000    0.000    0.000    0.000    0.000 
#    0.000    0.000    0.000    0.000    0.000    0.000 
#
# Total GULP energy -78017.904155 kJ/mol
# GULP energy per Si atom -5572.707440 kJ/mol
# Density = 2.792411 g / cm^3
# Si number density = 27.987816 Si / 1000 Ang^3
#
#
#
# Elastic Constant Matrix: (Units=GPa)
#
#
# Indices 1 2 3 4 5 6 
#
# 1 135.8473 52.2995 68.6100 0.0000 0.0000 0.0000
# 2 52.2995 99.8342 15.7183 0.0000 0.0000 0.0000
# 3 68.6100 15.7183 201.8735 0.0000 0.0000 0.0000
# 4 0.0000 0.0000 0.0000 40.1980 0.0000 0.0000
# 5 0.0000 0.0000 0.0000 0.0000 29.1576 0.0000
# 6 0.0000 0.0000 0.0000 0.0000 0.0000 50.0141
#
#
#
# Elastic Compliance Matrix: (Units=1/GPa)
#
#
# Indices 1 2 3 4 5 6 
#
# 1 0.011090 -0.005281 -0.003358 0.000000 0.000000 0.000000
# 2 -0.005281 0.012656 0.000809 0.000000 0.000000 0.000000
# 3 -0.003358 0.000809 0.006032 0.000000 0.000000 0.000000
# 4 0.000000 0.000000 0.000000 0.024877 0.000000 0.000000
# 5 0.000000 0.000000 0.000000 0.000000 0.034296 0.000000
# 6 0.000000 0.000000 0.000000 0.000000 0.000000 0.019994
#
#
# Mechanical properties :
#
#
# Convention : Reuss Voigt Hill
#
# Bulk Modulus (GPa) = 70.82868 78.97895 74.90381
# Shear Modulus (GPa) = 38.66643 43.93576 41.30109
#
# Velocity S-wave (km/s) = 3.72095 3.96639 3.84563
# Velocity P-wave (km/s) = 6.61986 7.01831 6.82199
#
# Compressibility (1/GPa) = 0.01411857
#
# Stress axis : x y z
#
# Youngs Moduli (GPa) = 90.16841 79.01545 165.78659
#
# Poissons Ratio (x) = 0.41729 0.55672
# Poissons Ratio (y) = 0.47619 -0.13420
# Poissons Ratio (z) = 0.30279 -0.06396
#
# Static dielectric constant tensor:
#      x y z
#    x 2.300790 0.000000 0.000000 
#    y 0.000000 2.604170 0.000000 
#    z 0.000000 0.000000 2.211820 
# 
# From -- ./inp_files/23849.got.cif
#   From: 2010.05.17/outbox.cif.g08.bks.cpg/sg43_12_cif.got.tgz:23849.got - 2010.06.03 19:21:55.
