data_PCOD9371140
_publ_section_title
;
Structure prediction by ZEFSAII (Michael W. Deem and Ramdas Pophale) SiO2 
 PCOD9371140
Probable space group: F D D 2
;
_chemical_formula_sum "Si O2"
_cell_formula_units_Z 72
_cell_length_a 13.886101
_cell_length_b 30.278285
_cell_length_c 6.974947
_cell_angle_alpha 90.000000
_cell_angle_beta 90.000000
_cell_angle_gamma 90.000000
_cell_volume 2932.597799
_symmetry_space_group_name_H-M "F D D 2"
_symmetry_group_IT_number 43
_symmetry_cell_setting 'orthorhombic'
loop_
_space_group_symop_operation_xyz
x,y,z
-x,-y,z
1/4-x,1/4+y,1/4+z
1/4+x,1/4-y,1/4+z
x,1/2+y,1/2+z
-x,1/2-y,1/2+z
1/4-x,3/4+y,3/4+z
1/4+x,3/4-y,3/4+z
1/2+x,y,1/2+z
1/2-x,-y,1/2+z
3/4-x,1/4+y,3/4+z
3/4+x,1/4-y,3/4+z
1/2+x,1/2+y,z
1/2-x,1/2-y,z
3/4-x,3/4+y,1/4+z
3/4+x,3/4-y,1/4+z
loop_
_atom_site_type_symbol
_atom_site_label
_atom_site_fract_x
_atom_site_fract_y
_atom_site_fract_z
Si Si1 0.479506 0.186510 0.875000
Si Si2 0.874939 0.061885 0.567382
Si Si3 0.250000 0.750000 0.027485
Si Si4 0.675838 0.023866 0.540419
Si Si5 0.552165 0.105713 0.080155
O O1 0.553598 0.221426 0.794911
O O2 0.523994 0.138229 0.906908
O O3 0.382310 0.178386 0.759503
O O4 0.438757 0.204057 0.081545
O O5 0.775461 0.041423 0.638830
O O6 0.842669 0.108465 0.477006
O O7 0.967635 0.078088 0.683498
O O8 0.927378 0.029695 0.410339
O O9 0.177450 0.778129 0.890706
#
# Coordination Sequence:
#
# PCOD9371140 Si02
#       5
#    16  16   8  16  16
#     4  10  21  40  65  93 128 171 223 262 337 385
#     4  10  21  40  63  91 132 170 219 267 334 383
#     4  12  22  40  64  98 128 166 224 274 314 402
#     4  11  22  39  63  95 129 171 217 275 315 402
#     4   9  19  39  68  87 127 182 206 271 336 391
#
# _framework density 24.551611000000001
#
# number of rings (size 3 to 8) (size 9 to 14) (size 15 to 20)
#    0.000    1.778    4.444    1.333    0.000    1.778 
#    0.000    8.889    0.000    0.000    0.000    0.000 
#    0.000    0.000    0.000    0.000    0.000    0.000 
#
# Total GULP energy -100210.009511 kJ/mol
# GULP energy per Si atom -5567.222751 kJ/mol
# Density = 2.449573 g / cm^3
# Si number density = 24.551611 Si / 1000 Ang^3
#
#
#
# Elastic Constant Matrix: (Units=GPa)
#
#
# Indices 1 2 3 4 5 6 
#
# 1 136.9314 36.8242 18.9938 0.0000 0.0000 0.0000
# 2 36.8242 79.6303 21.2099 0.0000 0.0000 0.0000
# 3 18.9938 21.2099 65.5082 0.0000 0.0000 0.0000
# 4 0.0000 0.0000 0.0000 24.4363 0.0000 0.0000
# 5 0.0000 0.0000 0.0000 0.0000 20.6493 0.0000
# 6 0.0000 0.0000 0.0000 0.0000 0.0000 41.9085
#
#
#
# Elastic Compliance Matrix: (Units=1/GPa)
#
#
# Indices 1 2 3 4 5 6 
#
# 1 0.008439 -0.003558 -0.001295 0.000000 0.000000 0.000000
# 2 -0.003558 0.015243 -0.003904 0.000000 0.000000 0.000000
# 3 -0.001295 -0.003904 0.016905 0.000000 0.000000 0.000000
# 4 0.000000 0.000000 0.000000 0.040923 0.000000 0.000000
# 5 0.000000 0.000000 0.000000 0.000000 0.048428 0.000000
# 6 0.000000 0.000000 0.000000 0.000000 0.000000 0.023862
#
#
# Mechanical properties :
#
#
# Convention : Reuss Voigt Hill
#
# Bulk Modulus (GPa) = 43.33883 48.45842 45.89862
# Shear Modulus (GPa) = 27.93242 31.06829 29.50035
#
# Velocity S-wave (km/s) = 3.37664 3.56114 3.47012
# Velocity P-wave (km/s) = 5.73522 6.05716 5.89839
#
# Compressibility (1/GPa) = 0.02307400
#
# Stress axis : x y z
#
# Youngs Moduli (GPa) = 118.49291 65.60365 59.15516
#
# Poissons Ratio (x) = 0.23340 0.07661
# Poissons Ratio (y) = 0.42157 0.23093
# Poissons Ratio (z) = 0.15345 0.25610
#
# Static dielectric constant tensor:
#      x y z
#    x 2.080490 0.000000 0.000000 
#    y 0.000000 1.963390 0.000000 
#    z 0.000000 0.000000 2.026070 
# 
# From -- ./inp_files/2388.got.cif
#   From: 2010.05.17/outbox.cif.g08.bks.cpg/sg43_2_cif.got.tgz:2388.got - 2010.06.03 19:21:55.
