data_PCOD9371394
_publ_section_title
;
Structure prediction by ZEFSAII (Michael W. Deem and Ramdas Pophale) SiO2 
 PCOD9371394
Probable space group: F D D 2
;
_chemical_formula_sum "Si O2"
_cell_formula_units_Z 104
_cell_length_a 26.595485
_cell_length_b 22.325071
_cell_length_c 8.686757
_cell_angle_alpha 90.000000
_cell_angle_beta 90.000000
_cell_angle_gamma 90.000000
_cell_volume 5157.728011
_symmetry_space_group_name_H-M "F D D 2"
_symmetry_group_IT_number 43
_symmetry_cell_setting 'orthorhombic'
loop_
_space_group_symop_operation_xyz
x,y,z
-x,-y,z
1/4-x,1/4+y,1/4+z
1/4+x,1/4-y,1/4+z
x,1/2+y,1/2+z
-x,1/2-y,1/2+z
1/4-x,3/4+y,3/4+z
1/4+x,3/4-y,3/4+z
1/2+x,y,1/2+z
1/2-x,-y,1/2+z
3/4-x,1/4+y,3/4+z
3/4+x,1/4-y,3/4+z
1/2+x,1/2+y,z
1/2-x,1/2-y,z
3/4-x,3/4+y,1/4+z
3/4+x,3/4-y,1/4+z
loop_
_atom_site_type_symbol
_atom_site_label
_atom_site_fract_x
_atom_site_fract_y
_atom_site_fract_z
Si Si1 0.087810 0.543353 0.214170
Si Si2 0.308789 0.060688 0.474371
Si Si3 0.833719 0.830854 0.118829
Si Si4 0.473363 0.912959 0.507291
Si Si5 0.000000 0.000000 0.254999
Si Si6 0.184140 0.072095 0.893139
Si Si7 0.984713 0.897972 0.475858
O O1 0.081727 0.472307 0.241786
O O2 0.056913 0.572190 0.354992
O O3 0.145581 0.560412 0.251718
O O4 0.061036 0.567515 0.060980
O O5 0.369154 0.065187 0.475308
O O6 0.290222 0.099071 0.327837
O O7 0.285989 0.094751 0.619278
O O8 0.295862 0.991455 0.452374
O O9 0.782028 0.833946 0.212192
O O10 0.843228 0.893295 0.032081
O O11 0.463636 0.963852 0.637838
O O12 0.014526 0.945912 0.369606
O O13 0.228454 0.116494 0.845377
#
# Coordination Sequence:
#
# PCOD9371394 Si02
#       7
#    16  16  16  16   8  16  16
#     4  11  22  41  66  95 119 170 220 257 314 390
#     4  10  26  41  60  98 131 162 215 264 322 388
#     4  11  21  40  70  87 120 175 214 257 314 389
#     4  11  20  40  68  88 124 166 211 265 315 381
#     4  10  22  38  64  98 120 158 224 264 322 358
#     4  11  24  41  65  93 132 169 212 257 329 387
#     4  11  24  41  65  96 133 162 214 280 314 370
#
# _framework density 20.163917000000001
#
# number of rings (size 3 to 8) (size 9 to 14) (size 15 to 20)
#    0.000    1.231    4.615    0.923    2.154    2.462 
#    0.000    1.538    0.000    0.000    0.000    0.000 
#    0.000    0.000    0.000    0.000    0.000    0.000 
#
# Total GULP energy -145100.022448 kJ/mol
# GULP energy per Si atom -5580.770094 kJ/mol
# Density = 2.011802 g / cm^3
# Si number density = 20.163917 Si / 1000 Ang^3
#
#
#
# Elastic Constant Matrix: (Units=GPa)
#
#
# Indices 1 2 3 4 5 6 
#
# 1 56.0413 18.5801 -7.3760 -0.0004 0.0000 0.0001
# 2 18.5801 115.2081 24.7048 -0.0002 0.0000 0.0001
# 3 -7.3760 24.7048 50.0891 -0.0010 0.0001 0.0003
# 4 -0.0004 -0.0002 -0.0010 30.1817 0.0001 0.0001
# 5 0.0000 0.0000 0.0001 0.0001 16.0482 0.0000
# 6 0.0001 0.0001 0.0003 0.0001 0.0000 27.5434
#
#
#
# Elastic Compliance Matrix: (Units=1/GPa)
#
#
# Indices 1 2 3 4 5 6 
#
# 1 0.019935 -0.004299 0.005056 0.000000 0.000000 0.000000
# 2 -0.004299 0.010634 -0.005878 0.000000 0.000000 0.000000
# 3 0.005056 -0.005878 0.023608 0.000001 0.000000 0.000000
# 4 0.000000 0.000000 0.000001 0.033133 0.000000 0.000000
# 5 0.000000 0.000000 0.000000 0.000000 0.062312 0.000000
# 6 0.000000 0.000000 0.000000 0.000000 0.000000 0.036306
#
#
# Mechanical properties :
#
#
# Convention : Reuss Voigt Hill
#
# Bulk Modulus (GPa) = 22.76116 32.57293 27.66705
# Shear Modulus (GPa) = 23.71753 27.11664 25.41709
#
# Velocity S-wave (km/s) = 3.43335 3.67114 3.55424
# Velocity P-wave (km/s) = 5.19902 5.84456 5.53121
#
# Compressibility (1/GPa) = 0.04393449
#
# Stress axis : x y z
#
# Youngs Moduli (GPa) = 50.16352 94.04056 42.35857
#
# Poissons Ratio (x) = 0.40430 -0.21416
# Poissons Ratio (y) = 0.21566 0.24898
# Poissons Ratio (z) = -0.25363 0.55275
#
# Static dielectric constant tensor:
#      x y z
#    x 1.729630 0.000000 0.000000 
#    y 0.000000 1.715550 0.000000 
#    z 0.000000 0.000000 1.720230 
# 
# From -- ./inp_files/3381.got.cif
#   From: 2010.05.17/outbox.cif.g08.bks.cpg/sg43_2_cif.got.tgz:3381.got - 2010.06.03 19:21:55.
