data_PCOD9371079
_publ_section_title
;
Structure prediction by ZEFSAII (Michael W. Deem and Ramdas Pophale) SiO2 
 PCOD9371079
Probable space group: F D D 2
;
_chemical_formula_sum "Si O2"
_cell_formula_units_Z 88
_cell_length_a 13.949634
_cell_length_b 12.779568
_cell_length_c 20.201349
_cell_angle_alpha 90.000000
_cell_angle_beta 90.000000
_cell_angle_gamma 90.000000
_cell_volume 3601.300471
_symmetry_space_group_name_H-M "F D D 2"
_symmetry_group_IT_number 43
_symmetry_cell_setting 'orthorhombic'
loop_
_space_group_symop_operation_xyz
x,y,z
-x,-y,z
1/4-x,1/4+y,1/4+z
1/4+x,1/4-y,1/4+z
x,1/2+y,1/2+z
-x,1/2-y,1/2+z
1/4-x,3/4+y,3/4+z
1/4+x,3/4-y,3/4+z
1/2+x,y,1/2+z
1/2-x,-y,1/2+z
3/4-x,1/4+y,3/4+z
3/4+x,1/4-y,3/4+z
1/2+x,1/2+y,z
1/2-x,1/2-y,z
3/4-x,3/4+y,1/4+z
3/4+x,3/4-y,1/4+z
loop_
_atom_site_type_symbol
_atom_site_label
_atom_site_fract_x
_atom_site_fract_y
_atom_site_fract_z
Si Si1 0.294053 0.529743 0.346590
Si Si2 0.204334 0.475473 0.208212
Si Si3 0.750000 0.750000 0.201002
Si Si4 0.795011 0.048184 0.981571
Si Si5 0.500000 0.000000 0.660061
Si Si6 0.000000 0.000000 0.641967
Si Si7 0.061086 0.634963 0.864444
O O1 0.233537 0.476696 0.286361
O O2 0.257638 0.507254 0.421599
O O3 0.277846 0.653118 0.344836
O O4 0.401273 0.481955 0.348237
O O5 0.244414 0.368699 0.172037
O O6 0.255062 0.579903 0.179398
O O7 0.092565 0.480774 0.189092
O O8 0.850346 0.749936 0.238049
O O9 0.802425 0.166213 0.955706
O O10 0.754571 0.059587 0.054474
O O11 0.416201 0.059596 0.621939
#
# Coordination Sequence:
#
# PCOD9371079 Si02
#       7
#    16  16   8  16   8   8  16
#     4  11  27  48  73 109 151 195 257 312 383 464
#     4  12  28  49  77 109 158 198 257 314 388 465
#     4  12  21  47  74 116 139 197 254 314 379 455
#     4  11  23  40  74 105 140 187 248 305 370 448
#     4  10  21  38  66 106 140 175 244 314 365 438
#     4  12  30  51  70 112 153 206 246 324 400 447
#     4  11  23  43  73 107 142 195 248 309 375 456
#
# _framework density 24.435617000000001
#
# number of rings (size 3 to 8) (size 9 to 14) (size 15 to 20)
#    0.000    0.727    5.455    0.545    2.545    8.727 
#    0.000    0.000    0.000    0.000    0.000    0.000 
#    0.000    0.000    0.000    0.000    0.000    0.000 
#
# Total GULP energy -122633.527398 kJ/mol
# GULP energy per Si atom -5574.251245 kJ/mol
# Density = 2.438000 g / cm^3
# Si number density = 24.435617 Si / 1000 Ang^3
#
#
#
# Elastic Constant Matrix: (Units=GPa)
#
#
# Indices 1 2 3 4 5 6 
#
# 1 148.1267 23.5686 33.3900 0.0000 0.0000 0.0000
# 2 23.5686 141.1800 14.3760 0.0000 0.0000 0.0000
# 3 33.3900 14.3760 112.9157 0.0000 0.0000 0.0000
# 4 0.0000 0.0000 0.0000 19.6315 0.0000 0.0000
# 5 0.0000 0.0000 0.0000 0.0000 21.8364 0.0000
# 6 0.0000 0.0000 0.0000 0.0000 0.0000 40.1124
#
#
#
# Elastic Compliance Matrix: (Units=1/GPa)
#
#
# Indices 1 2 3 4 5 6 
#
# 1 0.007376 -0.001023 -0.002051 0.000000 0.000000 0.000000
# 2 -0.001023 0.007318 -0.000629 0.000000 0.000000 0.000000
# 3 -0.002051 -0.000629 0.009543 0.000000 0.000000 0.000000
# 4 0.000000 0.000000 0.000000 0.050939 0.000000 0.000000
# 5 0.000000 0.000000 0.000000 0.000000 0.045795 0.000000
# 6 0.000000 0.000000 0.000000 0.000000 0.000000 0.024930
#
#
# Mechanical properties :
#
#
# Convention : Reuss Voigt Hill
#
# Bulk Modulus (GPa) = 59.41375 60.54350 59.97862
# Shear Modulus (GPa) = 31.46309 38.37522 34.91915
#
# Velocity S-wave (km/s) = 3.59219 3.96721 3.78435
# Velocity P-wave (km/s) = 6.44766 6.76871 6.61014
#
# Compressibility (1/GPa) = 0.01683112
#
# Stress axis : x y z
#
# Youngs Moduli (GPa) = 135.57508 136.65053 104.79139
#
# Poissons Ratio (x) = 0.13973 0.21492
# Poissons Ratio (y) = 0.13863 0.06595
# Poissons Ratio (z) = 0.27806 0.08600
#
# Static dielectric constant tensor:
#      x y z
#    x 1.946930 0.000000 0.000000 
#    y 0.000000 2.129850 0.000000 
#    z 0.000000 0.000000 1.905180 
# 
# From -- ./inp_files/14217.got.cif
#   From: 2010.05.17/outbox.cif.g08.bks.cpg/sg43_8_cif.got.tgz:14217.got - 2010.06.03 19:21:55.
