data_PCOD9371497
_publ_section_title
;
Structure prediction by ZEFSAII (Michael W. Deem and Ramdas Pophale) SiO2 
 PCOD9371497
Probable space group: F D D 2
;
_chemical_formula_sum "Si O2"
_cell_formula_units_Z 112
_cell_length_a 14.511763
_cell_length_b 14.463559
_cell_length_c 26.431749
_cell_angle_alpha 90.000000
_cell_angle_beta 90.000000
_cell_angle_gamma 90.000000
_cell_volume 5547.805798
_symmetry_space_group_name_H-M "F D D 2"
_symmetry_group_IT_number 43
_symmetry_cell_setting 'orthorhombic'
loop_
_space_group_symop_operation_xyz
x,y,z
-x,-y,z
1/4-x,1/4+y,1/4+z
1/4+x,1/4-y,1/4+z
x,1/2+y,1/2+z
-x,1/2-y,1/2+z
1/4-x,3/4+y,3/4+z
1/4+x,3/4-y,3/4+z
1/2+x,y,1/2+z
1/2-x,-y,1/2+z
3/4-x,1/4+y,3/4+z
3/4+x,1/4-y,3/4+z
1/2+x,1/2+y,z
1/2-x,1/2-y,z
3/4-x,3/4+y,1/4+z
3/4+x,3/4-y,1/4+z
loop_
_atom_site_type_symbol
_atom_site_label
_atom_site_fract_x
_atom_site_fract_y
_atom_site_fract_z
Si Si1 0.485796 0.360667 0.930290
Si Si2 0.329644 0.826246 0.267375
Si Si3 0.154811 0.951384 0.406674
Si Si4 0.561301 0.784429 0.850746
Si Si5 0.139825 0.975838 0.892753
Si Si6 0.173540 0.319193 0.574383
Si Si7 0.783138 0.039395 0.787286
O O1 0.474080 0.265669 0.900828
O O2 0.590542 0.397940 0.926820
O O3 0.425420 0.435670 0.900148
O O4 0.447910 0.346582 0.986596
O O5 0.250000 0.750000 0.263953
O O6 0.378846 0.825701 0.213115
O O7 0.393474 0.788032 0.312535
O O8 0.293998 0.929486 0.278212
O O9 0.132939 0.864571 0.369200
O O10 0.258793 0.988009 0.406145
O O11 0.094357 0.033897 0.382066
O O12 0.473930 0.833423 0.824975
O O13 0.151362 0.939945 0.835183
O O14 0.250000 0.250000 0.551409
O O15 0.073390 0.311300 0.550235
#
# Coordination Sequence:
#
# PCOD9371497 Si02
#       7
#    16  16  16  16  16  16  16
#     4  11  24  43  67  91 134 172 226 279 341 394
#     4  12  22  36  69  97 126 171 222 269 333 388
#     4  10  22  41  64  95 134 169 220 273 331 393
#     4  11  22  39  66  99 127 170 222 276 324 396
#     4  10  24  47  62  93 135 173 222 284 326 408
#     4   9  20  41  61  91 138 167 214 276 328 393
#     4  11  23  44  65  96 133 181 220 277 340 403
#
# _framework density 20.188161000000001
#
# number of rings (size 3 to 8) (size 9 to 14) (size 15 to 20)
#    0.000    1.429    2.857    3.857    2.000    1.143 
#    2.571    2.143    0.000    0.000    0.000    0.000 
#    0.000    0.000    0.000    0.000    0.000    0.000 
#
# Total GULP energy -156240.854834 kJ/mol
# GULP energy per Si atom -5580.030530 kJ/mol
# Density = 2.014221 g / cm^3
# Si number density = 20.188161 Si / 1000 Ang^3
#
#
#
# Elastic Constant Matrix: (Units=GPa)
#
#
# Indices 1 2 3 4 5 6 
#
# 1 98.7200 35.1848 22.5751 0.0000 0.0000 0.0000
# 2 35.1848 59.7778 32.2524 0.0000 0.0000 0.0000
# 3 22.5751 32.2524 107.0120 0.0000 0.0000 0.0000
# 4 0.0000 0.0000 0.0000 10.1636 0.0000 0.0000
# 5 0.0000 0.0000 0.0000 0.0000 19.1198 0.0000
# 6 0.0000 0.0000 0.0000 0.0000 0.0000 28.3511
#
#
#
# Elastic Compliance Matrix: (Units=1/GPa)
#
#
# Indices 1 2 3 4 5 6 
#
# 1 0.012842 -0.007281 -0.000515 0.000000 0.000000 0.000000
# 2 -0.007281 0.024105 -0.005729 0.000000 0.000000 0.000000
# 3 -0.000515 -0.005729 0.011180 0.000000 0.000000 0.000000
# 4 0.000000 0.000000 0.000000 0.098391 0.000000 0.000000
# 5 0.000000 0.000000 0.000000 0.000000 0.052302 0.000000
# 6 0.000000 0.000000 0.000000 0.000000 0.000000 0.035272
#
#
# Mechanical properties :
#
#
# Convention : Reuss Voigt Hill
#
# Bulk Modulus (GPa) = 47.44346 49.50381 48.47364
# Shear Modulus (GPa) = 18.64500 23.22673 20.93587
#
# Velocity S-wave (km/s) = 3.04231 3.39560 3.22380
# Velocity P-wave (km/s) = 5.99104 6.32044 6.15794
#
# Compressibility (1/GPa) = 0.02107772
#
# Stress axis : x y z
#
# Youngs Moduli (GPa) = 77.86660 41.48451 89.44529
#
# Poissons Ratio (x) = 0.30206 0.04604
# Poissons Ratio (y) = 0.56697 0.51244
# Poissons Ratio (z) = 0.04008 0.23767
#
# Static dielectric constant tensor:
#      x y z
#    x 1.736140 0.000000 0.000000 
#    y 0.000000 1.734670 0.000000 
#    z 0.000000 0.000000 1.735560 
# 
# From -- ./inp_files/25627.got.cif
#   From: 2010.05.17/outbox.cif.g08.bks.cpg/sg43_13_cif.got.tgz:25627.got - 2010.06.03 19:21:55.
