data_PCOD9371294
_publ_section_title
;
Structure prediction by ZEFSAII (Michael W. Deem and Ramdas Pophale) SiO2 
 PCOD9371294
Probable space group: F D D 2
;
_chemical_formula_sum "Si O2"
_cell_formula_units_Z 88
_cell_length_a 20.368650
_cell_length_b 10.960738
_cell_length_c 18.422792
_cell_angle_alpha 90.000000
_cell_angle_beta 90.000000
_cell_angle_gamma 90.000000
_cell_volume 4112.988461
_symmetry_space_group_name_H-M "F D D 2"
_symmetry_group_IT_number 43
_symmetry_cell_setting 'orthorhombic'
loop_
_space_group_symop_operation_xyz
x,y,z
-x,-y,z
1/4-x,1/4+y,1/4+z
1/4+x,1/4-y,1/4+z
x,1/2+y,1/2+z
-x,1/2-y,1/2+z
1/4-x,3/4+y,3/4+z
1/4+x,3/4-y,3/4+z
1/2+x,y,1/2+z
1/2-x,-y,1/2+z
3/4-x,1/4+y,3/4+z
3/4+x,1/4-y,3/4+z
1/2+x,1/2+y,z
1/2-x,1/2-y,z
3/4-x,3/4+y,1/4+z
3/4+x,3/4-y,1/4+z
loop_
_atom_site_type_symbol
_atom_site_label
_atom_site_fract_x
_atom_site_fract_y
_atom_site_fract_z
Si Si1 0.210210 0.447774 0.638400
Si Si2 0.798523 0.356379 0.517099
Si Si3 0.667594 0.570657 0.740050
Si Si4 0.736869 0.394158 0.369050
Si Si5 0.500000 0.500000 0.288975
Si Si6 0.124308 0.354758 0.766608
O O1 0.192684 0.558887 0.586447
O O2 0.284672 0.443147 0.670253
O O3 0.202826 0.330060 0.588646
O O4 0.164148 0.429430 0.706403
O O5 0.750000 0.250000 0.541453
O O6 0.862538 0.283743 0.489571
O O7 0.762868 0.423868 0.449408
O O8 0.715550 0.547530 0.809057
O O9 0.638153 0.708821 0.752716
O O10 0.750000 0.250000 0.364614
O O11 0.661422 0.396310 0.341576
O O12 0.549999 0.400989 0.256000
#
# Coordination Sequence:
#
# PCOD9371294 Si02
#       6
#    16  16  16  16   8  16
#     4  11  24  44  66 102 137 186 232 290 350 427
#     4  11  24  36  66 105 132 177 231 293 351 421
#     4  10  21  43  70  91 142 185 229 288 359 422
#     4   8  19  38  64  96 129 177 230 282 338 419
#     4  12  24  38  74  98 132 178 236 294 336 426
#     4  10  22  44  69 100 133 182 239 291 353 422
#
# _framework density 21.395636
#
# number of rings (size 3 to 8) (size 9 to 14) (size 15 to 20)
#    0.000    1.818    1.818    2.182   10.182    2.909 
#    0.000    3.636    0.000    0.000    0.000    0.000 
#    0.000    0.000    0.000    0.000    0.000    0.000 
#
# Total GULP energy -122622.129416 kJ/mol
# GULP energy per Si atom -5573.733155 kJ/mol
# Density = 2.134694 g / cm^3
# Si number density = 21.395636 Si / 1000 Ang^3
#
#
#
# Elastic Constant Matrix: (Units=GPa)
#
#
# Indices 1 2 3 4 5 6 
#
# 1 141.4415 56.2723 48.3235 0.0000 0.0000 0.0000
# 2 56.2723 90.9002 58.3116 0.0000 0.0000 0.0000
# 3 48.3235 58.3116 84.6429 0.0000 0.0000 0.0000
# 4 0.0000 0.0000 0.0000 24.8045 0.0000 0.0000
# 5 0.0000 0.0000 0.0000 0.0000 42.3107 0.0000
# 6 0.0000 0.0000 0.0000 0.0000 0.0000 35.4675
#
#
#
# Elastic Compliance Matrix: (Units=1/GPa)
#
#
# Indices 1 2 3 4 5 6 
#
# 1 0.009667 -0.004380 -0.002502 0.000000 0.000000 0.000000
# 2 -0.004380 0.021697 -0.012447 0.000000 0.000000 0.000000
# 3 -0.002502 -0.012447 0.021818 0.000000 0.000000 0.000000
# 4 0.000000 0.000000 0.000000 0.040315 0.000000 0.000000
# 5 0.000000 0.000000 0.000000 0.000000 0.023635 0.000000
# 6 0.000000 0.000000 0.000000 0.000000 0.000000 0.028195
#
#
# Mechanical properties :
#
#
# Convention : Reuss Voigt Hill
#
# Bulk Modulus (GPa) = 68.84795 71.42217 70.13506
# Shear Modulus (GPa) = 26.47953 30.78835 28.63394
#
# Velocity S-wave (km/s) = 3.52179 3.79753 3.66226
# Velocity P-wave (km/s) = 6.98468 7.25827 7.12279
#
# Compressibility (1/GPa) = 0.01452476
#
# Stress axis : x y z
#
# Youngs Moduli (GPa) = 103.44178 46.08959 45.83457
#
# Poissons Ratio (x) = 0.20185 0.11468
# Poissons Ratio (y) = 0.45303 0.57050
# Poissons Ratio (z) = 0.25881 0.57367
#
# Static dielectric constant tensor:
#      x y z
#    x 1.857810 0.000000 0.000000 
#    y 0.000000 1.857520 0.000000 
#    z 0.000000 0.000000 1.836720 
# 
# From -- ./inp_files/14568.got.cif
#   From: 2010.05.17/outbox.cif.g08.bks.cpg/sg43_8_cif.got.tgz:14568.got - 2010.06.03 19:21:55.
