data_PCOD9371485
_publ_section_title
;
Structure prediction by ZEFSAII (Michael W. Deem and Ramdas Pophale) SiO2 
 PCOD9371485
Probable space group: F D D 2
;
_chemical_formula_sum "Si O2"
_cell_formula_units_Z 80
_cell_length_a 10.789313
_cell_length_b 12.940112
_cell_length_c 25.154269
_cell_angle_alpha 90.000000
_cell_angle_beta 90.000000
_cell_angle_gamma 90.000000
_cell_volume 3511.911219
_symmetry_space_group_name_H-M "F D D 2"
_symmetry_group_IT_number 43
_symmetry_cell_setting 'orthorhombic'
loop_
_space_group_symop_operation_xyz
x,y,z
-x,-y,z
1/4-x,1/4+y,1/4+z
1/4+x,1/4-y,1/4+z
x,1/2+y,1/2+z
-x,1/2-y,1/2+z
1/4-x,3/4+y,3/4+z
1/4+x,3/4-y,3/4+z
1/2+x,y,1/2+z
1/2-x,-y,1/2+z
3/4-x,1/4+y,3/4+z
3/4+x,1/4-y,3/4+z
1/2+x,1/2+y,z
1/2-x,1/2-y,z
3/4-x,3/4+y,1/4+z
3/4+x,3/4-y,1/4+z
loop_
_atom_site_type_symbol
_atom_site_label
_atom_site_fract_x
_atom_site_fract_y
_atom_site_fract_z
Si Si1 0.966054 0.713687 0.184200
Si Si2 0.783945 0.536313 0.328560
Si Si3 0.250000 0.574255 0.631380
Si Si4 0.617746 0.569430 0.232296
Si Si5 0.132254 0.680570 0.280464
O O1 0.853666 0.643853 0.161824
O O2 0.918075 0.818146 0.211263
O O3 0.038164 0.750000 0.131380
O O4 0.046649 0.662709 0.229634
O O5 0.896334 0.606147 0.350935
O O6 0.703350 0.587292 0.283126
O O7 0.831924 0.431855 0.301497
O O8 0.184139 0.517105 0.680600
O O9 0.315861 0.517105 0.582160
O O10 0.500000 0.500000 0.246526
O O11 0.250000 0.750000 0.266233
#
# Coordination Sequence:
#
# PCOD9371485 Si02
#       5
#    16  16  16  16  16
#     4  10  22  41  60  86 122 159 199 243 297 362
#     4  10  22  41  60  86 122 159 199 243 297 362
#     4  10  23  42  62  86 121 164 203 238 296 372
#     4  11  22  37  60  90 119 156 201 248 299 347
#     4  11  22  37  60  90 119 156 201 248 299 347
#
# _framework density 22.779620000000001
#
# number of rings (size 3 to 8) (size 9 to 14) (size 15 to 20)
#    0.000    1.600    0.000    7.800    0.000    7.200 
#    0.000    0.000    0.000    0.000    0.000    0.000 
#    0.000    0.000    0.000    0.000    0.000    0.000 
#
# Total GULP energy -111717.633414 kJ/mol
# GULP energy per Si atom -5585.881671 kJ/mol
# Density = 2.272777 g / cm^3
# Si number density = 22.779620 Si / 1000 Ang^3
#
#
#
# Elastic Constant Matrix: (Units=GPa)
#
#
# Indices 1 2 3 4 5 6 
#
# 1 84.3720 27.6844 64.9019 0.0000 0.0000 0.0000
# 2 27.6844 18.5058 41.5058 0.0000 0.0000 0.0000
# 3 64.9019 41.5058 192.3966 0.0000 0.0000 0.0000
# 4 0.0000 0.0000 0.0000 26.1537 0.0000 0.0000
# 5 0.0000 0.0000 0.0000 0.0000 29.2709 0.0000
# 6 0.0000 0.0000 0.0000 0.0000 0.0000 -1.5776
#
#
#
# Elastic Compliance Matrix: (Units=1/GPa)
#
#
# Indices 1 2 3 4 5 6 
#
# 1 0.023322 -0.033410 -0.000660 0.000000 0.000000 0.000000
# 2 -0.033410 0.152553 -0.021640 0.000000 0.000000 0.000000
# 3 -0.000660 -0.021640 0.010089 0.000000 0.000000 0.000000
# 4 0.000000 0.000000 0.000000 0.038236 0.000000 0.000000
# 5 0.000000 0.000000 0.000000 0.000000 0.034164 0.000000
# 6 0.000000 0.000000 0.000000 0.000000 0.000000 -0.633870
#
#
# Mechanical properties :
#
#
# Convention : Reuss Voigt Hill
#
# Bulk Modulus (GPa) = 13.41483 62.60650 38.01067
# Shear Modulus (GPa) = -20.89960 21.51488 0.30764
#
# Velocity S-wave (km/s) = -3.03226 3.07657 0.36789
# Velocity P-wave (km/s) = 2.52145 6.33748 4.11132
#
# Compressibility (1/GPa) = 0.07454435
#
# Stress axis : x y z
#
# Youngs Moduli (GPa) = 42.87710 6.55510 99.12158
#
# Poissons Ratio (x) = 0.21901 0.06541
# Poissons Ratio (y) = 1.43252 2.14499
# Poissons Ratio (z) = 0.02830 0.14185
#
# Static dielectric constant tensor:
#      x y z
#    x 1.961680 0.000000 0.000000 
#    y 0.000000 1.858100 0.000000 
#    z 0.000000 0.000000 1.900330 
# 
# From -- ./inp_files/20925.got.cif
#   From: 2010.05.17/outbox.cif.g08.bks.cpg/sg43_11_cif.got.tgz:20925.got - 2010.06.03 19:21:55.
