data_PCOD9371235
_publ_section_title
;
Structure prediction by ZEFSAII (Michael W. Deem and Ramdas Pophale) SiO2 
 PCOD9371235
Probable space group: F D D 2
;
_chemical_formula_sum "Si O2"
_cell_formula_units_Z 104
_cell_length_a 9.590576
_cell_length_b 17.690535
_cell_length_c 25.457623
_cell_angle_alpha 90.000000
_cell_angle_beta 90.000000
_cell_angle_gamma 90.000000
_cell_volume 4319.201936
_symmetry_space_group_name_H-M "F D D 2"
_symmetry_group_IT_number 43
_symmetry_cell_setting 'orthorhombic'
loop_
_space_group_symop_operation_xyz
x,y,z
-x,-y,z
1/4-x,1/4+y,1/4+z
1/4+x,1/4-y,1/4+z
x,1/2+y,1/2+z
-x,1/2-y,1/2+z
1/4-x,3/4+y,3/4+z
1/4+x,3/4-y,3/4+z
1/2+x,y,1/2+z
1/2-x,-y,1/2+z
3/4-x,1/4+y,3/4+z
3/4+x,1/4-y,3/4+z
1/2+x,1/2+y,z
1/2-x,1/2-y,z
3/4-x,3/4+y,1/4+z
3/4+x,3/4-y,1/4+z
loop_
_atom_site_type_symbol
_atom_site_label
_atom_site_fract_x
_atom_site_fract_y
_atom_site_fract_z
Si Si1 0.000000 0.000000 0.384100
Si Si2 0.885190 0.140735 0.209207
Si Si3 0.841390 0.984056 0.190008
Si Si4 0.064864 0.684857 0.541612
Si Si5 0.480997 0.822040 0.335220
Si Si6 0.623660 0.193461 0.773322
Si Si7 0.529648 0.656570 0.573804
O O1 0.922156 0.063773 0.349825
O O2 0.107693 0.036326 0.424820
O O3 0.811436 0.125676 0.265573
O O4 0.819912 0.072096 0.175697
O O5 0.047010 0.150978 0.225750
O O6 0.729977 0.957303 0.232635
O O7 0.823860 0.936771 0.137397
O O8 0.000000 0.000000 0.211681
O O9 0.206980 0.639980 0.549808
O O10 0.948229 0.622132 0.556791
O O11 0.051575 0.762913 0.571918
O O12 0.510497 0.745425 0.302857
O O13 0.323072 0.844639 0.348975
O O14 0.750000 0.250000 0.757740
#
# Coordination Sequence:
#
# PCOD9371235 Si02
#       7
#     8  16  16  16  16  16  16
#     4  12  28  46  76 102 148 204 252 304 402 456
#     4  11  25  46  69 103 143 192 250 303 371 468
#     4  11  23  42  71 106 144 194 254 300 373 460
#     4  10  22  44  70 100 148 190 241 311 372 442
#     4  11  25  42  71 108 144 189 250 315 373 446
#     4  10  21  41  73 100 139 190 237 308 371 437
#     4  11  26  46  71 103 148 195 249 315 380 456
#
# _framework density 24.078522
#
# number of rings (size 3 to 8) (size 9 to 14) (size 15 to 20)
#    0.000    1.231    1.538    3.692    8.615    3.692 
#    0.000    3.077    0.000    0.000    0.000    0.000 
#    0.000    0.000    0.000    0.000    0.000    0.000 
#
# Total GULP energy -144983.516316 kJ/mol
# GULP energy per Si atom -5576.289089 kJ/mol
# Density = 2.402372 g / cm^3
# Si number density = 24.078522 Si / 1000 Ang^3
#
#
#
# Elastic Constant Matrix: (Units=GPa)
#
#
# Indices 1 2 3 4 5 6 
#
# 1 97.8937 41.8431 26.3595 0.0000 0.0000 0.0000
# 2 41.8431 98.2058 27.3791 0.0000 0.0000 0.0000
# 3 26.3595 27.3791 78.5796 0.0000 0.0000 0.0000
# 4 0.0000 0.0000 0.0000 34.0570 0.0000 0.0000
# 5 0.0000 0.0000 0.0000 0.0000 22.2663 0.0000
# 6 0.0000 0.0000 0.0000 0.0000 0.0000 30.1015
#
#
#
# Elastic Compliance Matrix: (Units=1/GPa)
#
#
# Indices 1 2 3 4 5 6 
#
# 1 0.012983 -0.004782 -0.002689 0.000000 0.000000 0.000000
# 2 -0.004782 0.013040 -0.002939 0.000000 0.000000 0.000000
# 3 -0.002689 -0.002939 0.014652 0.000000 0.000000 0.000000
# 4 0.000000 0.000000 0.000000 0.029363 0.000000 0.000000
# 5 0.000000 0.000000 0.000000 0.000000 0.044911 0.000000
# 6 0.000000 0.000000 0.000000 0.000000 0.000000 0.033221
#
#
# Mechanical properties :
#
#
# Convention : Reuss Voigt Hill
#
# Bulk Modulus (GPa) = 50.36690 51.76027 51.06359
# Shear Modulus (GPa) = 28.47246 29.22479 28.84862
#
# Velocity S-wave (km/s) = 3.44246 3.48764 3.46512
# Velocity P-wave (km/s) = 6.06332 6.14502 6.10431
#
# Compressibility (1/GPa) = 0.01985431
#
# Stress axis : x y z
#
# Youngs Moduli (GPa) = 77.02209 76.68897 68.24977
#
# Poissons Ratio (x) = 0.36674 0.18352
# Poissons Ratio (y) = 0.36833 0.20060
# Poissons Ratio (z) = 0.20711 0.22540
#
# Static dielectric constant tensor:
#      x y z
#    x 2.021280 0.000000 0.000000 
#    y 0.000000 2.140200 0.000000 
#    z 0.000000 0.000000 1.866250 
# 
# From -- ./inp_files/24291.got.cif
#   From: 2010.05.17/outbox.cif.g08.bks.cpg/sg43_13_cif.got.tgz:24291.got - 2010.06.03 19:21:55.
