data_PCOD9371216
_publ_section_title
;
Structure prediction by ZEFSAII (Michael W. Deem and Ramdas Pophale) SiO2 
 PCOD9371216
Probable space group: F D D 2
;
_chemical_formula_sum "Si O2"
_cell_formula_units_Z 120
_cell_length_a 12.250968
_cell_length_b 26.756168
_cell_length_c 16.052479
_cell_angle_alpha 90.000000
_cell_angle_beta 90.000000
_cell_angle_gamma 90.000000
_cell_volume 5261.825364
_symmetry_space_group_name_H-M "F D D 2"
_symmetry_group_IT_number 43
_symmetry_cell_setting 'orthorhombic'
loop_
_space_group_symop_operation_xyz
x,y,z
-x,-y,z
1/4-x,1/4+y,1/4+z
1/4+x,1/4-y,1/4+z
x,1/2+y,1/2+z
-x,1/2-y,1/2+z
1/4-x,3/4+y,3/4+z
1/4+x,3/4-y,3/4+z
1/2+x,y,1/2+z
1/2-x,-y,1/2+z
3/4-x,1/4+y,3/4+z
3/4+x,1/4-y,3/4+z
1/2+x,1/2+y,z
1/2-x,1/2-y,z
3/4-x,3/4+y,1/4+z
3/4+x,3/4-y,1/4+z
loop_
_atom_site_type_symbol
_atom_site_label
_atom_site_fract_x
_atom_site_fract_y
_atom_site_fract_z
Si Si1 0.222374 0.101340 0.728030
Si Si2 0.431871 0.671309 0.790305
Si Si3 0.187795 0.484323 0.223593
Si Si4 0.323465 0.645923 0.635840
Si Si5 0.500000 0.500000 0.850774
Si Si6 0.700728 0.611475 0.536749
Si Si7 0.631281 0.996743 0.035493
Si Si8 0.424452 0.451089 0.196466
O O1 0.220841 0.042188 0.721487
O O2 0.132802 0.111772 0.797898
O O3 0.216908 0.121470 0.634731
O O4 0.330546 0.121330 0.767042
O O5 0.390337 0.634343 0.718230
O O6 0.469438 0.636425 0.867293
O O7 0.528947 0.706308 0.751972
O O8 0.344028 0.702295 0.845300
O O9 0.133171 0.478236 0.132358
O O10 0.303868 0.458228 0.236613
O O11 0.096056 0.478216 0.292880
O O12 0.298132 0.703939 0.650243
O O13 0.690957 0.550874 0.524807
O O14 0.774417 0.649189 0.481601
O O15 0.500000 0.000000 0.011156
O O16 0.500000 0.500000 0.217402
#
# Coordination Sequence:
#
# PCOD9371216 Si02
#       8
#    16  16  16  16   8  16  16  16
#     4  10  21  41  68 100 139 182 244 302 364 436
#     4  11  27  44  72 105 150 196 248 313 374 459
#     4   9  19  40  69 103 140 188 235 302 371 440
#     4  11  25  45  70 104 141 191 250 310 372 440
#     4  10  22  40  74 104 140 184 250 304 364 454
#     4  11  23  42  70 104 141 197 239 304 371 454
#     4  10  21  41  71 104 144 189 252 305 373 441
#     4  11  24  45  71 104 157 195 242 305 389 457
#
# _framework density 22.805774
#
# number of rings (size 3 to 8) (size 9 to 14) (size 15 to 20)
#    0.000    1.600    2.000    1.600    4.667    2.133 
#    4.800    0.667    0.000    0.000    0.000    0.000 
#    0.000    0.000    0.000    0.000    0.000    0.000 
#
# Total GULP energy -167148.015595 kJ/mol
# GULP energy per Si atom -5571.600520 kJ/mol
# Density = 2.275387 g / cm^3
# Si number density = 22.805774 Si / 1000 Ang^3
#
#
#
# Elastic Constant Matrix: (Units=GPa)
#
#
# Indices 1 2 3 4 5 6 
#
# 1 261.2417 -131.2529 169.5256 0.0000 0.0000 0.0000
# 2 -131.2529 269.3017 -97.7694 0.0000 0.0000 0.0000
# 3 169.5256 -97.7694 192.7637 0.0000 0.0000 0.0000
# 4 0.0000 0.0000 0.0000 39.7063 0.0000 0.0000
# 5 0.0000 0.0000 0.0000 0.0000 1998.3314 0.0000
# 6 0.0000 0.0000 0.0000 0.0000 0.0000 46.6275
#
#
#
# Elastic Compliance Matrix: (Units=1/GPa)
#
#
# Indices 1 2 3 4 5 6 
#
# 1 0.009725 0.002004 -0.007537 0.000000 0.000000 0.000000
# 2 0.002004 0.004964 0.000756 0.000000 0.000000 0.000000
# 3 -0.007537 0.000756 0.012199 0.000000 0.000000 0.000000
# 4 0.000000 0.000000 0.000000 0.025185 0.000000 0.000000
# 5 0.000000 0.000000 0.000000 0.000000 0.000500 0.000000
# 6 0.000000 0.000000 0.000000 0.000000 0.000000 0.021447
#
#
# Mechanical properties :
#
#
# Convention : Reuss Voigt Hill
#
# Bulk Modulus (GPa) = 57.68939 67.14599 62.41769
# Shear Modulus (GPa) = 55.95813 469.11997 262.53905
#
# Velocity S-wave (km/s) = 4.95884 14.35788 10.74102
# Velocity P-wave (km/s) = 7.62481 17.44625 13.46308
#
# Compressibility (1/GPa) = 0.01733421
#
# Stress axis : x y z
#
# Youngs Moduli (GPa) = 102.82537 201.44034 81.97448
#
# Poissons Ratio (x) = -0.40364 0.61780
# Poissons Ratio (y) = -0.20604 -0.06194
# Poissons Ratio (z) = 0.77494 -0.15221
#
# Static dielectric constant tensor:
#      x y z
#    x -1.069930 0.000000 0.000000 
#    y 0.000000 1.850620 0.000000 
#    z 0.000000 0.000000 1.698400 
# 
# From -- ./inp_files/13461.got.cif
#   From: 2010.05.17/outbox.cif.g08.bks.cpg/sg43_7_cif.got.tgz:13461.got - 2010.06.03 19:21:55.
