data_PCOD9371112
_publ_section_title
;
Structure prediction by ZEFSAII (Michael W. Deem and Ramdas Pophale) SiO2 
 PCOD9371112
Probable space group: F D D 2
;
_chemical_formula_sum "Si O2"
_cell_formula_units_Z 104
_cell_length_a 25.162108
_cell_length_b 28.869567
_cell_length_c 7.472101
_cell_angle_alpha 90.000000
_cell_angle_beta 90.000000
_cell_angle_gamma 90.000000
_cell_volume 5427.877353
_symmetry_space_group_name_H-M "F D D 2"
_symmetry_group_IT_number 43
_symmetry_cell_setting 'orthorhombic'
loop_
_space_group_symop_operation_xyz
x,y,z
-x,-y,z
1/4-x,1/4+y,1/4+z
1/4+x,1/4-y,1/4+z
x,1/2+y,1/2+z
-x,1/2-y,1/2+z
1/4-x,3/4+y,3/4+z
1/4+x,3/4-y,3/4+z
1/2+x,y,1/2+z
1/2-x,-y,1/2+z
3/4-x,1/4+y,3/4+z
3/4+x,1/4-y,3/4+z
1/2+x,1/2+y,z
1/2-x,1/2-y,z
3/4-x,3/4+y,1/4+z
3/4+x,3/4-y,1/4+z
loop_
_atom_site_type_symbol
_atom_site_label
_atom_site_fract_x
_atom_site_fract_y
_atom_site_fract_z
Si Si1 0.429487 0.507816 0.612850
Si Si2 0.325700 0.086618 0.669394
Si Si3 0.488321 0.926321 0.978236
Si Si4 0.500000 0.000000 0.421317
Si Si5 0.298017 0.339175 0.363466
Si Si6 0.751589 0.565789 0.330980
Si Si7 0.440200 0.267862 0.749720
O O1 0.451534 0.472301 0.462261
O O2 0.464246 0.555050 0.606790
O O3 0.449905 0.484919 0.796443
O O4 0.368253 0.514921 0.585462
O O5 0.301487 0.133716 0.756164
O O6 0.388559 0.088671 0.631658
O O7 0.297304 0.076781 0.478540
O O8 0.313657 0.047927 0.818563
O O9 0.522046 0.911288 0.808493
O O10 0.476738 0.043236 0.527120
O O11 0.277348 0.386624 0.275945
O O12 0.773390 0.540615 0.153596
O O13 0.711834 0.531860 0.437683
#
# Coordination Sequence:
#
# PCOD9371112 Si02
#       7
#    16  16  16   8  16  16  16
#     4  10  21  39  65  93 126 168 219 262 333 380
#     4  11  23  42  66  92 132 170 219 267 331 387
#     4   9  20  38  63  92 119 167 215 263 313 392
#     4  10  22  38  66  98 130 154 220 286 308 384
#     4  11  22  42  65  94 128 169 217 273 324 383
#     4  11  26  43  64  99 130 171 222 264 327 399
#     4  12  23  44  66  91 136 175 212 272 327 390
#
# _framework density 19.160346000000001
#
# number of rings (size 3 to 8) (size 9 to 14) (size 15 to 20)
#    0.000    1.538    3.077    2.769    4.308    0.000 
#    0.000    0.000    0.000    0.000    0.000    0.000 
#    0.000    0.000    0.000    0.000    0.000    0.000 
#
# Total GULP energy -144838.802508 kJ/mol
# GULP energy per Si atom -5570.723173 kJ/mol
# Density = 1.911674 g / cm^3
# Si number density = 19.160346 Si / 1000 Ang^3
#
#
#
# Elastic Constant Matrix: (Units=GPa)
#
#
# Indices 1 2 3 4 5 6 
#
# 1 119.7102 73.1420 39.5556 0.0286 0.0008 -0.0039
# 2 73.1420 123.2182 11.9000 -0.0155 0.0020 -0.0035
# 3 39.5556 11.9000 24.5356 0.0100 0.0086 -0.0028
# 4 0.0286 -0.0155 0.0100 -41.7320 -0.0118 -0.0099
# 5 0.0008 0.0020 0.0086 -0.0118 21.1049 0.0005
# 6 -0.0039 -0.0035 -0.0028 -0.0099 0.0005 27.2674
#
#
#
# Elastic Compliance Matrix: (Units=1/GPa)
#
#
# Indices 1 2 3 4 5 6 
#
# 1 0.032102 -0.014748 -0.044601 0.000017 0.000018 -0.000002
# 2 -0.014748 0.015290 0.016361 -0.000012 -0.000008 0.000002
# 3 -0.044601 0.016361 0.104726 -0.000012 -0.000043 0.000006
# 4 0.000017 -0.000012 -0.000012 -0.023962 -0.000013 -0.000009
# 5 0.000018 -0.000008 -0.000043 -0.000013 0.047382 -0.000001
# 6 -0.000002 0.000002 0.000006 -0.000009 -0.000001 0.036674
#
#
# Mechanical properties :
#
#
# Convention : Reuss Voigt Hill
#
# Bulk Modulus (GPa) = 15.11902 57.40660 36.26281
# Shear Modulus (GPa) = 15.61348 10.85250 13.23299
#
# Velocity S-wave (km/s) = 2.85772 2.38251 2.63086
# Velocity P-wave (km/s) = 4.33551 6.13145 5.30996
#
# Compressibility (1/GPa) = 0.06614187
#
# Stress axis : x y z
#
# Youngs Moduli (GPa) = 31.15073 65.40173 9.54869
#
# Poissons Ratio (x) = 0.96456 0.42588
# Poissons Ratio (y) = 0.45942 -0.15622
# Poissons Ratio (z) = 1.38935 -1.07003
#
# Static dielectric constant tensor:
#      x y z
#    x 1.648770 -0.000020 0.000000 
#    y -0.000020 1.795000 0.000030 
#    z 0.000000 0.000030 1.717720 
# 
# From -- ./inp_files/3970.got.cif
#   From: 2010.05.17/outbox.cif.g08.bks.cpg/sg43_2_cif.got.tgz:3970.got - 2010.06.03 19:21:55.
