data_PCOD9371238
_publ_section_title
;
Structure prediction by ZEFSAII (Michael W. Deem and Ramdas Pophale) SiO2 
 PCOD9371238
Probable space group: F D D 2
;
_chemical_formula_sum "Si O2"
_cell_formula_units_Z 104
_cell_length_a 7.419301
_cell_length_b 22.863226
_cell_length_c 28.701781
_cell_angle_alpha 90.000000
_cell_angle_beta 90.000000
_cell_angle_gamma 90.000000
_cell_volume 4868.658873
_symmetry_space_group_name_H-M "F D D 2"
_symmetry_group_IT_number 43
_symmetry_cell_setting 'orthorhombic'
loop_
_space_group_symop_operation_xyz
x,y,z
-x,-y,z
1/4-x,1/4+y,1/4+z
1/4+x,1/4-y,1/4+z
x,1/2+y,1/2+z
-x,1/2-y,1/2+z
1/4-x,3/4+y,3/4+z
1/4+x,3/4-y,3/4+z
1/2+x,y,1/2+z
1/2-x,-y,1/2+z
3/4-x,1/4+y,3/4+z
3/4+x,1/4-y,3/4+z
1/2+x,1/2+y,z
1/2-x,1/2-y,z
3/4-x,3/4+y,1/4+z
3/4+x,3/4-y,1/4+z
loop_
_atom_site_type_symbol
_atom_site_label
_atom_site_fract_x
_atom_site_fract_y
_atom_site_fract_z
Si Si1 0.040443 0.266697 0.007870
Si Si2 0.982060 0.903018 0.506515
Si Si3 0.000000 0.500000 0.084871
Si Si4 0.030503 0.249335 0.106843
Si Si5 0.486467 0.794657 0.413486
Si Si6 0.472880 0.157470 0.179732
Si Si7 0.818023 0.593361 0.431214
O O1 0.250000 0.250000 0.005919
O O2 0.020534 0.335325 0.016425
O O3 0.961935 0.238060 0.054864
O O4 0.969694 0.244124 0.958488
O O5 0.137882 0.921835 0.470015
O O6 0.798318 0.905365 0.477330
O O7 0.982076 0.944010 0.551310
O O8 0.173104 0.490320 0.118412
O O9 0.250000 0.250000 0.103381
O O10 0.978081 0.310191 0.131686
O O11 0.982311 0.198757 0.142998
O O12 0.312841 0.837910 0.423909
O O13 0.644976 0.842535 0.409123
O O14 0.270756 0.178480 0.192233
#
# Coordination Sequence:
#
# PCOD9371238 Si02
#       7
#    16  16   8  16  16  16  16
#     4  11  20  37  66  91 120 175 222 257 324 395
#     4  12  23  39  70  93 133 171 221 266 343 387
#     4  12  24  38  68 102 130 180 214 284 338 396
#     4   9  18  35  64  93 120 166 216 263 320 382
#     4  10  21  42  61  88 136 169 218 266 333 387
#     4   9  19  40  66  88 134 166 212 276 323 391
#     4   9  22  41  63  93 129 166 219 265 330 393
#
# _framework density 21.361118000000001
#
# number of rings (size 3 to 8) (size 9 to 14) (size 15 to 20)
#    0.923    0.923    2.308    1.846    2.154    0.615 
#    0.000    6.154    6.769    0.000    0.000    0.000 
#    0.000    0.000    0.000    0.000    0.000    0.000 
#
# Total GULP energy -145018.892100 kJ/mol
# GULP energy per Si atom -5577.649696 kJ/mol
# Density = 2.131250 g / cm^3
# Si number density = 21.361118 Si / 1000 Ang^3
#
#
#
# Elastic Constant Matrix: (Units=GPa)
#
#
# Indices 1 2 3 4 5 6 
#
# 1 60.2985 -3.4281 15.6163 0.0000 0.0000 0.0000
# 2 -3.4281 120.2115 58.7286 0.0000 0.0000 0.0000
# 3 15.6163 58.7286 139.1077 0.0000 0.0000 0.0000
# 4 0.0000 0.0000 0.0000 23.4988 0.0000 0.0000
# 5 0.0000 0.0000 0.0000 0.0000 1.7054 0.0000
# 6 0.0000 0.0000 0.0000 0.0000 0.0000 9.9295
#
#
#
# Elastic Compliance Matrix: (Units=1/GPa)
#
#
# Indices 1 2 3 4 5 6 
#
# 1 0.017393 0.001827 -0.002724 0.000000 0.000000 0.000000
# 2 0.001827 0.010672 -0.004711 0.000000 0.000000 0.000000
# 3 -0.002724 -0.004711 0.009483 0.000000 0.000000 0.000000
# 4 0.000000 0.000000 0.000000 0.042555 0.000000 0.000000
# 5 0.000000 0.000000 0.000000 0.000000 0.586358 0.000000
# 6 0.000000 0.000000 0.000000 0.000000 0.000000 0.100710
#
#
# Mechanical properties :
#
#
# Convention : Reuss Voigt Hill
#
# Bulk Modulus (GPa) = 37.97476 51.27238 44.62357
# Shear Modulus (GPa) = 6.35191 23.60681 14.97936
#
# Velocity S-wave (km/s) = 1.72628 3.32796 2.65097
# Velocity P-wave (km/s) = 4.66792 6.23072 5.50506
#
# Compressibility (1/GPa) = 0.02633328
#
# Stress axis : x y z
#
# Youngs Moduli (GPa) = 57.49300 93.70212 105.44982
#
# Poissons Ratio (x) = -0.17117 0.28722
# Poissons Ratio (y) = -0.10502 0.49674
# Poissons Ratio (z) = 0.15660 0.44140
#
# Static dielectric constant tensor:
#      x y z
#    x 1.794310 0.000000 0.000000 
#    y 0.000000 1.850420 0.000000 
#    z 0.000000 0.000000 1.760370 
# 
# From -- ./inp_files/24522.got.cif
#   From: 2010.05.17/outbox.cif.g08.bks.cpg/sg43_13_cif.got.tgz:24522.got - 2010.06.03 19:21:55.
