data_PCOD9371082
_publ_section_title
;
Structure prediction by ZEFSAII (Michael W. Deem and Ramdas Pophale) SiO2 
 PCOD9371082
Probable space group: F D D 2
;
_chemical_formula_sum "Si O2"
_cell_formula_units_Z 120
_cell_length_a 24.079617
_cell_length_b 8.604044
_cell_length_c 24.964988
_cell_angle_alpha 90.000000
_cell_angle_beta 90.000000
_cell_angle_gamma 90.000000
_cell_volume 5172.298245
_symmetry_space_group_name_H-M "F D D 2"
_symmetry_group_IT_number 43
_symmetry_cell_setting 'orthorhombic'
loop_
_space_group_symop_operation_xyz
x,y,z
-x,-y,z
1/4-x,1/4+y,1/4+z
1/4+x,1/4-y,1/4+z
x,1/2+y,1/2+z
-x,1/2-y,1/2+z
1/4-x,3/4+y,3/4+z
1/4+x,3/4-y,3/4+z
1/2+x,y,1/2+z
1/2-x,-y,1/2+z
3/4-x,1/4+y,3/4+z
3/4+x,1/4-y,3/4+z
1/2+x,1/2+y,z
1/2-x,1/2-y,z
3/4-x,3/4+y,1/4+z
3/4+x,3/4-y,1/4+z
loop_
_atom_site_type_symbol
_atom_site_label
_atom_site_fract_x
_atom_site_fract_y
_atom_site_fract_z
Si Si1 0.932838 0.347662 0.585480
Si Si2 0.000000 0.000000 0.177995
Si Si3 0.684648 0.256692 0.449267
Si Si4 0.394830 0.669475 0.227026
Si Si5 0.027113 0.164989 0.871171
Si Si6 0.602691 0.996848 0.080231
Si Si7 0.666162 0.288337 0.722273
Si Si8 0.333109 0.002885 0.646789
O O1 0.927463 0.167998 0.569462
O O2 0.939476 0.445110 0.531463
O O3 0.874234 0.411906 0.607698
O O4 0.974694 0.375189 0.635256
O O5 0.049978 0.932138 0.214263
O O6 0.750000 0.250000 0.459258
O O7 0.661663 0.402019 0.481722
O O8 0.674673 0.294886 0.386417
O O9 0.646637 0.107913 0.465435
O O10 0.356972 0.639309 0.279434
O O11 0.359618 0.652837 0.172680
O O12 0.082594 0.213062 0.842413
O O13 0.046730 0.141250 0.932289
O O14 0.975714 0.280547 0.870010
O O15 0.000000 0.000000 0.853440
O O16 0.669759 0.117875 0.696784
#
# Coordination Sequence:
#
# PCOD9371082 Si02
#       8
#    16   8  16  16  16  16  16  16
#     4  11  20  40  67  93 130 172 224 260 324 394
#     4  10  26  42  64  96 134 178 216 274 326 408
#     4  11  23  42  66  94 125 173 222 269 320 394
#     4  11  25  43  62  95 139 166 216 274 341 374
#     4   9  18  39  65  91 123 165 219 261 309 388
#     4  11  22  42  65  97 130 167 221 273 320 390
#     4  10  21  38  68  93 123 167 222 266 313 390
#     4  10  22  42  61  95 133 165 214 278 316 391
#
# _framework density 23.200517999999999
#
# number of rings (size 3 to 8) (size 9 to 14) (size 15 to 20)
#    0.000    1.600    5.333    0.800    4.667    3.733 
#    4.800    2.000    0.000    0.000    0.000    0.000 
#    0.000    0.000    0.000    0.000    0.000    0.000 
#
# Total GULP energy -167504.689563 kJ/mol
# GULP energy per Si atom -5583.489652 kJ/mol
# Density = 2.314771 g / cm^3
# Si number density = 23.200518 Si / 1000 Ang^3
#
#
#
# Elastic Constant Matrix: (Units=GPa)
#
#
# Indices 1 2 3 4 5 6 
#
# 1 87.1780 11.8239 -22.6581 0.0000 0.0000 0.0000
# 2 11.8239 31.7402 16.5987 0.0000 0.0000 0.0000
# 3 -22.6581 16.5987 93.4234 0.0000 0.0000 0.0000
# 4 0.0000 0.0000 0.0000 23.0092 0.0000 0.0000
# 5 0.0000 0.0000 0.0000 0.0000 10.1603 0.0000
# 6 0.0000 0.0000 0.0000 0.0000 0.0000 22.6204
#
#
#
# Elastic Compliance Matrix: (Units=1/GPa)
#
#
# Indices 1 2 3 4 5 6 
#
# 1 0.013707 -0.007546 0.004665 0.000000 0.000000 0.000000
# 2 -0.007546 0.038887 -0.008739 0.000000 0.000000 0.000000
# 3 0.004665 -0.008739 0.013388 0.000000 0.000000 0.000000
# 4 0.000000 0.000000 0.000000 0.043461 0.000000 0.000000
# 5 0.000000 0.000000 0.000000 0.000000 0.098422 0.000000
# 6 0.000000 0.000000 0.000000 0.000000 0.000000 0.044208
#
#
# Mechanical properties :
#
#
# Convention : Reuss Voigt Hill
#
# Bulk Modulus (GPa) = 23.39620 24.87451 24.13535
# Shear Modulus (GPa) = 17.26762 24.92981 21.09872
#
# Velocity S-wave (km/s) = 2.73110 3.28157 3.01891
# Velocity P-wave (km/s) = 4.47789 5.01030 4.75155
#
# Compressibility (1/GPa) = 0.04274199
#
# Stress axis : x y z
#
# Youngs Moduli (GPa) = 72.95743 25.71563 74.69352
#
# Poissons Ratio (x) = 0.19404 -0.34844
# Poissons Ratio (y) = 0.55050 0.65276
# Poissons Ratio (z) = -0.34034 0.22473
#
# Static dielectric constant tensor:
#      x y z
#    x 1.914030 0.000000 0.000000 
#    y 0.000000 1.919470 0.000000 
#    z 0.000000 0.000000 1.876270 
# 
# From -- ./inp_files/26605.got.cif
#   From: 2010.05.17/outbox.cif.g08.bks.cpg/sg43_14_cif.got.tgz:26605.got - 2010.06.03 19:21:55.
