data_PCOD9371415
_publ_section_title
;
Structure prediction by ZEFSAII (Michael W. Deem and Ramdas Pophale) SiO2 
 PCOD9371415
Probable space group: F D D 2
;
_chemical_formula_sum "Si O2"
_cell_formula_units_Z 112
_cell_length_a 22.776726
_cell_length_b 13.706282
_cell_length_c 16.233533
_cell_angle_alpha 90.000000
_cell_angle_beta 90.000000
_cell_angle_gamma 90.000000
_cell_volume 5067.852993
_symmetry_space_group_name_H-M "F D D 2"
_symmetry_group_IT_number 43
_symmetry_cell_setting 'orthorhombic'
loop_
_space_group_symop_operation_xyz
x,y,z
-x,-y,z
1/4-x,1/4+y,1/4+z
1/4+x,1/4-y,1/4+z
x,1/2+y,1/2+z
-x,1/2-y,1/2+z
1/4-x,3/4+y,3/4+z
1/4+x,3/4-y,3/4+z
1/2+x,y,1/2+z
1/2-x,-y,1/2+z
3/4-x,1/4+y,3/4+z
3/4+x,1/4-y,3/4+z
1/2+x,1/2+y,z
1/2-x,1/2-y,z
3/4-x,3/4+y,1/4+z
3/4+x,3/4-y,1/4+z
loop_
_atom_site_type_symbol
_atom_site_label
_atom_site_fract_x
_atom_site_fract_y
_atom_site_fract_z
Si Si1 0.503338 0.210371 0.523240
Si Si2 0.895028 0.319475 0.412727
Si Si3 0.830450 0.866864 0.576536
Si Si4 0.539111 0.708708 0.353197
Si Si5 0.774667 0.143107 0.529949
Si Si6 0.268947 0.349076 0.866292
Si Si7 0.145442 0.083138 0.383081
O O1 0.559467 0.154548 0.485356
O O2 0.466195 0.249570 0.445801
O O3 0.528223 0.308870 0.561757
O O4 0.459232 0.164317 0.589334
O O5 0.903456 0.207400 0.386044
O O6 0.826699 0.335473 0.421599
O O7 0.917264 0.378037 0.332743
O O8 0.759182 0.874186 0.583926
O O9 0.848395 0.896357 0.481879
O O10 0.862073 0.768532 0.608441
O O11 0.517734 0.802765 0.302615
O O12 0.603541 0.666063 0.344005
O O13 0.750000 0.250000 0.549628
O O14 0.782052 0.133395 0.432465
O O15 0.250000 0.250000 0.820611
#
# Coordination Sequence:
#
# PCOD9371415 Si02
#       7
#    16  16  16  16  16  16  16
#     4  10  22  39  63 100 130 175 229 281 359 416
#     4  10  24  40  63  95 135 174 222 290 345 425
#     4  10  23  37  70  98 144 179 231 297 364 421
#     4  10  23  42  64  97 135 182 226 293 352 433
#     4   9  21  44  64  90 128 173 222 270 340 407
#     4  11  23  37  67  97 122 173 221 278 341 404
#     4  12  21  43  67 101 138 187 227 304 353 436
#
# _framework density 22.100088
#
# number of rings (size 3 to 8) (size 9 to 14) (size 15 to 20)
#    0.000    2.000    1.429    3.000    8.000    1.143 
#    5.143    2.857    0.000    0.000    0.000    0.000 
#    0.000    0.000    0.000    0.000    0.000    0.000 
#
# Total GULP energy -156163.691769 kJ/mol
# GULP energy per Si atom -5577.274706 kJ/mol
# Density = 2.204979 g / cm^3
# Si number density = 22.100088 Si / 1000 Ang^3
#
#
#
# Elastic Constant Matrix: (Units=GPa)
#
#
# Indices 1 2 3 4 5 6 
#
# 1 85.7852 8.0267 -1.3585 0.0000 0.0000 0.0000
# 2 8.0267 47.7098 -0.9572 0.0000 0.0000 0.0000
# 3 -1.3585 -0.9572 52.8514 0.0000 0.0000 0.0000
# 4 0.0000 0.0000 0.0000 10.9026 0.0000 0.0000
# 5 0.0000 0.0000 0.0000 0.0000 16.9929 0.0000
# 6 0.0000 0.0000 0.0000 0.0000 0.0000 24.9431
#
#
#
# Elastic Compliance Matrix: (Units=1/GPa)
#
#
# Indices 1 2 3 4 5 6 
#
# 1 0.011847 -0.001988 0.000269 0.000000 0.000000 0.000000
# 2 -0.001988 0.021301 0.000335 0.000000 0.000000 0.000000
# 3 0.000269 0.000335 0.018934 0.000000 0.000000 0.000000
# 4 0.000000 0.000000 0.000000 0.091721 0.000000 0.000000
# 5 0.000000 0.000000 0.000000 0.000000 0.058848 0.000000
# 6 0.000000 0.000000 0.000000 0.000000 0.000000 0.040091
#
#
# Mechanical properties :
#
#
# Convention : Reuss Voigt Hill
#
# Bulk Modulus (GPa) = 20.27854 21.97428 21.12641
# Shear Modulus (GPa) = 19.08761 22.61007 20.84884
#
# Velocity S-wave (km/s) = 2.94205 3.20203 3.07479
# Velocity P-wave (km/s) = 4.55374 4.86161 4.71019
#
# Compressibility (1/GPa) = 0.04931321
#
# Stress axis : x y z
#
# Youngs Moduli (GPa) = 84.40769 46.94570 52.81518
#
# Poissons Ratio (x) = 0.09332 -0.01418
# Poissons Ratio (y) = 0.16779 -0.01768
# Poissons Ratio (z) = -0.02266 -0.01571
#
# Static dielectric constant tensor:
#      x y z
#    x 1.846160 0.000000 0.000000 
#    y 0.000000 1.878270 0.000000 
#    z 0.000000 0.000000 1.875610 
# 
# From -- ./inp_files/11274.got.cif
#   From: 2010.05.17/outbox.cif.g08.bks.cpg/sg43_6_cif.got.tgz:11274.got - 2010.06.03 19:21:55.
