data_PCOD9371109
_publ_section_title
;
Structure prediction by ZEFSAII (Michael W. Deem and Ramdas Pophale) SiO2 
 PCOD9371109
Probable space group: F D D 2
;
_chemical_formula_sum "Si O2"
_cell_formula_units_Z 96
_cell_length_a 18.535552
_cell_length_b 27.446739
_cell_length_c 8.576056
_cell_angle_alpha 90.000000
_cell_angle_beta 90.000000
_cell_angle_gamma 90.000000
_cell_volume 4362.986657
_symmetry_space_group_name_H-M "F D D 2"
_symmetry_group_IT_number 43
_symmetry_cell_setting 'orthorhombic'
loop_
_space_group_symop_operation_xyz
x,y,z
-x,-y,z
1/4-x,1/4+y,1/4+z
1/4+x,1/4-y,1/4+z
x,1/2+y,1/2+z
-x,1/2-y,1/2+z
1/4-x,3/4+y,3/4+z
1/4+x,3/4-y,3/4+z
1/2+x,y,1/2+z
1/2-x,-y,1/2+z
3/4-x,1/4+y,3/4+z
3/4+x,1/4-y,3/4+z
1/2+x,1/2+y,z
1/2-x,1/2-y,z
3/4-x,3/4+y,1/4+z
3/4+x,3/4-y,1/4+z
loop_
_atom_site_type_symbol
_atom_site_label
_atom_site_fract_x
_atom_site_fract_y
_atom_site_fract_z
Si Si1 0.999547 0.128893 0.453480
Si Si2 0.900974 0.589276 0.689928
Si Si3 0.406945 0.237397 0.399457
Si Si4 0.719339 0.806069 0.265966
Si Si5 0.306354 0.206402 0.921229
Si Si6 0.798608 0.983118 0.795550
O O1 0.075084 0.143220 0.372434
O O2 0.025867 0.082668 0.551465
O O3 0.932887 0.116540 0.340812
O O4 0.979868 0.177125 0.552620
O O5 0.884799 0.532633 0.728279
O O6 0.965876 0.589602 0.568763
O O7 0.348328 0.194791 0.383485
O O8 0.423901 0.248818 0.216106
O O9 0.482881 0.233442 0.486274
O O10 0.750000 0.750000 0.263463
O O11 0.694830 0.817819 0.092619
O O12 0.250000 0.250000 0.918488
O O13 0.386560 0.229722 0.918908
#
# Coordination Sequence:
#
# PCOD9371109 Si02
#       6
#    16  16  16  16  16  16
#     4  11  22  40  63  94 133 169 217 278 325 392
#     4  10  21  40  61  90 131 164 215 273 330 387
#     4   9  20  38  66  91 129 170 218 271 323 400
#     4   8  17  38  60  85 118 164 207 256 314 382
#     4  10  21  39  65  89 126 174 217 265 327 394
#     4  10  21  41  63  99 130 170 223 270 327 393
#
# _framework density 22.003274999999999
#
# number of rings (size 3 to 8) (size 9 to 14) (size 15 to 20)
#    0.000    2.333    1.667    1.000    0.000    6.000 
#    6.000    0.000    0.000    0.000    0.000    0.000 
#    0.000    0.000    0.000    0.000    0.000    0.000 
#
# Total GULP energy -133749.426925 kJ/mol
# GULP energy per Si atom -5572.892789 kJ/mol
# Density = 2.195319 g / cm^3
# Si number density = 22.003275 Si / 1000 Ang^3
#
#
#
# Elastic Constant Matrix: (Units=GPa)
#
#
# Indices 1 2 3 4 5 6 
#
# 1 133.9377 15.5078 0.2945 0.0000 0.0001 0.0000
# 2 15.5078 41.1206 14.7911 0.0000 0.0000 0.0000
# 3 0.2945 14.7911 19.8469 0.0000 0.0001 0.0000
# 4 0.0000 0.0000 0.0000 22.1328 0.0000 0.0000
# 5 0.0001 0.0000 0.0001 0.0000 37.7022 0.0000
# 6 0.0000 0.0000 0.0000 0.0000 0.0000 2.6669
#
#
#
# Elastic Compliance Matrix: (Units=1/GPa)
#
#
# Indices 1 2 3 4 5 6 
#
# 1 0.007926 -0.004026 0.002883 0.000000 0.000000 0.000000
# 2 -0.004026 0.035271 -0.026226 0.000000 0.000000 0.000000
# 3 0.002883 -0.026226 0.069888 0.000000 0.000000 0.000000
# 4 0.000000 0.000000 0.000000 0.045182 0.000000 0.000000
# 5 0.000000 0.000000 0.000000 0.000000 0.026524 0.000000
# 6 0.000000 0.000000 0.000000 0.000000 0.000000 0.374965
#
#
# Mechanical properties :
#
#
# Convention : Reuss Voigt Hill
#
# Bulk Modulus (GPa) = 17.13909 28.45468 22.79688
# Shear Modulus (GPa) = 7.88716 23.45452 15.67084
#
# Velocity S-wave (km/s) = 1.89534 3.26844 2.67161
# Velocity P-wave (km/s) = 3.54909 5.21572 4.46092
#
# Compressibility (1/GPa) = 0.05834615
#
# Stress axis : x y z
#
# Youngs Moduli (GPa) = 126.16745 28.35230 14.30863
#
# Poissons Ratio (x) = 0.11415 -0.04125
# Poissons Ratio (y) = 0.50796 0.37526
# Poissons Ratio (z) = -0.36372 0.74356
#
# Static dielectric constant tensor:
#      x y z
#    x 1.860400 0.000000 0.000000 
#    y 0.000000 1.834530 0.000000 
#    z 0.000000 0.000000 1.798680 
# 
# From -- ./inp_files/3278.got.cif
#   From: 2010.05.17/outbox.cif.g08.bks.cpg/sg43_2_cif.got.tgz:3278.got - 2010.06.03 19:21:55.
