data_PCOD9371095
_publ_section_title
;
Structure prediction by ZEFSAII (Michael W. Deem and Ramdas Pophale) SiO2 
 PCOD9371095
Probable space group: F D D 2
;
_chemical_formula_sum "Si O2"
_cell_formula_units_Z 96
_cell_length_a 17.738258
_cell_length_b 21.942386
_cell_length_c 10.102067
_cell_angle_alpha 90.000000
_cell_angle_beta 90.000000
_cell_angle_gamma 90.000000
_cell_volume 3931.923528
_symmetry_space_group_name_H-M "F D D 2"
_symmetry_group_IT_number 43
_symmetry_cell_setting 'orthorhombic'
loop_
_space_group_symop_operation_xyz
x,y,z
-x,-y,z
1/4-x,1/4+y,1/4+z
1/4+x,1/4-y,1/4+z
x,1/2+y,1/2+z
-x,1/2-y,1/2+z
1/4-x,3/4+y,3/4+z
1/4+x,3/4-y,3/4+z
1/2+x,y,1/2+z
1/2-x,-y,1/2+z
3/4-x,1/4+y,3/4+z
3/4+x,1/4-y,3/4+z
1/2+x,1/2+y,z
1/2-x,1/2-y,z
3/4-x,3/4+y,1/4+z
3/4+x,3/4-y,1/4+z
loop_
_atom_site_type_symbol
_atom_site_label
_atom_site_fract_x
_atom_site_fract_y
_atom_site_fract_z
Si Si1 0.705063 0.189400 0.745470
Si Si2 0.603268 0.124821 0.525837
Si Si3 0.832244 0.988332 0.127210
Si Si4 0.145654 0.420964 0.988665
Si Si5 0.997989 0.343369 0.980291
Si Si6 0.324470 0.714598 0.118768
O O1 0.750000 0.250000 0.698435
O O2 0.654535 0.164184 0.624503
O O3 0.769444 0.148046 0.814296
O O4 0.645125 0.210407 0.852546
O O5 0.583163 0.158561 0.389839
O O6 0.652881 0.062232 0.515883
O O7 0.759978 0.029519 0.151822
O O8 0.860197 0.956208 0.260796
O O9 0.082250 0.368699 0.970517
O O10 0.209024 0.415788 0.874995
O O11 0.106758 0.486809 0.973397
O O12 0.950526 0.399539 0.920119
O O13 0.250000 0.750000 0.065836
#
# Coordination Sequence:
#
# PCOD9371095 Si02
#       6
#    16  16  16  16  16  16
#     4  10  23  41  66  93 130 174 219 272 333 398
#     4  11  22  41  62  95 131 172 216 270 335 400
#     4  10  21  39  62  94 126 161 216 272 327 394
#     4  10  22  38  60  88 126 160 216 256 322 390
#     4  10  21  41  61  90 119 167 209 270 316 391
#     4   9  18  36  63  82 113 163 209 253 312 378
#
# _framework density 24.415531000000001
#
# number of rings (size 3 to 8) (size 9 to 14) (size 15 to 20)
#    0.000    2.000    0.000    3.500    0.000    7.333 
#   15.000    0.000    0.000    0.000    0.000    0.000 
#    0.000    0.000    0.000    0.000    0.000    0.000 
#
# Total GULP energy -133989.411372 kJ/mol
# GULP energy per Si atom -5582.892140 kJ/mol
# Density = 2.435996 g / cm^3
# Si number density = 24.415531 Si / 1000 Ang^3
#
#
#
# Elastic Constant Matrix: (Units=GPa)
#
#
# Indices 1 2 3 4 5 6 
#
# 1 93.4080 30.8172 16.0197 0.0000 0.0000 0.0000
# 2 30.8172 88.9325 24.7865 0.0000 0.0000 0.0000
# 3 16.0197 24.7865 40.9317 0.0000 0.0000 0.0000
# 4 0.0000 0.0000 0.0000 33.3198 0.0000 0.0000
# 5 0.0000 0.0000 0.0000 0.0000 18.9609 0.0000
# 6 0.0000 0.0000 0.0000 0.0000 0.0000 53.3328
#
#
#
# Elastic Compliance Matrix: (Units=1/GPa)
#
#
# Indices 1 2 3 4 5 6 
#
# 1 0.012329 -0.003522 -0.002693 0.000000 0.000000 0.000000
# 2 -0.003522 0.014534 -0.007423 0.000000 0.000000 0.000000
# 3 -0.002693 -0.007423 0.029980 0.000000 0.000000 0.000000
# 4 0.000000 0.000000 0.000000 0.030012 0.000000 0.000000
# 5 0.000000 0.000000 0.000000 0.000000 0.052740 0.000000
# 6 0.000000 0.000000 0.000000 0.000000 0.000000 0.018750
#
#
# Mechanical properties :
#
#
# Convention : Reuss Voigt Hill
#
# Bulk Modulus (GPa) = 33.82002 40.72432 37.27217
# Shear Modulus (GPa) = 25.57858 31.23261 28.40560
#
# Velocity S-wave (km/s) = 3.24023 3.58049 3.41460
# Velocity P-wave (km/s) = 5.28022 5.81456 5.55382
#
# Compressibility (1/GPa) = 0.02956829
#
# Stress axis : x y z
#
# Youngs Moduli (GPa) = 81.10631 68.80568 33.35597
#
# Poissons Ratio (x) = 0.24233 0.08982
# Poissons Ratio (y) = 0.28565 0.24759
# Poissons Ratio (z) = 0.21840 0.51072
#
# Static dielectric constant tensor:
#      x y z
#    x 1.989290 0.000000 0.000000 
#    y 0.000000 1.984760 0.000000 
#    z 0.000000 0.000000 1.981080 
# 
# From -- ./inp_files/7093.got.cif
#   From: 2010.05.17/outbox.cif.g08.bks.cpg/sg43_4_cif.got.tgz:7093.got - 2010.06.03 19:21:55.
