data_PCOD9371074
_publ_section_title
;
Structure prediction by ZEFSAII (Michael W. Deem and Ramdas Pophale) SiO2 
 PCOD9371074
Probable space group: F D D 2
;
_chemical_formula_sum "Si O2"
_cell_formula_units_Z 112
_cell_length_a 6.478685
_cell_length_b 29.707988
_cell_length_c 26.862398
_cell_angle_alpha 90.000000
_cell_angle_beta 90.000000
_cell_angle_gamma 90.000000
_cell_volume 5170.170721
_symmetry_space_group_name_H-M "F D D 2"
_symmetry_group_IT_number 43
_symmetry_cell_setting 'orthorhombic'
loop_
_space_group_symop_operation_xyz
x,y,z
-x,-y,z
1/4-x,1/4+y,1/4+z
1/4+x,1/4-y,1/4+z
x,1/2+y,1/2+z
-x,1/2-y,1/2+z
1/4-x,3/4+y,3/4+z
1/4+x,3/4-y,3/4+z
1/2+x,y,1/2+z
1/2-x,-y,1/2+z
3/4-x,1/4+y,3/4+z
3/4+x,1/4-y,3/4+z
1/2+x,1/2+y,z
1/2-x,1/2-y,z
3/4-x,3/4+y,1/4+z
3/4+x,3/4-y,1/4+z
loop_
_atom_site_type_symbol
_atom_site_label
_atom_site_fract_x
_atom_site_fract_y
_atom_site_fract_z
Si Si1 0.025935 0.359119 0.003540
Si Si2 0.406375 0.437389 0.212467
Si Si3 0.000000 0.500000 0.054079
Si Si4 0.000000 0.000000 0.297877
Si Si5 0.875837 0.702504 0.091858
Si Si6 0.425867 0.322006 0.280935
Si Si7 0.640360 0.846659 0.197945
Si Si8 0.370658 0.457577 0.101804
O O1 0.156108 0.331471 0.044755
O O2 0.834850 0.386231 0.028039
O O3 0.166842 0.392073 0.970810
O O4 0.898748 0.325158 0.968130
O O5 0.366060 0.468658 0.260276
O O6 0.266568 0.393320 0.204892
O O7 0.370463 0.460935 0.160445
O O8 0.168127 0.530084 0.027430
O O9 0.136922 0.463464 0.084378
O O10 0.859432 0.031293 0.331673
O O11 0.750000 0.750000 0.092560
O O12 0.856713 0.674293 0.142947
O O13 0.267386 0.315823 0.235714
O O14 0.270253 0.329929 0.328055
O O15 0.500000 0.500000 0.082335
#
# Coordination Sequence:
#
# PCOD9371074 Si02
#       8
#    16  16   8   8  16  16  16  16
#     4  10  24  44  66  98 134 183 229 294 348 414
#     4  10  22  41  67  99 134 173 228 286 346 417
#     4  10  22  38  63  96 136 178 211 280 344 408
#     4  10  22  48  69  98 138 182 231 292 348 426
#     4  11  26  45  69 100 136 188 235 287 355 426
#     4  10  23  41  62  95 137 178 226 282 341 415
#     4  11  25  41  67 100 133 179 232 289 351 421
#     4  10  21  38  65  97 132 172 220 275 343 414
#
# _framework density 21.662728000000001
#
# number of rings (size 3 to 8) (size 9 to 14) (size 15 to 20)
#    0.000    1.714    0.714    1.714    6.000    6.286 
#    1.286    0.714    0.000    0.000    0.000    0.000 
#    0.000    0.000    0.000    0.000    0.000    0.000 
#
# Total GULP energy -155945.718070 kJ/mol
# GULP energy per Si atom -5569.489931 kJ/mol
# Density = 2.161342 g / cm^3
# Si number density = 21.662728 Si / 1000 Ang^3
#
#
#
# Elastic Constant Matrix: (Units=GPa)
#
#
# Indices 1 2 3 4 5 6 
#
# 1 86.4349 20.7857 23.3919 0.0000 0.0000 0.0000
# 2 20.7857 63.6260 16.6438 0.0000 0.0000 0.0000
# 3 23.3919 16.6438 60.6788 0.0000 0.0000 0.0000
# 4 0.0000 0.0000 0.0000 21.8460 0.0000 0.0000
# 5 0.0000 0.0000 0.0000 0.0000 15.6442 0.0000
# 6 0.0000 0.0000 0.0000 0.0000 0.0000 38.6496
#
#
#
# Elastic Compliance Matrix: (Units=1/GPa)
#
#
# Indices 1 2 3 4 5 6 
#
# 1 0.013528 -0.003291 -0.004312 0.000000 0.000000 0.000000
# 2 -0.003291 0.017733 -0.003595 0.000000 0.000000 0.000000
# 3 -0.004312 -0.003595 0.019129 0.000000 0.000000 0.000000
# 4 0.000000 0.000000 0.000000 0.045775 0.000000 0.000000
# 5 0.000000 0.000000 0.000000 0.000000 0.063922 0.000000
# 6 0.000000 0.000000 0.000000 0.000000 0.000000 0.025873
#
#
# Mechanical properties :
#
#
# Convention : Reuss Voigt Hill
#
# Bulk Modulus (GPa) = 35.72480 36.93139 36.32809
# Shear Modulus (GPa) = 22.96873 25.22250 24.09562
#
# Velocity S-wave (km/s) = 3.25974 3.41593 3.33875
# Velocity P-wave (km/s) = 5.54031 5.71344 5.62754
#
# Compressibility (1/GPa) = 0.02799176
#
# Stress axis : x y z
#
# Youngs Moduli (GPa) = 73.92117 56.39358 52.27740
#
# Poissons Ratio (x) = 0.18561 0.22543
# Poissons Ratio (y) = 0.24330 0.18794
# Poissons Ratio (z) = 0.31877 0.20274
#
# Static dielectric constant tensor:
#      x y z
#    x 1.808540 0.000000 0.000000 
#    y 0.000000 2.045640 0.000000 
#    z 0.000000 0.000000 1.790740 
# 
# From -- ./inp_files/27455.got.cif
#   From: 2010.05.17/outbox.cif.g08.bks.cpg/sg43_14_cif.got.tgz:27455.got - 2010.06.03 19:21:55.
