data_PCOD9371410
_publ_section_title
;
Structure prediction by ZEFSAII (Michael W. Deem and Ramdas Pophale) SiO2 
 PCOD9371410
Probable space group: F D D 2
;
_chemical_formula_sum "Si O2"
_cell_formula_units_Z 72
_cell_length_a 9.142954
_cell_length_b 13.635481
_cell_length_c 25.546118
_cell_angle_alpha 90.000000
_cell_angle_beta 90.000000
_cell_angle_gamma 90.000000
_cell_volume 3184.798142
_symmetry_space_group_name_H-M "F D D 2"
_symmetry_group_IT_number 43
_symmetry_cell_setting 'orthorhombic'
loop_
_space_group_symop_operation_xyz
x,y,z
-x,-y,z
1/4-x,1/4+y,1/4+z
1/4+x,1/4-y,1/4+z
x,1/2+y,1/2+z
-x,1/2-y,1/2+z
1/4-x,3/4+y,3/4+z
1/4+x,3/4-y,3/4+z
1/2+x,y,1/2+z
1/2-x,-y,1/2+z
3/4-x,1/4+y,3/4+z
3/4+x,1/4-y,3/4+z
1/2+x,1/2+y,z
1/2-x,1/2-y,z
3/4-x,3/4+y,1/4+z
3/4+x,3/4-y,1/4+z
loop_
_atom_site_type_symbol
_atom_site_label
_atom_site_fract_x
_atom_site_fract_y
_atom_site_fract_z
Si Si1 0.755693 0.864851 0.306090
Si Si2 0.784743 0.145262 0.968260
Si Si3 0.250000 0.750000 0.542850
Si Si4 0.407900 0.246011 0.640904
Si Si5 0.733653 0.366428 0.297407
O O1 0.750000 0.750000 0.310043
O O2 0.811904 0.892877 0.248425
O O3 0.866392 0.911998 0.347092
O O4 0.604017 0.918742 0.319294
O O5 0.750000 0.250000 0.941262
O O6 0.769881 0.050862 0.931615
O O7 0.658422 0.137645 0.012317
O O8 0.377405 0.675199 0.521767
O O9 0.250000 0.250000 0.668244
O O10 0.461932 0.337168 0.605925
O O11 0.750000 0.250000 0.300719
#
# Coordination Sequence:
#
# PCOD9371410 Si02
#       5
#    16  16   8  16  16
#     4  11  22  44  70  99 149 186 232 312 364 430
#     4  12  22  45  74 100 138 197 240 299 382 436
#     4  10  22  38  74 108 134 190 240 288 376 428
#     4  11  23  43  70 107 135 191 255 289 373 446
#     4  11  22  45  76  99 149 191 236 314 370 437
#
# _framework density 22.607398
#
# number of rings (size 3 to 8) (size 9 to 14) (size 15 to 20)
#    0.000    0.889    6.667    2.667    0.000    0.000 
#    8.000    0.000    4.889    0.000    0.000    0.000 
#    0.000    0.000    0.000    0.000    0.000    0.000 
#
# Total GULP energy -100262.306278 kJ/mol
# GULP energy per Si atom -5570.128127 kJ/mol
# Density = 2.255594 g / cm^3
# Si number density = 22.607398 Si / 1000 Ang^3
#
#
#
# Elastic Constant Matrix: (Units=GPa)
#
#
# Indices 1 2 3 4 5 6 
#
# 1 89.0278 26.9625 16.5110 0.0000 0.0000 0.0000
# 2 26.9625 192.8246 10.2177 0.0000 0.0000 0.0000
# 3 16.5110 10.2177 67.3927 0.0000 0.0000 0.0000
# 4 0.0000 0.0000 0.0000 29.1619 0.0000 0.0000
# 5 0.0000 0.0000 0.0000 0.0000 15.9488 0.0000
# 6 0.0000 0.0000 0.0000 0.0000 0.0000 27.2144
#
#
#
# Elastic Compliance Matrix: (Units=1/GPa)
#
#
# Indices 1 2 3 4 5 6 
#
# 1 0.012217 -0.001562 -0.002756 0.000000 0.000000 0.000000
# 2 -0.001562 0.005428 -0.000440 0.000000 0.000000 0.000000
# 3 -0.002756 -0.000440 0.015580 0.000000 0.000000 0.000000
# 4 0.000000 0.000000 0.000000 0.034291 0.000000 0.000000
# 5 0.000000 0.000000 0.000000 0.000000 0.062701 0.000000
# 6 0.000000 0.000000 0.000000 0.000000 0.000000 0.036745
#
#
# Mechanical properties :
#
#
# Convention : Reuss Voigt Hill
#
# Bulk Modulus (GPa) = 42.18033 50.73639 46.45836
# Shear Modulus (GPa) = 27.11760 34.16861 30.64310
#
# Velocity S-wave (km/s) = 3.46714 3.89188 3.68563
# Velocity P-wave (km/s) = 5.89291 6.53351 6.22146
#
# Compressibility (1/GPa) = 0.02370773
#
# Stress axis : x y z
#
# Youngs Moduli (GPa) = 81.85499 184.23579 64.18312
#
# Poissons Ratio (x) = 0.28781 0.17690
# Poissons Ratio (y) = 0.12787 0.02825
# Poissons Ratio (z) = 0.22561 0.08110
#
# Static dielectric constant tensor:
#      x y z
#    x 1.918020 0.000000 0.000000 
#    y 0.000000 1.868110 0.000000 
#    z 0.000000 0.000000 1.861430 
# 
# From -- ./inp_files/23949.got.cif
#   From: 2010.05.17/outbox.cif.g08.bks.cpg/sg43_12_cif.got.tgz:23949.got - 2010.06.03 19:21:55.
