data_PCOD9371551
_publ_section_title
;
Structure prediction by ZEFSAII (Michael W. Deem and Ramdas Pophale) SiO2 
 PCOD9371551
Probable space group: F D D 2
;
_chemical_formula_sum "Si O2"
_cell_formula_units_Z 120
_cell_length_a 25.376890
_cell_length_b 8.690343
_cell_length_c 27.395454
_cell_angle_alpha 90.000000
_cell_angle_beta 90.000000
_cell_angle_gamma 90.000000
_cell_volume 6041.625720
_symmetry_space_group_name_H-M "F D D 2"
_symmetry_group_IT_number 43
_symmetry_cell_setting 'orthorhombic'
loop_
_space_group_symop_operation_xyz
x,y,z
-x,-y,z
1/4-x,1/4+y,1/4+z
1/4+x,1/4-y,1/4+z
x,1/2+y,1/2+z
-x,1/2-y,1/2+z
1/4-x,3/4+y,3/4+z
1/4+x,3/4-y,3/4+z
1/2+x,y,1/2+z
1/2-x,-y,1/2+z
3/4-x,1/4+y,3/4+z
3/4+x,1/4-y,3/4+z
1/2+x,1/2+y,z
1/2-x,1/2-y,z
3/4-x,3/4+y,1/4+z
3/4+x,3/4-y,1/4+z
loop_
_atom_site_type_symbol
_atom_site_label
_atom_site_fract_x
_atom_site_fract_y
_atom_site_fract_z
Si Si1 0.923284 0.720417 0.667870
Si Si2 0.633125 0.233309 0.374617
Si Si3 0.651981 0.927531 0.322368
Si Si4 0.412309 0.224339 0.412862
Si Si5 0.750000 0.750000 0.358811
Si Si6 0.737463 0.569183 0.608791
Si Si7 0.497761 0.315003 0.751381
Si Si8 0.862210 0.466154 0.472066
O O1 0.867088 0.636022 0.671651
O O2 0.962908 0.602516 0.642695
O O3 0.947376 0.764215 0.720103
O O4 0.919028 0.867862 0.632645
O O5 0.573503 0.288950 0.368538
O O6 0.635480 0.144421 0.425784
O O7 0.649017 0.109785 0.333304
O O8 0.615628 0.851024 0.364922
O O9 0.710548 0.859498 0.328822
O O10 0.629933 0.871988 0.270642
O O11 0.473091 0.247508 0.399051
O O12 0.397995 0.112190 0.457707
O O13 0.750000 0.750000 0.605339
O O14 0.747591 0.489375 0.556848
O O15 0.500000 0.500000 0.749016
O O16 0.550687 0.242719 0.728093
#
# Coordination Sequence:
#
# PCOD9371551 Si02
#       8
#    16  16  16  16   8  16  16  16
#     4  11  22  42  63  99 132 175 220 292 341 404
#     4  11  24  41  67  95 142 172 226 292 344 409
#     4  10  22  42  64  99 129 179 223 277 341 417
#     4  10  23  42  65  95 139 174 227 279 344 403
#     4  10  24  40  66  90 138 172 220 274 352 412
#     4  12  26  43  66  97 138 187 226 284 352 411
#     4  12  24  39  70 101 126 171 237 284 346 418
#     4  11  23  41  68  98 132 174 231 283 340 420
#
# _framework density 19.862203000000001
#
# number of rings (size 3 to 8) (size 9 to 14) (size 15 to 20)
#    0.000    1.067    4.000    3.200    4.667    1.067 
#    0.000    0.000    2.933    0.000    0.000    0.000 
#    0.000    0.000    0.000    0.000    0.000    0.000 
#
# Total GULP energy -167645.147790 kJ/mol
# GULP energy per Si atom -5588.171593 kJ/mol
# Density = 1.981700 g / cm^3
# Si number density = 19.862203 Si / 1000 Ang^3
#
#
#
# Elastic Constant Matrix: (Units=GPa)
#
#
# Indices 1 2 3 4 5 6 
#
# 1 91.7357 26.2242 22.8572 0.0000 0.0000 0.0000
# 2 26.2242 94.2128 32.1685 0.0000 0.0000 0.0000
# 3 22.8572 32.1685 87.6505 0.0000 0.0000 0.0000
# 4 0.0000 0.0000 0.0000 30.9712 0.0000 0.0000
# 5 0.0000 0.0000 0.0000 0.0000 23.6700 0.0000
# 6 0.0000 0.0000 0.0000 0.0000 0.0000 29.8042
#
#
#
# Elastic Compliance Matrix: (Units=1/GPa)
#
#
# Indices 1 2 3 4 5 6 
#
# 1 0.012208 -0.002642 -0.002214 0.000000 0.000000 0.000000
# 2 -0.002642 0.012707 -0.003974 0.000000 0.000000 0.000000
# 3 -0.002214 -0.003974 0.013445 0.000000 0.000000 0.000000
# 4 0.000000 0.000000 0.000000 0.032288 0.000000 0.000000
# 5 0.000000 0.000000 0.000000 0.000000 0.042248 0.000000
# 6 0.000000 0.000000 0.000000 0.000000 0.000000 0.033552
#
#
# Mechanical properties :
#
#
# Convention : Reuss Voigt Hill
#
# Bulk Modulus (GPa) = 48.31245 48.45541 48.38393
# Shear Modulus (GPa) = 29.23842 29.71237 29.47540
#
# Velocity S-wave (km/s) = 3.84091 3.87191 3.85644
# Velocity P-wave (km/s) = 6.63677 6.66616 6.65148
#
# Compressibility (1/GPa) = 0.02069860
#
# Stress axis : x y z
#
# Youngs Moduli (GPa) = 81.91489 78.69817 74.37752
#
# Poissons Ratio (x) = 0.20793 0.16466
# Poissons Ratio (y) = 0.21643 0.29561
# Poissons Ratio (z) = 0.18134 0.31278
#
# Static dielectric constant tensor:
#      x y z
#    x 1.689800 0.000000 0.000000 
#    y 0.000000 1.729550 0.000000 
#    z 0.000000 0.000000 1.686070 
# 
# From -- ./inp_files/26612.got.cif
#   From: 2010.05.17/outbox.cif.g08.bks.cpg/sg43_14_cif.got.tgz:26612.got - 2010.06.03 19:21:55.
