data_PCOD9371150
_publ_section_title
;
Structure prediction by ZEFSAII (Michael W. Deem and Ramdas Pophale) SiO2 
 PCOD9371150
Probable space group: F D D 2
;
_chemical_formula_sum "Si O2"
_cell_formula_units_Z 80
_cell_length_a 7.331826
_cell_length_b 17.243633
_cell_length_c 26.999672
_cell_angle_alpha 90.000000
_cell_angle_beta 90.000000
_cell_angle_gamma 90.000000
_cell_volume 3413.496084
_symmetry_space_group_name_H-M "F D D 2"
_symmetry_group_IT_number 43
_symmetry_cell_setting 'orthorhombic'
loop_
_space_group_symop_operation_xyz
x,y,z
-x,-y,z
1/4-x,1/4+y,1/4+z
1/4+x,1/4-y,1/4+z
x,1/2+y,1/2+z
-x,1/2-y,1/2+z
1/4-x,3/4+y,3/4+z
1/4+x,3/4-y,3/4+z
1/2+x,y,1/2+z
1/2-x,-y,1/2+z
3/4-x,1/4+y,3/4+z
3/4+x,1/4-y,3/4+z
1/2+x,1/2+y,z
1/2-x,1/2-y,z
3/4-x,3/4+y,1/4+z
3/4+x,3/4-y,1/4+z
loop_
_atom_site_type_symbol
_atom_site_label
_atom_site_fract_x
_atom_site_fract_y
_atom_site_fract_z
Si Si1 0.786822 0.026824 0.026300
Si Si2 0.374507 0.816015 0.061459
Si Si3 0.996394 0.121974 0.828126
Si Si4 0.176243 0.464808 0.234345
Si Si5 0.374147 0.575388 0.927221
O O1 0.741792 0.107143 0.052742
O O2 0.703322 0.956563 0.057263
O O3 0.733684 0.042765 0.968734
O O4 0.000000 0.000000 0.025677
O O5 0.250000 0.750000 0.085023
O O6 0.558355 0.834450 0.090959
O O7 0.443735 0.780380 0.008295
O O8 0.912065 0.076933 0.781911
O O9 0.854043 0.112233 0.872814
O O10 0.278446 0.397742 0.205043
O O11 0.000000 0.500000 0.206387
O O12 0.500000 0.500000 0.919550
#
# Coordination Sequence:
#
# PCOD9371150 Si02
#       5
#    16  16  16  16  16
#     4  11  22  43  66  97 145 181 231 300 354 425
#     4  11  21  39  69 100 132 186 234 293 356 422
#     4  11  23  42  71  96 139 191 232 296 362 419
#     4  10  21  40  64  95 140 180 227 296 352 417
#     4  11  21  41  71  98 140 185 239 285 365 419
#
# _framework density 23.436381000000001
#
# number of rings (size 3 to 8) (size 9 to 14) (size 15 to 20)
#    0.000    1.200    6.000    2.400    0.000    1.600 
#    3.600    0.000   26.400    0.000    0.000    0.000 
#    0.000    0.000    0.000    0.000    0.000    0.000 
#
# Total GULP energy -111552.064516 kJ/mol
# GULP energy per Si atom -5577.603226 kJ/mol
# Density = 2.338304 g / cm^3
# Si number density = 23.436381 Si / 1000 Ang^3
#
#
#
# Elastic Constant Matrix: (Units=GPa)
#
#
# Indices 1 2 3 4 5 6 
#
# 1 76.5606 27.0466 7.9005 0.0000 0.0000 0.0000
# 2 27.0466 178.0240 35.6529 0.0000 0.0000 0.0000
# 3 7.9005 35.6529 91.3261 0.0000 0.0000 0.0000
# 4 0.0000 0.0000 0.0000 1.4226 0.0000 0.0000
# 5 0.0000 0.0000 0.0000 0.0000 10.1320 0.0000
# 6 0.0000 0.0000 0.0000 0.0000 0.0000 43.6241
#
#
#
# Elastic Compliance Matrix: (Units=1/GPa)
#
#
# Indices 1 2 3 4 5 6 
#
# 1 0.013816 -0.002017 -0.000408 0.000000 0.000000 0.000000
# 2 -0.002017 0.006388 -0.002319 0.000000 0.000000 0.000000
# 3 -0.000408 -0.002319 0.011891 0.000000 0.000000 0.000000
# 4 0.000000 0.000000 0.000000 0.702922 0.000000 0.000000
# 5 0.000000 0.000000 0.000000 0.000000 0.098697 0.000000
# 6 0.000000 0.000000 0.000000 0.000000 0.000000 0.022923
#
#
# Mechanical properties :
#
#
# Convention : Reuss Voigt Hill
#
# Bulk Modulus (GPa) = 44.23575 54.12338 49.17956
# Shear Modulus (GPa) = 5.72304 29.38980 17.55642
#
# Velocity S-wave (km/s) = 1.56437 3.54506 2.73996
# Velocity P-wave (km/s) = 4.70944 6.31668 5.57132
#
# Compressibility (1/GPa) = 0.02260615
#
# Stress axis : x y z
#
# Youngs Moduli (GPa) = 72.37817 156.53802 84.10072
#
# Poissons Ratio (x) = 0.31580 0.03428
# Poissons Ratio (y) = 0.14602 0.19506
# Poissons Ratio (z) = 0.02950 0.36307
#
# Static dielectric constant tensor:
#      x y z
#    x 1.994240 0.000000 0.000000 
#    y 0.000000 1.955100 0.000000 
#    z 0.000000 0.000000 1.910420 
# 
# From -- ./inp_files/24095.got.cif
#   From: 2010.05.17/outbox.cif.g08.bks.cpg/sg43_13_cif.got.tgz:24095.got - 2010.06.03 19:21:55.
