data_PCOD9371160
_publ_section_title
;
Structure prediction by ZEFSAII (Michael W. Deem and Ramdas Pophale) SiO2 
 PCOD9371160
Probable space group: F D D 2
;
_chemical_formula_sum "Si O2"
_cell_formula_units_Z 96
_cell_length_a 7.447292
_cell_length_b 24.606900
_cell_length_c 17.836657
_cell_angle_alpha 90.000000
_cell_angle_beta 90.000000
_cell_angle_gamma 90.000000
_cell_volume 3268.652467
_symmetry_space_group_name_H-M "F D D 2"
_symmetry_group_IT_number 43
_symmetry_cell_setting 'orthorhombic'
loop_
_space_group_symop_operation_xyz
x,y,z
-x,-y,z
1/4-x,1/4+y,1/4+z
1/4+x,1/4-y,1/4+z
x,1/2+y,1/2+z
-x,1/2-y,1/2+z
1/4-x,3/4+y,3/4+z
1/4+x,3/4-y,3/4+z
1/2+x,y,1/2+z
1/2-x,-y,1/2+z
3/4-x,1/4+y,3/4+z
3/4+x,1/4-y,3/4+z
1/2+x,1/2+y,z
1/2-x,1/2-y,z
3/4-x,3/4+y,1/4+z
3/4+x,3/4-y,1/4+z
loop_
_atom_site_type_symbol
_atom_site_label
_atom_site_fract_x
_atom_site_fract_y
_atom_site_fract_z
Si Si1 0.668948 0.439118 0.455190
Si Si2 0.391051 0.552820 0.237238
Si Si3 0.901095 0.666244 0.364448
Si Si4 0.015794 0.571066 0.176031
Si Si5 0.699275 0.582111 0.529816
Si Si6 0.348311 0.040622 0.396363
O O1 0.767311 0.438190 0.536692
O O2 0.747156 0.385926 0.416893
O O3 0.463436 0.423446 0.469741
O O4 0.699171 0.492929 0.407758
O O5 0.500000 0.500000 0.260397
O O6 0.465229 0.564463 0.151909
O O7 0.172499 0.555574 0.235111
O O8 0.466603 0.603296 0.285692
O O9 0.053050 0.689524 0.424153
O O10 0.868218 0.600154 0.357868
O O11 0.112439 0.552573 0.099701
O O12 0.865912 0.558517 0.484566
O O13 0.500000 0.000000 0.368610
#
# Coordination Sequence:
#
# PCOD9371160 Si02
#       6
#    16  16  16  16  16  16
#     4  10  21  40  66  91 131 176 217 280 347 400
#     4  10  23  40  62  93 129 173 218 274 345 396
#     4  10  23  40  64  99 133 167 230 283 327 427
#     4  10  21  41  64  90 133 167 219 277 335 408
#     4   9  22  40  61  93 129 168 225 276 328 426
#     4  11  21  38  69  95 128 175 229 274 349 409
#
# _framework density 29.369899
#
# number of rings (size 3 to 8) (size 9 to 14) (size 15 to 20)
#    0.000    2.000    1.667    0.500    4.667    0.667 
#    0.000    6.667    0.000    0.000    0.000    0.000 
#    0.000    0.000    0.000    0.000    0.000    0.000 
#
# Total GULP energy -133867.254305 kJ/mol
# GULP energy per Si atom -5577.802263 kJ/mol
# Density = 2.930305 g / cm^3
# Si number density = 29.369899 Si / 1000 Ang^3
#
#
#
# Elastic Constant Matrix: (Units=GPa)
#
#
# Indices 1 2 3 4 5 6 
#
# 1 199.2624 50.6485 16.2530 0.0000 0.0000 0.0000
# 2 50.6485 218.3861 9.7145 0.0000 0.0000 0.0000
# 3 16.2530 9.7145 95.7980 0.0000 0.0000 0.0000
# 4 0.0000 0.0000 0.0000 10.9246 0.0000 0.0000
# 5 0.0000 0.0000 0.0000 0.0000 33.0972 0.0000
# 6 0.0000 0.0000 0.0000 0.0000 0.0000 30.9006
#
#
#
# Elastic Compliance Matrix: (Units=1/GPa)
#
#
# Indices 1 2 3 4 5 6 
#
# 1 0.005392 -0.001215 -0.000792 0.000000 0.000000 0.000000
# 2 -0.001215 0.004874 -0.000288 0.000000 0.000000 0.000000
# 3 -0.000792 -0.000288 0.010602 0.000000 0.000000 0.000000
# 4 0.000000 0.000000 0.000000 0.091536 0.000000 0.000000
# 5 0.000000 0.000000 0.000000 0.000000 0.030214 0.000000
# 6 0.000000 0.000000 0.000000 0.000000 0.000000 0.032362
#
#
# Mechanical properties :
#
#
# Convention : Reuss Voigt Hill
#
# Bulk Modulus (GPa) = 61.43249 74.07538 67.75393
# Shear Modulus (GPa) = 27.02765 44.10652 35.56708
#
# Velocity S-wave (km/s) = 3.03685 3.87946 3.48372
# Velocity P-wave (km/s) = 5.76705 6.73374 6.26905
#
# Compressibility (1/GPa) = 0.01627803
#
# Stress axis : x y z
#
# Youngs Moduli (GPa) = 185.46062 205.18232 94.32058
#
# Poissons Ratio (x) = 0.24936 0.07466
# Poissons Ratio (y) = 0.22539 0.02717
# Poissons Ratio (z) = 0.14680 0.05910
#
# Static dielectric constant tensor:
#      x y z
#    x 2.437030 0.000000 0.000000 
#    y 0.000000 2.349750 0.000000 
#    z 0.000000 0.000000 2.418970 
# 
# From -- ./inp_files/20300.got.cif
#   From: 2010.05.17/outbox.cif.g08.bks.cpg/sg43_11_cif.got.tgz:20300.got - 2010.06.03 19:21:55.
