data_PCOD9371602
_publ_section_title
;
Structure prediction by ZEFSAII (Michael W. Deem and Ramdas Pophale) SiO2 
 PCOD9371602
Probable space group: F D D 2
;
_chemical_formula_sum "Si O2"
_cell_formula_units_Z 112
_cell_length_a 19.683896
_cell_length_b 11.336713
_cell_length_c 22.838811
_cell_angle_alpha 90.000000
_cell_angle_beta 90.000000
_cell_angle_gamma 90.000000
_cell_volume 5096.496198
_symmetry_space_group_name_H-M "F D D 2"
_symmetry_group_IT_number 43
_symmetry_cell_setting 'orthorhombic'
loop_
_space_group_symop_operation_xyz
x,y,z
-x,-y,z
1/4-x,1/4+y,1/4+z
1/4+x,1/4-y,1/4+z
x,1/2+y,1/2+z
-x,1/2-y,1/2+z
1/4-x,3/4+y,3/4+z
1/4+x,3/4-y,3/4+z
1/2+x,y,1/2+z
1/2-x,-y,1/2+z
3/4-x,1/4+y,3/4+z
3/4+x,1/4-y,3/4+z
1/2+x,1/2+y,z
1/2-x,1/2-y,z
3/4-x,3/4+y,1/4+z
3/4+x,3/4-y,1/4+z
loop_
_atom_site_type_symbol
_atom_site_label
_atom_site_fract_x
_atom_site_fract_y
_atom_site_fract_z
Si Si1 0.799288 0.584051 0.018560
Si Si2 0.084421 0.259098 0.214024
Si Si3 0.432716 0.821165 0.398798
Si Si4 0.260922 0.888421 0.870682
Si Si5 0.434501 0.930237 0.018239
Si Si6 0.659235 0.388352 0.395843
Si Si7 0.047714 0.831476 0.990427
O O1 0.810716 0.628556 0.084301
O O2 0.864116 0.497857 0.011602
O O3 0.723730 0.532375 0.012253
O O4 0.807013 0.650807 0.956892
O O5 0.123809 0.369893 0.187302
O O6 0.046534 0.202242 0.158400
O O7 0.140526 0.171387 0.239417
O O8 0.413049 0.681236 0.393802
O O9 0.500677 0.845053 0.434339
O O10 0.250000 0.750000 0.884565
O O11 0.255799 0.900663 0.800580
O O12 0.328112 0.969028 0.887789
O O13 0.445201 0.910100 0.087672
O O14 0.500000 0.000000 0.995277
O O15 0.427516 0.802452 0.990698
#
# Coordination Sequence:
#
# PCOD9371602 Si02
#       7
#    16  16  16  16  16  16  16
#     4  10  24  42  68 105 135 183 234 294 360 422
#     4  11  26  44  69 102 141 184 233 298 352 437
#     4  11  24  44  68 105 141 177 249 289 362 433
#     4  10  23  42  69  96 134 184 226 278 366 422
#     4  10  22  42  73 100 139 181 241 291 357 433
#     4   9  22  39  70  99 130 183 227 290 350 425
#     4  11  25  44  67 100 140 187 232 293 359 432
#
# _framework density 21.975881000000001
#
# number of rings (size 3 to 8) (size 9 to 14) (size 15 to 20)
#    0.000    1.714    0.000    2.143   18.000    2.286 
#    5.143    0.000    0.000    0.000    0.000    0.000 
#    0.000    0.000    0.000    0.000    0.000    0.000 
#
# Total GULP energy -156049.249583 kJ/mol
# GULP energy per Si atom -5573.187485 kJ/mol
# Density = 2.192586 g / cm^3
# Si number density = 21.975881 Si / 1000 Ang^3
#
#
#
# Elastic Constant Matrix: (Units=GPa)
#
#
# Indices 1 2 3 4 5 6 
#
# 1 72.5374 43.7736 -3.2030 0.0000 0.0000 0.0000
# 2 43.7736 96.7294 3.0514 0.0000 0.0000 0.0000
# 3 -3.2030 3.0514 79.6646 0.0000 0.0000 0.0000
# 4 0.0000 0.0000 0.0000 15.5652 0.0000 0.0000
# 5 0.0000 0.0000 0.0000 0.0000 9.5948 0.0000
# 6 0.0000 0.0000 0.0000 0.0000 0.0000 27.6221
#
#
#
# Elastic Compliance Matrix: (Units=1/GPa)
#
#
# Indices 1 2 3 4 5 6 
#
# 1 0.019061 -0.008660 0.001098 0.000000 0.000000 0.000000
# 2 -0.008660 0.014285 -0.000895 0.000000 0.000000 0.000000
# 3 0.001098 -0.000895 0.012631 0.000000 0.000000 0.000000
# 4 0.000000 0.000000 0.000000 0.064246 0.000000 0.000000
# 5 0.000000 0.000000 0.000000 0.000000 0.104223 0.000000
# 6 0.000000 0.000000 0.000000 0.000000 0.000000 0.036203
#
#
# Mechanical properties :
#
#
# Convention : Reuss Voigt Hill
#
# Bulk Modulus (GPa) = 34.40919 37.35282 35.88101
# Shear Modulus (GPa) = 18.03416 24.24372 21.13894
#
# Velocity S-wave (km/s) = 2.86778 3.32504 3.10484
# Velocity P-wave (km/s) = 5.16306 5.63696 5.40521
#
# Compressibility (1/GPa) = 0.02906200
#
# Stress axis : x y z
#
# Youngs Moduli (GPa) = 52.46415 70.00123 79.16989
#
# Poissons Ratio (x) = 0.60623 -0.08693
# Poissons Ratio (y) = 0.45435 0.07089
# Poissons Ratio (z) = -0.05761 0.06268
#
# Static dielectric constant tensor:
#      x y z
#    x 1.865390 0.000000 0.000000 
#    y 0.000000 1.900580 0.000000 
#    z 0.000000 0.000000 1.818430 
# 
# From -- ./inp_files/22413.got.cif
#   From: 2010.05.17/outbox.cif.g08.bks.cpg/sg43_12_cif.got.tgz:22413.got - 2010.06.03 19:21:55.
