data_PCOD9371474
_publ_section_title
;
Structure prediction by ZEFSAII (Michael W. Deem and Ramdas Pophale) SiO2 
 PCOD9371474
Probable space group: F D D 2
;
_chemical_formula_sum "Si O2"
_cell_formula_units_Z 112
_cell_length_a 10.545448
_cell_length_b 33.442361
_cell_length_c 15.238077
_cell_angle_alpha 90.000000
_cell_angle_beta 90.000000
_cell_angle_gamma 90.000000
_cell_volume 5373.931533
_symmetry_space_group_name_H-M "F D D 2"
_symmetry_group_IT_number 43
_symmetry_cell_setting 'orthorhombic'
loop_
_space_group_symop_operation_xyz
x,y,z
-x,-y,z
1/4-x,1/4+y,1/4+z
1/4+x,1/4-y,1/4+z
x,1/2+y,1/2+z
-x,1/2-y,1/2+z
1/4-x,3/4+y,3/4+z
1/4+x,3/4-y,3/4+z
1/2+x,y,1/2+z
1/2-x,-y,1/2+z
3/4-x,1/4+y,3/4+z
3/4+x,1/4-y,3/4+z
1/2+x,1/2+y,z
1/2-x,1/2-y,z
3/4-x,3/4+y,1/4+z
3/4+x,3/4-y,1/4+z
loop_
_atom_site_type_symbol
_atom_site_label
_atom_site_fract_x
_atom_site_fract_y
_atom_site_fract_z
Si Si1 0.347113 0.082200 0.727530
Si Si2 0.262855 0.840500 0.796191
Si Si3 0.889502 0.743873 0.430869
Si Si4 0.542141 0.406021 0.421263
Si Si5 0.815421 0.929386 0.316076
Si Si6 0.123805 0.225281 0.170287
Si Si7 0.250537 0.453817 0.019966
O O1 0.449399 0.089336 0.649059
O O2 0.395853 0.093010 0.824283
O O3 0.230858 0.111157 0.704060
O O4 0.315533 0.035554 0.720223
O O5 0.293905 0.886318 0.771596
O O6 0.347474 0.807724 0.745514
O O7 0.119507 0.827200 0.774625
O O8 0.750000 0.750000 0.386144
O O9 0.865256 0.711675 0.506105
O O10 0.989797 0.725060 0.364300
O O11 0.401682 0.423574 0.402692
O O12 0.626132 0.431147 0.488445
O O13 0.683979 0.949805 0.341886
O O14 0.250000 0.250000 0.149159
O O15 0.028999 0.259730 0.203480
#
# Coordination Sequence:
#
# PCOD9371474 Si02
#       7
#    16  16  16  16  16  16  16
#     4  11  23  44  66 102 135 178 232 283 344 417
#     4  10  22  40  69  95 131 178 231 278 342 415
#     4  12  21  41  69 101 130 182 240 283 337 419
#     4  11  26  41  69 101 138 182 224 294 357 407
#     4  11  25  39  71  98 139 176 238 280 347 418
#     4  10  22  42  67 101 132 178 226 287 339 409
#     4  11  22  42  68  95 135 174 229 283 343 409
#
# _framework density 20.841352000000001
#
# number of rings (size 3 to 8) (size 9 to 14) (size 15 to 20)
#    0.000    1.143    4.286    1.286   10.000    1.143 
#    5.143    0.000    3.143    0.000    0.000    0.000 
#    0.000    0.000    0.000    0.000    0.000    0.000 
#
# Total GULP energy -156349.217297 kJ/mol
# GULP energy per Si atom -5583.900618 kJ/mol
# Density = 2.079392 g / cm^3
# Si number density = 20.841352 Si / 1000 Ang^3
#
#
#
# Elastic Constant Matrix: (Units=GPa)
#
#
# Indices 1 2 3 4 5 6 
#
# 1 61.2375 66.6714 24.8178 0.0000 0.0000 0.0000
# 2 66.6714 189.9221 32.3447 0.0000 0.0000 0.0000
# 3 24.8178 32.3447 53.9139 0.0000 0.0000 0.0000
# 4 0.0000 0.0000 0.0000 28.2576 0.0000 0.0000
# 5 0.0000 0.0000 0.0000 0.0000 32.0043 0.0000
# 6 0.0000 0.0000 0.0000 0.0000 0.0000 37.6790
#
#
#
# Elastic Compliance Matrix: (Units=1/GPa)
#
#
# Indices 1 2 3 4 5 6 
#
# 1 0.029336 -0.008909 -0.008159 0.000000 0.000000 0.000000
# 2 -0.008909 0.008570 -0.001040 0.000000 0.000000 0.000000
# 3 -0.008159 -0.001040 0.022928 0.000000 0.000000 0.000000
# 4 0.000000 0.000000 0.000000 0.035389 0.000000 0.000000
# 5 0.000000 0.000000 0.000000 0.000000 0.031246 0.000000
# 6 0.000000 0.000000 0.000000 0.000000 0.000000 0.026540
#
#
# Mechanical properties :
#
#
# Convention : Reuss Voigt Hill
#
# Bulk Modulus (GPa) = 40.62243 61.41571 51.01907
# Shear Modulus (GPa) = 25.19767 31.67081 28.43424
#
# Velocity S-wave (km/s) = 3.48087 3.90245 3.69768
# Velocity P-wave (km/s) = 5.97402 7.05958 6.53936
#
# Compressibility (1/GPa) = 0.02461694
#
# Stress axis : x y z
#
# Youngs Moduli (GPa) = 34.08805 116.68799 43.61429
#
# Poissons Ratio (x) = 1.03953 0.35586
# Poissons Ratio (y) = 0.30368 0.04538
# Poissons Ratio (z) = 0.27814 0.12141
#
# Static dielectric constant tensor:
#      x y z
#    x 1.774300 0.000000 0.000000 
#    y 0.000000 1.763410 0.000000 
#    z 0.000000 0.000000 1.769760 
# 
# From -- ./inp_files/9763.got.cif
#   From: 2010.05.17/outbox.cif.g08.bks.cpg/sg43_5_cif.got.tgz:9763.got - 2010.06.03 19:21:55.
