data_PCOD9371991
_publ_section_title
;
Structure prediction by ZEFSAII (Michael W. Deem and Ramdas Pophale) SiO2 
 PCOD9371991
Probable space group: F D D 2
;
_chemical_formula_sum "Si O2"
_cell_formula_units_Z 56
_cell_length_a 16.195027
_cell_length_b 13.418854
_cell_length_c 9.228351
_cell_angle_alpha 90.000000
_cell_angle_beta 90.000000
_cell_angle_gamma 90.000000
_cell_volume 2005.493269
_symmetry_space_group_name_H-M "F D D 2"
_symmetry_group_IT_number 43
_symmetry_cell_setting 'orthorhombic'
loop_
_space_group_symop_operation_xyz
x,y,z
-x,-y,z
1/4-x,1/4+y,1/4+z
1/4+x,1/4-y,1/4+z
x,1/2+y,1/2+z
-x,1/2-y,1/2+z
1/4-x,3/4+y,3/4+z
1/4+x,3/4-y,3/4+z
1/2+x,y,1/2+z
1/2-x,-y,1/2+z
3/4-x,1/4+y,3/4+z
3/4+x,1/4-y,3/4+z
1/2+x,1/2+y,z
1/2-x,1/2-y,z
3/4-x,3/4+y,1/4+z
3/4+x,3/4-y,1/4+z
loop_
_atom_site_type_symbol
_atom_site_label
_atom_site_fract_x
_atom_site_fract_y
_atom_site_fract_z
Si Si1 0.802741 0.373140 0.659280
Si Si2 0.744173 0.589051 0.644675
Si Si3 0.871166 0.074898 0.614058
Si Si4 0.000000 0.500000 0.669269
O O1 0.797365 0.492419 0.687981
O O2 0.789324 0.141695 0.587856
O O3 0.865497 0.340649 0.535569
O O4 0.805440 0.311351 0.805869
O O5 0.662402 0.534584 0.575650
O O6 0.702315 0.643888 0.779668
O O7 0.781940 0.665225 0.529948
#
# Coordination Sequence:
#
# PCOD9371991 Si02
#       4
#    16  16  16   8
#     4  10  24  46  75 108 155 211 260 336 406 486
#     4  10  25  44  74 111 152 211 266 338 402 496
#     4  10  23  48  72 110 156 203 266 332 407 480
#     4  12  24  46  72 106 154 202 266 322 404 474
#
# _framework density 27.923304000000002
#
# number of rings (size 3 to 8) (size 9 to 14) (size 15 to 20)
#    1.714    0.000    0.000    3.429    0.000    5.714 
#    5.143    0.000    0.000    0.000    0.000    0.000 
#    0.000    0.000    0.000    0.000    0.000    0.000 
#
# Total GULP energy -78296.741840 kJ/mol
# GULP energy per Si atom -5592.624417 kJ/mol
# Density = 2.785975 g / cm^3
# Si number density = 27.923304 Si / 1000 Ang^3
#
#
#
# Elastic Constant Matrix: (Units=GPa)
#
#
# Indices 1 2 3 4 5 6 
#
# 1 100.5200 42.8305 49.9025 0.0000 0.0000 0.0000
# 2 42.8305 202.0422 80.3268 0.0000 0.0000 0.0000
# 3 49.9025 80.3268 160.8702 0.0000 0.0000 0.0000
# 4 0.0000 0.0000 0.0000 62.5252 0.0000 0.0000
# 5 0.0000 0.0000 0.0000 0.0000 51.0034 0.0000
# 6 0.0000 0.0000 0.0000 0.0000 0.0000 42.0574
#
#
#
# Elastic Compliance Matrix: (Units=1/GPa)
#
#
# Indices 1 2 3 4 5 6 
#
# 1 0.012040 -0.001332 -0.003070 0.000000 0.000000 0.000000
# 2 -0.001332 0.006323 -0.002744 0.000000 0.000000 0.000000
# 3 -0.003070 -0.002744 0.008539 0.000000 0.000000 0.000000
# 4 0.000000 0.000000 0.000000 0.015994 0.000000 0.000000
# 5 0.000000 0.000000 0.000000 0.000000 0.019607 0.000000
# 6 0.000000 0.000000 0.000000 0.000000 0.000000 0.023777
#
#
# Mechanical properties :
#
#
# Convention : Reuss Voigt Hill
#
# Bulk Modulus (GPa) = 79.30258 89.95022 84.62640
# Shear Modulus (GPa) = 47.72245 50.47538 49.09892
#
# Velocity S-wave (km/s) = 4.13856 4.25625 4.19782
# Velocity P-wave (km/s) = 7.16231 7.51249 7.33949
#
# Compressibility (1/GPa) = 0.01260993
#
# Stress axis : x y z
#
# Youngs Moduli (GPa) = 83.05856 158.15976 117.11557
#
# Poissons Ratio (x) = 0.21064 0.35951
# Poissons Ratio (y) = 0.11062 0.32136
# Poissons Ratio (z) = 0.25497 0.43399
#
# Static dielectric constant tensor:
#      x y z
#    x 2.224170 0.000000 0.000000 
#    y 0.000000 2.244180 0.000000 
#    z 0.000000 0.000000 2.029230 
# 
# From -- ./inp_files/1885.got.cif
#   From: 2010.05.17/outbox.cif.g08.bks.cpg/sg43_1_cif.got.tgz:1885.got - 2010.06.03 19:21:55.
