data_PCOD9371884
_publ_section_title
;
Structure prediction by ZEFSAII (Michael W. Deem and Ramdas Pophale) SiO2 
 PCOD9371884
Probable space group: F D D 2
;
_chemical_formula_sum "Si O2"
_cell_formula_units_Z 88
_cell_length_a 10.856627
_cell_length_b 16.295600
_cell_length_c 21.781890
_cell_angle_alpha 90.000000
_cell_angle_beta 90.000000
_cell_angle_gamma 90.000000
_cell_volume 3853.548535
_symmetry_space_group_name_H-M "F D D 2"
_symmetry_group_IT_number 43
_symmetry_cell_setting 'orthorhombic'
loop_
_space_group_symop_operation_xyz
x,y,z
-x,-y,z
1/4-x,1/4+y,1/4+z
1/4+x,1/4-y,1/4+z
x,1/2+y,1/2+z
-x,1/2-y,1/2+z
1/4-x,3/4+y,3/4+z
1/4+x,3/4-y,3/4+z
1/2+x,y,1/2+z
1/2-x,-y,1/2+z
3/4-x,1/4+y,3/4+z
3/4+x,1/4-y,3/4+z
1/2+x,1/2+y,z
1/2-x,1/2-y,z
3/4-x,3/4+y,1/4+z
3/4+x,3/4-y,1/4+z
loop_
_atom_site_type_symbol
_atom_site_label
_atom_site_fract_x
_atom_site_fract_y
_atom_site_fract_z
Si Si1 0.113755 0.163409 0.856800
Si Si2 0.533217 0.260054 0.234631
Si Si3 0.750000 0.250000 0.142168
Si Si4 0.470862 0.308342 0.992548
Si Si5 0.750000 0.250000 0.575384
Si Si6 0.618121 0.657861 0.550141
Si Si7 0.500000 0.000000 0.479789
O O1 0.057247 0.210973 0.798167
O O2 0.077821 0.204274 0.921909
O O3 0.254486 0.139916 0.835461
O O4 0.045738 0.076488 0.863534
O O5 0.631472 0.235505 0.183727
O O6 0.575505 0.351844 0.247981
O O7 0.395543 0.250620 0.211443
O O8 0.730890 0.174299 0.096327
O O9 0.355103 0.285114 0.033281
O O10 0.568834 0.241183 0.017771
O O11 0.502012 0.404050 0.005289
#
# Coordination Sequence:
#
# PCOD9371884 Si02
#       7
#    16  16   8  16   8  16   8
#     4  11  23  44  77 110 155 205 260 316 389 470
#     4  12  26  47  76 114 153 205 254 318 390 453
#     4  12  26  49  75 108 158 196 256 326 362 478
#     4  11  25  45  74 111 156 198 263 316 387 466
#     4  10  23  43  72 114 147 212 251 312 390 464
#     4  11  26  45  75 115 150 208 258 317 391 449
#     4  12  25  50  73 108 159 200 245 324 386 458
#
# _framework density 22.836095
#
# number of rings (size 3 to 8) (size 9 to 14) (size 15 to 20)
#    0.000    0.727    3.636    2.727    5.091    1.455 
#    3.273    0.909    0.000    0.000    0.000    0.000 
#    0.000    0.000    0.000    0.000    0.000    0.000 
#
# Total GULP energy -122529.196270 kJ/mol
# GULP energy per Si atom -5569.508921 kJ/mol
# Density = 2.278412 g / cm^3
# Si number density = 22.836095 Si / 1000 Ang^3
#
#
#
# Elastic Constant Matrix: (Units=GPa)
#
#
# Indices 1 2 3 4 5 6 
#
# 1 146.2732 36.5413 32.8453 0.0000 0.0000 0.0000
# 2 36.5413 122.8910 33.1688 0.0000 0.0000 0.0000
# 3 32.8453 33.1688 104.0628 0.0000 0.0000 0.0000
# 4 0.0000 0.0000 0.0000 25.3103 0.0000 0.0000
# 5 0.0000 0.0000 0.0000 0.0000 -49.3147 0.0000
# 6 0.0000 0.0000 0.0000 0.0000 0.0000 38.6128
#
#
#
# Elastic Compliance Matrix: (Units=1/GPa)
#
#
# Indices 1 2 3 4 5 6 
#
# 1 0.007701 -0.001788 -0.001861 0.000000 0.000000 0.000000
# 2 -0.001788 0.009318 -0.002406 0.000000 0.000000 0.000000
# 3 -0.001861 -0.002406 0.010964 0.000000 0.000000 0.000000
# 4 0.000000 0.000000 0.000000 0.039510 0.000000 0.000000
# 5 0.000000 0.000000 0.000000 0.000000 -0.020278 0.000000
# 6 0.000000 0.000000 0.000000 0.000000 0.000000 0.025898
#
#
# Mechanical properties :
#
#
# Convention : Reuss Voigt Hill
#
# Bulk Modulus (GPa) = 62.99505 64.25976 63.62740
# Shear Modulus (GPa) = 55.24085 20.96647 38.10366
#
# Velocity S-wave (km/s) = 4.92368 3.03335 4.08925
# Velocity P-wave (km/s) = 7.74398 6.36152 7.08654
#
# Compressibility (1/GPa) = 0.01587426
#
# Stress axis : x y z
#
# Youngs Moduli (GPa) = 129.85421 107.31720 91.20959
#
# Poissons Ratio (x) = 0.19184 0.16973
# Poissons Ratio (y) = 0.23213 0.21944
# Poissons Ratio (z) = 0.24164 0.25819
#
# Static dielectric constant tensor:
#      x y z
#    x 1.848640 0.000000 0.000000 
#    y 0.000000 1.861110 0.000000 
#    z 0.000000 0.000000 1.903360 
# 
# From -- ./inp_files/17074.got.cif
#   From: 2010.05.17/outbox.cif.g08.bks.cpg/sg43_9_cif.got.tgz:17074.got - 2010.06.03 19:21:55.
