data_PCOD9371890
_publ_section_title
;
Structure prediction by ZEFSAII (Michael W. Deem and Ramdas Pophale) SiO2 
 PCOD9371890
Probable space group: F D D 2
;
_chemical_formula_sum "Si O2"
_cell_formula_units_Z 120
_cell_length_a 18.379246
_cell_length_b 24.244726
_cell_length_c 12.981934
_cell_angle_alpha 90.000000
_cell_angle_beta 90.000000
_cell_angle_gamma 90.000000
_cell_volume 5784.746978
_symmetry_space_group_name_H-M "F D D 2"
_symmetry_group_IT_number 43
_symmetry_cell_setting 'orthorhombic'
loop_
_space_group_symop_operation_xyz
x,y,z
-x,-y,z
1/4-x,1/4+y,1/4+z
1/4+x,1/4-y,1/4+z
x,1/2+y,1/2+z
-x,1/2-y,1/2+z
1/4-x,3/4+y,3/4+z
1/4+x,3/4-y,3/4+z
1/2+x,y,1/2+z
1/2-x,-y,1/2+z
3/4-x,1/4+y,3/4+z
3/4+x,1/4-y,3/4+z
1/2+x,1/2+y,z
1/2-x,1/2-y,z
3/4-x,3/4+y,1/4+z
3/4+x,3/4-y,1/4+z
loop_
_atom_site_type_symbol
_atom_site_label
_atom_site_fract_x
_atom_site_fract_y
_atom_site_fract_z
Si Si1 0.603369 0.707893 0.672650
Si Si2 0.650956 0.832960 0.900778
Si Si3 0.662489 0.249430 0.576621
Si Si4 0.318471 0.210592 0.295066
Si Si5 0.546681 0.164028 0.557367
Si Si6 0.567234 0.754411 0.452032
Si Si7 0.750000 0.750000 0.775438
Si Si8 0.264678 0.445589 0.525904
O O1 0.582118 0.644386 0.686440
O O2 0.596086 0.724382 0.553539
O O3 0.684325 0.723027 0.711134
O O4 0.548824 0.746825 0.736207
O O5 0.714411 0.798760 0.843721
O O6 0.582872 0.837227 0.823126
O O7 0.631417 0.794399 0.997714
O O8 0.750000 0.250000 0.570497
O O9 0.642617 0.265689 0.693127
O O10 0.626785 0.190846 0.551227
O O11 0.250000 0.250000 0.314981
O O12 0.294137 0.148591 0.271594
O O13 0.370831 0.211885 0.392662
O O14 0.494971 0.203674 0.490450
O O15 0.520463 0.167242 0.676410
O O16 0.538364 0.709902 0.369741
#
# Coordination Sequence:
#
# PCOD9371890 Si02
#       8
#    16  16  16  16  16  16   8  16
#     4  10  26  41  68  98 131 182 219 274 342 395
#     4  11  23  42  72  95 133 175 216 287 334 397
#     4  11  24  44  67 106 134 175 238 280 348 411
#     4  11  28  44  69 101 137 181 236 283 346 413
#     4  11  25  46  69  96 142 184 225 293 338 414
#     4  11  24  45  69  97 138 180 227 278 343 409
#     4  10  24  46  60 104 134 164 232 268 326 418
#     4  10  23  44  63  99 130 169 236 262 337 411
#
# _framework density 20.744208
#
# number of rings (size 3 to 8) (size 9 to 14) (size 15 to 20)
#    0.000    1.333    3.333    0.000   10.267    0.000 
#    2.400    0.000    0.000    0.000    0.000    0.000 
#    0.000    0.000    0.000    0.000    0.000    0.000 
#
# Total GULP energy -167737.307085 kJ/mol
# GULP energy per Si atom -5591.243570 kJ/mol
# Density = 2.069699 g / cm^3
# Si number density = 20.744208 Si / 1000 Ang^3
#
#
#
# Elastic Constant Matrix: (Units=GPa)
#
#
# Indices 1 2 3 4 5 6 
#
# 1 75.3380 15.1973 15.1578 0.0000 0.0000 0.0000
# 2 15.1973 100.3830 -6.6197 0.0000 0.0000 0.0000
# 3 15.1578 -6.6197 83.5646 0.0000 0.0000 0.0000
# 4 0.0000 0.0000 0.0000 17.3864 0.0000 0.0000
# 5 0.0000 0.0000 0.0000 0.0000 17.3771 0.0000
# 6 0.0000 0.0000 0.0000 0.0000 0.0000 16.0795
#
#
#
# Elastic Compliance Matrix: (Units=1/GPa)
#
#
# Indices 1 2 3 4 5 6 
#
# 1 0.014307 -0.002349 -0.002781 0.000000 0.000000 0.000000
# 2 -0.002349 0.010400 0.001250 0.000000 0.000000 0.000000
# 3 -0.002781 0.001250 0.012570 0.000000 0.000000 0.000000
# 4 0.000000 0.000000 0.000000 0.057516 0.000000 0.000000
# 5 0.000000 0.000000 0.000000 0.000000 0.057547 0.000000
# 6 0.000000 0.000000 0.000000 0.000000 0.000000 0.062191
#
#
# Mechanical properties :
#
#
# Convention : Reuss Voigt Hill
#
# Bulk Modulus (GPa) = 33.87993 34.08402 33.98197
# Shear Modulus (GPa) = 21.53953 25.87196 23.70574
#
# Velocity S-wave (km/s) = 3.22582 3.53539 3.38415
# Velocity P-wave (km/s) = 5.49930 5.75600 5.62911
#
# Compressibility (1/GPa) = 0.02951600
#
# Stress axis : x y z
#
# Youngs Moduli (GPa) = 69.89579 96.15420 79.55259
#
# Poissons Ratio (x) = 0.22590 0.22126
# Poissons Ratio (y) = 0.16421 -0.09944
# Poissons Ratio (z) = 0.19440 -0.12019
#
# Static dielectric constant tensor:
#      x y z
#    x 1.759120 0.000000 0.000000 
#    y 0.000000 1.722000 0.000000 
#    z 0.000000 0.000000 1.738700 
# 
# From -- ./inp_files/7209.got.cif
#   From: 2010.05.17/outbox.cif.g08.bks.cpg/sg43_4_cif.got.tgz:7209.got - 2010.06.03 19:21:55.
