data_PCOD9371882
_publ_section_title
;
Structure prediction by ZEFSAII (Michael W. Deem and Ramdas Pophale) SiO2 
 PCOD9371882
Probable space group: F D D 2
;
_chemical_formula_sum "Si O2"
_cell_formula_units_Z 104
_cell_length_a 21.840424
_cell_length_b 9.542100
_cell_length_c 18.336092
_cell_angle_alpha 90.000000
_cell_angle_beta 90.000000
_cell_angle_gamma 90.000000
_cell_volume 3821.305930
_symmetry_space_group_name_H-M "F D D 2"
_symmetry_group_IT_number 43
_symmetry_cell_setting 'orthorhombic'
loop_
_space_group_symop_operation_xyz
x,y,z
-x,-y,z
1/4-x,1/4+y,1/4+z
1/4+x,1/4-y,1/4+z
x,1/2+y,1/2+z
-x,1/2-y,1/2+z
1/4-x,3/4+y,3/4+z
1/4+x,3/4-y,3/4+z
1/2+x,y,1/2+z
1/2-x,-y,1/2+z
3/4-x,1/4+y,3/4+z
3/4+x,1/4-y,3/4+z
1/2+x,1/2+y,z
1/2-x,1/2-y,z
3/4-x,3/4+y,1/4+z
3/4+x,3/4-y,1/4+z
loop_
_atom_site_type_symbol
_atom_site_label
_atom_site_fract_x
_atom_site_fract_y
_atom_site_fract_z
Si Si1 0.474306 0.719603 0.303090
Si Si2 0.500000 0.000000 0.482539
Si Si3 0.348964 0.571186 0.295605
Si Si4 0.383710 0.287852 0.373109
Si Si5 0.032104 0.306831 0.045935
Si Si6 0.584560 0.004019 0.347568
Si Si7 0.500000 0.000000 0.680922
Si Si8 0.750000 0.750000 0.670113
O O1 0.404514 0.668506 0.318127
O O2 0.460678 0.884569 0.309089
O O3 0.506999 0.358392 0.229007
O O4 0.512675 0.629304 0.363428
O O5 0.489196 0.848891 0.519487
O O6 0.440667 0.006206 0.429813
O O7 0.371038 0.422728 0.324846
O O8 0.345657 0.568003 0.207312
O O9 0.282824 0.606820 0.329293
O O10 0.313194 0.237167 0.388524
O O11 0.414363 0.161004 0.327204
O O12 0.042215 0.410664 0.976467
O O13 0.095168 0.301618 0.088867
#
# Coordination Sequence:
#
# PCOD9371882 Si02
#       8
#    16   8  16  16  16  16   8   8
#     4  10  23  43  70 105 149 196 253 315 394 464
#     4  12  26  49  68 108 148 197 246 328 402 470
#     4  11  23  43  74 108 146 205 250 314 387 482
#     4  11  23  43  74 108 149 195 258 315 387 471
#     4  12  24  45  75 105 147 201 259 321 393 470
#     4  12  26  44  71 108 144 192 260 320 386 465
#     4   9  22  45  70 106 146 200 256 308 390 477
#     4  11  22  44  74 100 150 203 254 320 396 483
#
# _framework density 27.215827000000001
#
# number of rings (size 3 to 8) (size 9 to 14) (size 15 to 20)
#    0.000    0.923    3.077    3.692    0.000    2.462 
#    0.000    0.000    0.000    0.000    0.000    0.000 
#    0.000    0.000    0.000    0.000    0.000    0.000 
#
# Total GULP energy -145303.709541 kJ/mol
# GULP energy per Si atom -5588.604213 kJ/mol
# Density = 2.715388 g / cm^3
# Si number density = 27.215827 Si / 1000 Ang^3
#
#
#
# Elastic Constant Matrix: (Units=GPa)
#
#
# Indices 1 2 3 4 5 6 
#
# 1 148.1710 43.9981 36.2977 0.0000 0.0000 0.0000
# 2 43.9981 247.2485 51.1269 0.0000 0.0000 0.0000
# 3 36.2977 51.1269 83.5256 0.0000 0.0000 0.0000
# 4 0.0000 0.0000 0.0000 51.9392 0.0000 0.0000
# 5 0.0000 0.0000 0.0000 0.0000 -12.6762 0.0000
# 6 0.0000 0.0000 0.0000 0.0000 0.0000 54.9125
#
#
#
# Elastic Compliance Matrix: (Units=1/GPa)
#
#
# Indices 1 2 3 4 5 6 
#
# 1 0.007680 -0.000775 -0.002864 0.000000 0.000000 0.000000
# 2 -0.000775 0.004709 -0.002546 0.000000 0.000000 0.000000
# 3 -0.002864 -0.002546 0.014775 0.000000 0.000000 0.000000
# 4 0.000000 0.000000 0.000000 0.019253 0.000000 0.000000
# 5 0.000000 0.000000 0.000000 0.000000 -0.078888 0.000000
# 6 0.000000 0.000000 0.000000 0.000000 0.000000 0.018211
#
#
# Mechanical properties :
#
#
# Convention : Reuss Voigt Hill
#
# Bulk Modulus (GPa) = 67.58310 82.42115 75.00212
# Shear Modulus (GPa) = 1644.58441 42.00326 843.29383
#
# Velocity S-wave (km/s) = 24.60867 3.93280 17.62177
# Velocity P-wave (km/s) = 28.85022 7.13951 21.01556
#
# Compressibility (1/GPa) = 0.01479660
#
# Stress axis : x y z
#
# Youngs Moduli (GPa) = 130.20058 212.37032 67.68185
#
# Poissons Ratio (x) = 0.16450 0.19381
# Poissons Ratio (y) = 0.10085 0.17229
# Poissons Ratio (z) = 0.37284 0.54062
#
# Static dielectric constant tensor:
#      x y z
#    x 3.477040 0.000000 0.000000 
#    y 0.000000 2.284000 0.000000 
#    z 0.000000 0.000000 2.128450 
# 
# From -- ./inp_files/18877.got.cif
#   From: 2010.05.17/outbox.cif.g08.bks.cpg/sg43_10_cif.got.tgz:18877.got - 2010.06.03 19:21:55.
