data_PCOD9371425
_publ_section_title
;
Structure prediction by ZEFSAII (Michael W. Deem and Ramdas Pophale) SiO2 
 PCOD9371425
Probable space group: F D D 2
;
_chemical_formula_sum "Si O2"
_cell_formula_units_Z 64
_cell_length_a 17.894733
_cell_length_b 20.949736
_cell_length_c 7.061061
_cell_angle_alpha 90.000000
_cell_angle_beta 90.000000
_cell_angle_gamma 90.000000
_cell_volume 2647.120679
_symmetry_space_group_name_H-M "F D D 2"
_symmetry_group_IT_number 43
_symmetry_cell_setting 'orthorhombic'
loop_
_space_group_symop_operation_xyz
x,y,z
-x,-y,z
1/4-x,1/4+y,1/4+z
1/4+x,1/4-y,1/4+z
x,1/2+y,1/2+z
-x,1/2-y,1/2+z
1/4-x,3/4+y,3/4+z
1/4+x,3/4-y,3/4+z
1/2+x,y,1/2+z
1/2-x,-y,1/2+z
3/4-x,1/4+y,3/4+z
3/4+x,1/4-y,3/4+z
1/2+x,1/2+y,z
1/2-x,1/2-y,z
3/4-x,3/4+y,1/4+z
3/4+x,3/4-y,1/4+z
loop_
_atom_site_type_symbol
_atom_site_label
_atom_site_fract_x
_atom_site_fract_y
_atom_site_fract_z
Si Si1 0.719131 0.320229 0.531850
Si Si2 0.939435 0.686812 0.163982
Si Si3 0.944910 0.439911 0.827826
Si Si4 0.971326 0.183723 0.216836
O O1 0.750000 0.250000 0.569366
O O2 0.648543 0.322650 0.669226
O O3 0.770096 0.383053 0.539163
O O4 0.704887 0.320750 0.304710
O O5 0.974073 0.755813 0.201843
O O6 0.948400 0.680288 0.937105
O O7 0.000000 0.500000 0.784405
O O8 0.981040 0.381414 0.711479
O O9 0.853166 0.445206 0.835175
#
# Coordination Sequence:
#
# PCOD9371425 Si02
#       4
#    16  16  16  16
#     4   9  20  38  62  91 125 168 212 251 310 379
#     4  10  22  39  66  92 126 169 213 258 313 378
#     4   9  20  37  64  91 123 170 211 252 309 382
#     4  10  22  40  64  92 128 167 214 257 314 375
#
# _framework density 24.177212000000001
#
# number of rings (size 3 to 8) (size 9 to 14) (size 15 to 20)
#    0.000    2.500    0.000    0.000   21.000    0.000 
#    4.500    0.000    0.000    0.000    0.000    0.000 
#    0.000    0.000    0.000    0.000    0.000    0.000 
#
# Total GULP energy -89181.434930 kJ/mol
# GULP energy per Si atom -5573.839683 kJ/mol
# Density = 2.412218 g / cm^3
# Si number density = 24.177212 Si / 1000 Ang^3
#
#
#
# Elastic Constant Matrix: (Units=GPa)
#
#
# Indices 1 2 3 4 5 6 
#
# 1 225.6466 170.6210 74.1459 -0.0002 0.0004 0.0002
# 2 170.6210 259.1005 51.2587 -0.0001 0.0002 0.0001
# 3 74.1459 51.2587 73.3714 -0.0005 0.0008 0.0004
# 4 -0.0002 -0.0001 -0.0005 37.1837 0.0003 0.0001
# 5 0.0004 0.0002 0.0008 0.0003 65.9643 -0.0003
# 6 0.0002 0.0001 0.0004 0.0001 -0.0003 24.4559
#
#
#
# Elastic Compliance Matrix: (Units=1/GPa)
#
#
# Indices 1 2 3 4 5 6 
#
# 1 0.011430 -0.006082 -0.007301 0.000000 0.000000 0.000000
# 2 -0.006082 0.007715 0.000757 0.000000 0.000000 0.000000
# 3 -0.007301 0.000757 0.020479 0.000000 0.000000 0.000000
# 4 0.000000 0.000000 0.000000 0.026894 0.000000 0.000000
# 5 0.000000 0.000000 0.000000 0.000000 0.015160 0.000000
# 6 0.000000 0.000000 0.000000 0.000000 0.000000 0.040890
#
#
# Mechanical properties :
#
#
# Convention : Reuss Voigt Hill
#
# Bulk Modulus (GPa) = 69.58926 127.79664 98.69295
# Shear Modulus (GPa) = 32.76283 42.99362 37.87822
#
# Velocity S-wave (km/s) = 3.68518 4.22153 3.96244
# Velocity P-wave (km/s) = 6.85222 8.75984 7.86408
#
# Compressibility (1/GPa) = 0.01437003
#
# Stress axis : x y z
#
# Youngs Moduli (GPa) = 87.48879 129.61545 48.82997
#
# Poissons Ratio (x) = 0.78837 0.35653
# Poissons Ratio (y) = 0.53214 -0.03695
# Poissons Ratio (z) = 0.63879 -0.09807
#
# Static dielectric constant tensor:
#      x y z
#    x 2.040990 0.000000 0.000000 
#    y 0.000000 1.914220 0.000000 
#    z 0.000000 0.000000 2.008790 
# 
# From -- ./inp_files/2261.got.cif
#   From: 2010.05.17/outbox.cif.g08.bks.cpg/sg43_2_cif.got.tgz:2261.got - 2010.06.03 19:21:55.
