data_PCOD9371088
_publ_section_title
;
Structure prediction by ZEFSAII (Michael W. Deem and Ramdas Pophale) SiO2 
 PCOD9371088
Probable space group: F D D 2
;
_chemical_formula_sum "Si O2"
_cell_formula_units_Z 112
_cell_length_a 11.715324
_cell_length_b 23.736655
_cell_length_c 14.694733
_cell_angle_alpha 90.000000
_cell_angle_beta 90.000000
_cell_angle_gamma 90.000000
_cell_volume 4086.349618
_symmetry_space_group_name_H-M "F D D 2"
_symmetry_group_IT_number 43
_symmetry_cell_setting 'orthorhombic'
loop_
_space_group_symop_operation_xyz
x,y,z
-x,-y,z
1/4-x,1/4+y,1/4+z
1/4+x,1/4-y,1/4+z
x,1/2+y,1/2+z
-x,1/2-y,1/2+z
1/4-x,3/4+y,3/4+z
1/4+x,3/4-y,3/4+z
1/2+x,y,1/2+z
1/2-x,-y,1/2+z
3/4-x,1/4+y,3/4+z
3/4+x,1/4-y,3/4+z
1/2+x,1/2+y,z
1/2-x,1/2-y,z
3/4-x,3/4+y,1/4+z
3/4+x,3/4-y,1/4+z
loop_
_atom_site_type_symbol
_atom_site_label
_atom_site_fract_x
_atom_site_fract_y
_atom_site_fract_z
Si Si1 0.567521 0.046278 0.475660
Si Si2 0.668226 0.698871 0.558848
Si Si3 0.714049 0.647919 0.955184
Si Si4 0.008566 0.263294 0.828622
Si Si5 0.075226 0.429525 0.013016
Si Si6 0.906954 0.605208 0.618829
Si Si7 0.513325 0.715730 0.026827
O O1 0.610644 0.104302 0.438324
O O2 0.676440 0.011370 0.503396
O O3 0.494478 0.064045 0.564356
O O4 0.500000 0.000000 0.419511
O O5 0.750000 0.750000 0.527568
O O6 0.714142 0.682524 0.658797
O O7 0.670154 0.654328 0.476506
O O8 0.540016 0.726158 0.567886
O O9 0.818600 0.615650 0.002636
O O10 0.747793 0.663243 0.851923
O O11 0.646041 0.695468 0.013879
O O12 0.965155 0.326004 0.846550
O O13 0.985474 0.227660 0.920634
O O14 0.127559 0.241349 0.790690
O O15 0.945280 0.665620 0.578532
#
# Coordination Sequence:
#
# PCOD9371088 Si02
#       7
#    16  16  16  16  16  16  16
#     4   8  13  27  53  88 114 144 192 252 308 340
#     4  11  23  39  58  86 132 169 205 258 317 391
#     4   9  19  38  63  88 117 162 206 267 310 378
#     4   8  15  31  52  84 122 145 193 258 305 357
#     4  10  21  39  60  84 128 169 203 252 322 384
#     4   9  16  31  57  87 113 151 202 263 302 354
#     4   9  18  35  61  93 113 156 213 258 318 361
#
# _framework density 27.408324
#
# number of rings (size 3 to 8) (size 9 to 14) (size 15 to 20)
#    0.000    2.857    0.000    2.143    0.000    2.286 
#   20.571    0.000   12.571    0.000    0.000    0.000 
#    0.000    0.000    0.000    0.000    0.000    0.000 
#
# Total GULP energy -156236.145833 kJ/mol
# GULP energy per Si atom -5579.862351 kJ/mol
# Density = 2.734594 g / cm^3
# Si number density = 27.408324 Si / 1000 Ang^3
#
#
#
# Elastic Constant Matrix: (Units=GPa)
#
#
# Indices 1 2 3 4 5 6 
#
# 1 83.6986 34.0532 44.2646 0.0000 0.0000 0.0000
# 2 34.0532 103.5036 84.0674 0.0000 0.0000 0.0000
# 3 44.2646 84.0674 204.7324 0.0000 0.0000 0.0000
# 4 0.0000 0.0000 0.0000 39.8978 0.0000 0.0000
# 5 0.0000 0.0000 0.0000 0.0000 28.6645 0.0000
# 6 0.0000 0.0000 0.0000 0.0000 0.0000 50.1168
#
#
#
# Elastic Compliance Matrix: (Units=1/GPa)
#
#
# Indices 1 2 3 4 5 6 
#
# 1 0.014190 -0.003266 -0.001727 0.000000 0.000000 0.000000
# 2 -0.003266 0.015248 -0.005555 0.000000 0.000000 0.000000
# 3 -0.001727 -0.005555 0.007539 0.000000 0.000000 0.000000
# 4 0.000000 0.000000 0.000000 0.025064 0.000000 0.000000
# 5 0.000000 0.000000 0.000000 0.000000 0.034886 0.000000
# 6 0.000000 0.000000 0.000000 0.000000 0.000000 0.019953
#
#
# Mechanical properties :
#
#
# Convention : Reuss Voigt Hill
#
# Bulk Modulus (GPa) = 62.96903 79.63389 71.30146
# Shear Modulus (GPa) = 34.89936 39.03910 36.96923
#
# Velocity S-wave (km/s) = 3.57222 3.77815 3.67663
# Velocity P-wave (km/s) = 6.32761 6.93904 6.64037
#
# Compressibility (1/GPa) = 0.01588082
#
# Stress axis : x y z
#
# Youngs Moduli (GPa) = 70.47397 65.58313 132.64756
#
# Poissons Ratio (x) = 0.21419 0.22907
# Poissons Ratio (y) = 0.23016 0.73685
# Poissons Ratio (z) = 0.12170 0.36431
#
# Static dielectric constant tensor:
#      x y z
#    x 2.391790 0.000000 0.000000 
#    y 0.000000 2.191030 0.000000 
#    z 0.000000 0.000000 2.062410 
# 
# From -- ./inp_files/10264.got.cif
#   From: 2010.05.17/outbox.cif.g08.bks.cpg/sg43_6_cif.got.tgz:10264.got - 2010.06.03 19:21:55.
