data_PCOD9371660
_publ_section_title
;
Structure prediction by ZEFSAII (Michael W. Deem and Ramdas Pophale) SiO2 
 PCOD9371660
Probable space group: F D D 2
;
_chemical_formula_sum "Si O2"
_cell_formula_units_Z 96
_cell_length_a 17.590214
_cell_length_b 22.514494
_cell_length_c 10.961059
_cell_angle_alpha 90.000000
_cell_angle_beta 90.000000
_cell_angle_gamma 90.000000
_cell_volume 4340.960453
_symmetry_space_group_name_H-M "F D D 2"
_symmetry_group_IT_number 43
_symmetry_cell_setting 'orthorhombic'
loop_
_space_group_symop_operation_xyz
x,y,z
-x,-y,z
1/4-x,1/4+y,1/4+z
1/4+x,1/4-y,1/4+z
x,1/2+y,1/2+z
-x,1/2-y,1/2+z
1/4-x,3/4+y,3/4+z
1/4+x,3/4-y,3/4+z
1/2+x,y,1/2+z
1/2-x,-y,1/2+z
3/4-x,1/4+y,3/4+z
3/4+x,1/4-y,3/4+z
1/2+x,1/2+y,z
1/2-x,1/2-y,z
3/4-x,3/4+y,1/4+z
3/4+x,3/4-y,1/4+z
loop_
_atom_site_type_symbol
_atom_site_label
_atom_site_fract_x
_atom_site_fract_y
_atom_site_fract_z
Si Si1 0.072043 0.076414 0.628720
Si Si2 0.750000 0.250000 0.164014
Si Si3 0.095535 0.709104 0.035426
Si Si4 0.179955 0.502423 0.300356
Si Si5 0.648278 0.033568 0.572880
Si Si6 0.250000 0.250000 0.286563
Si Si7 0.692572 0.161929 0.583448
O O1 0.038061 0.046300 0.508326
O O2 0.086524 0.143707 0.588753
O O3 0.144619 0.042482 0.689999
O O4 0.006284 0.075478 0.731725
O O5 0.822344 0.271716 0.085826
O O6 0.020595 0.747402 0.071507
O O7 0.085502 0.721085 0.889657
O O8 0.153113 0.532228 0.427382
O O9 0.138321 0.438720 0.287984
O O10 0.560233 0.038926 0.608325
O O11 0.691473 0.092342 0.612505
O O12 0.288486 0.298489 0.199667
#
# Coordination Sequence:
#
# PCOD9371660 Si02
#       7
#    16   8  16  16  16   8  16
#     4  12  23  49  80 109 152 202 267 321 384 476
#     4  12  28  50  72 112 164 198 256 330 408 448
#     4  12  29  45  71 115 155 204 250 326 402 459
#     4  11  24  43  77 110 140 201 266 310 379 463
#     4  11  25  43  70 104 150 194 252 316 378 458
#     4  10  22  44  66 102 142 188 258 302 384 446
#     4  11  21  42  75 107 139 195 259 319 367 456
#
# _framework density 22.114920999999999
#
# number of rings (size 3 to 8) (size 9 to 14) (size 15 to 20)
#    0.000    0.667    6.667    1.500    4.667    2.667 
#    3.000    0.000    0.000    0.000    0.000    0.000 
#    0.000    0.000    0.000    0.000    0.000    0.000 
#
# Total GULP energy -133631.502982 kJ/mol
# GULP energy per Si atom -5567.979291 kJ/mol
# Density = 2.206459 g / cm^3
# Si number density = 22.114921 Si / 1000 Ang^3
#
#
#
# Elastic Constant Matrix: (Units=GPa)
#
#
# Indices 1 2 3 4 5 6 
#
# 1 113.0215 6.4617 20.3051 0.0000 0.0000 0.0000
# 2 6.4617 48.8140 29.9873 0.0000 0.0000 0.0000
# 3 20.3051 29.9873 72.1446 0.0000 0.0000 0.0000
# 4 0.0000 0.0000 0.0000 29.4929 0.0000 0.0000
# 5 0.0000 0.0000 0.0000 0.0000 28.0646 0.0000
# 6 0.0000 0.0000 0.0000 0.0000 0.0000 20.7941
#
#
#
# Elastic Compliance Matrix: (Units=1/GPa)
#
#
# Indices 1 2 3 4 5 6 
#
# 1 0.009328 0.000508 -0.002837 0.000000 0.000000 0.000000
# 2 0.000508 0.027538 -0.011589 0.000000 0.000000 0.000000
# 3 -0.002837 -0.011589 0.019477 0.000000 0.000000 0.000000
# 4 0.000000 0.000000 0.000000 0.033906 0.000000 0.000000
# 5 0.000000 0.000000 0.000000 0.000000 0.035632 0.000000
# 6 0.000000 0.000000 0.000000 0.000000 0.000000 0.048091
#
#
# Mechanical properties :
#
#
# Convention : Reuss Voigt Hill
#
# Bulk Modulus (GPa) = 35.07915 38.60979 36.84447
# Shear Modulus (GPa) = 23.66182 27.48540 25.57361
#
# Velocity S-wave (km/s) = 3.27455 3.52922 3.40427
# Velocity P-wave (km/s) = 5.49487 5.83985 5.66998
#
# Compressibility (1/GPa) = 0.02850696
#
# Stress axis : x y z
#
# Youngs Moduli (GPa) = 107.19895 36.31318 51.34384
#
# Poissons Ratio (x) = -0.01844 0.14564
# Poissons Ratio (y) = -0.05442 0.59504
# Poissons Ratio (z) = 0.30407 0.42084
#
# Static dielectric constant tensor:
#      x y z
#    x 2.003090 0.000000 0.000000 
#    y 0.000000 1.802130 0.000000 
#    z 0.000000 0.000000 1.892160 
# 
# From -- ./inp_files/6697.got.cif
#   From: 2010.05.17/outbox.cif.g08.bks.cpg/sg43_4_cif.got.tgz:6697.got - 2010.06.03 19:21:55.
