data_PCOD9371070
_publ_section_title
;
Structure prediction by ZEFSAII (Michael W. Deem and Ramdas Pophale) SiO2 
 PCOD9371070
Probable space group: F D D 2
;
_chemical_formula_sum "Si O2"
_cell_formula_units_Z 88
_cell_length_a 9.424713
_cell_length_b 30.642640
_cell_length_c 11.780935
_cell_angle_alpha 90.000000
_cell_angle_beta 90.000000
_cell_angle_gamma 90.000000
_cell_volume 3402.311498
_symmetry_space_group_name_H-M "F D D 2"
_symmetry_group_IT_number 43
_symmetry_cell_setting 'orthorhombic'
loop_
_space_group_symop_operation_xyz
x,y,z
-x,-y,z
1/4-x,1/4+y,1/4+z
1/4+x,1/4-y,1/4+z
x,1/2+y,1/2+z
-x,1/2-y,1/2+z
1/4-x,3/4+y,3/4+z
1/4+x,3/4-y,3/4+z
1/2+x,y,1/2+z
1/2-x,-y,1/2+z
3/4-x,1/4+y,3/4+z
3/4+x,1/4-y,3/4+z
1/2+x,1/2+y,z
1/2-x,1/2-y,z
3/4-x,3/4+y,1/4+z
3/4+x,3/4-y,1/4+z
loop_
_atom_site_type_symbol
_atom_site_label
_atom_site_fract_x
_atom_site_fract_y
_atom_site_fract_z
Si Si1 0.849607 0.927237 0.377770
Si Si2 0.000000 0.500000 0.000753
Si Si3 0.030611 0.163175 0.472864
Si Si4 0.065470 0.824874 0.859556
Si Si5 0.306318 0.517013 0.051669
Si Si6 0.218034 0.135735 0.927932
O O1 0.848320 0.927781 0.242391
O O2 0.715104 0.951212 0.442031
O O3 0.886889 0.879668 0.427462
O O4 0.976652 0.958834 0.418818
O O5 0.142772 0.501790 0.072404
O O6 0.095891 0.204512 0.410664
O O7 0.863978 0.161453 0.439051
O O8 0.015021 0.156850 0.606574
O O9 0.111825 0.867747 0.789440
O O10 0.123604 0.781127 0.797617
O O11 0.896514 0.836571 0.859578
#
# Coordination Sequence:
#
# PCOD9371070 Si02
#       6
#    16   8  16  16  16  16
#     4  10  23  39  66  93 128 171 223 276 330 405
#     4   8  18  40  60  86 118 174 222 258 320 408
#     4  11  20  40  65  90 121 178 225 259 332 412
#     4  11  24  40  64  97 136 166 220 283 337 386
#     4  10  21  38  64  89 124 171 225 266 323 399
#     4  10  23  40  62  92 129 169 215 270 336 398
#
# _framework density 25.864768999999999
#
# number of rings (size 3 to 8) (size 9 to 14) (size 15 to 20)
#    1.091    0.727    1.818    3.273    5.091    0.000 
#    0.000    0.000    0.000    0.000    0.000    0.000 
#    0.000    0.000    0.000    0.000    0.000    0.000 
#
# Total GULP energy -122726.877375 kJ/mol
# GULP energy per Si atom -5578.494426 kJ/mol
# Density = 2.580590 g / cm^3
# Si number density = 25.864769 Si / 1000 Ang^3
#
#
#
# Elastic Constant Matrix: (Units=GPa)
#
#
# Indices 1 2 3 4 5 6 
#
# 1 60.6213 8.6653 5.0103 0.0000 0.0000 0.0000
# 2 8.6653 143.9937 43.0198 0.0000 0.0000 0.0000
# 3 5.0103 43.0198 127.9802 0.0000 0.0000 0.0000
# 4 0.0000 0.0000 0.0000 45.2981 0.0000 0.0000
# 5 0.0000 0.0000 0.0000 0.0000 38.4650 0.0000
# 6 0.0000 0.0000 0.0000 0.0000 0.0000 28.7844
#
#
#
# Elastic Compliance Matrix: (Units=1/GPa)
#
#
# Indices 1 2 3 4 5 6 
#
# 1 0.016653 -0.000898 -0.000350 0.000000 0.000000 0.000000
# 2 -0.000898 0.007768 -0.002576 0.000000 0.000000 0.000000
# 3 -0.000350 -0.002576 0.008693 0.000000 0.000000 0.000000
# 4 0.000000 0.000000 0.000000 0.022076 0.000000 0.000000
# 5 0.000000 0.000000 0.000000 0.000000 0.025998 0.000000
# 6 0.000000 0.000000 0.000000 0.000000 0.000000 0.034741
#
#
# Mechanical properties :
#
#
# Convention : Reuss Voigt Hill
#
# Bulk Modulus (GPa) = 39.26648 49.55400 44.41024
# Shear Modulus (GPa) = 37.85972 40.90282 39.38127
#
# Velocity S-wave (km/s) = 3.83006 3.98101 3.90626
# Velocity P-wave (km/s) = 5.89691 6.35073 6.12802
#
# Compressibility (1/GPa) = 0.02546701
#
# Stress axis : x y z
#
# Youngs Moduli (GPa) = 60.04893 128.72629 115.02998
#
# Poissons Ratio (x) = 0.11553 0.04029
# Poissons Ratio (y) = 0.05389 0.29634
# Poissons Ratio (z) = 0.02103 0.33162
#
# Static dielectric constant tensor:
#      x y z
#    x 2.126150 0.000000 0.000000 
#    y 0.000000 2.107750 0.000000 
#    z 0.000000 0.000000 2.003730 
# 
# From -- ./inp_files/5763.got.cif
#   From: 2010.05.17/outbox.cif.g08.bks.cpg/sg43_3_cif.got.tgz:5763.got - 2010.06.03 19:21:55.
