data_PCOD9371393
_publ_section_title
;
Structure prediction by ZEFSAII (Michael W. Deem and Ramdas Pophale) SiO2 
 PCOD9371393
Probable space group: F D D 2
;
_chemical_formula_sum "Si O2"
_cell_formula_units_Z 112
_cell_length_a 14.282734
_cell_length_b 16.257428
_cell_length_c 23.194094
_cell_angle_alpha 90.000000
_cell_angle_beta 90.000000
_cell_angle_gamma 90.000000
_cell_volume 5385.680680
_symmetry_space_group_name_H-M "F D D 2"
_symmetry_group_IT_number 43
_symmetry_cell_setting 'orthorhombic'
loop_
_space_group_symop_operation_xyz
x,y,z
-x,-y,z
1/4-x,1/4+y,1/4+z
1/4+x,1/4-y,1/4+z
x,1/2+y,1/2+z
-x,1/2-y,1/2+z
1/4-x,3/4+y,3/4+z
1/4+x,3/4-y,3/4+z
1/2+x,y,1/2+z
1/2-x,-y,1/2+z
3/4-x,1/4+y,3/4+z
3/4+x,1/4-y,3/4+z
1/2+x,1/2+y,z
1/2-x,1/2-y,z
3/4-x,3/4+y,1/4+z
3/4+x,3/4-y,1/4+z
loop_
_atom_site_type_symbol
_atom_site_label
_atom_site_fract_x
_atom_site_fract_y
_atom_site_fract_z
Si Si1 0.744984 0.654451 0.576620
Si Si2 0.456158 0.372771 0.206830
Si Si3 0.949063 0.371357 0.353927
Si Si4 0.164326 0.382222 0.695243
Si Si5 0.997555 0.199919 0.972466
Si Si6 0.149394 0.956969 0.841651
Si Si7 0.098446 0.533146 0.058483
O O1 0.750000 0.750000 0.558761
O O2 0.781586 0.598524 0.523858
O O3 0.807367 0.646734 0.632533
O O4 0.642040 0.615978 0.586997
O O5 0.557114 0.414492 0.194969
O O6 0.357763 0.418959 0.210897
O O7 0.446265 0.310199 0.153738
O O8 0.882574 0.448316 0.340292
O O9 0.918853 0.292033 0.318102
O O10 0.944504 0.343738 0.421292
O O11 0.054413 0.402239 0.340771
O O12 0.237292 0.452507 0.713301
O O13 0.165911 0.310152 0.742302
O O14 0.036903 0.185209 0.036448
O O15 0.000000 0.500000 0.082203
#
# Coordination Sequence:
#
# PCOD9371393 Si02
#       7
#    16  16  16  16  16  16  16
#     4  11  23  41  65 101 138 179 233 285 356 424
#     4  10  22  38  64  96 132 177 229 286 336 407
#     4  10  23  45  65 100 135 176 234 283 345 431
#     4  11  22  39  67  98 135 181 223 283 349 417
#     4  11  21  42  67  95 137 180 228 284 344 409
#     4  10  23  43  70  95 138 181 229 291 347 415
#     4  11  23  42  66  96 141 177 227 289 347 424
#
# _framework density 20.795887
#
# number of rings (size 3 to 8) (size 9 to 14) (size 15 to 20)
#    0.000    1.429    1.429    4.286    0.000    3.429 
#    2.571    0.000    3.143    0.000    0.000    0.000 
#    0.000    0.000    0.000    0.000    0.000    0.000 
#
# Total GULP energy -156085.420459 kJ/mol
# GULP energy per Si atom -5574.479302 kJ/mol
# Density = 2.074855 g / cm^3
# Si number density = 20.795887 Si / 1000 Ang^3
#
#
#
# Elastic Constant Matrix: (Units=GPa)
#
#
# Indices 1 2 3 4 5 6 
#
# 1 75.1503 44.8655 33.8012 0.0000 0.0000 0.0000
# 2 44.8655 110.1993 46.0438 0.0000 0.0000 0.0000
# 3 33.8012 46.0438 129.5710 0.0000 0.0000 0.0000
# 4 0.0000 0.0000 0.0000 23.3970 0.0000 0.0000
# 5 0.0000 0.0000 0.0000 0.0000 39.1225 0.0000
# 6 0.0000 0.0000 0.0000 0.0000 0.0000 15.2808
#
#
#
# Elastic Compliance Matrix: (Units=1/GPa)
#
#
# Indices 1 2 3 4 5 6 
#
# 1 0.018238 -0.006386 -0.002489 0.000000 0.000000 0.000000
# 2 -0.006386 0.012892 -0.002916 0.000000 0.000000 0.000000
# 3 -0.002489 -0.002916 0.009403 0.000000 0.000000 0.000000
# 4 0.000000 0.000000 0.000000 0.042740 0.000000 0.000000
# 5 0.000000 0.000000 0.000000 0.000000 0.025561 0.000000
# 6 0.000000 0.000000 0.000000 0.000000 0.000000 0.065441
#
#
# Mechanical properties :
#
#
# Convention : Reuss Voigt Hill
#
# Bulk Modulus (GPa) = 58.98268 62.70463 60.84365
# Shear Modulus (GPa) = 24.56912 28.24074 26.40493
#
# Velocity S-wave (km/s) = 3.44094 3.68910 3.56718
# Velocity P-wave (km/s) = 6.64913 6.95441 6.80348
#
# Compressibility (1/GPa) = 0.01695413
#
# Stress axis : x y z
#
# Youngs Moduli (GPa) = 54.82974 77.56491 106.34820
#
# Poissons Ratio (x) = 0.49529 0.26467
# Poissons Ratio (y) = 0.35012 0.31007
# Poissons Ratio (z) = 0.13645 0.22615
#
# Static dielectric constant tensor:
#      x y z
#    x 1.807650 0.000000 0.000000 
#    y 0.000000 1.755460 0.000000 
#    z 0.000000 0.000000 1.744150 
# 
# From -- ./inp_files/21741.got.cif
#   From: 2010.05.17/outbox.cif.g08.bks.cpg/sg43_11_cif.got.tgz:21741.got - 2010.06.03 19:21:55.
