data_PCOD9371574
_publ_section_title
;
Structure prediction by ZEFSAII (Michael W. Deem and Ramdas Pophale) SiO2 
 PCOD9371574
Probable space group: F D D 2
;
_chemical_formula_sum "Si O2"
_cell_formula_units_Z 88
_cell_length_a 16.516136
_cell_length_b 16.709100
_cell_length_c 11.661664
_cell_angle_alpha 90.000000
_cell_angle_beta 90.000000
_cell_angle_gamma 90.000000
_cell_volume 3218.266709
_symmetry_space_group_name_H-M "F D D 2"
_symmetry_group_IT_number 43
_symmetry_cell_setting 'orthorhombic'
loop_
_space_group_symop_operation_xyz
x,y,z
-x,-y,z
1/4-x,1/4+y,1/4+z
1/4+x,1/4-y,1/4+z
x,1/2+y,1/2+z
-x,1/2-y,1/2+z
1/4-x,3/4+y,3/4+z
1/4+x,3/4-y,3/4+z
1/2+x,y,1/2+z
1/2-x,-y,1/2+z
3/4-x,1/4+y,3/4+z
3/4+x,1/4-y,3/4+z
1/2+x,1/2+y,z
1/2-x,1/2-y,z
3/4-x,3/4+y,1/4+z
3/4+x,3/4-y,1/4+z
loop_
_atom_site_type_symbol
_atom_site_label
_atom_site_fract_x
_atom_site_fract_y
_atom_site_fract_z
Si Si1 0.991998 0.615886 0.765320
Si Si2 0.580153 0.776377 0.955529
Si Si3 0.750000 0.250000 0.189442
Si Si4 0.544518 0.343074 0.872475
Si Si5 0.045684 0.389251 0.139935
Si Si6 0.600486 0.961332 0.547062
O O1 0.060259 0.682905 0.753781
O O2 0.927484 0.656920 0.854389
O O3 0.045326 0.550376 0.838742
O O4 0.942051 0.580438 0.658712
O O5 0.497639 0.724904 0.948425
O O6 0.647363 0.710396 0.932493
O O7 0.590234 0.816354 0.078234
O O8 0.746957 0.178569 0.281415
O O9 0.499072 0.358701 0.751531
O O10 0.630513 0.303325 0.832941
O O11 0.548715 0.424150 0.943620
#
# Coordination Sequence:
#
# PCOD9371574 Si02
#       6
#    16  16   8  16  16  16
#     4  10  22  44  72 106 143 191 253 307 389 460
#     4  10  25  43  70  99 144 189 245 322 384 469
#     4  10  22  42  68 104 134 198 244 320 368 474
#     4  11  26  43  70 104 146 199 249 329 380 474
#     4  11  24  45  69 104 147 192 262 308 402 451
#     4  11  24  44  72 104 150 192 255 312 393 454
#
# _framework density 27.343912
#
# number of rings (size 3 to 8) (size 9 to 14) (size 15 to 20)
#    0.000    1.455    0.000    3.273   10.182    1.455 
#    3.273    0.000    0.000    0.000    0.000    0.000 
#    0.000    0.000    0.000    0.000    0.000    0.000 
#
# Total GULP energy -122557.001780 kJ/mol
# GULP energy per Si atom -5570.772808 kJ/mol
# Density = 2.728168 g / cm^3
# Si number density = 27.343912 Si / 1000 Ang^3
#
#
#
# Elastic Constant Matrix: (Units=GPa)
#
#
# Indices 1 2 3 4 5 6 
#
# 1 62.3579 11.6988 27.0165 0.0000 0.0000 0.0000
# 2 11.6988 76.2387 76.6498 0.0000 0.0000 0.0000
# 3 27.0165 76.6498 199.9108 0.0000 0.0000 0.0000
# 4 0.0000 0.0000 0.0000 65.0416 0.0000 0.0000
# 5 0.0000 0.0000 0.0000 0.0000 25.0906 0.0000
# 6 0.0000 0.0000 0.0000 0.0000 0.0000 42.5666
#
#
#
# Elastic Compliance Matrix: (Units=1/GPa)
#
#
# Indices 1 2 3 4 5 6 
#
# 1 0.017045 -0.000488 -0.002117 0.000000 0.000000 0.000000
# 2 -0.000488 0.021359 -0.008124 0.000000 0.000000 0.000000
# 3 -0.002117 -0.008124 0.008403 0.000000 0.000000 0.000000
# 4 0.000000 0.000000 0.000000 0.015375 0.000000 0.000000
# 5 0.000000 0.000000 0.000000 0.000000 0.039856 0.000000
# 6 0.000000 0.000000 0.000000 0.000000 0.000000 0.023493
#
#
# Mechanical properties :
#
#
# Convention : Reuss Voigt Hill
#
# Bulk Modulus (GPa) = 39.44544 63.24862 51.34703
# Shear Modulus (GPa) = 32.16769 41.41590 36.79180
#
# Velocity S-wave (km/s) = 3.43361 3.89605 3.67211
# Velocity P-wave (km/s) = 5.49332 6.58938 6.06615
#
# Compressibility (1/GPa) = 0.02535147
#
# Stress axis : x y z
#
# Youngs Moduli (GPa) = 58.66847 46.81904 119.00535
#
# Poissons Ratio (x) = 0.02283 0.25188
# Poissons Ratio (y) = 0.02861 0.96674
# Poissons Ratio (z) = 0.12417 0.38033
#
# Static dielectric constant tensor:
#      x y z
#    x 2.279480 0.000000 0.000000 
#    y 0.000000 2.361970 0.000000 
#    z 0.000000 0.000000 2.107620 
# 
# From -- ./inp_files/6636.got.cif
#   From: 2010.05.17/outbox.cif.g08.bks.cpg/sg43_4_cif.got.tgz:6636.got - 2010.06.03 19:21:55.
