data_PCOD9371509
_publ_section_title
;
Structure prediction by ZEFSAII (Michael W. Deem and Ramdas Pophale) SiO2 
 PCOD9371509
Probable space group: F D D 2
;
_chemical_formula_sum "Si O2"
_cell_formula_units_Z 80
_cell_length_a 29.276964
_cell_length_b 9.144754
_cell_length_c 11.712646
_cell_angle_alpha 90.000000
_cell_angle_beta 90.000000
_cell_angle_gamma 90.000000
_cell_volume 3135.834135
_symmetry_space_group_name_H-M "F D D 2"
_symmetry_group_IT_number 43
_symmetry_cell_setting 'orthorhombic'
loop_
_space_group_symop_operation_xyz
x,y,z
-x,-y,z
1/4-x,1/4+y,1/4+z
1/4+x,1/4-y,1/4+z
x,1/2+y,1/2+z
-x,1/2-y,1/2+z
1/4-x,3/4+y,3/4+z
1/4+x,3/4-y,3/4+z
1/2+x,y,1/2+z
1/2-x,-y,1/2+z
3/4-x,1/4+y,3/4+z
3/4+x,1/4-y,3/4+z
1/2+x,1/2+y,z
1/2-x,1/2-y,z
3/4-x,3/4+y,1/4+z
3/4+x,3/4-y,1/4+z
loop_
_atom_site_type_symbol
_atom_site_label
_atom_site_fract_x
_atom_site_fract_y
_atom_site_fract_z
Si Si1 0.853654 0.727146 0.640280
Si Si2 0.057454 0.602128 0.119059
Si Si3 0.982901 0.334128 0.670112
Si Si4 0.539265 0.402355 0.834477
Si Si5 0.637173 0.325465 0.910394
O O1 0.896409 0.826462 0.668091
O O2 0.819798 0.708018 0.743801
O O3 0.870980 0.570059 0.589250
O O4 0.840195 0.776120 0.514011
O O5 0.046107 0.480169 0.211336
O O6 0.019316 0.728089 0.108360
O O7 0.978240 0.258580 0.796699
O O8 0.931059 0.334435 0.619671
O O9 0.000000 0.500000 0.670011
O O10 0.500000 0.500000 0.893370
O O11 0.587561 0.402851 0.897155
#
# Coordination Sequence:
#
# PCOD9371509 Si02
#       5
#    16  16  16  16  16
#     4  10  22  41  66  97 142 181 233 287 361 424
#     4  10  23  43  69 102 140 186 238 297 354 431
#     4  11  22  43  69 104 146 184 237 293 359 433
#     4  10  24  45  74 107 140 180 248 296 357 429
#     4  11  21  43  70 101 139 187 235 294 361 427
#
# _framework density 25.511552999999999
#
# number of rings (size 3 to 8) (size 9 to 14) (size 15 to 20)
#    0.000    1.600    4.000    0.000    2.800    0.000 
#    7.200    5.000    0.000    0.000    0.000    0.000 
#    0.000    0.000    0.000    0.000    0.000    0.000 
#
# Total GULP energy -111386.555130 kJ/mol
# GULP energy per Si atom -5569.327757 kJ/mol
# Density = 2.545349 g / cm^3
# Si number density = 25.511553 Si / 1000 Ang^3
#
#
#
# Elastic Constant Matrix: (Units=GPa)
#
#
# Indices 1 2 3 4 5 6 
#
# 1 144.2050 16.6733 61.9376 0.0000 0.0000 0.0000
# 2 16.6733 75.3466 19.0933 0.0000 0.0000 0.0000
# 3 61.9376 19.0933 105.2821 0.0000 0.0000 0.0000
# 4 0.0000 0.0000 0.0000 1.1847 0.0000 0.0000
# 5 0.0000 0.0000 0.0000 0.0000 50.7653 0.0000
# 6 0.0000 0.0000 0.0000 0.0000 0.0000 44.4291
#
#
#
# Elastic Compliance Matrix: (Units=1/GPa)
#
#
# Indices 1 2 3 4 5 6 
#
# 1 0.009315 -0.000705 -0.005352 0.000000 0.000000 0.000000
# 2 -0.000705 0.013965 -0.002118 0.000000 0.000000 0.000000
# 3 -0.005352 -0.002118 0.013031 0.000000 0.000000 0.000000
# 4 0.000000 0.000000 0.000000 0.844085 0.000000 0.000000
# 5 0.000000 0.000000 0.000000 0.000000 0.019699 0.000000
# 6 0.000000 0.000000 0.000000 0.000000 0.000000 0.022508
#
#
# Mechanical properties :
#
#
# Convention : Reuss Voigt Hill
#
# Bulk Modulus (GPa) = 50.09831 57.80469 53.95150
# Shear Modulus (GPa) = 5.28762 34.41778 19.85270
#
# Velocity S-wave (km/s) = 1.44123 3.67700 2.79262
# Velocity P-wave (km/s) = 4.73811 6.38236 5.62069
#
# Compressibility (1/GPa) = 0.01996075
#
# Stress axis : x y z
#
# Youngs Moduli (GPa) = 107.35529 71.60926 76.74011
#
# Poissons Ratio (x) = 0.05049 0.41072
# Poissons Ratio (y) = 0.07569 0.16252
# Poissons Ratio (z) = 0.57457 0.15165
#
# Static dielectric constant tensor:
#      x y z
#    x 2.130150 0.000000 0.000000 
#    y 0.000000 2.601760 0.000000 
#    z 0.000000 0.000000 2.087100 
# 
# From -- ./inp_files/8191.got.cif
#   From: 2010.05.17/outbox.cif.g08.bks.cpg/sg43_5_cif.got.tgz:8191.got - 2010.06.03 19:21:55.
