data_PCOD9371282
_publ_section_title
;
Structure prediction by ZEFSAII (Michael W. Deem and Ramdas Pophale) SiO2 
 PCOD9371282
Probable space group: F D D 2
;
_chemical_formula_sum "Si O2"
_cell_formula_units_Z 104
_cell_length_a 23.191977
_cell_length_b 10.627260
_cell_length_c 21.030291
_cell_angle_alpha 90.000000
_cell_angle_beta 90.000000
_cell_angle_gamma 90.000000
_cell_volume 5183.276296
_symmetry_space_group_name_H-M "F D D 2"
_symmetry_group_IT_number 43
_symmetry_cell_setting 'orthorhombic'
loop_
_space_group_symop_operation_xyz
x,y,z
-x,-y,z
1/4-x,1/4+y,1/4+z
1/4+x,1/4-y,1/4+z
x,1/2+y,1/2+z
-x,1/2-y,1/2+z
1/4-x,3/4+y,3/4+z
1/4+x,3/4-y,3/4+z
1/2+x,y,1/2+z
1/2-x,-y,1/2+z
3/4-x,1/4+y,3/4+z
3/4+x,1/4-y,3/4+z
1/2+x,1/2+y,z
1/2-x,1/2-y,z
3/4-x,3/4+y,1/4+z
3/4+x,3/4-y,1/4+z
loop_
_atom_site_type_symbol
_atom_site_label
_atom_site_fract_x
_atom_site_fract_y
_atom_site_fract_z
Si Si1 0.000000 0.000000 0.362471
Si Si2 0.324413 0.548003 0.192980
Si Si3 0.853366 0.586974 0.364097
Si Si4 0.358978 0.826781 0.412145
Si Si5 0.026331 0.632512 0.494951
Si Si6 0.592214 0.323282 0.294410
Si Si7 0.556277 0.554864 0.774949
O O1 0.962517 0.899181 0.402711
O O2 0.047691 0.923799 0.322484
O O3 0.360747 0.447624 0.149253
O O4 0.276337 0.478208 0.235959
O O5 0.369172 0.617889 0.239166
O O6 0.836302 0.471057 0.409766
O O7 0.802573 0.629116 0.316290
O O8 0.893911 0.504948 0.317564
O O9 0.421522 0.832183 0.447210
O O10 0.368531 0.743881 0.348772
O O11 0.315874 0.751075 0.456082
O O12 0.000000 0.500000 0.475330
O O13 0.556232 0.203430 0.270861
O O14 0.500000 0.500000 0.806368
#
# Coordination Sequence:
#
# PCOD9371282 Si02
#       7
#     8  16  16  16  16  16  16
#     4  12  26  44  66  94 144 178 220 284 354 406
#     4  12  26  43  68 100 138 183 225 285 349 411
#     4  10  24  41  68  98 132 168 232 279 336 417
#     4  10  21  43  66  96 126 170 231 282 331 420
#     4  11  23  44  70  97 130 183 224 277 347 399
#     4  11  25  42  66  98 134 176 227 281 346 414
#     4  10  22  41  67  93 125 174 228 279 341 402
#
# _framework density 20.064529
#
# number of rings (size 3 to 8) (size 9 to 14) (size 15 to 20)
#    0.000    1.231    3.077    1.846    8.615    2.462 
#    4.154    0.000    0.000    0.000    0.000    0.000 
#    0.000    0.000    0.000    0.000    0.000    0.000 
#
# Total GULP energy -144997.130707 kJ/mol
# GULP energy per Si atom -5576.812720 kJ/mol
# Density = 2.001886 g / cm^3
# Si number density = 20.064529 Si / 1000 Ang^3
#
#
#
# Elastic Constant Matrix: (Units=GPa)
#
#
# Indices 1 2 3 4 5 6 
#
# 1 74.0704 40.2592 23.2171 0.0000 0.0000 0.0000
# 2 40.2592 128.2874 38.4407 0.0000 0.0000 0.0000
# 3 23.2171 38.4407 65.9032 0.0000 0.0000 0.0000
# 4 0.0000 0.0000 0.0000 21.8048 0.0000 0.0000
# 5 0.0000 0.0000 0.0000 0.0000 8.8975 0.0000
# 6 0.0000 0.0000 0.0000 0.0000 0.0000 24.0440
#
#
#
# Elastic Compliance Matrix: (Units=1/GPa)
#
#
# Indices 1 2 3 4 5 6 
#
# 1 0.016907 -0.004267 -0.003467 0.000000 0.000000 0.000000
# 2 -0.004267 0.010523 -0.004635 0.000000 0.000000 0.000000
# 3 -0.003467 -0.004635 0.019099 0.000000 0.000000 0.000000
# 4 0.000000 0.000000 0.000000 0.045861 0.000000 0.000000
# 5 0.000000 0.000000 0.000000 0.000000 0.112391 0.000000
# 6 0.000000 0.000000 0.000000 0.000000 0.000000 0.041590
#
#
# Mechanical properties :
#
#
# Convention : Reuss Voigt Hill
#
# Bulk Modulus (GPa) = 45.89143 52.45500 49.17322
# Shear Modulus (GPa) = 17.96161 22.03885 20.00023
#
# Velocity S-wave (km/s) = 2.99522 3.31781 3.16063
# Velocity P-wave (km/s) = 5.90622 6.39351 6.15469
#
# Compressibility (1/GPa) = 0.02179056
#
# Stress axis : x y z
#
# Youngs Moduli (GPa) = 59.14876 95.03235 52.35966
#
# Poissons Ratio (x) = 0.40547 0.18155
# Poissons Ratio (y) = 0.25237 0.24267
# Poissons Ratio (z) = 0.20509 0.44045
#
# Static dielectric constant tensor:
#      x y z
#    x 1.837030 0.000000 0.000000 
#    y 0.000000 1.705170 0.000000 
#    z 0.000000 0.000000 1.789570 
# 
# From -- ./inp_files/18869.got.cif
#   From: 2010.05.17/outbox.cif.g08.bks.cpg/sg43_10_cif.got.tgz:18869.got - 2010.06.03 19:21:55.
