data_PCOD9371342
_publ_section_title
;
Structure prediction by ZEFSAII (Michael W. Deem and Ramdas Pophale) SiO2 
 PCOD9371342
Probable space group: F D D 2
;
_chemical_formula_sum "Si O2"
_cell_formula_units_Z 88
_cell_length_a 18.150102
_cell_length_b 26.849804
_cell_length_c 7.503986
_cell_angle_alpha 90.000000
_cell_angle_beta 90.000000
_cell_angle_gamma 90.000000
_cell_volume 3656.892594
_symmetry_space_group_name_H-M "F D D 2"
_symmetry_group_IT_number 43
_symmetry_cell_setting 'orthorhombic'
loop_
_space_group_symop_operation_xyz
x,y,z
-x,-y,z
1/4-x,1/4+y,1/4+z
1/4+x,1/4-y,1/4+z
x,1/2+y,1/2+z
-x,1/2-y,1/2+z
1/4-x,3/4+y,3/4+z
1/4+x,3/4-y,3/4+z
1/2+x,y,1/2+z
1/2-x,-y,1/2+z
3/4-x,1/4+y,3/4+z
3/4+x,1/4-y,3/4+z
1/2+x,1/2+y,z
1/2-x,1/2-y,z
3/4-x,3/4+y,1/4+z
3/4+x,3/4-y,1/4+z
loop_
_atom_site_type_symbol
_atom_site_label
_atom_site_fract_x
_atom_site_fract_y
_atom_site_fract_z
Si Si1 0.899294 0.798594 0.053920
Si Si2 0.499450 0.358023 0.569162
Si Si3 0.347273 0.399462 0.482864
Si Si4 0.520752 0.248373 0.220334
Si Si5 0.500000 0.500000 0.883019
Si Si6 0.229000 0.855675 0.724154
O O1 0.818301 0.776207 0.032872
O O2 0.940568 0.774795 0.223762
O O3 0.950917 0.776367 0.900481
O O4 0.914304 0.857443 0.039461
O O5 0.432322 0.386267 0.473774
O O6 0.569397 0.360820 0.436855
O O7 0.482555 0.299718 0.594180
O O8 0.499136 0.379662 0.770095
O O9 0.326817 0.456233 0.433929
O O10 0.298403 0.366394 0.350824
O O11 0.463863 0.453052 0.983554
#
# Coordination Sequence:
#
# PCOD9371342 Si02
#       6
#    16  16  16  16   8  16
#     4  10  23  43  75 103 140 194 246 298 376 443
#     4  11  25  46  71 105 147 190 246 304 372 449
#     4  11  25  47  70 107 143 193 249 301 371 454
#     4  10  21  45  70  97 142 194 232 296 373 438
#     4  12  26  46  76 108 148 194 254 312 372 440
#     4  10  27  44  71 105 149 191 242 310 373 436
#
# _framework density 24.064146999999998
#
# number of rings (size 3 to 8) (size 9 to 14) (size 15 to 20)
#    0.000    1.455    1.818    1.091   10.182    1.455 
#    6.545    0.000    0.000    0.000    0.000    0.000 
#    0.000    0.000    0.000    0.000    0.000    0.000 
#
# Total GULP energy -122929.969617 kJ/mol
# GULP energy per Si atom -5587.725892 kJ/mol
# Density = 2.400938 g / cm^3
# Si number density = 24.064147 Si / 1000 Ang^3
#
#
#
# Elastic Constant Matrix: (Units=GPa)
#
#
# Indices 1 2 3 4 5 6 
#
# 1 108.2034 29.6112 14.0869 0.0001 0.0007 -0.0001
# 2 29.6112 183.7661 15.2272 0.0001 -0.0002 0.0000
# 3 14.0869 15.2272 92.0332 0.0002 0.0011 -0.0002
# 4 0.0001 0.0001 0.0002 28.5367 -0.0002 -0.0001
# 5 0.0007 -0.0002 0.0011 -0.0002 21.0180 0.0002
# 6 -0.0001 0.0000 -0.0002 -0.0001 0.0002 28.7411
#
#
#
# Elastic Compliance Matrix: (Units=1/GPa)
#
#
# Indices 1 2 3 4 5 6 
#
# 1 0.009810 -0.001476 -0.001257 0.000000 0.000000 0.000000
# 2 -0.001476 0.005740 -0.000724 0.000000 0.000000 0.000000
# 3 -0.001257 -0.000724 0.011178 0.000000 -0.000001 0.000000
# 4 0.000000 0.000000 0.000000 0.035043 0.000000 0.000000
# 5 0.000000 0.000000 -0.000001 0.000000 0.047578 0.000000
# 6 0.000000 0.000000 0.000000 0.000000 0.000000 0.034793
#
#
# Mechanical properties :
#
#
# Convention : Reuss Voigt Hill
#
# Bulk Modulus (GPa) = 50.47366 55.76148 53.11757
# Shear Modulus (GPa) = 31.71382 37.33098 34.52240
#
# Velocity S-wave (km/s) = 3.63421 3.94294 3.79172
# Velocity P-wave (km/s) = 6.21531 6.62958 6.42579
#
# Compressibility (1/GPa) = 0.01981232
#
# Stress axis : x y z
#
# Youngs Moduli (GPa) = 101.94108 174.22878 89.46297
#
# Poissons Ratio (x) = 0.25725 0.11247
# Poissons Ratio (y) = 0.15052 0.06474
# Poissons Ratio (z) = 0.12816 0.12608
#
# Static dielectric constant tensor:
#      x y z
#    x 1.934550 0.000000 0.000000 
#    y 0.000000 1.914520 0.000000 
#    z 0.000000 0.000000 2.044720 
# 
# From -- ./inp_files/2932.got.cif
#   From: 2010.05.17/outbox.cif.g08.bks.cpg/sg43_2_cif.got.tgz:2932.got - 2010.06.03 19:21:55.
