data_PCOD9371146
_publ_section_title
;
Structure prediction by ZEFSAII (Michael W. Deem and Ramdas Pophale) SiO2 
 PCOD9371146
Probable space group: F D D 2
;
_chemical_formula_sum "Si O2"
_cell_formula_units_Z 96
_cell_length_a 27.313099
_cell_length_b 17.600091
_cell_length_c 10.052040
_cell_angle_alpha 90.000000
_cell_angle_beta 90.000000
_cell_angle_gamma 90.000000
_cell_volume 4832.146585
_symmetry_space_group_name_H-M "F D D 2"
_symmetry_group_IT_number 43
_symmetry_cell_setting 'orthorhombic'
loop_
_space_group_symop_operation_xyz
x,y,z
-x,-y,z
1/4-x,1/4+y,1/4+z
1/4+x,1/4-y,1/4+z
x,1/2+y,1/2+z
-x,1/2-y,1/2+z
1/4-x,3/4+y,3/4+z
1/4+x,3/4-y,3/4+z
1/2+x,y,1/2+z
1/2-x,-y,1/2+z
3/4-x,1/4+y,3/4+z
3/4+x,1/4-y,3/4+z
1/2+x,1/2+y,z
1/2-x,1/2-y,z
3/4-x,3/4+y,1/4+z
3/4+x,3/4-y,1/4+z
loop_
_atom_site_type_symbol
_atom_site_label
_atom_site_fract_x
_atom_site_fract_y
_atom_site_fract_z
Si Si1 0.461421 0.812629 0.149090
Si Si2 0.560839 0.356476 0.746236
Si Si3 0.507015 0.650344 0.151425
Si Si4 0.078911 0.126401 0.925686
Si Si5 0.579543 0.186856 0.859828
Si Si6 0.563434 0.951199 0.503960
O O1 0.516022 0.849298 0.144160
O O2 0.471698 0.722790 0.169308
O O3 0.436800 0.849394 0.278828
O O4 0.429984 0.821972 0.015795
O O5 0.612790 0.385017 0.691640
O O6 0.568125 0.273452 0.813206
O O7 0.547487 0.410659 0.868085
O O8 0.540329 0.637247 0.279524
O O9 0.545709 0.671196 0.033146
O O10 0.475322 0.578109 0.110734
O O11 0.068365 0.039291 0.968033
O O12 0.633869 0.172046 0.805816
#
# Coordination Sequence:
#
# PCOD9371146 Si02
#       6
#    16  16  16  16  16  16
#     4  11  22  40  62  97 127 161 217 275 315 381
#     4  10  21  40  64  92 126 171 216 262 325 394
#     4  11  20  39  66  88 124 172 210 255 324 397
#     4  11  23  39  67  94 125 172 219 259 326 394
#     4  10  22  38  63  94 125 161 218 271 319 381
#     4  11  21  40  66  87 125 172 218 259 319 396
#
# _framework density 19.866947
#
# number of rings (size 3 to 8) (size 9 to 14) (size 15 to 20)
#    0.000    1.333    5.000    1.500    0.000    1.333 
#    3.000    0.000    7.333    0.000    0.000    0.000 
#    0.000    0.000    0.000    0.000    0.000    0.000 
#
# Total GULP energy -133986.364176 kJ/mol
# GULP energy per Si atom -5582.765174 kJ/mol
# Density = 1.982173 g / cm^3
# Si number density = 19.866947 Si / 1000 Ang^3
#
#
#
# Elastic Constant Matrix: (Units=GPa)
#
#
# Indices 1 2 3 4 5 6 
#
# 1 69.8358 28.8887 32.1636 0.0000 0.0000 0.0000
# 2 28.8887 52.5621 22.9695 0.0000 0.0000 0.0000
# 3 32.1636 22.9695 109.1070 0.0000 0.0000 0.0000
# 4 0.0000 0.0000 0.0000 30.4554 0.0000 0.0000
# 5 0.0000 0.0000 0.0000 0.0000 31.1470 0.0000
# 6 0.0000 0.0000 0.0000 0.0000 0.0000 18.6882
#
#
#
# Elastic Compliance Matrix: (Units=1/GPa)
#
#
# Indices 1 2 3 4 5 6 
#
# 1 0.019958 -0.009249 -0.003936 0.000000 0.000000 0.000000
# 2 -0.009249 0.025239 -0.002587 0.000000 0.000000 0.000000
# 3 -0.003936 -0.002587 0.010870 0.000000 0.000000 0.000000
# 4 0.000000 0.000000 0.000000 0.032835 0.000000 0.000000
# 5 0.000000 0.000000 0.000000 0.000000 0.032106 0.000000
# 6 0.000000 0.000000 0.000000 0.000000 0.000000 0.053510
#
#
# Mechanical properties :
#
#
# Convention : Reuss Voigt Hill
#
# Bulk Modulus (GPa) = 40.77812 44.39428 42.58620
# Shear Modulus (GPa) = 23.33867 25.89033 24.61450
#
# Velocity S-wave (km/s) = 3.43118 3.61388 3.52372
# Velocity P-wave (km/s) = 6.02225 6.30935 6.16747
#
# Compressibility (1/GPa) = 0.02452296
#
# Stress axis : x y z
#
# Youngs Moduli (GPa) = 50.10461 39.62132 91.99385
#
# Poissons Ratio (x) = 0.36646 0.36212
# Poissons Ratio (y) = 0.46342 0.23797
# Poissons Ratio (z) = 0.19723 0.10249
#
# Static dielectric constant tensor:
#      x y z
#    x 1.741770 0.000000 0.000000 
#    y 0.000000 1.725560 0.000000 
#    z 0.000000 0.000000 1.676060 
# 
# From -- ./inp_files/3298.got.cif
#   From: 2010.05.17/outbox.cif.g08.bks.cpg/sg43_2_cif.got.tgz:3298.got - 2010.06.03 19:21:55.
