data_PCOD9371579
_publ_section_title
;
Structure prediction by ZEFSAII (Michael W. Deem and Ramdas Pophale) SiO2 
 PCOD9371579
Probable space group: F D D 2
;
_chemical_formula_sum "Si O2"
_cell_formula_units_Z 96
_cell_length_a 16.740333
_cell_length_b 10.934836
_cell_length_c 22.386185
_cell_angle_alpha 90.000000
_cell_angle_beta 90.000000
_cell_angle_gamma 90.000000
_cell_volume 4097.853755
_symmetry_space_group_name_H-M "F D D 2"
_symmetry_group_IT_number 43
_symmetry_cell_setting 'orthorhombic'
loop_
_space_group_symop_operation_xyz
x,y,z
-x,-y,z
1/4-x,1/4+y,1/4+z
1/4+x,1/4-y,1/4+z
x,1/2+y,1/2+z
-x,1/2-y,1/2+z
1/4-x,3/4+y,3/4+z
1/4+x,3/4-y,3/4+z
1/2+x,y,1/2+z
1/2-x,-y,1/2+z
3/4-x,1/4+y,3/4+z
3/4+x,1/4-y,3/4+z
1/2+x,1/2+y,z
1/2-x,1/2-y,z
3/4-x,3/4+y,1/4+z
3/4+x,3/4-y,1/4+z
loop_
_atom_site_type_symbol
_atom_site_label
_atom_site_fract_x
_atom_site_fract_y
_atom_site_fract_z
Si Si1 0.702557 0.999065 0.348260
Si Si2 0.513766 0.139931 0.484466
Si Si3 0.194386 0.629943 0.938902
Si Si4 0.581156 0.786586 0.368031
Si Si5 0.342076 0.767344 0.407006
Si Si6 0.448434 0.625602 0.321761
O O1 0.755161 0.978921 0.289549
O O2 0.749960 0.971982 0.409340
O O3 0.637980 0.890260 0.342119
O O4 0.662976 0.129734 0.355073
O O5 0.456098 0.158296 0.428298
O O6 0.600336 0.178038 0.458032
O O7 0.500000 0.000000 0.504006
O O8 0.250000 0.750000 0.943729
O O9 0.129723 0.668640 0.890259
O O10 0.162657 0.611525 0.005359
O O11 0.512269 0.736534 0.326228
O O12 0.250000 0.750000 0.425746
O O13 0.386117 0.652001 0.375483
O O14 0.500000 0.500000 0.327632
#
# Coordination Sequence:
#
# PCOD9371579 Si02
#       6
#    16  16  16  16  16  16
#     4  11  24  41  70 102 132 173 233 281 347 400
#     4  11  23  45  71  98 138 179 228 285 341 416
#     4   9  21  38  65  99 126 166 222 277 328 399
#     4  10  22  42  68  97 128 179 230 276 334 410
#     4  11  27  46  66 103 140 182 225 288 346 406
#     4  10  24  44  69  96 136 179 223 278 341 410
#
# _framework density 23.426898999999999
#
# number of rings (size 3 to 8) (size 9 to 14) (size 15 to 20)
#    0.000    1.667    1.667    1.500    7.000    5.333 
#    6.000    0.000    0.000    0.000    0.000    0.000 
#    0.000    0.000    0.000    0.000    0.000    0.000 
#
# Total GULP energy -134119.386053 kJ/mol
# GULP energy per Si atom -5588.307752 kJ/mol
# Density = 2.337358 g / cm^3
# Si number density = 23.426899 Si / 1000 Ang^3
#
#
#
# Elastic Constant Matrix: (Units=GPa)
#
#
# Indices 1 2 3 4 5 6 
#
# 1 94.5675 13.8549 18.7214 0.0000 0.0000 0.0000
# 2 13.8549 89.0638 17.1091 0.0000 0.0000 0.0000
# 3 18.7214 17.1091 96.7950 0.0000 0.0000 0.0000
# 4 0.0000 0.0000 0.0000 13.6374 0.0000 0.0000
# 5 0.0000 0.0000 0.0000 0.0000 8.6466 0.0000
# 6 0.0000 0.0000 0.0000 0.0000 0.0000 37.4982
#
#
#
# Elastic Compliance Matrix: (Units=1/GPa)
#
#
# Indices 1 2 3 4 5 6 
#
# 1 0.011154 -0.001367 -0.001916 0.000000 0.000000 0.000000
# 2 -0.001367 0.011790 -0.001820 0.000000 0.000000 0.000000
# 3 -0.001916 -0.001820 0.011023 0.000000 0.000000 0.000000
# 4 0.000000 0.000000 0.000000 0.073328 0.000000 0.000000
# 5 0.000000 0.000000 0.000000 0.000000 0.115653 0.000000
# 6 0.000000 0.000000 0.000000 0.000000 0.000000 0.026668
#
#
# Mechanical properties :
#
#
# Convention : Reuss Voigt Hill
#
# Bulk Modulus (GPa) = 42.08287 42.19967 42.14127
# Shear Modulus (GPa) = 18.67473 27.33915 23.00694
#
# Velocity S-wave (km/s) = 2.82645 3.41984 3.13721
# Velocity P-wave (km/s) = 5.35296 5.80053 5.58124
#
# Compressibility (1/GPa) = 0.02376264
#
# Stress axis : x y z
#
# Youngs Moduli (GPa) = 89.65394 84.81684 90.71737
#
# Poissons Ratio (x) = 0.11596 0.17378
# Poissons Ratio (y) = 0.12257 0.16506
# Poissons Ratio (z) = 0.17175 0.15433
#
# Static dielectric constant tensor:
#      x y z
#    x 1.944730 0.000000 0.000000 
#    y 0.000000 1.949040 0.000000 
#    z 0.000000 0.000000 1.826370 
# 
# From -- ./inp_files/21059.got.cif
#   From: 2010.05.17/outbox.cif.g08.bks.cpg/sg43_11_cif.got.tgz:21059.got - 2010.06.03 19:21:55.
