data_PCOD9371386
_publ_section_title
;
Structure prediction by ZEFSAII (Michael W. Deem and Ramdas Pophale) SiO2 
 PCOD9371386
Probable space group: F D D 2
;
_chemical_formula_sum "Si O2"
_cell_formula_units_Z 72
_cell_length_a 18.409460
_cell_length_b 7.657750
_cell_length_c 29.081656
_cell_angle_alpha 90.000000
_cell_angle_beta 90.000000
_cell_angle_gamma 90.000000
_cell_volume 4099.787685
_symmetry_space_group_name_H-M "F D D 2"
_symmetry_group_IT_number 43
_symmetry_cell_setting 'orthorhombic'
loop_
_space_group_symop_operation_xyz
x,y,z
-x,-y,z
1/4-x,1/4+y,1/4+z
1/4+x,1/4-y,1/4+z
x,1/2+y,1/2+z
-x,1/2-y,1/2+z
1/4-x,3/4+y,3/4+z
1/4+x,3/4-y,3/4+z
1/2+x,y,1/2+z
1/2-x,-y,1/2+z
3/4-x,1/4+y,3/4+z
3/4+x,1/4-y,3/4+z
1/2+x,1/2+y,z
1/2-x,1/2-y,z
3/4-x,3/4+y,1/4+z
3/4+x,3/4-y,1/4+z
loop_
_atom_site_type_symbol
_atom_site_label
_atom_site_fract_x
_atom_site_fract_y
_atom_site_fract_z
Si Si1 0.167891 0.809091 0.882270
Si Si2 0.186424 0.110530 0.044218
Si Si3 0.920288 0.587305 0.191602
Si Si4 0.669426 0.721995 0.650517
Si Si5 0.250000 0.250000 0.560651
O O1 0.250000 0.750000 0.870725
O O2 0.119322 0.848323 0.836764
O O3 0.129115 0.643805 0.906746
O O4 0.169330 0.978072 0.915242
O O5 0.250000 0.250000 0.054750
O O6 0.225332 0.923324 0.035589
O O7 0.150696 0.152786 0.995441
O O8 0.866299 0.452021 0.168154
O O9 0.000000 0.500000 0.188921
O O10 0.750000 0.750000 0.670659
O O11 0.684955 0.702678 0.595891
#
# Coordination Sequence:
#
# PCOD9371386 Si02
#       5
#    16  16  16  16   8
#     4  11  22  40  61  87 122 157 196 253 304 352
#     4  10  22  38  62  87 117 158 209 240 301 368
#     4  11  22  37  63  90 119 157 202 249 302 358
#     4   9  20  39  60  84 115 158 199 240 299 355
#     4   8  18  36  60  80 114 152 196 242 288 352
#
# _framework density 17.561883999999999
#
# number of rings (size 3 to 8) (size 9 to 14) (size 15 to 20)
#    0.667    1.333    2.222    1.333    1.556    0.000 
#    4.000    1.111    0.000    0.000    0.000    0.000 
#    0.000    0.000    0.000    0.000    0.000    0.000 
#
# Total GULP energy -100270.113650 kJ/mol
# GULP energy per Si atom -5570.561869 kJ/mol
# Density = 1.752191 g / cm^3
# Si number density = 17.561884 Si / 1000 Ang^3
#
#
#
# Elastic Constant Matrix: (Units=GPa)
#
#
# Indices 1 2 3 4 5 6 
#
# 1 91.4875 47.1973 20.5790 0.0000 0.0000 0.0000
# 2 47.1973 111.7854 35.8969 0.0000 0.0000 0.0000
# 3 20.5790 35.8969 56.9828 0.0000 0.0000 0.0000
# 4 0.0000 0.0000 0.0000 -37.4649 0.0000 0.0000
# 5 0.0000 0.0000 0.0000 0.0000 -4.1391 0.0000
# 6 0.0000 0.0000 0.0000 0.0000 0.0000 39.1293
#
#
#
# Elastic Compliance Matrix: (Units=1/GPa)
#
#
# Indices 1 2 3 4 5 6 
#
# 1 0.014102 -0.005414 -0.001682 0.000000 0.000000 0.000000
# 2 -0.005414 0.013293 -0.006419 0.000000 0.000000 0.000000
# 3 -0.001682 -0.006419 0.022200 0.000000 0.000000 0.000000
# 4 0.000000 0.000000 0.000000 -0.026692 0.000000 0.000000
# 5 0.000000 0.000000 0.000000 0.000000 -0.241599 0.000000
# 6 0.000000 0.000000 0.000000 0.000000 0.000000 0.025556
#
#
# Mechanical properties :
#
#
# Convention : Reuss Voigt Hill
#
# Bulk Modulus (GPa) = 44.31616 51.95580 48.13598
# Shear Modulus (GPa) = -31.52819 9.94389 -10.79215
#
# Velocity S-wave (km/s) = -4.24165 2.38212 -2.48164
# Velocity P-wave (km/s) = 1.14029 6.10038 4.38833
#
# Compressibility (1/GPa) = 0.02256513
#
# Stress axis : x y z
#
# Youngs Moduli (GPa) = 70.91316 75.22954 45.04446
#
# Poissons Ratio (x) = 0.40727 0.07578
# Poissons Ratio (y) = 0.38390 0.28913
# Poissons Ratio (z) = 0.11930 0.48288
#
# Static dielectric constant tensor:
#      x y z
#    x 1.600860 0.000000 0.000000 
#    y 0.000000 1.596440 0.000000 
#    z 0.000000 0.000000 1.592520 
# 
# From -- ./inp_files/26206.got.cif
#   From: 2010.05.17/outbox.cif.g08.bks.cpg/sg43_14_cif.got.tgz:26206.got - 2010.06.03 19:21:55.
