data_PCOD9371247
_publ_section_title
;
Structure prediction by ZEFSAII (Michael W. Deem and Ramdas Pophale) SiO2 
 PCOD9371247
Probable space group: F D D 2
;
_chemical_formula_sum "Si O2"
_cell_formula_units_Z 72
_cell_length_a 16.614651
_cell_length_b 28.523509
_cell_length_c 7.957879
_cell_angle_alpha 90.000000
_cell_angle_beta 90.000000
_cell_angle_gamma 90.000000
_cell_volume 3771.303694
_symmetry_space_group_name_H-M "F D D 2"
_symmetry_group_IT_number 43
_symmetry_cell_setting 'orthorhombic'
loop_
_space_group_symop_operation_xyz
x,y,z
-x,-y,z
1/4-x,1/4+y,1/4+z
1/4+x,1/4-y,1/4+z
x,1/2+y,1/2+z
-x,1/2-y,1/2+z
1/4-x,3/4+y,3/4+z
1/4+x,3/4-y,3/4+z
1/2+x,y,1/2+z
1/2-x,-y,1/2+z
3/4-x,1/4+y,3/4+z
3/4+x,1/4-y,3/4+z
1/2+x,1/2+y,z
1/2-x,1/2-y,z
3/4-x,3/4+y,1/4+z
3/4+x,3/4-y,1/4+z
loop_
_atom_site_type_symbol
_atom_site_label
_atom_site_fract_x
_atom_site_fract_y
_atom_site_fract_z
Si Si1 0.900675 0.771259 0.967720
Si Si2 0.789695 0.666412 0.481435
Si Si3 0.372531 0.825882 0.788535
Si Si4 0.821865 0.974178 0.055591
Si Si5 0.000000 0.000000 0.483648
O O1 0.828430 0.757191 0.847956
O O2 0.981457 0.783367 0.867400
O O3 0.873442 0.813654 0.089925
O O4 0.920599 0.730432 0.104510
O O5 0.714542 0.660783 0.356774
O O6 0.815339 0.617694 0.564962
O O7 0.866440 0.686892 0.380866
O O8 0.764636 0.704949 0.617506
O O9 0.399793 0.776187 0.868051
#
# Coordination Sequence:
#
# PCOD9371247 Si02
#       5
#    16  16  16  16   8
#     4  10  22  40  64  93 128 168 220 256 332 371
#     4  12  22  43  68  90 136 165 220 265 330 381
#     4  10  24  40  63  98 124 170 216 266 321 392
#     4  10  21  42  65  89 129 171 209 270 317 386
#     4  12  22  40  68  94 130 178 208 272 324 390
#
# _framework density 19.091540999999999
#
# number of rings (size 3 to 8) (size 9 to 14) (size 15 to 20)
#    1.333    0.000    2.222    4.000    3.111    0.000 
#    4.000    2.222    0.000    0.000    0.000    0.000 
#    0.000    0.000    0.000    0.000    0.000    0.000 
#
# Total GULP energy -100394.813253 kJ/mol
# GULP energy per Si atom -5577.489625 kJ/mol
# Density = 1.904809 g / cm^3
# Si number density = 19.091541 Si / 1000 Ang^3
#
#
#
# Elastic Constant Matrix: (Units=GPa)
#
#
# Indices 1 2 3 4 5 6 
#
# 1 158.7101 6.2350 45.9094 0.0000 -0.0001 0.0000
# 2 6.2350 58.7339 -7.2129 0.0000 0.0000 0.0000
# 3 45.9094 -7.2129 78.3048 0.0001 -0.0002 0.0000
# 4 0.0000 0.0000 0.0001 12.0356 0.0000 0.0000
# 5 -0.0001 0.0000 -0.0002 0.0000 46.2643 0.0000
# 6 0.0000 0.0000 0.0000 0.0000 0.0000 37.3512
#
#
#
# Elastic Compliance Matrix: (Units=1/GPa)
#
#
# Indices 1 2 3 4 5 6 
#
# 1 0.007698 -0.001387 -0.004641 0.000000 0.000000 0.000000
# 2 -0.001387 0.017471 0.002423 0.000000 0.000000 0.000000
# 3 -0.004641 0.002423 0.015715 0.000000 0.000000 0.000000
# 4 0.000000 0.000000 0.000000 0.083087 0.000000 0.000000
# 5 0.000000 0.000000 0.000000 0.000000 0.021615 0.000000
# 6 0.000000 0.000000 0.000000 0.000000 0.000000 0.026773
#
#
# Mechanical properties :
#
#
# Convention : Reuss Voigt Hill
#
# Bulk Modulus (GPa) = 29.69808 42.84574 36.27191
# Shear Modulus (GPa) = 26.20643 35.85138 31.02891
#
# Velocity S-wave (km/s) = 3.70898 4.33814 4.03584
# Velocity P-wave (km/s) = 5.82507 6.89808 6.38416
#
# Compressibility (1/GPa) = 0.03367221
#
# Stress axis : x y z
#
# Youngs Moduli (GPa) = 129.90829 57.23870 63.63479
#
# Poissons Ratio (x) = 0.07940 0.29532
# Poissons Ratio (y) = 0.18020 -0.15416
# Poissons Ratio (z) = 0.60289 -0.13866
#
# Static dielectric constant tensor:
#      x y z
#    x 1.625460 0.000000 0.000000 
#    y 0.000000 1.675970 0.000000 
#    z 0.000000 0.000000 1.655760 
# 
# From -- ./inp_files/2335.got.cif
#   From: 2010.05.17/outbox.cif.g08.bks.cpg/sg43_2_cif.got.tgz:2335.got - 2010.06.03 19:21:55.
