data_PCOD9371461
_publ_section_title
;
Structure prediction by ZEFSAII (Michael W. Deem and Ramdas Pophale) SiO2 
 PCOD9371461
Probable space group: F D D 2
;
_chemical_formula_sum "Si O2"
_cell_formula_units_Z 112
_cell_length_a 26.245360
_cell_length_b 19.075813
_cell_length_c 10.107127
_cell_angle_alpha 90.000000
_cell_angle_beta 90.000000
_cell_angle_gamma 90.000000
_cell_volume 5060.149097
_symmetry_space_group_name_H-M "F D D 2"
_symmetry_group_IT_number 43
_symmetry_cell_setting 'orthorhombic'
loop_
_space_group_symop_operation_xyz
x,y,z
-x,-y,z
1/4-x,1/4+y,1/4+z
1/4+x,1/4-y,1/4+z
x,1/2+y,1/2+z
-x,1/2-y,1/2+z
1/4-x,3/4+y,3/4+z
1/4+x,3/4-y,3/4+z
1/2+x,y,1/2+z
1/2-x,-y,1/2+z
3/4-x,1/4+y,3/4+z
3/4+x,1/4-y,3/4+z
1/2+x,1/2+y,z
1/2-x,1/2-y,z
3/4-x,3/4+y,1/4+z
3/4+x,3/4-y,1/4+z
loop_
_atom_site_type_symbol
_atom_site_label
_atom_site_fract_x
_atom_site_fract_y
_atom_site_fract_z
Si Si1 0.470800 0.363939 0.658320
Si Si2 0.313544 0.969476 0.822894
Si Si3 0.500000 0.000000 0.551489
Si Si4 0.431584 0.882336 0.439958
Si Si5 0.750000 0.750000 0.764508
Si Si6 0.567315 0.014769 0.789647
Si Si7 0.928074 0.184101 0.788136
Si Si8 0.782524 0.079372 0.954737
O O1 0.457110 0.299410 0.563328
O O2 0.435563 0.358342 0.789080
O O3 0.471168 0.440395 0.595176
O O4 0.528703 0.352690 0.703555
O O5 0.374221 0.978220 0.828062
O O6 0.309878 0.921494 0.692097
O O7 0.277813 0.937446 0.938913
O O8 0.474055 0.942418 0.460394
O O9 0.453459 0.019823 0.652936
O O10 0.376980 0.911273 0.487181
O O11 0.447611 0.827053 0.552225
O O12 0.708415 0.722950 0.659507
O O13 0.546778 0.095096 0.765612
O O14 0.937458 0.267089 0.774326
#
# Coordination Sequence:
#
# PCOD9371461 Si02
#       8
#    16  16   8  16   8  16  16  16
#     4  11  26  43  66  98 138 178 223 287 335 411
#     4  11  22  45  69 100 135 179 227 279 345 401
#     4   9  19  36  66  96 125 169 222 276 316 405
#     4  11  22  41  63  99 127 174 220 271 341 389
#     4  11  25  48  62  98 141 173 228 280 340 403
#     4  10  22  44  68  97 135 180 225 277 337 409
#     4  11  23  42  69  93 135 172 226 276 339 399
#     4  10  22  40  67 100 131 175 222 280 326 410
#
# _framework density 22.133735999999999
#
# number of rings (size 3 to 8) (size 9 to 14) (size 15 to 20)
#    0.000    1.429    4.286    1.286    2.000    4.571 
#    7.714    0.000    0.000    0.000    0.000    0.000 
#    0.000    0.000    0.000    0.000    0.000    0.000 
#
# Total GULP energy -156104.320120 kJ/mol
# GULP energy per Si atom -5575.154290 kJ/mol
# Density = 2.208336 g / cm^3
# Si number density = 22.133736 Si / 1000 Ang^3
#
#
#
# Elastic Constant Matrix: (Units=GPa)
#
#
# Indices 1 2 3 4 5 6 
#
# 1 160.3117 11.8451 15.2958 0.0000 0.0000 0.0000
# 2 11.8451 43.1230 -0.6759 0.0000 0.0000 0.0000
# 3 15.2958 -0.6759 69.4384 0.0000 0.0000 0.0000
# 4 0.0000 0.0000 0.0000 18.5091 0.0000 0.0000
# 5 0.0000 0.0000 0.0000 0.0000 10.4414 0.0000
# 6 0.0000 0.0000 0.0000 0.0000 0.0000 19.5053
#
#
#
# Elastic Compliance Matrix: (Units=1/GPa)
#
#
# Indices 1 2 3 4 5 6 
#
# 1 0.006510 -0.001811 -0.001452 0.000000 0.000000 0.000000
# 2 -0.001811 0.023697 0.000630 0.000000 0.000000 0.000000
# 3 -0.001452 0.000630 0.014727 0.000000 0.000000 0.000000
# 4 0.000000 0.000000 0.000000 0.054028 0.000000 0.000000
# 5 0.000000 0.000000 0.000000 0.000000 0.095773 0.000000
# 6 0.000000 0.000000 0.000000 0.000000 0.000000 0.051268
#
#
# Mechanical properties :
#
#
# Convention : Reuss Voigt Hill
#
# Bulk Modulus (GPa) = 25.20924 36.20033 30.70479
# Shear Modulus (GPa) = 18.90421 26.11836 22.51129
#
# Velocity S-wave (km/s) = 2.92565 3.43888 3.19259
# Velocity P-wave (km/s) = 4.77774 5.67086 5.24335
#
# Compressibility (1/GPa) = 0.03966800
#
# Stress axis : x y z
#
# Youngs Moduli (GPa) = 153.60594 42.19978 67.90180
#
# Poissons Ratio (x) = 0.07642 0.09857
# Poissons Ratio (y) = 0.27818 -0.04275
# Poissons Ratio (z) = 0.22299 -0.02657
#
# Static dielectric constant tensor:
#      x y z
#    x 1.851450 0.000000 0.000000 
#    y 0.000000 1.830270 0.000000 
#    z 0.000000 0.000000 1.841200 
# 
# From -- ./inp_files/7598.got.cif
#   From: 2010.05.17/outbox.cif.g08.bks.cpg/sg43_4_cif.got.tgz:7598.got - 2010.06.03 19:21:55.
