data_PCOD9371742
_publ_section_title
;
Structure prediction by ZEFSAII (Michael W. Deem and Ramdas Pophale) SiO2 
 PCOD9371742
Probable space group: F D D 2
;
_chemical_formula_sum "Si O2"
_cell_formula_units_Z 96
_cell_length_a 10.009290
_cell_length_b 18.179460
_cell_length_c 19.836992
_cell_angle_alpha 90.000000
_cell_angle_beta 90.000000
_cell_angle_gamma 90.000000
_cell_volume 3609.608240
_symmetry_space_group_name_H-M "F D D 2"
_symmetry_group_IT_number 43
_symmetry_cell_setting 'orthorhombic'
loop_
_space_group_symop_operation_xyz
x,y,z
-x,-y,z
1/4-x,1/4+y,1/4+z
1/4+x,1/4-y,1/4+z
x,1/2+y,1/2+z
-x,1/2-y,1/2+z
1/4-x,3/4+y,3/4+z
1/4+x,3/4-y,3/4+z
1/2+x,y,1/2+z
1/2-x,-y,1/2+z
3/4-x,1/4+y,3/4+z
3/4+x,1/4-y,3/4+z
1/2+x,1/2+y,z
1/2-x,1/2-y,z
3/4-x,3/4+y,1/4+z
3/4+x,3/4-y,1/4+z
loop_
_atom_site_type_symbol
_atom_site_label
_atom_site_fract_x
_atom_site_fract_y
_atom_site_fract_z
Si Si1 0.774640 0.831967 0.625000
Si Si2 0.853736 0.467488 0.449605
Si Si3 0.273150 0.944142 0.307784
Si Si4 0.999063 0.412229 0.626806
Si Si5 0.630235 0.700422 0.775929
Si Si6 0.750847 0.087996 0.729060
O O1 0.750000 0.750000 0.595856
O O2 0.889102 0.854117 0.572035
O O3 0.646490 0.880171 0.641628
O O4 0.833208 0.816750 0.698369
O O5 0.761588 0.488935 0.513092
O O6 0.867820 0.647332 0.433351
O O7 0.000000 0.500000 0.456160
O O8 0.874267 0.378806 0.444579
O O9 0.385525 0.881893 0.303074
O O10 0.298033 0.989842 0.376464
O O11 0.264555 0.001703 0.246846
O O12 0.000000 0.500000 0.623467
O O13 0.987727 0.378146 0.551729
O O14 0.750000 0.750000 0.804528
#
# Coordination Sequence:
#
# PCOD9371742 Si02
#       6
#    16  16  16  16  16  16
#     4  10  22  45  74 108 154 220 268 341 435 512
#     4  11  27  49  75 110 160 216 279 356 434 513
#     4  11  25  49  78 113 166 223 277 361 451 527
#     4  12  28  47  80 126 169 225 301 362 436 542
#     4  10  25  45  74 108 150 210 273 340 428 519
#     4  12  28  48  80 122 165 226 291 367 443 531
#
# _framework density 26.595683000000001
#
# number of rings (size 3 to 8) (size 9 to 14) (size 15 to 20)
#    0.000    1.000    1.667    2.500   14.000    1.333 
#    6.000    0.000    0.000    0.000    0.000    0.000 
#    0.000    0.000    0.000    0.000    0.000    0.000 
#
# Total GULP energy -133951.353684 kJ/mol
# GULP energy per Si atom -5581.306404 kJ/mol
# Density = 2.653515 g / cm^3
# Si number density = 26.595683 Si / 1000 Ang^3
#
#
#
# Elastic Constant Matrix: (Units=GPa)
#
#
# Indices 1 2 3 4 5 6 
#
# 1 139.0531 50.8690 25.5768 0.0000 0.0000 0.0000
# 2 50.8690 138.4460 32.5233 0.0000 0.0000 0.0000
# 3 25.5768 32.5233 89.3356 0.0000 0.0000 0.0000
# 4 0.0000 0.0000 0.0000 38.3910 0.0000 0.0000
# 5 0.0000 0.0000 0.0000 0.0000 43.1091 0.0000
# 6 0.0000 0.0000 0.0000 0.0000 0.0000 35.2762
#
#
#
# Elastic Compliance Matrix: (Units=1/GPa)
#
#
# Indices 1 2 3 4 5 6 
#
# 1 0.008468 -0.002780 -0.001412 0.000000 0.000000 0.000000
# 2 -0.002780 0.008811 -0.002412 0.000000 0.000000 0.000000
# 3 -0.001412 -0.002412 0.012476 0.000000 0.000000 0.000000
# 4 0.000000 0.000000 0.000000 0.026048 0.000000 0.000000
# 5 0.000000 0.000000 0.000000 0.000000 0.023197 0.000000
# 6 0.000000 0.000000 0.000000 0.000000 0.000000 0.028348
#
#
# Mechanical properties :
#
#
# Convention : Reuss Voigt Hill
#
# Bulk Modulus (GPa) = 60.43277 64.97474 62.70376
# Shear Modulus (GPa) = 39.66005 40.54632 40.10319
#
# Velocity S-wave (km/s) = 3.86582 3.90878 3.88736
# Velocity P-wave (km/s) = 6.53439 6.69739 6.61639
#
# Compressibility (1/GPa) = 0.01654731
#
# Stress axis : x y z
#
# Youngs Moduli (GPa) = 118.08942 113.49531 80.15254
#
# Poissons Ratio (x) = 0.31547 0.11321
# Poissons Ratio (y) = 0.32824 0.19332
# Poissons Ratio (z) = 0.16680 0.27374
#
# Static dielectric constant tensor:
#      x y z
#    x 2.334180 0.000000 0.000000 
#    y 0.000000 2.208490 0.000000 
#    z 0.000000 0.000000 2.134420 
# 
# From -- ./inp_files/25063.got.cif
#   From: 2010.05.17/outbox.cif.g08.bks.cpg/sg43_13_cif.got.tgz:25063.got - 2010.06.03 19:21:55.
