data_PCOD9371695
_publ_section_title
;
Structure prediction by ZEFSAII (Michael W. Deem and Ramdas Pophale) SiO2 
 PCOD9371695
Probable space group: F D D 2
;
_chemical_formula_sum "Si O2"
_cell_formula_units_Z 88
_cell_length_a 7.928521
_cell_length_b 22.810954
_cell_length_c 18.466576
_cell_angle_alpha 90.000000
_cell_angle_beta 90.000000
_cell_angle_gamma 90.000000
_cell_volume 3339.811896
_symmetry_space_group_name_H-M "F D D 2"
_symmetry_group_IT_number 43
_symmetry_cell_setting 'orthorhombic'
loop_
_space_group_symop_operation_xyz
x,y,z
-x,-y,z
1/4-x,1/4+y,1/4+z
1/4+x,1/4-y,1/4+z
x,1/2+y,1/2+z
-x,1/2-y,1/2+z
1/4-x,3/4+y,3/4+z
1/4+x,3/4-y,3/4+z
1/2+x,y,1/2+z
1/2-x,-y,1/2+z
3/4-x,1/4+y,3/4+z
3/4+x,1/4-y,3/4+z
1/2+x,1/2+y,z
1/2-x,1/2-y,z
3/4-x,3/4+y,1/4+z
3/4+x,3/4-y,1/4+z
loop_
_atom_site_type_symbol
_atom_site_label
_atom_site_fract_x
_atom_site_fract_y
_atom_site_fract_z
Si Si1 0.910214 0.781440 0.358890
Si Si2 0.000000 0.000000 0.624099
Si Si3 0.935290 0.664475 0.589742
Si Si4 0.829170 0.552366 0.769644
Si Si5 0.002326 0.611755 0.233231
Si Si6 0.303281 0.990387 0.417367
O O1 0.750000 0.750000 0.326599
O O2 0.876702 0.849100 0.358453
O O3 0.925790 0.768058 0.444118
O O4 0.082983 0.758231 0.326677
O O5 0.986148 0.059429 0.672942
O O6 0.767989 0.684267 0.544675
O O7 0.107494 0.651628 0.543041
O O8 0.963531 0.695839 0.669176
O O9 0.692079 0.604367 0.763800
O O10 0.744541 0.513495 0.831795
O O11 0.987972 0.676893 0.199983
O O12 0.500000 0.000000 0.424890
#
# Coordination Sequence:
#
# PCOD9371695 Si02
#       6
#    16   8  16  16  16  16
#     4  11  25  42  72 100 142 194 247 308 377 468
#     4  10  22  44  72 102 134 196 246 310 376 444
#     4  12  26  46  73 111 151 201 255 315 404 467
#     4  11  23  45  74 103 138 198 253 318 375 459
#     4  11  25  47  76 108 152 195 262 322 385 473
#     4  12  26  47  78 112 154 207 258 327 401 481
#
# _framework density 26.348790999999999
#
# number of rings (size 3 to 8) (size 9 to 14) (size 15 to 20)
#    0.000    0.727    1.818    7.091    6.364    2.182 
#    0.000    0.000    8.000    0.000    0.000    0.000 
#    0.000    0.000    0.000    0.000    0.000    0.000 
#
# Total GULP energy -122979.368025 kJ/mol
# GULP energy per Si atom -5589.971274 kJ/mol
# Density = 2.628882 g / cm^3
# Si number density = 26.348791 Si / 1000 Ang^3
#
#
#
# Elastic Constant Matrix: (Units=GPa)
#
#
# Indices 1 2 3 4 5 6 
#
# 1 246.0723 74.1314 33.1324 0.0000 0.0000 0.0000
# 2 74.1314 104.4420 -2.7659 0.0000 0.0000 0.0000
# 3 33.1324 -2.7659 81.8987 0.0000 0.0000 0.0000
# 4 0.0000 0.0000 0.0000 12.1103 0.0000 0.0000
# 5 0.0000 0.0000 0.0000 0.0000 -27.2550 0.0000
# 6 0.0000 0.0000 0.0000 0.0000 0.0000 40.9397
#
#
#
# Elastic Compliance Matrix: (Units=1/GPa)
#
#
# Indices 1 2 3 4 5 6 
#
# 1 0.005605 -0.004042 -0.002404 0.000000 0.000000 0.000000
# 2 -0.004042 0.012498 0.002057 0.000000 0.000000 0.000000
# 3 -0.002404 0.002057 0.013252 0.000000 0.000000 0.000000
# 4 0.000000 0.000000 0.000000 0.082574 0.000000 0.000000
# 5 0.000000 0.000000 0.000000 0.000000 -0.036691 0.000000
# 6 0.000000 0.000000 0.000000 0.000000 0.000000 0.024426
#
#
# Mechanical properties :
#
#
# Convention : Reuss Voigt Hill
#
# Bulk Modulus (GPa) = 44.29109 71.26765 57.77937
# Shear Modulus (GPa) = 42.38369 27.02001 34.70185
#
# Velocity S-wave (km/s) = 4.01504 3.20578 3.63301
# Velocity P-wave (km/s) = 6.19194 6.38821 6.29084
#
# Compressibility (1/GPa) = 0.02257791
#
# Stress axis : x y z
#
# Youngs Moduli (GPa) = 178.40216 80.01086 75.45855
#
# Poissons Ratio (x) = 0.32342 0.18141
# Poissons Ratio (y) = 0.72114 -0.15525
# Poissons Ratio (z) = 0.42891 -0.16461
#
# Static dielectric constant tensor:
#      x y z
#    x 2.077860 0.000000 0.000000 
#    y 0.000000 -0.905320 0.000000 
#    z 0.000000 0.000000 2.150950 
# 
# From -- ./inp_files/20220.got.cif
#   From: 2010.05.17/outbox.cif.g08.bks.cpg/sg43_11_cif.got.tgz:20220.got - 2010.06.03 19:21:55.
