data_PCOD9371017
_publ_section_title
;
Structure prediction by ZEFSAII (Michael W. Deem and Ramdas Pophale) SiO2 
 PCOD9371017
Probable space group: F D D 2
;
_chemical_formula_sum "Si O2"
_cell_formula_units_Z 104
_cell_length_a 16.437217
_cell_length_b 19.877189
_cell_length_c 16.769524
_cell_angle_alpha 90.000000
_cell_angle_beta 90.000000
_cell_angle_gamma 90.000000
_cell_volume 5479.033947
_symmetry_space_group_name_H-M "F D D 2"
_symmetry_group_IT_number 43
_symmetry_cell_setting 'orthorhombic'
loop_
_space_group_symop_operation_xyz
x,y,z
-x,-y,z
1/4-x,1/4+y,1/4+z
1/4+x,1/4-y,1/4+z
x,1/2+y,1/2+z
-x,1/2-y,1/2+z
1/4-x,3/4+y,3/4+z
1/4+x,3/4-y,3/4+z
1/2+x,y,1/2+z
1/2-x,-y,1/2+z
3/4-x,1/4+y,3/4+z
3/4+x,1/4-y,3/4+z
1/2+x,1/2+y,z
1/2-x,1/2-y,z
3/4-x,3/4+y,1/4+z
3/4+x,3/4-y,1/4+z
loop_
_atom_site_type_symbol
_atom_site_label
_atom_site_fract_x
_atom_site_fract_y
_atom_site_fract_z
Si Si1 0.000007 0.113459 0.196640
Si Si2 0.861961 0.002740 0.929415
Si Si3 0.000000 0.000000 0.320962
Si Si4 0.011442 0.629616 0.191765
Si Si5 0.671477 0.341531 0.271181
Si Si6 0.000000 0.500000 0.294411
Si Si7 0.415699 0.554804 0.468309
Si Si8 0.750000 0.250000 0.812674
O O1 0.908698 0.132827 0.226415
O O2 0.999307 0.066338 0.118472
O O3 0.055214 0.179929 0.183779
O O4 0.028771 0.062008 0.266463
O O5 0.805783 0.936544 0.930617
O O6 0.921017 0.001785 0.006209
O O7 0.921508 0.998277 0.852857
O O8 0.072558 0.976995 0.379996
O O9 0.058643 0.616408 0.109047
O O10 0.984850 0.562868 0.236072
O O11 0.084562 0.659434 0.243413
O O12 0.756265 0.353101 0.224554
O O13 0.667241 0.260834 0.273517
#
# Coordination Sequence:
#
# PCOD9371017 Si02
#       8
#    16  16   8  16  16   8  16   8
#     4  11  21  40  67  92 127 170 211 263 318 374
#     4  11  25  44  65  92 128 171 216 260 324 385
#     4   9  20  36  58  93 122 158 206 263 300 364
#     4  12  22  42  66  90 126 169 208 262 323 376
#     4  10  21  36  62  94 124 162 207 257 313 373
#     4  11  26  44  64  93 130 166 216 267 314 392
#     4  10  21  37  58  92 130 155 206 264 306 376
#     4  10  26  42  64  94 130 170 214 268 316 384
#
# _framework density 18.981448
#
# number of rings (size 3 to 8) (size 9 to 14) (size 15 to 20)
#    0.000    1.538    3.077    2.769    4.308    0.000 
#    0.000    0.000    3.385    0.000    0.000    0.000 
#    0.000    0.000    0.000    0.000    0.000    0.000 
#
# Total GULP energy -144817.917369 kJ/mol
# GULP energy per Si atom -5569.919899 kJ/mol
# Density = 1.893825 g / cm^3
# Si number density = 18.981448 Si / 1000 Ang^3
#
#
#
# Elastic Constant Matrix: (Units=GPa)
#
#
# Indices 1 2 3 4 5 6 
#
# 1 127.3959 69.6539 44.5854 0.0000 0.0000 0.0000
# 2 69.6539 147.0898 65.4481 0.0000 0.0000 0.0000
# 3 44.5854 65.4481 74.6264 0.0000 0.0000 0.0000
# 4 0.0000 0.0000 0.0000 12.3244 0.0000 0.0000
# 5 0.0000 0.0000 0.0000 0.0000 14.0181 0.0000
# 6 0.0000 0.0000 0.0000 0.0000 0.0000 23.6636
#
#
#
# Elastic Compliance Matrix: (Units=1/GPa)
#
#
# Indices 1 2 3 4 5 6 
#
# 1 0.011068 -0.003770 -0.003306 0.000000 0.000000 0.000000
# 2 -0.003770 0.012434 -0.008652 0.000000 0.000000 0.000000
# 3 -0.003306 -0.008652 0.022963 0.000000 0.000000 0.000000
# 4 0.000000 0.000000 0.000000 0.081140 0.000000 0.000000
# 5 0.000000 0.000000 0.000000 0.000000 0.071336 0.000000
# 6 0.000000 0.000000 0.000000 0.000000 0.000000 0.042259
#
#
# Mechanical properties :
#
#
# Convention : Reuss Voigt Hill
#
# Bulk Modulus (GPa) = 66.62944 78.72075 72.67509
# Shear Modulus (GPa) = 18.00772 21.29621 19.65196
#
# Velocity S-wave (km/s) = 3.08344 3.35318 3.22114
# Velocity P-wave (km/s) = 6.91776 7.52026 7.22529
#
# Compressibility (1/GPa) = 0.01500838
#
# Stress axis : x y z
#
# Youngs Moduli (GPa) = 90.35128 80.42710 43.54801
#
# Poissons Ratio (x) = 0.30322 0.14397
# Poissons Ratio (y) = 0.34064 0.37678
# Poissons Ratio (z) = 0.29871 0.69585
#
# Static dielectric constant tensor:
#      x y z
#    x 1.732010 0.000000 0.000000 
#    y 0.000000 1.715370 0.000000 
#    z 0.000000 0.000000 1.716260 
# 
# From -- ./inp_files/14267.got.cif
#   From: 2010.05.17/outbox.cif.g08.bks.cpg/sg43_8_cif.got.tgz:14267.got - 2010.06.03 19:21:55.
