data_PCOD9371844
_publ_section_title
;
Structure prediction by ZEFSAII (Michael W. Deem and Ramdas Pophale) SiO2 
 PCOD9371844
Probable space group: F D D 2
;
_chemical_formula_sum "Si O2"
_cell_formula_units_Z 104
_cell_length_a 21.854953
_cell_length_b 12.637710
_cell_length_c 16.614392
_cell_angle_alpha 90.000000
_cell_angle_beta 90.000000
_cell_angle_gamma 90.000000
_cell_volume 4588.837885
_symmetry_space_group_name_H-M "F D D 2"
_symmetry_group_IT_number 43
_symmetry_cell_setting 'orthorhombic'
loop_
_space_group_symop_operation_xyz
x,y,z
-x,-y,z
1/4-x,1/4+y,1/4+z
1/4+x,1/4-y,1/4+z
x,1/2+y,1/2+z
-x,1/2-y,1/2+z
1/4-x,3/4+y,3/4+z
1/4+x,3/4-y,3/4+z
1/2+x,y,1/2+z
1/2-x,-y,1/2+z
3/4-x,1/4+y,3/4+z
3/4+x,1/4-y,3/4+z
1/2+x,1/2+y,z
1/2-x,1/2-y,z
3/4-x,3/4+y,1/4+z
3/4+x,3/4-y,1/4+z
loop_
_atom_site_type_symbol
_atom_site_label
_atom_site_fract_x
_atom_site_fract_y
_atom_site_fract_z
Si Si1 0.750000 0.250000 0.633471
Si Si2 0.500000 0.500000 0.431416
Si Si3 0.320138 0.073756 0.062691
Si Si4 0.216161 0.971461 0.952697
Si Si5 0.393686 0.131800 0.912759
Si Si6 0.750000 0.750000 0.390970
Si Si7 0.783508 0.069432 0.309419
Si Si8 0.582977 0.405392 0.010499
O O1 0.698262 0.308296 0.584662
O O2 0.716140 0.166759 0.689503
O O3 0.442610 0.544732 0.381833
O O4 0.483819 0.397638 0.486950
O O5 0.331685 0.998378 0.139807
O O6 0.376683 0.087137 0.001257
O O7 0.261068 0.027765 0.015763
O O8 0.241466 0.853951 0.941624
O O9 0.227479 0.028318 0.865721
O O10 0.147235 0.953450 0.982164
O O11 0.329118 0.131476 0.867688
O O12 0.692050 0.727557 0.333453
O O13 0.823915 0.966881 0.284604
#
# Coordination Sequence:
#
# PCOD9371844 Si02
#       8
#     8   8  16  16  16   8  16  16
#     4  11  26  45  66 101 135 176 236 276 351 426
#     4  12  24  42  74  94 148 184 232 298 348 426
#     4  11  26  46  69 107 136 183 235 289 355 425
#     4  10  24  40  71  96 136 180 229 283 355 415
#     4  11  25  45  71 102 142 181 235 295 352 425
#     4   9  22  43  62 103 133 176 230 278 347 416
#     4  10  24  44  64 107 129 186 235 283 358 416
#     4  10  23  42  68  94 140 175 228 286 343 414
#
# _framework density 22.663691
#
# number of rings (size 3 to 8) (size 9 to 14) (size 15 to 20)
#    0.000    1.538    1.538    0.923    8.615    4.923 
#    0.000    0.000    0.000    0.000    0.000    0.000 
#    0.000    0.000    0.000    0.000    0.000    0.000 
#
# Total GULP energy -145136.155676 kJ/mol
# GULP energy per Si atom -5582.159834 kJ/mol
# Density = 2.261211 g / cm^3
# Si number density = 22.663691 Si / 1000 Ang^3
#
#
#
# Elastic Constant Matrix: (Units=GPa)
#
#
# Indices 1 2 3 4 5 6 
#
# 1 99.7642 -2.7594 14.4053 0.0000 0.0000 0.0000
# 2 -2.7594 72.0563 15.2524 0.0000 0.0000 0.0000
# 3 14.4053 15.2524 36.3513 0.0000 0.0000 0.0000
# 4 0.0000 0.0000 0.0000 22.2864 0.0000 0.0000
# 5 0.0000 0.0000 0.0000 0.0000 11.4233 0.0000
# 6 0.0000 0.0000 0.0000 0.0000 0.0000 27.6187
#
#
#
# Elastic Compliance Matrix: (Units=1/GPa)
#
#
# Indices 1 2 3 4 5 6 
#
# 1 0.010767 0.001444 -0.004873 0.000000 0.000000 0.000000
# 2 0.001444 0.015424 -0.007044 0.000000 0.000000 0.000000
# 3 -0.004873 -0.007044 0.032396 0.000000 0.000000 0.000000
# 4 0.000000 0.000000 0.000000 0.044870 0.000000 0.000000
# 5 0.000000 0.000000 0.000000 0.000000 0.087540 0.000000
# 6 0.000000 0.000000 0.000000 0.000000 0.000000 0.036207
#
#
# Mechanical properties :
#
#
# Convention : Reuss Voigt Hill
#
# Bulk Modulus (GPa) = 26.56627 29.10760 27.83694
# Shear Modulus (GPa) = 19.17930 24.35058 21.76494
#
# Velocity S-wave (km/s) = 2.91220 3.28141 3.10230
# Velocity P-wave (km/s) = 4.80160 5.21805 5.01415
#
# Compressibility (1/GPa) = 0.03764171
#
# Stress axis : x y z
#
# Youngs Moduli (GPa) = 92.87527 64.83267 30.86825
#
# Poissons Ratio (x) = -0.09360 0.15041
# Poissons Ratio (y) = -0.13409 0.21743
# Poissons Ratio (z) = 0.45254 0.45668
#
# Static dielectric constant tensor:
#      x y z
#    x 1.804290 0.000000 0.000000 
#    y 0.000000 1.844910 0.000000 
#    z 0.000000 0.000000 1.914310 
# 
# From -- ./inp_files/13912.got.cif
#   From: 2010.05.17/outbox.cif.g08.bks.cpg/sg43_7_cif.got.tgz:13912.got - 2010.06.03 19:21:55.
