data_PCOD9371292
_publ_section_title
;
Structure prediction by ZEFSAII (Michael W. Deem and Ramdas Pophale) SiO2 
 PCOD9371292
Probable space group: F D D 2
;
_chemical_formula_sum "Si O2"
_cell_formula_units_Z 72
_cell_length_a 5.545801
_cell_length_b 26.876584
_cell_length_c 20.099978
_cell_angle_alpha 90.000000
_cell_angle_beta 90.000000
_cell_angle_gamma 90.000000
_cell_volume 2995.945668
_symmetry_space_group_name_H-M "F D D 2"
_symmetry_group_IT_number 43
_symmetry_cell_setting 'orthorhombic'
loop_
_space_group_symop_operation_xyz
x,y,z
-x,-y,z
1/4-x,1/4+y,1/4+z
1/4+x,1/4-y,1/4+z
x,1/2+y,1/2+z
-x,1/2-y,1/2+z
1/4-x,3/4+y,3/4+z
1/4+x,3/4-y,3/4+z
1/2+x,y,1/2+z
1/2-x,-y,1/2+z
3/4-x,1/4+y,3/4+z
3/4+x,1/4-y,3/4+z
1/2+x,1/2+y,z
1/2-x,1/2-y,z
3/4-x,3/4+y,1/4+z
3/4+x,3/4-y,1/4+z
loop_
_atom_site_type_symbol
_atom_site_label
_atom_site_fract_x
_atom_site_fract_y
_atom_site_fract_z
Si Si1 0.699014 0.098977 0.775690
Si Si2 0.542140 0.839764 0.665526
Si Si3 0.000000 0.000000 0.949910
Si Si4 0.080231 0.174819 0.781294
Si Si5 0.500000 0.000000 0.720024
Si Si6 0.500000 0.500000 0.640646
O O1 0.635153 0.123295 0.704697
O O2 0.593667 0.112258 0.848800
O O3 0.967839 0.119833 0.789873
O O4 0.602894 0.044192 0.764633
O O5 0.409616 0.786820 0.654800
O O6 0.729414 0.828743 0.723046
O O7 0.134617 0.037220 0.000468
O O8 0.184780 0.202420 0.845195
O O9 0.746925 0.987378 0.678689
#
# Coordination Sequence:
#
# PCOD9371292 Si02
#       6
#    16  16   8  16   8   8
#     4  11  29  49  73 116 160 207 270 331 413 482
#     4  11  25  46  78 108 155 205 267 335 407 488
#     4  10  21  43  70 116 143 209 262 328 396 485
#     4  11  24  46  80 109 152 212 262 329 398 497
#     4  12  31  49  78 119 168 213 268 346 400 493
#     4  12  26  50  84 117 163 216 278 332 416 476
#
# _framework density 24.03248
#
# number of rings (size 3 to 8) (size 9 to 14) (size 15 to 20)
#    0.000    0.889    2.222    2.000   12.444    4.444 
#    0.000    0.000    0.000    0.000    0.000    0.000 
#    0.000    0.000    0.000    0.000    0.000    0.000 
#
# Total GULP energy -100332.050874 kJ/mol
# GULP energy per Si atom -5574.002826 kJ/mol
# Density = 2.397778 g / cm^3
# Si number density = 24.032480 Si / 1000 Ang^3
#
#
#
# Elastic Constant Matrix: (Units=GPa)
#
#
# Indices 1 2 3 4 5 6 
#
# 1 102.0545 40.7964 38.1176 0.0000 0.0000 0.0000
# 2 40.7964 113.9670 38.7681 0.0000 0.0000 0.0000
# 3 38.1176 38.7681 143.7910 0.0000 0.0000 0.0000
# 4 0.0000 0.0000 0.0000 34.7568 0.0000 0.0000
# 5 0.0000 0.0000 0.0000 0.0000 11.7279 0.0000
# 6 0.0000 0.0000 0.0000 0.0000 0.0000 34.8899
#
#
#
# Elastic Compliance Matrix: (Units=1/GPa)
#
#
# Indices 1 2 3 4 5 6 
#
# 1 0.012055 -0.003554 -0.002237 0.000000 0.000000 0.000000
# 2 -0.003554 0.010708 -0.001945 0.000000 0.000000 0.000000
# 3 -0.002237 -0.001945 0.008072 0.000000 0.000000 0.000000
# 4 0.000000 0.000000 0.000000 0.028771 0.000000 0.000000
# 5 0.000000 0.000000 0.000000 0.000000 0.085267 0.000000
# 6 0.000000 0.000000 0.000000 0.000000 0.000000 0.028662
#
#
# Mechanical properties :
#
#
# Convention : Reuss Voigt Hill
#
# Bulk Modulus (GPa) = 65.09412 66.13074 65.61243
# Shear Modulus (GPa) = 25.75598 32.41694 29.08646
#
# Velocity S-wave (km/s) = 3.27726 3.67670 3.48271
# Velocity P-wave (km/s) = 6.43935 6.75286 6.59797
#
# Compressibility (1/GPa) = 0.01536237
#
# Stress axis : x y z
#
# Youngs Moduli (GPa) = 82.95177 93.38482 123.88435
#
# Poissons Ratio (x) = 0.33191 0.27718
# Poissons Ratio (y) = 0.29483 0.24095
# Poissons Ratio (z) = 0.18560 0.18163
#
# Static dielectric constant tensor:
#      x y z
#    x 2.083860 0.000000 0.000000 
#    y 0.000000 2.027800 0.000000 
#    z 0.000000 0.000000 1.931410 
# 
# From -- ./inp_files/15676.got.cif
#   From: 2010.05.17/outbox.cif.g08.bks.cpg/sg43_8_cif.got.tgz:15676.got - 2010.06.03 19:21:55.
