data_PCOD9371889
_publ_section_title
;
Structure prediction by ZEFSAII (Michael W. Deem and Ramdas Pophale) SiO2 
 PCOD9371889
Probable space group: F D D 2
;
_chemical_formula_sum "Si O2"
_cell_formula_units_Z 80
_cell_length_a 7.229387
_cell_length_b 27.370636
_cell_length_c 18.258370
_cell_angle_alpha 90.000000
_cell_angle_beta 90.000000
_cell_angle_gamma 90.000000
_cell_volume 3612.836988
_symmetry_space_group_name_H-M "F D D 2"
_symmetry_group_IT_number 43
_symmetry_cell_setting 'orthorhombic'
loop_
_space_group_symop_operation_xyz
x,y,z
-x,-y,z
1/4-x,1/4+y,1/4+z
1/4+x,1/4-y,1/4+z
x,1/2+y,1/2+z
-x,1/2-y,1/2+z
1/4-x,3/4+y,3/4+z
1/4+x,3/4-y,3/4+z
1/2+x,y,1/2+z
1/2-x,-y,1/2+z
3/4-x,1/4+y,3/4+z
3/4+x,1/4-y,3/4+z
1/2+x,1/2+y,z
1/2-x,1/2-y,z
3/4-x,3/4+y,1/4+z
3/4+x,3/4-y,1/4+z
loop_
_atom_site_type_symbol
_atom_site_label
_atom_site_fract_x
_atom_site_fract_y
_atom_site_fract_z
Si Si1 0.031333 0.157024 0.278900
Si Si2 0.300772 0.980642 0.151604
Si Si3 0.678535 0.702294 0.141671
Si Si4 0.655111 0.051638 0.769304
Si Si5 0.752282 0.921129 0.792945
O O1 0.047512 0.174530 0.196234
O O2 0.174652 0.110966 0.278760
O O3 0.052867 0.199691 0.338558
O O4 0.829648 0.133177 0.289385
O O5 0.336525 0.941157 0.217111
O O6 0.500000 0.000000 0.125468
O O7 0.193407 0.026287 0.190758
O O8 0.750000 0.750000 0.182942
O O9 0.558449 0.719842 0.072910
O O10 0.854844 0.675011 0.108695
O O11 0.441728 0.048383 0.795211
#
# Coordination Sequence:
#
# PCOD9371889 Si02
#       5
#    16  16  16  16  16
#     4  10  28  42  71 116 145 190 263 314 373 460
#     4  12  22  47  74 109 145 208 255 309 395 460
#     4  12  23  47  68 106 147 189 248 310 378 445
#     4  10  23  44  77  98 149 193 252 305 382 459
#     4  10  23  43  75  96 145 199 248 300 387 455
#
# _framework density 22.143263999999999
#
# number of rings (size 3 to 8) (size 9 to 14) (size 15 to 20)
#    1.200    0.000    4.000    1.800    2.800    1.600 
#    3.600    0.000    0.000    0.000    0.000    0.000 
#    0.000    0.000    0.000    0.000    0.000    0.000 
#
# Total GULP energy -111365.986863 kJ/mol
# GULP energy per Si atom -5568.299343 kJ/mol
# Density = 2.209287 g / cm^3
# Si number density = 22.143264 Si / 1000 Ang^3
#
#
#
# Elastic Constant Matrix: (Units=GPa)
#
#
# Indices 1 2 3 4 5 6 
#
# 1 95.9768 40.0333 30.7461 0.0000 0.0000 0.0000
# 2 40.0333 89.0348 53.1175 0.0000 0.0000 0.0000
# 3 30.7461 53.1175 108.3962 0.0000 0.0000 0.0000
# 4 0.0000 0.0000 0.0000 36.3665 0.0000 0.0000
# 5 0.0000 0.0000 0.0000 0.0000 15.9724 0.0000
# 6 0.0000 0.0000 0.0000 0.0000 0.0000 33.2666
#
#
#
# Elastic Compliance Matrix: (Units=1/GPa)
#
#
# Indices 1 2 3 4 5 6 
#
# 1 0.012926 -0.005122 -0.001156 0.000000 0.000000 0.000000
# 2 -0.005122 0.017901 -0.007319 0.000000 0.000000 0.000000
# 3 -0.001156 -0.007319 0.013140 0.000000 0.000000 0.000000
# 4 0.000000 0.000000 0.000000 0.027498 0.000000 0.000000
# 5 0.000000 0.000000 0.000000 0.000000 0.062608 0.000000
# 6 0.000000 0.000000 0.000000 0.000000 0.000000 0.030060
#
#
# Mechanical properties :
#
#
# Convention : Reuss Voigt Hill
#
# Bulk Modulus (GPa) = 59.62394 60.13353 59.87874
# Shear Modulus (GPa) = 25.39099 28.42182 26.90640
#
# Velocity S-wave (km/s) = 3.38992 3.58654 3.48962
# Velocity P-wave (km/s) = 6.50438 6.66082 6.58307
#
# Compressibility (1/GPa) = 0.01677179
#
# Stress axis : x y z
#
# Youngs Moduli (GPa) = 77.36241 55.86179 76.10270
#
# Poissons Ratio (x) = 0.28613 0.08801
# Poissons Ratio (y) = 0.39626 0.55702
# Poissons Ratio (z) = 0.08947 0.40887
#
# Static dielectric constant tensor:
#      x y z
#    x 1.829980 0.000000 0.000000 
#    y 0.000000 2.003260 0.000000 
#    z 0.000000 0.000000 1.777660 
# 
# From -- ./inp_files/12738.got.cif
#   From: 2010.05.17/outbox.cif.g08.bks.cpg/sg43_7_cif.got.tgz:12738.got - 2010.06.03 19:21:55.
