data_PCOD9371435
_publ_section_title
;
Structure prediction by ZEFSAII (Michael W. Deem and Ramdas Pophale) SiO2 
 PCOD9371435
Probable space group: F D D 2
;
_chemical_formula_sum "Si O2"
_cell_formula_units_Z 64
_cell_length_a 4.932106
_cell_length_b 30.762664
_cell_length_c 17.402693
_cell_angle_alpha 90.000000
_cell_angle_beta 90.000000
_cell_angle_gamma 90.000000
_cell_volume 2640.418717
_symmetry_space_group_name_H-M "F D D 2"
_symmetry_group_IT_number 43
_symmetry_cell_setting 'orthorhombic'
loop_
_space_group_symop_operation_xyz
x,y,z
-x,-y,z
1/4-x,1/4+y,1/4+z
1/4+x,1/4-y,1/4+z
x,1/2+y,1/2+z
-x,1/2-y,1/2+z
1/4-x,3/4+y,3/4+z
1/4+x,3/4-y,3/4+z
1/2+x,y,1/2+z
1/2-x,-y,1/2+z
3/4-x,1/4+y,3/4+z
3/4+x,1/4-y,3/4+z
1/2+x,1/2+y,z
1/2-x,1/2-y,z
3/4-x,3/4+y,1/4+z
3/4+x,3/4-y,1/4+z
loop_
_atom_site_type_symbol
_atom_site_label
_atom_site_fract_x
_atom_site_fract_y
_atom_site_fract_z
Si Si1 0.750000 0.750000 0.619500
Si Si2 0.619112 0.093512 0.858520
Si Si3 0.500000 0.000000 0.482029
Si Si4 0.269030 0.470535 0.129519
Si Si5 0.092786 0.125751 0.948175
O O1 0.748464 0.797161 0.579960
O O2 0.499471 0.754391 0.676365
O O3 0.394877 0.113673 0.917360
O O4 0.726714 0.119930 0.784595
O O5 0.895353 0.091778 0.906831
O O6 0.397304 0.964452 0.544493
O O7 0.500000 0.500000 0.170025
O O8 0.205105 0.424628 0.166051
O O9 0.000000 0.500000 0.123473
#
# Coordination Sequence:
#
# PCOD9371435 Si02
#       5
#     8  16   8  16  16
#     4  12  26  45  72 107 150 196 250 314 388 453
#     4  12  30  48  78 107 160 195 263 317 396 457
#     4  10  22  39  74 103 142 194 244 302 376 469
#     4  10  22  40  72 104 145 192 245 301 376 461
#     4  12  28  48  75 112 153 200 256 323 390 457
#
# _framework density 24.238582000000001
#
# number of rings (size 3 to 8) (size 9 to 14) (size 15 to 20)
#    0.750    0.000    1.250    4.500   12.250    0.000 
#    2.250    0.000    0.000    0.000    0.000    0.000 
#    0.000    0.000    0.000    0.000    0.000    0.000 
#
# Total GULP energy -89221.077567 kJ/mol
# GULP energy per Si atom -5576.317348 kJ/mol
# Density = 2.418341 g / cm^3
# Si number density = 24.238582 Si / 1000 Ang^3
#
#
#
# Elastic Constant Matrix: (Units=GPa)
#
#
# Indices 1 2 3 4 5 6 
#
# 1 177.0179 19.2867 36.9064 0.0000 0.0000 0.0000
# 2 19.2867 131.0716 22.7872 0.0000 0.0000 0.0000
# 3 36.9064 22.7872 85.0615 0.0000 0.0000 0.0000
# 4 0.0000 0.0000 0.0000 27.3305 0.0000 0.0000
# 5 0.0000 0.0000 0.0000 0.0000 18.5042 0.0000
# 6 0.0000 0.0000 0.0000 0.0000 0.0000 29.9635
#
#
#
# Elastic Compliance Matrix: (Units=1/GPa)
#
#
# Indices 1 2 3 4 5 6 
#
# 1 0.006238 -0.000469 -0.002581 0.000000 0.000000 0.000000
# 2 -0.000469 0.008037 -0.001950 0.000000 0.000000 0.000000
# 3 -0.002581 -0.001950 0.013398 0.000000 0.000000 0.000000
# 4 0.000000 0.000000 0.000000 0.036589 0.000000 0.000000
# 5 0.000000 0.000000 0.000000 0.000000 0.054042 0.000000
# 6 0.000000 0.000000 0.000000 0.000000 0.000000 0.033374
#
#
# Mechanical properties :
#
#
# Convention : Reuss Voigt Hill
#
# Bulk Modulus (GPa) = 56.57865 61.23463 58.90664
# Shear Modulus (GPa) = 29.83827 36.10436 32.97132
#
# Velocity S-wave (km/s) = 3.51240 3.86364 3.69220
# Velocity P-wave (km/s) = 6.31208 6.72472 6.52166
#
# Compressibility (1/GPa) = 0.01767451
#
# Stress axis : x y z
#
# Youngs Moduli (GPa) = 160.29797 124.41833 74.63624
#
# Poissons Ratio (x) = 0.05838 0.19264
# Poissons Ratio (y) = 0.07522 0.14551
# Poissons Ratio (z) = 0.41373 0.24256
#
# Static dielectric constant tensor:
#      x y z
#    x 1.848170 0.000000 0.000000 
#    y 0.000000 2.065350 0.000000 
#    z 0.000000 0.000000 2.094930 
# 
# From -- ./inp_files/12169.got.cif
#   From: 2010.05.17/outbox.cif.g08.bks.cpg/sg43_7_cif.got.tgz:12169.got - 2010.06.03 19:21:55.
