data_PCOD9371912
_publ_section_title
;
Structure prediction by ZEFSAII (Michael W. Deem and Ramdas Pophale) SiO2 
 PCOD9371912
Probable space group: F D D 2
;
_chemical_formula_sum "Si O2"
_cell_formula_units_Z 104
_cell_length_a 20.651172
_cell_length_b 9.128290
_cell_length_c 26.882660
_cell_angle_alpha 90.000000
_cell_angle_beta 90.000000
_cell_angle_gamma 90.000000
_cell_volume 5067.647195
_symmetry_space_group_name_H-M "F D D 2"
_symmetry_group_IT_number 43
_symmetry_cell_setting 'orthorhombic'
loop_
_space_group_symop_operation_xyz
x,y,z
-x,-y,z
1/4-x,1/4+y,1/4+z
1/4+x,1/4-y,1/4+z
x,1/2+y,1/2+z
-x,1/2-y,1/2+z
1/4-x,3/4+y,3/4+z
1/4+x,3/4-y,3/4+z
1/2+x,y,1/2+z
1/2-x,-y,1/2+z
3/4-x,1/4+y,3/4+z
3/4+x,1/4-y,3/4+z
1/2+x,1/2+y,z
1/2-x,1/2-y,z
3/4-x,3/4+y,1/4+z
3/4+x,3/4-y,1/4+z
loop_
_atom_site_type_symbol
_atom_site_label
_atom_site_fract_x
_atom_site_fract_y
_atom_site_fract_z
Si Si1 0.060425 0.607691 0.130000
Si Si2 0.046491 0.140604 0.744414
Si Si3 0.912716 0.713470 0.533747
Si Si4 0.320317 0.772970 0.243937
Si Si5 0.721629 0.908926 0.567944
Si Si6 0.750000 0.250000 0.719428
Si Si7 0.198213 0.001423 0.655506
O O1 0.055798 0.672401 0.185828
O O2 0.060910 0.724368 0.086014
O O3 0.129577 0.522766 0.127743
O O4 0.000000 0.500000 0.126414
O O5 0.120498 0.127410 0.764341
O O6 0.011142 0.267506 0.773739
O O7 0.000000 0.000000 0.749545
O O8 0.900911 0.857894 0.498820
O O9 0.850544 0.618672 0.549494
O O10 0.961232 0.612303 0.503680
O O11 0.250000 0.750000 0.268855
O O12 0.301148 0.860292 0.193530
O O13 0.750000 0.750000 0.578960
O O14 0.740940 0.996047 0.617896
O O15 0.703069 0.351265 0.686040
#
# Coordination Sequence:
#
# PCOD9371912 Si02
#       7
#    16  16  16  16  16   8  16
#     4  10  23  44  71  98 133 188 231 283 357 432
#     4  10  24  42  69 102 138 183 237 297 358 419
#     4  12  26  44  71 104 139 183 240 292 359 425
#     4  11  21  41  72  94 138 191 231 285 359 435
#     4  12  24  45  70 104 135 187 242 288 350 434
#     4  12  30  46  68 114 142 186 236 310 356 426
#     4  11  25  47  71 101 142 190 237 286 365 432
#
# _framework density 20.522345000000001
#
# number of rings (size 3 to 8) (size 9 to 14) (size 15 to 20)
#    0.000    0.923    4.615    0.923    9.692    0.000 
#    4.154    0.000    0.000    0.000    0.000    0.000 
#    0.000    0.000    0.000    0.000    0.000    0.000 
#
# Total GULP energy -144945.163975 kJ/mol
# GULP energy per Si atom -5574.813999 kJ/mol
# Density = 2.047564 g / cm^3
# Si number density = 20.522345 Si / 1000 Ang^3
#
#
#
# Elastic Constant Matrix: (Units=GPa)
#
#
# Indices 1 2 3 4 5 6 
#
# 1 112.0657 40.8727 21.3459 0.0000 0.0000 0.0000
# 2 40.8727 82.2387 43.5446 0.0000 0.0000 0.0000
# 3 21.3459 43.5446 105.7649 0.0000 0.0000 0.0000
# 4 0.0000 0.0000 0.0000 34.7662 0.0000 0.0000
# 5 0.0000 0.0000 0.0000 0.0000 18.5959 0.0000
# 6 0.0000 0.0000 0.0000 0.0000 0.0000 37.0253
#
#
#
# Elastic Compliance Matrix: (Units=1/GPa)
#
#
# Indices 1 2 3 4 5 6 
#
# 1 0.010899 -0.005437 0.000039 0.000000 0.000000 0.000000
# 2 -0.005437 0.018262 -0.006421 0.000000 0.000000 0.000000
# 3 0.000039 -0.006421 0.012091 0.000000 0.000000 0.000000
# 4 0.000000 0.000000 0.000000 0.028764 0.000000 0.000000
# 5 0.000000 0.000000 0.000000 0.000000 0.053775 0.000000
# 6 0.000000 0.000000 0.000000 0.000000 0.000000 0.027009
#
#
# Mechanical properties :
#
#
# Convention : Reuss Voigt Hill
#
# Bulk Modulus (GPa) = 56.77825 56.84398 56.81112
# Shear Modulus (GPa) = 27.73000 31.03120 29.38060
#
# Velocity S-wave (km/s) = 3.67987 3.89275 3.78781
# Velocity P-wave (km/s) = 6.76623 6.92556 6.84636
#
# Compressibility (1/GPa) = 0.01761238
#
# Stress axis : x y z
#
# Youngs Moduli (GPa) = 91.75084 54.75791 82.70743
#
# Poissons Ratio (x) = 0.29775 -0.00322
# Poissons Ratio (y) = 0.49889 0.53109
# Poissons Ratio (z) = -0.00358 0.35162
#
# Static dielectric constant tensor:
#      x y z
#    x 1.782790 0.000000 0.000000 
#    y 0.000000 1.718200 0.000000 
#    z 0.000000 0.000000 1.758990 
# 
# From -- ./inp_files/26366.got.cif
#   From: 2010.05.17/outbox.cif.g08.bks.cpg/sg43_14_cif.got.tgz:26366.got - 2010.06.03 19:21:55.
