data_PCOD9371578
_publ_section_title
;
Structure prediction by ZEFSAII (Michael W. Deem and Ramdas Pophale) SiO2 
 PCOD9371578
Probable space group: F D D 2
;
_chemical_formula_sum "Si O2"
_cell_formula_units_Z 80
_cell_length_a 25.996009
_cell_length_b 17.769288
_cell_length_c 7.417681
_cell_angle_alpha 90.000000
_cell_angle_beta 90.000000
_cell_angle_gamma 90.000000
_cell_volume 3426.453618
_symmetry_space_group_name_H-M "F D D 2"
_symmetry_group_IT_number 43
_symmetry_cell_setting 'orthorhombic'
loop_
_space_group_symop_operation_xyz
x,y,z
-x,-y,z
1/4-x,1/4+y,1/4+z
1/4+x,1/4-y,1/4+z
x,1/2+y,1/2+z
-x,1/2-y,1/2+z
1/4-x,3/4+y,3/4+z
1/4+x,3/4-y,3/4+z
1/2+x,y,1/2+z
1/2-x,-y,1/2+z
3/4-x,1/4+y,3/4+z
3/4+x,1/4-y,3/4+z
1/2+x,1/2+y,z
1/2-x,1/2-y,z
3/4-x,3/4+y,1/4+z
3/4+x,3/4-y,1/4+z
loop_
_atom_site_type_symbol
_atom_site_label
_atom_site_fract_x
_atom_site_fract_y
_atom_site_fract_z
Si Si1 0.740060 0.127429 0.496560
Si Si2 0.344554 0.924025 0.039326
Si Si3 0.771289 0.996114 0.275059
Si Si4 0.581429 0.509077 0.814392
Si Si5 0.885592 0.506888 0.715587
O O1 0.740707 0.070283 0.330031
O O2 0.688053 0.175084 0.518363
O O3 0.787382 0.184876 0.492435
O O4 0.749296 0.075773 0.671237
O O5 0.342772 0.834340 0.048174
O O6 0.292704 0.961428 0.964404
O O7 0.383762 0.944465 0.872191
O O8 0.367563 0.965944 0.211257
O O9 0.824641 0.018789 0.175585
O O10 0.587122 0.513701 0.029841
#
# Coordination Sequence:
#
# PCOD9371578 Si02
#       5
#    16  16  16  16  16
#     4  11  24  42  64 103 130 174 210 291 332 378
#     4  10  22  42  68  97 124 177 221 261 316 418
#     4  10  24  41  64  96 136 162 226 262 342 379
#     4  11  22  45  72  91 136 172 226 267 334 383
#     4  10  22  42  68  97 124 177 221 261 316 418
#
# _framework density 23.347754999999999
#
# number of rings (size 3 to 8) (size 9 to 14) (size 15 to 20)
#    1.200    0.400    4.000    0.000    0.000   11.200 
#    0.000    2.000    0.000    0.000    0.000    0.000 
#    0.000    0.000    0.000    0.000    0.000    0.000 
#
# Total GULP energy -111699.983228 kJ/mol
# GULP energy per Si atom -5584.999161 kJ/mol
# Density = 2.329461 g / cm^3
# Si number density = 23.347755 Si / 1000 Ang^3
#
#
#
# Elastic Constant Matrix: (Units=GPa)
#
#
# Indices 1 2 3 4 5 6 
#
# 1 36.4708 8.4920 -2.4851 0.0000 0.0000 0.0000
# 2 8.4920 95.0587 30.6381 -0.0001 0.0000 0.0000
# 3 -2.4851 30.6381 85.0117 -0.0006 0.0000 0.0000
# 4 0.0000 -0.0001 -0.0006 44.6452 0.0000 0.0000
# 5 0.0000 0.0000 0.0000 0.0000 31.8113 0.0000
# 6 0.0000 0.0000 0.0000 0.0000 0.0000 22.8076
#
#
#
# Elastic Compliance Matrix: (Units=1/GPa)
#
#
# Indices 1 2 3 4 5 6 
#
# 1 0.028289 -0.003161 0.001966 0.000000 0.000000 0.000000
# 2 -0.003161 0.012256 -0.004509 0.000000 0.000000 0.000000
# 3 0.001966 -0.004509 0.013446 0.000000 0.000000 0.000000
# 4 0.000000 0.000000 0.000000 0.022399 0.000000 0.000000
# 5 0.000000 0.000000 0.000000 0.000000 0.031435 0.000000
# 6 0.000000 0.000000 0.000000 0.000000 0.000000 0.043845
#
#
# Mechanical properties :
#
#
# Convention : Reuss Voigt Hill
#
# Bulk Modulus (GPa) = 23.48392 32.20347 27.84370
# Shear Modulus (GPa) = 28.20527 31.84591 30.02559
#
# Velocity S-wave (km/s) = 3.47947 3.69722 3.59000
# Velocity P-wave (km/s) = 5.12079 5.66117 5.39774
#
# Compressibility (1/GPa) = 0.04258233
#
# Stress axis : x y z
#
# Youngs Moduli (GPa) = 35.34922 81.59561 74.37325
#
# Poissons Ratio (x) = 0.25792 -0.14623
# Poissons Ratio (y) = 0.11174 0.33537
# Poissons Ratio (z) = -0.06950 0.36794
#
# Static dielectric constant tensor:
#      x y z
#    x 1.932060 0.000000 0.000000 
#    y 0.000000 1.847920 0.000000 
#    z 0.000000 0.000000 1.936960 
# 
# From -- ./inp_files/4145.got.cif
#   From: 2010.05.17/outbox.cif.g08.bks.cpg/sg43_3_cif.got.tgz:4145.got - 2010.06.03 19:21:55.
