data_PCOD9371824
_publ_section_title
;
Structure prediction by ZEFSAII (Michael W. Deem and Ramdas Pophale) SiO2 
 PCOD9371824
Probable space group: F D D 2
;
_chemical_formula_sum "Si O2"
_cell_formula_units_Z 120
_cell_length_a 12.819879
_cell_length_b 21.998004
_cell_length_c 18.436257
_cell_angle_alpha 90.000000
_cell_angle_beta 90.000000
_cell_angle_gamma 90.000000
_cell_volume 5199.241091
_symmetry_space_group_name_H-M "F D D 2"
_symmetry_group_IT_number 43
_symmetry_cell_setting 'orthorhombic'
loop_
_space_group_symop_operation_xyz
x,y,z
-x,-y,z
1/4-x,1/4+y,1/4+z
1/4+x,1/4-y,1/4+z
x,1/2+y,1/2+z
-x,1/2-y,1/2+z
1/4-x,3/4+y,3/4+z
1/4+x,3/4-y,3/4+z
1/2+x,y,1/2+z
1/2-x,-y,1/2+z
3/4-x,1/4+y,3/4+z
3/4+x,1/4-y,3/4+z
1/2+x,1/2+y,z
1/2-x,1/2-y,z
3/4-x,3/4+y,1/4+z
3/4+x,3/4-y,1/4+z
loop_
_atom_site_type_symbol
_atom_site_label
_atom_site_fract_x
_atom_site_fract_y
_atom_site_fract_z
Si Si1 0.622397 0.384648 0.442870
Si Si2 0.187333 0.462682 0.070424
Si Si3 0.717627 0.076574 0.960224
Si Si4 0.750000 0.250000 0.854086
Si Si5 0.080706 0.690470 0.957228
Si Si6 0.131675 0.247677 0.588531
Si Si7 0.930661 0.052210 0.715845
Si Si8 0.642460 0.867285 0.340481
O O1 0.613957 0.421196 0.518933
O O2 0.524206 0.341247 0.431374
O O3 0.624798 0.437506 0.385372
O O4 0.732954 0.351172 0.440799
O O5 0.126983 0.474206 0.145242
O O6 0.281797 0.417445 0.091768
O O7 0.221506 0.522166 0.020940
O O8 0.654721 0.135679 0.986526
O O9 0.819615 0.102939 0.917090
O O10 0.649342 0.050959 0.892630
O O11 0.849711 0.271914 0.900837
O O12 0.718907 0.312413 0.816233
O O13 0.057056 0.737435 0.021087
O O14 0.250000 0.250000 0.560853
O O15 0.862169 0.083912 0.776881
O O16 0.000000 0.000000 0.752157
#
# Coordination Sequence:
#
# PCOD9371824 Si02
#       8
#    16  16  16   8  16  16  16  16
#     4  10  23  41  65  99 138 182 229 297 365 424
#     4  10  24  45  73 103 140 189 241 299 365 441
#     4  10  24  44  71 102 142 183 238 296 358 432
#     4  10  24  42  68  94 140 194 246 292 368 436
#     4  11  22  39  66 100 135 180 236 298 351 433
#     4  11  21  38  64  98 133 173 227 292 358 417
#     4  11  26  44  70 107 142 190 243 299 374 440
#     4  10  25  49  65 105 145 196 247 297 371 441
#
# _framework density 23.080292
#
# number of rings (size 3 to 8) (size 9 to 14) (size 15 to 20)
#    0.000    1.600    2.000    0.800    7.467    1.067 
#    4.800    0.000    0.000    0.000    0.000    0.000 
#    0.000    0.000    0.000    0.000    0.000    0.000 
#
# Total GULP energy -167507.154994 kJ/mol
# GULP energy per Si atom -5583.571833 kJ/mol
# Density = 2.302776 g / cm^3
# Si number density = 23.080292 Si / 1000 Ang^3
#
#
#
# Elastic Constant Matrix: (Units=GPa)
#
#
# Indices 1 2 3 4 5 6 
#
# 1 76.3975 48.5248 35.9780 0.0000 0.0000 0.0000
# 2 48.5248 144.2622 51.3632 0.0000 0.0000 0.0000
# 3 35.9780 51.3632 77.1938 0.0000 0.0000 0.0000
# 4 0.0000 0.0000 0.0000 42.4103 0.0000 0.0000
# 5 0.0000 0.0000 0.0000 0.0000 20.8662 0.0000
# 6 0.0000 0.0000 0.0000 0.0000 0.0000 48.4505
#
#
#
# Elastic Compliance Matrix: (Units=1/GPa)
#
#
# Indices 1 2 3 4 5 6 
#
# 1 0.018471 -0.004125 -0.005864 0.000000 0.000000 0.000000
# 2 -0.004125 0.010005 -0.004735 0.000000 0.000000 0.000000
# 3 -0.005864 -0.004735 0.018838 0.000000 0.000000 0.000000
# 4 0.000000 0.000000 0.000000 0.023579 0.000000 0.000000
# 5 0.000000 0.000000 0.000000 0.000000 0.047924 0.000000
# 6 0.000000 0.000000 0.000000 0.000000 0.000000 0.020640
#
#
# Mechanical properties :
#
#
# Convention : Reuss Voigt Hill
#
# Bulk Modulus (GPa) = 55.97110 63.28727 59.62918
# Shear Modulus (GPa) = 28.59423 33.14457 30.86940
#
# Velocity S-wave (km/s) = 3.52362 3.79364 3.66112
# Velocity P-wave (km/s) = 6.39201 6.83147 6.61539
#
# Compressibility (1/GPa) = 0.01786636
#
# Stress axis : x y z
#
# Youngs Moduli (GPa) = 54.13835 99.94920 53.08477
#
# Poissons Ratio (x) = 0.41231 0.31130
# Poissons Ratio (y) = 0.22333 0.25133
# Poissons Ratio (z) = 0.31747 0.47321
#
# Static dielectric constant tensor:
#      x y z
#    x 2.003970 0.000000 0.000000 
#    y 0.000000 1.710720 0.000000 
#    z 0.000000 0.000000 1.872100 
# 
# From -- ./inp_files/17288.got.cif
#   From: 2010.05.17/outbox.cif.g08.bks.cpg/sg43_9_cif.got.tgz:17288.got - 2010.06.03 19:21:55.
