data_PCOD9371048
_publ_section_title
;
Structure prediction by ZEFSAII (Michael W. Deem and Ramdas Pophale) SiO2 
 PCOD9371048
Probable space group: F D D 2
;
_chemical_formula_sum "Si O2"
_cell_formula_units_Z 112
_cell_length_a 14.295720
_cell_length_b 23.586328
_cell_length_c 14.995752
_cell_angle_alpha 90.000000
_cell_angle_beta 90.000000
_cell_angle_gamma 90.000000
_cell_volume 5056.320758
_symmetry_space_group_name_H-M "F D D 2"
_symmetry_group_IT_number 43
_symmetry_cell_setting 'orthorhombic'
loop_
_space_group_symop_operation_xyz
x,y,z
-x,-y,z
1/4-x,1/4+y,1/4+z
1/4+x,1/4-y,1/4+z
x,1/2+y,1/2+z
-x,1/2-y,1/2+z
1/4-x,3/4+y,3/4+z
1/4+x,3/4-y,3/4+z
1/2+x,y,1/2+z
1/2-x,-y,1/2+z
3/4-x,1/4+y,3/4+z
3/4+x,1/4-y,3/4+z
1/2+x,1/2+y,z
1/2-x,1/2-y,z
3/4-x,3/4+y,1/4+z
3/4+x,3/4-y,1/4+z
loop_
_atom_site_type_symbol
_atom_site_label
_atom_site_fract_x
_atom_site_fract_y
_atom_site_fract_z
Si Si1 0.056348 0.240218 0.967170
Si Si2 0.219486 0.624361 0.046778
Si Si3 0.871144 0.876050 0.896284
Si Si4 0.705740 0.924215 0.385457
Si Si5 0.773803 0.828190 0.245958
Si Si6 0.916459 0.402453 0.200235
Si Si7 0.629603 0.439750 0.150423
O O1 0.070852 0.181169 0.916791
O O2 0.144042 0.280740 0.947436
O O3 0.961568 0.270331 0.936001
O O4 0.050941 0.228365 0.072830
O O5 0.133677 0.621430 0.113042
O O6 0.311131 0.614957 0.109529
O O7 0.230400 0.573778 0.973739
O O8 0.194154 0.675618 0.979275
O O9 0.865905 0.882560 0.790587
O O10 0.773278 0.866244 0.945348
O O11 0.930847 0.928007 0.937645
O O12 0.744676 0.876302 0.318262
O O13 0.604535 0.906808 0.424218
O O14 0.827132 0.786027 0.313453
#
# Coordination Sequence:
#
# PCOD9371048 Si02
#       7
#    16  16  16  16  16  16  16
#     4  10  21  38  61  89 122 161 210 269 320 392
#     4   9  18  36  60  87 115 163 199 256 316 377
#     4  11  22  38  62  87 129 171 210 264 328 387
#     4   9  18  36  66  86 121 156 212 257 326 380
#     4   9  18  35  60  85 114 164 200 251 318 373
#     4  11  22  39  59  91 129 165 214 259 323 395
#     4   9  18  36  61  86 118 153 212 257 315 382
#
# _framework density 22.150493000000001
#
# number of rings (size 3 to 8) (size 9 to 14) (size 15 to 20)
#    0.000    2.286    0.000    3.857    0.000    0.000 
#   15.429    0.000    6.286   42.857    0.000    0.000 
#    0.000    0.000    0.000    0.000    0.000    0.000 
#
# Total GULP energy -155900.958886 kJ/mol
# GULP energy per Si atom -5567.891389 kJ/mol
# Density = 2.210008 g / cm^3
# Si number density = 22.150493 Si / 1000 Ang^3
#
#
#
# Elastic Constant Matrix: (Units=GPa)
#
#
# Indices 1 2 3 4 5 6 
#
# 1 111.4759 14.8778 29.9831 0.0000 0.0000 0.0000
# 2 14.8778 22.6954 23.7240 0.0000 0.0000 0.0000
# 3 29.9831 23.7240 130.6047 0.0000 0.0000 0.0000
# 4 0.0000 0.0000 0.0000 21.1247 0.0000 0.0000
# 5 0.0000 0.0000 0.0000 0.0000 37.0882 0.0000
# 6 0.0000 0.0000 0.0000 0.0000 0.0000 24.9891
#
#
#
# Elastic Compliance Matrix: (Units=1/GPa)
#
#
# Indices 1 2 3 4 5 6 
#
# 1 0.010025 -0.005142 -0.001367 0.000000 0.000000 0.000000
# 2 -0.005142 0.057027 -0.009178 0.000000 0.000000 0.000000
# 3 -0.001367 -0.009178 0.009638 0.000000 0.000000 0.000000
# 4 0.000000 0.000000 0.000000 0.047338 0.000000 0.000000
# 5 0.000000 0.000000 0.000000 0.000000 0.026963 0.000000
# 6 0.000000 0.000000 0.000000 0.000000 0.000000 0.040017
#
#
# Mechanical properties :
#
#
# Convention : Reuss Voigt Hill
#
# Bulk Modulus (GPa) = 22.06837 44.66064 33.36451
# Shear Modulus (GPa) = 21.05370 29.71980 25.38675
#
# Velocity S-wave (km/s) = 3.08634 3.66693 3.38909
# Velocity P-wave (km/s) = 4.76290 6.17532 5.51452
#
# Compressibility (1/GPa) = 0.04531372
#
# Stress axis : x y z
#
# Youngs Moduli (GPa) = 99.75464 17.53554 103.75812
#
# Poissons Ratio (x) = 0.09017 0.14187
# Poissons Ratio (y) = 0.51297 0.95232
# Poissons Ratio (z) = 0.13639 0.16095
#
# Static dielectric constant tensor:
#      x y z
#    x 1.860310 0.000000 0.000000 
#    y 0.000000 1.896920 0.000000 
#    z 0.000000 0.000000 1.823610 
# 
# From -- ./inp_files/10282.got.cif
#   From: 2010.05.17/outbox.cif.g08.bks.cpg/sg43_6_cif.got.tgz:10282.got - 2010.06.03 19:21:55.
