data_PCOD9371755
_publ_section_title
;
Structure prediction by ZEFSAII (Michael W. Deem and Ramdas Pophale) SiO2 
 PCOD9371755
Probable space group: F D D 2
;
_chemical_formula_sum "Si O2"
_cell_formula_units_Z 80
_cell_length_a 21.557871
_cell_length_b 13.034492
_cell_length_c 10.447309
_cell_angle_alpha 90.000000
_cell_angle_beta 90.000000
_cell_angle_gamma 90.000000
_cell_volume 2935.650965
_symmetry_space_group_name_H-M "F D D 2"
_symmetry_group_IT_number 43
_symmetry_cell_setting 'orthorhombic'
loop_
_space_group_symop_operation_xyz
x,y,z
-x,-y,z
1/4-x,1/4+y,1/4+z
1/4+x,1/4-y,1/4+z
x,1/2+y,1/2+z
-x,1/2-y,1/2+z
1/4-x,3/4+y,3/4+z
1/4+x,3/4-y,3/4+z
1/2+x,y,1/2+z
1/2-x,-y,1/2+z
3/4-x,1/4+y,3/4+z
3/4+x,1/4-y,3/4+z
1/2+x,1/2+y,z
1/2-x,1/2-y,z
3/4-x,3/4+y,1/4+z
3/4+x,3/4-y,1/4+z
loop_
_atom_site_type_symbol
_atom_site_label
_atom_site_fract_x
_atom_site_fract_y
_atom_site_fract_z
Si Si1 0.561026 0.798700 0.077900
Si Si2 0.393187 0.534226 0.192263
Si Si3 0.775219 0.044048 0.555519
Si Si4 0.320279 0.319896 0.165658
Si Si5 0.911586 0.001445 0.466832
O O1 0.522367 0.754880 0.197027
O O2 0.631057 0.758339 0.100874
O O3 0.537421 0.761064 0.940694
O O4 0.555601 0.923061 0.067812
O O5 0.356264 0.429977 0.167016
O O6 0.345423 0.629032 0.216438
O O7 0.431063 0.528770 0.323205
O O8 0.433804 0.548722 0.066392
O O9 0.744322 0.150050 0.600812
O O10 0.840598 0.039217 0.484596
#
# Coordination Sequence:
#
# PCOD9371755 Si02
#       5
#    16  16  16  16  16
#     4  12  26  49  74 108 150 191 248 316 368 452
#     4  10  22  46  72  98 148 190 234 310 362 430
#     4  12  26  45  75 110 144 194 252 300 380 456
#     4  11  24  47  73 106 147 191 242 312 365 445
#     4  11  24  47  73 106 147 191 242 312 365 445
#
# _framework density 27.251194000000002
#
# number of rings (size 3 to 8) (size 9 to 14) (size 15 to 20)
#    0.000    0.800    4.000    3.600    0.000    0.800 
#    0.000    8.000    0.000    0.000    0.000    0.000 
#    0.000    0.000    0.000    0.000    0.000    0.000 
#
# Total GULP energy -111975.024973 kJ/mol
# GULP energy per Si atom -5598.751249 kJ/mol
# Density = 2.718917 g / cm^3
# Si number density = 27.251194 Si / 1000 Ang^3
#
#
#
# Elastic Constant Matrix: (Units=GPa)
#
#
# Indices 1 2 3 4 5 6 
#
# 1 147.1743 20.8905 49.7672 0.0000 0.0000 0.0000
# 2 20.8905 148.9235 16.1857 0.0000 0.0000 0.0000
# 3 49.7672 16.1857 185.6052 0.0000 0.0000 0.0000
# 4 0.0000 0.0000 0.0000 26.7093 0.0000 0.0000
# 5 0.0000 0.0000 0.0000 0.0000 28.1572 0.0000
# 6 0.0000 0.0000 0.0000 0.0000 0.0000 38.5959
#
#
#
# Elastic Compliance Matrix: (Units=1/GPa)
#
#
# Indices 1 2 3 4 5 6 
#
# 1 0.007577 -0.000850 -0.001958 0.000000 0.000000 0.000000
# 2 -0.000850 0.006874 -0.000372 0.000000 0.000000 0.000000
# 3 -0.001958 -0.000372 0.005945 0.000000 0.000000 0.000000
# 4 0.000000 0.000000 0.000000 0.037440 0.000000 0.000000
# 5 0.000000 0.000000 0.000000 0.000000 0.035515 0.000000
# 6 0.000000 0.000000 0.000000 0.000000 0.000000 0.025909
#
#
# Mechanical properties :
#
#
# Convention : Reuss Voigt Hill
#
# Bulk Modulus (GPa) = 71.23373 72.82110 72.02741
# Shear Modulus (GPa) = 38.37314 45.01644 41.69479
#
# Velocity S-wave (km/s) = 3.75657 4.06878 3.91579
# Velocity P-wave (km/s) = 6.70911 6.98952 6.85075
#
# Compressibility (1/GPa) = 0.01403829
#
# Stress axis : x y z
#
# Youngs Moduli (GPa) = 131.97298 145.46519 168.20629
#
# Poissons Ratio (x) = 0.12367 0.32928
# Poissons Ratio (y) = 0.11220 0.06249
# Poissons Ratio (z) = 0.25835 0.05405
#
# Static dielectric constant tensor:
#      x y z
#    x 2.177070 0.000000 0.000000 
#    y 0.000000 2.177920 0.000000 
#    z 0.000000 0.000000 2.056280 
# 
# From -- ./inp_files/7437.got.cif
#   From: 2010.05.17/outbox.cif.g08.bks.cpg/sg43_4_cif.got.tgz:7437.got - 2010.06.03 19:21:55.
