data_PCOD9371107
_publ_section_title
;
Structure prediction by ZEFSAII (Michael W. Deem and Ramdas Pophale) SiO2 
 PCOD9371107
Probable space group: F D D 2
;
_chemical_formula_sum "Si O2"
_cell_formula_units_Z 120
_cell_length_a 11.294104
_cell_length_b 17.355191
_cell_length_c 30.455770
_cell_angle_alpha 90.000000
_cell_angle_beta 90.000000
_cell_angle_gamma 90.000000
_cell_volume 5969.676048
_symmetry_space_group_name_H-M "F D D 2"
_symmetry_group_IT_number 43
_symmetry_cell_setting 'orthorhombic'
loop_
_space_group_symop_operation_xyz
x,y,z
-x,-y,z
1/4-x,1/4+y,1/4+z
1/4+x,1/4-y,1/4+z
x,1/2+y,1/2+z
-x,1/2-y,1/2+z
1/4-x,3/4+y,3/4+z
1/4+x,3/4-y,3/4+z
1/2+x,y,1/2+z
1/2-x,-y,1/2+z
3/4-x,1/4+y,3/4+z
3/4+x,1/4-y,3/4+z
1/2+x,1/2+y,z
1/2-x,1/2-y,z
3/4-x,3/4+y,1/4+z
3/4+x,3/4-y,1/4+z
loop_
_atom_site_type_symbol
_atom_site_label
_atom_site_fract_x
_atom_site_fract_y
_atom_site_fract_z
Si Si1 0.116400 0.721397 0.331380
Si Si2 0.766404 0.341525 0.631120
Si Si3 0.371906 0.475972 0.698497
Si Si4 0.000000 0.000000 0.425080
Si Si5 0.695678 0.940579 0.982418
Si Si6 0.979486 0.848616 0.377123
Si Si7 0.546678 0.614006 0.979418
Si Si8 0.756687 0.658949 0.330919
O O1 0.250000 0.750000 0.331514
O O2 0.076542 0.696088 0.283625
O O3 0.042038 0.799160 0.340013
O O4 0.088171 0.649922 0.364454
O O5 0.750000 0.250000 0.622893
O O6 0.776436 0.352464 0.684170
O O7 0.875927 0.372195 0.601919
O O8 0.500000 0.500000 0.677323
O O9 0.397780 0.394126 0.719980
O O10 0.259079 0.459678 0.667339
O O11 0.340051 0.547213 0.729096
O O12 0.115734 0.003358 0.456620
O O13 0.030572 0.928392 0.394236
O O14 0.836031 0.939370 0.973648
O O15 0.851683 0.871020 0.359805
O O16 0.495980 0.600939 0.028192
O O17 0.750000 0.750000 0.338973
#
# Coordination Sequence:
#
# PCOD9371107 Si02
#       8
#    16  16  16   8  16  16  16  16
#     4  12  24  43  71 102 136 181 235 289 353 420
#     4  12  28  43  69 108 136 187 240 292 347 423
#     4   9  19  38  68  99 134 178 228 288 344 411
#     4  10  24  42  62 100 132 180 220 292 344 420
#     4  10  21  39  65 100 135 173 229 284 349 416
#     4  11  23  43  66  93 140 182 224 281 361 408
#     4  11  22  41  68  97 134 181 233 286 349 416
#     4  12  24  45  66  93 144 183 224 283 355 421
#
# _framework density 20.101593999999999
#
# number of rings (size 3 to 8) (size 9 to 14) (size 15 to 20)
#    0.000    1.067    4.667    0.800    7.467    0.000 
#    0.000    0.000    1.467    0.000    0.000    0.000 
#    0.000    0.000    0.000    0.000    0.000    0.000 
#
# Total GULP energy -167102.457450 kJ/mol
# GULP energy per Si atom -5570.081915 kJ/mol
# Density = 2.005584 g / cm^3
# Si number density = 20.101594 Si / 1000 Ang^3
#
#
#
# Elastic Constant Matrix: (Units=GPa)
#
#
# Indices 1 2 3 4 5 6 
#
# 1 65.7339 17.7263 28.6978 0.0000 0.0000 0.0000
# 2 17.7263 103.2302 33.4117 0.0000 0.0000 0.0000
# 3 28.6978 33.4117 126.5727 0.0000 0.0000 0.0000
# 4 0.0000 0.0000 0.0000 26.5496 0.0000 0.0000
# 5 0.0000 0.0000 0.0000 0.0000 24.4396 0.0000
# 6 0.0000 0.0000 0.0000 0.0000 0.0000 2.7080
#
#
#
# Elastic Compliance Matrix: (Units=1/GPa)
#
#
# Indices 1 2 3 4 5 6 
#
# 1 0.017201 -0.001849 -0.003412 0.000000 0.000000 0.000000
# 2 -0.001849 0.010791 -0.002429 0.000000 0.000000 0.000000
# 3 -0.003412 -0.002429 0.009315 0.000000 0.000000 0.000000
# 4 0.000000 0.000000 0.000000 0.037665 0.000000 0.000000
# 5 0.000000 0.000000 0.000000 0.000000 0.040917 0.000000
# 6 0.000000 0.000000 0.000000 0.000000 0.000000 0.369269
#
#
# Mechanical properties :
#
#
# Convention : Reuss Voigt Hill
#
# Bulk Modulus (GPa) = 45.60679 50.57869 48.09274
# Shear Modulus (GPa) = 9.84544 25.11952 17.48248
#
# Velocity S-wave (km/s) = 2.21551 3.53884 2.95228
# Velocity P-wave (km/s) = 5.41129 6.47411 5.96641
#
# Compressibility (1/GPa) = 0.02192656
#
# Stress axis : x y z
#
# Youngs Moduli (GPa) = 58.13585 92.67068 107.34926
#
# Poissons Ratio (x) = 0.17139 0.36625
# Poissons Ratio (y) = 0.10752 0.26077
# Poissons Ratio (z) = 0.19835 0.22511
#
# Static dielectric constant tensor:
#      x y z
#    x 1.769160 0.000000 0.000000 
#    y 0.000000 1.735870 0.000000 
#    z 0.000000 0.000000 1.733700 
# 
# From -- ./inp_files/25195.got.cif
#   From: 2010.05.17/outbox.cif.g08.bks.cpg/sg43_13_cif.got.tgz:25195.got - 2010.06.03 19:21:55.
