data_PCOD9371240
_publ_section_title
;
Structure prediction by ZEFSAII (Michael W. Deem and Ramdas Pophale) SiO2 
 PCOD9371240
Probable space group: F D D 2
;
_chemical_formula_sum "Si O2"
_cell_formula_units_Z 96
_cell_length_a 8.445417
_cell_length_b 31.774674
_cell_length_c 17.911457
_cell_angle_alpha 90.000000
_cell_angle_beta 90.000000
_cell_angle_gamma 90.000000
_cell_volume 4806.546148
_symmetry_space_group_name_H-M "F D D 2"
_symmetry_group_IT_number 43
_symmetry_cell_setting 'orthorhombic'
loop_
_space_group_symop_operation_xyz
x,y,z
-x,-y,z
1/4-x,1/4+y,1/4+z
1/4+x,1/4-y,1/4+z
x,1/2+y,1/2+z
-x,1/2-y,1/2+z
1/4-x,3/4+y,3/4+z
1/4+x,3/4-y,3/4+z
1/2+x,y,1/2+z
1/2-x,-y,1/2+z
3/4-x,1/4+y,3/4+z
3/4+x,1/4-y,3/4+z
1/2+x,1/2+y,z
1/2-x,1/2-y,z
3/4-x,3/4+y,1/4+z
3/4+x,3/4-y,1/4+z
loop_
_atom_site_type_symbol
_atom_site_label
_atom_site_fract_x
_atom_site_fract_y
_atom_site_fract_z
Si Si1 0.969938 0.046172 0.152460
Si Si2 0.985654 0.048433 0.833352
Si Si3 0.157848 0.135992 0.792606
Si Si4 0.463695 0.141487 0.887188
Si Si5 0.685675 0.094425 0.769206
Si Si6 0.849520 0.680151 0.245976
O O1 0.085742 0.074653 0.202143
O O2 0.012864 0.048809 0.065505
O O3 0.792219 0.063582 0.154528
O O4 0.000000 0.000000 0.181575
O O5 0.805432 0.063767 0.814607
O O6 0.084987 0.088728 0.801610
O O7 0.000000 0.000000 0.804942
O O8 0.053527 0.047545 0.918677
O O9 0.284304 0.143951 0.857839
O O10 0.239766 0.134478 0.712344
O O11 0.025189 0.171565 0.778737
O O12 0.564393 0.116992 0.825189
O O13 0.786403 0.132628 0.735312
#
# Coordination Sequence:
#
# PCOD9371240 Si02
#       6
#    16  16  16  16  16  16
#     4  11  24  40  64  93 132 163 212 271 331 378
#     4  11  24  39  64  93 132 165 212 270 329 376
#     4  11  22  40  66  94 120 170 223 260 312 394
#     4  11  22  40  67  91 123 168 218 264 313 388
#     4  10  22  39  63  89 120 172 215 252 313 400
#     4  10  21  42  62  88 122 174 210 257 319 398
#
# _framework density 19.972761999999999
#
# number of rings (size 3 to 8) (size 9 to 14) (size 15 to 20)
#    0.000    1.333    3.333    3.500    7.000    0.000 
#    0.000    0.833    0.000    0.000    0.000    0.000 
#    0.000    0.000    0.000    0.000    0.000    0.000 
#
# Total GULP energy -133667.114326 kJ/mol
# GULP energy per Si atom -5569.463097 kJ/mol
# Density = 1.992730 g / cm^3
# Si number density = 19.972762 Si / 1000 Ang^3
#
#
#
# Elastic Constant Matrix: (Units=GPa)
#
#
# Indices 1 2 3 4 5 6 
#
# 1 85.9551 23.1051 15.6459 0.0000 0.0000 0.0000
# 2 23.1051 58.1275 -4.4149 0.0000 0.0000 0.0000
# 3 15.6459 -4.4149 67.6344 0.0000 0.0000 0.0000
# 4 0.0000 0.0000 0.0000 16.3150 0.0000 0.0000
# 5 0.0000 0.0000 0.0000 0.0000 27.1616 0.0000
# 6 0.0000 0.0000 0.0000 0.0000 0.0000 7.1906
#
#
#
# Elastic Compliance Matrix: (Units=1/GPa)
#
#
# Indices 1 2 3 4 5 6 
#
# 1 0.013837 -0.005772 -0.003578 0.000000 0.000000 0.000000
# 2 -0.005772 0.019697 0.002621 0.000000 0.000000 0.000000
# 3 -0.003578 0.002621 0.015784 0.000000 0.000000 0.000000
# 4 0.000000 0.000000 0.000000 0.061293 0.000000 0.000000
# 5 0.000000 0.000000 0.000000 0.000000 0.036817 0.000000
# 6 0.000000 0.000000 0.000000 0.000000 0.000000 0.139070
#
#
# Mechanical properties :
#
#
# Convention : Reuss Voigt Hill
#
# Bulk Modulus (GPa) = 27.88562 31.15436 29.51999
# Shear Modulus (GPa) = 16.03037 21.95884 18.99461
#
# Velocity S-wave (km/s) = 2.83611 3.31938 3.08722
# Velocity P-wave (km/s) = 4.97160 5.50666 5.24596
#
# Compressibility (1/GPa) = 0.03586078
#
# Stress axis : x y z
#
# Youngs Moduli (GPa) = 72.27189 50.76972 63.35503
#
# Poissons Ratio (x) = 0.29302 0.22666
# Poissons Ratio (y) = 0.41713 -0.16605
# Poissons Ratio (z) = 0.25856 -0.13306
#
# Static dielectric constant tensor:
#      x y z
#    x 1.774220 0.000000 0.000000 
#    y 0.000000 1.717110 0.000000 
#    z 0.000000 0.000000 1.708300 
# 
# From -- ./inp_files/16491.got.cif
#   From: 2010.05.17/outbox.cif.g08.bks.cpg/sg43_9_cif.got.tgz:16491.got - 2010.06.03 19:21:55.
