data_PCOD9371344
_publ_section_title
;
Structure prediction by ZEFSAII (Michael W. Deem and Ramdas Pophale) SiO2 
 PCOD9371344
Probable space group: F D D 2
;
_chemical_formula_sum "Si O2"
_cell_formula_units_Z 40
_cell_length_a 10.121545
_cell_length_b 25.820271
_cell_length_c 4.778477
_cell_angle_alpha 90.000000
_cell_angle_beta 90.000000
_cell_angle_gamma 90.000000
_cell_volume 1248.812124
_symmetry_space_group_name_H-M "F D D 2"
_symmetry_group_IT_number 43
_symmetry_cell_setting 'orthorhombic'
loop_
_space_group_symop_operation_xyz
x,y,z
-x,-y,z
1/4-x,1/4+y,1/4+z
1/4+x,1/4-y,1/4+z
x,1/2+y,1/2+z
-x,1/2-y,1/2+z
1/4-x,3/4+y,3/4+z
1/4+x,3/4-y,3/4+z
1/2+x,y,1/2+z
1/2-x,-y,1/2+z
3/4-x,1/4+y,3/4+z
3/4+x,1/4-y,3/4+z
1/2+x,1/2+y,z
1/2-x,1/2-y,z
3/4-x,3/4+y,1/4+z
3/4+x,3/4-y,1/4+z
loop_
_atom_site_type_symbol
_atom_site_label
_atom_site_fract_x
_atom_site_fract_y
_atom_site_fract_z
Si Si1 0.250000 0.250000 0.940760
Si Si2 0.712092 0.129085 0.517170
Si Si3 0.485262 0.271829 0.469750
O O1 0.256738 0.314305 0.913776
O O2 0.386450 0.253058 0.201912
O O3 0.804621 0.123983 0.786877
O O4 0.758692 0.081509 0.319082
O O5 0.600909 0.255657 0.224906
#
# Coordination Sequence:
#
# PCOD9371344 Si02
#       3
#     8  16  16
#     4  10  22  46  70 110 148 204 262 334 404 496
#     4  10  21  45  74 111 157 208 270 340 415 499
#     4  11  24  47  71 107 147 202 259 331 403 489
#
# _framework density 32.030437999999997
#
# number of rings (size 3 to 8) (size 9 to 14) (size 15 to 20)
#    0.000    1.600    4.000    0.000    0.000    1.600 
#   14.400    0.000    0.000    0.000    0.000    0.000 
#    0.000    0.000    0.000    0.000    0.000    0.000 
#
# Total GULP energy -55740.256523 kJ/mol
# GULP energy per Si atom -5574.025652 kJ/mol
# Density = 3.195754 g / cm^3
# Si number density = 32.030438 Si / 1000 Ang^3
#
#
#
# Elastic Constant Matrix: (Units=GPa)
#
#
# Indices 1 2 3 4 5 6 
#
# 1 360.2471 71.6062 65.4138 -0.0007 -0.0024 0.0004
# 2 71.6062 374.1537 94.8293 -0.0004 -0.0005 0.0001
# 3 65.4138 94.8293 355.0696 -0.0039 -0.0061 0.0009
# 4 -0.0007 -0.0004 -0.0039 42.4352 0.0014 -0.0006
# 5 -0.0024 -0.0005 -0.0061 0.0014 48.3964 -0.0007
# 6 0.0004 0.0001 0.0009 -0.0006 -0.0007 53.8019
#
#
#
# Elastic Compliance Matrix: (Units=1/GPa)
#
#
# Indices 1 2 3 4 5 6 
#
# 1 0.002943 -0.000457 -0.000420 0.000000 0.000000 0.000000
# 2 -0.000457 0.002938 -0.000700 0.000000 0.000000 0.000000
# 3 -0.000420 -0.000700 0.003081 0.000000 0.000000 0.000000
# 4 0.000000 0.000000 0.000000 0.023565 -0.000001 0.000000
# 5 0.000000 0.000000 0.000000 -0.000001 0.020663 0.000000
# 6 0.000000 0.000000 0.000000 0.000000 0.000000 0.018587
#
#
# Mechanical properties :
#
#
# Convention : Reuss Voigt Hill
#
# Bulk Modulus (GPa) = 172.21419 172.57436 172.39427
# Shear Modulus (GPa) = 65.04794 86.10145 75.57470
#
# Velocity S-wave (km/s) = 4.51135 5.19033 4.86270
# Velocity P-wave (km/s) = 9.00105 9.48233 9.24482
#
# Compressibility (1/GPa) = 0.00580672
#
# Stress axis : x y z
#
# Youngs Moduli (GPa) = 339.79448 340.41062 324.58862
#
# Poissons Ratio (x) = 0.15548 0.13639
# Poissons Ratio (y) = 0.15519 0.22735
# Poissons Ratio (z) = 0.14278 0.23843
#
# Static dielectric constant tensor:
#      x y z
#    x 3.091450 0.000000 0.000000 
#    y 0.000000 2.147190 0.000000 
#    z 0.000000 0.000000 2.497110 
# 
# From -- ./inp_files/141.got.cif
#   From: 2010.05.17/outbox.cif.g08.bks.cpg/sg43_1_cif.got.tgz:141.got - 2010.06.03 19:21:55.
