data_PCOD9371374
_publ_section_title
;
Structure prediction by ZEFSAII (Michael W. Deem and Ramdas Pophale) SiO2 
 PCOD9371374
Probable space group: F D D 2
;
_chemical_formula_sum "Si O2"
_cell_formula_units_Z 64
_cell_length_a 24.927485
_cell_length_b 5.208316
_cell_length_c 17.358453
_cell_angle_alpha 90.000000
_cell_angle_beta 90.000000
_cell_angle_gamma 90.000000
_cell_volume 2253.651754
_symmetry_space_group_name_H-M "F D D 2"
_symmetry_group_IT_number 43
_symmetry_cell_setting 'orthorhombic'
loop_
_space_group_symop_operation_xyz
x,y,z
-x,-y,z
1/4-x,1/4+y,1/4+z
1/4+x,1/4-y,1/4+z
x,1/2+y,1/2+z
-x,1/2-y,1/2+z
1/4-x,3/4+y,3/4+z
1/4+x,3/4-y,3/4+z
1/2+x,y,1/2+z
1/2-x,-y,1/2+z
3/4-x,1/4+y,3/4+z
3/4+x,1/4-y,3/4+z
1/2+x,1/2+y,z
1/2-x,1/2-y,z
3/4-x,3/4+y,1/4+z
3/4+x,3/4-y,1/4+z
loop_
_atom_site_type_symbol
_atom_site_label
_atom_site_fract_x
_atom_site_fract_y
_atom_site_fract_z
Si Si1 0.937048 0.467948 0.284060
Si Si2 0.265566 0.000196 0.824829
Si Si3 0.300994 0.390340 0.666398
Si Si4 0.124912 0.270302 0.484971
O O1 0.927161 0.395535 0.375440
O O2 0.920195 0.190887 0.251909
O O3 0.000000 0.500000 0.281278
O O4 0.902636 0.698885 0.246267
O O5 0.250000 0.750000 0.869182
O O6 0.250000 0.250000 0.870402
O O7 0.224783 0.020031 0.749514
O O8 0.325944 0.985651 0.796985
O O9 0.250000 0.250000 0.627756
O O10 0.343182 0.158567 0.671457
#
# Coordination Sequence:
#
# PCOD9371374 Si02
#       4
#    16  16  16  16
#     4  12  23  37  61  96 132 174 231 279 327 408
#     4   9  17  33  58  85 116 158 211 270 329 384
#     4   9  20  39  64  92 128 175 228 284 338 396
#     4  10  22  37  59  93 131 169 220 285 343 394
#
# _framework density 28.398354999999999
#
# number of rings (size 3 to 8) (size 9 to 14) (size 15 to 20)
#    0.000    2.500    0.000    6.000    0.000    8.000 
#    0.000    0.000    0.000   12.000    0.000   14.000 
#    0.000    0.000    0.000    0.000    0.000   14.000 
#
# Total GULP energy -89305.023552 kJ/mol
# GULP energy per Si atom -5581.563972 kJ/mol
# Density = 2.833372 g / cm^3
# Si number density = 28.398355 Si / 1000 Ang^3
#
#
#
# Elastic Constant Matrix: (Units=GPa)
#
#
# Indices 1 2 3 4 5 6 
#
# 1 171.8582 99.5677 53.9028 -0.0008 0.0003 0.0005
# 2 99.5677 310.4290 44.9983 0.0047 -0.0010 -0.0028
# 3 53.9028 44.9983 93.1327 0.0016 -0.0003 -0.0007
# 4 -0.0008 0.0047 0.0016 21.7298 -0.0008 -0.0010
# 5 0.0003 -0.0010 -0.0003 -0.0008 -19.9459 -0.0004
# 6 0.0005 -0.0028 -0.0007 -0.0010 -0.0004 57.8940
#
#
#
# Elastic Compliance Matrix: (Units=1/GPa)
#
#
# Indices 1 2 3 4 5 6 
#
# 1 0.008201 -0.002089 -0.003737 0.000001 0.000000 0.000000
# 2 -0.002089 0.003996 -0.000722 -0.000001 0.000000 0.000000
# 3 -0.003737 -0.000722 0.013249 -0.000001 0.000000 0.000000
# 4 0.000001 -0.000001 -0.000001 0.046020 -0.000002 0.000001
# 5 0.000000 0.000000 0.000000 -0.000002 -0.050136 0.000000
# 6 0.000000 0.000000 0.000000 0.000001 0.000000 0.017273
#
#
# Mechanical properties :
#
#
# Convention : Reuss Voigt Hill
#
# Bulk Modulus (GPa) = 80.96871 108.03972 94.50422
# Shear Modulus (GPa) = 89.58055 37.06566 63.32311
#
# Velocity S-wave (km/s) = 5.62252 3.61668 4.72722
# Velocity P-wave (km/s) = 8.40976 7.45436 7.94643
#
# Compressibility (1/GPa) = 0.01235045
#
# Stress axis : x y z
#
# Youngs Moduli (GPa) = 121.93533 250.25628 75.47612
#
# Poissons Ratio (x) = 0.52270 0.28208
# Poissons Ratio (y) = 0.25468 0.05448
# Poissons Ratio (z) = 0.45572 0.18064
#
# Static dielectric constant tensor:
#      x y z
#    x 2.193970 0.000000 0.000000 
#    y 0.000000 2.364930 0.000000 
#    z 0.000000 0.000000 2.732220 
# 
# From -- ./inp_files/22530.got.cif
#   From: 2010.05.17/outbox.cif.g08.bks.cpg/sg43_12_cif.got.tgz:22530.got - 2010.06.03 19:21:55.
