data_PCOD9371627
_publ_section_title
;
Structure prediction by ZEFSAII (Michael W. Deem and Ramdas Pophale) SiO2 
 PCOD9371627
Probable space group: F D D 2
;
_chemical_formula_sum "Si O2"
_cell_formula_units_Z 64
_cell_length_a 15.676195
_cell_length_b 8.969318
_cell_length_c 17.326594
_cell_angle_alpha 90.000000
_cell_angle_beta 90.000000
_cell_angle_gamma 90.000000
_cell_volume 2436.201903
_symmetry_space_group_name_H-M "F D D 2"
_symmetry_group_IT_number 43
_symmetry_cell_setting 'orthorhombic'
loop_
_space_group_symop_operation_xyz
x,y,z
-x,-y,z
1/4-x,1/4+y,1/4+z
1/4+x,1/4-y,1/4+z
x,1/2+y,1/2+z
-x,1/2-y,1/2+z
1/4-x,3/4+y,3/4+z
1/4+x,3/4-y,3/4+z
1/2+x,y,1/2+z
1/2-x,-y,1/2+z
3/4-x,1/4+y,3/4+z
3/4+x,1/4-y,3/4+z
1/2+x,1/2+y,z
1/2-x,1/2-y,z
3/4-x,3/4+y,1/4+z
3/4+x,3/4-y,1/4+z
loop_
_atom_site_type_symbol
_atom_site_label
_atom_site_fract_x
_atom_site_fract_y
_atom_site_fract_z
Si Si1 0.593200 0.930473 0.435710
Si Si2 0.919783 0.113047 0.203890
Si Si3 0.345669 0.310811 0.016751
Si Si4 0.090502 0.085541 0.613669
O O1 0.750000 0.750000 0.449998
O O2 0.649773 0.013549 0.499482
O O3 0.630565 0.968375 0.351170
O O4 0.383128 0.736492 0.440171
O O5 0.923333 0.243084 0.140605
O O6 0.842591 0.996405 0.191614
O O7 0.900201 0.176876 0.289032
O O8 0.500000 0.500000 0.944752
O O9 0.250000 0.250000 0.018947
O O10 0.000000 0.000000 0.600662
#
# Coordination Sequence:
#
# PCOD9371627 Si02
#       4
#    16  16  16  16
#     4  11  25  44  70 101 137 184 238 296 363 434
#     4  12  27  48  75 109 147 192 248 307 369 444
#     4  10  22  43  67  97 137 182 231 289 354 426
#     4  11  26  47  72 105 147 192 242 302 368 436
#
# _framework density 26.270399999999999
#
# number of rings (size 3 to 8) (size 9 to 14) (size 15 to 20)
#    0.000    1.000    0.000    6.000    0.000   17.000 
#    0.000    1.250    0.000    0.000    0.000    0.000 
#    0.000    0.000    0.000    0.000    0.000    0.000 
#
# Total GULP energy -89633.897170 kJ/mol
# GULP energy per Si atom -5602.118573 kJ/mol
# Density = 2.621061 g / cm^3
# Si number density = 26.270400 Si / 1000 Ang^3
#
#
#
# Elastic Constant Matrix: (Units=GPa)
#
#
# Indices 1 2 3 4 5 6 
#
# 1 99.9920 55.7226 30.9152 0.0000 0.0000 0.0000
# 2 55.7226 168.0962 16.0737 0.0000 0.0000 0.0000
# 3 30.9152 16.0737 120.2329 0.0000 0.0000 0.0000
# 4 0.0000 0.0000 0.0000 41.0798 0.0000 0.0000
# 5 0.0000 0.0000 0.0000 0.0000 24.1470 0.0000
# 6 0.0000 0.0000 0.0000 0.0000 0.0000 44.0800
#
#
#
# Elastic Compliance Matrix: (Units=1/GPa)
#
#
# Indices 1 2 3 4 5 6 
#
# 1 0.013157 -0.004090 -0.002836 0.000000 0.000000 0.000000
# 2 -0.004090 0.007298 0.000076 0.000000 0.000000 0.000000
# 3 -0.002836 0.000076 0.009036 0.000000 0.000000 0.000000
# 4 0.000000 0.000000 0.000000 0.024343 0.000000 0.000000
# 5 0.000000 0.000000 0.000000 0.000000 0.041413 0.000000
# 6 0.000000 0.000000 0.000000 0.000000 0.000000 0.022686
#
#
# Mechanical properties :
#
#
# Convention : Reuss Voigt Hill
#
# Bulk Modulus (GPa) = 63.33039 65.97156 64.65097
# Shear Modulus (GPa) = 36.52379 40.90199 38.71289
#
# Velocity S-wave (km/s) = 3.73272 3.95012 3.84296
# Velocity P-wave (km/s) = 6.53736 6.78023 6.65990
#
# Compressibility (1/GPa) = 0.01579021
#
# Stress axis : x y z
#
# Youngs Moduli (GPa) = 76.00465 137.03156 110.66485
#
# Poissons Ratio (x) = 0.56050 0.31387
# Poissons Ratio (y) = 0.31088 -0.00842
# Poissons Ratio (z) = 0.21557 -0.01043
#
# Static dielectric constant tensor:
#      x y z
#    x 2.119930 0.000000 0.000000 
#    y 0.000000 2.186560 0.000000 
#    z 0.000000 0.000000 2.022570 
# 
# From -- ./inp_files/27663.got.cif
#   From: 2010.05.17/outbox.cif.g08.bks.cpg/sg43_14_cif.got.tgz:27663.got - 2010.06.03 19:21:55.
