data_PCOD9371895
_publ_section_title
;
Structure prediction by ZEFSAII (Michael W. Deem and Ramdas Pophale) SiO2 
 PCOD9371895
Probable space group: F D D 2
;
_chemical_formula_sum "Si O2"
_cell_formula_units_Z 88
_cell_length_a 6.880007
_cell_length_b 28.294998
_cell_length_c 21.085011
_cell_angle_alpha 90.000000
_cell_angle_beta 90.000000
_cell_angle_gamma 90.000000
_cell_volume 4104.614543
_symmetry_space_group_name_H-M "F D D 2"
_symmetry_group_IT_number 43
_symmetry_cell_setting 'orthorhombic'
loop_
_space_group_symop_operation_xyz
x,y,z
-x,-y,z
1/4-x,1/4+y,1/4+z
1/4+x,1/4-y,1/4+z
x,1/2+y,1/2+z
-x,1/2-y,1/2+z
1/4-x,3/4+y,3/4+z
1/4+x,3/4-y,3/4+z
1/2+x,y,1/2+z
1/2-x,-y,1/2+z
3/4-x,1/4+y,3/4+z
3/4+x,1/4-y,3/4+z
1/2+x,1/2+y,z
1/2-x,1/2-y,z
3/4-x,3/4+y,1/4+z
3/4+x,3/4-y,1/4+z
loop_
_atom_site_type_symbol
_atom_site_label
_atom_site_fract_x
_atom_site_fract_y
_atom_site_fract_z
Si Si1 0.351798 0.898373 0.462430
Si Si2 0.000000 0.500000 0.661267
Si Si3 0.639329 0.413792 0.080616
Si Si4 0.795800 0.071907 0.881751
Si Si5 0.956464 0.948782 0.496110
Si Si6 0.098481 0.208449 0.989345
O O1 0.480472 0.910920 0.524407
O O2 0.488441 0.913235 0.403913
O O3 0.325058 0.841941 0.464263
O O4 0.150678 0.925368 0.469472
O O5 0.888858 0.537940 0.618282
O O6 0.849680 0.471069 0.703919
O O7 0.586977 0.368811 0.123346
O O8 0.847776 0.415029 0.046339
O O9 0.693798 0.043044 0.937996
O O10 0.807372 0.046719 0.814321
O O11 0.000000 0.000000 0.525255
O O12 0.250000 0.250000 0.978106
#
# Coordination Sequence:
#
# PCOD9371895 Si02
#       6
#    16   8  16  16  16  16
#     4  10  23  46  69  98 139 183 227 292 355 417
#     4  12  24  44  70 102 144 180 236 288 346 424
#     4  10  23  44  67  97 138 178 229 284 344 415
#     4  10  24  45  66  96 139 183 223 286 350 419
#     4  11  25  42  72 102 129 178 237 285 347 416
#     4  11  27  41  69 104 138 184 231 288 356 419
#
# _framework density 21.439285999999999
#
# number of rings (size 3 to 8) (size 9 to 14) (size 15 to 20)
#    0.000    1.455    1.818    1.091    6.364    6.545 
#    0.000    0.000    0.000    0.000    0.000    0.000 
#    0.000    0.000    0.000    0.000    0.000    0.000 
#
# Total GULP energy -123086.311036 kJ/mol
# GULP energy per Si atom -5594.832320 kJ/mol
# Density = 2.139049 g / cm^3
# Si number density = 21.439286 Si / 1000 Ang^3
#
#
#
# Elastic Constant Matrix: (Units=GPa)
#
#
# Indices 1 2 3 4 5 6 
#
# 1 111.8078 61.4714 11.6759 0.0000 0.0000 0.0000
# 2 61.4714 85.9426 21.7847 0.0000 0.0000 0.0000
# 3 11.6759 21.7847 57.6567 0.0000 0.0000 0.0000
# 4 0.0000 0.0000 0.0000 16.9180 0.0000 0.0000
# 5 0.0000 0.0000 0.0000 0.0000 12.4342 0.0000
# 6 0.0000 0.0000 0.0000 0.0000 0.0000 34.8290
#
#
#
# Elastic Compliance Matrix: (Units=1/GPa)
#
#
# Indices 1 2 3 4 5 6 
#
# 1 0.014804 -0.010870 0.001109 0.000000 0.000000 0.000000
# 2 -0.010870 0.020850 -0.005676 0.000000 0.000000 0.000000
# 3 0.001109 -0.005676 0.019264 0.000000 0.000000 0.000000
# 4 0.000000 0.000000 0.000000 0.059109 0.000000 0.000000
# 5 0.000000 0.000000 0.000000 0.000000 0.080424 0.000000
# 6 0.000000 0.000000 0.000000 0.000000 0.000000 0.028712
#
#
# Mechanical properties :
#
#
# Convention : Reuss Voigt Hill
#
# Bulk Modulus (GPa) = 41.59170 49.47458 45.53314
# Shear Modulus (GPa) = 19.08022 23.53458 21.30740
#
# Velocity S-wave (km/s) = 2.98646 3.31680 3.15596
# Velocity P-wave (km/s) = 5.59766 6.14775 5.87915
#
# Compressibility (1/GPa) = 0.02404326
#
# Stress axis : x y z
#
# Youngs Moduli (GPa) = 67.54716 47.96269 51.90987
#
# Poissons Ratio (x) = 0.52136 -0.05757
# Poissons Ratio (y) = 0.73425 0.29466
# Poissons Ratio (z) = -0.07492 0.27225
#
# Static dielectric constant tensor:
#      x y z
#    x 1.766980 0.000000 0.000000 
#    y 0.000000 1.765430 0.000000 
#    z 0.000000 0.000000 1.784210 
# 
# From -- ./inp_files/19557.got.cif
#   From: 2010.05.17/outbox.cif.g08.bks.cpg/sg43_10_cif.got.tgz:19557.got - 2010.06.03 19:21:55.
