data_PCOD9371796
_publ_section_title
;
Structure prediction by ZEFSAII (Michael W. Deem and Ramdas Pophale) SiO2 
 PCOD9371796
Probable space group: F D D 2
;
_chemical_formula_sum "Si O2"
_cell_formula_units_Z 72
_cell_length_a 11.986408
_cell_length_b 18.607338
_cell_length_c 12.369518
_cell_angle_alpha 90.000000
_cell_angle_beta 90.000000
_cell_angle_gamma 90.000000
_cell_volume 2758.837241
_symmetry_space_group_name_H-M "F D D 2"
_symmetry_group_IT_number 43
_symmetry_cell_setting 'orthorhombic'
loop_
_space_group_symop_operation_xyz
x,y,z
-x,-y,z
1/4-x,1/4+y,1/4+z
1/4+x,1/4-y,1/4+z
x,1/2+y,1/2+z
-x,1/2-y,1/2+z
1/4-x,3/4+y,3/4+z
1/4+x,3/4-y,3/4+z
1/2+x,y,1/2+z
1/2-x,-y,1/2+z
3/4-x,1/4+y,3/4+z
3/4+x,1/4-y,3/4+z
1/2+x,1/2+y,z
1/2-x,1/2-y,z
3/4-x,3/4+y,1/4+z
3/4+x,3/4-y,1/4+z
loop_
_atom_site_type_symbol
_atom_site_label
_atom_site_fract_x
_atom_site_fract_y
_atom_site_fract_z
Si Si1 0.062374 0.874965 0.692040
Si Si2 0.250000 0.750000 0.072872
Si Si3 0.925379 0.641402 0.950698
Si Si4 0.054029 0.213921 0.262159
Si Si5 0.710318 0.084346 0.781075
O O1 0.022604 0.862135 0.569026
O O2 0.074326 0.797756 0.747975
O O3 0.175542 0.917405 0.713548
O O4 0.950548 0.911582 0.734832
O O5 0.300994 0.813097 0.147860
O O6 0.147630 0.784486 0.005720
O O7 0.978116 0.694509 0.864541
O O8 0.163241 0.164956 0.273314
O O9 0.992057 0.186264 0.153644
#
# Coordination Sequence:
#
# PCOD9371796 Si02
#       5
#    16   8  16  16  16
#     4  12  26  46  76 120 158 209 280 352 403 488
#     4  10  22  50  74 108 160 224 266 322 432 526
#     4  11  25  48  77 111 161 217 271 334 428 490
#     4  11  25  50  75 114 161 215 271 333 419 505
#     4  11  24  48  76 116 158 210 272 336 418 484
#
# _framework density 26.097951999999999
#
# number of rings (size 3 to 8) (size 9 to 14) (size 15 to 20)
#    0.000    0.889    2.222    4.667    0.000    3.556 
#   24.000    0.000    0.000    0.000    0.000    0.000 
#    0.000    0.000    0.000    0.000    0.000    0.000 
#
# Total GULP energy -100886.926803 kJ/mol
# GULP energy per Si atom -5604.829267 kJ/mol
# Density = 2.603855 g / cm^3
# Si number density = 26.097952 Si / 1000 Ang^3
#
#
#
# Elastic Constant Matrix: (Units=GPa)
#
#
# Indices 1 2 3 4 5 6 
#
# 1 154.1002 42.2001 -3.3217 0.0000 0.0000 0.0000
# 2 42.2001 122.4890 18.6054 0.0000 0.0000 0.0000
# 3 -3.3217 18.6054 76.3932 0.0000 0.0000 0.0000
# 4 0.0000 0.0000 0.0000 43.2754 0.0000 0.0000
# 5 0.0000 0.0000 0.0000 0.0000 31.7790 0.0000
# 6 0.0000 0.0000 0.0000 0.0000 0.0000 52.4045
#
#
#
# Elastic Compliance Matrix: (Units=1/GPa)
#
#
# Indices 1 2 3 4 5 6 
#
# 1 0.007232 -0.002637 0.000957 0.000000 0.000000 0.000000
# 2 -0.002637 0.009439 -0.002414 0.000000 0.000000 0.000000
# 3 0.000957 -0.002414 0.013720 0.000000 0.000000 0.000000
# 4 0.000000 0.000000 0.000000 0.023108 0.000000 0.000000
# 5 0.000000 0.000000 0.000000 0.000000 0.031467 0.000000
# 6 0.000000 0.000000 0.000000 0.000000 0.000000 0.019082
#
#
# Mechanical properties :
#
#
# Convention : Reuss Voigt Hill
#
# Bulk Modulus (GPa) = 45.03861 51.99442 48.51652
# Shear Modulus (GPa) = 41.79319 45.19168 43.49243
#
# Velocity S-wave (km/s) = 4.00609 4.16579 4.08672
# Velocity P-wave (km/s) = 6.22039 6.56539 6.39522
#
# Compressibility (1/GPa) = 0.02220317
#
# Stress axis : x y z
#
# Youngs Moduli (GPa) = 138.27400 105.94266 72.88849
#
# Poissons Ratio (x) = 0.27936 -0.06973
# Poissons Ratio (y) = 0.36461 0.17592
# Poissons Ratio (z) = -0.13228 0.25570
#
# Static dielectric constant tensor:
#      x y z
#    x 1.991100 0.000000 0.000000 
#    y 0.000000 2.010750 0.000000 
#    z 0.000000 0.000000 2.009090 
# 
# From -- ./inp_files/5625.got.cif
#   From: 2010.05.17/outbox.cif.g08.bks.cpg/sg43_3_cif.got.tgz:5625.got - 2010.06.03 19:21:55.
