data_PCOD9371979
_publ_section_title
;
Structure prediction by ZEFSAII (Michael W. Deem and Ramdas Pophale) SiO2 
 PCOD9371979
Probable space group: F D D 2
;
_chemical_formula_sum "Si O2"
_cell_formula_units_Z 104
_cell_length_a 23.360392
_cell_length_b 26.304603
_cell_length_c 6.808850
_cell_angle_alpha 90.000000
_cell_angle_beta 90.000000
_cell_angle_gamma 90.000000
_cell_volume 4183.941895
_symmetry_space_group_name_H-M "F D D 2"
_symmetry_group_IT_number 43
_symmetry_cell_setting 'orthorhombic'
loop_
_space_group_symop_operation_xyz
x,y,z
-x,-y,z
1/4-x,1/4+y,1/4+z
1/4+x,1/4-y,1/4+z
x,1/2+y,1/2+z
-x,1/2-y,1/2+z
1/4-x,3/4+y,3/4+z
1/4+x,3/4-y,3/4+z
1/2+x,y,1/2+z
1/2-x,-y,1/2+z
3/4-x,1/4+y,3/4+z
3/4+x,1/4-y,3/4+z
1/2+x,1/2+y,z
1/2-x,1/2-y,z
3/4-x,3/4+y,1/4+z
3/4+x,3/4-y,1/4+z
loop_
_atom_site_type_symbol
_atom_site_label
_atom_site_fract_x
_atom_site_fract_y
_atom_site_fract_z
Si Si1 0.975238 0.802026 0.841270
Si Si2 0.750000 0.250000 0.654231
Si Si3 0.311582 0.390504 0.651646
Si Si4 0.674677 0.342168 0.627311
Si Si5 0.417317 0.044175 0.708325
Si Si6 0.439766 0.840459 0.740069
Si Si7 0.583388 0.783503 0.571384
O O1 0.958639 0.859726 0.781665
O O2 0.946792 0.760297 0.704649
O O3 0.949311 0.800031 0.062640
O O4 0.042057 0.793358 0.886006
O O5 0.703912 0.289138 0.562990
O O6 0.785781 0.287854 0.792444
O O7 0.358382 0.405536 0.812861
O O8 0.312011 0.329664 0.633905
O O9 0.245804 0.407454 0.627458
O O10 0.335784 0.416450 0.452304
O O11 0.680333 0.358754 0.857886
O O12 0.362981 0.071617 0.613307
O O13 0.394455 0.989683 0.771573
#
# Coordination Sequence:
#
# PCOD9371979 Si02
#       7
#    16   8  16  16  16  16  16
#     4   9  20  41  63 106 134 181 250 298 360 443
#     4  12  26  46  70 108 148 200 234 318 394 438
#     4  11  23  45  68 104 146 188 254 312 375 458
#     4  10  23  47  69 101 155 190 250 313 381 458
#     4  12  24  45  71 101 147 190 250 308 383 452
#     4   9  22  45  67  98 144 190 247 304 370 456
#     4  11  21  38  72 100 138 193 243 302 377 442
#
# _framework density 24.856940999999999
#
# number of rings (size 3 to 8) (size 9 to 14) (size 15 to 20)
#    0.923    0.615    3.077    1.846    4.308    0.000 
#    5.538    0.769    0.000    0.000    0.000    0.000 
#    0.000    0.000    0.000    0.000    0.000    0.000 
#
# Total GULP energy -145216.003426 kJ/mol
# GULP energy per Si atom -5585.230901 kJ/mol
# Density = 2.480037 g / cm^3
# Si number density = 24.856941 Si / 1000 Ang^3
#
#
#
# Elastic Constant Matrix: (Units=GPa)
#
#
# Indices 1 2 3 4 5 6 
#
# 1 113.8393 32.2011 38.5971 0.0017 0.0124 -0.0022
# 2 32.2011 108.9320 25.0932 0.0029 -0.0033 -0.0028
# 3 38.5971 25.0932 58.8098 -0.0047 0.0320 -0.0075
# 4 0.0017 0.0029 -0.0047 3.2810 -0.0003 0.0004
# 5 0.0124 -0.0033 0.0320 -0.0003 32.4074 0.0022
# 6 -0.0022 -0.0028 -0.0075 0.0004 0.0022 39.8354
#
#
#
# Elastic Compliance Matrix: (Units=1/GPa)
#
#
# Indices 1 2 3 4 5 6 
#
# 1 0.011630 -0.001863 -0.006838 -0.000014 0.000002 -0.000001
# 2 -0.001863 0.010479 -0.003249 -0.000013 0.000005 0.000000
# 3 -0.006838 -0.003249 0.022878 0.000039 -0.000020 0.000004
# 4 -0.000014 -0.000013 0.000039 0.304782 0.000003 -0.000003
# 5 0.000002 0.000005 -0.000020 0.000003 0.030857 -0.000002
# 6 -0.000001 0.000000 0.000004 -0.000003 -0.000002 0.025103
#
#
# Mechanical properties :
#
#
# Convention : Reuss Voigt Hill
#
# Bulk Modulus (GPa) = 47.42023 52.59598 50.00811
# Shear Modulus (GPa) = 11.45064 27.48409 19.46736
#
# Velocity S-wave (km/s) = 2.14863 3.32880 2.80156
# Velocity P-wave (km/s) = 5.02734 5.99833 5.53417
#
# Compressibility (1/GPa) = 0.02108805
#
# Stress axis : x y z
#
# Youngs Moduli (GPa) = 85.98799 95.42868 43.71042
#
# Poissons Ratio (x) = 0.17775 0.29888
# Poissons Ratio (y) = 0.16017 0.14201
# Poissons Ratio (z) = 0.58796 0.31003
#
# Static dielectric constant tensor:
#      x y z
#    x 1.954410 0.000010 0.000010 
#    y 0.000010 2.010520 -0.000010 
#    z 0.000010 -0.000010 1.984600 
# 
# From -- ./inp_files/3391.got.cif
#   From: 2010.05.17/outbox.cif.g08.bks.cpg/sg43_2_cif.got.tgz:3391.got - 2010.06.03 19:21:55.
