data_PCOD9371441
_publ_section_title
;
Structure prediction by ZEFSAII (Michael W. Deem and Ramdas Pophale) SiO2 
 PCOD9371441
Probable space group: F D D 2
;
_chemical_formula_sum "Si O2"
_cell_formula_units_Z 64
_cell_length_a 25.112784
_cell_length_b 13.704896
_cell_length_c 8.284780
_cell_angle_alpha 90.000000
_cell_angle_beta 90.000000
_cell_angle_gamma 90.000000
_cell_volume 2851.356933
_symmetry_space_group_name_H-M "F D D 2"
_symmetry_group_IT_number 43
_symmetry_cell_setting 'orthorhombic'
loop_
_space_group_symop_operation_xyz
x,y,z
-x,-y,z
1/4-x,1/4+y,1/4+z
1/4+x,1/4-y,1/4+z
x,1/2+y,1/2+z
-x,1/2-y,1/2+z
1/4-x,3/4+y,3/4+z
1/4+x,3/4-y,3/4+z
1/2+x,y,1/2+z
1/2-x,-y,1/2+z
3/4-x,1/4+y,3/4+z
3/4+x,1/4-y,3/4+z
1/2+x,1/2+y,z
1/2-x,1/2-y,z
3/4-x,3/4+y,1/4+z
3/4+x,3/4-y,1/4+z
loop_
_atom_site_type_symbol
_atom_site_label
_atom_site_fract_x
_atom_site_fract_y
_atom_site_fract_z
Si Si1 0.448021 0.067536 0.021400
Si Si2 0.541563 0.727732 0.161685
Si Si3 0.147301 0.635974 0.591561
Si Si4 0.952669 0.077480 0.174831
O O1 0.463913 0.181136 0.040645
O O2 0.413758 0.050077 0.183272
O O3 0.500000 0.000000 0.026710
O O4 0.422576 0.056055 0.843963
O O5 0.583864 0.646914 0.100769
O O6 0.572417 0.784037 0.306720
O O7 0.485217 0.678900 0.191321
O O8 0.170032 0.671971 0.761011
O O9 0.000000 0.000000 0.162855
#
# Coordination Sequence:
#
# PCOD9371441 Si02
#       4
#    16  16  16  16
#     4   9  22  41  62  90 124 169 214 254 322 382
#     4  10  22  42  63  97 128 167 216 263 327 378
#     4  10  22  40  63  94 132 160 216 268 319 379
#     4  11  21  41  66  90 128 171 211 265 322 388
#
# _framework density 22.445454999999999
#
# number of rings (size 3 to 8) (size 9 to 14) (size 15 to 20)
#    1.500    0.500    0.000    3.750    0.000    0.000 
#   13.500    0.000    0.000    0.000    0.000    0.000 
#    0.000    0.000    0.000    0.000    0.000    0.000 
#
# Total GULP energy -89072.656565 kJ/mol
# GULP energy per Si atom -5567.041035 kJ/mol
# Density = 2.239437 g / cm^3
# Si number density = 22.445455 Si / 1000 Ang^3
#
#
#
# Elastic Constant Matrix: (Units=GPa)
#
#
# Indices 1 2 3 4 5 6 
#
# 1 52.3999 4.2035 55.5384 0.0000 0.0000 0.0000
# 2 4.2035 63.4042 15.1140 0.0000 0.0000 0.0000
# 3 55.5384 15.1140 199.5179 0.0000 0.0000 0.0000
# 4 0.0000 0.0000 0.0000 -3.1993 0.0000 0.0000
# 5 0.0000 0.0000 0.0000 0.0000 -47.3769 0.0000
# 6 0.0000 0.0000 0.0000 0.0000 0.0000 34.7116
#
#
#
# Elastic Compliance Matrix: (Units=1/GPa)
#
#
# Indices 1 2 3 4 5 6 
#
# 1 0.027071 0.000002 -0.007536 0.000000 0.000000 0.000000
# 2 0.000002 0.016062 -0.001217 0.000000 0.000000 0.000000
# 3 -0.007536 -0.001217 0.007202 0.000000 0.000000 0.000000
# 4 0.000000 0.000000 0.000000 -0.312564 0.000000 0.000000
# 5 0.000000 0.000000 0.000000 0.000000 -0.021107 0.000000
# 6 0.000000 0.000000 0.000000 0.000000 0.000000 0.028809
#
#
# Mechanical properties :
#
#
# Convention : Reuss Voigt Hill
#
# Bulk Modulus (GPa) = 30.45789 51.67043 41.06416
# Shear Modulus (GPa) = -22.11594 12.85815 -4.62890
#
# Velocity S-wave (km/s) = -3.14239 2.39605 -1.43762
# Velocity P-wave (km/s) = 0.65809 5.54303 3.94704
#
# Compressibility (1/GPa) = 0.03283221
#
# Stress axis : x y z
#
# Youngs Moduli (GPa) = 36.94009 62.25930 138.85165
#
# Poissons Ratio (x) = -0.00010 1.04634
# Poissons Ratio (y) = -0.00006 0.16901
# Poissons Ratio (z) = 0.27837 0.07578
#
# Static dielectric constant tensor:
#      x y z
#    x 1.754310 0.000000 0.000000 
#    y 0.000000 1.886630 0.000000 
#    z 0.000000 0.000000 1.875560 
# 
# From -- ./inp_files/2369.got.cif
#   From: 2010.05.17/outbox.cif.g08.bks.cpg/sg43_2_cif.got.tgz:2369.got - 2010.06.03 19:21:55.
