data_PCOD9371861
_publ_section_title
;
Structure prediction by ZEFSAII (Michael W. Deem and Ramdas Pophale) SiO2 
 PCOD9371861
Probable space group: F D D 2
;
_chemical_formula_sum "Si O2"
_cell_formula_units_Z 112
_cell_length_a 13.062791
_cell_length_b 34.770024
_cell_length_c 11.246797
_cell_angle_alpha 90.000000
_cell_angle_beta 90.000000
_cell_angle_gamma 90.000000
_cell_volume 5108.222730
_symmetry_space_group_name_H-M "F D D 2"
_symmetry_group_IT_number 43
_symmetry_cell_setting 'orthorhombic'
loop_
_space_group_symop_operation_xyz
x,y,z
-x,-y,z
1/4-x,1/4+y,1/4+z
1/4+x,1/4-y,1/4+z
x,1/2+y,1/2+z
-x,1/2-y,1/2+z
1/4-x,3/4+y,3/4+z
1/4+x,3/4-y,3/4+z
1/2+x,y,1/2+z
1/2-x,-y,1/2+z
3/4-x,1/4+y,3/4+z
3/4+x,1/4-y,3/4+z
1/2+x,1/2+y,z
1/2-x,1/2-y,z
3/4-x,3/4+y,1/4+z
3/4+x,3/4-y,1/4+z
loop_
_atom_site_type_symbol
_atom_site_label
_atom_site_fract_x
_atom_site_fract_y
_atom_site_fract_z
Si Si1 0.504902 0.250000 0.973140
Si Si2 0.584771 0.171571 0.426953
Si Si3 0.309152 0.786676 0.848058
Si Si4 0.466682 0.899939 0.039254
Si Si5 0.966677 0.600060 0.407018
Si Si6 0.584777 0.828428 0.019318
Si Si7 0.690844 0.286676 0.098217
O O1 0.438920 0.283786 0.918423
O O2 0.578787 0.228944 0.879297
O O3 0.438913 0.216214 0.027846
O O4 0.578779 0.271057 0.066992
O O5 0.668006 0.162022 0.326570
O O6 0.481953 0.145869 0.419072
O O7 0.640075 0.160726 0.550907
O O8 0.250000 0.750000 0.790139
O O9 0.311293 0.824953 0.770782
O O10 0.249993 0.793483 0.973134
O O11 0.390081 0.910725 0.145365
O O12 0.481959 0.854131 0.027202
O O13 0.438711 0.925046 0.925491
O O14 0.081988 0.587977 0.369703
O O15 0.750000 0.250000 0.156129
#
# Coordination Sequence:
#
# PCOD9371861 Si02
#       7
#    16  16  16  16  16  16  16
#     4  10  23  43  60 100 124 164 222 263 313 396
#     4  10  24  42  67  97 127 167 225 256 331 375
#     4   9  22  42  63  92 128 169 209 265 322 380
#     4  10  23  44  65  93 130 177 205 277 312 392
#     4  10  23  44  65  93 130 177 205 277 312 392
#     4  10  24  42  67  97 127 167 225 256 331 375
#     4   9  22  42  63  92 128 169 209 265 322 380
#
# _framework density 21.925433999999999
#
# number of rings (size 3 to 8) (size 9 to 14) (size 15 to 20)
#    0.000    2.571    0.000    0.000   12.000    3.429 
#    5.143    0.000    0.000    0.000    0.000    0.000 
#    0.000    0.000    0.000    0.000    0.000    0.000 
#
# Total GULP energy -156453.633265 kJ/mol
# GULP energy per Si atom -5587.629759 kJ/mol
# Density = 2.187553 g / cm^3
# Si number density = 21.925434 Si / 1000 Ang^3
#
#
#
# Elastic Constant Matrix: (Units=GPa)
#
#
# Indices 1 2 3 4 5 6 
#
# 1 46.5858 18.0895 7.8810 0.0000 0.0000 0.0000
# 2 18.0895 123.8695 34.0729 0.0000 0.0000 0.0000
# 3 7.8810 34.0729 62.7044 0.0000 0.0000 0.0000
# 4 0.0000 0.0000 0.0000 -58.3905 0.0000 0.0000
# 5 0.0000 0.0000 0.0000 0.0000 9.9167 0.0000
# 6 0.0000 0.0000 0.0000 0.0000 0.0000 29.0741
#
#
#
# Elastic Compliance Matrix: (Units=1/GPa)
#
#
# Indices 1 2 3 4 5 6 
#
# 1 0.022838 -0.002993 -0.001244 0.000000 0.000000 0.000000
# 2 -0.002993 0.009884 -0.004995 0.000000 0.000000 0.000000
# 3 -0.001244 -0.004995 0.018818 0.000000 0.000000 0.000000
# 4 0.000000 0.000000 0.000000 -0.017126 0.000000 0.000000
# 5 0.000000 0.000000 0.000000 0.000000 0.100840 0.000000
# 6 0.000000 0.000000 0.000000 0.000000 0.000000 0.034395
#
#
# Mechanical properties :
#
#
# Convention : Reuss Voigt Hill
#
# Bulk Modulus (GPa) = 30.23238 39.24962 34.74100
# Shear Modulus (GPa) = 25.10808 7.66114 16.38461
#
# Velocity S-wave (km/s) = 3.38769 1.87130 2.73662
# Velocity P-wave (km/s) = 5.39635 4.75492 5.08576
#
# Compressibility (1/GPa) = 0.03307712
#
# Stress axis : x y z
#
# Youngs Moduli (GPa) = 43.78585 101.17360 53.13989
#
# Poissons Ratio (x) = 0.30282 0.06611
# Poissons Ratio (y) = 0.13105 0.26542
# Poissons Ratio (z) = 0.05447 0.50533
#
# Static dielectric constant tensor:
#      x y z
#    x 1.812520 0.000000 0.000000 
#    y 0.000000 1.875150 0.000000 
#    z 0.000000 0.000000 1.795120 
# 
# From -- ./inp_files/6313.got.cif
#   From: 2010.05.17/outbox.cif.g08.bks.cpg/sg43_4_cif.got.tgz:6313.got - 2010.06.03 19:21:55.
