data_PCOD9371477
_publ_section_title
;
Structure prediction by ZEFSAII (Michael W. Deem and Ramdas Pophale) SiO2 
 PCOD9371477
Probable space group: F D D 2
;
_chemical_formula_sum "Si O2"
_cell_formula_units_Z 80
_cell_length_a 18.031598
_cell_length_b 7.606499
_cell_length_c 22.051480
_cell_angle_alpha 90.000000
_cell_angle_beta 90.000000
_cell_angle_gamma 90.000000
_cell_volume 3024.522167
_symmetry_space_group_name_H-M "F D D 2"
_symmetry_group_IT_number 43
_symmetry_cell_setting 'orthorhombic'
loop_
_space_group_symop_operation_xyz
x,y,z
-x,-y,z
1/4-x,1/4+y,1/4+z
1/4+x,1/4-y,1/4+z
x,1/2+y,1/2+z
-x,1/2-y,1/2+z
1/4-x,3/4+y,3/4+z
1/4+x,3/4-y,3/4+z
1/2+x,y,1/2+z
1/2-x,-y,1/2+z
3/4-x,1/4+y,3/4+z
3/4+x,1/4-y,3/4+z
1/2+x,1/2+y,z
1/2-x,1/2-y,z
3/4-x,3/4+y,1/4+z
3/4+x,3/4-y,1/4+z
loop_
_atom_site_type_symbol
_atom_site_label
_atom_site_fract_x
_atom_site_fract_y
_atom_site_fract_z
Si Si1 0.250000 0.750000 0.100740
Si Si2 0.673402 0.940377 0.703724
Si Si3 0.750000 0.750000 0.389481
Si Si4 0.250000 0.250000 0.804750
Si Si5 0.250000 0.750000 0.657030
Si Si6 0.862783 0.551941 0.319919
Si Si7 0.703747 0.968201 0.490350
O O1 0.315548 0.695142 0.147483
O O2 0.253767 0.589559 0.052051
O O3 0.686259 0.832962 0.763446
O O4 0.743435 0.073154 0.695409
O O5 0.607941 0.075217 0.719577
O O6 0.820309 0.724574 0.345302
O O7 0.757782 0.923624 0.433881
O O8 0.298036 0.410075 0.829625
O O9 0.322364 0.750542 0.615802
O O10 0.907426 0.607340 0.258486
#
# Coordination Sequence:
#
# PCOD9371477 Si02
#       7
#     8  16   8   8   8  16  16
#     4  10  22  40  70 111 143 198 260 322 384 460
#     4  11  23  44  71 107 151 203 258 318 387 468
#     4  11  24  46  78 108 154 213 259 321 390 468
#     4  11  28  43  77 114 152 208 264 321 402 478
#     4  12  24  47  75 109 159 207 259 330 390 462
#     4  12  26  49  75 118 159 205 265 336 389 480
#     4  11  22  45  77 104 150 213 257 317 396 466
#
# _framework density 26.450461000000001
#
# number of rings (size 3 to 8) (size 9 to 14) (size 15 to 20)
#    0.000    0.800    4.000    2.400    2.800    0.000 
#    3.600    1.000    0.000    0.000    0.000    0.000 
#    0.000    0.000    0.000    0.000    0.000    0.000 
#
# Total GULP energy -111378.392926 kJ/mol
# GULP energy per Si atom -5568.919646 kJ/mol
# Density = 2.639026 g / cm^3
# Si number density = 26.450461 Si / 1000 Ang^3
#
#
#
# Elastic Constant Matrix: (Units=GPa)
#
#
# Indices 1 2 3 4 5 6 
#
# 1 103.3111 32.2056 21.1873 0.0000 0.0000 0.0000
# 2 32.2056 92.6378 35.6761 0.0000 0.0000 0.0000
# 3 21.1873 35.6761 82.3251 0.0000 0.0000 0.0000
# 4 0.0000 0.0000 0.0000 29.6091 0.0000 0.0000
# 5 0.0000 0.0000 0.0000 0.0000 121.4907 0.0000
# 6 0.0000 0.0000 0.0000 0.0000 0.0000 44.9470
#
#
#
# Elastic Compliance Matrix: (Units=1/GPa)
#
#
# Indices 1 2 3 4 5 6 
#
# 1 0.010990 -0.003279 -0.001408 0.000000 0.000000 0.000000
# 2 -0.003279 0.013935 -0.005195 0.000000 0.000000 0.000000
# 3 -0.001408 -0.005195 0.014761 0.000000 0.000000 0.000000
# 4 0.000000 0.000000 0.000000 0.033773 0.000000 0.000000
# 5 0.000000 0.000000 0.000000 0.000000 0.008231 0.000000
# 6 0.000000 0.000000 0.000000 0.000000 0.000000 0.022248
#
#
# Mechanical properties :
#
#
# Convention : Reuss Voigt Hill
#
# Bulk Modulus (GPa) = 50.19267 50.71245 50.45256
# Shear Modulus (GPa) = 38.36032 51.82301 45.09166
#
# Velocity S-wave (km/s) = 3.81237 4.43114 4.13335
# Velocity P-wave (km/s) = 6.19647 6.73753 6.47265
#
# Compressibility (1/GPa) = 0.01992323
#
# Stress axis : x y z
#
# Youngs Moduli (GPa) = 90.98963 71.76027 67.74803
#
# Poissons Ratio (x) = 0.23528 0.09536
# Poissons Ratio (y) = 0.29833 0.35196
# Poissons Ratio (z) = 0.12808 0.37280
#
# Static dielectric constant tensor:
#      x y z
#    x 0.995780 0.000000 0.000000 
#    y 0.000000 3.259390 0.000000 
#    z 0.000000 0.000000 2.182840 
# 
# From -- ./inp_files/22314.got.cif
#   From: 2010.05.17/outbox.cif.g08.bks.cpg/sg43_12_cif.got.tgz:22314.got - 2010.06.03 19:21:55.
