data_PCOD9371222
_publ_section_title
;
Structure prediction by ZEFSAII (Michael W. Deem and Ramdas Pophale) SiO2 
 PCOD9371222
Probable space group: F D D 2
;
_chemical_formula_sum "Si O2"
_cell_formula_units_Z 120
_cell_length_a 8.830637
_cell_length_b 25.690554
_cell_length_c 23.620355
_cell_angle_alpha 90.000000
_cell_angle_beta 90.000000
_cell_angle_gamma 90.000000
_cell_volume 5358.607194
_symmetry_space_group_name_H-M "F D D 2"
_symmetry_group_IT_number 43
_symmetry_cell_setting 'orthorhombic'
loop_
_space_group_symop_operation_xyz
x,y,z
-x,-y,z
1/4-x,1/4+y,1/4+z
1/4+x,1/4-y,1/4+z
x,1/2+y,1/2+z
-x,1/2-y,1/2+z
1/4-x,3/4+y,3/4+z
1/4+x,3/4-y,3/4+z
1/2+x,y,1/2+z
1/2-x,-y,1/2+z
3/4-x,1/4+y,3/4+z
3/4+x,1/4-y,3/4+z
1/2+x,1/2+y,z
1/2-x,1/2-y,z
3/4-x,3/4+y,1/4+z
3/4+x,3/4-y,1/4+z
loop_
_atom_site_type_symbol
_atom_site_label
_atom_site_fract_x
_atom_site_fract_y
_atom_site_fract_z
Si Si1 0.711010 0.821093 0.745440
Si Si2 0.828170 0.316593 0.035835
Si Si3 0.592459 0.421785 0.671163
Si Si4 0.524795 0.373384 0.018623
Si Si5 0.505746 0.667320 0.808444
Si Si6 0.228636 0.536930 0.186004
Si Si7 0.250000 0.750000 0.140301
Si Si8 0.301067 0.032920 0.564597
O O1 0.651106 0.878371 0.763670
O O2 0.891786 0.824033 0.753190
O O3 0.680105 0.792951 0.684802
O O4 0.620970 0.786796 0.791855
O O5 0.650532 0.330906 0.033328
O O6 0.846680 0.286632 0.096064
O O7 0.905550 0.282213 0.987306
O O8 0.701772 0.386165 0.707977
O O9 0.620737 0.406604 0.606598
O O10 0.658725 0.480085 0.676053
O O11 0.418978 0.425994 0.691097
O O12 0.374117 0.374311 0.057001
O O13 0.605484 0.429271 0.024227
O O14 0.418302 0.721873 0.817770
O O15 0.310752 0.554438 0.128321
#
# Coordination Sequence:
#
# PCOD9371222 Si02
#       8
#    16  16  16  16  16  16   8  16
#     4  11  23  43  76 102 145 201 256 325 385 467
#     4  11  27  43  69 108 150 207 246 314 406 475
#     4  10  22  40  70 100 133 185 243 322 367 458
#     4  11  25  38  62 104 146 182 245 305 392 465
#     4  11  21  42  66 100 138 183 250 314 381 453
#     4  10  21  44  72  95 141 189 251 303 379 468
#     4  12  26  48  76 114 158 196 270 328 378 484
#     4  10  21  41  69 100 137 191 247 305 384 464
#
# _framework density 22.393879999999999
#
# number of rings (size 3 to 8) (size 9 to 14) (size 15 to 20)
#    0.000    1.333    2.667    2.000    5.600    2.133 
#    0.000    0.000    0.000    3.200    0.000    0.000 
#    0.000    0.000    0.000    0.000    0.000    0.000 
#
# Total GULP energy -167050.437892 kJ/mol
# GULP energy per Si atom -5568.347930 kJ/mol
# Density = 2.234291 g / cm^3
# Si number density = 22.393880 Si / 1000 Ang^3
#
#
#
# Elastic Constant Matrix: (Units=GPa)
#
#
# Indices 1 2 3 4 5 6 
#
# 1 114.9595 25.3643 39.0425 0.0000 0.0000 0.0000
# 2 25.3643 85.5680 38.1640 0.0000 0.0000 0.0000
# 3 39.0425 38.1640 133.6066 0.0000 0.0000 0.0000
# 4 0.0000 0.0000 0.0000 35.2189 0.0000 0.0000
# 5 0.0000 0.0000 0.0000 0.0000 32.7581 0.0000
# 6 0.0000 0.0000 0.0000 0.0000 0.0000 39.5936
#
#
#
# Elastic Compliance Matrix: (Units=1/GPa)
#
#
# Indices 1 2 3 4 5 6 
#
# 1 0.009916 -0.001887 -0.002359 0.000000 0.000000 0.000000
# 2 -0.001887 0.013752 -0.003377 0.000000 0.000000 0.000000
# 3 -0.002359 -0.003377 0.009138 0.000000 0.000000 0.000000
# 4 0.000000 0.000000 0.000000 0.028394 0.000000 0.000000
# 5 0.000000 0.000000 0.000000 0.000000 0.030527 0.000000
# 6 0.000000 0.000000 0.000000 0.000000 0.000000 0.025257
#
#
# Mechanical properties :
#
#
# Convention : Reuss Voigt Hill
#
# Bulk Modulus (GPa) = 56.94322 59.91949 58.43136
# Shear Modulus (GPa) = 36.21010 36.95169 36.58090
#
# Velocity S-wave (km/s) = 4.02551 4.06652 4.04607
# Velocity P-wave (km/s) = 6.86218 6.99028 6.92653
#
# Compressibility (1/GPa) = 0.01756135
#
# Stress axis : x y z
#
# Youngs Moduli (GPa) = 100.84543 72.71608 109.42827
#
# Poissons Ratio (x) = 0.13725 0.25809
# Poissons Ratio (y) = 0.19034 0.36950
# Poissons Ratio (z) = 0.23785 0.24554
#
# Static dielectric constant tensor:
#      x y z
#    x 1.871160 0.000000 0.000000 
#    y 0.000000 1.951360 0.000000 
#    z 0.000000 0.000000 1.863240 
# 
# From -- ./inp_files/20456.got.cif
#   From: 2010.05.17/outbox.cif.g08.bks.cpg/sg43_11_cif.got.tgz:20456.got - 2010.06.03 19:21:55.
