data_PCOD9371911
_publ_section_title
;
Structure prediction by ZEFSAII (Michael W. Deem and Ramdas Pophale) SiO2 
 PCOD9371911
Probable space group: F D D 2
;
_chemical_formula_sum "Si O2"
_cell_formula_units_Z 72
_cell_length_a 23.858213
_cell_length_b 23.494245
_cell_length_c 4.846624
_cell_angle_alpha 90.000000
_cell_angle_beta 90.000000
_cell_angle_gamma 90.000000
_cell_volume 2716.681551
_symmetry_space_group_name_H-M "F D D 2"
_symmetry_group_IT_number 43
_symmetry_cell_setting 'orthorhombic'
loop_
_space_group_symop_operation_xyz
x,y,z
-x,-y,z
1/4-x,1/4+y,1/4+z
1/4+x,1/4-y,1/4+z
x,1/2+y,1/2+z
-x,1/2-y,1/2+z
1/4-x,3/4+y,3/4+z
1/4+x,3/4-y,3/4+z
1/2+x,y,1/2+z
1/2-x,-y,1/2+z
3/4-x,1/4+y,3/4+z
3/4+x,1/4-y,3/4+z
1/2+x,1/2+y,z
1/2-x,1/2-y,z
3/4-x,3/4+y,1/4+z
3/4+x,3/4-y,1/4+z
loop_
_atom_site_type_symbol
_atom_site_label
_atom_site_fract_x
_atom_site_fract_y
_atom_site_fract_z
Si Si1 0.361581 0.209949 0.119600
Si Si2 0.250000 0.250000 0.004869
Si Si3 0.528237 0.269458 0.790660
Si Si4 0.615142 0.112578 0.861865
Si Si5 0.731893 0.633105 0.688480
O O1 0.410138 0.251869 0.213517
O O2 0.370076 0.152235 0.291302
O O3 0.301789 0.233369 0.192635
O O4 0.362523 0.195314 0.798455
O O5 0.266513 0.305193 0.829594
O O6 0.484561 0.233239 0.611069
O O7 0.525271 0.331859 0.659402
O O8 0.548596 0.130323 0.869432
O O9 0.676287 0.135018 0.982615
#
# Coordination Sequence:
#
# PCOD9371911 Si02
#       5
#    16   8  16  16  16
#     4  10  23  45  69 105 147 188 252 303 379 444
#     4  10  24  46  80 112 154 196 262 324 392 452
#     4  11  24  44  71 101 146 193 246 298 374 457
#     4  10  23  44  71 105 150 193 247 312 377 462
#     4  10  24  47  75 111 152 196 258 314 392 453
#
# _framework density 26.502922000000002
#
# number of rings (size 3 to 8) (size 9 to 14) (size 15 to 20)
#    0.000    1.778    0.000    2.667    3.111   14.222 
#    8.000    0.000    0.000    0.000    0.000    0.000 
#    0.000    0.000    0.000    0.000    0.000    0.000 
#
# Total GULP energy -100302.442673 kJ/mol
# GULP energy per Si atom -5572.357926 kJ/mol
# Density = 2.644260 g / cm^3
# Si number density = 26.502922 Si / 1000 Ang^3
#
#
#
# Elastic Constant Matrix: (Units=GPa)
#
#
# Indices 1 2 3 4 5 6 
#
# 1 266.0641 42.3449 23.0453 -0.1455 0.0384 0.1058
# 2 42.3449 94.6805 27.3149 -0.0985 0.2284 0.0808
# 3 23.0453 27.3149 54.8767 -0.2905 0.1461 0.1543
# 4 -0.1455 -0.0985 -0.2905 32.4968 0.0926 0.0790
# 5 0.0384 0.2284 0.1461 0.0926 13.9814 -0.0577
# 6 0.1058 0.0808 0.1543 0.0790 -0.0577 46.1993
#
#
#
# Elastic Compliance Matrix: (Units=1/GPa)
#
#
# Indices 1 2 3 4 5 6 
#
# 1 0.004088 -0.001557 -0.000942 0.000005 0.000024 -0.000003
# 2 -0.001557 0.012926 -0.005780 -0.000019 -0.000146 0.000000
# 3 -0.000942 -0.005780 0.021497 0.000171 -0.000129 -0.000060
# 4 0.000005 -0.000019 0.000171 0.030774 -0.000206 -0.000053
# 5 0.000024 -0.000146 -0.000129 -0.000206 0.071529 0.000090
# 6 -0.000003 0.000000 -0.000060 -0.000053 0.000090 0.021646
#
#
# Mechanical properties :
#
#
# Convention : Reuss Voigt Hill
#
# Bulk Modulus (GPa) = 45.55080 66.78130 56.16605
# Shear Modulus (GPa) = 26.83356 40.06325 33.44841
#
# Velocity S-wave (km/s) = 3.18539 3.89222 3.55641
# Velocity P-wave (km/s) = 5.54557 6.74178 6.17272
#
# Compressibility (1/GPa) = 0.02195351
#
# Stress axis : x y z
#
# Youngs Moduli (GPa) = 244.62997 77.36476 46.51905
#
# Poissons Ratio (x) = 0.12042 0.04382
# Poissons Ratio (y) = 0.38078 0.26887
# Poissons Ratio (z) = 0.23042 0.44716
#
# Static dielectric constant tensor:
#      x y z
#    x 2.358360 -0.000030 -0.000100 
#    y -0.000030 2.120510 -0.000070 
#    z -0.000100 -0.000070 1.972760 
# 
# From -- ./inp_files/887.got.cif
#   From: 2010.05.17/outbox.cif.g08.bks.cpg/sg43_1_cif.got.tgz:887.got - 2010.06.03 19:21:55.
