data_PCOD9371902
_publ_section_title
;
Structure prediction by ZEFSAII (Michael W. Deem and Ramdas Pophale) SiO2 
 PCOD9371902
Probable space group: F D D 2
;
_chemical_formula_sum "Si O2"
_cell_formula_units_Z 112
_cell_length_a 13.869584
_cell_length_b 14.930174
_cell_length_c 24.235499
_cell_angle_alpha 90.000000
_cell_angle_beta 90.000000
_cell_angle_gamma 90.000000
_cell_volume 5018.573285
_symmetry_space_group_name_H-M "F D D 2"
_symmetry_group_IT_number 43
_symmetry_cell_setting 'orthorhombic'
loop_
_space_group_symop_operation_xyz
x,y,z
-x,-y,z
1/4-x,1/4+y,1/4+z
1/4+x,1/4-y,1/4+z
x,1/2+y,1/2+z
-x,1/2-y,1/2+z
1/4-x,3/4+y,3/4+z
1/4+x,3/4-y,3/4+z
1/2+x,y,1/2+z
1/2-x,-y,1/2+z
3/4-x,1/4+y,3/4+z
3/4+x,1/4-y,3/4+z
1/2+x,1/2+y,z
1/2-x,1/2-y,z
3/4-x,3/4+y,1/4+z
3/4+x,3/4-y,1/4+z
loop_
_atom_site_type_symbol
_atom_site_label
_atom_site_fract_x
_atom_site_fract_y
_atom_site_fract_z
Si Si1 0.102722 0.619884 0.721010
Si Si2 0.354206 0.760920 0.164759
Si Si3 0.500000 0.500000 0.912166
Si Si4 0.314154 0.175466 0.873260
Si Si5 0.685073 0.006974 0.023830
Si Si6 0.027800 0.318752 0.566810
Si Si7 0.616461 0.827630 0.068293
Si Si8 0.500000 0.500000 0.127034
O O1 0.188743 0.680732 0.697787
O O2 0.145005 0.555984 0.768494
O O3 0.064718 0.558011 0.670513
O O4 0.027127 0.689619 0.749640
O O5 0.250000 0.750000 0.139395
O O6 0.384343 0.863433 0.166940
O O7 0.358168 0.721478 0.225493
O O8 0.434024 0.722091 0.124215
O O9 0.572939 0.553904 0.872680
O O10 0.250000 0.250000 0.902321
O O11 0.398030 0.206105 0.831895
O O12 0.231962 0.130125 0.834562
O O13 0.681051 0.898894 0.033818
O O14 0.029518 0.422613 0.583841
O O15 0.928206 0.269022 0.549790
#
# Coordination Sequence:
#
# PCOD9371902 Si02
#       8
#    16  16   8  16  16  16  16   8
#     4  12  27  43  78 106 146 201 248 312 388 460
#     4  11  21  38  66 100 135 175 233 295 362 435
#     4  12  25  50  66 100 150 190 249 296 388 464
#     4   9  20  41  64  92 133 173 226 288 357 427
#     4  11  23  45  71 100 141 182 242 303 371 443
#     4  11  25  45  69 104 146 190 248 307 381 455
#     4  10  23  44  68  95 138 189 236 305 368 453
#     4  12  25  48  72 108 152 196 257 318 388 464
#
# _framework density 22.3171
#
# number of rings (size 3 to 8) (size 9 to 14) (size 15 to 20)
#    0.000    1.143    2.857    3.429    7.000    2.286 
#    6.429    0.000    0.000    0.000    0.000    0.000 
#    0.000    0.000    0.000    0.000    0.000    0.000 
#
# Total GULP energy -155919.094779 kJ/mol
# GULP energy per Si atom -5568.539099 kJ/mol
# Density = 2.226631 g / cm^3
# Si number density = 22.317100 Si / 1000 Ang^3
#
#
#
# Elastic Constant Matrix: (Units=GPa)
#
#
# Indices 1 2 3 4 5 6 
#
# 1 80.6524 29.5788 4.9204 0.0000 0.0000 0.0000
# 2 29.5788 74.5355 0.5916 0.0000 0.0000 0.0000
# 3 4.9204 0.5916 54.8220 0.0000 0.0000 0.0000
# 4 0.0000 0.0000 0.0000 20.8098 0.0000 0.0000
# 5 0.0000 0.0000 0.0000 0.0000 43.5835 0.0000
# 6 0.0000 0.0000 0.0000 0.0000 0.0000 34.2525
#
#
#
# Elastic Compliance Matrix: (Units=1/GPa)
#
#
# Indices 1 2 3 4 5 6 
#
# 1 0.014596 -0.005782 -0.001248 0.000000 0.000000 0.000000
# 2 -0.005782 0.015708 0.000349 0.000000 0.000000 0.000000
# 3 -0.001248 0.000349 0.018349 0.000000 0.000000 0.000000
# 4 0.000000 0.000000 0.000000 0.048054 0.000000 0.000000
# 5 0.000000 0.000000 0.000000 0.000000 0.022944 0.000000
# 6 0.000000 0.000000 0.000000 0.000000 0.000000 0.029195
#
#
# Mechanical properties :
#
#
# Convention : Reuss Voigt Hill
#
# Bulk Modulus (GPa) = 28.33488 31.13238 29.73363
# Shear Modulus (GPa) = 28.74038 31.39046 30.06542
#
# Velocity S-wave (km/s) = 3.59251 3.75449 3.67439
# Velocity P-wave (km/s) = 5.47104 5.72496 5.59944
#
# Compressibility (1/GPa) = 0.03529219
#
# Stress axis : x y z
#
# Youngs Moduli (GPa) = 68.51382 63.66074 54.49877
#
# Poissons Ratio (x) = 0.36810 0.06799
# Poissons Ratio (y) = 0.39616 -0.01904
# Poissons Ratio (z) = 0.08548 -0.02225
#
# Static dielectric constant tensor:
#      x y z
#    x 1.810300 0.000000 0.000000 
#    y 0.000000 2.041290 0.000000 
#    z 0.000000 0.000000 1.768680 
# 
# From -- ./inp_files/21763.got.cif
#   From: 2010.05.17/outbox.cif.g08.bks.cpg/sg43_11_cif.got.tgz:21763.got - 2010.06.03 19:21:55.
