data_PCOD9371652
_publ_section_title
;
Structure prediction by ZEFSAII (Michael W. Deem and Ramdas Pophale) SiO2 
 PCOD9371652
Probable space group: F D D 2
;
_chemical_formula_sum "Si O2"
_cell_formula_units_Z 96
_cell_length_a 9.816263
_cell_length_b 24.192048
_cell_length_c 17.079547
_cell_angle_alpha 90.000000
_cell_angle_beta 90.000000
_cell_angle_gamma 90.000000
_cell_volume 4055.974061
_symmetry_space_group_name_H-M "F D D 2"
_symmetry_group_IT_number 43
_symmetry_cell_setting 'orthorhombic'
loop_
_space_group_symop_operation_xyz
x,y,z
-x,-y,z
1/4-x,1/4+y,1/4+z
1/4+x,1/4-y,1/4+z
x,1/2+y,1/2+z
-x,1/2-y,1/2+z
1/4-x,3/4+y,3/4+z
1/4+x,3/4-y,3/4+z
1/2+x,y,1/2+z
1/2-x,-y,1/2+z
3/4-x,1/4+y,3/4+z
3/4+x,1/4-y,3/4+z
1/2+x,1/2+y,z
1/2-x,1/2-y,z
3/4-x,3/4+y,1/4+z
3/4+x,3/4-y,1/4+z
loop_
_atom_site_type_symbol
_atom_site_label
_atom_site_fract_x
_atom_site_fract_y
_atom_site_fract_z
Si Si1 0.943162 0.739860 0.250000
Si Si2 0.153018 0.172057 0.664905
Si Si3 0.209170 0.157145 0.186674
Si Si4 0.652203 0.593607 0.804690
Si Si5 0.750000 0.750000 0.979116
Si Si6 0.721817 0.533652 0.181236
Si Si7 0.250000 0.750000 0.044960
O O1 0.907063 0.798365 0.208371
O O2 0.836408 0.692415 0.221308
O O3 0.935146 0.737632 0.343918
O O4 0.088941 0.720131 0.219210
O O5 0.188769 0.124466 0.725138
O O6 0.256848 0.197996 0.603850
O O7 0.027946 0.150816 0.611893
O O8 0.260644 0.140644 0.098648
O O9 0.180378 0.094915 0.212594
O O10 0.604970 0.532329 0.783351
O O11 0.638207 0.715723 0.931366
O O12 0.631506 0.496036 0.239624
#
# Coordination Sequence:
#
# PCOD9371652 Si02
#       7
#    16  16  16  16   8  16   8
#     4  10  22  44  73 111 143 193 255 306 365 453
#     4  11  24  47  69 106 148 190 243 306 375 440
#     4  10  22  43  75 104 146 192 251 300 368 452
#     4  11  22  45  74 106 140 193 245 300 362 456
#     4  12  24  43  75 102 144 192 248 292 364 447
#     4  12  26  46  74 107 148 200 249 309 376 448
#     4  12  28  49  65 106 160 182 232 320 382 435
#
# _framework density 23.668790999999999
#
# number of rings (size 3 to 8) (size 9 to 14) (size 15 to 20)
#    0.000    1.000    3.333    5.000    0.000    2.000 
#    6.000    0.000    0.000    0.000    0.000    0.000 
#    0.000    0.000    0.000    0.000    0.000    0.000 
#
# Total GULP energy -133688.966123 kJ/mol
# GULP energy per Si atom -5570.373588 kJ/mol
# Density = 2.361492 g / cm^3
# Si number density = 23.668791 Si / 1000 Ang^3
#
#
#
# Elastic Constant Matrix: (Units=GPa)
#
#
# Indices 1 2 3 4 5 6 
#
# 1 60.3789 -1.6236 31.0062 0.0000 0.0000 0.0000
# 2 -1.6236 67.1380 30.9978 0.0000 0.0000 0.0000
# 3 31.0062 30.9978 148.3758 0.0000 0.0000 0.0000
# 4 0.0000 0.0000 0.0000 16.7067 0.0000 0.0000
# 5 0.0000 0.0000 0.0000 0.0000 -6.1747 0.0000
# 6 0.0000 0.0000 0.0000 0.0000 0.0000 17.5497
#
#
#
# Elastic Compliance Matrix: (Units=1/GPa)
#
#
# Indices 1 2 3 4 5 6 
#
# 1 0.018933 0.002528 -0.004485 0.000000 0.000000 0.000000
# 2 0.002528 0.016822 -0.004043 0.000000 0.000000 0.000000
# 3 -0.004485 -0.004043 0.008521 0.000000 0.000000 0.000000
# 4 0.000000 0.000000 0.000000 0.059856 0.000000 0.000000
# 5 0.000000 0.000000 0.000000 0.000000 -0.161951 0.000000
# 6 0.000000 0.000000 0.000000 0.000000 0.000000 0.056981
#
#
# Mechanical properties :
#
#
# Convention : Reuss Voigt Hill
#
# Bulk Modulus (GPa) = 30.98006 44.07261 37.52634
# Shear Modulus (GPa) = 228.09851 19.98384 124.04117
#
# Velocity S-wave (km/s) = 9.82752 2.90886 7.24713
# Velocity P-wave (km/s) = 11.91180 5.47201 9.26914
#
# Compressibility (1/GPa) = 0.03227882
#
# Stress axis : x y z
#
# Youngs Moduli (GPa) = 52.81760 59.44450 117.35140
#
# Poissons Ratio (x) = -0.15030 0.52629
# Poissons Ratio (y) = -0.13355 0.47443
# Poissons Ratio (z) = 0.23687 0.24032
#
# Static dielectric constant tensor:
#      x y z
#    x 2.893980 0.000000 0.000000 
#    y 0.000000 2.179280 0.000000 
#    z 0.000000 0.000000 2.053500 
# 
# From -- ./inp_files/13336.got.cif
#   From: 2010.05.17/outbox.cif.g08.bks.cpg/sg43_7_cif.got.tgz:13336.got - 2010.06.03 19:21:55.
