data_PCOD9371559
_publ_section_title
;
Structure prediction by ZEFSAII (Michael W. Deem and Ramdas Pophale) SiO2 
 PCOD9371559
Probable space group: F D D 2
;
_chemical_formula_sum "Si O2"
_cell_formula_units_Z 48
_cell_length_a 10.503384
_cell_length_b 14.697454
_cell_length_c 12.451653
_cell_angle_alpha 90.000000
_cell_angle_beta 90.000000
_cell_angle_gamma 90.000000
_cell_volume 1922.199068
_symmetry_space_group_name_H-M "F D D 2"
_symmetry_group_IT_number 43
_symmetry_cell_setting 'orthorhombic'
loop_
_space_group_symop_operation_xyz
x,y,z
-x,-y,z
1/4-x,1/4+y,1/4+z
1/4+x,1/4-y,1/4+z
x,1/2+y,1/2+z
-x,1/2-y,1/2+z
1/4-x,3/4+y,3/4+z
1/4+x,3/4-y,3/4+z
1/2+x,y,1/2+z
1/2-x,-y,1/2+z
3/4-x,1/4+y,3/4+z
3/4+x,1/4-y,3/4+z
1/2+x,1/2+y,z
1/2-x,1/2-y,z
3/4-x,3/4+y,1/4+z
3/4+x,3/4-y,1/4+z
loop_
_atom_site_type_symbol
_atom_site_label
_atom_site_fract_x
_atom_site_fract_y
_atom_site_fract_z
Si Si1 0.940703 0.591324 0.463010
Si Si2 0.416869 0.077188 0.069288
Si Si3 0.701583 0.503496 0.354116
O O1 0.052632 0.637990 0.393804
O O2 0.167821 0.445777 0.385551
O O3 0.000000 0.500000 0.517045
O O4 0.880604 0.668760 0.538199
O O5 0.506939 0.162602 0.042081
O O6 0.500000 0.000000 0.128147
O O7 0.362550 0.030901 0.962788
#
# Coordination Sequence:
#
# PCOD9371559 Si02
#       3
#    16  16  16
#     4  10  22  42  66  94 131 174 221 277 338 402
#     4  11  24  43  69  99 134 181 231 283 340 406
#     4  11  24  43  67  97 133 175 224 280 340 406
#
# _framework density 24.971398000000001
#
# number of rings (size 3 to 8) (size 9 to 14) (size 15 to 20)
#    0.000    1.333    0.000    6.000    0.000   10.667 
#    0.000    0.000    0.000    0.000    0.000    0.000 
#    0.000    0.000    0.000    0.000    0.000    0.000 
#
# Total GULP energy -67240.158371 kJ/mol
# GULP energy per Si atom -5603.346531 kJ/mol
# Density = 2.491456 g / cm^3
# Si number density = 24.971398 Si / 1000 Ang^3
#
#
#
# Elastic Constant Matrix: (Units=GPa)
#
#
# Indices 1 2 3 4 5 6 
#
# 1 70.6182 37.3991 12.9325 0.0000 0.0000 0.0000
# 2 37.3991 199.5634 66.5108 0.0000 0.0000 0.0000
# 3 12.9325 66.5108 88.4702 0.0000 0.0000 0.0000
# 4 0.0000 0.0000 0.0000 57.0482 0.0000 0.0000
# 5 0.0000 0.0000 0.0000 0.0000 26.8092 0.0000
# 6 0.0000 0.0000 0.0000 0.0000 0.0000 52.9420
#
#
#
# Elastic Compliance Matrix: (Units=1/GPa)
#
#
# Indices 1 2 3 4 5 6 
#
# 1 0.015722 -0.002909 -0.000111 0.000000 0.000000 0.000000
# 2 -0.002909 0.007225 -0.005006 0.000000 0.000000 0.000000
# 3 -0.000111 -0.005006 0.015083 0.000000 0.000000 0.000000
# 4 0.000000 0.000000 0.000000 0.017529 0.000000 0.000000
# 5 0.000000 0.000000 0.000000 0.000000 0.037301 0.000000
# 6 0.000000 0.000000 0.000000 0.000000 0.000000 0.018889
#
#
# Mechanical properties :
#
#
# Convention : Reuss Voigt Hill
#
# Bulk Modulus (GPa) = 45.50310 65.81516 55.65913
# Shear Modulus (GPa) = 37.00255 43.48052 40.24153
#
# Velocity S-wave (km/s) = 3.85359 4.17731 4.01871
# Velocity P-wave (km/s) = 6.16943 7.04840 6.62351
#
# Compressibility (1/GPa) = 0.02197652
#
# Stress axis : x y z
#
# Youngs Moduli (GPa) = 63.60609 138.41607 66.29997
#
# Poissons Ratio (x) = 0.40270 0.00736
# Poissons Ratio (y) = 0.18505 0.33190
# Poissons Ratio (z) = 0.00706 0.69292
#
# Static dielectric constant tensor:
#      x y z
#    x 2.011750 0.000000 0.000000 
#    y 0.000000 2.011880 0.000000 
#    z 0.000000 0.000000 1.945700 
# 
# From -- ./inp_files/2475.got.cif
#   From: 2010.05.17/outbox.cif.g08.bks.cpg/sg43_2_cif.got.tgz:2475.got - 2010.06.03 19:21:55.
