data_PCOD9371486
_publ_section_title
;
Structure prediction by ZEFSAII (Michael W. Deem and Ramdas Pophale) SiO2 
 PCOD9371486
Probable space group: F D D 2
;
_chemical_formula_sum "Si O2"
_cell_formula_units_Z 112
_cell_length_a 14.026827
_cell_length_b 16.577021
_cell_length_c 24.366130
_cell_angle_alpha 90.000000
_cell_angle_beta 90.000000
_cell_angle_gamma 90.000000
_cell_volume 5665.685786
_symmetry_space_group_name_H-M "F D D 2"
_symmetry_group_IT_number 43
_symmetry_cell_setting 'orthorhombic'
loop_
_space_group_symop_operation_xyz
x,y,z
-x,-y,z
1/4-x,1/4+y,1/4+z
1/4+x,1/4-y,1/4+z
x,1/2+y,1/2+z
-x,1/2-y,1/2+z
1/4-x,3/4+y,3/4+z
1/4+x,3/4-y,3/4+z
1/2+x,y,1/2+z
1/2-x,-y,1/2+z
3/4-x,1/4+y,3/4+z
3/4+x,1/4-y,3/4+z
1/2+x,1/2+y,z
1/2-x,1/2-y,z
3/4-x,3/4+y,1/4+z
3/4+x,3/4-y,1/4+z
loop_
_atom_site_type_symbol
_atom_site_label
_atom_site_fract_x
_atom_site_fract_y
_atom_site_fract_z
Si Si1 0.522229 0.404788 0.705100
Si Si2 0.736791 0.346184 0.686645
Si Si3 0.861244 0.151081 0.158782
Si Si4 0.412715 0.562831 0.267570
Si Si5 0.445462 0.085628 0.323354
Si Si6 0.972160 0.671716 0.549588
Si Si7 0.594623 0.906243 0.889474
O O1 0.500000 0.500000 0.708649
O O2 0.627817 0.378090 0.686500
O O3 0.516139 0.372598 0.767913
O O4 0.442238 0.375031 0.663870
O O5 0.750000 0.250000 0.685454
O O6 0.785323 0.378578 0.631050
O O7 0.783565 0.371732 0.743722
O O8 0.910992 0.116929 0.213180
O O9 0.915005 0.133438 0.101161
O O10 0.752339 0.121090 0.164576
O O11 0.851157 0.248052 0.153035
O O12 0.500000 0.500000 0.264183
O O13 0.320371 0.507751 0.280976
O O14 0.420331 0.609785 0.324919
O O15 0.332889 0.071518 0.315944
O O16 0.500000 0.000000 0.325685
#
# Coordination Sequence:
#
# PCOD9371486 Si02
#       7
#    16  16  16  16  16  16  16
#     4  10  23  43  65  93 129 168 216 273 317 391
#     4  10  23  40  63  95 126 168 216 262 330 386
#     4  10  23  40  67  89 126 175 202 270 329 385
#     4  11  23  41  65  92 125 174 217 260 336 394
#     4   9  21  38  63  88 122 172 206 254 333 376
#     4  10  22  41  60  93 131 163 219 271 320 398
#     4  10  22  45  61  94 130 162 219 265 324 392
#
# _framework density 19.768127
#
# number of rings (size 3 to 8) (size 9 to 14) (size 15 to 20)
#    0.000    2.000    2.857    0.000   16.000    0.571 
#    7.714    0.000    0.000    0.000    0.000    0.000 
#    0.000    0.000    0.000    0.000    0.000    0.000 
#
# Total GULP energy -155925.987649 kJ/mol
# GULP energy per Si atom -5568.785273 kJ/mol
# Density = 1.972313 g / cm^3
# Si number density = 19.768127 Si / 1000 Ang^3
#
#
#
# Elastic Constant Matrix: (Units=GPa)
#
#
# Indices 1 2 3 4 5 6 
#
# 1 81.6361 14.7152 58.4028 0.0000 0.0000 0.0000
# 2 14.7152 22.9926 29.4793 0.0000 0.0000 0.0000
# 3 58.4028 29.4793 169.8674 0.0000 0.0000 0.0000
# 4 0.0000 0.0000 0.0000 44.3135 0.0000 0.0000
# 5 0.0000 0.0000 0.0000 0.0000 36.7899 0.0000
# 6 0.0000 0.0000 0.0000 0.0000 0.0000 28.6198
#
#
#
# Elastic Compliance Matrix: (Units=1/GPa)
#
#
# Indices 1 2 3 4 5 6 
#
# 1 0.016561 -0.004243 -0.004958 0.000000 0.000000 0.000000
# 2 -0.004243 0.057026 -0.008438 0.000000 0.000000 0.000000
# 3 -0.004958 -0.008438 0.009056 0.000000 0.000000 0.000000
# 4 0.000000 0.000000 0.000000 0.022567 0.000000 0.000000
# 5 0.000000 0.000000 0.000000 0.000000 0.027181 0.000000
# 6 0.000000 0.000000 0.000000 0.000000 0.000000 0.034941
#
#
# Mechanical properties :
#
#
# Convention : Reuss Voigt Hill
#
# Bulk Modulus (GPa) = 21.11199 53.29897 37.20548
# Shear Modulus (GPa) = 22.89419 33.40456 28.14937
#
# Velocity S-wave (km/s) = 3.40683 4.11520 3.77766
# Velocity P-wave (km/s) = 5.11648 7.04276 6.15544
#
# Compressibility (1/GPa) = 0.04736646
#
# Stress axis : x y z
#
# Youngs Moduli (GPa) = 60.38313 17.53591 110.42720
#
# Poissons Ratio (x) = 0.07440 0.54745
# Poissons Ratio (y) = 0.25619 0.93175
# Poissons Ratio (z) = 0.29935 0.14796
#
# Static dielectric constant tensor:
#      x y z
#    x 1.757090 0.000000 0.000000 
#    y 0.000000 1.676400 0.000000 
#    z 0.000000 0.000000 1.753790 
# 
# From -- ./inp_files/21746.got.cif
#   From: 2010.05.17/outbox.cif.g08.bks.cpg/sg43_11_cif.got.tgz:21746.got - 2010.06.03 19:21:55.
