data_PCOD9371027
_publ_section_title
;
Structure prediction by ZEFSAII (Michael W. Deem and Ramdas Pophale) SiO2 
 PCOD9371027
Probable space group: F D D 2
;
_chemical_formula_sum "Si O2"
_cell_formula_units_Z 96
_cell_length_a 23.005404
_cell_length_b 12.470513
_cell_length_c 15.839673
_cell_angle_alpha 90.000000
_cell_angle_beta 90.000000
_cell_angle_gamma 90.000000
_cell_volume 4544.230951
_symmetry_space_group_name_H-M "F D D 2"
_symmetry_group_IT_number 43
_symmetry_cell_setting 'orthorhombic'
loop_
_space_group_symop_operation_xyz
x,y,z
-x,-y,z
1/4-x,1/4+y,1/4+z
1/4+x,1/4-y,1/4+z
x,1/2+y,1/2+z
-x,1/2-y,1/2+z
1/4-x,3/4+y,3/4+z
1/4+x,3/4-y,3/4+z
1/2+x,y,1/2+z
1/2-x,-y,1/2+z
3/4-x,1/4+y,3/4+z
3/4+x,1/4-y,3/4+z
1/2+x,1/2+y,z
1/2-x,1/2-y,z
3/4-x,3/4+y,1/4+z
3/4+x,3/4-y,1/4+z
loop_
_atom_site_type_symbol
_atom_site_label
_atom_site_fract_x
_atom_site_fract_y
_atom_site_fract_z
Si Si1 0.860764 0.463400 0.621740
Si Si2 0.594287 0.309155 0.063429
Si Si3 0.190033 0.187843 0.843849
Si Si4 0.981001 0.877138 0.144160
Si Si5 0.261194 0.436616 0.002599
Si Si6 0.612930 0.624732 0.695548
O O1 0.855931 0.485342 0.721039
O O2 0.877550 0.573623 0.574915
O O3 0.914677 0.381624 0.613851
O O4 0.801089 0.419019 0.583462
O O5 0.525500 0.324554 0.078354
O O6 0.616140 0.228990 0.135566
O O7 0.250000 0.250000 0.822624
O O8 0.205283 0.110114 0.921109
O O9 0.164146 0.128741 0.762966
O O10 0.144854 0.274249 0.883033
O O11 0.991846 0.812570 0.230542
O O12 0.000000 0.000000 0.155777
O O13 0.197743 0.384547 0.998159
#
# Coordination Sequence:
#
# PCOD9371027 Si02
#       6
#    16  16  16  16  16  16
#     4  11  20  37  61  94 120 170 206 262 326 382
#     4  10  21  37  62  86 131 159 217 264 319 383
#     4  10  23  43  66  93 131 172 219 270 324 392
#     4   9  20  38  59  87 127 161 204 269 312 375
#     4  10  22  39  64  92 130 165 216 266 326 387
#     4  10  22  44  61  93 129 171 215 275 320 389
#
# _framework density 21.125688
#
# number of rings (size 3 to 8) (size 9 to 14) (size 15 to 20)
#    0.000    2.000    1.667    1.000    2.333    1.333 
#    9.000    8.333    0.000    0.000    0.000    0.000 
#    0.000    0.000    0.000    0.000    0.000    0.000 
#
# Total GULP energy -134052.925920 kJ/mol
# GULP energy per Si atom -5585.538580 kJ/mol
# Density = 2.107760 g / cm^3
# Si number density = 21.125688 Si / 1000 Ang^3
#
#
#
# Elastic Constant Matrix: (Units=GPa)
#
#
# Indices 1 2 3 4 5 6 
#
# 1 45.1576 -12.2017 35.1631 0.0000 0.0000 0.0000
# 2 -12.2017 38.1593 -8.7983 0.0000 0.0000 0.0000
# 3 35.1631 -8.7983 76.0229 0.0000 0.0000 0.0000
# 4 0.0000 0.0000 0.0000 13.7805 0.0000 0.0000
# 5 0.0000 0.0000 0.0000 0.0000 36.1960 0.0000
# 6 0.0000 0.0000 0.0000 0.0000 0.0000 15.2942
#
#
#
# Elastic Compliance Matrix: (Units=1/GPa)
#
#
# Indices 1 2 3 4 5 6 
#
# 1 0.036883 0.008076 -0.016125 0.000000 0.000000 0.000000
# 2 0.008076 0.028693 -0.000415 0.000000 0.000000 0.000000
# 3 -0.016125 -0.000415 0.020564 0.000000 0.000000 0.000000
# 4 0.000000 0.000000 0.000000 0.072566 0.000000 0.000000
# 5 0.000000 0.000000 0.000000 0.000000 0.027627 0.000000
# 6 0.000000 0.000000 0.000000 0.000000 0.000000 0.065384
#
#
# Mechanical properties :
#
#
# Convention : Reuss Voigt Hill
#
# Bulk Modulus (GPa) = 14.44838 20.85179 17.65009
# Shear Modulus (GPa) = 17.13998 22.73259 19.93629
#
# Velocity S-wave (km/s) = 2.85148 3.28390 3.07530
# Velocity P-wave (km/s) = 4.20659 4.92650 4.58071
#
# Compressibility (1/GPa) = 0.06921189
#
# Stress axis : x y z
#
# Youngs Moduli (GPa) = 27.11294 34.85219 48.62814
#
# Poissons Ratio (x) = -0.28145 0.78412
# Poissons Ratio (y) = -0.21895 0.02016
# Poissons Ratio (z) = 0.43719 0.01445
#
# Static dielectric constant tensor:
#      x y z
#    x 1.801940 0.000000 0.000000 
#    y 0.000000 1.809500 0.000000 
#    z 0.000000 0.000000 1.719420 
# 
# From -- ./inp_files/14830.got.cif
#   From: 2010.05.17/outbox.cif.g08.bks.cpg/sg43_8_cif.got.tgz:14830.got - 2010.06.03 19:21:55.
