data_PCOD9371209
_publ_section_title
;
Structure prediction by ZEFSAII (Michael W. Deem and Ramdas Pophale) SiO2 
 PCOD9371209
Probable space group: F D D 2
;
_chemical_formula_sum "Si O2"
_cell_formula_units_Z 104
_cell_length_a 8.809171
_cell_length_b 24.353750
_cell_length_c 23.810022
_cell_angle_alpha 90.000000
_cell_angle_beta 90.000000
_cell_angle_gamma 90.000000
_cell_volume 5108.115171
_symmetry_space_group_name_H-M "F D D 2"
_symmetry_group_IT_number 43
_symmetry_cell_setting 'orthorhombic'
loop_
_space_group_symop_operation_xyz
x,y,z
-x,-y,z
1/4-x,1/4+y,1/4+z
1/4+x,1/4-y,1/4+z
x,1/2+y,1/2+z
-x,1/2-y,1/2+z
1/4-x,3/4+y,3/4+z
1/4+x,3/4-y,3/4+z
1/2+x,y,1/2+z
1/2-x,-y,1/2+z
3/4-x,1/4+y,3/4+z
3/4+x,1/4-y,3/4+z
1/2+x,1/2+y,z
1/2-x,1/2-y,z
3/4-x,3/4+y,1/4+z
3/4+x,3/4-y,1/4+z
loop_
_atom_site_type_symbol
_atom_site_label
_atom_site_fract_x
_atom_site_fract_y
_atom_site_fract_z
Si Si1 0.798542 0.927960 0.601060
Si Si2 0.794916 0.952652 0.089141
Si Si3 0.295059 0.056429 0.727260
Si Si4 0.912488 0.151434 0.586388
Si Si5 0.448992 0.573879 0.003296
Si Si6 0.250000 0.750000 0.654365
Si Si7 0.608993 0.811662 0.463835
O O1 0.733358 0.925232 0.663889
O O2 0.677801 0.917292 0.551252
O O3 0.934469 0.883561 0.601520
O O4 0.816916 0.994540 0.591064
O O5 0.713839 0.894666 0.090685
O O6 0.883846 0.951758 0.148091
O O7 0.907307 0.951793 0.036194
O O8 0.188296 0.084977 0.771456
O O9 0.473136 0.065668 0.739509
O O10 0.271232 0.991478 0.734887
O O11 0.856027 0.206690 0.619506
O O12 0.405620 0.537989 0.948537
O O13 0.481952 0.633709 0.977560
#
# Coordination Sequence:
#
# PCOD9371209 Si02
#       7
#    16  16  16  16  16   8  16
#     4  11  23  44  71  98 129 185 236 287 340 422
#     4  11  23  41  69  99 135 184 230 287 350 425
#     4  10  23  41  67  96 134 176 237 281 341 419
#     4  12  27  44  63 103 146 173 231 292 361 411
#     4  12  22  43  72  96 137 182 236 287 352 425
#     4  12  28  44  66 108 142 188 226 298 370 418
#     4  10  21  41  66  99 130 181 231 283 347 423
#
# _framework density 20.359759
#
# number of rings (size 3 to 8) (size 9 to 14) (size 15 to 20)
#    0.000    0.923    6.154    0.462    4.308    0.000 
#    2.769    0.000    0.000    0.000    0.000    0.000 
#    0.000    0.000    0.000    0.000    0.000    0.000 
#
# Total GULP energy -144770.357413 kJ/mol
# GULP energy per Si atom -5568.090670 kJ/mol
# Density = 2.031342 g / cm^3
# Si number density = 20.359759 Si / 1000 Ang^3
#
#
#
# Elastic Constant Matrix: (Units=GPa)
#
#
# Indices 1 2 3 4 5 6 
#
# 1 68.9070 41.7574 32.2831 0.0000 0.0000 0.0000
# 2 41.7574 129.3502 49.0437 0.0000 0.0000 0.0000
# 3 32.2831 49.0437 104.8856 0.0000 0.0000 0.0000
# 4 0.0000 0.0000 0.0000 35.3629 0.0000 0.0000
# 5 0.0000 0.0000 0.0000 0.0000 62.2932 0.0000
# 6 0.0000 0.0000 0.0000 0.0000 0.0000 17.0610
#
#
#
# Elastic Compliance Matrix: (Units=1/GPa)
#
#
# Indices 1 2 3 4 5 6 
#
# 1 0.019124 -0.004791 -0.003646 0.000000 0.000000 0.000000
# 2 -0.004791 0.010597 -0.003481 0.000000 0.000000 0.000000
# 3 -0.003646 -0.003481 0.012284 0.000000 0.000000 0.000000
# 4 0.000000 0.000000 0.000000 0.028278 0.000000 0.000000
# 5 0.000000 0.000000 0.000000 0.000000 0.016053 0.000000
# 6 0.000000 0.000000 0.000000 0.000000 0.000000 0.058613
#
#
# Mechanical properties :
#
#
# Convention : Reuss Voigt Hill
#
# Bulk Modulus (GPa) = 55.03647 61.03457 58.03552
# Shear Modulus (GPa) = 28.59732 34.94733 31.77233
#
# Velocity S-wave (km/s) = 3.75187 4.14755 3.95466
# Velocity P-wave (km/s) = 6.77195 7.27869 7.02989
#
# Compressibility (1/GPa) = 0.01816977
#
# Stress axis : x y z
#
# Youngs Moduli (GPa) = 52.29059 94.36313 81.40799
#
# Poissons Ratio (x) = 0.45213 0.29680
# Poissons Ratio (y) = 0.25054 0.28334
# Poissons Ratio (z) = 0.19064 0.32843
#
# Static dielectric constant tensor:
#      x y z
#    x 1.130740 0.000000 0.000000 
#    y 0.000000 1.790570 0.000000 
#    z 0.000000 0.000000 1.725930 
# 
# From -- ./inp_files/16569.got.cif
#   From: 2010.05.17/outbox.cif.g08.bks.cpg/sg43_9_cif.got.tgz:16569.got - 2010.06.03 19:21:55.
