data_PCOD9371751
_publ_section_title
;
Structure prediction by ZEFSAII (Michael W. Deem and Ramdas Pophale) SiO2 
 PCOD9371751
Probable space group: F D D 2
;
_chemical_formula_sum "Si O2"
_cell_formula_units_Z 80
_cell_length_a 4.946089
_cell_length_b 27.908328
_cell_length_c 22.122130
_cell_angle_alpha 90.000000
_cell_angle_beta 90.000000
_cell_angle_gamma 90.000000
_cell_volume 3053.674099
_symmetry_space_group_name_H-M "F D D 2"
_symmetry_group_IT_number 43
_symmetry_cell_setting 'orthorhombic'
loop_
_space_group_symop_operation_xyz
x,y,z
-x,-y,z
1/4-x,1/4+y,1/4+z
1/4+x,1/4-y,1/4+z
x,1/2+y,1/2+z
-x,1/2-y,1/2+z
1/4-x,3/4+y,3/4+z
1/4+x,3/4-y,3/4+z
1/2+x,y,1/2+z
1/2-x,-y,1/2+z
3/4-x,1/4+y,3/4+z
3/4+x,1/4-y,3/4+z
1/2+x,1/2+y,z
1/2-x,1/2-y,z
3/4-x,3/4+y,1/4+z
3/4+x,3/4-y,1/4+z
loop_
_atom_site_type_symbol
_atom_site_label
_atom_site_fract_x
_atom_site_fract_y
_atom_site_fract_z
Si Si1 0.852625 0.418264 0.756530
Si Si2 0.416809 0.646782 0.681275
Si Si3 0.000000 0.000000 0.314681
Si Si4 0.500000 0.500000 0.108827
Si Si5 0.250000 0.750000 0.442178
Si Si6 0.000000 0.000000 0.894107
Si Si7 0.991680 0.849512 0.814406
O O1 0.857306 0.380596 0.702771
O O2 0.086318 0.453572 0.776862
O O3 0.638437 0.457669 0.730353
O O4 0.737867 0.387226 0.811458
O O5 0.359141 0.702775 0.675849
O O6 0.456089 0.619564 0.617060
O O7 0.596973 0.644510 0.743388
O O8 0.752678 0.983945 0.354518
O O9 0.751953 0.482277 0.149692
O O10 0.363246 0.453917 0.075356
#
# Coordination Sequence:
#
# PCOD9371751 Si02
#       7
#    16  16   8   8   8   8  16
#     4  10  24  43  74 104 148 193 252 306 376 460
#     4  10  22  46  71 110 146 199 245 311 379 451
#     4  12  25  46  74 106 144 201 250 308 376 457
#     4  12  24  48  73 106 153 191 251 316 376 455
#     4  12  25  46  74 106 144 201 250 308 376 457
#     4  12  24  48  73 106 153 191 251 316 376 455
#     4  10  22  46  71 110 146 199 245 311 379 451
#
# _framework density 26.197948
#
# number of rings (size 3 to 8) (size 9 to 14) (size 15 to 20)
#    1.200    0.000    4.000    1.800    0.000    1.600 
#    0.000    8.000    0.000    0.000    0.000    0.000 
#    0.000    0.000    0.000    0.000    0.000    0.000 
#
# Total GULP energy -111394.248745 kJ/mol
# GULP energy per Si atom -5569.712437 kJ/mol
# Density = 2.613832 g / cm^3
# Si number density = 26.197948 Si / 1000 Ang^3
#
#
#
# Elastic Constant Matrix: (Units=GPa)
#
#
# Indices 1 2 3 4 5 6 
#
# 1 75.7464 -11.5537 26.5988 0.0000 0.0000 0.0000
# 2 -11.5537 193.3453 53.2599 0.0000 0.0000 0.0000
# 3 26.5988 53.2599 160.8404 0.0000 0.0000 0.0000
# 4 0.0000 0.0000 0.0000 28.9613 0.0000 0.0000
# 5 0.0000 0.0000 0.0000 0.0000 13.0554 0.0000
# 6 0.0000 0.0000 0.0000 0.0000 0.0000 25.7057
#
#
#
# Elastic Compliance Matrix: (Units=1/GPa)
#
#
# Indices 1 2 3 4 5 6 
#
# 1 0.014495 0.001680 -0.002953 0.000000 0.000000 0.000000
# 2 0.001680 0.005886 -0.002227 0.000000 0.000000 0.000000
# 3 -0.002953 -0.002227 0.007443 0.000000 0.000000 0.000000
# 4 0.000000 0.000000 0.000000 0.034529 0.000000 0.000000
# 5 0.000000 0.000000 0.000000 0.000000 0.076597 0.000000
# 6 0.000000 0.000000 0.000000 0.000000 0.000000 0.038902
#
#
# Mechanical properties :
#
#
# Convention : Reuss Voigt Hill
#
# Bulk Modulus (GPa) = 48.02291 62.94913 55.48602
# Shear Modulus (GPa) = 26.06970 37.65296 31.86133
#
# Velocity S-wave (km/s) = 3.15795 3.79522 3.49116
# Velocity P-wave (km/s) = 5.62738 6.57916 6.12180
#
# Compressibility (1/GPa) = 0.02082340
#
# Stress axis : x y z
#
# Youngs Moduli (GPa) = 68.98814 169.89827 134.35222
#
# Poissons Ratio (x) = -0.28538 0.39679
# Poissons Ratio (y) = -0.11588 0.29918
# Poissons Ratio (z) = 0.20375 0.37833
#
# Static dielectric constant tensor:
#      x y z
#    x 2.021310 0.000000 0.000000 
#    y 0.000000 2.133580 0.000000 
#    z 0.000000 0.000000 2.213710 
# 
# From -- ./inp_files/19538.got.cif
#   From: 2010.05.17/outbox.cif.g08.bks.cpg/sg43_10_cif.got.tgz:19538.got - 2010.06.03 19:21:55.
