data_PCOD9371709
_publ_section_title
;
Structure prediction by ZEFSAII (Michael W. Deem and Ramdas Pophale) SiO2 
 PCOD9371709
Probable space group: F D D 2
;
_chemical_formula_sum "Si O2"
_cell_formula_units_Z 64
_cell_length_a 14.204422
_cell_length_b 18.809202
_cell_length_c 8.627622
_cell_angle_alpha 90.000000
_cell_angle_beta 90.000000
_cell_angle_gamma 90.000000
_cell_volume 2305.074923
_symmetry_space_group_name_H-M "F D D 2"
_symmetry_group_IT_number 43
_symmetry_cell_setting 'orthorhombic'
loop_
_space_group_symop_operation_xyz
x,y,z
-x,-y,z
1/4-x,1/4+y,1/4+z
1/4+x,1/4-y,1/4+z
x,1/2+y,1/2+z
-x,1/2-y,1/2+z
1/4-x,3/4+y,3/4+z
1/4+x,3/4-y,3/4+z
1/2+x,y,1/2+z
1/2-x,-y,1/2+z
3/4-x,1/4+y,3/4+z
3/4+x,1/4-y,3/4+z
1/2+x,1/2+y,z
1/2-x,1/2-y,z
3/4-x,3/4+y,1/4+z
3/4+x,3/4-y,1/4+z
loop_
_atom_site_type_symbol
_atom_site_label
_atom_site_fract_x
_atom_site_fract_y
_atom_site_fract_z
Si Si1 0.962029 0.232890 0.700970
Si Si2 0.044750 0.071888 0.076137
Si Si3 0.610192 0.018911 0.119024
Si Si4 0.108075 0.122959 0.368150
O O1 0.897166 0.166776 0.757711
O O2 0.919216 0.239295 0.528062
O O3 0.928229 0.299803 0.812148
O O4 0.072223 0.229193 0.741906
O O5 0.054148 0.067315 0.261205
O O6 0.966027 0.130879 0.061265
O O7 0.000000 0.000000 0.010770
O O8 0.500000 0.000000 0.135619
O O9 0.605051 0.098416 0.043946
#
# Coordination Sequence:
#
# PCOD9371709 Si02
#       4
#    16  16  16  16
#     4  11  26  51  76 120 167 207 275 349 406 496
#     4  10  22  44  75 107 157 204 265 335 401 486
#     4  12  26  52  83 117 163 214 278 342 410 501
#     4  11  22  47  77 111 157 214 264 334 419 473
#
# _framework density 27.764825999999999
#
# number of rings (size 3 to 8) (size 9 to 14) (size 15 to 20)
#    0.000    1.000    2.500    4.500    0.000    2.000 
#    9.000    1.250    0.000    0.000    0.000    0.000 
#    0.000    0.000    0.000    0.000    0.000    0.000 
#
# Total GULP energy -89237.071048 kJ/mol
# GULP energy per Si atom -5577.316940 kJ/mol
# Density = 2.770163 g / cm^3
# Si number density = 27.764826 Si / 1000 Ang^3
#
#
#
# Elastic Constant Matrix: (Units=GPa)
#
#
# Indices 1 2 3 4 5 6 
#
# 1 228.5103 36.1798 99.1094 0.0000 0.0000 0.0000
# 2 36.1798 50.5028 73.6654 0.0000 0.0000 0.0000
# 3 99.1094 73.6654 166.1314 0.0000 0.0000 0.0000
# 4 0.0000 0.0000 0.0000 43.5682 0.0000 0.0000
# 5 0.0000 0.0000 0.0000 0.0000 49.7726 0.0000
# 6 0.0000 0.0000 0.0000 0.0000 0.0000 50.0894
#
#
#
# Elastic Compliance Matrix: (Units=1/GPa)
#
#
# Indices 1 2 3 4 5 6 
#
# 1 0.006024 0.002623 -0.004757 0.000000 0.000000 0.000000
# 2 0.002623 0.057201 -0.026929 0.000000 0.000000 0.000000
# 3 -0.004757 -0.026929 0.020798 0.000000 0.000000 0.000000
# 4 0.000000 0.000000 0.000000 0.022952 0.000000 0.000000
# 5 0.000000 0.000000 0.000000 0.000000 0.020091 0.000000
# 6 0.000000 0.000000 0.000000 0.000000 0.000000 0.019964
#
#
# Mechanical properties :
#
#
# Convention : Reuss Voigt Hill
#
# Bulk Modulus (GPa) = 38.61346 95.89485 67.25415
# Shear Modulus (GPa) = 23.38760 44.43204 33.90982
#
# Velocity S-wave (km/s) = 2.90547 4.00471 3.49853
# Velocity P-wave (km/s) = 5.01928 7.48311 6.37142
#
# Compressibility (1/GPa) = 0.02589770
#
# Stress axis : x y z
#
# Youngs Moduli (GPa) = 166.00256 17.48220 48.08226
#
# Poissons Ratio (x) = -0.04585 0.22872
# Poissons Ratio (y) = -0.43541 1.29479
# Poissons Ratio (z) = 0.78964 0.47077
#
# Static dielectric constant tensor:
#      x y z
#    x 2.247910 0.000000 0.000000 
#    y 0.000000 2.272140 0.000000 
#    z 0.000000 0.000000 2.201620 
# 
# From -- ./inp_files/2254.got.cif
#   From: 2010.05.17/outbox.cif.g08.bks.cpg/sg43_2_cif.got.tgz:2254.got - 2010.06.03 19:21:55.
