data_PCOD9371513
_publ_section_title
;
Structure prediction by ZEFSAII (Michael W. Deem and Ramdas Pophale) SiO2 
 PCOD9371513
Probable space group: F D D 2
;
_chemical_formula_sum "Si O2"
_cell_formula_units_Z 80
_cell_length_a 24.585376
_cell_length_b 12.746966
_cell_length_c 10.760483
_cell_angle_alpha 90.000000
_cell_angle_beta 90.000000
_cell_angle_gamma 90.000000
_cell_volume 3372.216490
_symmetry_space_group_name_H-M "F D D 2"
_symmetry_group_IT_number 43
_symmetry_cell_setting 'orthorhombic'
loop_
_space_group_symop_operation_xyz
x,y,z
-x,-y,z
1/4-x,1/4+y,1/4+z
1/4+x,1/4-y,1/4+z
x,1/2+y,1/2+z
-x,1/2-y,1/2+z
1/4-x,3/4+y,3/4+z
1/4+x,3/4-y,3/4+z
1/2+x,y,1/2+z
1/2-x,-y,1/2+z
3/4-x,1/4+y,3/4+z
3/4+x,1/4-y,3/4+z
1/2+x,1/2+y,z
1/2-x,1/2-y,z
3/4-x,3/4+y,1/4+z
3/4+x,3/4-y,1/4+z
loop_
_atom_site_type_symbol
_atom_site_label
_atom_site_fract_x
_atom_site_fract_y
_atom_site_fract_z
Si Si1 0.657063 0.519744 0.129490
Si Si2 0.197252 0.314601 0.939329
Si Si3 0.796777 0.678891 0.512467
Si Si4 0.653785 0.609716 0.850081
Si Si5 0.746097 0.521191 0.315389
O O1 0.598785 0.520147 0.195322
O O2 0.705423 0.567143 0.213088
O O3 0.677279 0.402229 0.107427
O O4 0.655097 0.574931 0.994943
O O5 0.250000 0.250000 0.982127
O O6 0.169585 0.231724 0.844393
O O7 0.214578 0.426056 0.883778
O O8 0.154806 0.336114 0.047122
O O9 0.750000 0.750000 0.570684
O O10 0.764661 0.610867 0.409391
O O11 0.697849 0.537700 0.776975
#
# Coordination Sequence:
#
# PCOD9371513 Si02
#       5
#    16  16  16  16  16
#     4  11  24  43  67  99 131 169 221 270 327 392
#     4  10  23  42  66  96 131 174 219 266 327 392
#     4  11  25  43  66  95 130 172 214 267 327 387
#     4  10  22  41  67  97 130 174 218 268 327 391
#     4  10  24  43  64  95 132 171 218 271 328 390
#
# _framework density 23.723268999999998
#
# number of rings (size 3 to 8) (size 9 to 14) (size 15 to 20)
#    0.000    1.600    0.000    3.600    0.000   17.600 
#    0.000    0.000    0.000    0.000    0.000    0.000 
#    0.000    0.000    0.000    0.000    0.000    0.000 
#
# Total GULP energy -111971.664971 kJ/mol
# GULP energy per Si atom -5598.583249 kJ/mol
# Density = 2.366927 g / cm^3
# Si number density = 23.723269 Si / 1000 Ang^3
#
#
#
# Elastic Constant Matrix: (Units=GPa)
#
#
# Indices 1 2 3 4 5 6 
#
# 1 146.9000 34.0847 64.1955 0.0000 0.0000 0.0000
# 2 34.0847 75.6194 14.0827 0.0000 0.0000 0.0000
# 3 64.1955 14.0827 58.4875 0.0000 0.0000 0.0000
# 4 0.0000 0.0000 0.0000 16.0796 0.0000 0.0000
# 5 0.0000 0.0000 0.0000 0.0000 -0.9413 0.0000
# 6 0.0000 0.0000 0.0000 0.0000 0.0000 31.0422
#
#
#
# Elastic Compliance Matrix: (Units=1/GPa)
#
#
# Indices 1 2 3 4 5 6 
#
# 1 0.013960 -0.003600 -0.014455 0.000000 0.000000 0.000000
# 2 -0.003600 0.014773 0.000394 0.000000 0.000000 0.000000
# 3 -0.014455 0.000394 0.032868 0.000000 0.000000 0.000000
# 4 0.000000 0.000000 0.000000 0.062191 0.000000 0.000000
# 5 0.000000 0.000000 0.000000 0.000000 -1.062353 0.000000
# 6 0.000000 0.000000 0.000000 0.000000 0.000000 0.032214
#
#
# Mechanical properties :
#
#
# Convention : Reuss Voigt Hill
#
# Bulk Modulus (GPa) = 38.05221 56.19253 47.12237
# Shear Modulus (GPa) = -5.79868 20.47903 7.34017
#
# Velocity S-wave (km/s) = -1.56512 2.94129 1.76091
# Velocity P-wave (km/s) = 3.57893 5.93911 4.90315
#
# Compressibility (1/GPa) = 0.02627968
#
# Stress axis : x y z
#
# Youngs Moduli (GPa) = 71.63553 67.68919 30.42430
#
# Poissons Ratio (x) = 0.24369 0.43978
# Poissons Ratio (y) = 0.25790 -0.01200
# Poissons Ratio (z) = 1.03550 -0.02669
#
# Static dielectric constant tensor:
#      x y z
#    x 1.891460 0.000000 0.000000 
#    y 0.000000 1.936570 0.000000 
#    z 0.000000 0.000000 1.909310 
# 
# From -- ./inp_files/6069.got.cif
#   From: 2010.05.17/outbox.cif.g08.bks.cpg/sg43_4_cif.got.tgz:6069.got - 2010.06.03 19:21:55.
