data_PCOD9371739
_publ_section_title
;
Structure prediction by ZEFSAII (Michael W. Deem and Ramdas Pophale) SiO2 
 PCOD9371739
Probable space group: F D D 2
;
_chemical_formula_sum "Si O2"
_cell_formula_units_Z 88
_cell_length_a 17.187575
_cell_length_b 16.448045
_cell_length_c 13.093915
_cell_angle_alpha 90.000000
_cell_angle_beta 90.000000
_cell_angle_gamma 90.000000
_cell_volume 3701.676051
_symmetry_space_group_name_H-M "F D D 2"
_symmetry_group_IT_number 43
_symmetry_cell_setting 'orthorhombic'
loop_
_space_group_symop_operation_xyz
x,y,z
-x,-y,z
1/4-x,1/4+y,1/4+z
1/4+x,1/4-y,1/4+z
x,1/2+y,1/2+z
-x,1/2-y,1/2+z
1/4-x,3/4+y,3/4+z
1/4+x,3/4-y,3/4+z
1/2+x,y,1/2+z
1/2-x,-y,1/2+z
3/4-x,1/4+y,3/4+z
3/4+x,1/4-y,3/4+z
1/2+x,1/2+y,z
1/2-x,1/2-y,z
3/4-x,3/4+y,1/4+z
3/4+x,3/4-y,1/4+z
loop_
_atom_site_type_symbol
_atom_site_label
_atom_site_fract_x
_atom_site_fract_y
_atom_site_fract_z
Si Si1 0.250000 0.250000 0.310880
Si Si2 0.439096 0.675266 0.529938
Si Si3 0.644965 0.763825 0.493079
Si Si4 0.975199 0.134952 0.313691
Si Si5 0.963197 0.813542 0.737867
Si Si6 0.485177 0.833346 0.461669
O O1 0.324506 0.267607 0.383308
O O2 0.276491 0.174366 0.244802
O O3 0.492973 0.653513 0.431870
O O4 0.660868 0.686246 0.563734
O O5 0.363757 0.618102 0.513271
O O6 0.419909 0.769847 0.501172
O O7 0.797657 0.660436 0.513466
O O8 0.515939 0.832456 0.138003
O O9 0.561301 0.797506 0.514301
O O10 0.949650 0.215918 0.253585
O O11 0.008719 0.830694 0.843349
#
# Coordination Sequence:
#
# PCOD9371739 Si02
#       6
#     8  16  16  16  16  16
#     4  10  24  42  70 100 138 182 240 306 362 440
#     4  11  24  50  72 106 149 191 242 305 367 450
#     4  10  22  45  73 106 132 185 256 302 352 437
#     4   9  22  46  76 106 137 195 242 309 359 431
#     4  11  26  48  74 107 155 189 241 299 384 449
#     4  11  26  44  74  99 142 193 239 303 368 438
#
# _framework density 23.773014
#
# number of rings (size 3 to 8) (size 9 to 14) (size 15 to 20)
#    0.000    1.818    0.000    3.273    7.636    1.455 
#   29.455    0.000    0.000    0.000    0.000    0.000 
#    0.000    0.000    0.000    0.000    0.000    0.000 
#
# Total GULP energy -122692.484567 kJ/mol
# GULP energy per Si atom -5576.931117 kJ/mol
# Density = 2.371891 g / cm^3
# Si number density = 23.773014 Si / 1000 Ang^3
#
#
#
# Elastic Constant Matrix: (Units=GPa)
#
#
# Indices 1 2 3 4 5 6 
#
# 1 47.7350 39.8259 23.8931 0.0000 0.0000 0.0000
# 2 39.8259 187.6750 57.7187 0.0000 0.0000 0.0000
# 3 23.8931 57.7187 160.8669 0.0000 0.0000 0.0000
# 4 0.0000 0.0000 0.0000 38.6961 0.0000 0.0000
# 5 0.0000 0.0000 0.0000 0.0000 11.4977 0.0000
# 6 0.0000 0.0000 0.0000 0.0000 0.0000 32.6764
#
#
#
# Elastic Compliance Matrix: (Units=1/GPa)
#
#
# Indices 1 2 3 4 5 6 
#
# 1 0.026085 -0.004883 -0.002122 0.000000 0.000000 0.000000
# 2 -0.004883 0.006903 -0.001752 0.000000 0.000000 0.000000
# 3 -0.002122 -0.001752 0.007160 0.000000 0.000000 0.000000
# 4 0.000000 0.000000 0.000000 0.025842 0.000000 0.000000
# 5 0.000000 0.000000 0.000000 0.000000 0.086974 0.000000
# 6 0.000000 0.000000 0.000000 0.000000 0.000000 0.030603
#
#
# Mechanical properties :
#
#
# Convention : Reuss Voigt Hill
#
# Bulk Modulus (GPa) = 44.17982 71.01692 57.59837
# Shear Modulus (GPa) = 23.96633 34.89667 29.43150
#
# Velocity S-wave (km/s) = 3.17855 3.83549 3.52237
# Velocity P-wave (km/s) = 5.66527 7.03935 6.38935
#
# Compressibility (1/GPa) = 0.02263477
#
# Stress axis : x y z
#
# Youngs Moduli (GPa) = 38.33615 144.86016 139.66388
#
# Poissons Ratio (x) = 0.70731 0.29643
# Poissons Ratio (y) = 0.18718 0.24464
# Poissons Ratio (z) = 0.08137 0.25374
#
# Static dielectric constant tensor:
#      x y z
#    x 2.002510 0.000000 0.000000 
#    y 0.000000 1.951120 0.000000 
#    z 0.000000 0.000000 1.970140 
# 
# From -- ./inp_files/14206.got.cif
#   From: 2010.05.17/outbox.cif.g08.bks.cpg/sg43_8_cif.got.tgz:14206.got - 2010.06.03 19:21:55.
