data_PCOD9371941
_publ_section_title
;
Structure prediction by ZEFSAII (Michael W. Deem and Ramdas Pophale) SiO2 
 PCOD9371941
Probable space group: F D D 2
;
_chemical_formula_sum "Si O2"
_cell_formula_units_Z 72
_cell_length_a 26.261745
_cell_length_b 17.769493
_cell_length_c 6.964033
_cell_angle_alpha 90.000000
_cell_angle_beta 90.000000
_cell_angle_gamma 90.000000
_cell_volume 3249.820973
_symmetry_space_group_name_H-M "F D D 2"
_symmetry_group_IT_number 43
_symmetry_cell_setting 'orthorhombic'
loop_
_space_group_symop_operation_xyz
x,y,z
-x,-y,z
1/4-x,1/4+y,1/4+z
1/4+x,1/4-y,1/4+z
x,1/2+y,1/2+z
-x,1/2-y,1/2+z
1/4-x,3/4+y,3/4+z
1/4+x,3/4-y,3/4+z
1/2+x,y,1/2+z
1/2-x,-y,1/2+z
3/4-x,1/4+y,3/4+z
3/4+x,1/4-y,3/4+z
1/2+x,1/2+y,z
1/2-x,1/2-y,z
3/4-x,3/4+y,1/4+z
3/4+x,3/4-y,1/4+z
loop_
_atom_site_type_symbol
_atom_site_label
_atom_site_fract_x
_atom_site_fract_y
_atom_site_fract_z
Si Si1 0.500000 0.500000 0.100150
Si Si2 0.158231 0.188684 0.607444
Si Si3 0.603130 0.765613 0.928951
Si Si4 0.513836 0.161775 0.500914
Si Si5 0.679366 0.985736 0.583338
O O1 0.453619 0.526308 0.234651
O O2 0.514464 0.573102 0.977895
O O3 0.164379 0.099872 0.635868
O O4 0.149748 0.235468 0.803646
O O5 0.106283 0.197003 0.486326
O O6 0.557828 0.705899 0.886774
O O7 0.607283 0.762593 0.159730
O O8 0.530311 0.182578 0.720434
O O9 0.460808 0.197633 0.433679
#
# Coordination Sequence:
#
# PCOD9371941 Si02
#       5
#     8  16  16  16  16
#     4  12  26  40  74 106 140 188 234 302 338 428
#     4  12  24  48  69 102 144 184 241 288 356 412
#     4  10  27  43  73 102 137 191 227 294 352 425
#     4  10  23  46  71 103 140 183 228 290 359 409
#     4  10  23  45  73 100 141 183 235 292 347 431
#
# _framework density 22.155066999999999
#
# number of rings (size 3 to 8) (size 9 to 14) (size 15 to 20)
#    1.333    0.000    0.000    5.333    3.111    1.778 
#    0.000    1.111    0.000    0.000    0.000    0.000 
#    0.000    0.000    0.000    0.000    0.000    0.000 
#
# Total GULP energy -100516.835603 kJ/mol
# GULP energy per Si atom -5584.268645 kJ/mol
# Density = 2.210464 g / cm^3
# Si number density = 22.155067 Si / 1000 Ang^3
#
#
#
# Elastic Constant Matrix: (Units=GPa)
#
#
# Indices 1 2 3 4 5 6 
#
# 1 52.0114 23.0671 28.3588 0.0000 0.0000 0.0000
# 2 23.0671 158.1941 26.6620 -0.0002 -0.0001 0.0001
# 3 28.3588 26.6620 90.9379 -0.0004 -0.0003 0.0002
# 4 0.0000 -0.0002 -0.0004 25.1641 -0.0001 0.0001
# 5 0.0000 -0.0001 -0.0003 -0.0001 7.9932 0.0000
# 6 0.0000 0.0001 0.0002 0.0001 0.0000 27.0843
#
#
#
# Elastic Compliance Matrix: (Units=1/GPa)
#
#
# Indices 1 2 3 4 5 6 
#
# 1 0.023969 -0.002351 -0.006785 0.000000 0.000000 0.000000
# 2 -0.002351 0.006881 -0.001284 0.000000 0.000000 0.000000
# 3 -0.006785 -0.001284 0.013489 0.000000 0.000000 0.000000
# 4 0.000000 0.000000 0.000000 0.039739 0.000000 0.000000
# 5 0.000000 0.000000 0.000000 0.000000 0.125107 0.000000
# 6 0.000000 0.000000 0.000000 0.000000 0.000000 0.036922
#
#
# Mechanical properties :
#
#
# Convention : Reuss Voigt Hill
#
# Bulk Modulus (GPa) = 42.55844 50.81324 46.68584
# Shear Modulus (GPa) = 18.19637 26.91868 22.55753
#
# Velocity S-wave (km/s) = 2.86898 3.48948 3.19433
# Velocity P-wave (km/s) = 5.49779 6.26262 5.89263
#
# Compressibility (1/GPa) = 0.02349710
#
# Stress axis : x y z
#
# Youngs Moduli (GPa) = 41.72053 145.33537 74.13473
#
# Poissons Ratio (x) = 0.34175 0.50302
# Poissons Ratio (y) = 0.09810 0.09519
# Poissons Ratio (z) = 0.28308 0.18662
#
# Static dielectric constant tensor:
#      x y z
#    x 1.812430 0.000000 0.000000 
#    y 0.000000 1.799220 0.000000 
#    z 0.000000 0.000000 1.839550 
# 
# From -- ./inp_files/4644.got.cif
#   From: 2010.05.17/outbox.cif.g08.bks.cpg/sg43_3_cif.got.tgz:4644.got - 2010.06.03 19:21:55.
