data_PCOD9371740
_publ_section_title
;
Structure prediction by ZEFSAII (Michael W. Deem and Ramdas Pophale) SiO2 
 PCOD9371740
Probable space group: F D D 2
;
_chemical_formula_sum "Si O2"
_cell_formula_units_Z 112
_cell_length_a 23.843611
_cell_length_b 13.987076
_cell_length_c 14.580169
_cell_angle_alpha 90.000000
_cell_angle_beta 90.000000
_cell_angle_gamma 90.000000
_cell_volume 4862.521342
_symmetry_space_group_name_H-M "F D D 2"
_symmetry_group_IT_number 43
_symmetry_cell_setting 'orthorhombic'
loop_
_space_group_symop_operation_xyz
x,y,z
-x,-y,z
1/4-x,1/4+y,1/4+z
1/4+x,1/4-y,1/4+z
x,1/2+y,1/2+z
-x,1/2-y,1/2+z
1/4-x,3/4+y,3/4+z
1/4+x,3/4-y,3/4+z
1/2+x,y,1/2+z
1/2-x,-y,1/2+z
3/4-x,1/4+y,3/4+z
3/4+x,1/4-y,3/4+z
1/2+x,1/2+y,z
1/2-x,1/2-y,z
3/4-x,3/4+y,1/4+z
3/4+x,3/4-y,1/4+z
loop_
_atom_site_type_symbol
_atom_site_label
_atom_site_fract_x
_atom_site_fract_y
_atom_site_fract_z
Si Si1 0.077179 0.643961 0.788780
Si Si2 0.000000 0.500000 0.880609
Si Si3 0.551920 0.805958 0.157563
Si Si4 0.393644 0.093913 0.919170
Si Si5 0.171954 0.355533 0.081205
Si Si6 0.524723 0.734180 0.968694
Si Si7 0.643764 0.471641 0.218869
Si Si8 0.000000 0.000000 0.711444
O O1 0.056834 0.744512 0.749091
O O2 0.112082 0.573873 0.721730
O O3 0.117692 0.662279 0.876451
O O4 0.021332 0.585934 0.817425
O O5 0.945681 0.523864 0.938997
O O6 0.614565 0.838627 0.133760
O O7 0.513290 0.901015 0.159195
O O8 0.534567 0.732521 0.077403
O O9 0.425363 0.194953 0.933259
O O10 0.373771 0.076924 0.815386
O O11 0.345851 0.078434 0.994442
O O12 0.216436 0.394041 0.153623
O O13 0.196918 0.265350 0.027646
O O14 0.460911 0.768636 0.962415
#
# Coordination Sequence:
#
# PCOD9371740 Si02
#       8
#    16   8  16  16  16  16  16   8
#     4  11  26  45  74 106 152 189 253 297 376 436
#     4  10  22  45  73 106 144 190 232 315 357 432
#     4  11  26  47  73 107 147 193 249 305 370 452
#     4  10  23  42  70 105 143 185 246 294 369 434
#     4  11  26  43  73 105 144 194 242 306 367 446
#     4  11  24  42  72 104 146 186 246 299 373 433
#     4  11  25  44  71 106 146 195 238 312 365 444
#     4  12  26  49  75 104 152 198 246 309 377 438
#
# _framework density 23.033318000000001
#
# number of rings (size 3 to 8) (size 9 to 14) (size 15 to 20)
#    0.000    1.143    1.429    3.429   10.000    4.571 
#    0.000    0.714    0.000    0.000    0.000    0.000 
#    0.000    0.000    0.000    0.000    0.000    0.000 
#
# Total GULP energy -156309.312663 kJ/mol
# GULP energy per Si atom -5582.475452 kJ/mol
# Density = 2.298089 g / cm^3
# Si number density = 23.033318 Si / 1000 Ang^3
#
#
#
# Elastic Constant Matrix: (Units=GPa)
#
#
# Indices 1 2 3 4 5 6 
#
# 1 92.4225 11.1099 15.2095 0.0000 0.0000 0.0000
# 2 11.1099 55.0734 38.2145 0.0000 0.0000 0.0000
# 3 15.2095 38.2145 92.6689 0.0000 0.0000 0.0000
# 4 0.0000 0.0000 0.0000 35.1419 0.0000 0.0000
# 5 0.0000 0.0000 0.0000 0.0000 31.3216 0.0000
# 6 0.0000 0.0000 0.0000 0.0000 0.0000 36.3965
#
#
#
# Elastic Compliance Matrix: (Units=1/GPa)
#
#
# Indices 1 2 3 4 5 6 
#
# 1 0.011194 -0.001378 -0.001269 0.000000 0.000000 0.000000
# 2 -0.001378 0.025605 -0.010333 0.000000 0.000000 0.000000
# 3 -0.001269 -0.010333 0.015260 0.000000 0.000000 0.000000
# 4 0.000000 0.000000 0.000000 0.028456 0.000000 0.000000
# 5 0.000000 0.000000 0.000000 0.000000 0.031927 0.000000
# 6 0.000000 0.000000 0.000000 0.000000 0.000000 0.027475
#
#
# Mechanical properties :
#
#
# Convention : Reuss Voigt Hill
#
# Bulk Modulus (GPa) = 38.31308 41.02584 39.66946
# Shear Modulus (GPa) = 28.64050 32.28072 30.46061
#
# Velocity S-wave (km/s) = 3.53007 3.74769 3.64051
# Velocity P-wave (km/s) = 5.76932 6.04790 5.91025
#
# Compressibility (1/GPa) = 0.02610075
#
# Stress axis : x y z
#
# Youngs Moduli (GPa) = 89.33085 39.05436 65.52869
#
# Poissons Ratio (x) = 0.05380 0.08317
# Poissons Ratio (y) = 0.12305 0.67710
# Poissons Ratio (z) = 0.11338 0.40355
#
# Static dielectric constant tensor:
#      x y z
#    x 1.852240 0.000000 0.000000 
#    y 0.000000 1.948150 0.000000 
#    z 0.000000 0.000000 1.920820 
# 
# From -- ./inp_files/10222.got.cif
#   From: 2010.05.17/outbox.cif.g08.bks.cpg/sg43_6_cif.got.tgz:10222.got - 2010.06.03 19:21:55.
