data_PCOD9371305
_publ_section_title
;
Structure prediction by ZEFSAII (Michael W. Deem and Ramdas Pophale) SiO2 
 PCOD9371305
Probable space group: F D D 2
;
_chemical_formula_sum "Si O2"
_cell_formula_units_Z 72
_cell_length_a 16.630819
_cell_length_b 12.957918
_cell_length_c 14.092197
_cell_angle_alpha 90.000000
_cell_angle_beta 90.000000
_cell_angle_gamma 90.000000
_cell_volume 3036.879570
_symmetry_space_group_name_H-M "F D D 2"
_symmetry_group_IT_number 43
_symmetry_cell_setting 'orthorhombic'
loop_
_space_group_symop_operation_xyz
x,y,z
-x,-y,z
1/4-x,1/4+y,1/4+z
1/4+x,1/4-y,1/4+z
x,1/2+y,1/2+z
-x,1/2-y,1/2+z
1/4-x,3/4+y,3/4+z
1/4+x,3/4-y,3/4+z
1/2+x,y,1/2+z
1/2-x,-y,1/2+z
3/4-x,1/4+y,3/4+z
3/4+x,1/4-y,3/4+z
1/2+x,1/2+y,z
1/2-x,1/2-y,z
3/4-x,3/4+y,1/4+z
3/4+x,3/4-y,1/4+z
loop_
_atom_site_type_symbol
_atom_site_label
_atom_site_fract_x
_atom_site_fract_y
_atom_site_fract_z
Si Si1 0.317456 0.691413 0.641100
Si Si2 0.542503 0.607857 0.242148
Si Si3 0.000723 0.291996 0.126949
Si Si4 0.500000 0.500000 0.712731
Si Si5 0.295962 0.990008 0.663989
O O1 0.250000 0.750000 0.704373
O O2 0.408755 0.687079 0.666778
O O3 0.319132 0.758351 0.543781
O O4 0.276943 0.581103 0.624311
O O5 0.500000 0.500000 0.264152
O O6 0.485073 0.683657 0.179760
O O7 0.623471 0.576792 0.184704
O O8 0.561188 0.669866 0.338583
O O9 0.966705 0.403988 0.153896
O O10 0.984701 0.277835 0.016474
#
# Coordination Sequence:
#
# PCOD9371305 Si02
#       5
#    16  16  16   8  16
#     4  10  21  43  73 103 134 187 253 298 366 443
#     4  12  27  51  73 112 151 199 256 318 385 448
#     4  12  25  45  73 107 149 192 246 312 373 453
#     4  10  22  44  66 102 134 186 234 290 376 432
#     4  12  27  46  78 111 148 199 253 315 380 457
#
# _framework density 23.708545999999998
#
# number of rings (size 3 to 8) (size 9 to 14) (size 15 to 20)
#    0.667    0.000    4.444    2.667    4.667    4.444 
#    0.000    0.000    0.000    0.000    0.000    0.000 
#    0.000    0.000    0.000    0.000    0.000    0.000 
#
# Total GULP energy -100247.087462 kJ/mol
# GULP energy per Si atom -5569.282637 kJ/mol
# Density = 2.365458 g / cm^3
# Si number density = 23.708546 Si / 1000 Ang^3
#
#
#
# Elastic Constant Matrix: (Units=GPa)
#
#
# Indices 1 2 3 4 5 6 
#
# 1 38.5858 8.9009 1.9642 0.0000 0.0000 0.0000
# 2 8.9009 159.1456 90.0162 0.0000 0.0000 0.0000
# 3 1.9642 90.0162 152.3559 0.0000 0.0000 0.0000
# 4 0.0000 0.0000 0.0000 49.4456 0.0000 0.0000
# 5 0.0000 0.0000 0.0000 0.0000 25.4004 0.0000
# 6 0.0000 0.0000 0.0000 0.0000 0.0000 30.5903
#
#
#
# Elastic Compliance Matrix: (Units=1/GPa)
#
#
# Indices 1 2 3 4 5 6 
#
# 1 0.026319 -0.001923 0.000797 0.000000 0.000000 0.000000
# 2 -0.001923 0.009578 -0.005634 0.000000 0.000000 0.000000
# 3 0.000797 -0.005634 0.009882 0.000000 0.000000 0.000000
# 4 0.000000 0.000000 0.000000 0.020224 0.000000 0.000000
# 5 0.000000 0.000000 0.000000 0.000000 0.039369 0.000000
# 6 0.000000 0.000000 0.000000 0.000000 0.000000 0.032690
#
#
# Mechanical properties :
#
#
# Convention : Reuss Voigt Hill
#
# Bulk Modulus (GPa) = 30.99906 61.31667 46.15786
# Shear Modulus (GPa) = 30.80030 37.70099 34.25065
#
# Velocity S-wave (km/s) = 3.60824 3.99204 3.80498
# Velocity P-wave (km/s) = 5.51930 6.86785 6.23017
#
# Compressibility (1/GPa) = 0.03225904
#
# Stress axis : x y z
#
# Youngs Moduli (GPa) = 37.99500 104.40771 101.19325
#
# Poissons Ratio (x) = 0.20073 -0.08061
# Poissons Ratio (y) = 0.07305 0.57013
# Poissons Ratio (z) = -0.03027 0.58824
#
# Static dielectric constant tensor:
#      x y z
#    x 2.094400 0.000000 0.000000 
#    y 0.000000 2.455330 0.000000 
#    z 0.000000 0.000000 1.888880 
# 
# From -- ./inp_files/9464.got.cif
#   From: 2010.05.17/outbox.cif.g08.bks.cpg/sg43_5_cif.got.tgz:9464.got - 2010.06.03 19:21:55.
