data_PCOD9371712
_publ_section_title
;
Structure prediction by ZEFSAII (Michael W. Deem and Ramdas Pophale) SiO2 
 PCOD9371712
Probable space group: F D D 2
;
_chemical_formula_sum "Si O2"
_cell_formula_units_Z 64
_cell_length_a 7.399206
_cell_length_b 21.945921
_cell_length_c 16.091147
_cell_angle_alpha 90.000000
_cell_angle_beta 90.000000
_cell_angle_gamma 90.000000
_cell_volume 2612.918913
_symmetry_space_group_name_H-M "F D D 2"
_symmetry_group_IT_number 43
_symmetry_cell_setting 'orthorhombic'
loop_
_space_group_symop_operation_xyz
x,y,z
-x,-y,z
1/4-x,1/4+y,1/4+z
1/4+x,1/4-y,1/4+z
x,1/2+y,1/2+z
-x,1/2-y,1/2+z
1/4-x,3/4+y,3/4+z
1/4+x,3/4-y,3/4+z
1/2+x,y,1/2+z
1/2-x,-y,1/2+z
3/4-x,1/4+y,3/4+z
3/4+x,1/4-y,3/4+z
1/2+x,1/2+y,z
1/2-x,1/2-y,z
3/4-x,3/4+y,1/4+z
3/4+x,3/4-y,1/4+z
loop_
_atom_site_type_symbol
_atom_site_label
_atom_site_fract_x
_atom_site_fract_y
_atom_site_fract_z
Si Si1 0.321856 0.036260 0.224940
Si Si2 0.703919 0.654631 0.144525
Si Si3 0.178942 0.929449 0.331641
Si Si4 0.904520 0.438336 0.973944
O O1 0.389199 0.078689 0.301588
O O2 0.500000 0.000000 0.193579
O O3 0.345500 0.933057 0.396370
O O4 0.200016 0.983769 0.266125
O O5 0.723222 0.582685 0.163377
O O6 0.559271 0.683733 0.207409
O O7 0.202379 0.866645 0.283796
O O8 0.997137 0.927969 0.384001
O O9 0.000000 0.500000 0.002964
#
# Coordination Sequence:
#
# PCOD9371712 Si02
#       4
#    16  16  16  16
#     4  10  22  44  76 102 151 193 248 302 380 443
#     4  11  23  45  71 103 144 199 236 313 371 439
#     4  11  25  46  69 105 151 195 245 313 373 455
#     4  12  26  44  74 108 146 195 256 308 380 452
#
# _framework density 24.493679
#
# number of rings (size 3 to 8) (size 9 to 14) (size 15 to 20)
#    0.000    1.000    2.500    4.500    0.000    3.000 
#    0.000    2.500    0.000    0.000    0.000    0.000 
#    0.000    0.000    0.000    0.000    0.000    0.000 
#
# Total GULP energy -89584.134238 kJ/mol
# GULP energy per Si atom -5599.008390 kJ/mol
# Density = 2.443793 g / cm^3
# Si number density = 24.493679 Si / 1000 Ang^3
#
#
#
# Elastic Constant Matrix: (Units=GPa)
#
#
# Indices 1 2 3 4 5 6 
#
# 1 130.4424 39.3621 1.4595 0.0000 0.0000 0.0000
# 2 39.3621 228.0094 67.6001 0.0000 0.0000 0.0000
# 3 1.4595 67.6001 56.4071 0.0000 0.0000 0.0000
# 4 0.0000 0.0000 0.0000 67.7335 0.0000 0.0000
# 5 0.0000 0.0000 0.0000 0.0000 5.8405 0.0000
# 6 0.0000 0.0000 0.0000 0.0000 0.0000 38.7399
#
#
#
# Elastic Compliance Matrix: (Units=1/GPa)
#
#
# Indices 1 2 3 4 5 6 
#
# 1 0.008279 -0.002119 0.002325 0.000000 0.000000 0.000000
# 2 -0.002119 0.007345 -0.008748 0.000000 0.000000 0.000000
# 3 0.002325 -0.008748 0.028152 0.000000 0.000000 0.000000
# 4 0.000000 0.000000 0.000000 0.014764 0.000000 0.000000
# 5 0.000000 0.000000 0.000000 0.000000 0.171219 0.000000
# 6 0.000000 0.000000 0.000000 0.000000 0.000000 0.025813
#
#
# Mechanical properties :
#
#
# Convention : Reuss Voigt Hill
#
# Bulk Modulus (GPa) = 37.46288 70.18915 53.82601
# Shear Modulus (GPa) = 17.75867 42.89194 30.32530
#
# Velocity S-wave (km/s) = 2.69556 4.18921 3.52246
# Velocity P-wave (km/s) = 5.00162 7.21925 6.21022
#
# Compressibility (1/GPa) = 0.02669309
#
# Stress axis : x y z
#
# Youngs Moduli (GPa) = 120.78024 136.14634 35.52188
#
# Poissons Ratio (x) = 0.28843 -0.08258
# Poissons Ratio (y) = 0.25588 0.31074
# Poissons Ratio (z) = -0.28078 1.19097
#
# Static dielectric constant tensor:
#      x y z
#    x 1.985410 0.000000 0.000000 
#    y 0.000000 1.946490 0.000000 
#    z 0.000000 0.000000 1.916170 
# 
# From -- ./inp_files/12513.got.cif
#   From: 2010.05.17/outbox.cif.g08.bks.cpg/sg43_7_cif.got.tgz:12513.got - 2010.06.03 19:21:55.
