data_PCOD9371462
_publ_section_title
;
Structure prediction by ZEFSAII (Michael W. Deem and Ramdas Pophale) SiO2 
 PCOD9371462
Probable space group: F D D 2
;
_chemical_formula_sum "Si O2"
_cell_formula_units_Z 96
_cell_length_a 25.790709
_cell_length_b 8.185915
_cell_length_c 18.596164
_cell_angle_alpha 90.000000
_cell_angle_beta 90.000000
_cell_angle_gamma 90.000000
_cell_volume 3926.032403
_symmetry_space_group_name_H-M "F D D 2"
_symmetry_group_IT_number 43
_symmetry_cell_setting 'orthorhombic'
loop_
_space_group_symop_operation_xyz
x,y,z
-x,-y,z
1/4-x,1/4+y,1/4+z
1/4+x,1/4-y,1/4+z
x,1/2+y,1/2+z
-x,1/2-y,1/2+z
1/4-x,3/4+y,3/4+z
1/4+x,3/4-y,3/4+z
1/2+x,y,1/2+z
1/2-x,-y,1/2+z
3/4-x,1/4+y,3/4+z
3/4+x,1/4-y,3/4+z
1/2+x,1/2+y,z
1/2-x,1/2-y,z
3/4-x,3/4+y,1/4+z
3/4+x,3/4-y,1/4+z
loop_
_atom_site_type_symbol
_atom_site_label
_atom_site_fract_x
_atom_site_fract_y
_atom_site_fract_z
Si Si1 0.714131 0.112408 0.503740
Si Si2 0.132897 0.053979 0.614841
Si Si3 0.586107 0.034912 0.740853
Si Si4 0.212781 0.037839 0.387573
Si Si5 0.301423 0.818675 0.743663
Si Si6 0.352278 0.993966 0.267205
O O1 0.750000 0.250000 0.540826
O O2 0.660649 0.206279 0.496275
O O3 0.694394 0.934281 0.529286
O O4 0.744234 0.060516 0.431389
O O5 0.160509 0.137581 0.547264
O O6 0.089035 0.181698 0.636391
O O7 0.168408 0.044923 0.686272
O O8 0.107778 0.889029 0.580237
O O9 0.553375 0.956063 0.676608
O O10 0.644608 0.094894 0.716171
O O11 0.222710 0.063013 0.303593
O O12 0.250000 0.750000 0.702528
O O13 0.325386 0.663340 0.785559
#
# Coordination Sequence:
#
# PCOD9371462 Si02
#       6
#    16  16  16  16  16  16
#     4  11  21  40  70 111 128 183 246 298 337 433
#     4  11  22  45  68 102 142 188 230 293 368 430
#     4  10  22  40  67 102 140 174 235 299 362 409
#     4  11  22  40  73 102 135 184 246 288 351 440
#     4  10  24  40  66 100 138 181 232 299 361 432
#     4  11  25  42  72 102 146 182 237 302 368 429
#
# _framework density 24.452166999999999
#
# number of rings (size 3 to 8) (size 9 to 14) (size 15 to 20)
#    0.000    1.333    3.333    1.500    7.000    0.000 
#    0.000    2.500   11.000    0.000    0.000    0.000 
#    0.000    0.000    0.000    0.000    0.000    0.000 
#
# Total GULP energy -133656.713539 kJ/mol
# GULP energy per Si atom -5569.029731 kJ/mol
# Density = 2.439651 g / cm^3
# Si number density = 24.452167 Si / 1000 Ang^3
#
#
#
# Elastic Constant Matrix: (Units=GPa)
#
#
# Indices 1 2 3 4 5 6 
#
# 1 106.4401 -3.4728 13.7250 0.0000 0.0000 0.0000
# 2 -3.4728 83.1510 18.0717 0.0000 0.0000 0.0000
# 3 13.7250 18.0717 82.4675 0.0000 0.0000 0.0000
# 4 0.0000 0.0000 0.0000 20.8937 0.0000 0.0000
# 5 0.0000 0.0000 0.0000 0.0000 10.1666 0.0000
# 6 0.0000 0.0000 0.0000 0.0000 0.0000 38.9849
#
#
#
# Elastic Compliance Matrix: (Units=1/GPa)
#
#
# Indices 1 2 3 4 5 6 
#
# 1 0.009650 0.000790 -0.001779 0.000000 0.000000 0.000000
# 2 0.000790 0.012692 -0.002913 0.000000 0.000000 0.000000
# 3 -0.001779 -0.002913 0.013060 0.000000 0.000000 0.000000
# 4 0.000000 0.000000 0.000000 0.047861 0.000000 0.000000
# 5 0.000000 0.000000 0.000000 0.000000 0.098362 0.000000
# 6 0.000000 0.000000 0.000000 0.000000 0.000000 0.025651
#
#
# Mechanical properties :
#
#
# Convention : Reuss Voigt Hill
#
# Bulk Modulus (GPa) = 36.23392 36.52294 36.37843
# Shear Modulus (GPa) = 22.29350 30.25801 26.27576
#
# Velocity S-wave (km/s) = 3.02274 3.52154 3.28163
# Velocity P-wave (km/s) = 5.19934 5.61283 5.41004
#
# Compressibility (1/GPa) = 0.02759845
#
# Stress axis : x y z
#
# Youngs Moduli (GPa) = 103.62553 78.78757 76.56745
#
# Poissons Ratio (x) = -0.06222 0.13622
# Poissons Ratio (y) = -0.08183 0.22303
# Poissons Ratio (z) = 0.18436 0.22949
#
# Static dielectric constant tensor:
#      x y z
#    x 2.070140 0.000000 0.000000 
#    y 0.000000 1.922630 0.000000 
#    z 0.000000 0.000000 2.204640 
# 
# From -- ./inp_files/18820.got.cif
#   From: 2010.05.17/outbox.cif.g08.bks.cpg/sg43_10_cif.got.tgz:18820.got - 2010.06.03 19:21:55.
