data_PCOD9371813
_publ_section_title
;
Structure prediction by ZEFSAII (Michael W. Deem and Ramdas Pophale) SiO2 
 PCOD9371813
Probable space group: F D D 2
;
_chemical_formula_sum "Si O2"
_cell_formula_units_Z 112
_cell_length_a 23.375243
_cell_length_b 13.065932
_cell_length_c 17.397694
_cell_angle_alpha 90.000000
_cell_angle_beta 90.000000
_cell_angle_gamma 90.000000
_cell_volume 5313.592141
_symmetry_space_group_name_H-M "F D D 2"
_symmetry_group_IT_number 43
_symmetry_cell_setting 'orthorhombic'
loop_
_space_group_symop_operation_xyz
x,y,z
-x,-y,z
1/4-x,1/4+y,1/4+z
1/4+x,1/4-y,1/4+z
x,1/2+y,1/2+z
-x,1/2-y,1/2+z
1/4-x,3/4+y,3/4+z
1/4+x,3/4-y,3/4+z
1/2+x,y,1/2+z
1/2-x,-y,1/2+z
3/4-x,1/4+y,3/4+z
3/4+x,1/4-y,3/4+z
1/2+x,1/2+y,z
1/2-x,1/2-y,z
3/4-x,3/4+y,1/4+z
3/4+x,3/4-y,1/4+z
loop_
_atom_site_type_symbol
_atom_site_label
_atom_site_fract_x
_atom_site_fract_y
_atom_site_fract_z
Si Si1 0.704172 0.570699 0.269100
Si Si2 0.810793 0.305461 0.911518
Si Si3 0.089495 0.845719 0.863266
Si Si4 0.141547 0.369379 0.777785
Si Si5 0.582017 0.685571 0.984763
Si Si6 0.530686 0.112017 0.332221
Si Si7 0.123414 0.149408 0.708445
O O1 0.686478 0.598216 0.354785
O O2 0.672300 0.635250 0.201442
O O3 0.688965 0.452855 0.252608
O O4 0.770801 0.596062 0.267843
O O5 0.750000 0.250000 0.911034
O O6 0.860488 0.234614 0.877182
O O7 0.831337 0.337767 0.995290
O O8 0.115799 0.907897 0.791468
O O9 0.024688 0.814217 0.841343
O O10 0.147272 0.258299 0.738535
O O11 0.138594 0.377066 0.869127
O O12 0.576933 0.635133 0.899792
O O13 0.583952 0.807696 0.980140
O O14 0.564057 0.130634 0.254080
O O15 0.500000 0.000000 0.337859
#
# Coordination Sequence:
#
# PCOD9371813 Si02
#       7
#    16  16  16  16  16  16  16
#     4  10  23  44  69 103 141 178 235 295 360 438
#     4  11  22  45  75 103 137 185 239 304 366 430
#     4  10  23  39  67 107 138 179 229 303 362 427
#     4  11  25  49  68  99 148 188 244 294 358 445
#     4  11  23  42  69 107 137 182 233 295 368 425
#     4  11  24  44  68 102 142 184 243 301 358 435
#     4  12  24  48  71  98 146 196 235 300 360 440
#
# _framework density 21.078019999999999
#
# number of rings (size 3 to 8) (size 9 to 14) (size 15 to 20)
#    0.000    1.143    5.714    0.000    4.000    0.571 
#   15.429    0.000    0.000    0.000    0.000    0.000 
#    0.000    0.000    0.000    0.000    0.000    0.000 
#
# Total GULP energy -155931.869367 kJ/mol
# GULP energy per Si atom -5568.995335 kJ/mol
# Density = 2.103005 g / cm^3
# Si number density = 21.078020 Si / 1000 Ang^3
#
#
#
# Elastic Constant Matrix: (Units=GPa)
#
#
# Indices 1 2 3 4 5 6 
#
# 1 72.7266 13.5205 40.3311 0.0000 0.0000 0.0000
# 2 13.5205 72.6537 35.0223 0.0000 0.0000 0.0000
# 3 40.3311 35.0223 155.9272 0.0000 0.0000 0.0000
# 4 0.0000 0.0000 0.0000 21.0852 0.0000 0.0000
# 5 0.0000 0.0000 0.0000 0.0000 37.8657 0.0000
# 6 0.0000 0.0000 0.0000 0.0000 0.0000 22.9358
#
#
#
# Elastic Compliance Matrix: (Units=1/GPa)
#
#
# Indices 1 2 3 4 5 6 
#
# 1 0.016132 -0.001111 -0.003923 0.000000 0.000000 0.000000
# 2 -0.001111 0.015512 -0.003197 0.000000 0.000000 0.000000
# 3 -0.003923 -0.003197 0.008146 0.000000 0.000000 0.000000
# 4 0.000000 0.000000 0.000000 0.047427 0.000000 0.000000
# 5 0.000000 0.000000 0.000000 0.000000 0.026409 0.000000
# 6 0.000000 0.000000 0.000000 0.000000 0.000000 0.043600
#
#
# Mechanical properties :
#
#
# Convention : Reuss Voigt Hill
#
# Bulk Modulus (GPa) = 42.86645 53.22836 48.04741
# Shear Modulus (GPa) = 27.55378 30.53957 29.04668
#
# Velocity S-wave (km/s) = 3.61948 3.81055 3.71624
# Velocity P-wave (km/s) = 6.15213 6.68343 6.42328
#
# Compressibility (1/GPa) = 0.02332827
#
# Stress axis : x y z
#
# Youngs Moduli (GPa) = 61.98750 64.46793 122.76020
#
# Poissons Ratio (x) = 0.07163 0.48160
# Poissons Ratio (y) = 0.06887 0.39242
# Poissons Ratio (z) = 0.24318 0.20608
#
# Static dielectric constant tensor:
#      x y z
#    x 1.729910 0.000000 0.000000 
#    y 0.000000 1.855690 0.000000 
#    z 0.000000 0.000000 1.827470 
# 
# From -- ./inp_files/11258.got.cif
#   From: 2010.05.17/outbox.cif.g08.bks.cpg/sg43_6_cif.got.tgz:11258.got - 2010.06.03 19:21:55.
