data_PCOD9371597
_publ_section_title
;
Structure prediction by ZEFSAII (Michael W. Deem and Ramdas Pophale) SiO2 
 PCOD9371597
Probable space group: F D D 2
;
_chemical_formula_sum "Si O2"
_cell_formula_units_Z 80
_cell_length_a 25.626555
_cell_length_b 4.868520
_cell_length_c 27.739068
_cell_angle_alpha 90.000000
_cell_angle_beta 90.000000
_cell_angle_gamma 90.000000
_cell_volume 3460.820313
_symmetry_space_group_name_H-M "F D D 2"
_symmetry_group_IT_number 43
_symmetry_cell_setting 'orthorhombic'
loop_
_space_group_symop_operation_xyz
x,y,z
-x,-y,z
1/4-x,1/4+y,1/4+z
1/4+x,1/4-y,1/4+z
x,1/2+y,1/2+z
-x,1/2-y,1/2+z
1/4-x,3/4+y,3/4+z
1/4+x,3/4-y,3/4+z
1/2+x,y,1/2+z
1/2-x,-y,1/2+z
3/4-x,1/4+y,3/4+z
3/4+x,1/4-y,3/4+z
1/2+x,1/2+y,z
1/2-x,1/2-y,z
3/4-x,3/4+y,1/4+z
3/4+x,3/4-y,1/4+z
loop_
_atom_site_type_symbol
_atom_site_label
_atom_site_fract_x
_atom_site_fract_y
_atom_site_fract_z
Si Si1 0.000000 0.500000 0.682480
Si Si2 0.750000 0.750000 0.155982
Si Si3 0.931787 0.803562 0.039940
Si Si4 0.419332 0.326933 0.260364
Si Si5 0.814138 0.555164 0.735106
Si Si6 0.000000 0.500000 0.840403
Si Si7 0.750000 0.250000 0.367731
O O1 0.038711 0.675472 0.717220
O O2 0.977291 0.744334 0.648945
O O3 0.707126 0.598139 0.188800
O O4 0.769364 0.504067 0.122361
O O5 0.954292 0.648310 0.086055
O O6 0.869393 0.838656 0.030914
O O7 0.950538 0.617335 0.994655
O O8 0.950735 0.114758 0.031383
O O9 0.376426 0.533240 0.238189
O O10 0.452524 0.414830 0.306243
#
# Coordination Sequence:
#
# PCOD9371597 Si02
#       7
#     8   8  16  16  16   8   8
#     4  11  26  43  70 103 148 189 234 303 348 427
#     4  12  24  42  70 107 138 179 248 300 350 400
#     4  10  22  42  72  96 139 190 232 287 356 433
#     4   9  26  46  69  95 147 196 231 274 382 422
#     4  10  22  42  71  96 139 187 230 290 354 433
#     4  11  26  43  70 101 144 189 234 299 346 435
#     4  12  24  42  70 111 140 179 252 304 344 402
#
# _framework density 23.115908999999998
#
# number of rings (size 3 to 8) (size 9 to 14) (size 15 to 20)
#    1.200    0.400    0.000    3.600    5.600    3.200 
#    0.000    0.000    0.000    0.000    0.000    0.000 
#    0.000    0.000    0.000    0.000    0.000    0.000 
#
# Total GULP energy -111374.234760 kJ/mol
# GULP energy per Si atom -5568.711738 kJ/mol
# Density = 2.306330 g / cm^3
# Si number density = 23.115909 Si / 1000 Ang^3
#
#
#
# Elastic Constant Matrix: (Units=GPa)
#
#
# Indices 1 2 3 4 5 6 
#
# 1 118.0061 37.0838 49.7788 0.5236 0.0006 0.0052
# 2 37.0838 141.7871 63.9697 0.0371 -0.0030 0.0211
# 3 49.7788 63.9697 128.7833 -0.0127 0.0002 -0.0069
# 4 0.5236 0.0371 -0.0127 -211.1293 0.3012 -0.3433
# 5 0.0006 -0.0030 0.0002 0.3012 6.2119 0.0050
# 6 0.0052 0.0211 -0.0069 -0.3433 0.0050 37.1401
#
#
#
# Elastic Compliance Matrix: (Units=1/GPa)
#
#
# Indices 1 2 3 4 5 6 
#
# 1 0.010269 -0.001154 -0.003396 0.000025 -0.000003 -0.000001
# 2 -0.001154 0.009220 -0.004134 -0.000001 0.000005 -0.000006
# 3 -0.003396 -0.004134 0.011131 -0.000010 -0.000002 0.000005
# 4 0.000025 -0.000001 -0.000010 -0.004736 0.000230 -0.000044
# 5 -0.000003 0.000005 -0.000002 0.000230 0.160969 -0.000020
# 6 -0.000001 -0.000006 0.000005 -0.000044 -0.000020 0.026925
#
#
# Mechanical properties :
#
#
# Convention : Reuss Voigt Hill
#
# Bulk Modulus (GPa) = 75.45672 76.69346 76.07509
# Shear Modulus (GPa) = 21.22578 -17.70586 1.75996
#
# Velocity S-wave (km/s) = 3.03352 -2.77060 0.87351
# Velocity P-wave (km/s) = 6.70696 4.79738 5.83087
#
# Compressibility (1/GPa) = 0.01325263
#
# Stress axis : x y z
#
# Youngs Moduli (GPa) = 97.37817 108.46572 89.83855
#
# Poissons Ratio (x) = 0.12512 0.30513
# Poissons Ratio (y) = 0.11233 0.37136
# Poissons Ratio (z) = 0.33073 0.44836
#
# Static dielectric constant tensor:
#      x y z
#    x 1.961790 -0.000110 -0.000010 
#    y -0.000110 1.960460 0.000020 
#    z -0.000010 0.000020 1.888890 
# 
# From -- ./inp_files/22936.got.cif
#   From: 2010.05.17/outbox.cif.g08.bks.cpg/sg43_12_cif.got.tgz:22936.got - 2010.06.03 19:21:55.
