data_PCOD9371201
_publ_section_title
;
Structure prediction by ZEFSAII (Michael W. Deem and Ramdas Pophale) SiO2 
 PCOD9371201
Probable space group: F D D 2
;
_chemical_formula_sum "Si O2"
_cell_formula_units_Z 88
_cell_length_a 12.404556
_cell_length_b 11.438247
_cell_length_c 25.320406
_cell_angle_alpha 90.000000
_cell_angle_beta 90.000000
_cell_angle_gamma 90.000000
_cell_volume 3592.620632
_symmetry_space_group_name_H-M "F D D 2"
_symmetry_group_IT_number 43
_symmetry_cell_setting 'orthorhombic'
loop_
_space_group_symop_operation_xyz
x,y,z
-x,-y,z
1/4-x,1/4+y,1/4+z
1/4+x,1/4-y,1/4+z
x,1/2+y,1/2+z
-x,1/2-y,1/2+z
1/4-x,3/4+y,3/4+z
1/4+x,3/4-y,3/4+z
1/2+x,y,1/2+z
1/2-x,-y,1/2+z
3/4-x,1/4+y,3/4+z
3/4+x,1/4-y,3/4+z
1/2+x,1/2+y,z
1/2-x,1/2-y,z
3/4-x,3/4+y,1/4+z
3/4+x,3/4-y,1/4+z
loop_
_atom_site_type_symbol
_atom_site_label
_atom_site_fract_x
_atom_site_fract_y
_atom_site_fract_z
Si Si1 0.191783 0.058205 0.224240
Si Si2 0.500000 0.500000 0.887922
Si Si3 0.674576 0.489718 0.810663
Si Si4 0.083514 0.229846 0.310446
Si Si5 0.870300 0.200034 0.246365
Si Si6 0.122767 0.031045 0.378911
O O1 0.209468 0.142155 0.174177
O O2 0.304786 0.005627 0.248043
O O3 0.142904 0.150680 0.266197
O O4 0.125055 0.938090 0.230442
O O5 0.588934 0.551268 0.847959
O O6 0.634347 0.356414 0.814232
O O7 0.787667 0.516947 0.839378
O O8 0.114381 0.168450 0.365570
O O9 0.960047 0.227201 0.290120
O O10 0.750000 0.250000 0.260165
O O11 0.897759 0.253905 0.188667
O O12 0.000000 0.000000 0.366138
#
# Coordination Sequence:
#
# PCOD9371201 Si02
#       6
#    16   8  16  16  16  16
#     4  11  22  44  66 103 142 194 248 299 379 452
#     4  12  24  42  72 108 152 190 244 324 380 454
#     4  11  24  39  70 105 140 186 248 308 381 443
#     4  11  21  42  70 102 138 187 249 311 362 450
#     4  11  25  41  70 102 148 195 244 310 381 443
#     4  10  21  41  65  97 134 188 248 293 359 451
#
# _framework density 24.494655000000002
#
# number of rings (size 3 to 8) (size 9 to 14) (size 15 to 20)
#    0.000    1.091    1.818    6.545    2.545    1.455 
#    0.000    0.000    0.000    0.000    0.000    0.000 
#    0.000    0.000    0.000    0.000    0.000    0.000 
#
# Total GULP energy -122588.609017 kJ/mol
# GULP energy per Si atom -5572.209501 kJ/mol
# Density = 2.443890 g / cm^3
# Si number density = 24.494655 Si / 1000 Ang^3
#
#
#
# Elastic Constant Matrix: (Units=GPa)
#
#
# Indices 1 2 3 4 5 6 
#
# 1 85.8332 -1.4996 40.1461 0.0000 0.0000 0.0000
# 2 -1.4996 111.6049 17.3362 0.0000 0.0000 0.0000
# 3 40.1461 17.3362 91.6678 0.0000 0.0000 0.0000
# 4 0.0000 0.0000 0.0000 28.6300 0.0000 0.0000
# 5 0.0000 0.0000 0.0000 0.0000 13.5000 0.0000
# 6 0.0000 0.0000 0.0000 0.0000 0.0000 32.8989
#
#
#
# Elastic Compliance Matrix: (Units=1/GPa)
#
#
# Indices 1 2 3 4 5 6 
#
# 1 0.014817 0.001244 -0.006725 0.000000 0.000000 0.000000
# 2 0.001244 0.009336 -0.002310 0.000000 0.000000 0.000000
# 3 -0.006725 -0.002310 0.014291 0.000000 0.000000 0.000000
# 4 0.000000 0.000000 0.000000 0.034928 0.000000 0.000000
# 5 0.000000 0.000000 0.000000 0.000000 0.074074 0.000000
# 6 0.000000 0.000000 0.000000 0.000000 0.000000 0.030396
#
#
# Mechanical properties :
#
#
# Convention : Reuss Voigt Hill
#
# Bulk Modulus (GPa) = 43.74098 44.56349 44.15224
# Shear Modulus (GPa) = 24.86996 30.54733 27.70865
#
# Velocity S-wave (km/s) = 3.18987 3.53526 3.36700
# Velocity P-wave (km/s) = 5.60920 5.90735 5.76020
#
# Compressibility (1/GPa) = 0.02286185
#
# Stress axis : x y z
#
# Youngs Moduli (GPa) = 67.48801 107.11512 69.97467
#
# Poissons Ratio (x) = -0.13321 0.47055
# Poissons Ratio (y) = -0.08393 0.16166
# Poissons Ratio (z) = 0.45383 0.24746
#
# Static dielectric constant tensor:
#      x y z
#    x 2.126780 0.000000 0.000000 
#    y 0.000000 2.046970 0.000000 
#    z 0.000000 0.000000 1.991260 
# 
# From -- ./inp_files/28441.got.cif
#   From: 2010.05.17/outbox.cif.g08.bks.cpg/sg43_15_cif.got.tgz:28441.got - 2010.06.03 19:21:55.
