data_PCOD9371084
_publ_section_title
;
Structure prediction by ZEFSAII (Michael W. Deem and Ramdas Pophale) SiO2 
 PCOD9371084
Probable space group: F D D 2
;
_chemical_formula_sum "Si O2"
_cell_formula_units_Z 120
_cell_length_a 11.901020
_cell_length_b 18.532300
_cell_length_c 25.292318
_cell_angle_alpha 90.000000
_cell_angle_beta 90.000000
_cell_angle_gamma 90.000000
_cell_volume 5578.303515
_symmetry_space_group_name_H-M "F D D 2"
_symmetry_group_IT_number 43
_symmetry_cell_setting 'orthorhombic'
loop_
_space_group_symop_operation_xyz
x,y,z
-x,-y,z
1/4-x,1/4+y,1/4+z
1/4+x,1/4-y,1/4+z
x,1/2+y,1/2+z
-x,1/2-y,1/2+z
1/4-x,3/4+y,3/4+z
1/4+x,3/4-y,3/4+z
1/2+x,y,1/2+z
1/2-x,-y,1/2+z
3/4-x,1/4+y,3/4+z
3/4+x,1/4-y,3/4+z
1/2+x,1/2+y,z
1/2-x,1/2-y,z
3/4-x,3/4+y,1/4+z
3/4+x,3/4-y,1/4+z
loop_
_atom_site_type_symbol
_atom_site_label
_atom_site_fract_x
_atom_site_fract_y
_atom_site_fract_z
Si Si1 0.075629 0.651695 0.438130
Si Si2 0.595454 0.061984 0.545183
Si Si3 0.863362 0.205664 0.982512
Si Si4 0.009407 0.317119 0.689451
Si Si5 0.572133 0.567874 0.349101
Si Si6 0.250000 0.750000 0.383149
Si Si7 0.420823 0.558432 0.862985
Si Si8 0.947822 0.208332 0.305283
O O1 0.091877 0.596999 0.487109
O O2 0.189139 0.689359 0.418692
O O3 0.983765 0.713819 0.454804
O O4 0.013047 0.606146 0.393393
O O5 0.597262 0.133329 0.581244
O O6 0.500000 0.000000 0.550866
O O7 0.708142 0.019756 0.559886
O O8 0.750000 0.250000 0.969010
O O9 0.823905 0.126453 0.964477
O O10 0.881454 0.211214 0.045389
O O11 0.100455 0.343308 0.647077
O O12 0.073134 0.290646 0.741910
O O13 0.919374 0.272597 0.653880
O O14 0.500000 0.500000 0.368841
O O15 0.499570 0.633012 0.325596
O O16 0.155233 0.778458 0.343432
O O17 0.500000 0.500000 0.833798
#
# Coordination Sequence:
#
# PCOD9371084 Si02
#       8
#    16  16  16  16  16   8  16  16
#     4  11  24  45  68 102 142 193 241 297 367 439
#     4  12  24  46  79 105 141 189 250 301 360 444
#     4   9  20  39  66 102 134 168 237 306 352 415
#     4  10  21  38  69  95 131 184 237 285 351 418
#     4  10  22  41  66 103 134 179 231 295 352 425
#     4  12  28  48  62 102 154 186 234 298 366 442
#     4  11  23  41  71 109 141 182 244 303 358 423
#     4  11  25  46  65 100 142 190 238 288 360 432
#
# _framework density 21.511918000000001
#
# number of rings (size 3 to 8) (size 9 to 14) (size 15 to 20)
#    0.000    1.333    1.333    5.200    3.733    4.267 
#    0.000    1.333    0.000    0.000    0.000    0.000 
#    0.000    0.000    0.000    0.000    0.000    0.000 
#
# Total GULP energy -167185.848456 kJ/mol
# GULP energy per Si atom -5572.861615 kJ/mol
# Density = 2.146296 g / cm^3
# Si number density = 21.511918 Si / 1000 Ang^3
#
#
#
# Elastic Constant Matrix: (Units=GPa)
#
#
# Indices 1 2 3 4 5 6 
#
# 1 123.7725 44.7058 55.9501 0.0000 0.0000 0.0000
# 2 44.7058 72.5751 42.2154 0.0000 0.0000 0.0000
# 3 55.9501 42.2154 102.8399 0.0000 0.0000 0.0000
# 4 0.0000 0.0000 0.0000 26.2956 0.0000 0.0000
# 5 0.0000 0.0000 0.0000 0.0000 39.2670 0.0000
# 6 0.0000 0.0000 0.0000 0.0000 0.0000 41.1824
#
#
#
# Elastic Compliance Matrix: (Units=1/GPa)
#
#
# Indices 1 2 3 4 5 6 
#
# 1 0.011795 -0.004641 -0.004512 0.000000 0.000000 0.000000
# 2 -0.004641 0.019927 -0.005655 0.000000 0.000000 0.000000
# 3 -0.004512 -0.005655 0.014500 0.000000 0.000000 0.000000
# 4 0.000000 0.000000 0.000000 0.038029 0.000000 0.000000
# 5 0.000000 0.000000 0.000000 0.000000 0.025467 0.000000
# 6 0.000000 0.000000 0.000000 0.000000 0.000000 0.024282
#
#
# Mechanical properties :
#
#
# Convention : Reuss Voigt Hill
#
# Bulk Modulus (GPa) = 60.21931 64.99223 62.60577
# Shear Modulus (GPa) = 29.55913 31.77009 30.66461
#
# Velocity S-wave (km/s) = 3.71088 3.84716 3.77964
# Velocity P-wave (km/s) = 6.81286 7.07192 6.94360
#
# Compressibility (1/GPa) = 0.01660597
#
# Stress axis : x y z
#
# Youngs Moduli (GPa) = 84.77902 50.18261 68.96578
#
# Poissons Ratio (x) = 0.23291 0.31118
# Poissons Ratio (y) = 0.39349 0.39000
# Poissons Ratio (z) = 0.38253 0.28378
#
# Static dielectric constant tensor:
#      x y z
#    x 1.817660 0.000000 0.000000 
#    y 0.000000 1.866280 0.000000 
#    z 0.000000 0.000000 1.843970 
# 
# From -- ./inp_files/25194.got.cif
#   From: 2010.05.17/outbox.cif.g08.bks.cpg/sg43_13_cif.got.tgz:25194.got - 2010.06.03 19:21:55.
