data_PCOD9371331
_publ_section_title
;
Structure prediction by ZEFSAII (Michael W. Deem and Ramdas Pophale) SiO2 
 PCOD9371331
Probable space group: F D D 2
;
_chemical_formula_sum "Si O2"
_cell_formula_units_Z 96
_cell_length_a 14.512848
_cell_length_b 18.919225
_cell_length_c 14.367989
_cell_angle_alpha 90.000000
_cell_angle_beta 90.000000
_cell_angle_gamma 90.000000
_cell_volume 3945.045129
_symmetry_space_group_name_H-M "F D D 2"
_symmetry_group_IT_number 43
_symmetry_cell_setting 'orthorhombic'
loop_
_space_group_symop_operation_xyz
x,y,z
-x,-y,z
1/4-x,1/4+y,1/4+z
1/4+x,1/4-y,1/4+z
x,1/2+y,1/2+z
-x,1/2-y,1/2+z
1/4-x,3/4+y,3/4+z
1/4+x,3/4-y,3/4+z
1/2+x,y,1/2+z
1/2-x,-y,1/2+z
3/4-x,1/4+y,3/4+z
3/4+x,1/4-y,3/4+z
1/2+x,1/2+y,z
1/2-x,1/2-y,z
3/4-x,3/4+y,1/4+z
3/4+x,3/4-y,1/4+z
loop_
_atom_site_type_symbol
_atom_site_label
_atom_site_fract_x
_atom_site_fract_y
_atom_site_fract_z
Si Si1 0.211029 0.487096 0.627870
Si Si2 0.902108 0.666489 0.110337
Si Si3 0.227435 0.546847 0.924298
Si Si4 0.443192 0.425484 0.055921
Si Si5 0.437663 0.890188 0.010137
Si Si6 0.093455 0.535915 0.179463
O O1 0.221083 0.451994 0.525244
O O2 0.143756 0.552825 0.619817
O O3 0.173867 0.430593 0.701401
O O4 0.313501 0.506878 0.661115
O O5 0.852333 0.653224 0.207564
O O6 0.980502 0.725812 0.130784
O O7 0.955719 0.611542 0.042496
O O8 0.830577 0.697046 0.036683
O O9 0.253019 0.612594 0.857556
O O10 0.118600 0.551465 0.950272
O O11 0.500000 0.500000 0.045077
O O12 0.391803 0.897083 0.111962
O O13 0.000000 0.500000 0.148518
#
# Coordination Sequence:
#
# PCOD9371331 Si02
#       6
#    16  16  16  16  16  16
#     4   9  21  42  61  99 136 169 237 282 333 433
#     4  10  24  43  66 104 138 171 238 291 336 425
#     4  10  22  42  68  95 138 181 226 288 345 410
#     4  11  21  42  69 100 135 182 232 280 357 401
#     4  10  21  45  63  96 139 178 225 284 352 418
#     4  10  22  43  65  97 136 179 227 284 357 409
#
# _framework density 24.334322
#
# number of rings (size 3 to 8) (size 9 to 14) (size 15 to 20)
#    0.000    2.000    1.667    0.500    2.333    2.667 
#   27.000    0.000    0.000    0.000    0.000    0.000 
#    0.000    0.000    0.000    0.000    0.000    0.000 
#
# Total GULP energy -133751.490927 kJ/mol
# GULP energy per Si atom -5572.978789 kJ/mol
# Density = 2.427894 g / cm^3
# Si number density = 24.334322 Si / 1000 Ang^3
#
#
#
# Elastic Constant Matrix: (Units=GPa)
#
#
# Indices 1 2 3 4 5 6 
#
# 1 97.8677 36.0822 24.3727 0.0000 0.0000 0.0000
# 2 36.0822 90.1135 47.3878 0.0000 0.0000 0.0000
# 3 24.3727 47.3878 143.3292 0.0000 0.0000 0.0000
# 4 0.0000 0.0000 0.0000 22.6224 0.0000 0.0000
# 5 0.0000 0.0000 0.0000 0.0000 26.3381 0.0000
# 6 0.0000 0.0000 0.0000 0.0000 0.0000 28.7862
#
#
#
# Elastic Compliance Matrix: (Units=1/GPa)
#
#
# Indices 1 2 3 4 5 6 
#
# 1 0.012023 -0.004526 -0.000548 0.000000 0.000000 0.000000
# 2 -0.004526 0.015136 -0.004235 0.000000 0.000000 0.000000
# 3 -0.000548 -0.004235 0.008470 0.000000 0.000000 0.000000
# 4 0.000000 0.000000 0.000000 0.044204 0.000000 0.000000
# 5 0.000000 0.000000 0.000000 0.000000 0.037968 0.000000
# 6 0.000000 0.000000 0.000000 0.000000 0.000000 0.034739
#
#
# Mechanical properties :
#
#
# Convention : Reuss Voigt Hill
#
# Bulk Modulus (GPa) = 58.78212 60.77733 59.77973
# Shear Modulus (GPa) = 28.27603 30.44719 29.36161
#
# Velocity S-wave (km/s) = 3.41248 3.54107 3.47737
# Velocity P-wave (km/s) = 6.30359 6.46136 6.38296
#
# Compressibility (1/GPa) = 0.01701198
#
# Stress axis : x y z
#
# Youngs Moduli (GPa) = 83.17390 66.06658 118.06012
#
# Poissons Ratio (x) = 0.29901 0.06471
# Poissons Ratio (y) = 0.37643 0.49996
# Poissons Ratio (z) = 0.04559 0.27978
#
# Static dielectric constant tensor:
#      x y z
#    x 1.980150 0.000000 0.000000 
#    y 0.000000 2.069470 0.000000 
#    z 0.000000 0.000000 1.901230 
# 
# From -- ./inp_files/10086.got.cif
#   From: 2010.05.17/outbox.cif.g08.bks.cpg/sg43_6_cif.got.tgz:10086.got - 2010.06.03 19:21:55.
