data_PCOD9371281
_publ_section_title
;
Structure prediction by ZEFSAII (Michael W. Deem and Ramdas Pophale) SiO2 
 PCOD9371281
Probable space group: F D D 2
;
_chemical_formula_sum "Si O2"
_cell_formula_units_Z 96
_cell_length_a 10.935312
_cell_length_b 16.606772
_cell_length_c 26.303573
_cell_angle_alpha 90.000000
_cell_angle_beta 90.000000
_cell_angle_gamma 90.000000
_cell_volume 4776.734989
_symmetry_space_group_name_H-M "F D D 2"
_symmetry_group_IT_number 43
_symmetry_cell_setting 'orthorhombic'
loop_
_space_group_symop_operation_xyz
x,y,z
-x,-y,z
1/4-x,1/4+y,1/4+z
1/4+x,1/4-y,1/4+z
x,1/2+y,1/2+z
-x,1/2-y,1/2+z
1/4-x,3/4+y,3/4+z
1/4+x,3/4-y,3/4+z
1/2+x,y,1/2+z
1/2-x,-y,1/2+z
3/4-x,1/4+y,3/4+z
3/4+x,1/4-y,3/4+z
1/2+x,1/2+y,z
1/2-x,1/2-y,z
3/4-x,3/4+y,1/4+z
3/4+x,3/4-y,1/4+z
loop_
_atom_site_type_symbol
_atom_site_label
_atom_site_fract_x
_atom_site_fract_y
_atom_site_fract_z
Si Si1 0.996880 0.771461 0.462740
Si Si2 0.652824 0.891232 0.450770
Si Si3 0.568942 0.867266 0.341955
Si Si4 0.750000 0.750000 0.279325
Si Si5 0.750000 0.750000 0.013155
Si Si6 0.903765 0.427651 0.003162
Si Si7 0.359231 0.981411 0.115394
O O1 0.128300 0.738627 0.480020
O O2 0.030543 0.813079 0.408638
O O3 0.893512 0.702096 0.458521
O O4 0.967390 0.841044 0.502431
O O5 0.628497 0.909461 0.391259
O O6 0.575597 0.942819 0.491223
O O7 0.792008 0.913397 0.464461
O O8 0.664175 0.806123 0.314802
O O9 0.458121 0.816357 0.364353
O O10 0.508729 0.924248 0.300409
O O11 0.000000 0.500000 0.991815
O O12 0.852495 0.444525 0.059419
O O13 0.500000 0.000000 0.126500
#
# Coordination Sequence:
#
# PCOD9371281 Si02
#       7
#    16  16  16   8   8  16  16
#     4  11  24  41  68  96 132 173 224 279 334 410
#     4  11  25  44  69  97 134 180 224 277 345 417
#     4  11  25  41  69  94 135 177 224 277 342 405
#     4  12  23  46  68 100 136 176 223 284 346 414
#     4  12  21  44  62 102 126 166 229 280 324 398
#     4  11  24  44  66  97 133 177 223 283 339 406
#     4  10  21  43  66  92 129 177 216 267 340 404
#
# _framework density 20.09741
#
# number of rings (size 3 to 8) (size 9 to 14) (size 15 to 20)
#    0.000    1.000    4.167    3.000    4.667    0.000 
#    6.000    0.000    0.000    0.000    0.000    0.000 
#    0.000    0.000    0.000    0.000    0.000    0.000 
#
# Total GULP energy -133782.483329 kJ/mol
# GULP energy per Si atom -5574.270139 kJ/mol
# Density = 2.005167 g / cm^3
# Si number density = 20.097410 Si / 1000 Ang^3
#
#
#
# Elastic Constant Matrix: (Units=GPa)
#
#
# Indices 1 2 3 4 5 6 
#
# 1 99.9609 21.5782 40.5954 0.0000 0.0000 0.0000
# 2 21.5782 42.0255 10.0996 0.0000 0.0000 0.0000
# 3 40.5954 10.0996 101.8809 0.0000 0.0000 0.0000
# 4 0.0000 0.0000 0.0000 18.2324 0.0000 0.0000
# 5 0.0000 0.0000 0.0000 0.0000 34.0648 0.0000
# 6 0.0000 0.0000 0.0000 0.0000 0.0000 32.0790
#
#
#
# Elastic Compliance Matrix: (Units=1/GPa)
#
#
# Indices 1 2 3 4 5 6 
#
# 1 0.013111 -0.005610 -0.004668 0.000000 0.000000 0.000000
# 2 -0.005610 0.026776 -0.000419 0.000000 0.000000 0.000000
# 3 -0.004668 -0.000419 0.011717 0.000000 0.000000 0.000000
# 4 0.000000 0.000000 0.000000 0.054847 0.000000 0.000000
# 5 0.000000 0.000000 0.000000 0.000000 0.029356 0.000000
# 6 0.000000 0.000000 0.000000 0.000000 0.000000 0.031173
#
#
# Mechanical properties :
#
#
# Convention : Reuss Voigt Hill
#
# Bulk Modulus (GPa) = 33.10168 43.15711 38.12939
# Shear Modulus (GPa) = 25.19605 28.31484 26.75545
#
# Velocity S-wave (km/s) = 3.54460 3.75758 3.65264
# Velocity P-wave (km/s) = 5.76703 6.35188 6.06651
#
# Compressibility (1/GPa) = 0.03020995
#
# Stress axis : x y z
#
# Youngs Moduli (GPa) = 76.27411 37.34657 85.34679
#
# Poissons Ratio (x) = 0.20951 0.39839
# Poissons Ratio (y) = 0.42789 0.03576
# Poissons Ratio (z) = 0.35604 0.01565
#
# Static dielectric constant tensor:
#      x y z
#    x 1.763590 0.000000 0.000000 
#    y 0.000000 1.695820 0.000000 
#    z 0.000000 0.000000 1.789880 
# 
# From -- ./inp_files/21095.got.cif
#   From: 2010.05.17/outbox.cif.g08.bks.cpg/sg43_11_cif.got.tgz:21095.got - 2010.06.03 19:21:55.
