data_PCOD9371389
_publ_section_title
;
Structure prediction by ZEFSAII (Michael W. Deem and Ramdas Pophale) SiO2 
 PCOD9371389
Probable space group: F D D 2
;
_chemical_formula_sum "Si O2"
_cell_formula_units_Z 104
_cell_length_a 18.691457
_cell_length_b 9.195984
_cell_length_c 26.883499
_cell_angle_alpha 90.000000
_cell_angle_beta 90.000000
_cell_angle_gamma 90.000000
_cell_volume 4620.906236
_symmetry_space_group_name_H-M "F D D 2"
_symmetry_group_IT_number 43
_symmetry_cell_setting 'orthorhombic'
loop_
_space_group_symop_operation_xyz
x,y,z
-x,-y,z
1/4-x,1/4+y,1/4+z
1/4+x,1/4-y,1/4+z
x,1/2+y,1/2+z
-x,1/2-y,1/2+z
1/4-x,3/4+y,3/4+z
1/4+x,3/4-y,3/4+z
1/2+x,y,1/2+z
1/2-x,-y,1/2+z
3/4-x,1/4+y,3/4+z
3/4+x,1/4-y,3/4+z
1/2+x,1/2+y,z
1/2-x,1/2-y,z
3/4-x,3/4+y,1/4+z
3/4+x,3/4-y,1/4+z
loop_
_atom_site_type_symbol
_atom_site_label
_atom_site_fract_x
_atom_site_fract_y
_atom_site_fract_z
Si Si1 0.000000 0.000000 0.986270
Si Si2 0.130038 0.038050 0.236733
Si Si3 0.364820 0.981204 0.051190
Si Si4 0.849415 0.994034 0.753193
Si Si5 0.325701 0.832786 0.147538
Si Si6 0.472040 0.717421 0.739404
Si Si7 0.958033 0.630795 0.652525
O O1 0.058523 0.889644 0.962421
O O2 0.952587 0.879307 0.012948
O O3 0.075840 0.151433 0.261930
O O4 0.150806 0.909565 0.274805
O O5 0.083407 0.960019 0.195162
O O6 0.333551 0.952485 0.105067
O O7 0.410559 0.126544 0.046484
O O8 0.297065 0.023218 0.016839
O O9 0.926086 0.072775 0.746046
O O10 0.833635 0.907199 0.701690
O O11 0.250000 0.750000 0.145759
O O12 0.392129 0.726507 0.133378
O O13 0.488450 0.759278 0.681777
O O14 0.000000 0.500000 0.624354
#
# Coordination Sequence:
#
# PCOD9371389 Si02
#       7
#     8  16  16  16  16  16  16
#     4  10  22  38  62  92 132 180 216 280 360 408
#     4   9  17  36  62  90 125 177 221 268 348 412
#     4  11  22  39  67  95 130 179 234 281 339 427
#     4  11  23  41  68  97 137 185 226 288 361 412
#     4  12  24  40  69 107 140 176 238 297 352 424
#     4   9  18  38  68  90 123 183 234 266 340 423
#     4   9  18  37  67  95 133 180 226 279 346 420
#
# _framework density 22.506409000000001
#
# number of rings (size 3 to 8) (size 9 to 14) (size 15 to 20)
#    0.000    1.846    3.077    3.692    0.000    0.000 
#    4.154    3.077   13.538    0.000    0.000    0.000 
#    0.000    0.000    0.000    0.000    0.000    0.000 
#
# Total GULP energy -144815.326725 kJ/mol
# GULP energy per Si atom -5569.820259 kJ/mol
# Density = 2.245518 g / cm^3
# Si number density = 22.506409 Si / 1000 Ang^3
#
#
#
# Elastic Constant Matrix: (Units=GPa)
#
#
# Indices 1 2 3 4 5 6 
#
# 1 87.8730 49.4775 5.2257 0.0000 0.0000 0.0000
# 2 49.4775 145.5795 34.4108 0.0000 0.0000 0.0000
# 3 5.2257 34.4108 63.9502 0.0000 0.0000 0.0000
# 4 0.0000 0.0000 0.0000 17.5070 0.0000 0.0000
# 5 0.0000 0.0000 0.0000 0.0000 4.9648 0.0000
# 6 0.0000 0.0000 0.0000 0.0000 0.0000 49.0966
#
#
#
# Elastic Compliance Matrix: (Units=1/GPa)
#
#
# Indices 1 2 3 4 5 6 
#
# 1 0.014223 -0.005224 0.001649 0.000000 0.000000 0.000000
# 2 -0.005224 0.009789 -0.004840 0.000000 0.000000 0.000000
# 3 0.001649 -0.004840 0.018107 0.000000 0.000000 0.000000
# 4 0.000000 0.000000 0.000000 0.057120 0.000000 0.000000
# 5 0.000000 0.000000 0.000000 0.000000 0.201416 0.000000
# 6 0.000000 0.000000 0.000000 0.000000 0.000000 0.020368
#
#
# Mechanical properties :
#
#
# Convention : Reuss Voigt Hill
#
# Bulk Modulus (GPa) = 39.54452 52.84786 46.19619
# Shear Modulus (GPa) = 14.43906 28.19960 21.31933
#
# Velocity S-wave (km/s) = 2.53564 3.54356 3.08109
# Velocity P-wave (km/s) = 5.11675 6.34623 5.76436
#
# Compressibility (1/GPa) = 0.02528795
#
# Stress axis : x y z
#
# Youngs Moduli (GPa) = 70.30751 102.16041 55.22754
#
# Poissons Ratio (x) = 0.53365 -0.09104
# Poissons Ratio (y) = 0.36726 0.26731
# Poissons Ratio (z) = -0.11590 0.49448
#
# Static dielectric constant tensor:
#      x y z
#    x 1.952330 0.000000 0.000000 
#    y 0.000000 1.899780 0.000000 
#    z 0.000000 0.000000 1.813920 
# 
# From -- ./inp_files/29694.got.cif
#   From: 2010.05.17/outbox.cif.g08.bks.cpg/sg43_15_cif.got.tgz:29694.got - 2010.06.03 19:21:55.
