data_PCOD9371493
_publ_section_title
;
Structure prediction by ZEFSAII (Michael W. Deem and Ramdas Pophale) SiO2 
 PCOD9371493
Probable space group: F D D 2
;
_chemical_formula_sum "Si O2"
_cell_formula_units_Z 112
_cell_length_a 15.224507
_cell_length_b 12.094432
_cell_length_c 28.820675
_cell_angle_alpha 90.000000
_cell_angle_beta 90.000000
_cell_angle_gamma 90.000000
_cell_volume 5306.801746
_symmetry_space_group_name_H-M "F D D 2"
_symmetry_group_IT_number 43
_symmetry_cell_setting 'orthorhombic'
loop_
_space_group_symop_operation_xyz
x,y,z
-x,-y,z
1/4-x,1/4+y,1/4+z
1/4+x,1/4-y,1/4+z
x,1/2+y,1/2+z
-x,1/2-y,1/2+z
1/4-x,3/4+y,3/4+z
1/4+x,3/4-y,3/4+z
1/2+x,y,1/2+z
1/2-x,-y,1/2+z
3/4-x,1/4+y,3/4+z
3/4+x,1/4-y,3/4+z
1/2+x,1/2+y,z
1/2-x,1/2-y,z
3/4-x,3/4+y,1/4+z
3/4+x,3/4-y,1/4+z
loop_
_atom_site_type_symbol
_atom_site_label
_atom_site_fract_x
_atom_site_fract_y
_atom_site_fract_z
Si Si1 0.233217 0.374470 0.951550
Si Si2 0.750000 0.250000 0.835482
Si Si3 0.000000 0.500000 0.359328
Si Si4 0.453700 0.617975 0.342774
Si Si5 0.062802 0.297376 0.293824
Si Si6 0.231278 0.381898 0.793993
Si Si7 0.465986 0.624243 0.447819
Si Si8 0.057527 0.234107 0.122342
O O1 0.250000 0.250000 0.935731
O O2 0.132658 0.379844 0.967581
O O3 0.246642 0.455898 0.909190
O O4 0.298384 0.408178 0.992447
O O5 0.839003 0.244955 0.805155
O O6 0.731595 0.360848 0.865625
O O7 0.973945 0.604531 0.326993
O O8 0.908728 0.495428 0.387762
O O9 0.500000 0.500000 0.344008
O O10 0.501215 0.695137 0.305876
O O11 0.356368 0.602758 0.323650
O O12 0.461191 0.669618 0.395096
O O13 0.250000 0.250000 0.793696
O O14 0.227624 0.422690 0.740497
O O15 0.301796 0.453213 0.822703
O O16 0.500000 0.500000 0.441962
#
# Coordination Sequence:
#
# PCOD9371493 Si02
#       8
#    16   8   8  16  16  16  16  16
#     4  12  25  43  70 107 131 174 235 296 345 411
#     4  10  26  45  64  90 138 198 214 273 344 424
#     4  10  22  41  64  92 130 186 222 275 344 406
#     4  11  23  42  67 101 135 179 228 286 351 415
#     4  11  23  44  67  94 139 177 230 280 344 414
#     4  11  21  40  70 101 133 173 225 296 351 402
#     4  10  23  40  67 103 136 173 222 292 357 405
#     4  11  23  43  66  96 139 176 235 280 344 418
#
# _framework density 21.104990000000001
#
# number of rings (size 3 to 8) (size 9 to 14) (size 15 to 20)
#    0.000    1.143    2.143    4.714    6.000    0.571 
#    1.286    4.286    0.000    0.000    0.000    0.000 
#    0.000    0.000    0.000    0.000    0.000    0.000 
#
# Total GULP energy -156201.388728 kJ/mol
# GULP energy per Si atom -5578.621026 kJ/mol
# Density = 2.105695 g / cm^3
# Si number density = 21.104990 Si / 1000 Ang^3
#
#
#
# Elastic Constant Matrix: (Units=GPa)
#
#
# Indices 1 2 3 4 5 6 
#
# 1 93.7123 28.6945 -14.9667 0.0000 0.0000 0.0000
# 2 28.6945 87.5619 10.6340 0.0000 0.0000 0.0000
# 3 -14.9667 10.6340 60.8809 0.0000 0.0000 0.0000
# 4 0.0000 0.0000 0.0000 -72.7771 0.0000 0.0000
# 5 0.0000 0.0000 0.0000 0.0000 24.6549 0.0000
# 6 0.0000 0.0000 0.0000 0.0000 0.0000 26.7569
#
#
#
# Elastic Compliance Matrix: (Units=1/GPa)
#
#
# Indices 1 2 3 4 5 6 
#
# 1 0.012723 -0.004648 0.003940 0.000000 0.000000 0.000000
# 2 -0.004648 0.013366 -0.003477 0.000000 0.000000 0.000000
# 3 0.003940 -0.003477 0.018001 0.000000 0.000000 0.000000
# 4 0.000000 0.000000 0.000000 -0.013741 0.000000 0.000000
# 5 0.000000 0.000000 0.000000 0.000000 0.040560 0.000000
# 6 0.000000 0.000000 0.000000 0.000000 0.000000 0.037373
#
#
# Mechanical properties :
#
#
# Convention : Reuss Voigt Hill
#
# Bulk Modulus (GPa) = 27.99580 32.31989 30.15784
# Shear Modulus (GPa) = 38.89204 10.24652 24.56928
#
# Velocity S-wave (km/s) = 4.29743 2.20580 3.41566
# Velocity P-wave (km/s) = 6.15773 4.67274 5.46590
#
# Compressibility (1/GPa) = 0.03571965
#
# Stress axis : x y z
#
# Youngs Moduli (GPa) = 78.59562 74.81696 55.55127
#
# Poissons Ratio (x) = 0.34775 -0.21886
# Poissons Ratio (y) = 0.36531 0.19317
# Poissons Ratio (z) = -0.30964 0.26016
#
# Static dielectric constant tensor:
#      x y z
#    x 1.860960 0.000000 0.000000 
#    y 0.000000 1.780900 0.000000 
#    z 0.000000 0.000000 1.788940 
# 
# From -- ./inp_files/29126.got.cif
#   From: 2010.05.17/outbox.cif.g08.bks.cpg/sg43_15_cif.got.tgz:29126.got - 2010.06.03 19:21:55.
