data_PCOD9371673
_publ_section_title
;
Structure prediction by ZEFSAII (Michael W. Deem and Ramdas Pophale) SiO2 
 PCOD9371673
Probable space group: F D D 2
;
_chemical_formula_sum "Si O2"
_cell_formula_units_Z 56
_cell_length_a 22.930676
_cell_length_b 11.882807
_cell_length_c 7.895566
_cell_angle_alpha 90.000000
_cell_angle_beta 90.000000
_cell_angle_gamma 90.000000
_cell_volume 2151.390119
_symmetry_space_group_name_H-M "F D D 2"
_symmetry_group_IT_number 43
_symmetry_cell_setting 'orthorhombic'
loop_
_space_group_symop_operation_xyz
x,y,z
-x,-y,z
1/4-x,1/4+y,1/4+z
1/4+x,1/4-y,1/4+z
x,1/2+y,1/2+z
-x,1/2-y,1/2+z
1/4-x,3/4+y,3/4+z
1/4+x,3/4-y,3/4+z
1/2+x,y,1/2+z
1/2-x,-y,1/2+z
3/4-x,1/4+y,3/4+z
3/4+x,1/4-y,3/4+z
1/2+x,1/2+y,z
1/2-x,1/2-y,z
3/4-x,3/4+y,1/4+z
3/4+x,3/4-y,1/4+z
loop_
_atom_site_type_symbol
_atom_site_label
_atom_site_fract_x
_atom_site_fract_y
_atom_site_fract_z
Si Si1 0.445920 0.097677 0.176840
Si Si2 0.394516 0.438271 0.181847
Si Si3 0.301364 0.601266 0.253706
Si Si4 0.750000 0.750000 0.227129
O O1 0.386942 0.130813 0.271090
O O2 0.490556 0.098336 0.339313
O O3 0.483134 0.169209 0.041965
O O4 0.438069 0.974319 0.090176
O O5 0.348982 0.507243 0.298410
O O6 0.432569 0.361079 0.305518
O O7 0.443865 0.511652 0.092330
#
# Coordination Sequence:
#
# PCOD9371673 Si02
#       4
#    16  16  16   8
#     4  10  25  48  68 108 152 185 251 313 354 454
#     4  12  23  47  75 105 147 200 242 306 380 437
#     4  10  25  44  71 108 145 195 248 304 368 445
#     4  10  22  44  68 106 144 186 242 304 368 444
#
# _framework density 26.029682999999999
#
# number of rings (size 3 to 8) (size 9 to 14) (size 15 to 20)
#    0.000    1.714    2.857    1.714    8.000    2.286 
#   10.286    0.000    0.000    0.000    0.000    0.000 
#    0.000    0.000    0.000    0.000    0.000    0.000 
#
# Total GULP energy -77971.630033 kJ/mol
# GULP energy per Si atom -5569.402145 kJ/mol
# Density = 2.597044 g / cm^3
# Si number density = 26.029683 Si / 1000 Ang^3
#
#
#
# Elastic Constant Matrix: (Units=GPa)
#
#
# Indices 1 2 3 4 5 6 
#
# 1 140.9409 28.4865 59.0101 0.0000 0.0000 0.0000
# 2 28.4865 63.3647 32.7781 0.0000 0.0000 0.0000
# 3 59.0101 32.7781 86.3858 0.0000 0.0000 0.0000
# 4 0.0000 0.0000 0.0000 38.1167 0.0000 0.0000
# 5 0.0000 0.0000 0.0000 0.0000 81.7207 0.0000
# 6 0.0000 0.0000 0.0000 0.0000 0.0000 29.3970
#
#
#
# Elastic Compliance Matrix: (Units=1/GPa)
#
#
# Indices 1 2 3 4 5 6 
#
# 1 0.010010 -0.001198 -0.006383 0.000000 0.000000 0.000000
# 2 -0.001198 0.019779 -0.006687 0.000000 0.000000 0.000000
# 3 -0.006383 -0.006687 0.018473 0.000000 0.000000 0.000000
# 4 0.000000 0.000000 0.000000 0.026235 0.000000 0.000000
# 5 0.000000 0.000000 0.000000 0.000000 0.012237 0.000000
# 6 0.000000 0.000000 0.000000 0.000000 0.000000 0.034017
#
#
# Mechanical properties :
#
#
# Convention : Reuss Voigt Hill
#
# Bulk Modulus (GPa) = 50.69225 59.02676 54.85950
# Shear Modulus (GPa) = 32.07950 41.20800 36.64375
#
# Velocity S-wave (km/s) = 3.51439 3.98316 3.75609
# Velocity P-wave (km/s) = 5.99875 6.62420 6.31922
#
# Compressibility (1/GPa) = 0.01972688
#
# Stress axis : x y z
#
# Youngs Moduli (GPa) = 99.90144 50.55814 54.13186
#
# Poissons Ratio (x) = 0.06058 0.34553
# Poissons Ratio (y) = 0.11970 0.36196
# Poissons Ratio (z) = 0.63768 0.33806
#
# Static dielectric constant tensor:
#      x y z
#    x 2.160470 0.000000 0.000000 
#    y 0.000000 2.399980 0.000000 
#    z 0.000000 0.000000 2.066570 
# 
# From -- ./inp_files/2144.got.cif
#   From: 2010.05.17/outbox.cif.g08.bks.cpg/sg43_2_cif.got.tgz:2144.got - 2010.06.03 19:21:55.
