data_PCOD9371710
_publ_section_title
;
Structure prediction by ZEFSAII (Michael W. Deem and Ramdas Pophale) SiO2 
 PCOD9371710
Probable space group: F D D 2
;
_chemical_formula_sum "Si O2"
_cell_formula_units_Z 96
_cell_length_a 16.771672
_cell_length_b 9.621149
_cell_length_c 22.781083
_cell_angle_alpha 90.000000
_cell_angle_beta 90.000000
_cell_angle_gamma 90.000000
_cell_volume 3676.018321
_symmetry_space_group_name_H-M "F D D 2"
_symmetry_group_IT_number 43
_symmetry_cell_setting 'orthorhombic'
loop_
_space_group_symop_operation_xyz
x,y,z
-x,-y,z
1/4-x,1/4+y,1/4+z
1/4+x,1/4-y,1/4+z
x,1/2+y,1/2+z
-x,1/2-y,1/2+z
1/4-x,3/4+y,3/4+z
1/4+x,3/4-y,3/4+z
1/2+x,y,1/2+z
1/2-x,-y,1/2+z
3/4-x,1/4+y,3/4+z
3/4+x,1/4-y,3/4+z
1/2+x,1/2+y,z
1/2-x,1/2-y,z
3/4-x,3/4+y,1/4+z
3/4+x,3/4-y,1/4+z
loop_
_atom_site_type_symbol
_atom_site_label
_atom_site_fract_x
_atom_site_fract_y
_atom_site_fract_z
Si Si1 0.250000 0.250000 0.790830
Si Si2 0.476264 0.725131 0.849752
Si Si3 0.328703 0.021063 0.328576
Si Si4 0.861688 0.155633 0.187922
Si Si5 0.500000 0.000000 0.651782
Si Si6 0.926462 0.895596 0.951098
Si Si7 0.499352 0.835131 0.218749
O O1 0.192435 0.330201 0.744958
O O2 0.298976 0.361685 0.829050
O O3 0.504713 0.734094 0.783235
O O4 0.412860 0.594528 0.848289
O O5 0.435326 0.860253 0.879133
O O6 0.546397 0.687815 0.894138
O O7 0.336962 0.955940 0.444138
O O8 0.264065 0.121533 0.358556
O O9 0.329298 0.052318 0.258847
O O10 0.919518 0.288629 0.185536
O O11 0.924863 0.030393 0.192252
O O12 0.000000 0.000000 0.962270
O O13 0.500000 0.000000 0.224035
#
# Coordination Sequence:
#
# PCOD9371710 Si02
#       7
#     8  16  16  16   8  16  16
#     4  12  24  48  77 114 160 191 256 344 378 430
#     4  10  23  47  77 110 153 213 256 306 400 473
#     4  10  22  44  75 109 152 199 260 316 380 470
#     4  11  25  47  77 108 158 199 258 320 381 468
#     4  10  24  50  73 104 154 207 250 298 396 478
#     4  11  22  42  79 105 150 209 254 311 383 470
#     4  11  26  49  75 117 159 196 263 330 388 465
#
# _framework density 26.115213000000001
#
# number of rings (size 3 to 8) (size 9 to 14) (size 15 to 20)
#    0.000    1.333    2.500    2.500    4.667    0.000 
#    4.500    1.667    0.000    0.000    0.000    0.000 
#    0.000    0.000    0.000    0.000    0.000    0.000 
#
# Total GULP energy -134330.539010 kJ/mol
# GULP energy per Si atom -5597.105792 kJ/mol
# Density = 2.605577 g / cm^3
# Si number density = 26.115213 Si / 1000 Ang^3
#
#
#
# Elastic Constant Matrix: (Units=GPa)
#
#
# Indices 1 2 3 4 5 6 
#
# 1 148.3884 59.7551 69.2039 0.0000 0.0000 0.0000
# 2 59.7551 141.2865 68.2808 0.0000 0.0000 0.0000
# 3 69.2039 68.2808 127.3908 0.0000 0.0000 0.0000
# 4 0.0000 0.0000 0.0000 41.7515 0.0000 0.0000
# 5 0.0000 0.0000 0.0000 0.0000 48.5064 0.0000
# 6 0.0000 0.0000 0.0000 0.0000 0.0000 50.7289
#
#
#
# Elastic Compliance Matrix: (Units=1/GPa)
#
#
# Indices 1 2 3 4 5 6 
#
# 1 0.009444 -0.002044 -0.004035 0.000000 0.000000 0.000000
# 2 -0.002044 0.009995 -0.004247 0.000000 0.000000 0.000000
# 3 -0.004035 -0.004247 0.012318 0.000000 0.000000 0.000000
# 4 0.000000 0.000000 0.000000 0.023951 0.000000 0.000000
# 5 0.000000 0.000000 0.000000 0.000000 0.020616 0.000000
# 6 0.000000 0.000000 0.000000 0.000000 0.000000 0.019713
#
#
# Mechanical properties :
#
#
# Convention : Reuss Voigt Hill
#
# Bulk Modulus (GPa) = 90.04590 90.17171 90.10880
# Shear Modulus (GPa) = 41.53213 42.85243 42.19228
#
# Velocity S-wave (km/s) = 3.99224 4.05520 4.02384
# Velocity P-wave (km/s) = 7.47032 7.51861 7.49451
#
# Compressibility (1/GPa) = 0.01110545
#
# Stress axis : x y z
#
# Youngs Moduli (GPa) = 105.88823 100.05295 81.18390
#
# Poissons Ratio (x) = 0.20454 0.32754
# Poissons Ratio (y) = 0.21647 0.34475
# Poissons Ratio (z) = 0.42721 0.42488
#
# Static dielectric constant tensor:
#      x y z
#    x 2.146400 0.000000 0.000000 
#    y 0.000000 2.094100 0.000000 
#    z 0.000000 0.000000 2.086220 
# 
# From -- ./inp_files/26323.got.cif
#   From: 2010.05.17/outbox.cif.g08.bks.cpg/sg43_14_cif.got.tgz:26323.got - 2010.06.03 19:21:55.
