data_PCOD9371014
_publ_section_title
;
Structure prediction by ZEFSAII (Michael W. Deem and Ramdas Pophale) SiO2 
 PCOD9371014
Probable space group: F D D 2
;
_chemical_formula_sum "Si O2"
_cell_formula_units_Z 120
_cell_length_a 25.505127
_cell_length_b 8.445589
_cell_length_c 26.089816
_cell_angle_alpha 90.000000
_cell_angle_beta 90.000000
_cell_angle_gamma 90.000000
_cell_volume 5619.898210
_symmetry_space_group_name_H-M "F D D 2"
_symmetry_group_IT_number 43
_symmetry_cell_setting 'orthorhombic'
loop_
_space_group_symop_operation_xyz
x,y,z
-x,-y,z
1/4-x,1/4+y,1/4+z
1/4+x,1/4-y,1/4+z
x,1/2+y,1/2+z
-x,1/2-y,1/2+z
1/4-x,3/4+y,3/4+z
1/4+x,3/4-y,3/4+z
1/2+x,y,1/2+z
1/2-x,-y,1/2+z
3/4-x,1/4+y,3/4+z
3/4+x,1/4-y,3/4+z
1/2+x,1/2+y,z
1/2-x,1/2-y,z
3/4-x,3/4+y,1/4+z
3/4+x,3/4-y,1/4+z
loop_
_atom_site_type_symbol
_atom_site_label
_atom_site_fract_x
_atom_site_fract_y
_atom_site_fract_z
Si Si1 0.192492 0.263433 0.362450
Si Si2 0.903714 0.850755 0.213094
Si Si3 0.206215 0.540657 0.287358
Si Si4 0.637826 0.745049 0.851476
Si Si5 0.144287 0.777105 0.467023
Si Si6 0.924871 0.250946 0.035490
Si Si7 0.213294 0.903385 0.555728
Si Si8 0.000000 0.500000 0.776712
O O1 0.250000 0.250000 0.386602
O O2 0.155811 0.342894 0.404299
O O3 0.199609 0.367599 0.311452
O O4 0.177050 0.097809 0.338312
O O5 0.907951 0.661063 0.218713
O O6 0.850094 0.904340 0.239704
O O7 0.950447 0.941531 0.242893
O O8 0.189455 0.646724 0.336219
O O9 0.162356 0.556729 0.243577
O O10 0.266700 0.560826 0.272796
O O11 0.642407 0.818010 0.907282
O O12 0.584805 0.645238 0.846098
O O13 0.636023 0.861602 0.802910
O O14 0.187530 0.870615 0.499728
O O15 0.250000 0.750000 0.565016
O O16 0.236461 0.083386 0.556617
#
# Coordination Sequence:
#
# PCOD9371014 Si02
#       8
#    16  16  16  16  16  16  16   8
#     4  10  21  36  61  95 127 171 221 272 330 400
#     4  12  22  40  67  97 131 176 226 280 340 403
#     4  10  22  43  62  93 135 168 221 273 337 401
#     4  11  24  42  67  97 132 178 221 273 346 403
#     4  11  24  42  68 100 133 174 225 285 337 401
#     4  11  24  40  64  96 134 178 220 281 334 411
#     4  11  25  45  70  97 139 177 226 283 335 402
#     4  12  24  44  68 102 134 174 230 288 340 402
#
# _framework density 21.352699999999999
#
# number of rings (size 3 to 8) (size 9 to 14) (size 15 to 20)
#    0.000    1.067    6.000    0.400    1.867    1.067 
#    2.400    0.000    5.867    0.000    0.000    0.000 
#    0.000    0.000    0.000    0.000    0.000    0.000 
#
# Total GULP energy -167306.938902 kJ/mol
# GULP energy per Si atom -5576.897963 kJ/mol
# Density = 2.130410 g / cm^3
# Si number density = 21.352700 Si / 1000 Ang^3
#
#
#
# Elastic Constant Matrix: (Units=GPa)
#
#
# Indices 1 2 3 4 5 6 
#
# 1 96.5685 23.7521 23.0636 0.0000 0.0000 0.0000
# 2 23.7521 90.9852 17.2665 0.0000 0.0000 -0.0001
# 3 23.0636 17.2665 59.1788 0.0000 0.0000 0.0000
# 4 0.0000 0.0000 0.0000 5.3614 0.0000 0.0000
# 5 0.0000 0.0000 0.0000 0.0000 2.0644 0.0000
# 6 0.0000 -0.0001 0.0000 0.0000 0.0000 35.1317
#
#
#
# Elastic Compliance Matrix: (Units=1/GPa)
#
#
# Indices 1 2 3 4 5 6 
#
# 1 0.011875 -0.002352 -0.003942 0.000000 0.000000 0.000000
# 2 -0.002352 0.012101 -0.002614 0.000000 0.000000 0.000000
# 3 -0.003942 -0.002614 0.019197 0.000000 0.000000 0.000000
# 4 0.000000 0.000000 0.000000 0.186518 -0.000001 0.000000
# 5 0.000000 0.000000 0.000000 -0.000001 0.484407 0.000000
# 6 0.000000 0.000000 0.000000 0.000000 0.000000 0.028464
#
#
# Mechanical properties :
#
#
# Convention : Reuss Voigt Hill
#
# Bulk Modulus (GPa) = 39.43649 41.65521 40.54585
# Shear Modulus (GPa) = 6.50338 20.68819 13.59579
#
# Velocity S-wave (km/s) = 1.74709 3.11606 2.52608
# Velocity P-wave (km/s) = 4.75173 5.70061 5.24766
#
# Compressibility (1/GPa) = 0.02535723
#
# Stress axis : x y z
#
# Youngs Moduli (GPa) = 84.20843 82.63866 52.09179
#
# Poissons Ratio (x) = 0.19437 0.20534
# Poissons Ratio (y) = 0.19806 0.13617
# Poissons Ratio (z) = 0.33194 0.21602
#
# Static dielectric constant tensor:
#      x y z
#    x 1.842080 0.000000 0.000000 
#    y 0.000000 1.915080 0.000000 
#    z 0.000000 0.000000 1.731650 
# 
# From -- ./inp_files/24458.got.cif
#   From: 2010.05.17/outbox.cif.g08.bks.cpg/sg43_13_cif.got.tgz:24458.got - 2010.06.03 19:21:55.
