data_PCOD9371680
_publ_section_title
;
Structure prediction by ZEFSAII (Michael W. Deem and Ramdas Pophale) SiO2 
 PCOD9371680
Probable space group: F D D 2
;
_chemical_formula_sum "Si O2"
_cell_formula_units_Z 72
_cell_length_a 22.281966
_cell_length_b 22.395572
_cell_length_c 5.771625
_cell_angle_alpha 90.000000
_cell_angle_beta 90.000000
_cell_angle_gamma 90.000000
_cell_volume 2880.141150
_symmetry_space_group_name_H-M "F D D 2"
_symmetry_group_IT_number 43
_symmetry_cell_setting 'orthorhombic'
loop_
_space_group_symop_operation_xyz
x,y,z
-x,-y,z
1/4-x,1/4+y,1/4+z
1/4+x,1/4-y,1/4+z
x,1/2+y,1/2+z
-x,1/2-y,1/2+z
1/4-x,3/4+y,3/4+z
1/4+x,3/4-y,3/4+z
1/2+x,y,1/2+z
1/2-x,-y,1/2+z
3/4-x,1/4+y,3/4+z
3/4+x,1/4-y,3/4+z
1/2+x,1/2+y,z
1/2-x,1/2-y,z
3/4-x,3/4+y,1/4+z
3/4+x,3/4-y,1/4+z
loop_
_atom_site_type_symbol
_atom_site_label
_atom_site_fract_x
_atom_site_fract_y
_atom_site_fract_z
Si Si1 0.371582 0.300418 0.569750
Si Si2 0.060351 0.774999 0.419954
Si Si3 0.171975 0.332406 0.076957
Si Si4 0.540495 0.162888 0.699359
Si Si5 0.500000 0.000000 0.987826
O O1 0.406607 0.244149 0.682968
O O2 0.392856 0.356569 0.726690
O O3 0.396918 0.321901 0.324379
O O4 0.302560 0.282480 0.594097
O O5 0.112949 0.792136 0.596789
O O6 0.028348 0.716335 0.517525
O O7 0.012934 0.827533 0.381167
O O8 0.203665 0.351546 0.313560
O O9 0.217016 0.298737 0.903803
#
# Coordination Sequence:
#
# PCOD9371680 Si02
#       5
#    16  16  16  16   8
#     4  10  23  45  71 108 140 193 243 306 371 444
#     4  10  22  44  69 104 144 183 249 300 365 442
#     4  10  25  45  70 109 147 188 249 300 370 449
#     4  11  22  44  76 102 140 198 240 304 372 442
#     4  10  24  50  74 110 160 190 250 320 372 444
#
# _framework density 24.998777
#
# number of rings (size 3 to 8) (size 9 to 14) (size 15 to 20)
#    0.000    1.778    2.222    0.000    3.111    3.556 
#   12.000    5.556    0.000    0.000    0.000    0.000 
#    0.000    0.000    0.000    0.000    0.000    0.000 
#
# Total GULP energy -100670.386068 kJ/mol
# GULP energy per Si atom -5592.799226 kJ/mol
# Density = 2.494188 g / cm^3
# Si number density = 24.998777 Si / 1000 Ang^3
#
#
#
# Elastic Constant Matrix: (Units=GPa)
#
#
# Indices 1 2 3 4 5 6 
#
# 1 178.7086 46.7310 36.7702 0.0306 -0.0335 -0.0219
# 2 46.7310 85.7494 16.3173 0.0239 -0.0340 -0.0240
# 3 36.7702 16.3173 62.4052 0.0266 -0.0520 -0.0252
# 4 0.0306 0.0239 0.0266 45.2544 -0.0207 -0.0169
# 5 -0.0335 -0.0340 -0.0520 -0.0207 28.4668 0.0160
# 6 -0.0219 -0.0240 -0.0252 -0.0169 0.0160 37.8542
#
#
#
# Elastic Compliance Matrix: (Units=1/GPa)
#
#
# Indices 1 2 3 4 5 6 
#
# 1 0.007136 -0.003251 -0.003355 -0.000001 -0.000002 0.000000
# 2 -0.003251 0.013753 -0.001681 -0.000004 0.000010 0.000006
# 3 -0.003355 -0.001681 0.018440 -0.000008 0.000028 0.000009
# 4 -0.000001 -0.000004 -0.000008 0.022097 0.000016 0.000010
# 5 -0.000002 0.000010 0.000028 0.000016 0.035129 -0.000015
# 6 0.000000 0.000006 0.000009 0.000010 -0.000015 0.026417
#
#
# Mechanical properties :
#
#
# Convention : Reuss Voigt Hill
#
# Bulk Modulus (GPa) = 43.94149 58.50002 51.22076
# Shear Modulus (GPa) = 33.98339 37.45138 35.71738
#
# Velocity S-wave (km/s) = 3.69101 3.87477 3.78400
# Velocity P-wave (km/s) = 5.98167 6.59321 6.29487
#
# Compressibility (1/GPa) = 0.02275753
#
# Stress axis : x y z
#
# Youngs Moduli (GPa) = 140.13583 72.71047 54.22857
#
# Poissons Ratio (x) = 0.23635 0.18192
# Poissons Ratio (y) = 0.45551 0.09115
# Poissons Ratio (z) = 0.47011 0.12221
#
# Static dielectric constant tensor:
#      x y z
#    x 1.976890 0.000010 0.000020 
#    y 0.000010 2.002020 -0.000010 
#    z 0.000020 -0.000010 2.014210 
# 
# From -- ./inp_files/741.got.cif
#   From: 2010.05.17/outbox.cif.g08.bks.cpg/sg43_1_cif.got.tgz:741.got - 2010.06.03 19:21:55.
