data_PCOD9371535
_publ_section_title
;
Structure prediction by ZEFSAII (Michael W. Deem and Ramdas Pophale) SiO2 
 PCOD9371535
Probable space group: F D D 2
;
_chemical_formula_sum "Si O2"
_cell_formula_units_Z 112
_cell_length_a 13.433934
_cell_length_b 24.456915
_cell_length_c 14.485042
_cell_angle_alpha 90.000000
_cell_angle_beta 90.000000
_cell_angle_gamma 90.000000
_cell_volume 4759.097949
_symmetry_space_group_name_H-M "F D D 2"
_symmetry_group_IT_number 43
_symmetry_cell_setting 'orthorhombic'
loop_
_space_group_symop_operation_xyz
x,y,z
-x,-y,z
1/4-x,1/4+y,1/4+z
1/4+x,1/4-y,1/4+z
x,1/2+y,1/2+z
-x,1/2-y,1/2+z
1/4-x,3/4+y,3/4+z
1/4+x,3/4-y,3/4+z
1/2+x,y,1/2+z
1/2-x,-y,1/2+z
3/4-x,1/4+y,3/4+z
3/4+x,1/4-y,3/4+z
1/2+x,1/2+y,z
1/2-x,1/2-y,z
3/4-x,3/4+y,1/4+z
3/4+x,3/4-y,1/4+z
loop_
_atom_site_type_symbol
_atom_site_label
_atom_site_fract_x
_atom_site_fract_y
_atom_site_fract_z
Si Si1 0.640409 0.266881 0.915470
Si Si2 0.743972 0.491265 0.520911
Si Si3 0.291529 0.308377 0.784696
Si Si4 0.700072 0.821440 0.583938
Si Si5 0.676309 0.639918 0.106234
Si Si6 0.845564 0.399092 0.408047
Si Si7 0.024982 0.348054 0.687071
O O1 0.750000 0.250000 0.881241
O O2 0.557971 0.235519 0.856762
O O3 0.605519 0.327963 0.885850
O O4 0.651074 0.270682 0.026437
O O5 0.659776 0.448423 0.549218
O O6 0.805571 0.457523 0.444280
O O7 0.684575 0.543037 0.482698
O O8 0.250000 0.250000 0.822133
O O9 0.261729 0.312209 0.676924
O O10 0.276708 0.367584 0.832938
O O11 0.766273 0.852994 0.508645
O O12 0.604139 0.859390 0.607525
O O13 0.787590 0.655577 0.133712
O O14 0.583917 0.670442 0.153085
O O15 0.662549 0.640676 0.996816
#
# Coordination Sequence:
#
# PCOD9371535 Si02
#       7
#    16  16  16  16  16  16  16
#     4  10  22  41  71  99 135 186 231 294 364 422
#     4  11  26  44  71 104 142 188 242 293 362 438
#     4  12  25  49  70 102 148 187 241 295 362 430
#     4  11  26  45  71 104 145 187 241 304 358 435
#     4  10  22  42  70 100 140 182 232 292 358 426
#     4  11  23  47  69  98 143 188 227 297 358 420
#     4  11  25  44  69 109 140 186 245 295 361 435
#
# _framework density 23.533871999999999
#
# number of rings (size 3 to 8) (size 9 to 14) (size 15 to 20)
#    0.000    1.143    4.286    2.143   10.000    0.000 
#    5.143    0.000    0.000    0.000    0.000    0.000 
#    0.000    0.000    0.000    0.000    0.000    0.000 
#
# Total GULP energy -156036.440512 kJ/mol
# GULP energy per Si atom -5572.730018 kJ/mol
# Density = 2.348031 g / cm^3
# Si number density = 23.533872 Si / 1000 Ang^3
#
#
#
# Elastic Constant Matrix: (Units=GPa)
#
#
# Indices 1 2 3 4 5 6 
#
# 1 119.4287 1.3277 31.4910 0.0000 0.0000 0.0000
# 2 1.3277 65.2249 4.6277 0.0000 0.0000 0.0000
# 3 31.4910 4.6277 116.7733 0.0000 0.0000 0.0000
# 4 0.0000 0.0000 0.0000 21.6382 0.0000 0.0000
# 5 0.0000 0.0000 0.0000 0.0000 40.0993 0.0000
# 6 0.0000 0.0000 0.0000 0.0000 0.0000 35.6027
#
#
#
# Elastic Compliance Matrix: (Units=1/GPa)
#
#
# Indices 1 2 3 4 5 6 
#
# 1 0.009014 -0.000011 -0.002430 0.000000 0.000000 0.000000
# 2 -0.000011 0.015375 -0.000606 0.000000 0.000000 0.000000
# 3 -0.002430 -0.000606 0.009243 0.000000 0.000000 0.000000
# 4 0.000000 0.000000 0.000000 0.046215 0.000000 0.000000
# 5 0.000000 0.000000 0.000000 0.000000 0.024938 0.000000
# 6 0.000000 0.000000 0.000000 0.000000 0.000000 0.028088
#
#
# Mechanical properties :
#
#
# Convention : Reuss Voigt Hill
#
# Bulk Modulus (GPa) = 36.31559 41.81330 39.06444
# Shear Modulus (GPa) = 33.75028 37.06675 35.40852
#
# Velocity S-wave (km/s) = 3.79108 3.97298 3.88310
# Velocity P-wave (km/s) = 5.88453 6.23313 6.06134
#
# Compressibility (1/GPa) = 0.02753638
#
# Stress axis : x y z
#
# Youngs Moduli (GPa) = 110.93630 65.04146 108.18921
#
# Poissons Ratio (x) = 0.00072 0.26295
# Poissons Ratio (y) = 0.00123 0.06560
# Poissons Ratio (z) = 0.26963 0.03944
#
# Static dielectric constant tensor:
#      x y z
#    x 2.071830 0.000000 0.000000 
#    y 0.000000 1.934450 0.000000 
#    z 0.000000 0.000000 1.983160 
# 
# From -- ./inp_files/9761.got.cif
#   From: 2010.05.17/outbox.cif.g08.bks.cpg/sg43_5_cif.got.tgz:9761.got - 2010.06.03 19:21:55.
