data_PCOD9371955
_publ_section_title
;
Structure prediction by ZEFSAII (Michael W. Deem and Ramdas Pophale) SiO2 
 PCOD9371955
Probable space group: F D D 2
;
_chemical_formula_sum "Si O2"
_cell_formula_units_Z 128
_cell_length_a 25.520385
_cell_length_b 16.277024
_cell_length_c 16.344853
_cell_angle_alpha 90.000000
_cell_angle_beta 90.000000
_cell_angle_gamma 90.000000
_cell_volume 6789.585235
_symmetry_space_group_name_H-M "F D D 2"
_symmetry_group_IT_number 43
_symmetry_cell_setting 'orthorhombic'
loop_
_space_group_symop_operation_xyz
x,y,z
-x,-y,z
1/4-x,1/4+y,1/4+z
1/4+x,1/4-y,1/4+z
x,1/2+y,1/2+z
-x,1/2-y,1/2+z
1/4-x,3/4+y,3/4+z
1/4+x,3/4-y,3/4+z
1/2+x,y,1/2+z
1/2-x,-y,1/2+z
3/4-x,1/4+y,3/4+z
3/4+x,1/4-y,3/4+z
1/2+x,1/2+y,z
1/2-x,1/2-y,z
3/4-x,3/4+y,1/4+z
3/4+x,3/4-y,1/4+z
loop_
_atom_site_type_symbol
_atom_site_label
_atom_site_fract_x
_atom_site_fract_y
_atom_site_fract_z
Si Si1 0.002517 0.716606 0.266390
Si Si2 0.206755 0.814883 0.430909
Si Si3 0.135748 0.469478 0.267530
Si Si4 0.456745 0.564849 0.042396
Si Si5 0.247447 0.533407 0.706899
Si Si6 0.092043 0.317461 0.674908
Si Si7 0.135724 0.030567 0.955671
Si Si8 0.342047 0.067442 0.798443
O O1 0.016300 0.621498 0.249736
O O2 0.050061 0.766705 0.227223
O O3 0.999966 0.733640 0.361644
O O4 0.946613 0.735752 0.225855
O O5 0.250000 0.750000 0.404071
O O6 0.154730 0.772696 0.464885
O O7 0.190255 0.872445 0.356884
O O8 0.196642 0.485797 0.247388
O O9 0.125011 0.375030 0.236579
O O10 0.127275 0.500003 0.361604
O O11 0.500000 0.500000 0.069287
O O12 0.440187 0.622389 0.116408
O O13 0.483711 0.621477 0.973595
O O14 0.404757 0.522623 0.008335
O O15 0.199884 0.483361 0.746078
O O16 0.118305 0.249987 0.611700
O O17 0.124994 0.374990 0.736700
#
# Coordination Sequence:
#
# PCOD9371955 Si02
#       8
#    16  16  16  16  16  16  16  16
#     4  11  23  43  66  94 132 170 214 265 324 389
#     4  11  23  40  65  95 132 166 212 269 328 385
#     4  12  24  39  65  98 131 170 215 265 330 395
#     4  11  23  40  65  95 132 166 212 269 328 385
#     4  11  23  43  66  94 132 170 214 265 324 389
#     4  10  23  46  67  92 131 176 218 269 325 386
#     4  12  24  39  65  98 131 170 215 265 330 395
#     4  10  23  46  67  92 131 176 218 269 325 386
#
# _framework density 18.852404
#
# number of rings (size 3 to 8) (size 9 to 14) (size 15 to 20)
#    0.000    1.000    2.500    5.250    0.000    2.000 
#    4.500    0.000    0.000    0.000    0.000    0.000 
#    0.000    0.000    0.000    0.000    0.000    0.000 
#
# Total GULP energy -178513.975538 kJ/mol
# GULP energy per Si atom -5578.561736 kJ/mol
# Density = 1.880949 g / cm^3
# Si number density = 18.852404 Si / 1000 Ang^3
#
#
#
# Elastic Constant Matrix: (Units=GPa)
#
#
# Indices 1 2 3 4 5 6 
#
# 1 65.0770 25.7608 3.8732 0.0000 0.0000 0.0000
# 2 25.7608 103.1022 45.7277 0.0000 0.0000 0.0000
# 3 3.8732 45.7277 112.0752 0.0000 0.0000 0.0000
# 4 0.0000 0.0000 0.0000 26.9772 0.0000 0.0000
# 5 0.0000 0.0000 0.0000 0.0000 27.9443 0.0000
# 6 0.0000 0.0000 0.0000 0.0000 0.0000 42.2988
#
#
#
# Elastic Compliance Matrix: (Units=1/GPa)
#
#
# Indices 1 2 3 4 5 6 
#
# 1 0.017236 -0.004935 0.001418 0.000000 0.000000 0.000000
# 2 -0.004935 0.013255 -0.005238 0.000000 0.000000 0.000000
# 3 0.001418 -0.005238 0.011011 0.000000 0.000000 0.000000
# 4 0.000000 0.000000 0.000000 0.037068 0.000000 0.000000
# 5 0.000000 0.000000 0.000000 0.000000 0.035785 0.000000
# 6 0.000000 0.000000 0.000000 0.000000 0.000000 0.023641
#
#
# Mechanical properties :
#
#
# Convention : Reuss Voigt Hill
#
# Bulk Modulus (GPa) = 41.68151 47.88642 44.78396
# Shear Modulus (GPa) = 30.58029 33.10357 31.84193
#
# Velocity S-wave (km/s) = 4.03189 4.19493 4.11422
# Velocity P-wave (km/s) = 6.62059 6.99422 6.80997
#
# Compressibility (1/GPa) = 0.02399146
#
# Stress axis : x y z
#
# Youngs Moduli (GPa) = 58.01913 75.44170 90.82156
#
# Poissons Ratio (x) = 0.37233 -0.12879
# Poissons Ratio (y) = 0.28635 0.47570
# Poissons Ratio (z) = -0.08227 0.39514
#
# Static dielectric constant tensor:
#      x y z
#    x 1.491480 0.000000 0.000000 
#    y 0.000000 1.704630 0.000000 
#    z 0.000000 0.000000 1.654290 
# 
# From -- ./inp_files/14903.got.cif
#   From: 2010.05.17/outbox.cif.g08.bks.cpg/sg43_8_cif.got.tgz:14903.got - 2010.06.03 19:21:55.
