data_PCOD9371231
_publ_section_title
;
Structure prediction by ZEFSAII (Michael W. Deem and Ramdas Pophale) SiO2 
 PCOD9371231
Probable space group: F D D 2
;
_chemical_formula_sum "Si O2"
_cell_formula_units_Z 80
_cell_length_a 19.726833
_cell_length_b 11.252931
_cell_length_c 16.684005
_cell_angle_alpha 90.000000
_cell_angle_beta 90.000000
_cell_angle_gamma 90.000000
_cell_volume 3703.593688
_symmetry_space_group_name_H-M "F D D 2"
_symmetry_group_IT_number 43
_symmetry_cell_setting 'orthorhombic'
loop_
_space_group_symop_operation_xyz
x,y,z
-x,-y,z
1/4-x,1/4+y,1/4+z
1/4+x,1/4-y,1/4+z
x,1/2+y,1/2+z
-x,1/2-y,1/2+z
1/4-x,3/4+y,3/4+z
1/4+x,3/4-y,3/4+z
1/2+x,y,1/2+z
1/2-x,-y,1/2+z
3/4-x,1/4+y,3/4+z
3/4+x,1/4-y,3/4+z
1/2+x,1/2+y,z
1/2-x,1/2-y,z
3/4-x,3/4+y,1/4+z
3/4+x,3/4-y,1/4+z
loop_
_atom_site_type_symbol
_atom_site_label
_atom_site_fract_x
_atom_site_fract_y
_atom_site_fract_z
Si Si1 0.190918 0.445657 0.979960
Si Si2 0.184652 0.331752 0.662516
Si Si3 0.136759 0.745379 0.592128
Si Si4 0.910360 0.762704 0.267288
Si Si5 0.758422 0.609536 0.808862
O O1 0.122459 0.519139 0.967434
O O2 0.199796 0.394152 0.890606
O O3 0.182666 0.345567 0.048536
O O4 0.259166 0.519450 0.996316
O O5 0.250000 0.250000 0.638334
O O6 0.149617 0.388049 0.584844
O O7 0.212107 0.432456 0.723690
O O8 0.149866 0.618577 0.552833
O O9 0.135888 0.731373 0.688116
O O10 0.061203 0.792050 0.573142
O O11 0.750000 0.750000 0.795947
#
# Coordination Sequence:
#
# PCOD9371231 Si02
#       5
#    16  16  16  16  16
#     4  11  23  43  71  97 139 185 245 282 348 436
#     4  11  25  42  72  99 138 191 239 289 357 428
#     4  11  23  46  66 101 142 175 234 293 357 416
#     4  11  28  42  69 106 140 182 230 302 361 416
#     4  10  21  41  70  99 128 184 237 285 337 428
#
# _framework density 21.600642000000001
#
# number of rings (size 3 to 8) (size 9 to 14) (size 15 to 20)
#    0.000    1.200    4.000    3.000    8.400    0.000 
#    0.000    3.000    0.000    0.000    0.000    0.000 
#    0.000    0.000    0.000    0.000    0.000    0.000 
#
# Total GULP energy -111525.711472 kJ/mol
# GULP energy per Si atom -5576.285574 kJ/mol
# Density = 2.155148 g / cm^3
# Si number density = 21.600642 Si / 1000 Ang^3
#
#
#
# Elastic Constant Matrix: (Units=GPa)
#
#
# Indices 1 2 3 4 5 6 
#
# 1 55.5144 9.0241 4.4948 0.0000 0.0000 0.0000
# 2 9.0241 44.4933 8.0100 0.0000 0.0000 0.0000
# 3 4.4948 8.0100 129.4859 0.0000 0.0000 0.0000
# 4 0.0000 0.0000 0.0000 16.7462 0.0000 0.0000
# 5 0.0000 0.0000 0.0000 0.0000 24.7024 0.0000
# 6 0.0000 0.0000 0.0000 0.0000 0.0000 14.4338
#
#
#
# Elastic Compliance Matrix: (Units=1/GPa)
#
#
# Indices 1 2 3 4 5 6 
#
# 1 0.018650 -0.003707 -0.000418 0.000000 0.000000 0.000000
# 2 -0.003707 0.023465 -0.001323 0.000000 0.000000 0.000000
# 3 -0.000418 -0.001323 0.007819 0.000000 0.000000 0.000000
# 4 0.000000 0.000000 0.000000 0.059715 0.000000 0.000000
# 5 0.000000 0.000000 0.000000 0.000000 0.040482 0.000000
# 6 0.000000 0.000000 0.000000 0.000000 0.000000 0.069282
#
#
# Mechanical properties :
#
#
# Convention : Reuss Voigt Hill
#
# Bulk Modulus (GPa) = 25.61608 30.28348 27.94978
# Shear Modulus (GPa) = 20.54886 25.04078 22.79482
#
# Velocity S-wave (km/s) = 3.08767 3.40849 3.25204
# Velocity P-wave (km/s) = 4.95947 5.43512 5.20273
#
# Compressibility (1/GPa) = 0.03903798
#
# Stress axis : x y z
#
# Youngs Moduli (GPa) = 53.61976 42.61599 127.89045
#
# Poissons Ratio (x) = 0.15799 0.05347
# Poissons Ratio (y) = 0.19878 0.16918
# Poissons Ratio (z) = 0.02242 0.05638
#
# Static dielectric constant tensor:
#      x y z
#    x 1.934580 0.000000 0.000000 
#    y 0.000000 1.784630 0.000000 
#    z 0.000000 0.000000 1.933160 
# 
# From -- ./inp_files/11190.got.cif
#   From: 2010.05.17/outbox.cif.g08.bks.cpg/sg43_6_cif.got.tgz:11190.got - 2010.06.03 19:21:55.
