data_PCOD9371585
_publ_section_title
;
Structure prediction by ZEFSAII (Michael W. Deem and Ramdas Pophale) SiO2 
 PCOD9371585
Probable space group: F D D 2
;
_chemical_formula_sum "Si O2"
_cell_formula_units_Z 104
_cell_length_a 15.834230
_cell_length_b 19.007345
_cell_length_c 13.729149
_cell_angle_alpha 90.000000
_cell_angle_beta 90.000000
_cell_angle_gamma 90.000000
_cell_volume 4132.016290
_symmetry_space_group_name_H-M "F D D 2"
_symmetry_group_IT_number 43
_symmetry_cell_setting 'orthorhombic'
loop_
_space_group_symop_operation_xyz
x,y,z
-x,-y,z
1/4-x,1/4+y,1/4+z
1/4+x,1/4-y,1/4+z
x,1/2+y,1/2+z
-x,1/2-y,1/2+z
1/4-x,3/4+y,3/4+z
1/4+x,3/4-y,3/4+z
1/2+x,y,1/2+z
1/2-x,-y,1/2+z
3/4-x,1/4+y,3/4+z
3/4+x,1/4-y,3/4+z
1/2+x,1/2+y,z
1/2-x,1/2-y,z
3/4-x,3/4+y,1/4+z
3/4+x,3/4-y,1/4+z
loop_
_atom_site_type_symbol
_atom_site_label
_atom_site_fract_x
_atom_site_fract_y
_atom_site_fract_z
Si Si1 0.750000 0.250000 0.165900
Si Si2 0.085258 0.396393 0.447650
Si Si3 0.406217 0.063708 0.098387
Si Si4 0.509017 0.750498 0.458184
Si Si5 0.995164 0.232389 0.188618
Si Si6 0.730565 0.859354 0.017272
Si Si7 0.615718 0.118719 0.891578
O O1 0.812536 0.286676 0.243598
O O2 0.697702 0.306684 0.104526
O O3 0.073713 0.313284 0.429300
O O4 0.171264 0.437707 0.449716
O O5 0.034307 0.423481 0.355118
O O6 0.066239 0.398403 0.563520
O O7 0.487271 0.074942 0.167712
O O8 0.333517 0.022325 0.162823
O O9 0.362054 0.137189 0.065177
O O10 0.510955 0.750393 0.574690
O O11 0.552454 0.678638 0.425538
O O12 0.995167 0.306723 0.243946
O O13 0.922020 0.175866 0.217375
#
# Coordination Sequence:
#
# PCOD9371585 Si02
#       7
#     8  16  16  16  16  16  16
#     4  12  26  44  70 108 140 196 242 304 372 436
#     4  10  22  42  69  99 141 191 236 295 367 444
#     4  11  24  46  74 106 149 187 246 304 380 441
#     4  10  23  45  70 106 142 190 241 308 365 446
#     4  11  22  45  71 103 145 188 242 302 367 446
#     4  11  23  46  74 106 148 191 242 310 371 451
#     4  11  25  43  70 101 145 190 244 295 370 440
#
# _framework density 25.169311
#
# number of rings (size 3 to 8) (size 9 to 14) (size 15 to 20)
#    0.000    1.231    3.077    2.769    0.000    5.538 
#    0.000    2.308    0.000    0.000    0.000    0.000 
#    0.000    0.000    0.000    0.000    0.000    0.000 
#
# Total GULP energy -144811.312218 kJ/mol
# GULP energy per Si atom -5569.665855 kJ/mol
# Density = 2.511202 g / cm^3
# Si number density = 25.169311 Si / 1000 Ang^3
#
#
#
# Elastic Constant Matrix: (Units=GPa)
#
#
# Indices 1 2 3 4 5 6 
#
# 1 64.2545 31.4065 -4.3270 0.0000 0.0000 0.0000
# 2 31.4065 103.8548 -0.3071 0.0000 0.0000 0.0000
# 3 -4.3270 -0.3071 126.2143 0.0000 0.0000 0.0000
# 4 0.0000 0.0000 0.0000 25.0147 0.0000 0.0000
# 5 0.0000 0.0000 0.0000 0.0000 33.3074 0.0000
# 6 0.0000 0.0000 0.0000 0.0000 0.0000 42.2123
#
#
#
# Elastic Compliance Matrix: (Units=1/GPa)
#
#
# Indices 1 2 3 4 5 6 
#
# 1 0.018310 -0.005535 0.000614 0.000000 0.000000 0.000000
# 2 -0.005535 0.011302 -0.000162 0.000000 0.000000 0.000000
# 3 0.000614 -0.000162 0.007944 0.000000 0.000000 0.000000
# 4 0.000000 0.000000 0.000000 0.039977 0.000000 0.000000
# 5 0.000000 0.000000 0.000000 0.000000 0.030023 0.000000
# 6 0.000000 0.000000 0.000000 0.000000 0.000000 0.023690
#
#
# Mechanical properties :
#
#
# Convention : Reuss Voigt Hill
#
# Bulk Modulus (GPa) = 36.51047 38.65205 37.58126
# Shear Modulus (GPa) = 33.21332 37.94363 35.57847
#
# Velocity S-wave (km/s) = 3.63656 3.88691 3.76382
# Velocity P-wave (km/s) = 5.67188 5.96106 5.81827
#
# Compressibility (1/GPa) = 0.02738940
#
# Stress axis : x y z
#
# Youngs Moduli (GPa) = 54.61484 88.47785 125.88603
#
# Poissons Ratio (x) = 0.48975 -0.07733
# Poissons Ratio (y) = 0.30231 0.02043
# Poissons Ratio (z) = -0.03355 0.01436
#
# Static dielectric constant tensor:
#      x y z
#    x 2.136260 0.000000 0.000000 
#    y 0.000000 2.056360 0.000000 
#    z 0.000000 0.000000 2.079280 
# 
# From -- ./inp_files/10627.got.cif
#   From: 2010.05.17/outbox.cif.g08.bks.cpg/sg43_6_cif.got.tgz:10627.got - 2010.06.03 19:21:55.
