data_PCOD9371003
_publ_section_title
;
Structure prediction by ZEFSAII (Michael W. Deem and Ramdas Pophale) SiO2 
 PCOD9371003
Probable space group: F D D 2
;
_chemical_formula_sum "Si O2"
_cell_formula_units_Z 128
_cell_length_a 22.356036
_cell_length_b 16.790313
_cell_length_c 17.907706
_cell_angle_alpha 90.000000
_cell_angle_beta 90.000000
_cell_angle_gamma 90.000000
_cell_volume 6721.923231
_symmetry_space_group_name_H-M "F D D 2"
_symmetry_group_IT_number 43
_symmetry_cell_setting 'orthorhombic'
loop_
_space_group_symop_operation_xyz
x,y,z
-x,-y,z
1/4-x,1/4+y,1/4+z
1/4+x,1/4-y,1/4+z
x,1/2+y,1/2+z
-x,1/2-y,1/2+z
1/4-x,3/4+y,3/4+z
1/4+x,3/4-y,3/4+z
1/2+x,y,1/2+z
1/2-x,-y,1/2+z
3/4-x,1/4+y,3/4+z
3/4+x,1/4-y,3/4+z
1/2+x,1/2+y,z
1/2-x,1/2-y,z
3/4-x,3/4+y,1/4+z
3/4+x,3/4-y,1/4+z
loop_
_atom_site_type_symbol
_atom_site_label
_atom_site_fract_x
_atom_site_fract_y
_atom_site_fract_z
Si Si1 0.392124 0.280169 0.677750
Si Si2 0.391670 0.065122 0.175553
Si Si3 0.022706 0.195876 0.563872
Si Si4 0.797107 0.318344 0.582304
Si Si5 0.060810 0.530321 0.038239
Si Si6 0.451419 0.177885 0.919735
Si Si7 0.157183 0.507040 0.409188
Si Si8 0.251789 0.482903 0.036752
O O1 0.421547 0.255991 0.598593
O O2 0.358838 0.210478 0.723432
O O3 0.343066 0.351653 0.673914
O O4 0.449291 0.298517 0.731225
O O5 0.437344 0.058398 0.244168
O O6 0.375045 0.157358 0.168918
O O7 0.417557 0.036477 0.096298
O O8 0.338628 0.004416 0.190437
O O9 0.045083 0.107326 0.586558
O O10 0.006136 0.181230 0.477956
O O11 0.961865 0.225805 0.601903
O O12 0.750000 0.250000 0.603328
O O13 0.858617 0.303981 0.627668
O O14 0.771333 0.407613 0.587295
O O15 0.000000 0.500000 0.002457
O O16 0.475805 0.196661 0.837430
O O17 0.192182 0.489903 0.486169
#
# Coordination Sequence:
#
# PCOD9371003 Si02
#       8
#    16  16  16  16  16  16  16  16
#     4  11  21  35  56  85 116 144 179 225 286 338
#     4  11  19  29  51  82 115 137 173 219 277 335
#     4  11  22  34  54  83 117 146 180 228 280 340
#     4  11  21  32  52  79 108 147 180 220 279 333
#     4  12  20  31  54  86 119 146 176 224 284 344
#     4  12  20  34  56  81 114 144 177 226 283 332
#     4  10  21  35  50  78 108 145 182 222 268 333
#     4  10  23  36  53  80 114 141 183 226 275 333
#
# _framework density 19.042169000000001
#
# number of rings (size 3 to 8) (size 9 to 14) (size 15 to 20)
#    0.000    1.000    6.250    1.875    1.750    0.000 
#    0.000    1.250    0.000    0.000    0.000    0.000 
#    0.000    0.000    0.000    0.000    0.000    0.000 
#
# Total GULP energy -178282.131974 kJ/mol
# GULP energy per Si atom -5571.316624 kJ/mol
# Density = 1.899883 g / cm^3
# Si number density = 19.042169 Si / 1000 Ang^3
#
#
#
# Elastic Constant Matrix: (Units=GPa)
#
#
# Indices 1 2 3 4 5 6 
#
# 1 94.3115 21.8572 38.4736 0.0000 0.0000 0.0000
# 2 21.8572 26.9404 11.5907 0.0000 0.0000 0.0000
# 3 38.4736 11.5907 74.2004 0.0000 0.0000 0.0000
# 4 0.0000 0.0000 0.0000 19.2255 0.0000 0.0000
# 5 0.0000 0.0000 0.0000 0.0000 32.7050 0.0000
# 6 0.0000 0.0000 0.0000 0.0000 0.0000 13.5324
#
#
#
# Elastic Compliance Matrix: (Units=1/GPa)
#
#
# Indices 1 2 3 4 5 6 
#
# 1 0.015535 -0.009797 -0.006525 0.000000 0.000000 0.000000
# 2 -0.009797 0.045972 -0.002101 0.000000 0.000000 0.000000
# 3 -0.006525 -0.002101 0.017188 0.000000 0.000000 0.000000
# 4 0.000000 0.000000 0.000000 0.052014 0.000000 0.000000
# 5 0.000000 0.000000 0.000000 0.000000 0.030576 0.000000
# 6 0.000000 0.000000 0.000000 0.000000 0.000000 0.073897
#
#
# Mechanical properties :
#
#
# Convention : Reuss Voigt Hill
#
# Bulk Modulus (GPa) = 23.89539 37.69949 30.79744
# Shear Modulus (GPa) = 17.48381 21.32797 19.40589
#
# Velocity S-wave (km/s) = 3.03341 3.35033 3.19580
# Velocity P-wave (km/s) = 4.98444 5.89976 5.46131
#
# Compressibility (1/GPa) = 0.04184908
#
# Stress axis : x y z
#
# Youngs Moduli (GPa) = 64.36895 21.75259 58.17850
#
# Poissons Ratio (x) = 0.21311 0.37961
# Poissons Ratio (y) = 0.63062 0.12225
# Poissons Ratio (z) = 0.42000 0.04571
#
# Static dielectric constant tensor:
#      x y z
#    x 1.728240 0.000000 0.000000 
#    y 0.000000 1.698040 0.000000 
#    z 0.000000 0.000000 1.720810 
# 
# From -- ./inp_files/14909.got.cif
#   From: 2010.05.17/outbox.cif.g08.bks.cpg/sg43_8_cif.got.tgz:14909.got - 2010.06.03 19:21:55.
