data_PCOD9371015
_publ_section_title
;
Structure prediction by ZEFSAII (Michael W. Deem and Ramdas Pophale) SiO2 
 PCOD9371015
Probable space group: F D D 2
;
_chemical_formula_sum "Si O2"
_cell_formula_units_Z 80
_cell_length_a 9.314608
_cell_length_b 24.892008
_cell_length_c 15.092881
_cell_angle_alpha 90.000000
_cell_angle_beta 90.000000
_cell_angle_gamma 90.000000
_cell_volume 3499.424776
_symmetry_space_group_name_H-M "F D D 2"
_symmetry_group_IT_number 43
_symmetry_cell_setting 'orthorhombic'
loop_
_space_group_symop_operation_xyz
x,y,z
-x,-y,z
1/4-x,1/4+y,1/4+z
1/4+x,1/4-y,1/4+z
x,1/2+y,1/2+z
-x,1/2-y,1/2+z
1/4-x,3/4+y,3/4+z
1/4+x,3/4-y,3/4+z
1/2+x,y,1/2+z
1/2-x,-y,1/2+z
3/4-x,1/4+y,3/4+z
3/4+x,1/4-y,3/4+z
1/2+x,1/2+y,z
1/2-x,1/2-y,z
3/4-x,3/4+y,1/4+z
3/4+x,3/4-y,1/4+z
loop_
_atom_site_type_symbol
_atom_site_label
_atom_site_fract_x
_atom_site_fract_y
_atom_site_fract_z
Si Si1 0.916453 0.170696 0.600680
Si Si2 0.730166 0.158489 0.857168
Si Si3 0.485671 0.827153 0.463762
Si Si4 0.597475 0.849106 0.897591
Si Si5 0.000000 0.000000 0.645612
Si Si6 0.500000 0.000000 0.460953
O O1 0.834963 0.123439 0.653240
O O2 0.867311 0.163581 0.500051
O O3 0.872844 0.226006 0.647307
O O4 0.082027 0.154212 0.614801
O O5 0.769781 0.101521 0.811942
O O6 0.852570 0.177750 0.925478
O O7 0.572028 0.152275 0.894381
O O8 0.714254 0.201467 0.777521
O O9 0.386453 0.775571 0.447412
O O10 0.675778 0.800093 0.845190
#
# Coordination Sequence:
#
# PCOD9371015 Si02
#       6
#    16  16  16  16   8   8
#     4  10  21  38  60  86 120 163 209 255 311 376
#     4  11  22  39  63  93 127 163 208 266 323 375
#     4  10  21  39  62  89 122 165 208 257 314 377
#     4  11  22  38  61  91 125 163 208 265 318 374
#     4  10  21  36  62  88 119 164 214 250 301 376
#     4  10  21  38  62  88 119 168 216 252 305 390
#
# _framework density 22.860900000000001
#
# number of rings (size 3 to 8) (size 9 to 14) (size 15 to 20)
#    0.000    1.600    0.000    6.600    0.000    3.200 
#    0.000    0.000    0.000   10.800    0.000    1.400 
#    0.000    0.000    0.000    0.000    0.000    0.000 
#
# Total GULP energy -111670.992808 kJ/mol
# GULP energy per Si atom -5583.549640 kJ/mol
# Density = 2.280887 g / cm^3
# Si number density = 22.860900 Si / 1000 Ang^3
#
#
#
# Elastic Constant Matrix: (Units=GPa)
#
#
# Indices 1 2 3 4 5 6 
#
# 1 170.5908 33.0378 11.7089 0.0000 0.0000 0.0000
# 2 33.0378 100.7026 6.6687 0.0000 0.0000 0.0000
# 3 11.7089 6.6687 57.7511 0.0000 0.0000 0.0000
# 4 0.0000 0.0000 0.0000 18.0510 0.0000 0.0000
# 5 0.0000 0.0000 0.0000 0.0000 5.1451 0.0000
# 6 0.0000 0.0000 0.0000 0.0000 0.0000 43.1113
#
#
#
# Elastic Compliance Matrix: (Units=1/GPa)
#
#
# Indices 1 2 3 4 5 6 
#
# 1 0.006322 -0.002005 -0.001050 0.000000 0.000000 0.000000
# 2 -0.002005 0.010642 -0.000822 0.000000 0.000000 0.000000
# 3 -0.001050 -0.000822 0.017624 0.000000 0.000000 0.000000
# 4 0.000000 0.000000 0.000000 0.055399 0.000000 0.000000
# 5 0.000000 0.000000 0.000000 0.000000 0.194359 0.000000
# 6 0.000000 0.000000 0.000000 0.000000 0.000000 0.023196
#
#
# Mechanical properties :
#
#
# Convention : Reuss Voigt Hill
#
# Bulk Modulus (GPa) = 37.26702 47.98614 42.62658
# Shear Modulus (GPa) = 15.42064 31.77008 23.59536
#
# Velocity S-wave (km/s) = 2.60001 3.73193 3.21616
# Velocity P-wave (km/s) = 5.03492 6.29331 5.69896
#
# Compressibility (1/GPa) = 0.02683338
#
# Stress axis : x y z
#
# Youngs Moduli (GPa) = 158.17021 93.96412 56.74203
#
# Poissons Ratio (x) = 0.18836 0.05960
# Poissons Ratio (y) = 0.31707 0.04667
# Poissons Ratio (z) = 0.16613 0.07728
#
# Static dielectric constant tensor:
#      x y z
#    x 1.893460 0.000000 0.000000 
#    y 0.000000 1.908940 0.000000 
#    z 0.000000 0.000000 1.896700 
# 
# From -- ./inp_files/12782.got.cif
#   From: 2010.05.17/outbox.cif.g08.bks.cpg/sg43_7_cif.got.tgz:12782.got - 2010.06.03 19:21:55.
