data_PCOD9371997
_publ_section_title
;
Structure prediction by ZEFSAII (Michael W. Deem and Ramdas Pophale) SiO2 
 PCOD9371997
Probable space group: F D D 2
;
_chemical_formula_sum "Si O2"
_cell_formula_units_Z 64
_cell_length_a 18.461538
_cell_length_b 18.275774
_cell_length_c 7.100285
_cell_angle_alpha 90.000000
_cell_angle_beta 90.000000
_cell_angle_gamma 90.000000
_cell_volume 2395.628322
_symmetry_space_group_name_H-M "F D D 2"
_symmetry_group_IT_number 43
_symmetry_cell_setting 'orthorhombic'
loop_
_space_group_symop_operation_xyz
x,y,z
-x,-y,z
1/4-x,1/4+y,1/4+z
1/4+x,1/4-y,1/4+z
x,1/2+y,1/2+z
-x,1/2-y,1/2+z
1/4-x,3/4+y,3/4+z
1/4+x,3/4-y,3/4+z
1/2+x,y,1/2+z
1/2-x,-y,1/2+z
3/4-x,1/4+y,3/4+z
3/4+x,1/4-y,3/4+z
1/2+x,1/2+y,z
1/2-x,1/2-y,z
3/4-x,3/4+y,1/4+z
3/4+x,3/4-y,1/4+z
loop_
_atom_site_type_symbol
_atom_site_label
_atom_site_fract_x
_atom_site_fract_y
_atom_site_fract_z
Si Si1 0.999011 0.411228 0.103050
Si Si2 0.882290 0.180653 0.104146
Si Si3 0.594308 0.684239 0.866682
Si Si4 0.082029 0.972481 0.011507
O O1 0.968209 0.367596 0.283159
O O2 0.000000 0.500000 0.120079
O O3 0.081422 0.391972 0.061209
O O4 0.944025 0.400495 0.933358
O O5 0.911128 0.241679 0.246717
O O6 0.928558 0.108176 0.096045
O O7 0.869431 0.221933 0.907147
O O8 0.614957 0.707542 0.080970
O O9 0.000000 0.000000 0.984209
#
# Coordination Sequence:
#
# PCOD9371997 Si02
#       4
#    16  16  16  16
#     4  10  23  49  83 123 178 220 284 361 435 513
#     4  11  25  48  82 124 171 225 292 356 438 520
#     4  11  25  50  82 126 171 225 288 361 431 528
#     4  12  27  47  87 123 170 230 287 356 440 524
#
# _framework density 26.715330000000002
#
# number of rings (size 3 to 8) (size 9 to 14) (size 15 to 20)
#    0.000    1.000    2.500    4.500   10.500    0.000 
#    0.000    7.500    0.000    0.000    0.000    0.000 
#    0.000    0.000    0.000    0.000    0.000    0.000 
#
# Total GULP energy -89569.069788 kJ/mol
# GULP energy per Si atom -5598.066862 kJ/mol
# Density = 2.665452 g / cm^3
# Si number density = 26.715330 Si / 1000 Ang^3
#
#
#
# Elastic Constant Matrix: (Units=GPa)
#
#
# Indices 1 2 3 4 5 6 
#
# 1 89.3109 66.5277 22.8029 0.0002 -0.0001 0.0000
# 2 66.5277 156.5452 54.5009 0.0003 -0.0002 0.0000
# 3 22.8029 54.5009 150.4115 0.0011 -0.0005 -0.0001
# 4 0.0002 0.0003 0.0011 50.8370 -0.0004 -0.0001
# 5 -0.0001 -0.0002 -0.0005 -0.0004 42.7531 0.0001
# 6 0.0000 0.0000 -0.0001 -0.0001 0.0001 42.4970
#
#
#
# Elastic Compliance Matrix: (Units=1/GPa)
#
#
# Indices 1 2 3 4 5 6 
#
# 1 0.016383 -0.006978 0.000045 0.000000 0.000000 0.000000
# 2 -0.006978 0.010282 -0.002668 0.000000 0.000000 0.000000
# 3 0.000045 -0.002668 0.007608 0.000000 0.000000 0.000000
# 4 0.000000 0.000000 0.000000 0.019671 0.000000 0.000000
# 5 0.000000 0.000000 0.000000 0.000000 0.023390 0.000000
# 6 0.000000 0.000000 0.000000 0.000000 0.000000 0.023531
#
#
# Mechanical properties :
#
#
# Convention : Reuss Voigt Hill
#
# Bulk Modulus (GPa) = 66.35019 75.99228 71.17123
# Shear Modulus (GPa) = 39.97053 44.04649 42.00851
#
# Velocity S-wave (km/s) = 3.87222 4.06487 3.96971
# Velocity P-wave (km/s) = 6.69941 7.10899 6.90724
#
# Compressibility (1/GPa) = 0.01507155
#
# Stress axis : x y z
#
# Youngs Moduli (GPa) = 61.03734 97.25510 131.43499
#
# Poissons Ratio (x) = 0.67866 -0.00587
# Poissons Ratio (y) = 0.42592 0.35064
# Poissons Ratio (z) = -0.00273 0.25946
#
# Static dielectric constant tensor:
#      x y z
#    x 2.138910 0.000000 0.000000 
#    y 0.000000 2.116050 0.000000 
#    z 0.000000 0.000000 2.204070 
# 
# From -- ./inp_files/3130.got.cif
#   From: 2010.05.17/outbox.cif.g08.bks.cpg/sg43_2_cif.got.tgz:3130.got - 2010.06.03 19:21:55.
