data_PCOD9371129
_publ_section_title
;
Structure prediction by ZEFSAII (Michael W. Deem and Ramdas Pophale) SiO2 
 PCOD9371129
Probable space group: F D D 2
;
_chemical_formula_sum "Si O2"
_cell_formula_units_Z 96
_cell_length_a 23.719216
_cell_length_b 10.388569
_cell_length_c 16.113420
_cell_angle_alpha 90.000000
_cell_angle_beta 90.000000
_cell_angle_gamma 90.000000
_cell_volume 3970.487069
_symmetry_space_group_name_H-M "F D D 2"
_symmetry_group_IT_number 43
_symmetry_cell_setting 'orthorhombic'
loop_
_space_group_symop_operation_xyz
x,y,z
-x,-y,z
1/4-x,1/4+y,1/4+z
1/4+x,1/4-y,1/4+z
x,1/2+y,1/2+z
-x,1/2-y,1/2+z
1/4-x,3/4+y,3/4+z
1/4+x,3/4-y,3/4+z
1/2+x,y,1/2+z
1/2-x,-y,1/2+z
3/4-x,1/4+y,3/4+z
3/4+x,1/4-y,3/4+z
1/2+x,1/2+y,z
1/2-x,1/2-y,z
3/4-x,3/4+y,1/4+z
3/4+x,3/4-y,1/4+z
loop_
_atom_site_type_symbol
_atom_site_label
_atom_site_fract_x
_atom_site_fract_y
_atom_site_fract_z
Si Si1 0.045999 0.661180 0.274670
Si Si2 0.000000 0.500000 0.411904
Si Si3 0.697296 0.104773 0.146026
Si Si4 0.381473 0.605437 0.964393
Si Si5 0.750000 0.250000 0.378314
Si Si6 0.918842 0.369714 0.894667
Si Si7 0.585844 0.793070 0.062442
O O1 0.059589 0.805505 0.301705
O O2 0.099990 0.580490 0.299841
O O3 0.001299 0.617072 0.344729
O O4 0.026255 0.611476 0.186552
O O5 0.942656 0.532858 0.461955
O O6 0.763844 0.124351 0.154983
O O7 0.657020 0.228436 0.159615
O O8 0.682400 0.003575 0.219442
O O9 0.394158 0.756413 0.950524
O O10 0.340290 0.551806 0.890961
O O11 0.350799 0.586836 0.051687
O O12 0.702223 0.169932 0.330453
#
# Coordination Sequence:
#
# PCOD9371129 Si02
#       7
#    16   8  16  16   8  16  16
#     4  10  21  39  71 101 134 182 233 293 345 419
#     4   9  20  40  72  98 143 174 238 289 356 414
#     4  11  24  47  68 100 146 186 230 295 357 415
#     4  11  25  46  73 108 140 189 240 292 358 429
#     4  11  22  44  70 108 139 180 240 293 352 420
#     4  11  26  46  69 100 150 184 233 297 362 417
#     4  11  25  41  73 103 139 185 241 287 350 436
#
# _framework density 24.178394999999998
#
# number of rings (size 3 to 8) (size 9 to 14) (size 15 to 20)
#    0.000    1.333    1.667    3.000   11.667    0.000 
#    3.000    5.000    0.000    0.000    0.000    0.000 
#    0.000    0.000    0.000    0.000    0.000    0.000 
#
# Total GULP energy -133905.447660 kJ/mol
# GULP energy per Si atom -5579.393652 kJ/mol
# Density = 2.412336 g / cm^3
# Si number density = 24.178395 Si / 1000 Ang^3
#
#
#
# Elastic Constant Matrix: (Units=GPa)
#
#
# Indices 1 2 3 4 5 6 
#
# 1 85.3765 17.5010 34.2084 0.0000 0.0000 0.0000
# 2 17.5010 112.3553 18.9661 0.0000 0.0000 0.0000
# 3 34.2084 18.9661 84.7741 0.0000 0.0000 0.0000
# 4 0.0000 0.0000 0.0000 40.0619 0.0000 0.0000
# 5 0.0000 0.0000 0.0000 0.0000 42.3300 0.0000
# 6 0.0000 0.0000 0.0000 0.0000 0.0000 33.7925
#
#
#
# Elastic Compliance Matrix: (Units=1/GPa)
#
#
# Indices 1 2 3 4 5 6 
#
# 1 0.014149 -0.001289 -0.005421 0.000000 0.000000 0.000000
# 2 -0.001289 0.009367 -0.001576 0.000000 0.000000 0.000000
# 3 -0.005421 -0.001576 0.014336 0.000000 0.000000 0.000000
# 4 0.000000 0.000000 0.000000 0.024961 0.000000 0.000000
# 5 0.000000 0.000000 0.000000 0.000000 0.023624 0.000000
# 6 0.000000 0.000000 0.000000 0.000000 0.000000 0.029592
#
#
# Mechanical properties :
#
#
# Convention : Reuss Voigt Hill
#
# Bulk Modulus (GPa) = 46.98988 47.09521 47.04255
# Shear Modulus (GPa) = 35.79230 37.35892 36.57561
#
# Velocity S-wave (km/s) = 3.85170 3.93509 3.89361
# Velocity P-wave (km/s) = 6.26559 6.33775 6.30177
#
# Compressibility (1/GPa) = 0.02128118
#
# Stress axis : x y z
#
# Youngs Moduli (GPa) = 70.67558 106.75716 69.75379
#
# Poissons Ratio (x) = 0.13759 0.37815
# Poissons Ratio (y) = 0.09109 0.10990
# Poissons Ratio (z) = 0.38315 0.16820
#
# Static dielectric constant tensor:
#      x y z
#    x 1.908960 0.000000 0.000000 
#    y 0.000000 2.180220 0.000000 
#    z 0.000000 0.000000 1.920690 
# 
# From -- ./inp_files/14835.got.cif
#   From: 2010.05.17/outbox.cif.g08.bks.cpg/sg43_8_cif.got.tgz:14835.got - 2010.06.03 19:21:55.
