data_PCOD9371420
_publ_section_title
;
Structure prediction by ZEFSAII (Michael W. Deem and Ramdas Pophale) SiO2 
 PCOD9371420
Probable space group: F D D 2
;
_chemical_formula_sum "Si O2"
_cell_formula_units_Z 80
_cell_length_a 26.275105
_cell_length_b 15.490064
_cell_length_c 9.061374
_cell_angle_alpha 90.000000
_cell_angle_beta 90.000000
_cell_angle_gamma 90.000000
_cell_volume 3688.006928
_symmetry_space_group_name_H-M "F D D 2"
_symmetry_group_IT_number 43
_symmetry_cell_setting 'orthorhombic'
loop_
_space_group_symop_operation_xyz
x,y,z
-x,-y,z
1/4-x,1/4+y,1/4+z
1/4+x,1/4-y,1/4+z
x,1/2+y,1/2+z
-x,1/2-y,1/2+z
1/4-x,3/4+y,3/4+z
1/4+x,3/4-y,3/4+z
1/2+x,y,1/2+z
1/2-x,-y,1/2+z
3/4-x,1/4+y,3/4+z
3/4+x,1/4-y,3/4+z
1/2+x,1/2+y,z
1/2-x,1/2-y,z
3/4-x,3/4+y,1/4+z
3/4+x,3/4-y,1/4+z
loop_
_atom_site_type_symbol
_atom_site_label
_atom_site_fract_x
_atom_site_fract_y
_atom_site_fract_z
Si Si1 0.651636 0.599444 0.321540
Si Si2 0.442434 0.498085 0.258133
Si Si3 0.563652 0.395933 0.550969
Si Si4 0.167415 0.979598 0.604630
Si Si5 0.239997 0.648433 0.597598
O O1 0.593244 0.585754 0.270417
O O2 0.658001 0.686390 0.415029
O O3 0.665858 0.522974 0.439420
O O4 0.692634 0.610201 0.191174
O O5 0.500000 0.500000 0.197281
O O6 0.448535 0.537507 0.420889
O O7 0.574998 0.306522 0.469768
O O8 0.613839 0.433305 0.627628
O O9 0.521355 0.388597 0.674143
O O10 0.210936 0.909452 0.627423
O O11 0.250000 0.750000 0.624813
#
# Coordination Sequence:
#
# PCOD9371420 Si02
#       5
#    16  16  16  16  16
#     4  10  24  41  63  92 122 164 212 258 317 387
#     4  10  22  42  65  90 126 167 209 260 318 380
#     4  10  22  39  64  92 123 167 212 262 318 387
#     4  10  22  43  63  89 127 169 214 260 322 388
#     4  12  24  39  63  97 130 165 212 270 324 380
#
# _framework density 21.691932000000001
#
# number of rings (size 3 to 8) (size 9 to 14) (size 15 to 20)
#    0.000    1.600    0.000    3.600    0.000   14.400 
#    0.000    0.000    0.000    0.000    0.000    0.000 
#    0.000    0.000    0.000    0.000    0.000    0.000 
#
# Total GULP energy -111775.252750 kJ/mol
# GULP energy per Si atom -5588.762637 kJ/mol
# Density = 2.164256 g / cm^3
# Si number density = 21.691932 Si / 1000 Ang^3
#
#
#
# Elastic Constant Matrix: (Units=GPa)
#
#
# Indices 1 2 3 4 5 6 
#
# 1 100.5802 58.8587 -14.6501 0.0000 0.0000 0.0000
# 2 58.8587 89.4399 2.5640 0.0000 0.0000 0.0000
# 3 -14.6501 2.5640 33.0754 0.0000 0.0000 0.0000
# 4 0.0000 0.0000 0.0000 -0.9305 0.0000 0.0000
# 5 0.0000 0.0000 0.0000 0.0000 29.9018 0.0000
# 6 0.0000 0.0000 0.0000 0.0000 0.0000 36.3211
#
#
#
# Elastic Compliance Matrix: (Units=1/GPa)
#
#
# Indices 1 2 3 4 5 6 
#
# 1 0.018602 -0.012505 0.009209 0.000000 0.000000 0.000000
# 2 -0.012505 0.019613 -0.007059 0.000000 0.000000 0.000000
# 3 0.009209 -0.007059 0.034860 0.000000 0.000000 0.000000
# 4 0.000000 0.000000 0.000000 -1.074671 0.000000 0.000000
# 5 0.000000 0.000000 0.000000 0.000000 0.033443 0.000000
# 6 0.000000 0.000000 0.000000 0.000000 0.000000 0.027532
#
#
# Mechanical properties :
#
#
# Convention : Reuss Voigt Hill
#
# Bulk Modulus (GPa) = 19.09779 35.18229 27.14004
# Shear Modulus (GPa) = -5.54044 24.81335 9.63645
#
# Velocity S-wave (km/s) = -1.59990 3.38582 2.10999
# Velocity P-wave (km/s) = 2.32600 5.61599 4.29823
#
# Compressibility (1/GPa) = 0.05236208
#
# Stress axis : x y z
#
# Youngs Moduli (GPa) = 53.75859 50.98756 28.68617
#
# Poissons Ratio (x) = 0.63762 -0.26416
# Poissons Ratio (y) = 0.67227 0.20251
# Poissons Ratio (z) = -0.49505 0.35994
#
# Static dielectric constant tensor:
#      x y z
#    x 1.746380 0.000000 0.000000 
#    y 0.000000 1.762610 0.000000 
#    z 0.000000 0.000000 1.793490 
# 
# From -- ./inp_files/7425.got.cif
#   From: 2010.05.17/outbox.cif.g08.bks.cpg/sg43_4_cif.got.tgz:7425.got - 2010.06.03 19:21:55.
