data_PCOD9371864
_publ_section_title
;
Structure prediction by ZEFSAII (Michael W. Deem and Ramdas Pophale) SiO2 
 PCOD9371864
Probable space group: F D D 2
;
_chemical_formula_sum "Si O2"
_cell_formula_units_Z 112
_cell_length_a 24.354296
_cell_length_b 13.931901
_cell_length_c 12.870155
_cell_angle_alpha 90.000000
_cell_angle_beta 90.000000
_cell_angle_gamma 90.000000
_cell_volume 4366.864709
_symmetry_space_group_name_H-M "F D D 2"
_symmetry_group_IT_number 43
_symmetry_cell_setting 'orthorhombic'
loop_
_space_group_symop_operation_xyz
x,y,z
-x,-y,z
1/4-x,1/4+y,1/4+z
1/4+x,1/4-y,1/4+z
x,1/2+y,1/2+z
-x,1/2-y,1/2+z
1/4-x,3/4+y,3/4+z
1/4+x,3/4-y,3/4+z
1/2+x,y,1/2+z
1/2-x,-y,1/2+z
3/4-x,1/4+y,3/4+z
3/4+x,1/4-y,3/4+z
1/2+x,1/2+y,z
1/2-x,1/2-y,z
3/4-x,3/4+y,1/4+z
3/4+x,3/4-y,1/4+z
loop_
_atom_site_type_symbol
_atom_site_label
_atom_site_fract_x
_atom_site_fract_y
_atom_site_fract_z
Si Si1 0.750000 0.750000 0.723960
Si Si2 0.360702 0.963491 0.091836
Si Si3 0.206147 0.879223 0.824755
Si Si4 0.000000 0.500000 0.395880
Si Si5 0.250830 0.048815 0.723938
Si Si6 0.424403 0.825676 0.776780
Si Si7 0.630227 0.750000 0.619563
Si Si8 0.663918 0.645759 0.000613
O O1 0.748869 0.850155 0.782592
O O2 0.694791 0.748474 0.654873
O O3 0.306880 0.960719 0.162827
O O4 0.379963 0.854055 0.070909
O O5 0.402596 0.034045 0.152215
O O6 0.348196 0.002738 0.978132
O O7 0.212731 0.807032 0.728788
O O8 0.211364 0.860962 0.947138
O O9 0.141955 0.906528 0.817529
O O10 0.250585 0.960508 0.800031
O O11 0.964078 0.567375 0.321006
O O12 0.296103 0.050506 0.635110
O O13 0.375564 0.900441 0.806177
O O14 0.417596 0.718431 0.729419
#
# Coordination Sequence:
#
# PCOD9371864 Si02
#       8
#     8  16  16   8  16  16  16  16
#     4   8  18  38  64  82 128 170 224 278 350 426
#     4  10  24  42  68  98 141 186 245 306 373 447
#     4  11  25  45  74 104 151 197 245 326 378 461
#     4  12  26  50  76 114 152 208 262 308 410 464
#     4   9  20  44  65  93 138 183 236 299 372 443
#     4  11  24  46  70 102 143 191 250 309 380 461
#     4  10  23  43  65  99 137 185 236 303 365 451
#     4  11  26  46  74 107 152 200 253 320 395 472
#
# _framework density 25.647690999999998
#
# number of rings (size 3 to 8) (size 9 to 14) (size 15 to 20)
#    0.000    1.714    1.429    0.857   12.000    4.000 
#   10.286    0.000    0.000    0.000    0.000    0.000 
#    0.000    0.000    0.000    0.000    0.000    0.000 
#
# Total GULP energy -156374.248724 kJ/mol
# GULP energy per Si atom -5584.794597 kJ/mol
# Density = 2.558932 g / cm^3
# Si number density = 25.647691 Si / 1000 Ang^3
#
#
#
# Elastic Constant Matrix: (Units=GPa)
#
#
# Indices 1 2 3 4 5 6 
#
# 1 91.5126 21.7923 18.7114 0.0000 0.0000 0.0000
# 2 21.7923 121.0964 17.6385 0.0000 0.0000 0.0000
# 3 18.7114 17.6385 92.1068 0.0000 0.0000 0.0000
# 4 0.0000 0.0000 0.0000 35.4086 0.0000 0.0000
# 5 0.0000 0.0000 0.0000 0.0000 16.2232 0.0000
# 6 0.0000 0.0000 0.0000 0.0000 0.0000 28.8556
#
#
#
# Elastic Compliance Matrix: (Units=1/GPa)
#
#
# Indices 1 2 3 4 5 6 
#
# 1 0.011779 -0.001822 -0.002044 0.000000 0.000000 0.000000
# 2 -0.001822 0.008777 -0.001311 0.000000 0.000000 0.000000
# 3 -0.002044 -0.001311 0.011523 0.000000 0.000000 0.000000
# 4 0.000000 0.000000 0.000000 0.028242 0.000000 0.000000
# 5 0.000000 0.000000 0.000000 0.000000 0.061640 0.000000
# 6 0.000000 0.000000 0.000000 0.000000 0.000000 0.034655
#
#
# Mechanical properties :
#
#
# Convention : Reuss Voigt Hill
#
# Bulk Modulus (GPa) = 46.02822 46.77781 46.40302
# Shear Modulus (GPa) = 28.70076 32.53573 30.61825
#
# Velocity S-wave (km/s) = 3.34883 3.56555 3.45889
# Velocity P-wave (km/s) = 5.73918 5.93541 5.83812
#
# Compressibility (1/GPa) = 0.02172580
#
# Stress axis : x y z
#
# Youngs Moduli (GPa) = 84.89478 113.93837 86.78161
#
# Poissons Ratio (x) = 0.20760 0.17738
# Poissons Ratio (y) = 0.15468 0.11374
# Poissons Ratio (z) = 0.17353 0.14933
#
# Static dielectric constant tensor:
#      x y z
#    x 2.077080 0.000000 0.000000 
#    y 0.000000 2.088800 0.000000 
#    z 0.000000 0.000000 1.984900 
# 
# From -- ./inp_files/8330.got.cif
#   From: 2010.05.17/outbox.cif.g08.bks.cpg/sg43_5_cif.got.tgz:8330.got - 2010.06.03 19:21:55.
