data_PCOD9371131
_publ_section_title
;
Structure prediction by ZEFSAII (Michael W. Deem and Ramdas Pophale) SiO2 
 PCOD9371131
Probable space group: F D D 2
;
_chemical_formula_sum "Si O2"
_cell_formula_units_Z 64
_cell_length_a 17.514642
_cell_length_b 6.636304
_cell_length_c 20.396130
_cell_angle_alpha 90.000000
_cell_angle_beta 90.000000
_cell_angle_gamma 90.000000
_cell_volume 2370.692951
_symmetry_space_group_name_H-M "F D D 2"
_symmetry_group_IT_number 43
_symmetry_cell_setting 'orthorhombic'
loop_
_space_group_symop_operation_xyz
x,y,z
-x,-y,z
1/4-x,1/4+y,1/4+z
1/4+x,1/4-y,1/4+z
x,1/2+y,1/2+z
-x,1/2-y,1/2+z
1/4-x,3/4+y,3/4+z
1/4+x,3/4-y,3/4+z
1/2+x,y,1/2+z
1/2-x,-y,1/2+z
3/4-x,1/4+y,3/4+z
3/4+x,1/4-y,3/4+z
1/2+x,1/2+y,z
1/2-x,1/2-y,z
3/4-x,3/4+y,1/4+z
3/4+x,3/4-y,1/4+z
loop_
_atom_site_type_symbol
_atom_site_label
_atom_site_fract_x
_atom_site_fract_y
_atom_site_fract_z
Si Si1 0.037355 0.250026 0.618730
Si Si2 0.922154 0.672411 0.383806
Si Si3 0.500000 0.000000 0.730527
Si Si4 0.416342 0.259065 0.834281
Si Si5 0.750000 0.750000 0.250649
O O1 0.109009 0.408331 0.627451
O O2 0.986481 0.312247 0.680704
O O3 0.084065 0.045370 0.614233
O O4 0.998629 0.312262 0.550581
O O5 0.915944 0.501754 0.327168
O O6 0.006644 0.768760 0.377053
O O7 0.930138 0.551747 0.452204
O O8 0.434445 0.103682 0.775160
#
# Coordination Sequence:
#
# PCOD9371131 Si02
#       5
#    16  16   8  16   8
#     4  11  21  40  63  87 128 162 207 260 316 370
#     4  10  22  40  65  89 122 165 211 259 314 372
#     4  11  22  38  62  94 124 167 204 262 316 375
#     4  10  21  40  59  92 118 160 209 252 315 367
#     4   9  22  38  58  94 120 159 210 256 304 373
#
# _framework density 26.996328999999999
#
# number of rings (size 3 to 8) (size 9 to 14) (size 15 to 20)
#    0.000    2.000    2.500    1.500    0.000    4.000 
#    4.500    8.750    0.000    0.000    0.000    0.000 
#    0.000    0.000    0.000    0.000    0.000    0.000 
#
# Total GULP energy -89198.522038 kJ/mol
# GULP energy per Si atom -5574.907627 kJ/mol
# Density = 2.693488 g / cm^3
# Si number density = 26.996329 Si / 1000 Ang^3
#
#
#
# Elastic Constant Matrix: (Units=GPa)
#
#
# Indices 1 2 3 4 5 6 
#
# 1 109.0312 -0.5667 39.1799 0.0000 0.0000 0.0000
# 2 -0.5667 111.9105 42.8593 0.0000 0.0000 0.0000
# 3 39.1799 42.8593 131.2268 0.0000 0.0000 0.0000
# 4 0.0000 0.0000 0.0000 28.7669 0.0000 0.0000
# 5 0.0000 0.0000 0.0000 0.0000 34.7452 0.0000
# 6 0.0000 0.0000 0.0000 0.0000 0.0000 61.7835
#
#
#
# Elastic Compliance Matrix: (Units=1/GPa)
#
#
# Indices 1 2 3 4 5 6 
#
# 1 0.010470 0.001429 -0.003593 0.000000 0.000000 0.000000
# 2 0.001429 0.010408 -0.003826 0.000000 0.000000 0.000000
# 3 -0.003593 -0.003826 0.009943 0.000000 0.000000 0.000000
# 4 0.000000 0.000000 0.000000 0.034762 0.000000 0.000000
# 5 0.000000 0.000000 0.000000 0.000000 0.028781 0.000000
# 6 0.000000 0.000000 0.000000 0.000000 0.000000 0.016186
#
#
# Mechanical properties :
#
#
# Convention : Reuss Voigt Hill
#
# Bulk Modulus (GPa) = 53.07450 57.23487 55.15468
# Shear Modulus (GPa) = 38.81692 43.10552 40.96122
#
# Velocity S-wave (km/s) = 3.79603 4.00023 3.89946
# Velocity P-wave (km/s) = 6.23824 6.52555 6.38351
#
# Compressibility (1/GPa) = 0.01884144
#
# Stress axis : x y z
#
# Youngs Moduli (GPa) = 95.50959 96.07784 100.57668
#
# Poissons Ratio (x) = -0.13729 0.36135
# Poissons Ratio (y) = -0.13648 0.38481
# Poissons Ratio (z) = 0.34314 0.36760
#
# Static dielectric constant tensor:
#      x y z
#    x 2.279490 0.000000 0.000000 
#    y 0.000000 2.217680 0.000000 
#    z 0.000000 0.000000 2.208580 
# 
# From -- ./inp_files/18239.got.cif
#   From: 2010.05.17/outbox.cif.g08.bks.cpg/sg43_10_cif.got.tgz:18239.got - 2010.06.03 19:21:55.
