data_PCOD9371540
_publ_section_title
;
Structure prediction by ZEFSAII (Michael W. Deem and Ramdas Pophale) SiO2 
 PCOD9371540
Probable space group: F D D 2
;
_chemical_formula_sum "Si O2"
_cell_formula_units_Z 120
_cell_length_a 22.433627
_cell_length_b 15.937942
_cell_length_c 16.555156
_cell_angle_alpha 90.000000
_cell_angle_beta 90.000000
_cell_angle_gamma 90.000000
_cell_volume 5919.227257
_symmetry_space_group_name_H-M "F D D 2"
_symmetry_group_IT_number 43
_symmetry_cell_setting 'orthorhombic'
loop_
_space_group_symop_operation_xyz
x,y,z
-x,-y,z
1/4-x,1/4+y,1/4+z
1/4+x,1/4-y,1/4+z
x,1/2+y,1/2+z
-x,1/2-y,1/2+z
1/4-x,3/4+y,3/4+z
1/4+x,3/4-y,3/4+z
1/2+x,y,1/2+z
1/2-x,-y,1/2+z
3/4-x,1/4+y,3/4+z
3/4+x,1/4-y,3/4+z
1/2+x,1/2+y,z
1/2-x,1/2-y,z
3/4-x,3/4+y,1/4+z
3/4+x,3/4-y,1/4+z
loop_
_atom_site_type_symbol
_atom_site_label
_atom_site_fract_x
_atom_site_fract_y
_atom_site_fract_z
Si Si1 0.635499 0.882014 0.176990
Si Si2 0.201550 0.986243 0.555728
Si Si3 0.307951 0.597044 0.094916
Si Si4 0.609278 0.690632 0.170272
Si Si5 0.711291 0.166545 0.560800
Si Si6 0.076966 0.367915 0.672906
Si Si7 0.485356 0.900695 0.553998
Si Si8 0.500000 0.500000 0.273495
O O1 0.647706 0.948035 0.106774
O O2 0.613209 0.789925 0.148673
O O3 0.589382 0.918025 0.242103
O O4 0.699427 0.868650 0.222030
O O5 0.244833 0.908466 0.538502
O O6 0.245560 0.048997 0.604948
O O7 0.179771 0.035226 0.476748
O O8 0.356998 0.596162 0.163764
O O9 0.292860 0.693267 0.076875
O O10 0.339325 0.561590 0.013332
O O11 0.673858 0.655468 0.143951
O O12 0.561775 0.634318 0.121284
O O13 0.750000 0.250000 0.565224
O O14 0.046317 0.357356 0.584755
O O15 0.037971 0.437661 0.718500
O O16 0.500000 0.000000 0.554260
#
# Coordination Sequence:
#
# PCOD9371540 Si02
#       8
#    16  16  16  16  16  16  16   8
#     4  11  24  39  64  96 130 174 214 264 327 392
#     4  11  24  43  62  95 134 163 219 266 325 388
#     4  11  23  39  67  92 126 170 210 267 324 381
#     4  11  21  36  63  98 130 162 207 268 334 377
#     4  11  23  40  65  91 130 170 211 270 319 381
#     4  11  22  39  65  90 129 170 204 270 323 380
#     4  11  21  36  62 101 131 158 212 274 324 387
#     4  10  22  42  58  94 132 152 212 270 314 380
#
# _framework density 20.272917
#
# number of rings (size 3 to 8) (size 9 to 14) (size 15 to 20)
#    0.000    1.067    6.000    0.800    7.467    0.000 
#    4.800    0.000    7.333    0.000    0.000    0.000 
#    0.000    0.000    0.000    0.000    0.000    0.000 
#
# Total GULP energy -167488.239285 kJ/mol
# GULP energy per Si atom -5582.941310 kJ/mol
# Density = 2.022677 g / cm^3
# Si number density = 20.272917 Si / 1000 Ang^3
#
#
#
# Elastic Constant Matrix: (Units=GPa)
#
#
# Indices 1 2 3 4 5 6 
#
# 1 61.7244 13.7179 8.7998 0.0000 0.0000 0.0000
# 2 13.7179 93.0202 32.8144 0.0000 0.0000 0.0000
# 3 8.7998 32.8144 49.6394 0.0000 0.0000 0.0000
# 4 0.0000 0.0000 0.0000 12.4154 0.0000 0.0000
# 5 0.0000 0.0000 0.0000 0.0000 10.7440 0.0000
# 6 0.0000 0.0000 0.0000 0.0000 0.0000 39.3378
#
#
#
# Elastic Compliance Matrix: (Units=1/GPa)
#
#
# Indices 1 2 3 4 5 6 
#
# 1 0.016866 -0.001868 -0.001755 0.000000 0.000000 0.000000
# 2 -0.001868 0.014227 -0.009073 0.000000 0.000000 0.000000
# 3 -0.001755 -0.009073 0.026454 0.000000 0.000000 0.000000
# 4 0.000000 0.000000 0.000000 0.080545 0.000000 0.000000
# 5 0.000000 0.000000 0.000000 0.000000 0.093075 0.000000
# 6 0.000000 0.000000 0.000000 0.000000 0.000000 0.025421
#
#
# Mechanical properties :
#
#
# Convention : Reuss Voigt Hill
#
# Bulk Modulus (GPa) = 31.10006 35.00535 33.05271
# Shear Modulus (GPa) = 17.08231 22.43622 19.75926
#
# Velocity S-wave (km/s) = 2.90594 3.33033 3.12535
# Velocity P-wave (km/s) = 5.16074 5.66504 5.41876
#
# Compressibility (1/GPa) = 0.03215427
#
# Stress axis : x y z
#
# Youngs Moduli (GPa) = 59.28933 70.29049 37.80081
#
# Poissons Ratio (x) = 0.13132 0.06634
# Poissons Ratio (y) = 0.11077 0.34298
# Poissons Ratio (z) = 0.10405 0.63778
#
# Static dielectric constant tensor:
#      x y z
#    x 1.745170 0.000000 0.000000 
#    y 0.000000 1.720550 0.000000 
#    z 0.000000 0.000000 1.753490 
# 
# From -- ./inp_files/14874.got.cif
#   From: 2010.05.17/outbox.cif.g08.bks.cpg/sg43_8_cif.got.tgz:14874.got - 2010.06.03 19:21:55.
