data_PCOD9371762
_publ_section_title
;
Structure prediction by ZEFSAII (Michael W. Deem and Ramdas Pophale) SiO2 
 PCOD9371762
Probable space group: F D D 2
;
_chemical_formula_sum "Si O2"
_cell_formula_units_Z 72
_cell_length_a 24.464420
_cell_length_b 21.516365
_cell_length_c 5.306178
_cell_angle_alpha 90.000000
_cell_angle_beta 90.000000
_cell_angle_gamma 90.000000
_cell_volume 2793.094577
_symmetry_space_group_name_H-M "F D D 2"
_symmetry_group_IT_number 43
_symmetry_cell_setting 'orthorhombic'
loop_
_space_group_symop_operation_xyz
x,y,z
-x,-y,z
1/4-x,1/4+y,1/4+z
1/4+x,1/4-y,1/4+z
x,1/2+y,1/2+z
-x,1/2-y,1/2+z
1/4-x,3/4+y,3/4+z
1/4+x,3/4-y,3/4+z
1/2+x,y,1/2+z
1/2-x,-y,1/2+z
3/4-x,1/4+y,3/4+z
3/4+x,1/4-y,3/4+z
1/2+x,1/2+y,z
1/2-x,1/2-y,z
3/4-x,3/4+y,1/4+z
3/4+x,3/4-y,1/4+z
loop_
_atom_site_type_symbol
_atom_site_label
_atom_site_fract_x
_atom_site_fract_y
_atom_site_fract_z
Si Si1 0.463560 0.683199 0.545770
Si Si2 0.497150 0.130235 0.539373
Si Si3 0.919027 0.823433 0.678759
Si Si4 0.500000 0.000000 0.450313
Si Si5 0.354134 0.716463 0.374622
O O1 0.464376 0.662259 0.258178
O O2 0.525778 0.708671 0.565842
O O3 0.406224 0.716724 0.565111
O O4 0.465750 0.633717 0.771710
O O5 0.556162 0.157672 0.457035
O O6 0.500902 0.060014 0.622267
O O7 0.906009 0.892160 0.563053
O O8 0.872432 0.771352 0.682308
O O9 0.448545 0.989696 0.270554
#
# Coordination Sequence:
#
# PCOD9371762 Si02
#       5
#    16  16  16   8  16
#     4  10  23  46  69 109 145 201 255 315 390 461
#     4   9  22  45  70 106 146 194 256 315 384 470
#     4   9  24  43  75 106 152 195 262 313 399 461
#     4  10  22  46  74 110 158 196 266 316 406 462
#     4  11  22  48  76 112 154 205 255 334 390 487
#
# _framework density 25.777857999999998
#
# number of rings (size 3 to 8) (size 9 to 14) (size 15 to 20)
#    1.333    0.889    0.000    1.333    3.111    0.889 
#   16.000    0.000    0.000    0.000    0.000    0.000 
#    0.000    0.000    0.000    0.000    0.000    0.000 
#
# Total GULP energy -100232.489120 kJ/mol
# GULP energy per Si atom -5568.471618 kJ/mol
# Density = 2.571919 g / cm^3
# Si number density = 25.777858 Si / 1000 Ang^3
#
#
#
# Elastic Constant Matrix: (Units=GPa)
#
#
# Indices 1 2 3 4 5 6 
#
# 1 167.6395 69.6425 6.5257 0.0026 -0.0013 -0.0081
# 2 69.6425 144.2981 31.7259 -0.0115 0.0068 -0.0202
# 3 6.5257 31.7259 66.2327 -0.0020 0.0009 -0.0466
# 4 0.0026 -0.0115 -0.0020 -5.5041 0.0068 -0.0316
# 5 -0.0013 0.0068 0.0009 0.0068 10.1366 0.0180
# 6 -0.0081 -0.0202 -0.0466 -0.0316 0.0180 24.2506
#
#
#
# Elastic Compliance Matrix: (Units=1/GPa)
#
#
# Indices 1 2 3 4 5 6 
#
# 1 0.007534 -0.003882 0.001117 0.000011 0.000003 0.000001
# 2 -0.003882 0.009746 -0.004286 -0.000021 -0.000007 -0.000001
# 3 0.001117 -0.004286 0.017041 0.000003 0.000001 0.000030
# 4 0.000011 -0.000021 0.000003 -0.181682 0.000123 -0.000237
# 5 0.000003 -0.000007 0.000001 0.000123 0.098653 -0.000073
# 6 0.000001 -0.000001 0.000030 -0.000237 -0.000073 0.041236
#
#
# Mechanical properties :
#
#
# Convention : Reuss Voigt Hill
#
# Bulk Modulus (GPa) = 49.45567 65.99540 57.72553
# Shear Modulus (GPa) = 373.99026 23.79505 198.89266
#
# Velocity S-wave (km/s) = 12.05807 3.04152 8.79340
# Velocity P-wave (km/s) = 14.59759 6.16373 11.20449
#
# Compressibility (1/GPa) = 0.02022013
#
# Stress axis : x y z
#
# Youngs Moduli (GPa) = 132.72530 102.60690 58.68133
#
# Poissons Ratio (x) = 0.39831 -0.06555
# Poissons Ratio (y) = 0.51523 0.25150
# Poissons Ratio (z) = -0.14827 0.43976
#
# Static dielectric constant tensor:
#      x y z
#    x 2.069900 0.000030 0.000010 
#    y 0.000030 2.379780 -0.000100 
#    z 0.000010 -0.000100 2.032790 
# 
# From -- ./inp_files/1162.got.cif
#   From: 2010.05.17/outbox.cif.g08.bks.cpg/sg43_1_cif.got.tgz:1162.got - 2010.06.03 19:21:55.
