data_PCOD9371797
_publ_section_title
;
Structure prediction by ZEFSAII (Michael W. Deem and Ramdas Pophale) SiO2 
 PCOD9371797
Probable space group: F D D 2
;
_chemical_formula_sum "Si O2"
_cell_formula_units_Z 112
_cell_length_a 23.114413
_cell_length_b 13.633700
_cell_length_c 13.912922
_cell_angle_alpha 90.000000
_cell_angle_beta 90.000000
_cell_angle_gamma 90.000000
_cell_volume 4384.448292
_symmetry_space_group_name_H-M "F D D 2"
_symmetry_group_IT_number 43
_symmetry_cell_setting 'orthorhombic'
loop_
_space_group_symop_operation_xyz
x,y,z
-x,-y,z
1/4-x,1/4+y,1/4+z
1/4+x,1/4-y,1/4+z
x,1/2+y,1/2+z
-x,1/2-y,1/2+z
1/4-x,3/4+y,3/4+z
1/4+x,3/4-y,3/4+z
1/2+x,y,1/2+z
1/2-x,-y,1/2+z
3/4-x,1/4+y,3/4+z
3/4+x,1/4-y,3/4+z
1/2+x,1/2+y,z
1/2-x,1/2-y,z
3/4-x,3/4+y,1/4+z
3/4+x,3/4-y,1/4+z
loop_
_atom_site_type_symbol
_atom_site_label
_atom_site_fract_x
_atom_site_fract_y
_atom_site_fract_z
Si Si1 0.163981 0.682638 0.262670
Si Si2 0.946090 0.622775 0.205983
Si Si3 0.014326 0.658543 0.700413
Si Si4 0.129986 0.125542 0.420496
Si Si5 0.454047 0.890564 0.349910
Si Si6 0.235602 0.442883 0.669058
Si Si7 0.584224 0.038708 0.541046
O O1 0.183455 0.704183 0.372097
O O2 0.148188 0.770343 0.191682
O O3 0.105057 0.624792 0.289561
O O4 0.218549 0.626742 0.219513
O O5 0.966347 0.731428 0.167919
O O6 0.889625 0.642595 0.270755
O O7 0.996739 0.593719 0.274307
O O8 0.030311 0.651542 0.812840
O O9 0.044965 0.585351 0.625369
O O10 0.945398 0.640839 0.708219
O O11 0.078849 0.196049 0.466007
O O12 0.146138 0.181387 0.322587
O O13 0.478670 0.792669 0.403695
O O14 0.443005 0.964714 0.435925
#
# Coordination Sequence:
#
# PCOD9371797 Si02
#       7
#    16  16  16  16  16  16  16
#     4  11  24  44  80 113 159 219 272 344 430 503
#     4  10  22  50  77 113 161 214 277 345 419 504
#     4  11  24  48  75 114 159 212 275 343 422 506
#     4  12  24  46  72 116 166 210 276 348 430 508
#     4  10  22  50  77 113 161 214 277 345 419 504
#     4  11  24  48  75 114 159 212 275 343 422 506
#     4  11  24  44  80 113 159 219 272 344 430 503
#
# _framework density 25.544833000000001
#
# number of rings (size 3 to 8) (size 9 to 14) (size 15 to 20)
#    0.000    1.143    5.714    1.714    0.000    4.571 
#   10.286    0.000    0.000    0.000    0.000    0.000 
#    0.000    0.000    0.000    0.000    0.000    0.000 
#
# Total GULP energy -156418.960270 kJ/mol
# GULP energy per Si atom -5586.391438 kJ/mol
# Density = 2.548669 g / cm^3
# Si number density = 25.544833 Si / 1000 Ang^3
#
#
#
# Elastic Constant Matrix: (Units=GPa)
#
#
# Indices 1 2 3 4 5 6 
#
# 1 198.5307 33.5860 36.0314 0.0000 0.0000 0.0000
# 2 33.5860 98.7313 59.3675 0.0000 0.0000 0.0000
# 3 36.0314 59.3675 119.5322 0.0000 0.0000 0.0000
# 4 0.0000 0.0000 0.0000 24.2831 0.0000 0.0000
# 5 0.0000 0.0000 0.0000 0.0000 47.3637 0.0000
# 6 0.0000 0.0000 0.0000 0.0000 0.0000 -78.5659
#
#
#
# Elastic Compliance Matrix: (Units=1/GPa)
#
#
# Indices 1 2 3 4 5 6 
#
# 1 0.005431 -0.001231 -0.001026 0.000000 0.000000 0.000000
# 2 -0.001231 0.014720 -0.006940 0.000000 0.000000 0.000000
# 3 -0.001026 -0.006940 0.012122 0.000000 0.000000 0.000000
# 4 0.000000 0.000000 0.000000 0.041181 0.000000 0.000000
# 5 0.000000 0.000000 0.000000 0.000000 0.021113 0.000000
# 6 0.000000 0.000000 0.000000 0.000000 0.000000 -0.012728
#
#
# Mechanical properties :
#
#
# Convention : Reuss Voigt Hill
#
# Bulk Modulus (GPa) = 72.04469 74.97376 73.50922
# Shear Modulus (GPa) = 47.68267 17.80348 32.74307
#
# Velocity S-wave (km/s) = 4.32513 2.64285 3.58409
# Velocity P-wave (km/s) = 7.29430 6.22306 6.77987
#
# Compressibility (1/GPa) = 0.01388027
#
# Stress axis : x y z
#
# Youngs Moduli (GPa) = 184.11418 67.93370 82.49399
#
# Poissons Ratio (x) = 0.08361 0.08464
# Poissons Ratio (y) = 0.22659 0.57251
# Poissons Ratio (z) = 0.18890 0.47146
#
# Static dielectric constant tensor:
#      x y z
#    x 2.144380 0.000000 0.000000 
#    y 0.000000 2.167980 0.000000 
#    z 0.000000 0.000000 1.983800 
# 
# From -- ./inp_files/11265.got.cif
#   From: 2010.05.17/outbox.cif.g08.bks.cpg/sg43_6_cif.got.tgz:11265.got - 2010.06.03 19:21:55.
