data_PCOD9371463
_publ_section_title
;
Structure prediction by ZEFSAII (Michael W. Deem and Ramdas Pophale) SiO2 
 PCOD9371463
Probable space group: F D D 2
;
_chemical_formula_sum "Si O2"
_cell_formula_units_Z 120
_cell_length_a 23.062379
_cell_length_b 15.720513
_cell_length_c 14.266399
_cell_angle_alpha 90.000000
_cell_angle_beta 90.000000
_cell_angle_gamma 90.000000
_cell_volume 5172.317609
_symmetry_space_group_name_H-M "F D D 2"
_symmetry_group_IT_number 43
_symmetry_cell_setting 'orthorhombic'
loop_
_space_group_symop_operation_xyz
x,y,z
-x,-y,z
1/4-x,1/4+y,1/4+z
1/4+x,1/4-y,1/4+z
x,1/2+y,1/2+z
-x,1/2-y,1/2+z
1/4-x,3/4+y,3/4+z
1/4+x,3/4-y,3/4+z
1/2+x,y,1/2+z
1/2-x,-y,1/2+z
3/4-x,1/4+y,3/4+z
3/4+x,1/4-y,3/4+z
1/2+x,1/2+y,z
1/2-x,1/2-y,z
3/4-x,3/4+y,1/4+z
3/4+x,3/4-y,1/4+z
loop_
_atom_site_type_symbol
_atom_site_label
_atom_site_fract_x
_atom_site_fract_y
_atom_site_fract_z
Si Si1 0.533777 0.175353 0.525730
Si Si2 0.393508 0.915812 0.192166
Si Si3 0.629962 0.648669 0.899810
Si Si4 0.750000 0.750000 0.228894
Si Si5 0.627132 0.467095 0.935605
Si Si6 0.208350 0.134242 0.550584
Si Si7 0.804118 0.999745 0.396452
Si Si8 0.581432 0.563796 0.314798
O O1 0.562521 0.172137 0.423896
O O2 0.512890 0.080281 0.543139
O O3 0.586738 0.195271 0.593830
O O4 0.480921 0.236016 0.550352
O O5 0.369275 0.885257 0.293502
O O6 0.341646 0.899617 0.118247
O O7 0.443817 0.848119 0.171164
O O8 0.411549 0.013786 0.176013
O O9 0.645341 0.564458 0.960585
O O10 0.692130 0.725860 0.172167
O O11 0.640997 0.391584 0.007259
O O12 0.222792 0.063504 0.472897
O O13 0.184032 0.224935 0.511111
O O14 0.269098 0.155122 0.601430
O O15 0.870036 0.965961 0.387868
#
# Coordination Sequence:
#
# PCOD9371463 Si02
#       8
#    16  16  16   8  16  16  16  16
#     4  11  23  42  74 104 146 194 249 314 383 452
#     4  11  23  48  71 100 145 202 249 317 379 462
#     4  11  24  46  74  96 150 198 250 311 377 462
#     4  10  24  42  66 108 150 182 240 314 352 478
#     4  11  22  41  71 105 145 196 238 304 389 447
#     4  10  22  41  72 103 144 183 237 318 376 453
#     4  11  22  42  71 107 136 188 246 314 384 451
#     4  10  22  40  67 110 139 180 239 310 384 445
#
# _framework density 23.200430999999998
#
# number of rings (size 3 to 8) (size 9 to 14) (size 15 to 20)
#    0.000    1.333    5.333    0.000    1.867    0.000 
#    4.800   12.667    0.000    0.000    0.000    0.000 
#    0.000    0.000    0.000    0.000    0.000    0.000 
#
# Total GULP energy -167326.326146 kJ/mol
# GULP energy per Si atom -5577.544205 kJ/mol
# Density = 2.314763 g / cm^3
# Si number density = 23.200431 Si / 1000 Ang^3
#
#
#
# Elastic Constant Matrix: (Units=GPa)
#
#
# Indices 1 2 3 4 5 6 
#
# 1 85.7972 23.9509 -2.2573 0.0000 0.0000 0.0000
# 2 23.9509 213.1822 36.4336 0.0000 0.0000 0.0000
# 3 -2.2573 36.4336 41.1148 0.0000 0.0000 0.0000
# 4 0.0000 0.0000 0.0000 27.4163 0.0000 0.0000
# 5 0.0000 0.0000 0.0000 0.0000 36.0313 0.0000
# 6 0.0000 0.0000 0.0000 0.0000 0.0000 35.9037
#
#
#
# Elastic Compliance Matrix: (Units=1/GPa)
#
#
# Indices 1 2 3 4 5 6 
#
# 1 0.012203 -0.001751 0.002221 0.000000 0.000000 0.000000
# 2 -0.001751 0.005779 -0.005217 0.000000 0.000000 0.000000
# 3 0.002221 -0.005217 0.029067 0.000000 0.000000 0.000000
# 4 0.000000 0.000000 0.000000 0.036475 0.000000 0.000000
# 5 0.000000 0.000000 0.000000 0.000000 0.027754 0.000000
# 6 0.000000 0.000000 0.000000 0.000000 0.000000 0.027852
#
#
# Mechanical properties :
#
#
# Convention : Reuss Voigt Hill
#
# Bulk Modulus (GPa) = 26.62709 50.70542 38.66625
# Shear Modulus (GPa) = 31.02864 38.66805 34.84834
#
# Velocity S-wave (km/s) = 3.66104 4.08695 3.87984
# Velocity P-wave (km/s) = 5.41967 6.64633 6.06409
#
# Compressibility (1/GPa) = 0.03755574
#
# Stress axis : x y z
#
# Youngs Moduli (GPa) = 81.95030 173.03591 34.40287
#
# Poissons Ratio (x) = 0.30291 -0.07642
# Poissons Ratio (y) = 0.14346 0.17949
# Poissons Ratio (z) = -0.18203 0.90277
#
# Static dielectric constant tensor:
#      x y z
#    x 1.895960 0.000000 0.000000 
#    y 0.000000 1.945640 0.000000 
#    z 0.000000 0.000000 1.891680 
# 
# From -- ./inp_files/14875.got.cif
#   From: 2010.05.17/outbox.cif.g08.bks.cpg/sg43_8_cif.got.tgz:14875.got - 2010.06.03 19:21:55.
