data_PCOD9371111
_publ_section_title
;
Structure prediction by ZEFSAII (Michael W. Deem and Ramdas Pophale) SiO2 
 PCOD9371111
Probable space group: F D D 2
;
_chemical_formula_sum "Si O2"
_cell_formula_units_Z 120
_cell_length_a 23.103376
_cell_length_b 14.444846
_cell_length_c 15.566075
_cell_angle_alpha 90.000000
_cell_angle_beta 90.000000
_cell_angle_gamma 90.000000
_cell_volume 5194.783840
_symmetry_space_group_name_H-M "F D D 2"
_symmetry_group_IT_number 43
_symmetry_cell_setting 'orthorhombic'
loop_
_space_group_symop_operation_xyz
x,y,z
-x,-y,z
1/4-x,1/4+y,1/4+z
1/4+x,1/4-y,1/4+z
x,1/2+y,1/2+z
-x,1/2-y,1/2+z
1/4-x,3/4+y,3/4+z
1/4+x,3/4-y,3/4+z
1/2+x,y,1/2+z
1/2-x,-y,1/2+z
3/4-x,1/4+y,3/4+z
3/4+x,1/4-y,3/4+z
1/2+x,1/2+y,z
1/2-x,1/2-y,z
3/4-x,3/4+y,1/4+z
3/4+x,3/4-y,1/4+z
loop_
_atom_site_type_symbol
_atom_site_label
_atom_site_fract_x
_atom_site_fract_y
_atom_site_fract_z
Si Si1 0.924627 0.340401 0.032520
Si Si2 0.943722 0.850721 0.245497
Si Si3 0.550566 0.144262 0.551358
Si Si4 0.432353 0.144098 0.457883
Si Si5 0.823708 0.392476 0.511877
Si Si6 0.000000 0.500000 0.859471
Si Si7 0.052354 0.867237 0.575057
Si Si8 0.629247 0.233413 0.204690
O O1 0.913466 0.296412 0.127738
O O2 0.988143 0.386624 0.037759
O O3 0.926819 0.256195 0.964737
O O4 0.877677 0.415665 0.000171
O O5 0.951763 0.888107 0.149249
O O6 0.874583 0.861089 0.258656
O O7 0.955858 0.742992 0.256751
O O8 0.983940 0.910553 0.304679
O O9 0.491781 0.120849 0.503906
O O10 0.606592 0.104190 0.504490
O O11 0.557249 0.255940 0.562368
O O12 0.434188 0.108771 0.359691
O O13 0.802572 0.347344 0.423557
O O14 0.941111 0.518472 0.908179
O O15 0.108934 0.909761 0.529621
#
# Coordination Sequence:
#
# PCOD9371111 Si02
#       8
#    16  16  16  16  16   8  16  16
#     4  11  24  43  67 104 133 179 228 296 355 428
#     4  10  22  39  61  98 131 170 219 286 344 418
#     4   9  22  40  62  95 127 177 224 282 336 422
#     4  10  21  39  65  92 134 171 228 283 346 417
#     4  10  22  40  64  89 134 180 224 280 345 412
#     4  12  22  42  68 100 132 178 216 292 360 412
#     4  10  23  43  61  93 138 169 235 283 344 421
#     4  12  25  42  70  98 139 178 231 292 362 427
#
# _framework density 23.100093999999999
#
# number of rings (size 3 to 8) (size 9 to 14) (size 15 to 20)
#    0.000    1.600    2.667    0.800    3.733    6.933 
#    0.000    0.000    2.933    0.000    0.000    0.000 
#    0.000    0.000    0.000    0.000    0.000    0.000 
#
# Total GULP energy -167485.810247 kJ/mol
# GULP energy per Si atom -5582.860342 kJ/mol
# Density = 2.304752 g / cm^3
# Si number density = 23.100094 Si / 1000 Ang^3
#
#
#
# Elastic Constant Matrix: (Units=GPa)
#
#
# Indices 1 2 3 4 5 6 
#
# 1 47.8287 0.2279 9.8023 0.0000 0.0000 0.0000
# 2 0.2279 41.3776 7.9798 0.0000 0.0000 0.0000
# 3 9.8023 7.9798 65.2463 0.0000 0.0000 0.0000
# 4 0.0000 0.0000 0.0000 27.7579 0.0000 0.0000
# 5 0.0000 0.0000 0.0000 0.0000 34.5805 0.0000
# 6 0.0000 0.0000 0.0000 0.0000 0.0000 27.2232
#
#
#
# Elastic Compliance Matrix: (Units=1/GPa)
#
#
# Indices 1 2 3 4 5 6 
#
# 1 0.021583 0.000519 -0.003306 0.000000 0.000000 0.000000
# 2 0.000519 0.024764 -0.003107 0.000000 0.000000 0.000000
# 3 -0.003306 -0.003107 0.016203 0.000000 0.000000 0.000000
# 4 0.000000 0.000000 0.000000 0.036026 0.000000 0.000000
# 5 0.000000 0.000000 0.000000 0.000000 0.028918 0.000000
# 6 0.000000 0.000000 0.000000 0.000000 0.000000 0.036733
#
#
# Mechanical properties :
#
#
# Convention : Reuss Voigt Hill
#
# Bulk Modulus (GPa) = 19.69964 21.16361 20.43163
# Shear Modulus (GPa) = 25.91533 27.00848 26.46191
#
# Velocity S-wave (km/s) = 3.35307 3.42306 3.38824
# Velocity P-wave (km/s) = 4.85152 4.98043 4.91640
#
# Compressibility (1/GPa) = 0.05076234
#
# Stress axis : x y z
#
# Youngs Moduli (GPa) = 46.33270 40.38129 61.71633
#
# Poissons Ratio (x) = -0.02095 0.20403
# Poissons Ratio (y) = -0.02403 0.19173
# Poissons Ratio (z) = 0.15317 0.12545
#
# Static dielectric constant tensor:
#      x y z
#    x 1.827830 0.000000 0.000000 
#    y 0.000000 1.921270 0.000000 
#    z 0.000000 0.000000 1.944090 
# 
# From -- ./inp_files/10727.got.cif
#   From: 2010.05.17/outbox.cif.g08.bks.cpg/sg43_6_cif.got.tgz:10727.got - 2010.06.03 19:21:55.
