data_PCOD9371572
_publ_section_title
;
Structure prediction by ZEFSAII (Michael W. Deem and Ramdas Pophale) SiO2 
 PCOD9371572
Probable space group: F D D 2
;
_chemical_formula_sum "Si O2"
_cell_formula_units_Z 104
_cell_length_a 25.740415
_cell_length_b 7.685542
_cell_length_c 25.820260
_cell_angle_alpha 90.000000
_cell_angle_beta 90.000000
_cell_angle_gamma 90.000000
_cell_volume 5107.997263
_symmetry_space_group_name_H-M "F D D 2"
_symmetry_group_IT_number 43
_symmetry_cell_setting 'orthorhombic'
loop_
_space_group_symop_operation_xyz
x,y,z
-x,-y,z
1/4-x,1/4+y,1/4+z
1/4+x,1/4-y,1/4+z
x,1/2+y,1/2+z
-x,1/2-y,1/2+z
1/4-x,3/4+y,3/4+z
1/4+x,3/4-y,3/4+z
1/2+x,y,1/2+z
1/2-x,-y,1/2+z
3/4-x,1/4+y,3/4+z
3/4+x,1/4-y,3/4+z
1/2+x,1/2+y,z
1/2-x,1/2-y,z
3/4-x,3/4+y,1/4+z
3/4+x,3/4-y,1/4+z
loop_
_atom_site_type_symbol
_atom_site_label
_atom_site_fract_x
_atom_site_fract_y
_atom_site_fract_z
Si Si1 0.500000 0.500000 0.465120
Si Si2 0.406545 0.897122 0.670367
Si Si3 0.799128 0.054623 0.763266
Si Si4 0.250000 0.250000 0.065305
Si Si5 0.840933 0.488402 0.532975
Si Si6 0.175707 0.899530 0.648368
Si Si7 0.085629 0.558526 0.890989
Si Si8 0.250000 0.750000 0.846282
O O1 0.459053 0.602003 0.500545
O O2 0.534297 0.608369 0.423976
O O3 0.413709 0.840372 0.729315
O O4 0.369387 0.746543 0.645870
O O5 0.379900 0.084764 0.669466
O O6 0.456331 0.929537 0.634880
O O7 0.853795 0.133194 0.784066
O O8 0.798620 0.129018 0.704791
O O9 0.751720 0.098510 0.802102
O O10 0.207265 0.143538 0.034170
O O11 0.216496 0.371778 0.102994
O O12 0.835890 0.614714 0.582806
O O13 0.157436 0.100494 0.644343
#
# Coordination Sequence:
#
# PCOD9371572 Si02
#       8
#     8  16  16   8  16  16  16   8
#     4  10  24  41  75 106 125 173 258 278 334 414
#     4  11  26  47  63 103 146 181 223 289 342 426
#     4  10  22  42  68 101 130 183 226 289 339 407
#     4  12  21  44  73 102 135 182 227 296 350 406
#     4  11  24  45  70  99 143 181 229 286 354 409
#     4  10  23  43  76  99 133 175 244 286 334 409
#     4  11  22  46  72 102 130 181 232 297 336 403
#     4  12  23  45  64  96 146 189 215 270 372 394
#
# _framework density 20.360229
#
# number of rings (size 3 to 8) (size 9 to 14) (size 15 to 20)
#    0.000    1.231    3.077    2.308    4.308    1.846 
#   27.692    0.000    0.000    0.000    0.000    0.000 
#    0.000    0.000    0.000    0.000    0.000    0.000 
#
# Total GULP energy -144747.715821 kJ/mol
# GULP energy per Si atom -5567.219839 kJ/mol
# Density = 2.031389 g / cm^3
# Si number density = 20.360229 Si / 1000 Ang^3
#
#
#
# Elastic Constant Matrix: (Units=GPa)
#
#
# Indices 1 2 3 4 5 6 
#
# 1 35.9511 53.5784 23.1697 -0.0001 -0.0001 0.0001
# 2 53.5784 129.3829 48.2704 -0.0003 -0.0004 0.0001
# 3 23.1697 48.2704 125.8552 0.0000 0.0000 0.0000
# 4 -0.0001 -0.0003 0.0000 -0.7552 -0.0003 0.0000
# 5 -0.0001 -0.0004 0.0000 -0.0003 60.8742 0.0000
# 6 0.0001 0.0001 0.0000 0.0000 0.0000 29.0443
#
#
#
# Elastic Compliance Matrix: (Units=1/GPa)
#
#
# Indices 1 2 3 4 5 6 
#
# 1 0.073152 -0.029488 -0.002157 -0.000003 0.000000 0.000000
# 2 -0.029488 0.020906 -0.002590 -0.000002 0.000000 0.000000
# 3 -0.002157 -0.002590 0.009336 0.000001 0.000000 0.000000
# 4 -0.000003 -0.000002 0.000001 -1.324126 -0.000006 0.000001
# 5 0.000000 0.000000 0.000000 -0.000006 0.016427 0.000000
# 6 0.000000 0.000000 0.000000 0.000001 0.000000 0.034430
#
#
# Mechanical properties :
#
#
# Convention : Reuss Voigt Hill
#
# Bulk Modulus (GPa) = 28.63319 60.13624 44.38471
# Shear Modulus (GPa) = -4.58816 28.91068 12.16126
#
# Velocity S-wave (km/s) = -1.50279 3.77232 2.44663
# Velocity P-wave (km/s) = 3.32906 6.96951 5.46154
#
# Compressibility (1/GPa) = 0.03492451
#
# Stress axis : x y z
#
# Youngs Moduli (GPa) = 13.67008 47.83222 107.11138
#
# Poissons Ratio (x) = 1.41048 0.23109
# Poissons Ratio (y) = 0.40310 0.27739
# Poissons Ratio (z) = 0.02949 0.12387
#
# Static dielectric constant tensor:
#      x y z
#    x 1.230260 0.000000 0.000000 
#    y 0.000000 1.772710 0.000000 
#    z 0.000000 0.000000 1.728530 
# 
# From -- ./inp_files/20422.got.cif
#   From: 2010.05.17/outbox.cif.g08.bks.cpg/sg43_11_cif.got.tgz:20422.got - 2010.06.03 19:21:55.
