data_PCOD9371548
_publ_section_title
;
Structure prediction by ZEFSAII (Michael W. Deem and Ramdas Pophale) SiO2 
 PCOD9371548
Probable space group: F D D 2
;
_chemical_formula_sum "Si O2"
_cell_formula_units_Z 80
_cell_length_a 12.391360
_cell_length_b 16.201874
_cell_length_c 19.612658
_cell_angle_alpha 90.000000
_cell_angle_beta 90.000000
_cell_angle_gamma 90.000000
_cell_volume 3937.501028
_symmetry_space_group_name_H-M "F D D 2"
_symmetry_group_IT_number 43
_symmetry_cell_setting 'orthorhombic'
loop_
_space_group_symop_operation_xyz
x,y,z
-x,-y,z
1/4-x,1/4+y,1/4+z
1/4+x,1/4-y,1/4+z
x,1/2+y,1/2+z
-x,1/2-y,1/2+z
1/4-x,3/4+y,3/4+z
1/4+x,3/4-y,3/4+z
1/2+x,y,1/2+z
1/2-x,-y,1/2+z
3/4-x,1/4+y,3/4+z
3/4+x,1/4-y,3/4+z
1/2+x,1/2+y,z
1/2-x,1/2-y,z
3/4-x,3/4+y,1/4+z
3/4+x,3/4-y,1/4+z
loop_
_atom_site_type_symbol
_atom_site_label
_atom_site_fract_x
_atom_site_fract_y
_atom_site_fract_z
Si Si1 0.589241 0.069321 0.422990
Si Si2 0.561913 0.365496 0.531757
Si Si3 0.226328 0.003405 0.515398
Si Si4 0.673174 0.183969 0.019788
Si Si5 0.491383 0.245527 0.424374
O O1 0.619619 0.076813 0.343177
O O2 0.693276 0.047103 0.467582
O O3 0.539599 0.157275 0.443070
O O4 0.500000 0.000000 0.433402
O O5 0.611574 0.455505 0.517675
O O6 0.436650 0.351903 0.554615
O O7 0.565232 0.314427 0.461309
O O8 0.225457 0.099207 0.494148
O O9 0.264001 0.004025 0.593843
O O10 0.750000 0.250000 0.058107
O O11 0.624151 0.238204 0.958398
#
# Coordination Sequence:
#
# PCOD9371548 Si02
#       5
#    16  16  16  16  16
#     4  11  24  42  68  98 130 180 223 275 336 396
#     4   9  24  41  66  95 133 174 220 270 334 405
#     4  11  23  42  68  96 133 173 225 273 332 404
#     4  10  22  42  64  96 132 169 217 275 334 394
#     4   9  24  41  63  96 132 173 220 272 332 395
#
# _framework density 20.317454999999999
#
# number of rings (size 3 to 8) (size 9 to 14) (size 15 to 20)
#    1.200    0.800    0.000    1.800    8.400    2.400 
#    0.000    0.000    0.000    0.000    0.000    0.000 
#    0.000    0.000    0.000    0.000    0.000    0.000 
#
# Total GULP energy -111363.684915 kJ/mol
# GULP energy per Si atom -5568.184246 kJ/mol
# Density = 2.027121 g / cm^3
# Si number density = 20.317455 Si / 1000 Ang^3
#
#
#
# Elastic Constant Matrix: (Units=GPa)
#
#
# Indices 1 2 3 4 5 6 
#
# 1 93.2265 49.4951 12.2702 0.0000 0.0000 0.0000
# 2 49.4951 119.7195 8.9949 0.0000 0.0000 0.0000
# 3 12.2702 8.9949 56.2138 0.0000 0.0000 0.0000
# 4 0.0000 0.0000 0.0000 11.7726 0.0000 0.0000
# 5 0.0000 0.0000 0.0000 0.0000 21.2549 0.0000
# 6 0.0000 0.0000 0.0000 0.0000 0.0000 39.0739
#
#
#
# Elastic Compliance Matrix: (Units=1/GPa)
#
#
# Indices 1 2 3 4 5 6 
#
# 1 0.013996 -0.005625 -0.002155 0.000000 0.000000 0.000000
# 2 -0.005625 0.010715 -0.000487 0.000000 0.000000 0.000000
# 3 -0.002155 -0.000487 0.018338 0.000000 0.000000 0.000000
# 4 0.000000 0.000000 0.000000 0.084943 0.000000 0.000000
# 5 0.000000 0.000000 0.000000 0.000000 0.047048 0.000000
# 6 0.000000 0.000000 0.000000 0.000000 0.000000 0.025593
#
#
# Mechanical properties :
#
#
# Convention : Reuss Voigt Hill
#
# Bulk Modulus (GPa) = 37.71334 45.63112 41.67223
# Shear Modulus (GPa) = 22.12353 27.64693 24.88523
#
# Velocity S-wave (km/s) = 3.30342 3.69283 3.50354
# Velocity P-wave (km/s) = 5.75781 6.37891 6.07630
#
# Compressibility (1/GPa) = 0.02651582
#
# Stress axis : x y z
#
# Youngs Moduli (GPa) = 71.44730 93.32928 54.53300
#
# Poissons Ratio (x) = 0.52493 0.11752
# Poissons Ratio (y) = 0.40186 0.02655
# Poissons Ratio (z) = 0.15397 0.04543
#
# Static dielectric constant tensor:
#      x y z
#    x 1.772480 0.000000 0.000000 
#    y 0.000000 1.733830 0.000000 
#    z 0.000000 0.000000 1.676150 
# 
# From -- ./inp_files/17512.got.cif
#   From: 2010.05.17/outbox.cif.g08.bks.cpg/sg43_9_cif.got.tgz:17512.got - 2010.06.03 19:21:55.
