data_PCOD9371960
_publ_section_title
;
Structure prediction by ZEFSAII (Michael W. Deem and Ramdas Pophale) SiO2 
 PCOD9371960
Probable space group: F D D 2
;
_chemical_formula_sum "Si O2"
_cell_formula_units_Z 104
_cell_length_a 19.104354
_cell_length_b 26.348240
_cell_length_c 8.854881
_cell_angle_alpha 90.000000
_cell_angle_beta 90.000000
_cell_angle_gamma 90.000000
_cell_volume 4457.246952
_symmetry_space_group_name_H-M "F D D 2"
_symmetry_group_IT_number 43
_symmetry_cell_setting 'orthorhombic'
loop_
_space_group_symop_operation_xyz
x,y,z
-x,-y,z
1/4-x,1/4+y,1/4+z
1/4+x,1/4-y,1/4+z
x,1/2+y,1/2+z
-x,1/2-y,1/2+z
1/4-x,3/4+y,3/4+z
1/4+x,3/4-y,3/4+z
1/2+x,y,1/2+z
1/2-x,-y,1/2+z
3/4-x,1/4+y,3/4+z
3/4+x,1/4-y,3/4+z
1/2+x,1/2+y,z
1/2-x,1/2-y,z
3/4-x,3/4+y,1/4+z
3/4+x,3/4-y,1/4+z
loop_
_atom_site_type_symbol
_atom_site_label
_atom_site_fract_x
_atom_site_fract_y
_atom_site_fract_z
Si Si1 0.260367 0.167845 0.627150
Si Si2 0.628501 0.296299 0.559221
Si Si3 0.000000 0.000000 0.632435
Si Si4 0.139379 0.391215 0.830980
Si Si5 0.730744 0.479986 0.456702
Si Si6 0.405041 0.403912 0.121851
Si Si7 0.483946 0.178362 0.519747
O O1 0.243320 0.202592 0.769465
O O2 0.190255 0.152428 0.541455
O O3 0.307783 0.122962 0.696974
O O4 0.309848 0.189679 0.498649
O O5 0.680314 0.255766 0.482942
O O6 0.632549 0.344453 0.447352
O O7 0.550646 0.280238 0.607356
O O8 0.656944 0.315540 0.717972
O O9 0.171882 0.440166 0.909816
O O10 0.747473 0.466202 0.629757
O O11 0.708351 0.536662 0.409889
O O12 0.327202 0.394871 0.189494
O O13 0.450791 0.354028 0.082867
#
# Coordination Sequence:
#
# PCOD9371960 Si02
#       7
#    16  16   8  16  16  16  16
#     4  11  25  42  71 100 143 181 240 297 365 431
#     4  10  23  46  70 102 139 190 241 293 364 438
#     4  10  26  42  70 100 140 188 236 302 356 440
#     4  11  22  44  70 100 139 189 232 292 364 435
#     4  11  25  44  74 106 141 189 247 296 359 439
#     4  11  25  48  69 107 143 192 239 306 374 435
#     4  11  27  46  77 103 149 190 248 301 370 443
#
# _framework density 23.332788000000001
#
# number of rings (size 3 to 8) (size 9 to 14) (size 15 to 20)
#    0.000    1.231    3.077    0.923    6.462    3.077 
#    2.769    0.000    0.000    0.000    0.000    0.000 
#    0.000    0.000    0.000    0.000    0.000    0.000 
#
# Total GULP energy -145264.181109 kJ/mol
# GULP energy per Si atom -5587.083889 kJ/mol
# Density = 2.327968 g / cm^3
# Si number density = 23.332788 Si / 1000 Ang^3
#
#
#
# Elastic Constant Matrix: (Units=GPa)
#
#
# Indices 1 2 3 4 5 6 
#
# 1 106.3946 30.4678 43.2134 0.0000 0.0000 0.0000
# 2 30.4678 60.2134 34.0098 0.0000 0.0000 0.0000
# 3 43.2134 34.0098 89.7840 0.0000 -0.0001 0.0000
# 4 0.0000 0.0000 0.0000 20.4344 0.0000 0.0000
# 5 0.0000 0.0000 -0.0001 0.0000 45.4019 0.0000
# 6 0.0000 0.0000 0.0000 0.0000 0.0000 28.7914
#
#
#
# Elastic Compliance Matrix: (Units=1/GPa)
#
#
# Indices 1 2 3 4 5 6 
#
# 1 0.012286 -0.003660 -0.004527 0.000000 0.000000 0.000000
# 2 -0.003660 0.022218 -0.006655 0.000000 0.000000 0.000000
# 3 -0.004527 -0.006655 0.015837 0.000000 0.000000 0.000000
# 4 0.000000 0.000000 0.000000 0.048937 0.000000 0.000000
# 5 0.000000 0.000000 0.000000 0.000000 0.022026 0.000000
# 6 0.000000 0.000000 0.000000 0.000000 0.000000 0.034733
#
#
# Mechanical properties :
#
#
# Convention : Reuss Voigt Hill
#
# Bulk Modulus (GPa) = 48.40575 52.41932 50.41253
# Shear Modulus (GPa) = 25.95987 28.83894 27.39941
#
# Velocity S-wave (km/s) = 3.33917 3.51947 3.43051
# Velocity P-wave (km/s) = 5.97140 6.24742 6.11097
#
# Compressibility (1/GPa) = 0.02065870
#
# Stress axis : x y z
#
# Youngs Moduli (GPa) = 81.39610 45.00837 63.14155
#
# Poissons Ratio (x) = 0.16471 0.28583
# Poissons Ratio (y) = 0.29788 0.42019
# Poissons Ratio (z) = 0.36847 0.29952
#
# Static dielectric constant tensor:
#      x y z
#    x 1.909320 0.000000 0.000000 
#    y 0.000000 1.890430 0.000000 
#    z 0.000000 0.000000 1.887900 
# 
# From -- ./inp_files/3359.got.cif
#   From: 2010.05.17/outbox.cif.g08.bks.cpg/sg43_2_cif.got.tgz:3359.got - 2010.06.03 19:21:55.
