data_PCOD9371020
_publ_section_title
;
Structure prediction by ZEFSAII (Michael W. Deem and Ramdas Pophale) SiO2 
 PCOD9371020
Probable space group: F D D 2
;
_chemical_formula_sum "Si O2"
_cell_formula_units_Z 80
_cell_length_a 7.856083
_cell_length_b 27.076714
_cell_length_c 13.678019
_cell_angle_alpha 90.000000
_cell_angle_beta 90.000000
_cell_angle_gamma 90.000000
_cell_volume 2909.545971
_symmetry_space_group_name_H-M "F D D 2"
_symmetry_group_IT_number 43
_symmetry_cell_setting 'orthorhombic'
loop_
_space_group_symop_operation_xyz
x,y,z
-x,-y,z
1/4-x,1/4+y,1/4+z
1/4+x,1/4-y,1/4+z
x,1/2+y,1/2+z
-x,1/2-y,1/2+z
1/4-x,3/4+y,3/4+z
1/4+x,3/4-y,3/4+z
1/2+x,y,1/2+z
1/2-x,-y,1/2+z
3/4-x,1/4+y,3/4+z
3/4+x,1/4-y,3/4+z
1/2+x,1/2+y,z
1/2-x,1/2-y,z
3/4-x,3/4+y,1/4+z
3/4+x,3/4-y,1/4+z
loop_
_atom_site_type_symbol
_atom_site_label
_atom_site_fract_x
_atom_site_fract_y
_atom_site_fract_z
Si Si1 0.162013 0.437480 0.605770
Si Si2 0.661030 0.969134 0.081624
Si Si3 0.400635 0.643317 0.534464
Si Si4 0.137668 0.459434 0.317339
Si Si5 0.724777 0.332660 0.041712
O O1 0.807931 0.509624 0.558189
O O2 0.006665 0.436633 0.681994
O O3 0.317863 0.421074 0.679940
O O4 0.155546 0.388893 0.539141
O O5 0.660442 0.966140 0.200069
O O6 0.500000 0.000000 0.048398
O O7 0.627870 0.915043 0.038586
O O8 0.227841 0.661767 0.581480
O O9 0.330048 0.587260 0.330563
O O10 0.333714 0.449851 0.347510
O O11 0.000000 0.500000 0.350540
#
# Coordination Sequence:
#
# PCOD9371020 Si02
#       5
#    16  16  16  16  16
#     4  10  21  42  70  96 141 188 233 299 366 434
#     4  11  18  40  70  93 131 182 233 281 360 434
#     4  10  21  36  70  98 131 179 235 289 353 432
#     4  11  22  39  65  98 133 179 230 294 360 432
#     4  10  22  40  65 101 136 179 237 296 355 441
#
# _framework density 27.495698999999998
#
# number of rings (size 3 to 8) (size 9 to 14) (size 15 to 20)
#    1.200    0.400    6.000    0.000    2.800    3.200 
#    0.000    0.000   35.200    0.000    0.000    0.000 
#    0.000    0.000    0.000    0.000    0.000    0.000 
#
# Total GULP energy -111444.189240 kJ/mol
# GULP energy per Si atom -5572.209462 kJ/mol
# Density = 2.743312 g / cm^3
# Si number density = 27.495699 Si / 1000 Ang^3
#
#
#
# Elastic Constant Matrix: (Units=GPa)
#
#
# Indices 1 2 3 4 5 6 
#
# 1 188.1239 68.4025 28.6729 0.0000 0.0000 0.0000
# 2 68.4025 178.9627 23.4445 0.0000 0.0000 0.0000
# 3 28.6729 23.4445 88.5152 0.0000 0.0000 0.0000
# 4 0.0000 0.0000 0.0000 25.3034 0.0000 0.0000
# 5 0.0000 0.0000 0.0000 0.0000 27.9439 0.0000
# 6 0.0000 0.0000 0.0000 0.0000 0.0000 41.2902
#
#
#
# Elastic Compliance Matrix: (Units=1/GPa)
#
#
# Indices 1 2 3 4 5 6 
#
# 1 0.006352 -0.002236 -0.001465 0.000000 0.000000 0.000000
# 2 -0.002236 0.006576 -0.001017 0.000000 0.000000 0.000000
# 3 -0.001465 -0.001017 0.012042 0.000000 0.000000 0.000000
# 4 0.000000 0.000000 0.000000 0.039520 0.000000 0.000000
# 5 0.000000 0.000000 0.000000 0.000000 0.035786 0.000000
# 6 0.000000 0.000000 0.000000 0.000000 0.000000 0.024219
#
#
# Mechanical properties :
#
#
# Convention : Reuss Voigt Hill
#
# Bulk Modulus (GPa) = 64.38339 77.40461 70.89400
# Shear Modulus (GPa) = 35.94303 41.24629 38.59466
#
# Velocity S-wave (km/s) = 3.61948 3.87731 3.75061
# Velocity P-wave (km/s) = 6.39798 6.94675 6.67801
#
# Compressibility (1/GPa) = 0.01553196
#
# Stress axis : x y z
#
# Youngs Moduli (GPa) = 157.43178 152.07705 83.04506
#
# Poissons Ratio (x) = 0.34002 0.12169
# Poissons Ratio (y) = 0.35199 0.08449
# Poissons Ratio (z) = 0.23070 0.15472
#
# Static dielectric constant tensor:
#      x y z
#    x 2.168970 0.000000 0.000000 
#    y 0.000000 2.445740 0.000000 
#    z 0.000000 0.000000 2.266230 
# 
# From -- ./inp_files/12764.got.cif
#   From: 2010.05.17/outbox.cif.g08.bks.cpg/sg43_7_cif.got.tgz:12764.got - 2010.06.03 19:21:55.
