data_PCOD9371993
_publ_section_title
;
Structure prediction by ZEFSAII (Michael W. Deem and Ramdas Pophale) SiO2 
 PCOD9371993
Probable space group: F D D 2
;
_chemical_formula_sum "Si O2"
_cell_formula_units_Z 64
_cell_length_a 16.269595
_cell_length_b 18.724440
_cell_length_c 7.140794
_cell_angle_alpha 90.000000
_cell_angle_beta 90.000000
_cell_angle_gamma 90.000000
_cell_volume 2175.364739
_symmetry_space_group_name_H-M "F D D 2"
_symmetry_group_IT_number 43
_symmetry_cell_setting 'orthorhombic'
loop_
_space_group_symop_operation_xyz
x,y,z
-x,-y,z
1/4-x,1/4+y,1/4+z
1/4+x,1/4-y,1/4+z
x,1/2+y,1/2+z
-x,1/2-y,1/2+z
1/4-x,3/4+y,3/4+z
1/4+x,3/4-y,3/4+z
1/2+x,y,1/2+z
1/2-x,-y,1/2+z
3/4-x,1/4+y,3/4+z
3/4+x,1/4-y,3/4+z
1/2+x,1/2+y,z
1/2-x,1/2-y,z
3/4-x,3/4+y,1/4+z
3/4+x,3/4-y,1/4+z
loop_
_atom_site_type_symbol
_atom_site_label
_atom_site_fract_x
_atom_site_fract_y
_atom_site_fract_z
Si Si1 0.594232 0.972950 0.176380
Si Si2 0.439583 0.157512 0.403245
Si Si3 0.528304 0.925080 0.782460
Si Si4 0.987687 0.805698 0.520346
O O1 0.614641 0.902371 0.298187
O O2 0.500000 0.000000 0.227024
O O3 0.583860 0.948488 0.960901
O O4 0.495010 0.830029 0.234283
O O5 0.294102 0.372797 0.352954
O O6 0.429674 0.241082 0.454777
O O7 0.417863 0.220802 0.967515
O O8 0.465752 0.875392 0.901113
O O9 0.500000 0.000000 0.702759
#
# Coordination Sequence:
#
# PCOD9371993 Si02
#       4
#    16  16  16  16
#     4  10  25  45  74 109 151 202 261 326 392 468
#     4  11  23  45  74 111 149 200 262 321 399 459
#     4  10  23  48  74 111 148 196 259 323 395 471
#     4  11  24  46  76 114 154 201 263 333 392 480
#
# _framework density 29.420354
#
# number of rings (size 3 to 8) (size 9 to 14) (size 15 to 20)
#    0.000    1.500    2.500    0.750    7.000    3.000 
#    9.000    0.000    0.000    0.000    0.000    0.000 
#    0.000    0.000    0.000    0.000    0.000    0.000 
#
# Total GULP energy -89364.110857 kJ/mol
# GULP energy per Si atom -5585.256929 kJ/mol
# Density = 2.935339 g / cm^3
# Si number density = 29.420354 Si / 1000 Ang^3
#
#
#
# Elastic Constant Matrix: (Units=GPa)
#
#
# Indices 1 2 3 4 5 6 
#
# 1 198.5471 31.6095 23.2956 0.0002 -0.0005 -0.0001
# 2 31.6095 191.0939 17.5876 0.0002 -0.0002 -0.0002
# 3 23.2956 17.5876 216.1229 0.0006 -0.0017 -0.0005
# 4 0.0002 0.0002 0.0006 64.9324 -0.0004 -0.0002
# 5 -0.0005 -0.0002 -0.0017 -0.0004 -99.1453 0.0006
# 6 -0.0001 -0.0002 -0.0005 -0.0002 0.0006 12.8964
#
#
#
# Elastic Compliance Matrix: (Units=1/GPa)
#
#
# Indices 1 2 3 4 5 6 
#
# 1 0.005225 -0.000819 -0.000497 0.000000 0.000000 0.000000
# 2 -0.000819 0.005401 -0.000351 0.000000 0.000000 0.000000
# 3 -0.000497 -0.000351 0.004709 0.000000 0.000000 0.000000
# 4 0.000000 0.000000 0.000000 0.015401 0.000000 0.000000
# 5 0.000000 0.000000 0.000000 0.000000 -0.010086 0.000000
# 6 0.000000 0.000000 0.000000 0.000000 0.000000 0.077541
#
#
# Mechanical properties :
#
#
# Convention : Reuss Voigt Hill
#
# Bulk Modulus (GPa) = 83.31870 83.41661 83.36766
# Shear Modulus (GPa) = 47.38242 31.28812 39.33527
#
# Velocity S-wave (km/s) = 4.01750 3.26465 3.66048
# Velocity P-wave (km/s) = 7.06413 6.52882 6.80174
#
# Compressibility (1/GPa) = 0.01200211
#
# Stress axis : x y z
#
# Youngs Moduli (GPa) = 191.38098 185.15885 212.35439
#
# Poissons Ratio (x) = 0.15157 0.10545
# Poissons Ratio (y) = 0.15667 0.07459
# Poissons Ratio (z) = 0.09504 0.06504
#
# Static dielectric constant tensor:
#      x y z
#    x 2.896980 0.000000 0.000000 
#    y 0.000000 2.264660 0.000000 
#    z 0.000000 0.000000 2.146410 
# 
# From -- ./inp_files/3103.got.cif
#   From: 2010.05.17/outbox.cif.g08.bks.cpg/sg43_2_cif.got.tgz:3103.got - 2010.06.03 19:21:55.
