data_PCOD9371204
_publ_section_title
;
Structure prediction by ZEFSAII (Michael W. Deem and Ramdas Pophale) SiO2 
 PCOD9371204
Probable space group: F D D 2
;
_chemical_formula_sum "Si O2"
_cell_formula_units_Z 80
_cell_length_a 15.475922
_cell_length_b 22.946673
_cell_length_c 9.535450
_cell_angle_alpha 90.000000
_cell_angle_beta 90.000000
_cell_angle_gamma 90.000000
_cell_volume 3386.237791
_symmetry_space_group_name_H-M "F D D 2"
_symmetry_group_IT_number 43
_symmetry_cell_setting 'orthorhombic'
loop_
_space_group_symop_operation_xyz
x,y,z
-x,-y,z
1/4-x,1/4+y,1/4+z
1/4+x,1/4-y,1/4+z
x,1/2+y,1/2+z
-x,1/2-y,1/2+z
1/4-x,3/4+y,3/4+z
1/4+x,3/4-y,3/4+z
1/2+x,y,1/2+z
1/2-x,-y,1/2+z
3/4-x,1/4+y,3/4+z
3/4+x,1/4-y,3/4+z
1/2+x,1/2+y,z
1/2-x,1/2-y,z
3/4-x,3/4+y,1/4+z
3/4+x,3/4-y,1/4+z
loop_
_atom_site_type_symbol
_atom_site_label
_atom_site_fract_x
_atom_site_fract_y
_atom_site_fract_z
Si Si1 0.718429 0.838250 0.426890
Si Si2 0.340978 0.308054 0.163426
Si Si3 0.059515 0.770031 0.847532
Si Si4 0.793633 0.632224 0.996387
Si Si5 0.265476 0.898738 0.208467
O O1 0.664177 0.894723 0.378936
O O2 0.788879 0.823373 0.308436
O O3 0.641742 0.790633 0.440296
O O4 0.757771 0.856339 0.574909
O O5 0.393586 0.250844 0.204036
O O6 0.268878 0.315689 0.045668
O O7 0.996011 0.823755 0.816690
O O8 0.010872 0.713740 0.909337
O O9 0.796664 0.623478 0.830084
O O10 0.891968 0.643900 0.032074
#
# Coordination Sequence:
#
# PCOD9371204 Si02
#       5
#    16  16  16  16  16
#     4  10  21  41  66  91 126 173 216 255 311 396
#     4  10  21  41  66  91 126 173 216 255 311 396
#     4  10  23  42  67  90 128 186 218 242 325 414
#     4  11  24  42  65  99 132 163 215 280 324 369
#     4  11  24  42  65  99 132 163 215 280 324 369
#
# _framework density 23.625039000000001
#
# number of rings (size 3 to 8) (size 9 to 14) (size 15 to 20)
#    0.000    1.600    0.000    5.400    0.000    9.600 
#    0.000    5.000    0.000    0.000    0.000    0.000 
#    0.000    0.000    0.000    0.000    0.000    0.000 
#
# Total GULP energy -111837.396019 kJ/mol
# GULP energy per Si atom -5591.869801 kJ/mol
# Density = 2.357127 g / cm^3
# Si number density = 23.625039 Si / 1000 Ang^3
#
#
#
# Elastic Constant Matrix: (Units=GPa)
#
#
# Indices 1 2 3 4 5 6 
#
# 1 116.6380 54.2118 12.5677 0.0000 0.0000 0.0000
# 2 54.2118 129.5445 39.7248 0.0000 0.0000 0.0000
# 3 12.5677 39.7248 99.9192 0.0000 0.0000 0.0000
# 4 0.0000 0.0000 0.0000 28.1849 0.0000 0.0000
# 5 0.0000 0.0000 0.0000 0.0000 36.8126 0.0000
# 6 0.0000 0.0000 0.0000 0.0000 0.0000 20.7436
#
#
#
# Elastic Compliance Matrix: (Units=1/GPa)
#
#
# Indices 1 2 3 4 5 6 
#
# 1 0.010665 -0.004614 0.000493 0.000000 0.000000 0.000000
# 2 -0.004614 0.010788 -0.003708 0.000000 0.000000 0.000000
# 3 0.000493 -0.003708 0.011420 0.000000 0.000000 0.000000
# 4 0.000000 0.000000 0.000000 0.035480 0.000000 0.000000
# 5 0.000000 0.000000 0.000000 0.000000 0.027165 0.000000
# 6 0.000000 0.000000 0.000000 0.000000 0.000000 0.048208
#
#
# Mechanical properties :
#
#
# Convention : Reuss Voigt Hill
#
# Bulk Modulus (GPa) = 58.09319 62.12335 60.10827
# Shear Modulus (GPa) = 30.28055 33.12138 31.70097
#
# Velocity S-wave (km/s) = 3.58399 3.74834 3.66708
# Velocity P-wave (km/s) = 6.46295 6.71461 6.58998
#
# Compressibility (1/GPa) = 0.01721372
#
# Stress axis : x y z
#
# Youngs Moduli (GPa) = 93.76391 92.69958 87.56245
#
# Poissons Ratio (x) = 0.42775 -0.04317
# Poissons Ratio (y) = 0.43266 0.32472
# Poissons Ratio (z) = -0.04623 0.34377
#
# Static dielectric constant tensor:
#      x y z
#    x 1.859610 0.000000 0.000000 
#    y 0.000000 1.937590 0.000000 
#    z 0.000000 0.000000 1.907810 
# 
# From -- ./inp_files/2789.got.cif
#   From: 2010.05.17/outbox.cif.g08.bks.cpg/sg43_2_cif.got.tgz:2789.got - 2010.06.03 19:21:55.
