data_PCOD9371317
_publ_section_title
;
Structure prediction by ZEFSAII (Michael W. Deem and Ramdas Pophale) SiO2 
 PCOD9371317
Probable space group: F D D 2
;
_chemical_formula_sum "Si O2"
_cell_formula_units_Z 80
_cell_length_a 5.596114
_cell_length_b 24.757206
_cell_length_c 23.657156
_cell_angle_alpha 90.000000
_cell_angle_beta 90.000000
_cell_angle_gamma 90.000000
_cell_volume 3277.560501
_symmetry_space_group_name_H-M "F D D 2"
_symmetry_group_IT_number 43
_symmetry_cell_setting 'orthorhombic'
loop_
_space_group_symop_operation_xyz
x,y,z
-x,-y,z
1/4-x,1/4+y,1/4+z
1/4+x,1/4-y,1/4+z
x,1/2+y,1/2+z
-x,1/2-y,1/2+z
1/4-x,3/4+y,3/4+z
1/4+x,3/4-y,3/4+z
1/2+x,y,1/2+z
1/2-x,-y,1/2+z
3/4-x,1/4+y,3/4+z
3/4+x,1/4-y,3/4+z
1/2+x,1/2+y,z
1/2-x,1/2-y,z
3/4-x,3/4+y,1/4+z
3/4+x,3/4-y,1/4+z
loop_
_atom_site_type_symbol
_atom_site_label
_atom_site_fract_x
_atom_site_fract_y
_atom_site_fract_z
Si Si1 0.758642 0.613668 0.482840
Si Si2 0.304134 0.193109 0.315952
Si Si3 0.009141 0.220329 0.011625
Si Si4 0.520704 0.413216 0.869699
Si Si5 0.350556 0.554876 0.451975
O O1 0.478079 0.611014 0.472629
O O2 0.814932 0.586341 0.542977
O O3 0.917245 0.666895 0.479510
O O4 0.837398 0.580108 0.428003
O O5 0.250000 0.250000 0.345500
O O6 0.452043 0.148736 0.350128
O O7 0.433836 0.205698 0.256601
O O8 0.250000 0.250000 0.987268
O O9 0.110731 0.198557 0.071211
O O10 0.750000 0.250000 0.018020
O O11 0.263028 0.432531 0.890930
O O12 0.500000 0.500000 0.448686
#
# Coordination Sequence:
#
# PCOD9371317 Si02
#       5
#    16  16  16  16  16
#     4  10  24  44  67 100 145 191 242 306 366 445
#     4  10  21  44  67  99 143 188 244 305 371 443
#     4  11  28  47  72 106 153 201 247 311 381 445
#     4  10  26  41  70 107 139 186 254 309 368 451
#     4  11  23  42  71 105 145 195 246 312 374 447
#
# _framework density 24.4084
#
# number of rings (size 3 to 8) (size 9 to 14) (size 15 to 20)
#    0.000    1.600    2.000    0.000   14.000    2.400 
#    0.000    1.000    0.000    0.000    0.000    0.000 
#    0.000    0.000    0.000    0.000    0.000    0.000 
#
# Total GULP energy -111468.397389 kJ/mol
# GULP energy per Si atom -5573.419869 kJ/mol
# Density = 2.435285 g / cm^3
# Si number density = 24.408400 Si / 1000 Ang^3
#
#
#
# Elastic Constant Matrix: (Units=GPa)
#
#
# Indices 1 2 3 4 5 6 
#
# 1 129.4044 66.4323 24.7467 0.0000 0.0000 0.0000
# 2 66.4323 115.9848 18.6501 0.0000 0.0000 0.0000
# 3 24.7467 18.6501 65.3622 0.0000 0.0000 0.0000
# 4 0.0000 0.0000 0.0000 18.6023 0.0000 0.0000
# 5 0.0000 0.0000 0.0000 0.0000 -40.2827 0.0000
# 6 0.0000 0.0000 0.0000 0.0000 0.0000 51.6788
#
#
#
# Elastic Compliance Matrix: (Units=1/GPa)
#
#
# Indices 1 2 3 4 5 6 
#
# 1 0.011340 -0.006084 -0.002557 0.000000 0.000000 0.000000
# 2 -0.006084 0.012301 -0.001206 0.000000 0.000000 0.000000
# 3 -0.002557 -0.001206 0.016612 0.000000 0.000000 0.000000
# 4 0.000000 0.000000 0.000000 0.053757 0.000000 0.000000
# 5 0.000000 0.000000 0.000000 0.000000 -0.024825 0.000000
# 6 0.000000 0.000000 0.000000 0.000000 0.000000 0.019350
#
#
# Mechanical properties :
#
#
# Convention : Reuss Voigt Hill
#
# Bulk Modulus (GPa) = 48.64551 58.93439 53.78995
# Shear Modulus (GPa) = 43.44694 19.39451 31.42072
#
# Velocity S-wave (km/s) = 4.22358 2.82189 3.59178
# Velocity P-wave (km/s) = 6.61498 5.90042 6.26789
#
# Compressibility (1/GPa) = 0.02055688
#
# Stress axis : x y z
#
# Youngs Moduli (GPa) = 88.18222 81.29730 60.19798
#
# Poissons Ratio (x) = 0.49462 0.15396
# Poissons Ratio (y) = 0.53650 0.07262
# Poissons Ratio (z) = 0.22553 0.09807
#
# Static dielectric constant tensor:
#      x y z
#    x 2.405760 0.000000 0.000000 
#    y 0.000000 2.071970 0.000000 
#    z 0.000000 0.000000 1.874390 
# 
# From -- ./inp_files/23550.got.cif
#   From: 2010.05.17/outbox.cif.g08.bks.cpg/sg43_12_cif.got.tgz:23550.got - 2010.06.03 19:21:55.
