data_PCOD9371616
_publ_section_title
;
Structure prediction by ZEFSAII (Michael W. Deem and Ramdas Pophale) SiO2 
 PCOD9371616
Probable space group: F D D 2
;
_chemical_formula_sum "Si O2"
_cell_formula_units_Z 96
_cell_length_a 11.219124
_cell_length_b 24.521216
_cell_length_c 13.934702
_cell_angle_alpha 90.000000
_cell_angle_beta 90.000000
_cell_angle_gamma 90.000000
_cell_volume 3833.527973
_symmetry_space_group_name_H-M "F D D 2"
_symmetry_group_IT_number 43
_symmetry_cell_setting 'orthorhombic'
loop_
_space_group_symop_operation_xyz
x,y,z
-x,-y,z
1/4-x,1/4+y,1/4+z
1/4+x,1/4-y,1/4+z
x,1/2+y,1/2+z
-x,1/2-y,1/2+z
1/4-x,3/4+y,3/4+z
1/4+x,3/4-y,3/4+z
1/2+x,y,1/2+z
1/2-x,-y,1/2+z
3/4-x,1/4+y,3/4+z
3/4+x,1/4-y,3/4+z
1/2+x,1/2+y,z
1/2-x,1/2-y,z
3/4-x,3/4+y,1/4+z
3/4+x,3/4-y,1/4+z
loop_
_atom_site_type_symbol
_atom_site_label
_atom_site_fract_x
_atom_site_fract_y
_atom_site_fract_z
Si Si1 0.633914 0.091038 0.697400
Si Si2 0.870407 0.818972 0.050639
Si Si3 0.125564 0.802610 0.477775
Si Si4 0.874720 0.594782 0.702012
Si Si5 0.131032 0.282153 0.747140
Si Si6 0.380576 0.755027 0.788016
O O1 0.629115 0.151028 0.651643
O O2 0.757234 0.087751 0.752257
O O3 0.504602 0.081108 0.746177
O O4 0.639231 0.045045 0.613980
O O5 0.872030 0.754490 0.033658
O O6 0.743685 0.836256 0.003969
O O7 0.133083 0.790996 0.363362
O O8 0.998625 0.828827 0.502281
O O9 0.870002 0.659568 0.696688
O O10 0.871607 0.560000 0.603569
O O11 0.250000 0.250000 0.720777
O O12 0.003442 0.253655 0.729226
O O13 0.250000 0.750000 0.740535
#
# Coordination Sequence:
#
# PCOD9371616 Si02
#       6
#    16  16  16  16  16  16
#     4  11  23  42  67  98 129 178 221 281 330 405
#     4  11  23  42  69  96 132 178 230 271 339 403
#     4  10  22  43  64  92 133 177 220 270 335 403
#     4  10  23  38  66  92 129 174 222 269 332 397
#     4  11  20  39  66  94 124 171 219 269 327 394
#     4   9  20  41  60  89 124 171 211 268 331 388
#
# _framework density 25.042207000000001
#
# number of rings (size 3 to 8) (size 9 to 14) (size 15 to 20)
#    0.000    1.667    5.000    0.000   11.667    0.000 
#    0.000    6.667    0.000    0.000    0.000    0.000 
#    0.000    0.000    0.000    0.000    0.000    0.000 
#
# Total GULP energy -134230.513977 kJ/mol
# GULP energy per Si atom -5592.938082 kJ/mol
# Density = 2.498521 g / cm^3
# Si number density = 25.042207 Si / 1000 Ang^3
#
#
#
# Elastic Constant Matrix: (Units=GPa)
#
#
# Indices 1 2 3 4 5 6 
#
# 1 335.8072 70.4876 39.4680 0.0000 0.0000 0.0000
# 2 70.4876 114.3799 22.7312 0.0000 0.0000 0.0000
# 3 39.4680 22.7312 78.6552 0.0000 0.0000 0.0000
# 4 0.0000 0.0000 0.0000 19.4947 0.0000 0.0000
# 5 0.0000 0.0000 0.0000 0.0000 22.5431 0.0000
# 6 0.0000 0.0000 0.0000 0.0000 0.0000 37.3415
#
#
#
# Elastic Compliance Matrix: (Units=1/GPa)
#
#
# Indices 1 2 3 4 5 6 
#
# 1 0.003526 -0.001932 -0.001211 0.000000 0.000000 0.000000
# 2 -0.001932 0.010334 -0.002017 0.000000 0.000000 0.000000
# 3 -0.001211 -0.002017 0.013904 0.000000 0.000000 0.000000
# 4 0.000000 0.000000 0.000000 0.051296 0.000000 0.000000
# 5 0.000000 0.000000 0.000000 0.000000 0.044360 0.000000
# 6 0.000000 0.000000 0.000000 0.000000 0.000000 0.026780
#
#
# Mechanical properties :
#
#
# Convention : Reuss Voigt Hill
#
# Bulk Modulus (GPa) = 57.32536 88.24621 72.78578
# Shear Modulus (GPa) = 30.05988 42.28622 36.17305
#
# Velocity S-wave (km/s) = 3.46839 4.11371 3.80476
# Velocity P-wave (km/s) = 6.24346 7.60783 6.95916
#
# Compressibility (1/GPa) = 0.01744429
#
# Stress axis : x y z
#
# Youngs Moduli (GPa) = 283.62550 96.76446 71.92066
#
# Poissons Ratio (x) = 0.18696 0.08708
# Poissons Ratio (y) = 0.54801 0.14507
# Poissons Ratio (z) = 0.34341 0.19518
#
# Static dielectric constant tensor:
#      x y z
#    x 2.006590 0.000000 0.000000 
#    y 0.000000 1.956660 0.000000 
#    z 0.000000 0.000000 2.013000 
# 
# From -- ./inp_files/13303.got.cif
#   From: 2010.05.17/outbox.cif.g08.bks.cpg/sg43_7_cif.got.tgz:13303.got - 2010.06.03 19:21:55.
