data_PCOD9371443
_publ_section_title
;
Structure prediction by ZEFSAII (Michael W. Deem and Ramdas Pophale) SiO2 
 PCOD9371443
Probable space group: F D D 2
;
_chemical_formula_sum "Si O2"
_cell_formula_units_Z 104
_cell_length_a 9.842823
_cell_length_b 18.475054
_cell_length_c 27.638126
_cell_angle_alpha 90.000000
_cell_angle_beta 90.000000
_cell_angle_gamma 90.000000
_cell_volume 5025.901632
_symmetry_space_group_name_H-M "F D D 2"
_symmetry_group_IT_number 43
_symmetry_cell_setting 'orthorhombic'
loop_
_space_group_symop_operation_xyz
x,y,z
-x,-y,z
1/4-x,1/4+y,1/4+z
1/4+x,1/4-y,1/4+z
x,1/2+y,1/2+z
-x,1/2-y,1/2+z
1/4-x,3/4+y,3/4+z
1/4+x,3/4-y,3/4+z
1/2+x,y,1/2+z
1/2-x,-y,1/2+z
3/4-x,1/4+y,3/4+z
3/4+x,1/4-y,3/4+z
1/2+x,1/2+y,z
1/2-x,1/2-y,z
3/4-x,3/4+y,1/4+z
3/4+x,3/4-y,1/4+z
loop_
_atom_site_type_symbol
_atom_site_label
_atom_site_fract_x
_atom_site_fract_y
_atom_site_fract_z
Si Si1 0.010639 0.867566 0.727580
Si Si2 0.205727 0.555449 0.968925
Si Si3 0.647566 0.370999 0.118843
Si Si4 0.279544 0.332250 0.274947
Si Si5 0.012721 0.152265 0.525340
Si Si6 0.750000 0.250000 0.044369
Si Si7 0.549038 0.579796 0.624262
O O1 0.148978 0.876076 0.757556
O O2 0.975881 0.781234 0.721744
O O3 0.886151 0.907902 0.753663
O O4 0.022008 0.898981 0.674071
O O5 0.172899 0.585549 0.915404
O O6 0.334200 0.595885 0.993863
O O7 0.079957 0.581248 0.001345
O O8 0.552473 0.415631 0.082560
O O9 0.692474 0.309325 0.081172
O O10 0.787290 0.413143 0.131551
O O11 0.250000 0.250000 0.261677
O O12 0.121298 0.216438 0.516192
O O13 0.009609 0.136232 0.582373
O O14 0.500000 0.500000 0.609925
#
# Coordination Sequence:
#
# PCOD9371443 Si02
#       7
#    16  16  16  16  16   8  16
#     4  11  24  41  67  96 132 176 219 280 332 394
#     4  11  20  42  68  92 125 183 225 259 337 403
#     4  11  22  42  66  94 130 177 216 278 330 399
#     4  10  24  43  61  95 135 170 223 274 329 401
#     4  11  22  39  69  93 126 175 221 272 330 393
#     4  10  22  40  64 100 128 158 234 282 314 404
#     4  11  23  39  63 103 129 161 228 277 325 398
#
# _framework density 20.692803999999999
#
# number of rings (size 3 to 8) (size 9 to 14) (size 15 to 20)
#    0.000    1.231    4.615    3.231    2.154    2.462 
#    1.385    1.538    0.000    0.000    0.000    0.000 
#    0.000    0.000    0.000    0.000    0.000    0.000 
#
# Total GULP energy -145098.407211 kJ/mol
# GULP energy per Si atom -5580.707970 kJ/mol
# Density = 2.064571 g / cm^3
# Si number density = 20.692804 Si / 1000 Ang^3
#
#
#
# Elastic Constant Matrix: (Units=GPa)
#
#
# Indices 1 2 3 4 5 6 
#
# 1 91.6840 16.9430 23.9019 0.0000 0.0000 0.0000
# 2 16.9430 49.5675 -9.2069 0.0000 0.0000 0.0000
# 3 23.9019 -9.2069 85.5776 0.0000 0.0000 0.0000
# 4 0.0000 0.0000 0.0000 16.3591 0.0000 0.0000
# 5 0.0000 0.0000 0.0000 0.0000 34.6814 0.0000
# 6 0.0000 0.0000 0.0000 0.0000 0.0000 26.1493
#
#
#
# Elastic Compliance Matrix: (Units=1/GPa)
#
#
# Indices 1 2 3 4 5 6 
#
# 1 0.012959 -0.005206 -0.004179 0.000000 0.000000 0.000000
# 2 -0.005206 0.022677 0.003894 0.000000 0.000000 0.000000
# 3 -0.004179 0.003894 0.013272 0.000000 0.000000 0.000000
# 4 0.000000 0.000000 0.000000 0.061128 0.000000 0.000000
# 5 0.000000 0.000000 0.000000 0.000000 0.028834 0.000000
# 6 0.000000 0.000000 0.000000 0.000000 0.000000 0.038242
#
#
# Mechanical properties :
#
#
# Convention : Reuss Voigt Hill
#
# Bulk Modulus (GPa) = 26.36831 32.23390 29.30111
# Shear Modulus (GPa) = 24.90838 28.45070 26.67954
#
# Velocity S-wave (km/s) = 3.47323 3.71200 3.59460
# Velocity P-wave (km/s) = 5.37167 5.82950 5.60526
#
# Compressibility (1/GPa) = 0.03792431
#
# Stress axis : x y z
#
# Youngs Moduli (GPa) = 77.16871 44.09725 75.34935
#
# Poissons Ratio (x) = 0.22956 0.31492
# Poissons Ratio (y) = 0.40172 -0.29339
# Poissons Ratio (z) = 0.32252 -0.17170
#
# Static dielectric constant tensor:
#      x y z
#    x 1.854520 0.000000 0.000000 
#    y 0.000000 1.866730 0.000000 
#    z 0.000000 0.000000 1.710750 
# 
# From -- ./inp_files/24310.got.cif
#   From: 2010.05.17/outbox.cif.g08.bks.cpg/sg43_13_cif.got.tgz:24310.got - 2010.06.03 19:21:55.
