data_PCOD9371851
_publ_section_title
;
Structure prediction by ZEFSAII (Michael W. Deem and Ramdas Pophale) SiO2 
 PCOD9371851
Probable space group: F D D 2
;
_chemical_formula_sum "Si O2"
_cell_formula_units_Z 112
_cell_length_a 15.153839
_cell_length_b 27.848619
_cell_length_c 11.909732
_cell_angle_alpha 90.000000
_cell_angle_beta 90.000000
_cell_angle_gamma 90.000000
_cell_volume 5026.067551
_symmetry_space_group_name_H-M "F D D 2"
_symmetry_group_IT_number 43
_symmetry_cell_setting 'orthorhombic'
loop_
_space_group_symop_operation_xyz
x,y,z
-x,-y,z
1/4-x,1/4+y,1/4+z
1/4+x,1/4-y,1/4+z
x,1/2+y,1/2+z
-x,1/2-y,1/2+z
1/4-x,3/4+y,3/4+z
1/4+x,3/4-y,3/4+z
1/2+x,y,1/2+z
1/2-x,-y,1/2+z
3/4-x,1/4+y,3/4+z
3/4+x,1/4-y,3/4+z
1/2+x,1/2+y,z
1/2-x,1/2-y,z
3/4-x,3/4+y,1/4+z
3/4+x,3/4-y,1/4+z
loop_
_atom_site_type_symbol
_atom_site_label
_atom_site_fract_x
_atom_site_fract_y
_atom_site_fract_z
Si Si1 0.460953 0.803321 0.973250
Si Si2 0.567234 0.643931 0.263045
Si Si3 0.005295 0.115541 0.020536
Si Si4 0.191672 0.590809 0.424415
Si Si5 0.249236 0.454764 0.136905
Si Si6 0.455271 0.551291 0.623859
Si Si7 0.971290 0.554545 0.853200
O O1 0.485112 0.822895 0.849683
O O2 0.455037 0.747009 0.952497
O O3 0.539918 0.821352 0.051337
O O4 0.369723 0.817908 0.037098
O O5 0.534770 0.641223 0.135632
O O6 0.666245 0.664439 0.284065
O O7 0.547197 0.591108 0.313246
O O8 0.090204 0.092381 0.963621
O O9 0.967470 0.154711 0.934986
O O10 0.237206 0.551803 0.505093
O O11 0.228603 0.646157 0.427468
O O12 0.145762 0.456215 0.158500
O O13 0.500000 0.500000 0.651565
O O14 0.460862 0.558218 0.488361
O O15 0.000000 0.500000 0.827816
#
# Coordination Sequence:
#
# PCOD9371851 Si02
#       7
#    16  16  16  16  16  16  16
#     4  12  26  42  73 102 143 192 245 290 360 437
#     4  12  24  44  71 104 137 190 237 293 354 432
#     4  11  25  46  69  99 140 188 234 294 360 416
#     4  11  24  47  71 101 146 189 234 299 365 421
#     4  11  25  44  69  99 142 190 236 296 359 427
#     4  10  23  42  71 102 136 185 239 300 353 426
#     4  11  23  41  68 105 142 177 237 297 361 423
#
# _framework density 22.283822000000001
#
# number of rings (size 3 to 8) (size 9 to 14) (size 15 to 20)
#    0.000    0.857    5.714    0.857    2.000    5.714 
#    0.000    0.000    0.000    0.857    0.000    0.000 
#    0.000    0.000    0.000    0.000    0.000    0.000 
#
# Total GULP energy -156159.004927 kJ/mol
# GULP energy per Si atom -5577.107319 kJ/mol
# Density = 2.223310 g / cm^3
# Si number density = 22.283822 Si / 1000 Ang^3
#
#
#
# Elastic Constant Matrix: (Units=GPa)
#
#
# Indices 1 2 3 4 5 6 
#
# 1 53.9117 -7.6988 18.3293 0.0000 0.0000 0.0000
# 2 -7.6988 49.2428 -22.9472 0.0000 0.0000 0.0000
# 3 18.3293 -22.9472 78.0795 0.0000 0.0000 0.0000
# 4 0.0000 0.0000 0.0000 21.7898 0.0000 0.0000
# 5 0.0000 0.0000 0.0000 0.0000 27.2157 0.0000
# 6 0.0000 0.0000 0.0000 0.0000 0.0000 24.5707
#
#
#
# Elastic Compliance Matrix: (Units=1/GPa)
#
#
# Indices 1 2 3 4 5 6 
#
# 1 0.020209 0.001099 -0.004421 0.000000 0.000000 0.000000
# 2 0.001099 0.023590 0.006675 0.000000 0.000000 0.000000
# 3 -0.004421 0.006675 0.015807 0.000000 0.000000 0.000000
# 4 0.000000 0.000000 0.000000 0.045893 0.000000 0.000000
# 5 0.000000 0.000000 0.000000 0.000000 0.036744 0.000000
# 6 0.000000 0.000000 0.000000 0.000000 0.000000 0.040699
#
#
# Mechanical properties :
#
#
# Convention : Reuss Voigt Hill
#
# Bulk Modulus (GPa) = 15.08015 17.40008 16.24011
# Shear Modulus (GPa) = 25.20938 27.61862 26.41400
#
# Velocity S-wave (km/s) = 3.36711 3.52433 3.44662
# Velocity P-wave (km/s) = 4.67959 4.93828 4.81067
#
# Compressibility (1/GPa) = 0.06631234
#
# Stress axis : x y z
#
# Youngs Moduli (GPa) = 49.48312 42.39099 63.26306
#
# Poissons Ratio (x) = -0.04660 0.27969
# Poissons Ratio (y) = -0.05440 -0.42227
# Poissons Ratio (z) = 0.21876 -0.28296
#
# Static dielectric constant tensor:
#      x y z
#    x 1.954060 0.000000 0.000000 
#    y 0.000000 1.910480 0.000000 
#    z 0.000000 0.000000 1.899370 
# 
# From -- ./inp_files/6343.got.cif
#   From: 2010.05.17/outbox.cif.g08.bks.cpg/sg43_4_cif.got.tgz:6343.got - 2010.06.03 19:21:55.
