data_PCOD9371378
_publ_section_title
;
Structure prediction by ZEFSAII (Michael W. Deem and Ramdas Pophale) SiO2 
 PCOD9371378
Probable space group: F D D 2
;
_chemical_formula_sum "Si O2"
_cell_formula_units_Z 88
_cell_length_a 27.150132
_cell_length_b 5.964743
_cell_length_c 25.537536
_cell_angle_alpha 90.000000
_cell_angle_beta 90.000000
_cell_angle_gamma 90.000000
_cell_volume 4135.639488
_symmetry_space_group_name_H-M "F D D 2"
_symmetry_group_IT_number 43
_symmetry_cell_setting 'orthorhombic'
loop_
_space_group_symop_operation_xyz
x,y,z
-x,-y,z
1/4-x,1/4+y,1/4+z
1/4+x,1/4-y,1/4+z
x,1/2+y,1/2+z
-x,1/2-y,1/2+z
1/4-x,3/4+y,3/4+z
1/4+x,3/4-y,3/4+z
1/2+x,y,1/2+z
1/2-x,-y,1/2+z
3/4-x,1/4+y,3/4+z
3/4+x,1/4-y,3/4+z
1/2+x,1/2+y,z
1/2-x,1/2-y,z
3/4-x,3/4+y,1/4+z
3/4+x,3/4-y,1/4+z
loop_
_atom_site_type_symbol
_atom_site_label
_atom_site_fract_x
_atom_site_fract_y
_atom_site_fract_z
Si Si1 0.713838 0.923327 0.335880
Si Si2 0.553741 0.401791 0.837044
Si Si3 0.114792 0.017127 0.613342
Si Si4 0.870256 0.857196 0.276477
Si Si5 0.500000 0.500000 0.504629
Si Si6 0.912760 0.380022 0.932634
O O1 0.750000 0.750000 0.365126
O O2 0.671084 0.799083 0.303182
O O3 0.684682 0.118376 0.366457
O O4 0.748439 0.038130 0.292562
O O5 0.500000 0.500000 0.827647
O O6 0.589346 0.599666 0.857367
O O7 0.579288 0.275514 0.788168
O O8 0.556859 0.221925 0.884113
O O9 0.116793 0.165171 0.560504
O O10 0.123542 0.194765 0.659683
O O11 0.860795 0.930478 0.217074
O O12 0.451766 0.502146 0.469557
#
# Coordination Sequence:
#
# PCOD9371378 Si02
#       6
#    16  16  16  16   8  16
#     4  11  20  36  60  95 130 174 213 267 340 395
#     4  10  23  39  62  98 132 168 227 278 331 394
#     4  10  22  39  58  95 131 170 211 281 330 390
#     4  10  22  38  59  97 128 177 209 271 336 392
#     4  12  22  34  68  98 134 158 214 278 340 394
#     4  11  22  35  61 100 129 171 224 273 333 399
#
# _framework density 21.278448999999998
#
# number of rings (size 3 to 8) (size 9 to 14) (size 15 to 20)
#    0.000    1.455    3.636    1.091    5.091    2.182 
#    0.000    0.000    0.000    0.000  137.091    0.000 
#    0.000    0.000    0.000    0.000    0.000    0.000 
#
# Total GULP energy -122881.936167 kJ/mol
# GULP energy per Si atom -5585.542553 kJ/mol
# Density = 2.123002 g / cm^3
# Si number density = 21.278449 Si / 1000 Ang^3
#
#
#
# Elastic Constant Matrix: (Units=GPa)
#
#
# Indices 1 2 3 4 5 6 
#
# 1 129.9629 48.3219 40.2003 0.0004 -0.0005 -0.0016
# 2 48.3219 87.0974 16.9717 -0.0004 -0.0015 -0.0044
# 3 40.2003 16.9717 51.1746 -0.0002 -0.0002 -0.0003
# 4 0.0004 -0.0004 -0.0002 19.7720 -0.0003 0.0003
# 5 -0.0005 -0.0015 -0.0002 -0.0003 20.6209 0.0006
# 6 -0.0016 -0.0044 -0.0003 0.0003 0.0006 51.0750
#
#
#
# Elastic Compliance Matrix: (Units=1/GPa)
#
#
# Indices 1 2 3 4 5 6 
#
# 1 0.011997 -0.005152 -0.007715 0.000000 0.000000 0.000000
# 2 -0.005152 0.014488 -0.000757 0.000000 0.000001 0.000001
# 3 -0.007715 -0.000757 0.025853 0.000000 0.000000 0.000000
# 4 0.000000 0.000000 0.000000 0.050577 0.000001 0.000000
# 5 0.000000 0.000001 0.000000 0.000001 0.048495 -0.000001
# 6 0.000000 0.000001 0.000000 0.000000 -0.000001 0.019579
#
#
# Mechanical properties :
#
#
# Convention : Reuss Voigt Hill
#
# Bulk Modulus (GPa) = 39.86082 53.24694 46.55388
# Shear Modulus (GPa) = 24.20140 29.14297 26.67218
#
# Velocity S-wave (km/s) = 3.37615 3.70483 3.54430
# Velocity P-wave (km/s) = 5.82850 6.58629 6.21895
#
# Compressibility (1/GPa) = 0.02508729
#
# Stress axis : x y z
#
# Youngs Moduli (GPa) = 83.35592 69.02485 38.68049
#
# Poissons Ratio (x) = 0.35565 0.29843
# Poissons Ratio (y) = 0.42949 0.02929
# Poissons Ratio (z) = 0.64312 0.05226
#
# Static dielectric constant tensor:
#      x y z
#    x 1.788660 0.000000 0.000000 
#    y 0.000000 1.831940 0.000000 
#    z 0.000000 0.000000 1.765900 
# 
# From -- ./inp_files/19549.got.cif
#   From: 2010.05.17/outbox.cif.g08.bks.cpg/sg43_10_cif.got.tgz:19549.got - 2010.06.03 19:21:55.
