data_PCOD9371913
_publ_section_title
;
Structure prediction by ZEFSAII (Michael W. Deem and Ramdas Pophale) SiO2 
 PCOD9371913
Probable space group: F D D 2
;
_chemical_formula_sum "Si O2"
_cell_formula_units_Z 104
_cell_length_a 15.683582
_cell_length_b 26.010981
_cell_length_c 11.072330
_cell_angle_alpha 90.000000
_cell_angle_beta 90.000000
_cell_angle_gamma 90.000000
_cell_volume 4516.905575
_symmetry_space_group_name_H-M "F D D 2"
_symmetry_group_IT_number 43
_symmetry_cell_setting 'orthorhombic'
loop_
_space_group_symop_operation_xyz
x,y,z
-x,-y,z
1/4-x,1/4+y,1/4+z
1/4+x,1/4-y,1/4+z
x,1/2+y,1/2+z
-x,1/2-y,1/2+z
1/4-x,3/4+y,3/4+z
1/4+x,3/4-y,3/4+z
1/2+x,y,1/2+z
1/2-x,-y,1/2+z
3/4-x,1/4+y,3/4+z
3/4+x,1/4-y,3/4+z
1/2+x,1/2+y,z
1/2-x,1/2-y,z
3/4-x,3/4+y,1/4+z
3/4+x,3/4-y,1/4+z
loop_
_atom_site_type_symbol
_atom_site_label
_atom_site_fract_x
_atom_site_fract_y
_atom_site_fract_z
Si Si1 0.500000 0.000000 0.092710
Si Si2 0.861720 0.919615 0.254538
Si Si3 0.825267 0.148095 0.416259
Si Si4 0.597114 0.692564 0.831837
Si Si5 0.267854 0.614631 0.171979
Si Si6 0.416200 0.820273 0.602017
Si Si7 0.175064 0.493042 0.578978
O O1 0.448156 0.957542 0.168800
O O2 0.571875 0.968978 0.018416
O O3 0.930926 0.910577 0.358954
O O4 0.767745 0.922866 0.317946
O O5 0.876845 0.869808 0.168728
O O6 0.875330 0.968170 0.166093
O O7 0.820325 0.112973 0.533584
O O8 0.766478 0.122379 0.314735
O O9 0.922851 0.141941 0.372981
O O10 0.517234 0.729962 0.820518
O O11 0.623477 0.687472 0.971074
O O12 0.316216 0.561739 0.144035
O O13 0.400770 0.772399 0.692312
#
# Coordination Sequence:
#
# PCOD9371913 Si02
#       7
#     8  16  16  16  16  16  16
#     4  12  26  44  68 108 140 196 242 312 366 458
#     4  10  23  44  72 101 144 188 244 306 373 447
#     4  12  26  44  72 105 149 189 254 304 386 446
#     4  11  26  42  71 106 143 191 246 305 377 458
#     4  11  23  45  69 106 141 190 242 315 367 462
#     4  10  24  45  69 104 142 193 247 304 375 457
#     4  10  23  44  72  98 140 189 236 306 377 444
#
# _framework density 23.024612000000001
#
# number of rings (size 3 to 8) (size 9 to 14) (size 15 to 20)
#    0.000    1.231    3.077    1.846    8.615    1.231 
#    0.000    5.385    0.000    0.000    0.000    0.000 
#    0.000    0.000    0.000    0.000    0.000    0.000 
#
# Total GULP energy -145236.618324 kJ/mol
# GULP energy per Si atom -5586.023782 kJ/mol
# Density = 2.297221 g / cm^3
# Si number density = 23.024612 Si / 1000 Ang^3
#
#
#
# Elastic Constant Matrix: (Units=GPa)
#
#
# Indices 1 2 3 4 5 6 
#
# 1 74.8776 21.7426 11.5885 0.0000 0.0000 0.0000
# 2 21.7426 125.2059 40.3687 0.0000 0.0000 0.0000
# 3 11.5885 40.3687 83.7480 0.0000 0.0000 0.0000
# 4 0.0000 0.0000 0.0000 49.2424 0.0000 0.0000
# 5 0.0000 0.0000 0.0000 0.0000 23.4751 0.0000
# 6 0.0000 0.0000 0.0000 0.0000 0.0000 38.9450
#
#
#
# Elastic Compliance Matrix: (Units=1/GPa)
#
#
# Indices 1 2 3 4 5 6 
#
# 1 0.014123 -0.002158 -0.000914 0.000000 0.000000 0.000000
# 2 -0.002158 0.009786 -0.004419 0.000000 0.000000 0.000000
# 3 -0.000914 -0.004419 0.014197 0.000000 0.000000 0.000000
# 4 0.000000 0.000000 0.000000 0.020308 0.000000 0.000000
# 5 0.000000 0.000000 0.000000 0.000000 0.042598 0.000000
# 6 0.000000 0.000000 0.000000 0.000000 0.000000 0.025677
#
#
# Mechanical properties :
#
#
# Convention : Reuss Voigt Hill
#
# Bulk Modulus (GPa) = 43.24293 47.91458 45.57876
# Shear Modulus (GPa) = 33.47186 36.34129 34.90657
#
# Velocity S-wave (km/s) = 3.81693 3.97718 3.89788
# Velocity P-wave (km/s) = 6.18444 6.47657 6.33219
#
# Compressibility (1/GPa) = 0.02312517
#
# Stress axis : x y z
#
# Youngs Moduli (GPa) = 70.80559 102.18468 70.43759
#
# Poissons Ratio (x) = 0.22050 0.06439
# Poissons Ratio (y) = 0.15279 0.31124
# Poissons Ratio (z) = 0.06473 0.45151
#
# Static dielectric constant tensor:
#      x y z
#    x 1.982520 0.000000 0.000000 
#    y 0.000000 1.855320 0.000000 
#    z 0.000000 0.000000 1.900990 
# 
# From -- ./inp_files/6778.got.cif
#   From: 2010.05.17/outbox.cif.g08.bks.cpg/sg43_4_cif.got.tgz:6778.got - 2010.06.03 19:21:55.
