data_PCOD9371016
_publ_section_title
;
Structure prediction by ZEFSAII (Michael W. Deem and Ramdas Pophale) SiO2 
 PCOD9371016
Probable space group: F D D 2
;
_chemical_formula_sum "Si O2"
_cell_formula_units_Z 112
_cell_length_a 26.748365
_cell_length_b 29.365146
_cell_length_c 6.845426
_cell_angle_alpha 90.000000
_cell_angle_beta 90.000000
_cell_angle_gamma 90.000000
_cell_volume 5376.874320
_symmetry_space_group_name_H-M "F D D 2"
_symmetry_group_IT_number 43
_symmetry_cell_setting 'orthorhombic'
loop_
_space_group_symop_operation_xyz
x,y,z
-x,-y,z
1/4-x,1/4+y,1/4+z
1/4+x,1/4-y,1/4+z
x,1/2+y,1/2+z
-x,1/2-y,1/2+z
1/4-x,3/4+y,3/4+z
1/4+x,3/4-y,3/4+z
1/2+x,y,1/2+z
1/2-x,-y,1/2+z
3/4-x,1/4+y,3/4+z
3/4+x,1/4-y,3/4+z
1/2+x,1/2+y,z
1/2-x,1/2-y,z
3/4-x,3/4+y,1/4+z
3/4+x,3/4-y,1/4+z
loop_
_atom_site_type_symbol
_atom_site_label
_atom_site_fract_x
_atom_site_fract_y
_atom_site_fract_z
Si Si1 0.129354 0.750031 0.312380
Si Si2 0.674928 0.944668 0.367805
Si Si3 0.720473 0.178836 0.295378
Si Si4 0.872085 0.980208 0.120465
Si Si5 0.413909 0.628579 0.844068
Si Si6 0.499042 0.883166 0.641234
Si Si7 0.304479 0.201492 0.102961
O O1 0.084224 0.722869 0.417096
O O2 0.175125 0.714497 0.278686
O O3 0.148979 0.790066 0.455291
O O4 0.119324 0.768571 0.100827
O O5 0.631057 0.907031 0.365160
O O6 0.724932 0.916808 0.409040
O O7 0.663178 0.981243 0.533856
O O8 0.697178 0.135767 0.408523
O O9 0.759468 0.201371 0.446980
O O10 0.744578 0.161633 0.092241
O O11 0.855688 0.929318 0.066933
O O12 0.927330 0.987614 0.020559
O O13 0.448042 0.622375 0.035061
O O14 0.462498 0.909632 0.489556
#
# Coordination Sequence:
#
# PCOD9371016 Si02
#       7
#    16  16  16  16  16  16  16
#     4  10  22  39  63  97 128 169 211 271 330 385
#     4  10  23  43  62  93 130 165 222 270 324 401
#     4  10  22  39  63  97 128 169 211 271 330 385
#     4  11  22  42  65  93 127 177 215 270 331 390
#     4  10  23  43  62  93 130 165 222 270 324 401
#     4  11  22  42  65  93 127 177 215 270 331 390
#     4  10  21  36  62  92 130 155 214 268 316 387
#
# _framework density 20.829944999999999
#
# number of rings (size 3 to 8) (size 9 to 14) (size 15 to 20)
#    0.000    1.714    1.429    2.143    0.000    8.000 
#    5.143    0.000    0.000    0.000    0.000    0.000 
#    0.000    0.000    0.000    0.000    0.000    0.000 
#
# Total GULP energy -156001.088392 kJ/mol
# GULP energy per Si atom -5571.467443 kJ/mol
# Density = 2.078253 g / cm^3
# Si number density = 20.829945 Si / 1000 Ang^3
#
#
#
# Elastic Constant Matrix: (Units=GPa)
#
#
# Indices 1 2 3 4 5 6 
#
# 1 33.9857 10.8945 29.3184 0.0066 -0.0114 -0.0481
# 2 10.8945 92.2237 63.8241 0.0310 -0.0077 -0.0601
# 3 29.3184 63.8241 152.6600 0.0246 -0.0404 -0.0459
# 4 0.0066 0.0310 0.0246 17.0984 -0.0044 -0.0205
# 5 -0.0114 -0.0077 -0.0404 -0.0044 5.3140 0.0158
# 6 -0.0481 -0.0601 -0.0459 -0.0205 0.0158 26.5737
#
#
#
# Elastic Compliance Matrix: (Units=1/GPa)
#
#
# Indices 1 2 3 4 5 6 
#
# 1 0.035302 0.000734 -0.007087 -0.000005 0.000023 0.000053
# 2 0.000734 0.015273 -0.006526 -0.000019 -0.000026 0.000025
# 3 -0.007087 -0.006526 0.010640 -0.000001 0.000056 -0.000009
# 4 -0.000005 -0.000019 -0.000001 0.058485 0.000049 0.000045
# 5 0.000023 -0.000026 0.000056 0.000049 0.188181 -0.000112
# 6 0.000053 0.000025 -0.000009 0.000045 -0.000112 0.037631
#
#
# Mechanical properties :
#
#
# Convention : Reuss Voigt Hill
#
# Bulk Modulus (GPa) = 28.20260 54.10481 41.15371
# Shear Modulus (GPa) = 13.05174 21.45272 17.25223
#
# Velocity S-wave (km/s) = 2.50588 3.21268 2.88104
# Velocity P-wave (km/s) = 4.68417 6.30815 5.55582
#
# Compressibility (1/GPa) = 0.03545772
#
# Stress axis : x y z
#
# Youngs Moduli (GPa) = 28.32664 65.47444 93.98414
#
# Poissons Ratio (x) = -0.04807 0.66604
# Poissons Ratio (y) = -0.02080 0.61338
# Poissons Ratio (z) = 0.20074 0.42731
#
# Static dielectric constant tensor:
#      x y z
#    x 1.811620 0.000020 0.000000 
#    y 0.000020 1.756710 -0.000010 
#    z 0.000000 -0.000010 1.757510 
# 
# From -- ./inp_files/1496.got.cif
#   From: 2010.05.17/outbox.cif.g08.bks.cpg/sg43_1_cif.got.tgz:1496.got - 2010.06.03 19:21:55.
