data_PCOD9371431
_publ_section_title
;
Structure prediction by ZEFSAII (Michael W. Deem and Ramdas Pophale) SiO2 
 PCOD9371431
Probable space group: F D D 2
;
_chemical_formula_sum "Si O2"
_cell_formula_units_Z 112
_cell_length_a 14.189576
_cell_length_b 12.942699
_cell_length_c 27.926511
_cell_angle_alpha 90.000000
_cell_angle_beta 90.000000
_cell_angle_gamma 90.000000
_cell_volume 5128.743152
_symmetry_space_group_name_H-M "F D D 2"
_symmetry_group_IT_number 43
_symmetry_cell_setting 'orthorhombic'
loop_
_space_group_symop_operation_xyz
x,y,z
-x,-y,z
1/4-x,1/4+y,1/4+z
1/4+x,1/4-y,1/4+z
x,1/2+y,1/2+z
-x,1/2-y,1/2+z
1/4-x,3/4+y,3/4+z
1/4+x,3/4-y,3/4+z
1/2+x,y,1/2+z
1/2-x,-y,1/2+z
3/4-x,1/4+y,3/4+z
3/4+x,1/4-y,3/4+z
1/2+x,1/2+y,z
1/2-x,1/2-y,z
3/4-x,3/4+y,1/4+z
3/4+x,3/4-y,1/4+z
loop_
_atom_site_type_symbol
_atom_site_label
_atom_site_fract_x
_atom_site_fract_y
_atom_site_fract_z
Si Si1 0.871915 0.132440 0.953250
Si Si2 0.356287 0.721857 0.101231
Si Si3 0.158999 0.182662 0.102332
Si Si4 0.542119 0.602263 0.026550
Si Si5 0.910146 0.621905 0.698447
Si Si6 0.204057 0.485502 0.550773
Si Si7 0.084957 0.073416 0.544729
O O1 0.884059 0.058059 0.907686
O O2 0.858600 0.252000 0.938726
O O3 0.764381 0.113790 0.972571
O O4 0.967067 0.127692 0.985571
O O5 0.250000 0.750000 0.116238
O O6 0.339432 0.626277 0.064601
O O7 0.407498 0.683835 0.149029
O O8 0.400470 0.820544 0.074403
O O9 0.250000 0.250000 0.089643
O O10 0.184935 0.062598 0.095403
O O11 0.072970 0.190325 0.064010
O O12 0.500000 0.500000 0.052795
O O13 0.357058 0.448644 0.011231
O O14 0.832796 0.652347 0.737993
O O15 0.315806 0.485009 0.549057
O O16 0.000000 0.000000 0.559892
#
# Coordination Sequence:
#
# PCOD9371431 Si02
#       7
#    16  16  16  16  16  16  16
#     4  11  24  39  68 109 138 190 249 300 369 455
#     4  10  22  44  72  97 143 197 243 314 373 450
#     4  10  23  41  66 102 143 184 240 303 375 439
#     4  10  22  39  68  93 142 190 234 304 371 435
#     4  11  24  40  67 108 140 183 252 303 364 466
#     4   9  22  42  66  98 135 186 245 293 381 440
#     4  11  25  43  71 101 135 191 249 300 385 459
#
# _framework density 21.837710000000001
#
# number of rings (size 3 to 8) (size 9 to 14) (size 15 to 20)
#    0.857    0.857    1.429    1.714   12.000    2.286 
#    0.000    0.000    0.000    0.000    0.000    0.000 
#    0.000    0.000    0.000    0.000    0.000    0.000 
#
# Total GULP energy -155878.638074 kJ/mol
# GULP energy per Si atom -5567.094217 kJ/mol
# Density = 2.178801 g / cm^3
# Si number density = 21.837710 Si / 1000 Ang^3
#
#
#
# Elastic Constant Matrix: (Units=GPa)
#
#
# Indices 1 2 3 4 5 6 
#
# 1 164.9035 70.9057 69.1923 0.0000 0.0000 0.0000
# 2 70.9057 76.9018 27.3581 0.0000 0.0000 0.0000
# 3 69.1923 27.3581 109.0778 0.0000 0.0000 0.0000
# 4 0.0000 0.0000 0.0000 29.2520 0.0000 0.0000
# 5 0.0000 0.0000 0.0000 0.0000 34.8122 0.0000
# 6 0.0000 0.0000 0.0000 0.0000 0.0000 52.6882
#
#
#
# Elastic Compliance Matrix: (Units=1/GPa)
#
#
# Indices 1 2 3 4 5 6 
#
# 1 0.012489 -0.009549 -0.005527 0.000000 0.000000 0.000000
# 2 -0.009549 0.021579 0.000645 0.000000 0.000000 0.000000
# 3 -0.005527 0.000645 0.012512 0.000000 0.000000 0.000000
# 4 0.000000 0.000000 0.000000 0.034186 0.000000 0.000000
# 5 0.000000 0.000000 0.000000 0.000000 0.028726 0.000000
# 6 0.000000 0.000000 0.000000 0.000000 0.000000 0.018980
#
#
# Mechanical properties :
#
#
# Convention : Reuss Voigt Hill
#
# Bulk Modulus (GPa) = 56.44150 76.19948 66.32049
# Shear Modulus (GPa) = 30.62975 35.57895 33.10435
#
# Velocity S-wave (km/s) = 3.74920 4.04077 3.89771
# Velocity P-wave (km/s) = 6.68162 7.53258 7.11982
#
# Compressibility (1/GPa) = 0.01771746
#
# Stress axis : x y z
#
# Youngs Moduli (GPa) = 80.06762 46.34194 79.92176
#
# Poissons Ratio (x) = 0.44253 0.44177
# Poissons Ratio (y) = 0.76458 -0.05157
# Poissons Ratio (z) = 0.44257 -0.02990
#
# Static dielectric constant tensor:
#      x y z
#    x 1.899800 0.000000 0.000000 
#    y 0.000000 1.835210 0.000000 
#    z 0.000000 0.000000 1.927110 
# 
# From -- ./inp_files/29103.got.cif
#   From: 2010.05.17/outbox.cif.g08.bks.cpg/sg43_15_cif.got.tgz:29103.got - 2010.06.03 19:21:55.
