data_PCOD9371538
_publ_section_title
;
Structure prediction by ZEFSAII (Michael W. Deem and Ramdas Pophale) SiO2 
 PCOD9371538
Probable space group: F D D 2
;
_chemical_formula_sum "Si O2"
_cell_formula_units_Z 64
_cell_length_a 20.534482
_cell_length_b 8.004861
_cell_length_c 17.330028
_cell_angle_alpha 90.000000
_cell_angle_beta 90.000000
_cell_angle_gamma 90.000000
_cell_volume 2848.635035
_symmetry_space_group_name_H-M "F D D 2"
_symmetry_group_IT_number 43
_symmetry_cell_setting 'orthorhombic'
loop_
_space_group_symop_operation_xyz
x,y,z
-x,-y,z
1/4-x,1/4+y,1/4+z
1/4+x,1/4-y,1/4+z
x,1/2+y,1/2+z
-x,1/2-y,1/2+z
1/4-x,3/4+y,3/4+z
1/4+x,3/4-y,3/4+z
1/2+x,y,1/2+z
1/2-x,-y,1/2+z
3/4-x,1/4+y,3/4+z
3/4+x,1/4-y,3/4+z
1/2+x,1/2+y,z
1/2-x,1/2-y,z
3/4-x,3/4+y,1/4+z
3/4+x,3/4-y,1/4+z
loop_
_atom_site_type_symbol
_atom_site_label
_atom_site_fract_x
_atom_site_fract_y
_atom_site_fract_z
Si Si1 0.559119 0.871762 0.456170
Si Si2 0.354407 0.636536 0.323152
Si Si3 0.317607 0.069258 0.546274
Si Si4 0.951822 0.354139 0.240715
O O1 0.556811 0.708178 0.512451
O O2 0.623267 0.966359 0.487393
O O3 0.567413 0.799183 0.370880
O O4 0.500000 0.000000 0.461973
O O5 0.412626 0.499817 0.329970
O O6 0.320836 0.648553 0.405229
O O7 0.388846 0.802276 0.290555
O O8 0.251769 0.050981 0.497550
O O9 0.000000 0.500000 0.267610
#
# Coordination Sequence:
#
# PCOD9371538 Si02
#       4
#    16  16  16  16
#     4  10  22  41  75 111 148 197 254 312 389 464
#     4  10  23  49  72 107 151 206 247 321 389 455
#     4  10  23  43  75 105 152 196 253 313 390 456
#     4  12  26  46  73 111 154 199 265 317 380 470
#
# _framework density 22.466901
#
# number of rings (size 3 to 8) (size 9 to 14) (size 15 to 20)
#    1.500    0.000    2.500    1.500    3.500    4.000 
#    4.500    0.000    0.000    0.000    0.000    0.000 
#    0.000    0.000    0.000    0.000    0.000    0.000 
#
# Total GULP energy -89174.669894 kJ/mol
# GULP energy per Si atom -5573.416868 kJ/mol
# Density = 2.241577 g / cm^3
# Si number density = 22.466901 Si / 1000 Ang^3
#
#
#
# Elastic Constant Matrix: (Units=GPa)
#
#
# Indices 1 2 3 4 5 6 
#
# 1 99.1456 36.4198 61.8249 0.0000 0.0000 0.0000
# 2 36.4198 99.6904 51.8757 0.0000 0.0000 0.0000
# 3 61.8249 51.8757 175.5932 0.0000 0.0000 0.0000
# 4 0.0000 0.0000 0.0000 2.0647 0.0000 0.0000
# 5 0.0000 0.0000 0.0000 0.0000 39.0138 0.0000
# 6 0.0000 0.0000 0.0000 0.0000 0.0000 48.3865
#
#
#
# Elastic Compliance Matrix: (Units=1/GPa)
#
#
# Indices 1 2 3 4 5 6 
#
# 1 0.013611 -0.002929 -0.003927 0.000000 0.000000 0.000000
# 2 -0.002929 0.012484 -0.002657 0.000000 0.000000 0.000000
# 3 -0.003927 -0.002657 0.007863 0.000000 0.000000 0.000000
# 4 0.000000 0.000000 0.000000 0.484326 0.000000 0.000000
# 5 0.000000 0.000000 0.000000 0.000000 0.025632 0.000000
# 6 0.000000 0.000000 0.000000 0.000000 0.000000 0.020667
#
#
# Mechanical properties :
#
#
# Convention : Reuss Voigt Hill
#
# Bulk Modulus (GPa) = 66.97225 74.96334 70.96780
# Shear Modulus (GPa) = 8.49496 32.84692 20.67094
#
# Velocity S-wave (km/s) = 1.94661 3.82778 3.03654
# Velocity P-wave (km/s) = 5.90986 7.27835 6.62951
#
# Compressibility (1/GPa) = 0.01493156
#
# Stress axis : x y z
#
# Youngs Moduli (GPa) = 73.47083 80.10514 127.18559
#
# Poissons Ratio (x) = 0.23463 0.49945
# Poissons Ratio (y) = 0.21519 0.33790
# Poissons Ratio (z) = 0.28852 0.21282
#
# Static dielectric constant tensor:
#      x y z
#    x 1.862600 0.000000 0.000000 
#    y 0.000000 2.050340 0.000000 
#    z 0.000000 0.000000 1.780470 
# 
# From -- ./inp_files/11125.got.cif
#   From: 2010.05.17/outbox.cif.g08.bks.cpg/sg43_6_cif.got.tgz:11125.got - 2010.06.03 19:21:55.
