data_PCOD9371426
_publ_section_title
;
Structure prediction by ZEFSAII (Michael W. Deem and Ramdas Pophale) SiO2 
 PCOD9371426
Probable space group: F D D 2
;
_chemical_formula_sum "Si O2"
_cell_formula_units_Z 104
_cell_length_a 15.593558
_cell_length_b 15.596881
_cell_length_c 22.124992
_cell_angle_alpha 90.000000
_cell_angle_beta 90.000000
_cell_angle_gamma 90.000000
_cell_volume 5381.038520
_symmetry_space_group_name_H-M "F D D 2"
_symmetry_group_IT_number 43
_symmetry_cell_setting 'orthorhombic'
loop_
_space_group_symop_operation_xyz
x,y,z
-x,-y,z
1/4-x,1/4+y,1/4+z
1/4+x,1/4-y,1/4+z
x,1/2+y,1/2+z
-x,1/2-y,1/2+z
1/4-x,3/4+y,3/4+z
1/4+x,3/4-y,3/4+z
1/2+x,y,1/2+z
1/2-x,-y,1/2+z
3/4-x,1/4+y,3/4+z
3/4+x,1/4-y,3/4+z
1/2+x,1/2+y,z
1/2-x,1/2-y,z
3/4-x,3/4+y,1/4+z
3/4+x,3/4-y,1/4+z
loop_
_atom_site_type_symbol
_atom_site_label
_atom_site_fract_x
_atom_site_fract_y
_atom_site_fract_z
Si Si1 0.532572 0.342285 0.150940
Si Si2 0.824547 0.183590 0.798706
Si Si3 0.300338 0.544427 0.120660
Si Si4 0.294612 0.342654 0.529317
Si Si5 0.000000 0.000000 0.646324
Si Si6 0.017115 0.673845 0.073938
Si Si7 0.422331 0.766727 0.470734
O O1 0.461896 0.389110 0.109694
O O2 0.619783 0.396709 0.141316
O O3 0.515310 0.352314 0.221543
O O4 0.536571 0.246688 0.124424
O O5 0.750000 0.250000 0.779985
O O6 0.909814 0.231648 0.820096
O O7 0.834742 0.112339 0.747596
O O8 0.234567 0.609005 0.089354
O O9 0.250965 0.494751 0.173641
O O10 0.250000 0.250000 0.524839
O O11 0.396480 0.333887 0.534422
O O12 0.915205 0.993388 0.687201
O O13 0.994470 0.084533 0.604942
O O14 0.944157 0.707263 0.028397
#
# Coordination Sequence:
#
# PCOD9371426 Si02
#       7
#    16  16  16  16   8  16  16
#     4  10  22  39  66  98 133 162 213 270 322 377
#     4   9  22  40  64  99 132 168 211 262 319 386
#     4  11  21  40  68  97 128 172 213 266 329 373
#     4  12  22  38  70 100 127 167 215 271 323 375
#     4  12  28  46  64  92 128 176 216 258 334 394
#     4  11  25  45  64  97 129 169 215 270 323 391
#     4  11  25  46  65  92 133 167 218 270 318 396
#
# _framework density 19.327124000000001
#
# number of rings (size 3 to 8) (size 9 to 14) (size 15 to 20)
#    0.000    1.231    4.615    1.385    2.154    2.462 
#    4.154    0.000    0.000    0.000    0.000    0.000 
#    0.000    0.000    0.000    0.000    0.000    0.000 
#
# Total GULP energy -145219.162280 kJ/mol
# GULP energy per Si atom -5585.352395 kJ/mol
# Density = 1.928313 g / cm^3
# Si number density = 19.327124 Si / 1000 Ang^3
#
#
#
# Elastic Constant Matrix: (Units=GPa)
#
#
# Indices 1 2 3 4 5 6 
#
# 1 84.1979 36.5717 26.0635 0.0000 0.0000 0.0000
# 2 36.5717 126.4484 61.2377 0.0000 0.0000 0.0000
# 3 26.0635 61.2377 97.6518 0.0000 0.0000 0.0000
# 4 0.0000 0.0000 0.0000 27.2452 0.0000 0.0000
# 5 0.0000 0.0000 0.0000 0.0000 -5.9669 0.0000
# 6 0.0000 0.0000 0.0000 0.0000 0.0000 19.2134
#
#
#
# Elastic Compliance Matrix: (Units=1/GPa)
#
#
# Indices 1 2 3 4 5 6 
#
# 1 0.013775 -0.003165 -0.001692 0.000000 0.000000 0.000000
# 2 -0.003165 0.012085 -0.006734 0.000000 0.000000 0.000000
# 3 -0.001692 -0.006734 0.014915 0.000000 0.000000 0.000000
# 4 0.000000 0.000000 0.000000 0.036704 0.000000 0.000000
# 5 0.000000 0.000000 0.000000 0.000000 -0.167591 0.000000
# 6 0.000000 0.000000 0.000000 0.000000 0.000000 0.052047
#
#
# Mechanical properties :
#
#
# Convention : Reuss Voigt Hill
#
# Bulk Modulus (GPa) = 56.83806 61.78266 59.31036
# Shear Modulus (GPa) = -554.27915 20.39336 -266.94289
#
# Velocity S-wave (km/s) = -16.95319 3.25186 -11.76512
# Velocity P-wave (km/s) = 18.80803 6.79232 12.40174
#
# Compressibility (1/GPa) = 0.01759384
#
# Stress axis : x y z
#
# Youngs Moduli (GPa) = 72.59456 82.74915 67.04742
#
# Poissons Ratio (x) = 0.26187 0.11345
# Poissons Ratio (y) = 0.22973 0.45148
# Poissons Ratio (z) = 0.12284 0.55721
#
# Static dielectric constant tensor:
#      x y z
#    x 1.713780 0.000000 0.000000 
#    y 0.000000 1.657300 0.000000 
#    z 0.000000 0.000000 1.663110 
# 
# From -- ./inp_files/18003.got.cif
#   From: 2010.05.17/outbox.cif.g08.bks.cpg/sg43_10_cif.got.tgz:18003.got - 2010.06.03 19:21:55.
