data_PCOD9371692
_publ_section_title
;
Structure prediction by ZEFSAII (Michael W. Deem and Ramdas Pophale) SiO2 
 PCOD9371692
Probable space group: F D D 2
;
_chemical_formula_sum "Si O2"
_cell_formula_units_Z 64
_cell_length_a 24.776785
_cell_length_b 4.676819
_cell_length_c 19.512686
_cell_angle_alpha 90.000000
_cell_angle_beta 90.000000
_cell_angle_gamma 90.000000
_cell_volume 2261.062517
_symmetry_space_group_name_H-M "F D D 2"
_symmetry_group_IT_number 43
_symmetry_cell_setting 'orthorhombic'
loop_
_space_group_symop_operation_xyz
x,y,z
-x,-y,z
1/4-x,1/4+y,1/4+z
1/4+x,1/4-y,1/4+z
x,1/2+y,1/2+z
-x,1/2-y,1/2+z
1/4-x,3/4+y,3/4+z
1/4+x,3/4-y,3/4+z
1/2+x,y,1/2+z
1/2-x,-y,1/2+z
3/4-x,1/4+y,3/4+z
3/4+x,1/4-y,3/4+z
1/2+x,1/2+y,z
1/2-x,1/2-y,z
3/4-x,3/4+y,1/4+z
3/4+x,3/4-y,1/4+z
loop_
_atom_site_type_symbol
_atom_site_label
_atom_site_fract_x
_atom_site_fract_y
_atom_site_fract_z
Si Si1 0.408918 0.445549 0.437730
Si Si2 0.449192 0.317406 0.217738
Si Si3 0.548197 0.208628 0.562755
Si Si4 0.835019 0.753844 0.092305
O O1 0.353960 0.276218 0.460679
O O2 0.439016 0.558879 0.505061
O O3 0.443256 0.209051 0.397187
O O4 0.346246 0.460925 0.633420
O O5 0.500000 0.500000 0.242200
O O6 0.461876 0.208206 0.141423
O O7 0.441249 0.052852 0.268949
O O8 0.500000 0.000000 0.543484
O O9 0.608217 0.086021 0.573978
#
# Coordination Sequence:
#
# PCOD9371692 Si02
#       4
#    16  16  16  16
#     4  11  24  46  72 105 150 196 252 319 385 460
#     4  10  24  49  78 111 152 205 264 324 392 469
#     4  10  22  44  71 103 144 194 245 305 378 455
#     4  11  24  45  71 103 147 195 249 318 384 456
#
# _framework density 28.305277
#
# number of rings (size 3 to 8) (size 9 to 14) (size 15 to 20)
#    0.000    1.500    0.000    4.500    0.000    4.000 
#    0.000   60.000    0.000    0.000    0.000    0.000 
#    0.000    0.000    0.000    0.000    0.000    0.000 
#
# Total GULP energy -89418.318569 kJ/mol
# GULP energy per Si atom -5588.644911 kJ/mol
# Density = 2.824085 g / cm^3
# Si number density = 28.305277 Si / 1000 Ang^3
#
#
#
# Elastic Constant Matrix: (Units=GPa)
#
#
# Indices 1 2 3 4 5 6 
#
# 1 118.0960 66.0363 34.3077 -0.0120 0.0028 0.0082
# 2 66.0363 209.4421 140.4689 -0.0625 0.0083 0.0035
# 3 34.3077 140.4689 157.8446 0.0074 -0.0025 -0.0020
# 4 -0.0120 -0.0625 0.0074 -182.3171 0.0008 0.0010
# 5 0.0028 0.0083 -0.0025 0.0008 14.2874 -0.0021
# 6 0.0082 0.0035 -0.0020 0.0010 -0.0021 68.1659
#
#
#
# Elastic Compliance Matrix: (Units=1/GPa)
#
#
# Indices 1 2 3 4 5 6 
#
# 1 0.010448 -0.004393 0.001639 0.000001 0.000001 -0.000001
# 2 -0.004393 0.013691 -0.011229 -0.000005 -0.000009 -0.000001
# 3 0.001639 -0.011229 0.015972 0.000004 0.000009 0.000001
# 4 0.000001 -0.000005 0.000004 -0.005485 0.000000 0.000000
# 5 0.000001 -0.000009 0.000009 0.000000 0.069992 0.000002
# 6 -0.000001 -0.000001 0.000001 0.000000 0.000002 0.014670
#
#
# Mechanical properties :
#
#
# Convention : Reuss Voigt Hill
#
# Bulk Modulus (GPa) = 82.34382 107.44537 94.89460
# Shear Modulus (GPa) = 33.04647 -3.66809 14.68919
#
# Velocity S-wave (km/s) = 3.42058 -1.13961 2.28053
# Velocity P-wave (km/s) = 6.68992 6.02580 6.36652
#
# Compressibility (1/GPa) = 0.01214420
#
# Stress axis : x y z
#
# Youngs Moduli (GPa) = 95.70936 73.04222 62.61049
#
# Poissons Ratio (x) = 0.32091 -0.10261
# Poissons Ratio (y) = 0.42050 0.70303
# Poissons Ratio (z) = -0.15686 0.82017
#
# Static dielectric constant tensor:
#      x y z
#    x 2.296710 0.000000 0.000000 
#    y 0.000000 2.266720 0.000000 
#    z 0.000000 0.000000 2.265280 
# 
# From -- ./inp_files/15159.got.cif
#   From: 2010.05.17/outbox.cif.g08.bks.cpg/sg43_8_cif.got.tgz:15159.got - 2010.06.03 19:21:55.
