data_PCOD9371066
_publ_section_title
;
Structure prediction by ZEFSAII (Michael W. Deem and Ramdas Pophale) SiO2 
 PCOD9371066
Probable space group: F D D 2
;
_chemical_formula_sum "Si O2"
_cell_formula_units_Z 112
_cell_length_a 22.357427
_cell_length_b 23.306780
_cell_length_c 11.181389
_cell_angle_alpha 90.000000
_cell_angle_beta 90.000000
_cell_angle_gamma 90.000000
_cell_volume 5826.394070
_symmetry_space_group_name_H-M "F D D 2"
_symmetry_group_IT_number 43
_symmetry_cell_setting 'orthorhombic'
loop_
_space_group_symop_operation_xyz
x,y,z
-x,-y,z
1/4-x,1/4+y,1/4+z
1/4+x,1/4-y,1/4+z
x,1/2+y,1/2+z
-x,1/2-y,1/2+z
1/4-x,3/4+y,3/4+z
1/4+x,3/4-y,3/4+z
1/2+x,y,1/2+z
1/2-x,-y,1/2+z
3/4-x,1/4+y,3/4+z
3/4+x,1/4-y,3/4+z
1/2+x,1/2+y,z
1/2-x,1/2-y,z
3/4-x,3/4+y,1/4+z
3/4+x,3/4-y,1/4+z
loop_
_atom_site_type_symbol
_atom_site_label
_atom_site_fract_x
_atom_site_fract_y
_atom_site_fract_z
Si Si1 0.702076 0.090081 0.492860
Si Si2 0.528283 0.331171 0.303811
Si Si3 0.362264 0.880537 0.268291
Si Si4 0.726958 0.191252 0.886634
Si Si5 0.181491 0.474502 0.904509
Si Si6 0.477401 0.936212 0.376187
Si Si7 0.344184 0.519325 0.124868
O O1 0.668742 0.128160 0.395363
O O2 0.753651 0.055464 0.421041
O O3 0.730839 0.133744 0.585670
O O4 0.663131 0.041965 0.559827
O O5 0.566305 0.343388 0.422914
O O6 0.522043 0.388194 0.225299
O O7 0.563439 0.283252 0.227553
O O8 0.462391 0.307180 0.333077
O O9 0.387403 0.821869 0.213533
O O10 0.416125 0.923372 0.305517
O O11 0.750000 0.250000 0.946819
O O12 0.769218 0.183013 0.770625
O O13 0.658235 0.202457 0.846995
O O14 0.163326 0.485667 0.768064
O O15 0.500000 0.000000 0.345756
#
# Coordination Sequence:
#
# PCOD9371066 Si02
#       7
#    16  16  16  16  16  16  16
#     4  10  21  38  63  91 126 171 217 271 334 391
#     4  11  24  41  70  97 131 184 219 276 347 398
#     4  11  22  42  63  98 134 166 224 275 329 412
#     4  11  24  44  64  99 134 172 228 280 333 403
#     4  10  22  40  63  93 131 170 220 269 332 404
#     4  10  23  40  63  95 129 168 219 273 333 401
#     4  11  22  43  65  94 134 174 231 278 330 413
#
# _framework density 19.222867000000001
#
# number of rings (size 3 to 8) (size 9 to 14) (size 15 to 20)
#    0.000    1.429    2.857    2.571    2.000    3.429 
#    0.000    0.714    0.000    0.000    0.000    0.000 
#    0.000    0.000    0.000    0.000    0.000    0.000 
#
# Total GULP energy -156288.687541 kJ/mol
# GULP energy per Si atom -5581.738841 kJ/mol
# Density = 1.917911 g / cm^3
# Si number density = 19.222867 Si / 1000 Ang^3
#
#
#
# Elastic Constant Matrix: (Units=GPa)
#
#
# Indices 1 2 3 4 5 6 
#
# 1 89.0142 35.8138 31.4126 0.0000 0.0000 0.0000
# 2 35.8138 88.8049 43.8335 0.0000 0.0000 0.0000
# 3 31.4126 43.8335 100.3090 0.0000 0.0000 0.0000
# 4 0.0000 0.0000 0.0000 19.0527 0.0000 0.0000
# 5 0.0000 0.0000 0.0000 0.0000 21.8033 0.0000
# 6 0.0000 0.0000 0.0000 0.0000 0.0000 18.5360
#
#
#
# Elastic Compliance Matrix: (Units=1/GPa)
#
#
# Indices 1 2 3 4 5 6 
#
# 1 0.013856 -0.004394 -0.002419 0.000000 0.000000 0.000000
# 2 -0.004394 0.015751 -0.005507 0.000000 0.000000 0.000000
# 3 -0.002419 -0.005507 0.013133 0.000000 0.000000 0.000000
# 4 0.000000 0.000000 0.000000 0.052486 0.000000 0.000000
# 5 0.000000 0.000000 0.000000 0.000000 0.045865 0.000000
# 6 0.000000 0.000000 0.000000 0.000000 0.000000 0.053949
#
#
# Mechanical properties :
#
#
# Convention : Reuss Voigt Hill
#
# Bulk Modulus (GPa) = 55.24804 55.58311 55.41557
# Shear Modulus (GPa) = 22.15212 23.01627 22.58420
#
# Velocity S-wave (km/s) = 3.39836 3.46401 3.43134
# Velocity P-wave (km/s) = 6.64843 6.70649 6.67753
#
# Compressibility (1/GPa) = 0.01810019
#
# Stress axis : x y z
#
# Youngs Moduli (GPa) = 72.17300 63.48899 76.14320
#
# Poissons Ratio (x) = 0.27896 0.18419
# Poissons Ratio (y) = 0.31711 0.41931
# Poissons Ratio (z) = 0.17459 0.34963
#
# Static dielectric constant tensor:
#      x y z
#    x 1.707880 0.000000 0.000000 
#    y 0.000000 1.627580 0.000000 
#    z 0.000000 0.000000 1.636050 
# 
# From -- ./inp_files/7152.got.cif
#   From: 2010.05.17/outbox.cif.g08.bks.cpg/sg43_4_cif.got.tgz:7152.got - 2010.06.03 19:21:55.
