data_PCOD9371888
_publ_section_title
;
Structure prediction by ZEFSAII (Michael W. Deem and Ramdas Pophale) SiO2 
 PCOD9371888
Probable space group: F D D 2
;
_chemical_formula_sum "Si O2"
_cell_formula_units_Z 80
_cell_length_a 30.249773
_cell_length_b 20.987104
_cell_length_c 5.386912
_cell_angle_alpha 90.000000
_cell_angle_beta 90.000000
_cell_angle_gamma 90.000000
_cell_volume 3419.908728
_symmetry_space_group_name_H-M "F D D 2"
_symmetry_group_IT_number 43
_symmetry_cell_setting 'orthorhombic'
loop_
_space_group_symop_operation_xyz
x,y,z
-x,-y,z
1/4-x,1/4+y,1/4+z
1/4+x,1/4-y,1/4+z
x,1/2+y,1/2+z
-x,1/2-y,1/2+z
1/4-x,3/4+y,3/4+z
1/4+x,3/4-y,3/4+z
1/2+x,y,1/2+z
1/2-x,-y,1/2+z
3/4-x,1/4+y,3/4+z
3/4+x,1/4-y,3/4+z
1/2+x,1/2+y,z
1/2-x,1/2-y,z
3/4-x,3/4+y,1/4+z
3/4+x,3/4-y,1/4+z
loop_
_atom_site_type_symbol
_atom_site_label
_atom_site_fract_x
_atom_site_fract_y
_atom_site_fract_z
Si Si1 0.321711 0.772730 0.424010
Si Si2 0.039846 0.841416 0.207303
Si Si3 0.789044 0.544099 0.780047
Si Si4 0.511627 0.095296 0.317223
Si Si5 0.385200 0.566980 0.185722
O O1 0.280865 0.823574 0.401329
O O2 0.297972 0.707196 0.504096
O O3 0.349243 0.794015 0.665072
O O4 0.349660 0.772314 0.169226
O O5 0.088042 0.869085 0.256739
O O6 0.007418 0.809005 0.402646
O O7 0.047382 0.780835 0.028247
O O8 0.011263 0.898899 0.085385
O O9 0.782935 0.585298 0.029737
O O10 0.832958 0.574652 0.667154
#
# Coordination Sequence:
#
# PCOD9371888 Si02
#       5
#    16  16  16  16  16
#     4  10  24  46  69 104 136 181 240 293 340 426
#     4  11  25  47  69 106 144 184 242 291 361 428
#     4  12  25  44  72 100 144 194 224 301 357 421
#     4  10  23  43  73  94 139 187 231 291 356 413
#     4  11  27  45  71 105 143 184 242 289 351 426
#
# _framework density 23.392437999999999
#
# number of rings (size 3 to 8) (size 9 to 14) (size 15 to 20)
#    0.000    1.200    4.000    0.000    8.400    1.600 
#    3.600    0.000    0.000    0.000    0.000    0.000 
#    0.000    0.000    0.000    0.000    0.000    0.000 
#
# Total GULP energy -111477.376440 kJ/mol
# GULP energy per Si atom -5573.868822 kJ/mol
# Density = 2.333920 g / cm^3
# Si number density = 23.392438 Si / 1000 Ang^3
#
#
#
# Elastic Constant Matrix: (Units=GPa)
#
#
# Indices 1 2 3 4 5 6 
#
# 1 97.6553 30.8986 8.9796 -0.0041 0.0049 0.0028
# 2 30.8986 91.1976 0.4358 0.0022 0.0008 0.0020
# 3 8.9796 0.4358 57.6690 -0.0118 0.0096 0.0089
# 4 -0.0041 0.0022 -0.0118 8.8497 0.0047 0.0036
# 5 0.0049 0.0008 0.0096 0.0047 26.5926 -0.0042
# 6 0.0028 0.0020 0.0089 0.0036 -0.0042 29.8272
#
#
#
# Elastic Compliance Matrix: (Units=1/GPa)
#
#
# Indices 1 2 3 4 5 6 
#
# 1 0.011650 -0.003939 -0.001784 0.000004 -0.000001 0.000000
# 2 -0.003939 0.012297 0.000520 -0.000004 0.000000 -0.000001
# 3 -0.001784 0.000520 0.017614 0.000022 -0.000006 -0.000005
# 4 0.000004 -0.000004 0.000022 0.112998 -0.000020 -0.000014
# 5 -0.000001 0.000000 -0.000006 -0.000020 0.037604 0.000005
# 6 0.000000 -0.000001 -0.000005 -0.000014 0.000005 0.033526
#
#
# Mechanical properties :
#
#
# Convention : Reuss Voigt Hill
#
# Bulk Modulus (GPa) = 32.09605 36.34999 34.22302
# Shear Modulus (GPa) = 20.28550 26.80110 23.54330
#
# Velocity S-wave (km/s) = 2.94799 3.38852 3.17590
# Velocity P-wave (km/s) = 5.03369 5.55719 5.30190
#
# Compressibility (1/GPa) = 0.03115648
#
# Stress axis : x y z
#
# Youngs Moduli (GPa) = 85.83390 81.31932 56.77219
#
# Poissons Ratio (x) = 0.32030 0.10130
# Poissons Ratio (y) = 0.33808 -0.02954
# Poissons Ratio (z) = 0.15315 -0.04232
#
# Static dielectric constant tensor:
#      x y z
#    x 1.890910 -0.000020 -0.000010 
#    y -0.000020 1.977760 -0.000040 
#    z -0.000010 -0.000040 2.032120 
# 
# From -- ./inp_files/1359.got.cif
#   From: 2010.05.17/outbox.cif.g08.bks.cpg/sg43_1_cif.got.tgz:1359.got - 2010.06.03 19:21:55.
