data_PCOD9371397
_publ_section_title
;
Structure prediction by ZEFSAII (Michael W. Deem and Ramdas Pophale) SiO2 
 PCOD9371397
Probable space group: F D D 2
;
_chemical_formula_sum "Si O2"
_cell_formula_units_Z 88
_cell_length_a 12.257133
_cell_length_b 9.604233
_cell_length_c 27.091061
_cell_angle_alpha 90.000000
_cell_angle_beta 90.000000
_cell_angle_gamma 90.000000
_cell_volume 3189.169487
_symmetry_space_group_name_H-M "F D D 2"
_symmetry_group_IT_number 43
_symmetry_cell_setting 'orthorhombic'
loop_
_space_group_symop_operation_xyz
x,y,z
-x,-y,z
1/4-x,1/4+y,1/4+z
1/4+x,1/4-y,1/4+z
x,1/2+y,1/2+z
-x,1/2-y,1/2+z
1/4-x,3/4+y,3/4+z
1/4+x,3/4-y,3/4+z
1/2+x,y,1/2+z
1/2-x,-y,1/2+z
3/4-x,1/4+y,3/4+z
3/4+x,1/4-y,3/4+z
1/2+x,1/2+y,z
1/2-x,1/2-y,z
3/4-x,3/4+y,1/4+z
3/4+x,3/4-y,1/4+z
loop_
_atom_site_type_symbol
_atom_site_label
_atom_site_fract_x
_atom_site_fract_y
_atom_site_fract_z
Si Si1 0.899301 0.103038 0.880600
Si Si2 0.647078 0.837969 0.274668
Si Si3 0.554419 0.865833 0.780309
Si Si4 0.750000 0.750000 0.790051
Si Si5 0.373251 0.685272 0.460382
Si Si6 0.150624 0.099459 0.417911
O O1 0.882676 0.072285 0.822513
O O2 0.909489 0.273415 0.888753
O O3 0.778978 0.084023 0.904242
O O4 0.000000 0.000000 0.894083
O O5 0.750000 0.750000 0.290314
O O6 0.541041 0.742704 0.269075
O O7 0.680272 0.919859 0.225230
O O8 0.655735 0.832594 0.816072
O O9 0.602251 0.900895 0.725550
O O10 0.500000 0.000000 0.802006
O O11 0.829529 0.846910 0.757216
O O12 0.250000 0.750000 0.459190
O O13 0.388111 0.562350 0.420742
#
# Coordination Sequence:
#
# PCOD9371397 Si02
#       6
#    16  16  16   8  16  16
#     4  11  24  45  77 113 169 218 265 341 435 488
#     4  12  24  45  81 120 159 215 272 346 423 496
#     4  11  22  43  73 108 154 205 271 322 396 485
#     4  10  22  38  66 110 158 180 266 330 378 458
#     4  11  22  43  74 116 155 204 276 332 399 492
#     4  10  22  45  69 114 161 206 273 338 398 505
#
# _framework density 27.593392000000001
#
# number of rings (size 3 to 8) (size 9 to 14) (size 15 to 20)
#    0.000    1.091    7.273    1.636    0.000    3.636 
#    0.000    0.000   14.000    0.000    0.000    0.000 
#    0.000    0.000    0.000    0.000    0.000    0.000 
#
# Total GULP energy -122510.786872 kJ/mol
# GULP energy per Si atom -5568.672131 kJ/mol
# Density = 2.753059 g / cm^3
# Si number density = 27.593392 Si / 1000 Ang^3
#
#
#
# Elastic Constant Matrix: (Units=GPa)
#
#
# Indices 1 2 3 4 5 6 
#
# 1 195.2752 95.7900 31.6894 0.0000 0.0000 0.0000
# 2 95.7900 182.0538 63.7403 0.0000 0.0000 0.0000
# 3 31.6894 63.7403 99.3609 0.0000 0.0000 0.0000
# 4 0.0000 0.0000 0.0000 8.9315 0.0000 0.0000
# 5 0.0000 0.0000 0.0000 0.0000 5.8188 0.0000
# 6 0.0000 0.0000 0.0000 0.0000 0.0000 79.1579
#
#
#
# Elastic Compliance Matrix: (Units=1/GPa)
#
#
# Indices 1 2 3 4 5 6 
#
# 1 0.006905 -0.003691 0.000166 0.000000 0.000000 0.000000
# 2 -0.003691 0.009057 -0.004633 0.000000 0.000000 0.000000
# 3 0.000166 -0.004633 0.012984 0.000000 0.000000 0.000000
# 4 0.000000 0.000000 0.000000 0.111963 0.000000 0.000000
# 5 0.000000 0.000000 0.000000 0.000000 0.171858 0.000000
# 6 0.000000 0.000000 0.000000 0.000000 0.000000 0.012633
#
#
# Mechanical properties :
#
#
# Convention : Reuss Voigt Hill
#
# Bulk Modulus (GPa) = 79.18474 95.45882 87.32178
# Shear Modulus (GPa) = 14.45400 37.81298 26.13349
#
# Velocity S-wave (km/s) = 2.29120 3.70586 3.08083
# Velocity P-wave (km/s) = 5.97986 7.27881 6.66107
#
# Compressibility (1/GPa) = 0.01262870
#
# Stress axis : x y z
#
# Youngs Moduli (GPa) = 144.82967 110.41175 77.02067
#
# Poissons Ratio (x) = 0.40753 -0.01276
# Poissons Ratio (y) = 0.53456 0.35683
# Poissons Ratio (z) = -0.02399 0.51153
#
# Static dielectric constant tensor:
#      x y z
#    x 2.285230 0.000000 0.000000 
#    y 0.000000 2.537660 0.000000 
#    z 0.000000 0.000000 2.135410 
# 
# From -- ./inp_files/28473.got.cif
#   From: 2010.05.17/outbox.cif.g08.bks.cpg/sg43_15_cif.got.tgz:28473.got - 2010.06.03 19:21:55.
