data_PCOD9371288
_publ_section_title
;
Structure prediction by ZEFSAII (Michael W. Deem and Ramdas Pophale) SiO2 
 PCOD9371288
Probable space group: F D D 2
;
_chemical_formula_sum "Si O2"
_cell_formula_units_Z 120
_cell_length_a 30.122741
_cell_length_b 15.776238
_cell_length_c 10.867132
_cell_angle_alpha 90.000000
_cell_angle_beta 90.000000
_cell_angle_gamma 90.000000
_cell_volume 5164.316843
_symmetry_space_group_name_H-M "F D D 2"
_symmetry_group_IT_number 43
_symmetry_cell_setting 'orthorhombic'
loop_
_space_group_symop_operation_xyz
x,y,z
-x,-y,z
1/4-x,1/4+y,1/4+z
1/4+x,1/4-y,1/4+z
x,1/2+y,1/2+z
-x,1/2-y,1/2+z
1/4-x,3/4+y,3/4+z
1/4+x,3/4-y,3/4+z
1/2+x,y,1/2+z
1/2-x,-y,1/2+z
3/4-x,1/4+y,3/4+z
3/4+x,1/4-y,3/4+z
1/2+x,1/2+y,z
1/2-x,1/2-y,z
3/4-x,3/4+y,1/4+z
3/4+x,3/4-y,1/4+z
loop_
_atom_site_type_symbol
_atom_site_label
_atom_site_fract_x
_atom_site_fract_y
_atom_site_fract_z
Si Si1 0.685036 0.811273 0.284940
Si Si2 0.372175 0.047019 0.405998
Si Si3 0.616633 0.032427 0.150524
Si Si4 0.091763 0.218969 0.602344
Si Si5 0.500000 0.000000 0.740303
Si Si6 0.682375 0.771383 0.676108
Si Si7 0.450779 0.288126 0.358486
Si Si8 0.291677 0.558010 0.581114
O O1 0.643533 0.868087 0.334796
O O2 0.663926 0.720299 0.246817
O O3 0.720864 0.805240 0.394592
O O4 0.707480 0.859167 0.168232
O O5 0.328082 0.027023 0.485439
O O6 0.384752 0.981974 0.295982
O O7 0.618243 0.130481 0.114809
O O8 0.662225 0.987887 0.114731
O O9 0.574765 0.997344 0.069569
O O10 0.130924 0.282469 0.638793
O O11 0.076236 0.249932 0.471641
O O12 0.049023 0.192961 0.683908
O O13 0.461920 0.035101 0.834183
O O14 0.703204 0.863556 0.650712
O O15 0.498187 0.245626 0.353781
#
# Coordination Sequence:
#
# PCOD9371288 Si02
#       8
#    16  16  16  16   8  16  16  16
#     4  11  25  45  72 101 141 187 239 296 362 430
#     4  11  23  46  70 104 134 190 234 291 362 435
#     4   9  21  42  69  90 139 180 235 278 348 428
#     4  10  21  43  68  93 139 183 231 285 355 427
#     4  12  24  44  68 104 140 172 238 294 358 418
#     4  10  23  43  63 101 132 185 222 287 348 422
#     4  11  24  39  67 104 135 177 236 292 349 423
#     4  10  23  42  66 101 135 183 233 294 354 416
#
# _framework density 23.236373
#
# number of rings (size 3 to 8) (size 9 to 14) (size 15 to 20)
#    0.000    1.600    2.667    0.800    5.600    1.067 
#    7.200    0.667    0.000    0.000    0.000    0.000 
#    0.000    0.000    0.000    0.000    0.000    0.000 
#
# Total GULP energy -167023.173372 kJ/mol
# GULP energy per Si atom -5567.439112 kJ/mol
# Density = 2.318349 g / cm^3
# Si number density = 23.236373 Si / 1000 Ang^3
#
#
#
# Elastic Constant Matrix: (Units=GPa)
#
#
# Indices 1 2 3 4 5 6 
#
# 1 89.0627 30.5317 52.1816 0.0000 0.0000 0.0000
# 2 30.5317 50.6995 18.5337 0.0000 0.0000 0.0000
# 3 52.1816 18.5337 141.6739 0.0000 0.0000 0.0000
# 4 0.0000 0.0000 0.0000 21.5867 0.0000 0.0000
# 5 0.0000 0.0000 0.0000 0.0000 31.2169 0.0000
# 6 0.0000 0.0000 0.0000 0.0000 0.0000 36.8072
#
#
#
# Elastic Compliance Matrix: (Units=1/GPa)
#
#
# Indices 1 2 3 4 5 6 
#
# 1 0.017181 -0.008437 -0.005225 0.000000 0.000000 0.000000
# 2 -0.008437 0.024858 -0.000144 0.000000 0.000000 0.000000
# 3 -0.005225 -0.000144 0.009002 0.000000 0.000000 0.000000
# 4 0.000000 0.000000 0.000000 0.046325 0.000000 0.000000
# 5 0.000000 0.000000 0.000000 0.000000 0.032034 0.000000
# 6 0.000000 0.000000 0.000000 0.000000 0.000000 0.027169
#
#
# Mechanical properties :
#
#
# Convention : Reuss Voigt Hill
#
# Bulk Modulus (GPa) = 42.68217 53.77002 48.22609
# Shear Modulus (GPa) = 26.04314 29.93478 27.98896
#
# Velocity S-wave (km/s) = 3.35146 3.59315 3.47440
# Velocity P-wave (km/s) = 5.77797 6.35649 6.07412
#
# Compressibility (1/GPa) = 0.02342899
#
# Stress axis : x y z
#
# Youngs Moduli (GPa) = 58.20264 40.22917 111.09050
#
# Poissons Ratio (x) = 0.33941 0.58040
# Poissons Ratio (y) = 0.49105 0.01604
# Poissons Ratio (z) = 0.30408 0.00581
#
# Static dielectric constant tensor:
#      x y z
#    x 1.858430 0.000000 0.000000 
#    y 0.000000 1.982180 0.000000 
#    z 0.000000 0.000000 2.122940 
# 
# From -- ./inp_files/7966.got.cif
#   From: 2010.05.17/outbox.cif.g08.bks.cpg/sg43_4_cif.got.tgz:7966.got - 2010.06.03 19:21:55.
