data_PCOD9371983
_publ_section_title
;
Structure prediction by ZEFSAII (Michael W. Deem and Ramdas Pophale) SiO2 
 PCOD9371983
Probable space group: F D D 2
;
_chemical_formula_sum "Si O2"
_cell_formula_units_Z 112
_cell_length_a 12.647597
_cell_length_b 17.012916
_cell_length_c 24.145945
_cell_angle_alpha 90.000000
_cell_angle_beta 90.000000
_cell_angle_gamma 90.000000
_cell_volume 5195.543480
_symmetry_space_group_name_H-M "F D D 2"
_symmetry_group_IT_number 43
_symmetry_cell_setting 'orthorhombic'
loop_
_space_group_symop_operation_xyz
x,y,z
-x,-y,z
1/4-x,1/4+y,1/4+z
1/4+x,1/4-y,1/4+z
x,1/2+y,1/2+z
-x,1/2-y,1/2+z
1/4-x,3/4+y,3/4+z
1/4+x,3/4-y,3/4+z
1/2+x,y,1/2+z
1/2-x,-y,1/2+z
3/4-x,1/4+y,3/4+z
3/4+x,1/4-y,3/4+z
1/2+x,1/2+y,z
1/2-x,1/2-y,z
3/4-x,3/4+y,1/4+z
3/4+x,3/4-y,1/4+z
loop_
_atom_site_type_symbol
_atom_site_label
_atom_site_fract_x
_atom_site_fract_y
_atom_site_fract_z
Si Si1 0.949867 0.651452 0.710430
Si Si2 0.250000 0.250000 0.520360
Si Si3 0.402659 0.942643 0.069654
Si Si4 0.668038 0.938047 0.153500
Si Si5 0.078729 0.811960 0.570747
Si Si6 0.250000 0.250000 0.984752
Si Si7 0.061862 0.333136 0.584831
Si Si8 0.305101 0.831255 0.725747
O O1 0.895332 0.701832 0.758676
O O2 0.910156 0.652308 0.648275
O O3 0.943172 0.562879 0.732124
O O4 0.072025 0.675349 0.712614
O O5 0.165032 0.294446 0.557353
O O6 0.464917 0.859095 0.069482
O O7 0.500000 0.000000 0.075655
O O8 0.326553 0.979415 0.118110
O O9 0.645947 0.865822 0.112171
O O10 0.567769 0.944509 0.194470
O O11 0.762660 0.907872 0.192458
O O12 0.160345 0.796900 0.519788
O O13 0.038744 0.725159 0.585765
O O14 0.037257 0.402453 0.541313
O O15 0.250000 0.750000 0.709538
#
# Coordination Sequence:
#
# PCOD9371983 Si02
#       8
#    16   8  16  16  16   8  16  16
#     4  11  25  45  67 100 140 181 231 296 348 427
#     4  10  24  48  63  97 132 176 230 276 348 422
#     4  10  23  47  71 106 135 185 245 294 358 432
#     4  11  24  47  70 107 143 186 243 300 364 442
#     4  11  23  42  72 103 139 182 242 292 366 431
#     4  12  24  44  71 107 142 186 232 312 360 434
#     4  11  24  44  69  98 135 184 234 283 357 420
#     4  11  26  45  68 104 142 188 237 291 371 442
#
# _framework density 21.556937999999999
#
# number of rings (size 3 to 8) (size 9 to 14) (size 15 to 20)
#    0.000    1.143    5.000    0.857    5.000    5.714 
#   12.857    0.000    0.000    0.000    0.000    0.000 
#    0.000    0.000    0.000    0.000    0.000    0.000 
#
# Total GULP energy -155995.425138 kJ/mol
# GULP energy per Si atom -5571.265184 kJ/mol
# Density = 2.150787 g / cm^3
# Si number density = 21.556938 Si / 1000 Ang^3
#
#
#
# Elastic Constant Matrix: (Units=GPa)
#
#
# Indices 1 2 3 4 5 6 
#
# 1 33.2711 1.7863 16.2344 0.0000 0.0000 0.0000
# 2 1.7863 62.1122 33.9314 0.0000 0.0000 0.0000
# 3 16.2344 33.9314 144.3375 0.0000 0.0000 0.0000
# 4 0.0000 0.0000 0.0000 25.9410 0.0000 0.0000
# 5 0.0000 0.0000 0.0000 0.0000 18.1791 0.0000
# 6 0.0000 0.0000 0.0000 0.0000 0.0000 15.9849
#
#
#
# Elastic Compliance Matrix: (Units=1/GPa)
#
#
# Indices 1 2 3 4 5 6 
#
# 1 0.031879 0.001195 -0.003867 0.000000 0.000000 0.000000
# 2 0.001195 0.018517 -0.004488 0.000000 0.000000 0.000000
# 3 -0.003867 -0.004488 0.008418 0.000000 0.000000 0.000000
# 4 0.000000 0.000000 0.000000 0.038549 0.000000 0.000000
# 5 0.000000 0.000000 0.000000 0.000000 0.055008 0.000000
# 6 0.000000 0.000000 0.000000 0.000000 0.000000 0.062559
#
#
# Mechanical properties :
#
#
# Convention : Reuss Voigt Hill
#
# Bulk Modulus (GPa) = 22.47372 38.18056 30.32714
# Shear Modulus (GPa) = 20.48515 24.53891 22.51203
#
# Velocity S-wave (km/s) = 3.08601 3.37758 3.23508
# Velocity P-wave (km/s) = 4.81101 5.74113 5.29653
#
# Compressibility (1/GPa) = 0.04449641
#
# Stress axis : x y z
#
# Youngs Moduli (GPa) = 31.36900 54.00445 118.79245
#
# Poissons Ratio (x) = -0.06456 0.45932
# Poissons Ratio (y) = -0.03750 0.53308
# Poissons Ratio (z) = 0.12129 0.24235
#
# Static dielectric constant tensor:
#      x y z
#    x 1.855820 0.000000 0.000000 
#    y 0.000000 1.862260 0.000000 
#    z 0.000000 0.000000 1.880770 
# 
# From -- ./inp_files/21218.got.cif
#   From: 2010.05.17/outbox.cif.g08.bks.cpg/sg43_11_cif.got.tgz:21218.got - 2010.06.03 19:21:55.
