data_PCOD9371818
_publ_section_title
;
Structure prediction by ZEFSAII (Michael W. Deem and Ramdas Pophale) SiO2 
 PCOD9371818
Probable space group: F D D 2
;
_chemical_formula_sum "Si O2"
_cell_formula_units_Z 120
_cell_length_a 23.484921
_cell_length_b 19.394557
_cell_length_c 12.835859
_cell_angle_alpha 90.000000
_cell_angle_beta 90.000000
_cell_angle_gamma 90.000000
_cell_volume 5846.472423
_symmetry_space_group_name_H-M "F D D 2"
_symmetry_group_IT_number 43
_symmetry_cell_setting 'orthorhombic'
loop_
_space_group_symop_operation_xyz
x,y,z
-x,-y,z
1/4-x,1/4+y,1/4+z
1/4+x,1/4-y,1/4+z
x,1/2+y,1/2+z
-x,1/2-y,1/2+z
1/4-x,3/4+y,3/4+z
1/4+x,3/4-y,3/4+z
1/2+x,y,1/2+z
1/2-x,-y,1/2+z
3/4-x,1/4+y,3/4+z
3/4+x,1/4-y,3/4+z
1/2+x,1/2+y,z
1/2-x,1/2-y,z
3/4-x,3/4+y,1/4+z
3/4+x,3/4-y,1/4+z
loop_
_atom_site_type_symbol
_atom_site_label
_atom_site_fract_x
_atom_site_fract_y
_atom_site_fract_z
Si Si1 0.282627 0.356876 0.544790
Si Si2 0.530389 0.661268 0.710015
Si Si3 0.083316 0.042901 0.349800
Si Si4 0.208714 0.556004 0.846946
Si Si5 0.577915 0.930967 0.236980
Si Si6 0.949829 0.360550 0.455234
Si Si7 0.862706 0.691601 0.843024
Si Si8 0.250000 0.750000 0.659508
O O1 0.216899 0.347247 0.576726
O O2 0.311214 0.282742 0.567747
O O3 0.285622 0.378989 0.424417
O O4 0.322106 0.414724 0.601148
O O5 0.531204 0.738601 0.668060
O O6 0.469395 0.623517 0.699465
O O7 0.549585 0.653764 0.830708
O O8 0.574561 0.619030 0.640189
O O9 0.145135 0.055950 0.300082
O O10 0.097068 0.046056 0.472870
O O11 0.256369 0.559184 0.759408
O O12 0.637935 0.895029 0.255237
O O13 0.548990 0.968829 0.334665
O O14 0.594283 0.990421 0.154854
O O15 0.973941 0.437022 0.471255
#
# Coordination Sequence:
#
# PCOD9371818 Si02
#       8
#    16  16  16  16  16  16  16   8
#     4  10  23  40  67  98 135 175 224 280 343 406
#     4  11  24  43  64 105 135 171 229 279 342 410
#     4  10  23  42  66  98 135 178 226 285 343 395
#     4  11  25  46  64 101 137 178 232 277 341 415
#     4  11  23  41  69  97 134 175 220 286 339 399
#     4  11  25  44  70  92 137 184 222 284 339 410
#     4  11  21  40  67 102 139 168 221 292 339 402
#     4  10  24  46  60 102 128 174 236 268 332 412
#
# _framework density 20.525198
#
# number of rings (size 3 to 8) (size 9 to 14) (size 15 to 20)
#    0.000    1.333    4.000    1.600    5.600    5.333 
#    0.000    0.000    0.000    0.000    0.000    0.000 
#    0.000    0.000    0.000    0.000    0.000    0.000 
#
# Total GULP energy -167586.871270 kJ/mol
# GULP energy per Si atom -5586.229042 kJ/mol
# Density = 2.047848 g / cm^3
# Si number density = 20.525198 Si / 1000 Ang^3
#
#
#
# Elastic Constant Matrix: (Units=GPa)
#
#
# Indices 1 2 3 4 5 6 
#
# 1 147.4002 52.8054 4.1595 0.0000 0.0000 0.0000
# 2 52.8054 99.7549 31.0544 0.0000 0.0000 0.0000
# 3 4.1595 31.0544 25.9813 0.0000 0.0000 0.0000
# 4 0.0000 0.0000 0.0000 1.7112 0.0000 0.0000
# 5 0.0000 0.0000 0.0000 0.0000 -3.3224 0.0000
# 6 0.0000 0.0000 0.0000 0.0000 0.0000 40.3841
#
#
#
# Elastic Compliance Matrix: (Units=1/GPa)
#
#
# Indices 1 2 3 4 5 6 
#
# 1 0.009074 -0.006930 0.006830 0.000000 0.000000 0.000000
# 2 -0.006930 0.021257 -0.024298 0.000000 0.000000 0.000000
# 3 0.006830 -0.024298 0.066438 0.000000 0.000000 0.000000
# 4 0.000000 0.000000 0.000000 0.584387 0.000000 0.000000
# 5 0.000000 0.000000 0.000000 0.000000 -0.300990 0.000000
# 6 0.000000 0.000000 0.000000 0.000000 0.000000 0.024762
#
#
# Mechanical properties :
#
#
# Convention : Reuss Voigt Hill
#
# Bulk Modulus (GPa) = 20.84474 49.90831 35.37653
# Shear Modulus (GPa) = 10.64475 20.09572 15.37024
#
# Velocity S-wave (km/s) = 2.27979 3.13241 2.73948
# Velocity P-wave (km/s) = 4.13614 6.11973 5.22297
#
# Compressibility (1/GPa) = 0.04797373
#
# Stress axis : x y z
#
# Youngs Moduli (GPa) = 110.20515 47.04358 15.05154
#
# Poissons Ratio (x) = 0.32599 -0.10280
# Poissons Ratio (y) = 0.76367 0.36572
# Poissons Ratio (z) = -0.75269 1.14307
#
# Static dielectric constant tensor:
#      x y z
#    x 1.745350 0.000000 0.000000 
#    y 0.000000 1.764390 0.000000 
#    z 0.000000 0.000000 1.707730 
# 
# From -- ./inp_files/11319.got.cif
#   From: 2010.05.17/outbox.cif.g08.bks.cpg/sg43_6_cif.got.tgz:11319.got - 2010.06.03 19:21:55.
