data_PCOD9371544
_publ_section_title
;
Structure prediction by ZEFSAII (Michael W. Deem and Ramdas Pophale) SiO2 
 PCOD9371544
Probable space group: F D D 2
;
_chemical_formula_sum "Si O2"
_cell_formula_units_Z 120
_cell_length_a 13.200407
_cell_length_b 18.796380
_cell_length_c 23.363124
_cell_angle_alpha 90.000000
_cell_angle_beta 90.000000
_cell_angle_gamma 90.000000
_cell_volume 5796.855199
_symmetry_space_group_name_H-M "F D D 2"
_symmetry_group_IT_number 43
_symmetry_cell_setting 'orthorhombic'
loop_
_space_group_symop_operation_xyz
x,y,z
-x,-y,z
1/4-x,1/4+y,1/4+z
1/4+x,1/4-y,1/4+z
x,1/2+y,1/2+z
-x,1/2-y,1/2+z
1/4-x,3/4+y,3/4+z
1/4+x,3/4-y,3/4+z
1/2+x,y,1/2+z
1/2-x,-y,1/2+z
3/4-x,1/4+y,3/4+z
3/4+x,1/4-y,3/4+z
1/2+x,1/2+y,z
1/2-x,1/2-y,z
3/4-x,3/4+y,1/4+z
3/4+x,3/4-y,1/4+z
loop_
_atom_site_type_symbol
_atom_site_label
_atom_site_fract_x
_atom_site_fract_y
_atom_site_fract_z
Si Si1 0.918201 0.435530 0.729740
Si Si2 0.800342 0.879063 0.127548
Si Si3 0.418930 0.165969 0.248762
Si Si4 0.500000 0.000000 0.435998
Si Si5 0.375498 0.926086 0.094492
Si Si6 0.314382 0.178484 0.605986
Si Si7 0.329343 0.331502 0.893842
Si Si8 0.190302 0.049063 0.470798
O O1 0.838652 0.432260 0.677680
O O2 0.877046 0.431043 0.794929
O O3 0.000000 0.500000 0.724630
O O4 0.978843 0.362108 0.724721
O O5 0.823430 0.798864 0.147577
O O6 0.678810 0.877275 0.123976
O O7 0.837209 0.902597 0.065876
O O8 0.314610 0.199701 0.226935
O O9 0.434947 0.095279 0.211178
O O10 0.505374 0.223231 0.231053
O O11 0.269566 0.885584 0.107343
O O12 0.478892 0.888041 0.113554
O O13 0.391137 0.000947 0.127236
O O14 0.379529 0.940363 0.026775
O O15 0.250000 0.250000 0.604829
O O16 0.382874 0.185938 0.661790
#
# Coordination Sequence:
#
# PCOD9371544 Si02
#       8
#    16  16  16   8  16  16  16  16
#     4  10  24  41  63 100 132 164 223 282 345 408
#     4  11  23  43  68  93 135 176 220 277 332 413
#     4  11  23  42  66  98 130 182 223 273 340 405
#     4  10  24  44  62 102 134 176 228 270 340 416
#     4  10  22  42  62  97 128 170 220 272 336 398
#     4  10  23  41  66  96 130 167 220 279 338 399
#     4  10  23  39  63  91 132 164 222 266 322 408
#     4  11  22  40  71  94 130 175 219 277 338 409
#
# _framework density 20.700880000000002
#
# number of rings (size 3 to 8) (size 9 to 14) (size 15 to 20)
#    0.000    1.600    2.667    0.800    4.667    4.267 
#    0.000    1.333    0.000    0.000    0.000    0.000 
#    0.000    0.000    0.000    0.000    0.000    0.000 
#
# Total GULP energy -167198.082272 kJ/mol
# GULP energy per Si atom -5573.269409 kJ/mol
# Density = 2.065376 g / cm^3
# Si number density = 20.700880 Si / 1000 Ang^3
#
#
#
# Elastic Constant Matrix: (Units=GPa)
#
#
# Indices 1 2 3 4 5 6 
#
# 1 44.6017 5.6079 56.8574 0.0000 0.0000 0.0000
# 2 5.6079 70.9242 53.0310 0.0000 0.0000 0.0000
# 3 56.8574 53.0310 213.5585 0.0000 0.0000 0.0000
# 4 0.0000 0.0000 0.0000 -79.8064 0.0000 0.0000
# 5 0.0000 0.0000 0.0000 0.0000 33.1824 0.0000
# 6 0.0000 0.0000 0.0000 0.0000 0.0000 26.5962
#
#
#
# Elastic Compliance Matrix: (Units=1/GPa)
#
#
# Indices 1 2 3 4 5 6 
#
# 1 0.035449 0.005224 -0.010735 0.000000 0.000000 0.000000
# 2 0.005224 0.018084 -0.005881 0.000000 0.000000 0.000000
# 3 -0.010735 -0.005881 0.009001 0.000000 0.000000 0.000000
# 4 0.000000 0.000000 0.000000 -0.012530 0.000000 0.000000
# 5 0.000000 0.000000 0.000000 0.000000 0.030136 0.000000
# 6 0.000000 0.000000 0.000000 0.000000 0.000000 0.037599
#
#
# Mechanical properties :
#
#
# Convention : Reuss Voigt Hill
#
# Bulk Modulus (GPa) = 25.15815 62.23078 43.69447
# Shear Modulus (GPa) = 32.51526 10.23365 21.37446
#
# Velocity S-wave (km/s) = 3.96753 2.22583 3.21680
# Velocity P-wave (km/s) = 5.75916 6.06077 5.91189
#
# Compressibility (1/GPa) = 0.03974856
#
# Stress axis : x y z
#
# Youngs Moduli (GPa) = 28.20992 55.29707 111.09781
#
# Poissons Ratio (x) = -0.28886 1.19262
# Poissons Ratio (y) = -0.14736 0.65341
# Poissons Ratio (z) = 0.30283 0.32523
#
# Static dielectric constant tensor:
#      x y z
#    x 1.844740 0.000000 0.000000 
#    y 0.000000 2.075430 0.000000 
#    z 0.000000 0.000000 1.809780 
# 
# From -- ./inp_files/17714.got.cif
#   From: 2010.05.17/outbox.cif.g08.bks.cpg/sg43_9_cif.got.tgz:17714.got - 2010.06.03 19:21:55.
