data_PCOD9371371
_publ_section_title
;
Structure prediction by ZEFSAII (Michael W. Deem and Ramdas Pophale) SiO2 
 PCOD9371371
Probable space group: F D D 2
;
_chemical_formula_sum "Si O2"
_cell_formula_units_Z 104
_cell_length_a 17.237691
_cell_length_b 34.611138
_cell_length_c 9.212500
_cell_angle_alpha 90.000000
_cell_angle_beta 90.000000
_cell_angle_gamma 90.000000
_cell_volume 5496.325840
_symmetry_space_group_name_H-M "F D D 2"
_symmetry_group_IT_number 43
_symmetry_cell_setting 'orthorhombic'
loop_
_space_group_symop_operation_xyz
x,y,z
-x,-y,z
1/4-x,1/4+y,1/4+z
1/4+x,1/4-y,1/4+z
x,1/2+y,1/2+z
-x,1/2-y,1/2+z
1/4-x,3/4+y,3/4+z
1/4+x,3/4-y,3/4+z
1/2+x,y,1/2+z
1/2-x,-y,1/2+z
3/4-x,1/4+y,3/4+z
3/4+x,1/4-y,3/4+z
1/2+x,1/2+y,z
1/2-x,1/2-y,z
3/4-x,3/4+y,1/4+z
3/4+x,3/4-y,1/4+z
loop_
_atom_site_type_symbol
_atom_site_label
_atom_site_fract_x
_atom_site_fract_y
_atom_site_fract_z
Si Si1 0.475034 0.692911 0.416660
Si Si2 0.000000 0.000000 0.667687
Si Si3 0.031776 0.419026 0.530374
Si Si4 0.813554 0.626694 0.524078
Si Si5 0.350095 0.712813 0.635249
Si Si6 0.868723 0.259830 0.925014
Si Si7 0.160745 0.294230 0.694368
O O1 0.511544 0.652405 0.368537
O O2 0.420993 0.691710 0.558234
O O3 0.546326 0.721816 0.441618
O O4 0.418564 0.706606 0.286976
O O5 0.927324 0.997605 0.778140
O O6 0.980258 0.965059 0.557600
O O7 0.108421 0.396312 0.481496
O O8 0.061230 0.455777 0.625348
O O9 0.982957 0.391095 0.634418
O O10 0.974354 0.435321 0.407814
O O11 0.832287 0.664370 0.619189
O O12 0.369902 0.729802 0.791747
O O13 0.843045 0.238153 0.069971
#
# Coordination Sequence:
#
# PCOD9371371 Si02
#       7
#    16   8  16  16  16  16  16
#     4  10  24  40  60  95 132 157 206 271 311 369
#     4  10  22  36  60  92 118 160 202 272 304 358
#     4  11  22  40  63  90 125 166 214 252 319 378
#     4  11  22  41  62  90 124 172 204 253 316 387
#     4  11  21  42  63  94 127 160 212 267 311 372
#     4  11  21  39  70  90 120 170 215 257 318 378
#     4  11  21  39  64  89 125 162 213 252 316 378
#
# _framework density 18.92173
#
# number of rings (size 3 to 8) (size 9 to 14) (size 15 to 20)
#    0.000    1.231    4.615    1.846    0.000    0.000 
#    5.538    0.000    0.000    0.000    0.000    0.000 
#    0.000    0.000    0.000    0.000    0.000    0.000 
#
# Total GULP energy -145115.972484 kJ/mol
# GULP energy per Si atom -5581.383557 kJ/mol
# Density = 1.887866 g / cm^3
# Si number density = 18.921730 Si / 1000 Ang^3
#
#
#
# Elastic Constant Matrix: (Units=GPa)
#
#
# Indices 1 2 3 4 5 6 
#
# 1 132.8064 49.7527 48.7393 0.0000 0.0000 0.0000
# 2 49.7527 72.4113 28.1626 0.0000 0.0000 0.0000
# 3 48.7393 28.1626 87.3108 0.0000 0.0000 0.0000
# 4 0.0000 0.0000 0.0000 20.5658 0.0000 0.0000
# 5 0.0000 0.0000 0.0000 0.0000 30.5421 0.0000
# 6 0.0000 0.0000 0.0000 0.0000 0.0000 25.7503
#
#
#
# Elastic Compliance Matrix: (Units=1/GPa)
#
#
# Indices 1 2 3 4 5 6 
#
# 1 0.011453 -0.006155 -0.004408 0.000000 0.000000 0.000000
# 2 -0.006155 0.019099 -0.002725 0.000000 0.000000 0.000000
# 3 -0.004408 -0.002725 0.014793 0.000000 0.000000 0.000000
# 4 0.000000 0.000000 0.000000 0.048624 0.000000 0.000000
# 5 0.000000 0.000000 0.000000 0.000000 0.032742 0.000000
# 6 0.000000 0.000000 0.000000 0.000000 0.000000 0.038835
#
#
# Mechanical properties :
#
#
# Convention : Reuss Voigt Hill
#
# Bulk Modulus (GPa) = 53.27796 60.64863 56.96329
# Shear Modulus (GPa) = 25.20447 26.42989 25.81718
#
# Velocity S-wave (km/s) = 3.65367 3.74143 3.69781
# Velocity P-wave (km/s) = 6.78360 7.12646 6.95714
#
# Compressibility (1/GPa) = 0.01876949
#
# Stress axis : x y z
#
# Youngs Moduli (GPa) = 87.31045 52.35983 67.59966
#
# Poissons Ratio (x) = 0.32227 0.29800
# Poissons Ratio (y) = 0.53739 0.18418
# Poissons Ratio (z) = 0.38489 0.14265
#
# Static dielectric constant tensor:
#      x y z
#    x 1.668310 0.000000 0.000000 
#    y 0.000000 1.649770 0.000000 
#    z 0.000000 0.000000 1.648320 
# 
# From -- ./inp_files/3485.got.cif
#   From: 2010.05.17/outbox.cif.g08.bks.cpg/sg43_2_cif.got.tgz:3485.got - 2010.06.03 19:21:55.
