data_PCOD9371148
_publ_section_title
;
Structure prediction by ZEFSAII (Michael W. Deem and Ramdas Pophale) SiO2 
 PCOD9371148
Probable space group: F D D 2
;
_chemical_formula_sum "Si O2"
_cell_formula_units_Z 120
_cell_length_a 19.878210
_cell_length_b 16.896315
_cell_length_c 18.308803
_cell_angle_alpha 90.000000
_cell_angle_beta 90.000000
_cell_angle_gamma 90.000000
_cell_volume 6149.350160
_symmetry_space_group_name_H-M "F D D 2"
_symmetry_group_IT_number 43
_symmetry_cell_setting 'orthorhombic'
loop_
_space_group_symop_operation_xyz
x,y,z
-x,-y,z
1/4-x,1/4+y,1/4+z
1/4+x,1/4-y,1/4+z
x,1/2+y,1/2+z
-x,1/2-y,1/2+z
1/4-x,3/4+y,3/4+z
1/4+x,3/4-y,3/4+z
1/2+x,y,1/2+z
1/2-x,-y,1/2+z
3/4-x,1/4+y,3/4+z
3/4+x,1/4-y,3/4+z
1/2+x,1/2+y,z
1/2-x,1/2-y,z
3/4-x,3/4+y,1/4+z
3/4+x,3/4-y,1/4+z
loop_
_atom_site_type_symbol
_atom_site_label
_atom_site_fract_x
_atom_site_fract_y
_atom_site_fract_z
Si Si1 0.838994 0.118208 0.169610
Si Si2 0.825414 0.216622 0.868186
Si Si3 0.458651 0.418143 0.271217
Si Si4 0.750000 0.750000 0.067181
Si Si5 0.059550 0.809181 0.459752
Si Si6 0.170779 0.553943 0.050135
Si Si7 0.854099 0.123293 0.589930
Si Si8 0.378465 0.597030 0.745841
O O1 0.833667 0.170171 0.095725
O O2 0.766245 0.087537 0.196490
O O3 0.871905 0.165917 0.236559
O O4 0.881457 0.042395 0.143316
O O5 0.750000 0.250000 0.852085
O O6 0.855770 0.165372 0.801727
O O7 0.824601 0.162901 0.941773
O O8 0.500000 0.500000 0.268711
O O9 0.508455 0.344371 0.281272
O O10 0.793090 0.683003 0.106731
O O11 0.807551 0.797736 0.023873
O O12 0.097192 0.829386 0.383224
O O13 0.096884 0.850896 0.525559
O O14 0.068232 0.716313 0.479716
O O15 0.174686 0.460199 0.061637
O O16 0.895791 0.123823 0.664434
#
# Coordination Sequence:
#
# PCOD9371148 Si02
#       8
#    16  16  16   8  16  16  16  16
#     4  11  23  38  70  96 128 177 209 282 341 402
#     4  11  24  44  64 101 136 170 228 279 334 416
#     4  10  22  43  59  95 135 159 218 274 332 398
#     4  10  24  46  64  96 134 178 226 286 344 400
#     4   9  23  42  60 100 127 162 226 275 327 402
#     4  10  21  40  64  94 128 168 211 273 337 396
#     4  10  23  43  68  93 131 175 229 280 338 406
#     4  10  24  43  67  95 134 181 227 278 335 410
#
# _framework density 19.514257000000001
#
# number of rings (size 3 to 8) (size 9 to 14) (size 15 to 20)
#    0.000    1.867    2.667    0.000   10.267    6.400 
#    2.400    0.000    0.000    0.000    0.000    0.000 
#    0.000    0.000    0.000    0.000    0.000    0.000 
#
# Total GULP energy -167127.724693 kJ/mol
# GULP energy per Si atom -5570.924156 kJ/mol
# Density = 1.946984 g / cm^3
# Si number density = 19.514257 Si / 1000 Ang^3
#
#
#
# Elastic Constant Matrix: (Units=GPa)
#
#
# Indices 1 2 3 4 5 6 
#
# 1 41.4468 19.4363 7.1060 0.0000 0.0000 0.0000
# 2 19.4363 75.9665 42.5877 0.0000 0.0000 0.0000
# 3 7.1060 42.5877 121.5216 0.0000 0.0000 0.0000
# 4 0.0000 0.0000 0.0000 29.7544 0.0000 0.0000
# 5 0.0000 0.0000 0.0000 0.0000 52.3929 0.0000
# 6 0.0000 0.0000 0.0000 0.0000 0.0000 22.0592
#
#
#
# Elastic Compliance Matrix: (Units=1/GPa)
#
#
# Indices 1 2 3 4 5 6 
#
# 1 0.027528 -0.007642 0.001069 0.000000 0.000000 0.000000
# 2 -0.007642 0.018504 -0.006038 0.000000 0.000000 0.000000
# 3 0.001069 -0.006038 0.010282 0.000000 0.000000 0.000000
# 4 0.000000 0.000000 0.000000 0.033608 0.000000 0.000000
# 5 0.000000 0.000000 0.000000 0.000000 0.019087 0.000000
# 6 0.000000 0.000000 0.000000 0.000000 0.000000 0.045333
#
#
# Mechanical properties :
#
#
# Convention : Reuss Voigt Hill
#
# Bulk Modulus (GPa) = 32.16336 41.91053 37.03694
# Shear Modulus (GPa) = 26.32570 32.16163 29.24366
#
# Velocity S-wave (km/s) = 3.67693 4.06410 3.87535
# Velocity P-wave (km/s) = 5.87743 6.59894 6.24861
#
# Compressibility (1/GPa) = 0.03109128
#
# Stress axis : x y z
#
# Youngs Moduli (GPa) = 36.32684 54.04277 97.25264
#
# Poissons Ratio (x) = 0.41300 -0.10392
# Poissons Ratio (y) = 0.27761 0.58720
# Poissons Ratio (z) = -0.03882 0.32630
#
# Static dielectric constant tensor:
#      x y z
#    x 1.706200 0.000000 0.000000 
#    y 0.000000 1.710650 0.000000 
#    z 0.000000 0.000000 1.718810 
# 
# From -- ./inp_files/14274.got.cif
#   From: 2010.05.17/outbox.cif.g08.bks.cpg/sg43_8_cif.got.tgz:14274.got - 2010.06.03 19:21:55.
