data_PCOD9371809
_publ_section_title
;
Structure prediction by ZEFSAII (Michael W. Deem and Ramdas Pophale) SiO2 
 PCOD9371809
Probable space group: F D D 2
;
_chemical_formula_sum "Si O2"
_cell_formula_units_Z 112
_cell_length_a 24.373821
_cell_length_b 16.890580
_cell_length_c 13.601306
_cell_angle_alpha 90.000000
_cell_angle_beta 90.000000
_cell_angle_gamma 90.000000
_cell_volume 5599.494104
_symmetry_space_group_name_H-M "F D D 2"
_symmetry_group_IT_number 43
_symmetry_cell_setting 'orthorhombic'
loop_
_space_group_symop_operation_xyz
x,y,z
-x,-y,z
1/4-x,1/4+y,1/4+z
1/4+x,1/4-y,1/4+z
x,1/2+y,1/2+z
-x,1/2-y,1/2+z
1/4-x,3/4+y,3/4+z
1/4+x,3/4-y,3/4+z
1/2+x,y,1/2+z
1/2-x,-y,1/2+z
3/4-x,1/4+y,3/4+z
3/4+x,1/4-y,3/4+z
1/2+x,1/2+y,z
1/2-x,1/2-y,z
3/4-x,3/4+y,1/4+z
3/4+x,3/4-y,1/4+z
loop_
_atom_site_type_symbol
_atom_site_label
_atom_site_fract_x
_atom_site_fract_y
_atom_site_fract_z
Si Si1 0.106065 0.059227 0.501700
Si Si2 0.268574 0.921742 0.696067
Si Si3 0.915208 0.269413 0.079071
Si Si4 0.000000 0.000000 0.615584
Si Si5 0.018906 0.829797 0.708598
Si Si6 0.115002 0.560225 0.368445
Si Si7 0.750000 0.250000 0.695386
Si Si8 0.910795 0.256949 0.424702
O O1 0.097706 0.152345 0.515984
O O2 0.118939 0.017294 0.399405
O O3 0.156588 0.039866 0.574198
O O4 0.052644 0.018983 0.549403
O O5 0.268089 0.919110 0.577444
O O6 0.255544 0.836309 0.742626
O O7 0.220981 0.984805 0.718810
O O8 0.321687 0.953621 0.748130
O O9 0.967079 0.289911 0.151964
O O10 0.014244 0.922061 0.677619
O O11 0.077342 0.793203 0.673765
O O12 0.059710 0.511827 0.393831
O O13 0.104827 0.652384 0.396433
O O14 0.124835 0.540112 0.254127
#
# Coordination Sequence:
#
# PCOD9371809 Si02
#       8
#    16  16  16   8  16  16   8  16
#     4  11  23  40  68  98 136 172 225 287 337 415
#     4  11  23  42  65  99 133 173 218 281 337 410
#     4  11  25  42  66  95 137 184 225 268 342 402
#     4  10  23  38  68 111 126 164 227 292 358 387
#     4  11  21  39  67  98 133 167 221 286 332 407
#     4  11  22  38  62 101 128 169 209 284 341 405
#     4  10  25  38  66  93 136 160 219 272 344 393
#     4  11  21  36  65  97 136 159 215 281 350 390
#
# _framework density 20.001808
#
# number of rings (size 3 to 8) (size 9 to 14) (size 15 to 20)
#    0.000    1.143    4.286    2.143    6.000    1.143 
#    0.000    0.000    3.143    0.857    0.000    0.000 
#    0.000    0.000    0.000    0.000    0.000    0.000 
#
# Total GULP energy -156049.698363 kJ/mol
# GULP energy per Si atom -5573.203513 kJ/mol
# Density = 1.995628 g / cm^3
# Si number density = 20.001808 Si / 1000 Ang^3
#
#
#
# Elastic Constant Matrix: (Units=GPa)
#
#
# Indices 1 2 3 4 5 6 
#
# 1 76.0585 21.2172 23.9270 0.0000 0.0000 0.0000
# 2 21.2172 61.3905 34.6211 0.0000 0.0000 0.0000
# 3 23.9270 34.6211 68.6412 0.0000 0.0000 0.0000
# 4 0.0000 0.0000 0.0000 -3.5266 0.0000 0.0000
# 5 0.0000 0.0000 0.0000 0.0000 21.9011 0.0000
# 6 0.0000 0.0000 0.0000 0.0000 0.0000 30.8614
#
#
#
# Elastic Compliance Matrix: (Units=1/GPa)
#
#
# Indices 1 2 3 4 5 6 
#
# 1 0.015195 -0.003165 -0.003700 0.000000 0.000000 0.000000
# 2 -0.003165 0.023423 -0.010711 0.000000 0.000000 0.000000
# 3 -0.003700 -0.010711 0.021261 0.000000 0.000000 0.000000
# 4 0.000000 0.000000 0.000000 -0.283560 0.000000 0.000000
# 5 0.000000 0.000000 0.000000 0.000000 0.045660 0.000000
# 6 0.000000 0.000000 0.000000 0.000000 0.000000 0.032403
#
#
# Mechanical properties :
#
#
# Convention : Reuss Voigt Hill
#
# Bulk Modulus (GPa) = 40.44217 40.62451 40.53334
# Shear Modulus (GPa) = -48.91237 18.26885 -15.32176
#
# Velocity S-wave (km/s) = -4.95046 3.02546 -2.77071
# Velocity P-wave (km/s) = 3.52320 5.70606 3.17381
#
# Compressibility (1/GPa) = 0.02472667
#
# Stress axis : x y z
#
# Youngs Moduli (GPa) = 65.81260 42.69239 47.03486
#
# Poissons Ratio (x) = 0.13510 0.17405
# Poissons Ratio (y) = 0.20827 0.50380
# Poissons Ratio (z) = 0.24353 0.45728
#
# Static dielectric constant tensor:
#      x y z
#    x 1.767930 0.000000 0.000000 
#    y 0.000000 1.723500 0.000000 
#    z 0.000000 0.000000 1.701890 
# 
# From -- ./inp_files/11290.got.cif
#   From: 2010.05.17/outbox.cif.g08.bks.cpg/sg43_6_cif.got.tgz:11290.got - 2010.06.03 19:21:55.
