data_PCOD9371904
_publ_section_title
;
Structure prediction by ZEFSAII (Michael W. Deem and Ramdas Pophale) SiO2 
 PCOD9371904
Probable space group: F D D 2
;
_chemical_formula_sum "Si O2"
_cell_formula_units_Z 64
_cell_length_a 11.820036
_cell_length_b 15.674440
_cell_length_c 14.255668
_cell_angle_alpha 90.000000
_cell_angle_beta 90.000000
_cell_angle_gamma 90.000000
_cell_volume 2641.182467
_symmetry_space_group_name_H-M "F D D 2"
_symmetry_group_IT_number 43
_symmetry_cell_setting 'orthorhombic'
loop_
_space_group_symop_operation_xyz
x,y,z
-x,-y,z
1/4-x,1/4+y,1/4+z
1/4+x,1/4-y,1/4+z
x,1/2+y,1/2+z
-x,1/2-y,1/2+z
1/4-x,3/4+y,3/4+z
1/4+x,3/4-y,3/4+z
1/2+x,y,1/2+z
1/2-x,-y,1/2+z
3/4-x,1/4+y,3/4+z
3/4+x,1/4-y,3/4+z
1/2+x,1/2+y,z
1/2-x,1/2-y,z
3/4-x,3/4+y,1/4+z
3/4+x,3/4-y,1/4+z
loop_
_atom_site_type_symbol
_atom_site_label
_atom_site_fract_x
_atom_site_fract_y
_atom_site_fract_z
Si Si1 0.129489 0.223340 0.568820
Si Si2 0.119046 0.259713 0.287589
Si Si3 0.461295 0.165257 0.935235
Si Si4 0.904250 0.800260 0.074210
O O1 0.250000 0.250000 0.530835
O O2 0.042870 0.301844 0.570119
O O3 0.065944 0.153850 0.506100
O O4 0.152918 0.173710 0.664122
O O5 0.024405 0.207421 0.345565
O O6 0.118745 0.234896 0.177887
O O7 0.097811 0.360056 0.304692
O O8 0.383008 0.231837 0.991485
O O9 0.000000 0.000000 0.069705
#
# Coordination Sequence:
#
# PCOD9371904 Si02
#       4
#    16  16  16  16
#     4  10  23  44  69 105 146 183 239 291 373 433
#     4  12  24  45  77 103 150 190 251 303 372 448
#     4  10  25  43  74 102 141 189 242 294 366 442
#     4  10  27  44  71 110 145 196 241 310 372 447
#
# _framework density 24.231572
#
# number of rings (size 3 to 8) (size 9 to 14) (size 15 to 20)
#    1.500    0.000    0.000    3.750   10.500    4.000 
#    0.000    0.000    0.000    0.000    0.000    0.000 
#    0.000    0.000    0.000    0.000    0.000    0.000 
#
# Total GULP energy -89300.448969 kJ/mol
# GULP energy per Si atom -5581.278061 kJ/mol
# Density = 2.417642 g / cm^3
# Si number density = 24.231572 Si / 1000 Ang^3
#
#
#
# Elastic Constant Matrix: (Units=GPa)
#
#
# Indices 1 2 3 4 5 6 
#
# 1 77.8359 -5.2073 -13.3251 0.0000 0.0000 0.0000
# 2 -5.2073 69.9084 12.7837 0.0000 0.0000 0.0000
# 3 -13.3251 12.7837 98.5915 0.0000 0.0000 0.0000
# 4 0.0000 0.0000 0.0000 35.2696 0.0000 0.0000
# 5 0.0000 0.0000 0.0000 0.0000 16.1851 0.0000
# 6 0.0000 0.0000 0.0000 0.0000 0.0000 28.3913
#
#
#
# Elastic Compliance Matrix: (Units=1/GPa)
#
#
# Indices 1 2 3 4 5 6 
#
# 1 0.013183 0.000672 0.001695 0.000000 0.000000 0.000000
# 2 0.000672 0.014686 -0.001813 0.000000 0.000000 0.000000
# 3 0.001695 -0.001813 0.010607 0.000000 0.000000 0.000000
# 4 0.000000 0.000000 0.000000 0.028353 0.000000 0.000000
# 5 0.000000 0.000000 0.000000 0.000000 0.061785 0.000000
# 6 0.000000 0.000000 0.000000 0.000000 0.000000 0.035222
#
#
# Mechanical properties :
#
#
# Convention : Reuss Voigt Hill
#
# Bulk Modulus (GPa) = 25.26393 26.09316 25.67854
# Shear Modulus (GPa) = 28.42142 32.77483 30.59813
#
# Velocity S-wave (km/s) = 3.42849 3.68172 3.55736
# Velocity P-wave (km/s) = 5.11091 5.37262 5.24340
#
# Compressibility (1/GPa) = 0.03958213
#
# Stress axis : x y z
#
# Youngs Moduli (GPa) = 75.85752 68.09159 94.27717
#
# Poissons Ratio (x) = -0.04576 -0.15976
# Poissons Ratio (y) = -0.05098 0.17096
# Poissons Ratio (z) = -0.12854 0.12348
#
# Static dielectric constant tensor:
#      x y z
#    x 1.977380 0.000000 0.000000 
#    y 0.000000 1.945170 0.000000 
#    z 0.000000 0.000000 1.935420 
# 
# From -- ./inp_files/9398.got.cif
#   From: 2010.05.17/outbox.cif.g08.bks.cpg/sg43_5_cif.got.tgz:9398.got - 2010.06.03 19:21:55.
