data_PCOD9371764
_publ_section_title
;
Structure prediction by ZEFSAII (Michael W. Deem and Ramdas Pophale) SiO2 
 PCOD9371764
Probable space group: F D D 2
;
_chemical_formula_sum "Si O2"
_cell_formula_units_Z 88
_cell_length_a 23.021086
_cell_length_b 20.642453
_cell_length_c 7.802514
_cell_angle_alpha 90.000000
_cell_angle_beta 90.000000
_cell_angle_gamma 90.000000
_cell_volume 3707.845831
_symmetry_space_group_name_H-M "F D D 2"
_symmetry_group_IT_number 43
_symmetry_cell_setting 'orthorhombic'
loop_
_space_group_symop_operation_xyz
x,y,z
-x,-y,z
1/4-x,1/4+y,1/4+z
1/4+x,1/4-y,1/4+z
x,1/2+y,1/2+z
-x,1/2-y,1/2+z
1/4-x,3/4+y,3/4+z
1/4+x,3/4-y,3/4+z
1/2+x,y,1/2+z
1/2-x,-y,1/2+z
3/4-x,1/4+y,3/4+z
3/4+x,1/4-y,3/4+z
1/2+x,1/2+y,z
1/2-x,1/2-y,z
3/4-x,3/4+y,1/4+z
3/4+x,3/4-y,1/4+z
loop_
_atom_site_type_symbol
_atom_site_label
_atom_site_fract_x
_atom_site_fract_y
_atom_site_fract_z
Si Si1 0.500000 0.000000 0.799840
Si Si2 0.513531 0.793601 0.931179
Si Si3 0.606667 0.685215 0.233743
Si Si4 0.341936 0.848260 0.097433
Si Si5 0.536621 0.661842 0.783043
Si Si6 0.170660 0.815621 0.765105
O O1 0.539145 0.948862 0.900173
O O2 0.456396 0.960681 0.677186
O O3 0.501809 0.821806 0.118745
O O4 0.458649 0.810444 0.810083
O O5 0.570487 0.828730 0.862935
O O6 0.521985 0.716838 0.921954
O O7 0.644015 0.663215 0.398550
O O8 0.630259 0.757670 0.196657
O O9 0.611485 0.630160 0.088059
O O10 0.398203 0.833074 0.208378
O O11 0.534958 0.592240 0.872280
#
# Coordination Sequence:
#
# PCOD9371764 Si02
#       6
#     8  16  16  16  16  16
#     4  10  22  46  74  98 138 186 236 300 358 428
#     4  11  24  45  70 101 143 193 235 303 370 440
#     4  10  24  44  76  99 145 189 244 303 373 444
#     4  10  24  43  69 103 136 184 242 296 357 439
#     4  11  27  42  71 105 141 192 240 297 366 443
#     4  11  24  46  68 109 140 193 242 302 367 447
#
# _framework density 23.733457000000001
#
# number of rings (size 3 to 8) (size 9 to 14) (size 15 to 20)
#    0.000    1.455    1.818    1.091   12.727    1.455 
#    0.000    0.000    0.000    0.000    0.000    0.000 
#    0.000    0.000    0.000    0.000    0.000    0.000 
#
# Total GULP energy -123102.549596 kJ/mol
# GULP energy per Si atom -5595.570436 kJ/mol
# Density = 2.367944 g / cm^3
# Si number density = 23.733457 Si / 1000 Ang^3
#
#
#
# Elastic Constant Matrix: (Units=GPa)
#
#
# Indices 1 2 3 4 5 6 
#
# 1 48.5909 18.7569 -5.7199 0.0002 -0.0001 0.0000
# 2 18.7569 133.8215 41.0676 0.0006 -0.0002 -0.0002
# 3 -5.7199 41.0676 79.5937 0.0017 -0.0009 -0.0005
# 4 0.0002 0.0006 0.0017 26.2254 -0.0005 -0.0004
# 5 -0.0001 -0.0002 -0.0009 -0.0005 15.5902 0.0002
# 6 0.0000 -0.0002 -0.0005 -0.0004 0.0002 44.5427
#
#
#
# Elastic Compliance Matrix: (Units=1/GPa)
#
#
# Indices 1 2 3 4 5 6 
#
# 1 0.022729 -0.004381 0.003894 0.000000 0.000000 0.000000
# 2 -0.004381 0.009723 -0.005331 0.000000 0.000000 0.000000
# 3 0.003894 -0.005331 0.015594 -0.000001 0.000001 0.000000
# 4 0.000000 0.000000 -0.000001 0.038131 0.000001 0.000000
# 5 0.000000 0.000000 0.000001 0.000001 0.064143 0.000000
# 6 0.000000 0.000000 0.000000 0.000000 0.000000 0.022450
#
#
# Mechanical properties :
#
#
# Convention : Reuss Voigt Hill
#
# Bulk Modulus (GPa) = 27.46519 41.13505 34.30012
# Shear Modulus (GPa) = 25.43953 31.13174 28.28564
#
# Velocity S-wave (km/s) = 3.27752 3.62570 3.45600
# Velocity P-wave (km/s) = 5.09120 5.90740 5.51442
#
# Compressibility (1/GPa) = 0.03640972
#
# Stress axis : x y z
#
# Youngs Moduli (GPa) = 43.99588 102.85109 64.12532
#
# Poissons Ratio (x) = 0.45057 -0.24969
# Poissons Ratio (y) = 0.19274 0.34188
# Poissons Ratio (z) = -0.17131 0.54834
#
# Static dielectric constant tensor:
#      x y z
#    x 1.908810 0.000000 0.000000 
#    y 0.000000 1.903810 0.000000 
#    z 0.000000 0.000000 1.903720 
# 
# From -- ./inp_files/3225.got.cif
#   From: 2010.05.17/outbox.cif.g08.bks.cpg/sg43_2_cif.got.tgz:3225.got - 2010.06.03 19:21:55.
