data_PCOD9371412
_publ_section_title
;
Structure prediction by ZEFSAII (Michael W. Deem and Ramdas Pophale) SiO2 
 PCOD9371412
Probable space group: F D D 2
;
_chemical_formula_sum "Si O2"
_cell_formula_units_Z 120
_cell_length_a 17.919698
_cell_length_b 20.569154
_cell_length_c 14.064147
_cell_angle_alpha 90.000000
_cell_angle_beta 90.000000
_cell_angle_gamma 90.000000
_cell_volume 5183.946526
_symmetry_space_group_name_H-M "F D D 2"
_symmetry_group_IT_number 43
_symmetry_cell_setting 'orthorhombic'
loop_
_space_group_symop_operation_xyz
x,y,z
-x,-y,z
1/4-x,1/4+y,1/4+z
1/4+x,1/4-y,1/4+z
x,1/2+y,1/2+z
-x,1/2-y,1/2+z
1/4-x,3/4+y,3/4+z
1/4+x,3/4-y,3/4+z
1/2+x,y,1/2+z
1/2-x,-y,1/2+z
3/4-x,1/4+y,3/4+z
3/4+x,1/4-y,3/4+z
1/2+x,1/2+y,z
1/2-x,1/2-y,z
3/4-x,3/4+y,1/4+z
3/4+x,3/4-y,1/4+z
loop_
_atom_site_type_symbol
_atom_site_label
_atom_site_fract_x
_atom_site_fract_y
_atom_site_fract_z
Si Si1 0.000000 0.000000 0.007690
Si Si2 0.297018 0.952370 0.971365
Si Si3 0.655780 0.954096 0.582855
Si Si4 0.393179 0.529264 0.612471
Si Si5 0.004092 0.632231 0.384797
Si Si6 0.784749 0.654530 0.922181
Si Si7 0.369214 0.321711 0.535008
Si Si8 0.642837 0.563094 0.273456
O O1 0.924091 0.010903 0.067759
O O2 0.007104 0.064931 0.943702
O O3 0.222942 0.980457 0.019234
O O4 0.312884 0.878600 0.006436
O O5 0.364788 0.993861 0.016851
O O6 0.296639 0.948788 0.857937
O O7 0.672878 0.940732 0.693441
O O8 0.644911 0.881076 0.543919
O O9 0.327920 0.574940 0.650244
O O10 0.414187 0.469144 0.681322
O O11 0.467228 0.572621 0.604121
O O12 0.002441 0.615299 0.273560
O O13 0.934813 0.674280 0.424247
O O14 0.833250 0.598863 0.872578
O O15 0.339689 0.248448 0.541169
#
# Coordination Sequence:
#
# PCOD9371412 Si02
#       8
#     8  16  16  16  16  16  16  16
#     4  10  24  42  62  94 132 172 220 278 348 410
#     4  10  22  41  63  92 127 164 216 271 323 397
#     4  10  23  42  63  90 125 163 213 266 323 399
#     4  10  22  40  65  94 130 177 224 275 338 406
#     4  11  23  40  65  95 131 177 224 279 344 413
#     4  10  23  42  63  96 137 172 222 282 340 403
#     4  10  22  39  61  91 124 166 213 263 324 392
#     4  10  23  39  61  93 126 167 212 263 332 392
#
# _framework density 23.148387
#
# number of rings (size 3 to 8) (size 9 to 14) (size 15 to 20)
#    0.000    1.867    0.000    2.400    0.000   14.400 
#    0.000    2.667    0.000    1.600    0.000    0.000 
#    0.000    0.000    0.000    0.000    0.000    0.000 
#
# Total GULP energy -167503.802697 kJ/mol
# GULP energy per Si atom -5583.460090 kJ/mol
# Density = 2.309570 g / cm^3
# Si number density = 23.148387 Si / 1000 Ang^3
#
#
#
# Elastic Constant Matrix: (Units=GPa)
#
#
# Indices 1 2 3 4 5 6 
#
# 1 75.5988 37.7633 32.3651 0.0000 0.0000 0.0000
# 2 37.7633 135.8968 11.4803 0.0000 0.0000 0.0000
# 3 32.3651 11.4803 118.6844 0.0000 0.0000 0.0000
# 4 0.0000 0.0000 0.0000 29.8358 0.0000 0.0000
# 5 0.0000 0.0000 0.0000 0.0000 16.0670 0.0000
# 6 0.0000 0.0000 0.0000 0.0000 0.0000 29.5913
#
#
#
# Elastic Compliance Matrix: (Units=1/GPa)
#
#
# Indices 1 2 3 4 5 6 
#
# 1 0.017279 -0.004440 -0.004282 0.000000 0.000000 0.000000
# 2 -0.004440 0.008560 0.000383 0.000000 0.000000 0.000000
# 3 -0.004282 0.000383 0.009557 0.000000 0.000000 0.000000
# 4 0.000000 0.000000 0.000000 0.033517 0.000000 0.000000
# 5 0.000000 0.000000 0.000000 0.000000 0.062239 0.000000
# 6 0.000000 0.000000 0.000000 0.000000 0.000000 0.033794
#
#
# Mechanical properties :
#
#
# Convention : Reuss Voigt Hill
#
# Bulk Modulus (GPa) = 53.42926 54.82192 54.12559
# Shear Modulus (GPa) = 26.61517 31.67024 29.14271
#
# Velocity S-wave (km/s) = 3.39450 3.70285 3.55202
# Velocity P-wave (km/s) = 6.20442 6.48195 6.34470
#
# Compressibility (1/GPa) = 0.01871634
#
# Stress axis : x y z
#
# Youngs Moduli (GPa) = 57.87419 116.82367 104.64069
#
# Poissons Ratio (x) = 0.51866 0.44812
# Poissons Ratio (y) = 0.25694 -0.04005
# Poissons Ratio (z) = 0.24784 -0.04471
#
# Static dielectric constant tensor:
#      x y z
#    x 1.847270 0.000000 0.000000 
#    y 0.000000 1.970880 0.000000 
#    z 0.000000 0.000000 1.906860 
# 
# From -- ./inp_files/7211.got.cif
#   From: 2010.05.17/outbox.cif.g08.bks.cpg/sg43_4_cif.got.tgz:7211.got - 2010.06.03 19:21:55.
