data_PCOD9371880
_publ_section_title
;
Structure prediction by ZEFSAII (Michael W. Deem and Ramdas Pophale) SiO2 
 PCOD9371880
Probable space group: F D D 2
;
_chemical_formula_sum "Si O2"
_cell_formula_units_Z 96
_cell_length_a 20.317733
_cell_length_b 15.216095
_cell_length_c 13.785110
_cell_angle_alpha 90.000000
_cell_angle_beta 90.000000
_cell_angle_gamma 90.000000
_cell_volume 4261.757125
_symmetry_space_group_name_H-M "F D D 2"
_symmetry_group_IT_number 43
_symmetry_cell_setting 'orthorhombic'
loop_
_space_group_symop_operation_xyz
x,y,z
-x,-y,z
1/4-x,1/4+y,1/4+z
1/4+x,1/4-y,1/4+z
x,1/2+y,1/2+z
-x,1/2-y,1/2+z
1/4-x,3/4+y,3/4+z
1/4+x,3/4-y,3/4+z
1/2+x,y,1/2+z
1/2-x,-y,1/2+z
3/4-x,1/4+y,3/4+z
3/4+x,1/4-y,3/4+z
1/2+x,1/2+y,z
1/2-x,1/2-y,z
3/4-x,3/4+y,1/4+z
3/4+x,3/4-y,1/4+z
loop_
_atom_site_type_symbol
_atom_site_label
_atom_site_fract_x
_atom_site_fract_y
_atom_site_fract_z
Si Si1 0.002485 0.239615 0.663840
Si Si2 0.207444 0.669002 0.724453
Si Si3 0.018652 0.383339 0.806721
Si Si4 0.695711 0.179930 0.508285
Si Si5 0.556915 0.236701 0.455283
Si Si6 0.888444 0.964328 0.334565
O O1 0.990662 0.335579 0.711074
O O2 0.082103 0.239354 0.649263
O O3 0.973761 0.165897 0.734263
O O4 0.967078 0.228137 0.560447
O O5 0.250000 0.750000 0.768814
O O6 0.178806 0.698628 0.621246
O O7 0.259413 0.595673 0.692552
O O8 0.153137 0.614145 0.783833
O O9 0.050280 0.309663 0.873726
O O10 0.073901 0.455642 0.778310
O O11 0.956113 0.418611 0.869097
O O12 0.750000 0.250000 0.478496
O O13 0.629297 0.198563 0.452990
#
# Coordination Sequence:
#
# PCOD9371880 Si02
#       6
#    16  16  16  16  16  16
#     4  11  25  43  71 101 136 186 231 288 347 426
#     4  10  23  43  70 101 141 184 233 297 344 421
#     4  11  24  47  71  98 147 179 231 301 340 435
#     4  11  24  42  67  99 139 184 229 285 347 416
#     4  11  25  42  69 103 134 185 236 283 357 414
#     4  10  25  45  70 106 136 186 234 282 370 405
#
# _framework density 22.525919999999999
#
# number of rings (size 3 to 8) (size 9 to 14) (size 15 to 20)
#    0.000    1.333    1.667    2.000   11.667    1.333 
#   18.000    0.000    0.000    0.000    0.000    0.000 
#    0.000    0.000    0.000    0.000    0.000    0.000 
#
# Total GULP energy -133812.120749 kJ/mol
# GULP energy per Si atom -5575.505031 kJ/mol
# Density = 2.247465 g / cm^3
# Si number density = 22.525920 Si / 1000 Ang^3
#
#
#
# Elastic Constant Matrix: (Units=GPa)
#
#
# Indices 1 2 3 4 5 6 
#
# 1 153.0201 43.6603 15.3278 0.0000 0.0000 0.0000
# 2 43.6603 114.9944 14.7358 0.0000 0.0000 0.0000
# 3 15.3278 14.7358 50.2193 0.0000 0.0000 0.0000
# 4 0.0000 0.0000 0.0000 -2.3161 0.0000 0.0000
# 5 0.0000 0.0000 0.0000 0.0000 -19.9645 0.0000
# 6 0.0000 0.0000 0.0000 0.0000 0.0000 24.8030
#
#
#
# Elastic Compliance Matrix: (Units=1/GPa)
#
#
# Indices 1 2 3 4 5 6 
#
# 1 0.007436 -0.002631 -0.001497 0.000000 0.000000 0.000000
# 2 -0.002631 0.009967 -0.002121 0.000000 0.000000 0.000000
# 3 -0.001497 -0.002121 0.020992 0.000000 0.000000 0.000000
# 4 0.000000 0.000000 0.000000 -0.431765 0.000000 0.000000
# 5 0.000000 0.000000 0.000000 0.000000 -0.050089 0.000000
# 6 0.000000 0.000000 0.000000 0.000000 0.000000 0.040318
#
#
# Mechanical properties :
#
#
# Convention : Reuss Voigt Hill
#
# Bulk Modulus (GPa) = 38.61811 51.74237 45.18024
# Shear Modulus (GPa) = -13.08871 16.80514 1.85822
#
# Velocity S-wave (km/s) = -2.41311 2.73433 0.90924
# Velocity P-wave (km/s) = 3.06870 5.74358 4.60465
#
# Compressibility (1/GPa) = 0.02589459
#
# Stress axis : x y z
#
# Youngs Moduli (GPa) = 134.48340 100.33146 47.63671
#
# Poissons Ratio (x) = 0.26400 0.07133
# Poissons Ratio (y) = 0.35387 0.10106
# Poissons Ratio (z) = 0.20138 0.21285
#
# Static dielectric constant tensor:
#      x y z
#    x 1.853580 0.000000 0.000000 
#    y 0.000000 1.928220 0.000000 
#    z 0.000000 0.000000 1.951040 
# 
# From -- ./inp_files/10083.got.cif
#   From: 2010.05.17/outbox.cif.g08.bks.cpg/sg43_6_cif.got.tgz:10083.got - 2010.06.03 19:21:55.
