data_PCOD9371487
_publ_section_title
;
Structure prediction by ZEFSAII (Michael W. Deem and Ramdas Pophale) SiO2 
 PCOD9371487
Probable space group: F D D 2
;
_chemical_formula_sum "Si O2"
_cell_formula_units_Z 96
_cell_length_a 21.242276
_cell_length_b 11.723408
_cell_length_c 15.634255
_cell_angle_alpha 90.000000
_cell_angle_beta 90.000000
_cell_angle_gamma 90.000000
_cell_volume 3893.427734
_symmetry_space_group_name_H-M "F D D 2"
_symmetry_group_IT_number 43
_symmetry_cell_setting 'orthorhombic'
loop_
_space_group_symop_operation_xyz
x,y,z
-x,-y,z
1/4-x,1/4+y,1/4+z
1/4+x,1/4-y,1/4+z
x,1/2+y,1/2+z
-x,1/2-y,1/2+z
1/4-x,3/4+y,3/4+z
1/4+x,3/4-y,3/4+z
1/2+x,y,1/2+z
1/2-x,-y,1/2+z
3/4-x,1/4+y,3/4+z
3/4+x,1/4-y,3/4+z
1/2+x,1/2+y,z
1/2-x,1/2-y,z
3/4-x,3/4+y,1/4+z
3/4+x,3/4-y,1/4+z
loop_
_atom_site_type_symbol
_atom_site_label
_atom_site_fract_x
_atom_site_fract_y
_atom_site_fract_z
Si Si1 0.839536 0.859685 0.616410
Si Si2 0.266587 0.022081 0.337265
Si Si3 0.608556 0.367356 0.908505
Si Si4 0.403361 0.073737 0.068277
Si Si5 0.520176 0.683732 0.884642
Si Si6 0.863666 0.373287 0.849681
O O1 0.848495 0.855523 0.718736
O O2 0.839113 0.729307 0.591367
O O3 0.896215 0.937634 0.578874
O O4 0.779302 0.938758 0.596097
O O5 0.327876 0.090058 0.366769
O O6 0.261593 0.046951 0.235911
O O7 0.297581 0.431078 0.377717
O O8 0.286442 0.890873 0.353474
O O9 0.542674 0.381061 0.858001
O O10 0.615454 0.228888 0.909778
O O11 0.604600 0.420512 0.002947
O O12 0.338719 0.117271 0.113431
#
# Coordination Sequence:
#
# PCOD9371487 Si02
#       6
#    16  16  16  16  16  16
#     4   9  19  39  61  90 120 154 214 253 309 368
#     4  10  22  41  61  90 127 162 210 255 317 376
#     4  11  24  41  62  90 128 173 201 257 316 375
#     4   9  19  39  63  88 118 159 205 263 305 367
#     4   8  21  41  61  89 120 163 208 260 312 368
#     4  11  24  41  62  91 130 165 208 258 311 380
#
# _framework density 24.656936999999999
#
# number of rings (size 3 to 8) (size 9 to 14) (size 15 to 20)
#    1.000    1.333    0.000    1.500    2.333    3.333 
#    3.000    6.667    0.000    0.000    0.000    0.000 
#    0.000    0.000    0.000    0.000    0.000    0.000 
#
# Total GULP energy -133905.394656 kJ/mol
# GULP energy per Si atom -5579.391444 kJ/mol
# Density = 2.460082 g / cm^3
# Si number density = 24.656937 Si / 1000 Ang^3
#
#
#
# Elastic Constant Matrix: (Units=GPa)
#
#
# Indices 1 2 3 4 5 6 
#
# 1 109.2162 2.7362 6.0902 0.0000 0.0000 0.0000
# 2 2.7362 80.2043 5.2172 0.0000 0.0000 0.0000
# 3 6.0902 5.2172 46.1329 0.0000 0.0000 0.0000
# 4 0.0000 0.0000 0.0000 31.0498 0.0000 0.0000
# 5 0.0000 0.0000 0.0000 0.0000 12.3398 0.0000
# 6 0.0000 0.0000 0.0000 0.0000 0.0000 46.4121
#
#
#
# Elastic Compliance Matrix: (Units=1/GPa)
#
#
# Indices 1 2 3 4 5 6 
#
# 1 0.009229 -0.000237 -0.001191 0.000000 0.000000 0.000000
# 2 -0.000237 0.012567 -0.001390 0.000000 0.000000 0.000000
# 3 -0.001191 -0.001390 0.021991 0.000000 0.000000 0.000000
# 4 0.000000 0.000000 0.000000 0.032206 0.000000 0.000000
# 5 0.000000 0.000000 0.000000 0.000000 0.081039 0.000000
# 6 0.000000 0.000000 0.000000 0.000000 0.000000 0.021546
#
#
# Mechanical properties :
#
#
# Convention : Reuss Voigt Hill
#
# Bulk Modulus (GPa) = 26.21307 29.29341 27.75324
# Shear Modulus (GPa) = 25.38963 32.72765 29.05864
#
# Velocity S-wave (km/s) = 3.21240 3.64719 3.43668
# Velocity P-wave (km/s) = 4.94101 5.44447 5.19883
#
# Compressibility (1/GPa) = 0.03814891
#
# Stress axis : x y z
#
# Youngs Moduli (GPa) = 108.35958 79.57561 45.47318
#
# Poissons Ratio (x) = 0.01889 0.05418
# Poissons Ratio (y) = 0.02572 0.06320
# Poissons Ratio (z) = 0.12911 0.11060
#
# Static dielectric constant tensor:
#      x y z
#    x 1.998780 0.000000 0.000000 
#    y 0.000000 2.032730 0.000000 
#    z 0.000000 0.000000 1.912520 
# 
# From -- ./inp_files/14833.got.cif
#   From: 2010.05.17/outbox.cif.g08.bks.cpg/sg43_8_cif.got.tgz:14833.got - 2010.06.03 19:21:55.
