data_PCOD9371727
_publ_section_title
;
Structure prediction by ZEFSAII (Michael W. Deem and Ramdas Pophale) SiO2 
 PCOD9371727
Probable space group: F D D 2
;
_chemical_formula_sum "Si O2"
_cell_formula_units_Z 72
_cell_length_a 23.029919
_cell_length_b 23.141800
_cell_length_c 5.874459
_cell_angle_alpha 90.000000
_cell_angle_beta 90.000000
_cell_angle_gamma 90.000000
_cell_volume 3130.815127
_symmetry_space_group_name_H-M "F D D 2"
_symmetry_group_IT_number 43
_symmetry_cell_setting 'orthorhombic'
loop_
_space_group_symop_operation_xyz
x,y,z
-x,-y,z
1/4-x,1/4+y,1/4+z
1/4+x,1/4-y,1/4+z
x,1/2+y,1/2+z
-x,1/2-y,1/2+z
1/4-x,3/4+y,3/4+z
1/4+x,3/4-y,3/4+z
1/2+x,y,1/2+z
1/2-x,-y,1/2+z
3/4-x,1/4+y,3/4+z
3/4+x,1/4-y,3/4+z
1/2+x,1/2+y,z
1/2-x,1/2-y,z
3/4-x,3/4+y,1/4+z
3/4+x,3/4-y,1/4+z
loop_
_atom_site_type_symbol
_atom_site_label
_atom_site_fract_x
_atom_site_fract_y
_atom_site_fract_z
Si Si1 0.695668 0.934263 0.599560
Si Si2 0.250000 0.250000 0.964981
Si Si3 0.314152 0.953880 0.297356
Si Si4 0.424484 0.420500 0.033647
Si Si5 0.141170 0.735761 0.164607
O O1 0.698956 0.997685 0.487674
O O2 0.504683 0.826545 0.984277
O O3 0.691310 0.888981 0.397712
O O4 0.639897 0.936184 0.765559
O O5 0.197913 0.223476 0.814766
O O6 0.278608 0.200462 0.120755
O O7 0.364689 0.914087 0.396281
O O8 0.342568 0.986704 0.080844
O O9 0.412209 0.465726 0.236455
#
# Coordination Sequence:
#
# PCOD9371727 Si02
#       5
#    16   8  16  16  16
#     4  11  22  46  74 101 141 186 236 295 351 417
#     4  10  22  48  68 104 148 180 244 284 352 426
#     4  10  22  45  69 104 140 179 240 291 345 422
#     4  10  24  45  68 109 138 189 232 291 360 417
#     4  10  22  45  69 101 140 185 233 295 340 429
#
# _framework density 22.997208000000001
#
# number of rings (size 3 to 8) (size 9 to 14) (size 15 to 20)
#    0.000    1.778    2.222    0.667    0.000    3.556 
#   32.000    0.000    0.000    0.000    0.000    0.000 
#    0.000    0.000    0.000    0.000    0.000    0.000 
#
# Total GULP energy -100806.038375 kJ/mol
# GULP energy per Si atom -5600.335465 kJ/mol
# Density = 2.294487 g / cm^3
# Si number density = 22.997208 Si / 1000 Ang^3
#
#
#
# Elastic Constant Matrix: (Units=GPa)
#
#
# Indices 1 2 3 4 5 6 
#
# 1 141.8561 50.3828 45.4404 0.0488 0.0740 0.0054
# 2 50.3828 65.1673 23.3364 0.0506 0.0141 -0.0184
# 3 45.4404 23.3364 91.4066 0.0627 0.0886 -0.0140
# 4 0.0488 0.0506 0.0627 29.8086 -0.0438 -0.0361
# 5 0.0740 0.0141 0.0886 -0.0438 36.8545 0.0091
# 6 0.0054 -0.0184 -0.0140 -0.0361 0.0091 15.6681
#
#
#
# Elastic Compliance Matrix: (Units=1/GPa)
#
#
# Indices 1 2 3 4 5 6 
#
# 1 0.010654 -0.006978 -0.003515 0.000002 -0.000010 -0.000015
# 2 -0.006978 0.021460 -0.002010 -0.000021 0.000011 0.000026
# 3 -0.003515 -0.002010 0.013200 -0.000019 -0.000024 0.000011
# 4 0.000002 -0.000021 -0.000019 0.033548 0.000040 0.000077
# 5 -0.000010 0.000011 -0.000024 0.000040 0.027134 -0.000016
# 6 -0.000015 0.000026 0.000011 0.000077 -0.000016 0.063824
#
#
# Mechanical properties :
#
#
# Convention : Reuss Voigt Hill
#
# Bulk Modulus (GPa) = 49.23940 59.63879 54.43910
# Shear Modulus (GPa) = 24.80229 28.41759 26.60994
#
# Velocity S-wave (km/s) = 3.28760 3.51906 3.40530
# Velocity P-wave (km/s) = 5.98904 6.51929 6.25978
#
# Compressibility (1/GPa) = 0.02030894
#
# Stress axis : x y z
#
# Youngs Moduli (GPa) = 93.86484 46.59876 75.75475
#
# Poissons Ratio (x) = 0.32517 0.26625
# Poissons Ratio (y) = 0.65499 0.15225
# Poissons Ratio (z) = 0.32990 0.09365
#
# Static dielectric constant tensor:
#      x y z
#    x 1.831090 0.000000 0.000010 
#    y 0.000000 1.854810 -0.000010 
#    z 0.000010 -0.000010 1.858990 
# 
# From -- ./inp_files/776.got.cif
#   From: 2010.05.17/outbox.cif.g08.bks.cpg/sg43_1_cif.got.tgz:776.got - 2010.06.03 19:21:55.
