data_PCOD9371023
_publ_section_title
;
Structure prediction by ZEFSAII (Michael W. Deem and Ramdas Pophale) SiO2 
 PCOD9371023
Probable space group: F D D 2
;
_chemical_formula_sum "Si O2"
_cell_formula_units_Z 112
_cell_length_a 12.611558
_cell_length_b 24.033452
_cell_length_c 13.992399
_cell_angle_alpha 90.000000
_cell_angle_beta 90.000000
_cell_angle_gamma 90.000000
_cell_volume 4241.085976
_symmetry_space_group_name_H-M "F D D 2"
_symmetry_group_IT_number 43
_symmetry_cell_setting 'orthorhombic'
loop_
_space_group_symop_operation_xyz
x,y,z
-x,-y,z
1/4-x,1/4+y,1/4+z
1/4+x,1/4-y,1/4+z
x,1/2+y,1/2+z
-x,1/2-y,1/2+z
1/4-x,3/4+y,3/4+z
1/4+x,3/4-y,3/4+z
1/2+x,y,1/2+z
1/2-x,-y,1/2+z
3/4-x,1/4+y,3/4+z
3/4+x,1/4-y,3/4+z
1/2+x,1/2+y,z
1/2-x,1/2-y,z
3/4-x,3/4+y,1/4+z
3/4+x,3/4-y,1/4+z
loop_
_atom_site_type_symbol
_atom_site_label
_atom_site_fract_x
_atom_site_fract_y
_atom_site_fract_z
Si Si1 0.363987 0.828497 0.112340
Si Si2 0.416515 0.257183 0.963663
Si Si3 0.637208 0.370745 0.176552
Si Si4 0.871751 0.676119 0.279320
Si Si5 0.684501 0.105483 0.723964
Si Si6 0.466207 0.412097 0.729867
Si Si7 0.224511 0.512565 0.992953
O O1 0.253695 0.842565 0.165871
O O2 0.432653 0.884609 0.130263
O O3 0.412401 0.776409 0.167377
O O4 0.370654 0.827003 0.997509
O O5 0.510564 0.296261 0.999359
O O6 0.383030 0.199327 0.013841
O O7 0.314374 0.296729 0.972152
O O8 0.435387 0.244773 0.852140
O O9 0.553815 0.324166 0.210872
O O10 0.617401 0.382972 0.065856
O O11 0.784931 0.648016 0.211364
O O12 0.852239 0.661916 0.390774
O O13 0.984610 0.642235 0.278672
O O14 0.905261 0.737916 0.248547
#
# Coordination Sequence:
#
# PCOD9371023 Si02
#       7
#    16  16  16  16  16  16  16
#     4  11  23  37  60  91 125 166 207 261 321 388
#     4   9  17  34  61  87 114 148 205 269 308 362
#     4  12  24  39  60  89 131 171 208 254 328 400
#     4   9  20  38  60  84 112 153 209 260 310 364
#     4  10  21  37  56  81 118 162 201 251 312 381
#     4   9  17  32  60  89 113 142 198 267 317 350
#     4  10  21  38  61  90 120 160 211 263 314 377
#
# _framework density 26.408331
#
# number of rings (size 3 to 8) (size 9 to 14) (size 15 to 20)
#    0.000    2.000    1.429    2.143    2.000    5.714 
#    0.000    0.000    0.000    1.714    0.000    0.000 
#    0.000    0.000    0.000    0.000    0.000    0.000 
#
# Total GULP energy -156265.776652 kJ/mol
# GULP energy per Si atom -5580.920595 kJ/mol
# Density = 2.634822 g / cm^3
# Si number density = 26.408331 Si / 1000 Ang^3
#
#
#
# Elastic Constant Matrix: (Units=GPa)
#
#
# Indices 1 2 3 4 5 6 
#
# 1 56.7224 22.0566 22.7414 0.0000 0.0000 0.0000
# 2 22.0566 86.9405 -0.7660 0.0000 0.0000 0.0000
# 3 22.7414 -0.7660 100.4551 0.0000 0.0000 0.0000
# 4 0.0000 0.0000 0.0000 636.0163 0.0000 0.0000
# 5 0.0000 0.0000 0.0000 0.0000 31.3244 0.0000
# 6 0.0000 0.0000 0.0000 0.0000 0.0000 24.9750
#
#
#
# Elastic Compliance Matrix: (Units=1/GPa)
#
#
# Indices 1 2 3 4 5 6 
#
# 1 0.021791 -0.005572 -0.004976 0.000000 0.000000 0.000000
# 2 -0.005572 0.012928 0.001360 0.000000 0.000000 0.000000
# 3 -0.004976 0.001360 0.011091 0.000000 0.000000 0.000000
# 4 0.000000 0.000000 0.000000 0.001572 0.000000 0.000000
# 5 0.000000 0.000000 0.000000 0.000000 0.031924 0.000000
# 6 0.000000 0.000000 0.000000 0.000000 0.000000 0.040040
#
#
# Mechanical properties :
#
#
# Convention : Reuss Voigt Hill
#
# Bulk Modulus (GPa) = 36.45003 36.90909 36.67956
# Shear Modulus (GPa) = 34.04422 151.80218 92.92320
#
# Velocity S-wave (km/s) = 3.59436 7.58996 5.93830
# Velocity P-wave (km/s) = 5.57300 9.52978 7.80625
#
# Compressibility (1/GPa) = 0.02743482
#
# Stress axis : x y z
#
# Youngs Moduli (GPa) = 45.88971 77.35285 90.15924
#
# Poissons Ratio (x) = 0.43103 0.44861
# Poissons Ratio (y) = 0.25571 -0.12262
# Poissons Ratio (z) = 0.22833 -0.10520
#
# Static dielectric constant tensor:
#      x y z
#    x 2.205720 0.000000 0.000000 
#    y 0.000000 1.521480 0.000000 
#    z 0.000000 0.000000 2.286930 
# 
# From -- ./inp_files/10336.got.cif
#   From: 2010.05.17/outbox.cif.g08.bks.cpg/sg43_6_cif.got.tgz:10336.got - 2010.06.03 19:21:55.
