data_PCOD9371338
_publ_section_title
;
Structure prediction by ZEFSAII (Michael W. Deem and Ramdas Pophale) SiO2 
 PCOD9371338
Probable space group: F D D 2
;
_chemical_formula_sum "Si O2"
_cell_formula_units_Z 80
_cell_length_a 5.393965
_cell_length_b 20.999868
_cell_length_c 26.413170
_cell_angle_alpha 90.000000
_cell_angle_beta 90.000000
_cell_angle_gamma 90.000000
_cell_volume 2991.887199
_symmetry_space_group_name_H-M "F D D 2"
_symmetry_group_IT_number 43
_symmetry_cell_setting 'orthorhombic'
loop_
_space_group_symop_operation_xyz
x,y,z
-x,-y,z
1/4-x,1/4+y,1/4+z
1/4+x,1/4-y,1/4+z
x,1/2+y,1/2+z
-x,1/2-y,1/2+z
1/4-x,3/4+y,3/4+z
1/4+x,3/4-y,3/4+z
1/2+x,y,1/2+z
1/2-x,-y,1/2+z
3/4-x,1/4+y,3/4+z
3/4+x,1/4-y,3/4+z
1/2+x,1/2+y,z
1/2-x,1/2-y,z
3/4-x,3/4+y,1/4+z
3/4+x,3/4-y,1/4+z
loop_
_atom_site_type_symbol
_atom_site_label
_atom_site_fract_x
_atom_site_fract_y
_atom_site_fract_z
Si Si1 0.370254 0.682278 0.617430
Si Si2 0.941900 0.573605 0.954264
Si Si3 0.510604 0.362486 0.298529
Si Si4 0.756836 0.462253 0.733060
Si Si5 0.995902 0.421350 0.635705
O O1 0.250000 0.750000 0.607842
O O2 0.425753 0.673389 0.677394
O O3 0.611126 0.665843 0.584641
O O4 0.171807 0.629075 0.606405
O O5 0.087866 0.630276 0.924989
O O6 0.000000 0.500000 0.941255
O O7 0.027360 0.585386 0.011241
O O8 0.302955 0.395869 0.262441
O O9 0.418380 0.308684 0.338487
O O10 0.500000 0.500000 0.741871
O O11 0.807314 0.459259 0.672151
O O12 0.000000 0.500000 0.750701
#
# Coordination Sequence:
#
# PCOD9371338 Si02
#       5
#    16  16  16  16  16
#     4  11  23  42  72 103 146 198 252 315 378 448
#     4  10  21  45  69 102 144 192 246 309 386 441
#     4  10  26  42  72 113 144 195 259 312 368 463
#     4  11  28  48  75 107 153 202 247 311 385 446
#     4  10  24  45  68 102 148 194 246 310 374 450
#
# _framework density 26.738973999999999
#
# number of rings (size 3 to 8) (size 9 to 14) (size 15 to 20)
#    0.000    1.600    2.000    0.000   14.000    1.600 
#    3.600    0.000    0.000    0.000    0.000    0.000 
#    0.000    0.000    0.000    0.000    0.000    0.000 
#
# Total GULP energy -111593.230674 kJ/mol
# GULP energy per Si atom -5579.661534 kJ/mol
# Density = 2.667811 g / cm^3
# Si number density = 26.738974 Si / 1000 Ang^3
#
#
#
# Elastic Constant Matrix: (Units=GPa)
#
#
# Indices 1 2 3 4 5 6 
#
# 1 72.6917 20.9715 25.6176 0.0000 0.0000 0.0000
# 2 20.9715 61.2248 14.9100 0.0000 0.0000 0.0000
# 3 25.6176 14.9100 179.8719 0.0000 0.0000 0.0000
# 4 0.0000 0.0000 0.0000 11.1939 0.0000 0.0000
# 5 0.0000 0.0000 0.0000 0.0000 80.5665 0.0000
# 6 0.0000 0.0000 0.0000 0.0000 0.0000 44.3610
#
#
#
# Elastic Compliance Matrix: (Units=1/GPa)
#
#
# Indices 1 2 3 4 5 6 
#
# 1 0.015843 -0.004978 -0.001844 0.000000 0.000000 0.000000
# 2 -0.004978 0.018234 -0.000803 0.000000 0.000000 0.000000
# 3 -0.001844 -0.000803 0.005889 0.000000 0.000000 0.000000
# 4 0.000000 0.000000 0.000000 0.089334 0.000000 0.000000
# 5 0.000000 0.000000 0.000000 0.000000 0.012412 0.000000
# 6 0.000000 0.000000 0.000000 0.000000 0.000000 0.022542
#
#
# Mechanical properties :
#
#
# Convention : Reuss Voigt Hill
#
# Bulk Modulus (GPa) = 40.45768 48.53184 44.49476
# Shear Modulus (GPa) = 26.63256 44.04357 35.33806
#
# Velocity S-wave (km/s) = 3.15940 4.06293 3.63932
# Velocity P-wave (km/s) = 5.33597 6.34031 5.85970
#
# Compressibility (1/GPa) = 0.02471718
#
# Stress axis : x y z
#
# Youngs Moduli (GPa) = 63.12133 54.84361 169.81911
#
# Poissons Ratio (x) = 0.27299 0.31310
# Poissons Ratio (y) = 0.31419 0.13628
# Poissons Ratio (z) = 0.11638 0.04401
#
# Static dielectric constant tensor:
#      x y z
#    x 2.072150 0.000000 0.000000 
#    y 0.000000 2.404130 0.000000 
#    z 0.000000 0.000000 2.117550 
# 
# From -- ./inp_files/23556.got.cif
#   From: 2010.05.17/outbox.cif.g08.bks.cpg/sg43_12_cif.got.tgz:23556.got - 2010.06.03 19:21:55.
