data_PCOD9371367
_publ_section_title
;
Structure prediction by ZEFSAII (Michael W. Deem and Ramdas Pophale) SiO2 
 PCOD9371367
Probable space group: F D D 2
;
_chemical_formula_sum "Si O2"
_cell_formula_units_Z 64
_cell_length_a 31.234864
_cell_length_b 5.410101
_cell_length_c 17.764365
_cell_angle_alpha 90.000000
_cell_angle_beta 90.000000
_cell_angle_gamma 90.000000
_cell_volume 3001.889351
_symmetry_space_group_name_H-M "F D D 2"
_symmetry_group_IT_number 43
_symmetry_cell_setting 'orthorhombic'
loop_
_space_group_symop_operation_xyz
x,y,z
-x,-y,z
1/4-x,1/4+y,1/4+z
1/4+x,1/4-y,1/4+z
x,1/2+y,1/2+z
-x,1/2-y,1/2+z
1/4-x,3/4+y,3/4+z
1/4+x,3/4-y,3/4+z
1/2+x,y,1/2+z
1/2-x,-y,1/2+z
3/4-x,1/4+y,3/4+z
3/4+x,1/4-y,3/4+z
1/2+x,1/2+y,z
1/2-x,1/2-y,z
3/4-x,3/4+y,1/4+z
3/4+x,3/4-y,1/4+z
loop_
_atom_site_type_symbol
_atom_site_label
_atom_site_fract_x
_atom_site_fract_y
_atom_site_fract_z
Si Si1 0.358117 0.557293 0.678060
Si Si2 0.274739 0.004922 0.081174
Si Si3 0.553104 0.171195 0.162234
Si Si4 0.177625 0.918867 0.845488
O O1 0.321002 0.495482 0.619540
O O2 0.395919 0.356295 0.680256
O O3 0.384968 0.793274 0.647428
O O4 0.337599 0.580443 0.759812
O O5 0.250000 0.750000 0.095867
O O6 0.250000 0.250000 0.109445
O O7 0.280341 0.040503 0.991635
O O8 0.548933 0.415633 0.113414
O O9 0.545183 0.911672 0.119265
#
# Coordination Sequence:
#
# PCOD9371367 Si02
#       4
#    16  16  16  16
#     4  10  23  41  68  99 128 172 232 269 319 401
#     4  12  27  44  67  99 143 175 211 282 353 385
#     4  10  22  42  64  97 122 182 218 267 316 412
#     4  10  22  35  73  90 128 159 242 264 310 374
#
# _framework density 21.319906
#
# number of rings (size 3 to 8) (size 9 to 14) (size 15 to 20)
#    1.500    0.000    2.500    1.500   10.500    0.000 
#    0.000    7.500    0.000    0.000    0.000    0.000 
#    0.000    0.000    0.000    0.000    0.000    0.000 
#
# Total GULP energy -89283.470524 kJ/mol
# GULP energy per Si atom -5580.216908 kJ/mol
# Density = 2.127138 g / cm^3
# Si number density = 21.319906 Si / 1000 Ang^3
#
#
#
# Elastic Constant Matrix: (Units=GPa)
#
#
# Indices 1 2 3 4 5 6 
#
# 1 60.4648 21.3387 -17.6068 0.0004 -0.0006 0.0006
# 2 21.3387 158.3950 23.3808 0.0002 -0.0010 0.0010
# 3 -17.6068 23.3808 83.6488 -0.0001 -0.0005 0.0005
# 4 0.0004 0.0002 -0.0001 -11.7414 -0.0012 -0.0002
# 5 -0.0006 -0.0010 -0.0005 -0.0012 34.3436 -0.0002
# 6 0.0006 0.0010 0.0005 -0.0002 -0.0002 6.7906
#
#
#
# Elastic Compliance Matrix: (Units=1/GPa)
#
#
# Indices 1 2 3 4 5 6 
#
# 1 0.019151 -0.003312 0.004956 0.000001 0.000000 -0.000002
# 2 -0.003312 0.007158 -0.002698 0.000000 0.000000 -0.000001
# 3 0.004956 -0.002698 0.013752 0.000000 0.000000 -0.000001
# 4 0.000001 0.000000 0.000000 -0.085169 -0.000003 -0.000002
# 5 0.000000 0.000000 0.000000 -0.000003 0.029117 0.000001
# 6 -0.000002 -0.000001 -0.000001 -0.000002 0.000001 0.147263
#
#
# Mechanical properties :
#
#
# Convention : Reuss Voigt Hill
#
# Bulk Modulus (GPa) = 26.34717 39.63712 32.99214
# Shear Modulus (GPa) = 34.23982 24.23829 29.23906
#
# Velocity S-wave (km/s) = 4.01184 3.37543 3.70732
# Velocity P-wave (km/s) = 5.81762 5.81578 5.81670
#
# Compressibility (1/GPa) = 0.03795475
#
# Stress axis : x y z
#
# Youngs Moduli (GPa) = 52.21791 139.71040 72.71652
#
# Poissons Ratio (x) = 0.46266 -0.36042
# Poissons Ratio (y) = 0.17292 0.19617
# Poissons Ratio (z) = -0.25882 0.37689
#
# Static dielectric constant tensor:
#      x y z
#    x 1.853250 0.000000 0.000000 
#    y 0.000000 1.774150 0.000000 
#    z 0.000000 0.000000 1.701380 
# 
# From -- ./inp_files/12147.got.cif
#   From: 2010.05.17/outbox.cif.g08.bks.cpg/sg43_7_cif.got.tgz:12147.got - 2010.06.03 19:21:55.
