data_PCOD9371664
_publ_section_title
;
Structure prediction by ZEFSAII (Michael W. Deem and Ramdas Pophale) SiO2 
 PCOD9371664
Probable space group: F D D 2
;
_chemical_formula_sum "Si O2"
_cell_formula_units_Z 112
_cell_length_a 20.664315
_cell_length_b 22.516459
_cell_length_c 10.452783
_cell_angle_alpha 90.000000
_cell_angle_beta 90.000000
_cell_angle_gamma 90.000000
_cell_volume 4863.546150
_symmetry_space_group_name_H-M "F D D 2"
_symmetry_group_IT_number 43
_symmetry_cell_setting 'orthorhombic'
loop_
_space_group_symop_operation_xyz
x,y,z
-x,-y,z
1/4-x,1/4+y,1/4+z
1/4+x,1/4-y,1/4+z
x,1/2+y,1/2+z
-x,1/2-y,1/2+z
1/4-x,3/4+y,3/4+z
1/4+x,3/4-y,3/4+z
1/2+x,y,1/2+z
1/2-x,-y,1/2+z
3/4-x,1/4+y,3/4+z
3/4+x,1/4-y,3/4+z
1/2+x,1/2+y,z
1/2-x,1/2-y,z
3/4-x,3/4+y,1/4+z
3/4+x,3/4-y,1/4+z
loop_
_atom_site_type_symbol
_atom_site_label
_atom_site_fract_x
_atom_site_fract_y
_atom_site_fract_z
Si Si1 0.301500 0.331243 0.632500
Si Si2 0.373985 0.498444 0.727327
Si Si3 0.325649 0.126502 0.025106
Si Si4 0.419952 0.949501 0.802877
Si Si5 0.354912 0.127618 0.300931
Si Si6 0.437856 0.201890 0.737380
Si Si7 0.717460 0.545581 0.929172
O O1 0.351813 0.350576 0.744417
O O2 0.318666 0.270799 0.555088
O O3 0.224279 0.323625 0.654853
O O4 0.309132 0.386929 0.541344
O O5 0.426030 0.446865 0.750584
O O6 0.385217 0.560783 0.799584
O O7 0.357907 0.492765 0.577619
O O8 0.308729 0.472035 0.791344
O O9 0.309369 0.119260 0.175344
O O10 0.276957 0.090742 0.936082
O O11 0.425455 0.908574 0.675871
O O12 0.346731 0.945814 0.851776
O O13 0.409328 0.174154 0.255139
O O14 0.506057 0.234382 0.736041
#
# Coordination Sequence:
#
# PCOD9371664 Si02
#       7
#    16  16  16  16  16  16  16
#     4  10  23  43  68 100 138 187 240 306 366 448
#     4  10  23  41  66  98 133 183 239 295 367 444
#     4  10  22  44  66  99 136 182 242 290 375 442
#     4  11  24  42  68 100 143 185 243 309 373 441
#     4  11  24  42  66 103 142 184 242 299 379 447
#     4  11  23  40  68  98 138 183 241 297 372 439
#     4  11  23  40  69  93 137 186 235 306 357 455
#
# _framework density 23.028465000000001
#
# number of rings (size 3 to 8) (size 9 to 14) (size 15 to 20)
#    0.000    1.429    2.857    0.857    2.000   12.000 
#    0.000    2.857    0.000    0.000    0.000    0.000 
#    0.000    0.000    0.000    0.000    0.000    0.000 
#
# Total GULP energy -156002.470467 kJ/mol
# GULP energy per Si atom -5571.516802 kJ/mol
# Density = 2.297605 g / cm^3
# Si number density = 23.028465 Si / 1000 Ang^3
#
#
#
# Elastic Constant Matrix: (Units=GPa)
#
#
# Indices 1 2 3 4 5 6 
#
# 1 37.3386 -2.4520 6.5707 0.0000 0.0000 0.0000
# 2 -2.4520 148.0569 37.8471 0.0000 0.0000 0.0000
# 3 6.5707 37.8471 84.2192 0.0000 0.0000 0.0000
# 4 0.0000 0.0000 0.0000 31.6152 0.0000 0.0000
# 5 0.0000 0.0000 0.0000 0.0000 23.0405 0.0000
# 6 0.0000 0.0000 0.0000 0.0000 0.0000 26.5751
#
#
#
# Elastic Compliance Matrix: (Units=1/GPa)
#
#
# Indices 1 2 3 4 5 6 
#
# 1 0.027320 0.001127 -0.002638 0.000000 0.000000 0.000000
# 2 0.001127 0.007677 -0.003538 0.000000 0.000000 0.000000
# 3 -0.002638 -0.003538 0.013670 0.000000 0.000000 0.000000
# 4 0.000000 0.000000 0.000000 0.031630 0.000000 0.000000
# 5 0.000000 0.000000 0.000000 0.000000 0.043402 0.000000
# 6 0.000000 0.000000 0.000000 0.000000 0.000000 0.037629
#
#
# Mechanical properties :
#
#
# Convention : Reuss Voigt Hill
#
# Bulk Modulus (GPa) = 25.92775 39.28293 32.60534
# Shear Modulus (GPa) = 27.13226 31.42277 29.27751
#
# Velocity S-wave (km/s) = 3.43622 3.69795 3.56948
# Velocity P-wave (km/s) = 5.19875 5.94378 5.58370
#
# Compressibility (1/GPa) = 0.03856871
#
# Stress axis : x y z
#
# Youngs Moduli (GPa) = 36.60308 130.25559 73.15556
#
# Poissons Ratio (x) = -0.14677 0.19297
# Poissons Ratio (y) = -0.04124 0.25882
# Poissons Ratio (z) = 0.09655 0.46084
#
# Static dielectric constant tensor:
#      x y z
#    x 1.934580 0.000000 0.000000 
#    y 0.000000 1.927950 0.000000 
#    z 0.000000 0.000000 1.902040 
# 
# From -- ./inp_files/7169.got.cif
#   From: 2010.05.17/outbox.cif.g08.bks.cpg/sg43_4_cif.got.tgz:7169.got - 2010.06.03 19:21:55.
