data_PCOD9371428
_publ_section_title
;
Structure prediction by ZEFSAII (Michael W. Deem and Ramdas Pophale) SiO2 
 PCOD9371428
Probable space group: F D D 2
;
_chemical_formula_sum "Si O2"
_cell_formula_units_Z 104
_cell_length_a 33.115244
_cell_length_b 19.262225
_cell_length_c 7.689214
_cell_angle_alpha 90.000000
_cell_angle_beta 90.000000
_cell_angle_gamma 90.000000
_cell_volume 4904.744161
_symmetry_space_group_name_H-M "F D D 2"
_symmetry_group_IT_number 43
_symmetry_cell_setting 'orthorhombic'
loop_
_space_group_symop_operation_xyz
x,y,z
-x,-y,z
1/4-x,1/4+y,1/4+z
1/4+x,1/4-y,1/4+z
x,1/2+y,1/2+z
-x,1/2-y,1/2+z
1/4-x,3/4+y,3/4+z
1/4+x,3/4-y,3/4+z
1/2+x,y,1/2+z
1/2-x,-y,1/2+z
3/4-x,1/4+y,3/4+z
3/4+x,1/4-y,3/4+z
1/2+x,1/2+y,z
1/2-x,1/2-y,z
3/4-x,3/4+y,1/4+z
3/4+x,3/4-y,1/4+z
loop_
_atom_site_type_symbol
_atom_site_label
_atom_site_fract_x
_atom_site_fract_y
_atom_site_fract_z
Si Si1 0.177099 0.838813 0.137030
Si Si2 0.786533 0.055803 0.403149
Si Si3 0.322901 0.838813 0.894023
Si Si4 0.786533 0.444198 0.627904
Si Si5 0.750000 0.250000 0.015526
Si Si6 0.896032 0.784657 0.197439
Si Si7 0.103968 0.284657 0.833614
O O1 0.186418 0.891369 0.294364
O O2 0.141553 0.788230 0.200431
O O3 0.218873 0.799322 0.114056
O O4 0.163457 0.886145 0.971658
O O5 0.750000 0.086181 0.515526
O O6 0.768768 0.000000 0.265526
O O7 0.817372 0.013310 0.521623
O O8 0.313582 0.891370 0.736688
O O9 0.281127 0.799322 0.916996
O O10 0.358447 0.788231 0.830622
O O11 0.336543 0.886146 0.059395
O O12 0.817372 0.486691 0.509430
O O13 0.883001 0.750000 0.015526
#
# Coordination Sequence:
#
# PCOD9371428 Si02
#       7
#    16  16  16  16   8  16  16
#     4  10  26  43  64  99 132 176 220 269 338 399
#     4  10  22  39  67  99 128 169 226 268 318 394
#     4  10  26  43  64  99 132 176 220 269 338 399
#     4  10  22  39  67  99 128 169 226 268 318 394
#     4  12  28  44  66  88 148 168 202 286 336 380
#     4  10  23  43  71  96 130 175 224 275 326 392
#     4  10  23  43  71  96 130 175 224 275 326 392
#
# _framework density 21.203959999999999
#
# number of rings (size 3 to 8) (size 9 to 14) (size 15 to 20)
#    0.000    1.846    0.000    0.923   23.692    3.692 
#    0.000    0.000    0.000    0.000    0.000    0.000 
#    0.000    0.000    0.000    0.000    0.000    0.000 
#
# Total GULP energy -145001.761063 kJ/mol
# GULP energy per Si atom -5576.990810 kJ/mol
# Density = 2.115570 g / cm^3
# Si number density = 21.203960 Si / 1000 Ang^3
#
#
#
# Elastic Constant Matrix: (Units=GPa)
#
#
# Indices 1 2 3 4 5 6 
#
# 1 136.7732 34.7900 24.0272 0.0000 0.0000 0.0000
# 2 34.7900 64.9385 37.0312 0.0000 0.0000 0.0000
# 3 24.0272 37.0312 75.4154 0.0000 0.0000 0.0000
# 4 0.0000 0.0000 0.0000 38.5724 0.0000 0.0000
# 5 0.0000 0.0000 0.0000 0.0000 36.7272 0.0000
# 6 0.0000 0.0000 0.0000 0.0000 0.0000 66.6697
#
#
#
# Elastic Compliance Matrix: (Units=1/GPa)
#
#
# Indices 1 2 3 4 5 6 
#
# 1 0.008488 -0.004174 -0.000655 0.000000 0.000000 0.000000
# 2 -0.004174 0.023441 -0.010180 0.000000 0.000000 0.000000
# 3 -0.000655 -0.010180 0.018467 0.000000 0.000000 0.000000
# 4 0.000000 0.000000 0.000000 0.025925 0.000000 0.000000
# 5 0.000000 0.000000 0.000000 0.000000 0.027228 0.000000
# 6 0.000000 0.000000 0.000000 0.000000 0.000000 0.014999
#
#
# Mechanical properties :
#
#
# Convention : Reuss Voigt Hill
#
# Bulk Modulus (GPa) = 49.07231 52.09152 50.58191
# Shear Modulus (GPa) = 32.18353 40.47911 36.33132
#
# Velocity S-wave (km/s) = 3.90013 4.37399 4.14384
# Velocity P-wave (km/s) = 6.59353 7.08020 6.84119
#
# Compressibility (1/GPa) = 0.02037809
#
# Stress axis : x y z
#
# Youngs Moduli (GPa) = 117.81183 42.66094 54.14993
#
# Poissons Ratio (x) = 0.17807 0.03545
# Poissons Ratio (y) = 0.49175 0.55126
# Poissons Ratio (z) = 0.07713 0.43430
#
# Static dielectric constant tensor:
#      x y z
#    x 1.722210 0.000000 0.000000 
#    y 0.000000 1.847730 0.000000 
#    z 0.000000 0.000000 1.818900 
# 
# From -- ./inp_files/4233.got.cif
#   From: 2010.05.17/outbox.cif.g08.bks.cpg/sg43_3_cif.got.tgz:4233.got - 2010.06.03 19:21:55.
