data_PCOD9371322
_publ_section_title
;
Structure prediction by ZEFSAII (Michael W. Deem and Ramdas Pophale) SiO2 
 PCOD9371322
Probable space group: F D D 2
;
_chemical_formula_sum "Si O2"
_cell_formula_units_Z 120
_cell_length_a 8.797163
_cell_length_b 25.661239
_cell_length_c 23.072406
_cell_angle_alpha 90.000000
_cell_angle_beta 90.000000
_cell_angle_gamma 90.000000
_cell_volume 5208.505724
_symmetry_space_group_name_H-M "F D D 2"
_symmetry_group_IT_number 43
_symmetry_cell_setting 'orthorhombic'
loop_
_space_group_symop_operation_xyz
x,y,z
-x,-y,z
1/4-x,1/4+y,1/4+z
1/4+x,1/4-y,1/4+z
x,1/2+y,1/2+z
-x,1/2-y,1/2+z
1/4-x,3/4+y,3/4+z
1/4+x,3/4-y,3/4+z
1/2+x,y,1/2+z
1/2-x,-y,1/2+z
3/4-x,1/4+y,3/4+z
3/4+x,1/4-y,3/4+z
1/2+x,1/2+y,z
1/2-x,1/2-y,z
3/4-x,3/4+y,1/4+z
3/4+x,3/4-y,1/4+z
loop_
_atom_site_type_symbol
_atom_site_label
_atom_site_fract_x
_atom_site_fract_y
_atom_site_fract_z
Si Si1 0.424291 0.254003 0.466840
Si Si2 0.179182 0.646623 0.369262
Si Si3 0.124979 0.906451 0.922513
Si Si4 0.998092 0.756112 0.832424
Si Si5 0.857814 0.301400 0.554353
Si Si6 0.880199 0.644732 0.980943
Si Si7 0.500000 0.000000 0.497413
Si Si8 0.633596 0.598217 0.518207
O O1 0.250000 0.250000 0.484016
O O2 0.438275 0.249915 0.397377
O O3 0.527937 0.213616 0.502860
O O4 0.497387 0.309158 0.481772
O O5 0.287357 0.654054 0.423405
O O6 0.295436 0.621461 0.321434
O O7 0.025271 0.623386 0.398984
O O8 0.131700 0.701424 0.340979
O O9 0.192925 0.927587 0.861485
O O10 0.239544 0.882348 0.970984
O O11 0.068912 0.956995 0.956229
O O12 0.128720 0.776909 0.789874
O O13 0.950108 0.702141 0.801380
O O14 0.750000 0.250000 0.565962
O O15 0.742423 0.345993 0.531553
O O16 0.979891 0.592231 0.979468
#
# Coordination Sequence:
#
# PCOD9371322 Si02
#       8
#    16  16  16  16  16  16   8  16
#     4  11  23  42  73 104 134 191 253 320 374 454
#     4  12  25  46  73 103 144 201 253 314 382 463
#     4  11  25  46  72 104 148 200 251 311 394 471
#     4  11  23  44  72 103 147 193 256 310 376 459
#     4  10  21  44  70  94 139 189 241 298 390 454
#     4  11  24  44  67 104 141 187 251 315 379 455
#     4  10  24  44  72 106 146 196 250 314 386 464
#     4  11  26  45  67 109 146 195 250 319 378 457
#
# _framework density 23.039238000000001
#
# number of rings (size 3 to 8) (size 9 to 14) (size 15 to 20)
#    0.000    1.067    5.333    0.400    3.733    0.000 
#    4.800    2.667    0.000    0.000    0.000    0.000 
#    0.000    0.000    0.000    0.000    0.000    0.000 
#
# Total GULP energy -167143.448868 kJ/mol
# GULP energy per Si atom -5571.448296 kJ/mol
# Density = 2.298680 g / cm^3
# Si number density = 23.039238 Si / 1000 Ang^3
#
#
#
# Elastic Constant Matrix: (Units=GPa)
#
#
# Indices 1 2 3 4 5 6 
#
# 1 133.4614 22.4778 77.5854 0.0000 0.0000 0.0000
# 2 22.4778 30.1237 36.0415 0.0000 0.0000 0.0000
# 3 77.5854 36.0415 168.8605 0.0000 0.0000 0.0000
# 4 0.0000 0.0000 0.0000 10.0513 0.0000 0.0000
# 5 0.0000 0.0000 0.0000 0.0000 -25.1019 0.0000
# 6 0.0000 0.0000 0.0000 0.0000 0.0000 24.5264
#
#
#
# Elastic Compliance Matrix: (Units=1/GPa)
#
#
# Indices 1 2 3 4 5 6 
#
# 1 0.010389 -0.002741 -0.004189 0.000000 0.000000 0.000000
# 2 -0.002741 0.045304 -0.008410 0.000000 0.000000 0.000000
# 3 -0.004189 -0.008410 0.009642 0.000000 0.000000 0.000000
# 4 0.000000 0.000000 0.000000 0.099489 0.000000 0.000000
# 5 0.000000 0.000000 0.000000 0.000000 -0.039838 0.000000
# 6 0.000000 0.000000 0.000000 0.000000 0.000000 0.040772
#
#
# Mechanical properties :
#
#
# Convention : Reuss Voigt Hill
#
# Bulk Modulus (GPa) = 28.85541 67.18388 48.01964
# Shear Modulus (GPa) = 24.03955 14.98457 19.51206
#
# Velocity S-wave (km/s) = 3.23370 2.55305 2.91332
# Velocity P-wave (km/s) = 5.14724 6.15749 5.67489
#
# Compressibility (1/GPa) = 0.03465555
#
# Stress axis : x y z
#
# Youngs Moduli (GPa) = 96.25226 22.07299 103.71714
#
# Poissons Ratio (x) = 0.06050 0.43442
# Poissons Ratio (y) = 0.26383 0.87229
# Poissons Ratio (z) = 0.40315 0.18564
#
# Static dielectric constant tensor:
#      x y z
#    x 1.946990 0.000000 0.000000 
#    y 0.000000 1.978810 0.000000 
#    z 0.000000 0.000000 1.942410 
# 
# From -- ./inp_files/20440.got.cif
#   From: 2010.05.17/outbox.cif.g08.bks.cpg/sg43_11_cif.got.tgz:20440.got - 2010.06.03 19:21:55.
