data_PCOD9371030
_publ_section_title
;
Structure prediction by ZEFSAII (Michael W. Deem and Ramdas Pophale) SiO2 
 PCOD9371030
Probable space group: F D D 2
;
_chemical_formula_sum "Si O2"
_cell_formula_units_Z 120
_cell_length_a 10.977033
_cell_length_b 24.199987
_cell_length_c 18.799439
_cell_angle_alpha 90.000000
_cell_angle_beta 90.000000
_cell_angle_gamma 90.000000
_cell_volume 4993.959225
_symmetry_space_group_name_H-M "F D D 2"
_symmetry_group_IT_number 43
_symmetry_cell_setting 'orthorhombic'
loop_
_space_group_symop_operation_xyz
x,y,z
-x,-y,z
1/4-x,1/4+y,1/4+z
1/4+x,1/4-y,1/4+z
x,1/2+y,1/2+z
-x,1/2-y,1/2+z
1/4-x,3/4+y,3/4+z
1/4+x,3/4-y,3/4+z
1/2+x,y,1/2+z
1/2-x,-y,1/2+z
3/4-x,1/4+y,3/4+z
3/4+x,1/4-y,3/4+z
1/2+x,1/2+y,z
1/2-x,1/2-y,z
3/4-x,3/4+y,1/4+z
3/4+x,3/4-y,1/4+z
loop_
_atom_site_type_symbol
_atom_site_label
_atom_site_fract_x
_atom_site_fract_y
_atom_site_fract_z
Si Si1 0.818836 0.952196 0.252510
Si Si2 0.194792 0.614735 0.191613
Si Si3 0.606831 0.743720 0.892760
Si Si4 0.250000 0.750000 0.891347
Si Si5 0.311831 0.067079 0.829811
Si Si6 0.218007 0.305587 0.129667
Si Si7 0.792190 0.327579 0.772960
Si Si8 0.259842 0.908666 0.541848
O O1 0.690169 0.959175 0.211216
O O2 0.832440 0.890491 0.280772
O O3 0.916106 0.962880 0.190316
O O4 0.833641 0.004078 0.304890
O O5 0.191004 0.555307 0.155150
O O6 0.290885 0.605496 0.257971
O O7 0.172857 0.659723 0.128302
O O8 0.071371 0.627590 0.234554
O O9 0.750000 0.750000 0.888822
O O10 0.558221 0.711906 0.823418
O O11 0.176036 0.709988 0.839234
O O12 0.179349 0.064343 0.870372
O O13 0.250000 0.250000 0.086433
O O14 0.312208 0.298668 0.197477
O O15 0.268757 0.363706 0.103402
O O16 0.644882 0.328128 0.768511
#
# Coordination Sequence:
#
# PCOD9371030 Si02
#       8
#    16  16  16   8  16  16  16  16
#     4  11  25  45  67  98 142 192 245 301 368 450
#     4  10  21  37  63  98 136 182 229 296 369 430
#     4  11  20  37  66 101 140 181 228 306 376 426
#     4  12  26  48  68 106 144 192 252 302 368 452
#     4  10  22  41  65  96 139 179 238 299 361 449
#     4  11  20  34  60 100 128 167 224 294 354 418
#     4  12  21  41  70  94 135 189 239 303 360 432
#     4  11  21  38  65 102 141 176 243 298 358 451
#
# _framework density 24.029031
#
# number of rings (size 3 to 8) (size 9 to 14) (size 15 to 20)
#    0.000    1.067    4.667    3.200    0.000    3.733 
#    4.800    1.333    1.467    0.000    0.000    0.000 
#    0.000    0.000    0.000    0.000    0.000    0.000 
#
# Total GULP energy -167371.497207 kJ/mol
# GULP energy per Si atom -5579.049907 kJ/mol
# Density = 2.397434 g / cm^3
# Si number density = 24.029031 Si / 1000 Ang^3
#
#
#
# Elastic Constant Matrix: (Units=GPa)
#
#
# Indices 1 2 3 4 5 6 
#
# 1 57.3659 14.2776 26.3764 0.0000 0.0000 0.0000
# 2 14.2776 145.8135 48.5101 0.0000 0.0000 0.0000
# 3 26.3764 48.5101 80.4255 0.0000 0.0000 0.0000
# 4 0.0000 0.0000 0.0000 28.9782 0.0000 0.0000
# 5 0.0000 0.0000 0.0000 0.0000 3.5627 0.0000
# 6 0.0000 0.0000 0.0000 0.0000 0.0000 19.8178
#
#
#
# Elastic Compliance Matrix: (Units=1/GPa)
#
#
# Indices 1 2 3 4 5 6 
#
# 1 0.020537 0.000288 -0.006909 0.000000 0.000000 0.000000
# 2 0.000288 0.008584 -0.005272 0.000000 0.000000 0.000000
# 3 -0.006909 -0.005272 0.017879 0.000000 0.000000 0.000000
# 4 0.000000 0.000000 0.000000 0.034509 0.000000 0.000000
# 5 0.000000 0.000000 0.000000 0.000000 0.280683 0.000000
# 6 0.000000 0.000000 0.000000 0.000000 0.000000 0.050460
#
#
# Mechanical properties :
#
#
# Convention : Reuss Voigt Hill
#
# Bulk Modulus (GPa) = 43.07706 51.32590 47.20148
# Shear Modulus (GPa) = 11.25680 23.43447 17.34563
#
# Velocity S-wave (km/s) = 2.16676 3.12630 2.68966
# Velocity P-wave (km/s) = 4.92197 5.86839 5.41589
#
# Compressibility (1/GPa) = 0.02321421
#
# Stress axis : x y z
#
# Youngs Moduli (GPa) = 48.69261 116.49915 55.93020
#
# Poissons Ratio (x) = -0.03350 0.38641
# Poissons Ratio (y) = -0.01400 0.29485
# Poissons Ratio (z) = 0.33641 0.61415
#
# Static dielectric constant tensor:
#      x y z
#    x 1.985920 0.000000 0.000000 
#    y 0.000000 1.912920 0.000000 
#    z 0.000000 0.000000 2.120980 
# 
# From -- ./inp_files/17266.got.cif
#   From: 2010.05.17/outbox.cif.g08.bks.cpg/sg43_9_cif.got.tgz:17266.got - 2010.06.03 19:21:55.
