data_PCOD9371777
_publ_section_title
;
Structure prediction by ZEFSAII (Michael W. Deem and Ramdas Pophale) SiO2 
 PCOD9371777
Probable space group: F D D 2
;
_chemical_formula_sum "Si O2"
_cell_formula_units_Z 88
_cell_length_a 33.542211
_cell_length_b 18.073217
_cell_length_c 4.879552
_cell_angle_alpha 90.000000
_cell_angle_beta 90.000000
_cell_angle_gamma 90.000000
_cell_volume 2958.060827
_symmetry_space_group_name_H-M "F D D 2"
_symmetry_group_IT_number 43
_symmetry_cell_setting 'orthorhombic'
loop_
_space_group_symop_operation_xyz
x,y,z
-x,-y,z
1/4-x,1/4+y,1/4+z
1/4+x,1/4-y,1/4+z
x,1/2+y,1/2+z
-x,1/2-y,1/2+z
1/4-x,3/4+y,3/4+z
1/4+x,3/4-y,3/4+z
1/2+x,y,1/2+z
1/2-x,-y,1/2+z
3/4-x,1/4+y,3/4+z
3/4+x,1/4-y,3/4+z
1/2+x,1/2+y,z
1/2-x,1/2-y,z
3/4-x,3/4+y,1/4+z
3/4+x,3/4-y,1/4+z
loop_
_atom_site_type_symbol
_atom_site_label
_atom_site_fract_x
_atom_site_fract_y
_atom_site_fract_z
Si Si1 0.103773 0.200054 0.655000
Si Si2 0.921533 0.975464 0.097421
Si Si3 0.250000 0.250000 0.443525
Si Si4 0.264013 0.049083 0.705613
Si Si5 0.036352 0.904319 0.774470
Si Si6 0.357916 0.929825 0.386415
O O1 0.125674 0.254133 0.418851
O O2 0.060179 0.183970 0.527171
O O3 0.140419 0.141153 0.665142
O O4 0.101847 0.253908 0.917211
O O5 0.956126 0.988167 0.313316
O O6 0.905010 0.900378 0.972360
O O7 0.002219 0.928601 0.989692
O O8 0.186025 0.224813 0.097190
O O9 0.238628 0.124047 0.768556
O O10 0.252694 0.013615 0.415747
O O11 0.068580 0.840368 0.810902
#
# Coordination Sequence:
#
# PCOD9371777 Si02
#       6
#    16  16   8  16  16  16
#     4  12  27  43  76 111 150 211 262 333 406 489
#     4  10  24  46  75 104 155 202 266 332 403 489
#     4   8  20  46  76 100 146 200 258 332 394 484
#     4  12  27  47  76 112 156 204 261 330 403 479
#     4  10  22  47  75 106 156 200 273 332 404 489
#     4  12  24  46  70 108 154 201 262 330 405 487
#
# _framework density 29.749219
#
# number of rings (size 3 to 8) (size 9 to 14) (size 15 to 20)
#    1.091    0.000    3.636    2.182    5.091    0.000 
#    3.273    3.636    0.000    0.000    0.000    0.000 
#    0.000    0.000    0.000    0.000    0.000    0.000 
#
# Total GULP energy -122476.824185 kJ/mol
# GULP energy per Si atom -5567.128372 kJ/mol
# Density = 2.968151 g / cm^3
# Si number density = 29.749219 Si / 1000 Ang^3
#
#
#
# Elastic Constant Matrix: (Units=GPa)
#
#
# Indices 1 2 3 4 5 6 
#
# 1 229.4528 27.6396 9.5097 -0.0004 -0.0008 -0.0004
# 2 27.6396 122.8083 21.0292 0.0009 -0.0008 -0.0006
# 3 9.5097 21.0292 103.0274 0.0016 -0.0030 -0.0020
# 4 -0.0004 0.0009 0.0016 18.4254 -0.0013 -0.0009
# 5 -0.0008 -0.0008 -0.0030 -0.0013 35.9369 -0.0002
# 6 -0.0004 -0.0006 -0.0020 -0.0009 -0.0002 78.9627
#
#
#
# Elastic Compliance Matrix: (Units=1/GPa)
#
#
# Indices 1 2 3 4 5 6 
#
# 1 0.004484 -0.000972 -0.000215 0.000000 0.000000 0.000000
# 2 -0.000972 0.008649 -0.001676 0.000000 0.000000 0.000000
# 3 -0.000215 -0.001676 0.010068 -0.000001 0.000001 0.000000
# 4 0.000000 0.000000 -0.000001 0.054273 0.000002 0.000001
# 5 0.000000 0.000000 0.000001 0.000002 0.027827 0.000000
# 6 0.000000 0.000000 0.000000 0.000001 0.000000 0.012664
#
#
# Mechanical properties :
#
#
# Convention : Reuss Voigt Hill
#
# Bulk Modulus (GPa) = 57.22727 63.51618 60.37173
# Shear Modulus (GPa) = 38.60531 53.13899 45.87215
#
# Velocity S-wave (km/s) = 3.60626 4.23097 3.93104
# Velocity P-wave (km/s) = 6.05132 6.72793 6.39857
#
# Compressibility (1/GPa) = 0.01747419
#
# Stress axis : x y z
#
# Youngs Moduli (GPa) = 223.00259 115.62665 99.32419
#
# Poissons Ratio (x) = 0.11243 0.02140
# Poissons Ratio (y) = 0.21684 0.16642
# Poissons Ratio (z) = 0.04804 0.19374
#
# Static dielectric constant tensor:
#      x y z
#    x 1.539010 0.000000 0.000000 
#    y 0.000000 2.500130 0.000000 
#    z 0.000000 0.000000 2.495830 
# 
# From -- ./inp_files/1406.got.cif
#   From: 2010.05.17/outbox.cif.g08.bks.cpg/sg43_1_cif.got.tgz:1406.got - 2010.06.03 19:21:55.
