data_PCOD9371490
_publ_section_title
;
Structure prediction by ZEFSAII (Michael W. Deem and Ramdas Pophale) SiO2 
 PCOD9371490
Probable space group: F D D 2
;
_chemical_formula_sum "Si O2"
_cell_formula_units_Z 120
_cell_length_a 18.345170
_cell_length_b 16.232619
_cell_length_c 21.299271
_cell_angle_alpha 90.000000
_cell_angle_beta 90.000000
_cell_angle_gamma 90.000000
_cell_volume 6342.713215
_symmetry_space_group_name_H-M "F D D 2"
_symmetry_group_IT_number 43
_symmetry_cell_setting 'orthorhombic'
loop_
_space_group_symop_operation_xyz
x,y,z
-x,-y,z
1/4-x,1/4+y,1/4+z
1/4+x,1/4-y,1/4+z
x,1/2+y,1/2+z
-x,1/2-y,1/2+z
1/4-x,3/4+y,3/4+z
1/4+x,3/4-y,3/4+z
1/2+x,y,1/2+z
1/2-x,-y,1/2+z
3/4-x,1/4+y,3/4+z
3/4+x,1/4-y,3/4+z
1/2+x,1/2+y,z
1/2-x,1/2-y,z
3/4-x,3/4+y,1/4+z
3/4+x,3/4-y,1/4+z
loop_
_atom_site_type_symbol
_atom_site_label
_atom_site_fract_x
_atom_site_fract_y
_atom_site_fract_z
Si Si1 0.184117 0.075047 0.363210
Si Si2 0.175718 0.519892 0.334690
Si Si3 0.349589 0.963197 0.719911
Si Si4 0.210934 0.554365 0.190203
Si Si5 0.588528 0.678108 0.835185
Si Si6 0.250000 0.750000 0.904326
Si Si7 0.166472 0.732291 0.209547
Si Si8 0.541874 0.918943 0.375266
O O1 0.154050 0.056397 0.293472
O O2 0.217253 0.168211 0.369039
O O3 0.252182 0.011885 0.368639
O O4 0.123976 0.047005 0.414265
O O5 0.186659 0.531084 0.260475
O O6 0.145577 0.608016 0.357297
O O7 0.114983 0.450466 0.343691
O O8 0.431612 0.972037 0.696257
O O9 0.311959 0.888263 0.683090
O O10 0.298338 0.039796 0.697340
O O11 0.177724 0.494022 0.138668
O O12 0.179858 0.644509 0.175586
O O13 0.617929 0.717815 0.771460
O O14 0.512136 0.628972 0.828323
O O15 0.250000 0.750000 0.229702
O O16 0.500000 0.000000 0.397830
#
# Coordination Sequence:
#
# PCOD9371490 Si02
#       8
#    16  16  16  16  16   8  16  16
#     4  11  25  41  63  91 126 172 213 262 319 374
#     4   9  18  38  60  94 127 152 203 259 309 377
#     4  10  22  41  62  92 124 164 210 264 311 383
#     4   9  20  39  64  89 121 158 201 256 317 365
#     4   9  20  37  64  91 117 164 204 255 315 371
#     4  12  24  44  62  94 124 166 220 256 318 394
#     4  11  24  42  59  87 125 168 212 258 305 380
#     4   9  17  36  63  92 125 154 198 262 320 374
#
# _framework density 18.919347999999999
#
# number of rings (size 3 to 8) (size 9 to 14) (size 15 to 20)
#    0.000    2.133    1.333    0.800    1.867    5.333 
#    4.800    3.333    0.000    0.000    0.000    0.000 
#    0.000    0.000    0.000    0.000    0.000    0.000 
#
# Total GULP energy -167123.444273 kJ/mol
# GULP energy per Si atom -5570.781476 kJ/mol
# Density = 1.887629 g / cm^3
# Si number density = 18.919348 Si / 1000 Ang^3
#
#
#
# Elastic Constant Matrix: (Units=GPa)
#
#
# Indices 1 2 3 4 5 6 
#
# 1 110.6301 38.9676 55.0528 0.0000 0.0000 0.0000
# 2 38.9676 103.4388 50.1642 0.0000 0.0000 0.0000
# 3 55.0528 50.1642 65.7358 0.0000 0.0000 0.0000
# 4 0.0000 0.0000 0.0000 5.4355 0.0000 0.0000
# 5 0.0000 0.0000 0.0000 0.0000 20.7652 0.0000
# 6 0.0000 0.0000 0.0000 0.0000 0.0000 21.3829
#
#
#
# Elastic Compliance Matrix: (Units=1/GPa)
#
#
# Indices 1 2 3 4 5 6 
#
# 1 0.015532 0.000726 -0.013562 0.000000 0.000000 0.000000
# 2 0.000726 0.015381 -0.012345 0.000000 0.000000 0.000000
# 3 -0.013562 -0.012345 0.035991 0.000000 0.000000 0.000000
# 4 0.000000 0.000000 0.000000 0.183975 0.000000 0.000000
# 5 0.000000 0.000000 0.000000 0.000000 0.048158 0.000000
# 6 0.000000 0.000000 0.000000 0.000000 0.000000 0.046766
#
#
# Mechanical properties :
#
#
# Convention : Reuss Voigt Hill
#
# Bulk Modulus (GPa) = 60.45365 63.13042 61.79204
# Shear Modulus (GPa) = 12.44768 18.55805 15.50287
#
# Velocity S-wave (km/s) = 2.56781 3.13534 2.86565
# Velocity P-wave (km/s) = 6.38860 6.82259 6.60916
#
# Compressibility (1/GPa) = 0.01654160
#
# Stress axis : x y z
#
# Youngs Moduli (GPa) = 64.38194 65.01403 27.78447
#
# Poissons Ratio (x) = -0.04718 0.37681
# Poissons Ratio (y) = -0.04672 0.34301
# Poissons Ratio (z) = 0.87314 0.80263
#
# Static dielectric constant tensor:
#      x y z
#    x 1.686450 0.000000 0.000000 
#    y 0.000000 1.708900 0.000000 
#    z 0.000000 0.000000 1.603740 
# 
# From -- ./inp_files/18077.got.cif
#   From: 2010.05.17/outbox.cif.g08.bks.cpg/sg43_10_cif.got.tgz:18077.got - 2010.06.03 19:21:55.
