data_PCOD9371957
_publ_section_title
;
Structure prediction by ZEFSAII (Michael W. Deem and Ramdas Pophale) SiO2 
 PCOD9371957
Probable space group: F D D 2
;
_chemical_formula_sum "Si O2"
_cell_formula_units_Z 64
_cell_length_a 15.294276
_cell_length_b 7.194192
_cell_length_c 24.559984
_cell_angle_alpha 90.000000
_cell_angle_beta 90.000000
_cell_angle_gamma 90.000000
_cell_volume 2702.334009
_symmetry_space_group_name_H-M "F D D 2"
_symmetry_group_IT_number 43
_symmetry_cell_setting 'orthorhombic'
loop_
_space_group_symop_operation_xyz
x,y,z
-x,-y,z
1/4-x,1/4+y,1/4+z
1/4+x,1/4-y,1/4+z
x,1/2+y,1/2+z
-x,1/2-y,1/2+z
1/4-x,3/4+y,3/4+z
1/4+x,3/4-y,3/4+z
1/2+x,y,1/2+z
1/2-x,-y,1/2+z
3/4-x,1/4+y,3/4+z
3/4+x,1/4-y,3/4+z
1/2+x,1/2+y,z
1/2-x,1/2-y,z
3/4-x,3/4+y,1/4+z
3/4+x,3/4-y,1/4+z
loop_
_atom_site_type_symbol
_atom_site_label
_atom_site_fract_x
_atom_site_fract_y
_atom_site_fract_z
Si Si1 0.484945 0.219109 0.837590
Si Si2 0.164449 0.649306 0.975074
Si Si3 0.855485 0.226538 0.430630
Si Si4 0.596802 0.015658 0.531898
O O1 0.445602 0.223587 0.776767
O O2 0.416837 0.293318 0.881209
O O3 0.581566 0.299853 0.828794
O O4 0.500000 0.000000 0.846403
O O5 0.250000 0.750000 0.951157
O O6 0.126212 0.494564 0.936259
O O7 0.110239 0.816718 0.001099
O O8 0.750000 0.250000 0.422875
O O9 0.887021 0.334693 0.484402
O O10 0.500000 0.000000 0.554508
#
# Coordination Sequence:
#
# PCOD9371957 Si02
#       4
#    16  16  16  16
#     4   9  22  45  65 105 150 182 244 305 360 429
#     4   9  20  45  68  98 149 180 229 318 353 426
#     4  12  22  44  77 108 138 195 246 301 373 437
#     4  10  23  46  69 103 149 193 236 308 369 430
#
# _framework density 23.683229000000001
#
# number of rings (size 3 to 8) (size 9 to 14) (size 15 to 20)
#    0.000    2.500    5.000    0.000    3.500    0.000 
#   13.500    5.000    0.000    0.000    0.000    0.000 
#    0.000    0.000    0.000    0.000    0.000    0.000 
#
# Total GULP energy -89338.029267 kJ/mol
# GULP energy per Si atom -5583.626829 kJ/mol
# Density = 2.362933 g / cm^3
# Si number density = 23.683229 Si / 1000 Ang^3
#
#
#
# Elastic Constant Matrix: (Units=GPa)
#
#
# Indices 1 2 3 4 5 6 
#
# 1 143.5996 17.8944 68.4480 0.0000 0.0000 0.0000
# 2 17.8944 101.5365 22.2760 0.0000 0.0000 0.0000
# 3 68.4480 22.2760 83.7903 0.0000 0.0000 0.0000
# 4 0.0000 0.0000 0.0000 26.2320 0.0000 0.0000
# 5 0.0000 0.0000 0.0000 0.0000 48.2541 0.0000
# 6 0.0000 0.0000 0.0000 0.0000 0.0000 2.7362
#
#
#
# Elastic Compliance Matrix: (Units=1/GPa)
#
#
# Indices 1 2 3 4 5 6 
#
# 1 0.011405 0.000036 -0.009326 0.000000 0.000000 0.000000
# 2 0.000036 0.010459 -0.002810 0.000000 0.000000 0.000000
# 3 -0.009326 -0.002810 0.020300 0.000000 0.000000 0.000000
# 4 0.000000 0.000000 0.000000 0.038121 0.000000 0.000000
# 5 0.000000 0.000000 0.000000 0.000000 0.020724 0.000000
# 6 0.000000 0.000000 0.000000 0.000000 0.000000 0.365477
#
#
# Mechanical properties :
#
#
# Convention : Reuss Voigt Hill
#
# Bulk Modulus (GPa) = 55.66812 60.68481 58.17647
# Shear Modulus (GPa) = 10.06699 30.13165 20.09932
#
# Velocity S-wave (km/s) = 2.06396 3.57077 2.91636
# Velocity P-wave (km/s) = 5.40705 6.53297 5.99649
#
# Compressibility (1/GPa) = 0.01796360
#
# Stress axis : x y z
#
# Youngs Moduli (GPa) = 87.68367 95.61331 49.26106
#
# Poissons Ratio (x) = -0.00345 0.45941
# Poissons Ratio (y) = -0.00317 0.13842
# Poissons Ratio (z) = 0.81774 0.26868
#
# Static dielectric constant tensor:
#      x y z
#    x 1.972930 0.000000 0.000000 
#    y 0.000000 1.923500 0.000000 
#    z 0.000000 0.000000 1.911080 
# 
# From -- ./inp_files/16133.got.cif
#   From: 2010.05.17/outbox.cif.g08.bks.cpg/sg43_9_cif.got.tgz:16133.got - 2010.06.03 19:21:55.
