data_PCOD9371963
_publ_section_title
;
Structure prediction by ZEFSAII (Michael W. Deem and Ramdas Pophale) SiO2 
 PCOD9371963
Probable space group: F D D 2
;
_chemical_formula_sum "Si O2"
_cell_formula_units_Z 104
_cell_length_a 12.668155
_cell_length_b 23.122318
_cell_length_c 17.707964
_cell_angle_alpha 90.000000
_cell_angle_beta 90.000000
_cell_angle_gamma 90.000000
_cell_volume 5186.965610
_symmetry_space_group_name_H-M "F D D 2"
_symmetry_group_IT_number 43
_symmetry_cell_setting 'orthorhombic'
loop_
_space_group_symop_operation_xyz
x,y,z
-x,-y,z
1/4-x,1/4+y,1/4+z
1/4+x,1/4-y,1/4+z
x,1/2+y,1/2+z
-x,1/2-y,1/2+z
1/4-x,3/4+y,3/4+z
1/4+x,3/4-y,3/4+z
1/2+x,y,1/2+z
1/2-x,-y,1/2+z
3/4-x,1/4+y,3/4+z
3/4+x,1/4-y,3/4+z
1/2+x,1/2+y,z
1/2-x,1/2-y,z
3/4-x,3/4+y,1/4+z
3/4+x,3/4-y,1/4+z
loop_
_atom_site_type_symbol
_atom_site_label
_atom_site_fract_x
_atom_site_fract_y
_atom_site_fract_z
Si Si1 0.864841 0.683487 0.898750
Si Si2 0.500000 0.000000 0.282202
Si Si3 0.202979 0.827635 0.893451
Si Si4 0.750000 0.250000 0.275447
Si Si5 0.250000 0.750000 0.025129
Si Si6 0.413751 0.789578 0.650470
Si Si7 0.151248 0.952614 0.399675
Si Si8 0.086555 0.728822 0.828604
O O1 0.783705 0.698953 0.831313
O O2 0.854791 0.615479 0.912727
O O3 0.978014 0.706042 0.866308
O O4 0.828024 0.716257 0.974742
O O5 0.431719 0.037549 0.341045
O O6 0.209029 0.896047 0.891648
O O7 0.111213 0.796819 0.844201
O O8 0.316589 0.803970 0.868137
O O9 0.190129 0.798259 0.975523
O O10 0.653045 0.233435 0.221673
O O11 0.169788 0.716097 0.077485
O O12 0.489189 0.734898 0.634273
O O13 0.396460 0.783180 0.740224
#
# Coordination Sequence:
#
# PCOD9371963 Si02
#       8
#    16   8  16   8   8  16  16  16
#     4  11  25  46  69  99 145 176 228 289 347 417
#     4  11  30  44  66 107 136 188 228 275 360 410
#     4  10  25  42  74  99 136 175 230 287 339 416
#     4  10  24  44  64 104 126 182 230 274 354 398
#     4   9  22  42  64 111 118 170 232 279 340 386
#     4  12  26  45  69 100 138 185 228 280 345 420
#     4  11  25  40  72  97 137 175 230 284 340 407
#     4  10  23  46  71 101 136 182 224 288 349 404
#
# _framework density 20.050257999999999
#
# number of rings (size 3 to 8) (size 9 to 14) (size 15 to 20)
#    0.000    1.538    1.538    1.846   15.077    0.000 
#    2.769    0.000    0.000    0.000    0.000    0.000 
#    0.000    0.000    0.000    0.000    0.000    0.000 
#
# Total GULP energy -145004.096564 kJ/mol
# GULP energy per Si atom -5577.080637 kJ/mol
# Density = 2.000462 g / cm^3
# Si number density = 20.050258 Si / 1000 Ang^3
#
#
#
# Elastic Constant Matrix: (Units=GPa)
#
#
# Indices 1 2 3 4 5 6 
#
# 1 56.3725 25.4774 28.4928 0.0000 0.0000 0.0000
# 2 25.4774 86.4109 34.6275 0.0000 0.0000 0.0000
# 3 28.4928 34.6275 116.1384 0.0000 0.0000 0.0000
# 4 0.0000 0.0000 0.0000 -995.9382 0.0000 0.0000
# 5 0.0000 0.0000 0.0000 0.0000 70.6470 0.0000
# 6 0.0000 0.0000 0.0000 0.0000 0.0000 25.4974
#
#
#
# Elastic Compliance Matrix: (Units=1/GPa)
#
#
# Indices 1 2 3 4 5 6 
#
# 1 0.021934 -0.004895 -0.003921 0.000000 0.000000 0.000000
# 2 -0.004895 0.014236 -0.003043 0.000000 0.000000 0.000000
# 3 -0.003921 -0.003043 0.010480 0.000000 0.000000 0.000000
# 4 0.000000 0.000000 0.000000 -0.001004 0.000000 0.000000
# 5 0.000000 0.000000 0.000000 0.000000 0.014155 0.000000
# 6 0.000000 0.000000 0.000000 0.000000 0.000000 0.039220
#
#
# Mechanical properties :
#
#
# Convention : Reuss Voigt Hill
#
# Bulk Modulus (GPa) = 43.61392 48.45746 46.03569
# Shear Modulus (GPa) = 38.34847 -168.60381 -65.12767
#
# Velocity S-wave (km/s) = 4.37809 -9.18004 -5.70550
# Velocity P-wave (km/s) = 6.88160 9.38849 4.51593
#
# Compressibility (1/GPa) = 0.02292846
#
# Stress axis : x y z
#
# Youngs Moduli (GPa) = 45.59191 70.24653 95.42066
#
# Poissons Ratio (x) = 0.34389 0.37419
# Poissons Ratio (y) = 0.22319 0.29040
# Poissons Ratio (z) = 0.17879 0.21379
#
# Static dielectric constant tensor:
#      x y z
#    x 1.715690 0.000000 0.000000 
#    y 0.000000 3.511820 0.000000 
#    z 0.000000 0.000000 1.728490 
# 
# From -- ./inp_files/13953.got.cif
#   From: 2010.05.17/outbox.cif.g08.bks.cpg/sg43_7_cif.got.tgz:13953.got - 2010.06.03 19:21:55.
