data_PCOD9371967
_publ_section_title
;
Structure prediction by ZEFSAII (Michael W. Deem and Ramdas Pophale) SiO2 
 PCOD9371967
Probable space group: F D D 2
;
_chemical_formula_sum "Si O2"
_cell_formula_units_Z 96
_cell_length_a 12.193728
_cell_length_b 16.251067
_cell_length_c 19.851124
_cell_angle_alpha 90.000000
_cell_angle_beta 90.000000
_cell_angle_gamma 90.000000
_cell_volume 3933.720384
_symmetry_space_group_name_H-M "F D D 2"
_symmetry_group_IT_number 43
_symmetry_cell_setting 'orthorhombic'
loop_
_space_group_symop_operation_xyz
x,y,z
-x,-y,z
1/4-x,1/4+y,1/4+z
1/4+x,1/4-y,1/4+z
x,1/2+y,1/2+z
-x,1/2-y,1/2+z
1/4-x,3/4+y,3/4+z
1/4+x,3/4-y,3/4+z
1/2+x,y,1/2+z
1/2-x,-y,1/2+z
3/4-x,1/4+y,3/4+z
3/4+x,1/4-y,3/4+z
1/2+x,1/2+y,z
1/2-x,1/2-y,z
3/4-x,3/4+y,1/4+z
3/4+x,3/4-y,1/4+z
loop_
_atom_site_type_symbol
_atom_site_label
_atom_site_fract_x
_atom_site_fract_y
_atom_site_fract_z
Si Si1 0.510286 0.258523 0.283570
Si Si2 0.080597 0.121046 0.084893
Si Si3 0.387402 0.040767 0.151289
Si Si4 0.423957 0.691009 0.975080
Si Si5 0.541676 0.787965 0.140045
Si Si6 0.570959 0.933735 0.826875
O O1 0.414943 0.193465 0.302440
O O2 0.616771 0.225096 0.322520
O O3 0.510699 0.257256 0.203792
O O4 0.505296 0.352074 0.309560
O O5 0.097953 0.092975 0.163850
O O6 0.098691 0.219695 0.093598
O O7 0.975696 0.127953 0.032640
O O8 0.278730 0.013514 0.190621
O O9 0.379842 0.138863 0.160726
O O10 0.500000 0.000000 0.175390
O O11 0.358859 0.761097 0.014030
O O12 0.437795 0.835924 0.109164
O O13 0.500000 0.000000 0.868834
#
# Coordination Sequence:
#
# PCOD9371967 Si02
#       6
#    16  16  16  16  16  16
#     4  11  24  45  72 102 147 195 247 316 383 470
#     4  10  23  46  73 113 146 199 256 325 391 469
#     4  11  23  45  69 109 145 196 255 318 389 465
#     4  10  23  46  76 109 152 202 256 336 386 477
#     4  11  24  45  71 108 145 195 258 318 386 464
#     4  11  25  47  68 105 150 197 254 311 400 475
#
# _framework density 24.404378000000001
#
# number of rings (size 3 to 8) (size 9 to 14) (size 15 to 20)
#    0.000    1.333    3.333    1.000    0.000    8.667 
#    3.000   10.833    0.000    0.000    0.000    0.000 
#    0.000    0.000    0.000    0.000    0.000    0.000 
#
# Total GULP energy -133629.054418 kJ/mol
# GULP energy per Si atom -5567.877267 kJ/mol
# Density = 2.434883 g / cm^3
# Si number density = 24.404378 Si / 1000 Ang^3
#
#
#
# Elastic Constant Matrix: (Units=GPa)
#
#
# Indices 1 2 3 4 5 6 
#
# 1 106.8895 37.6367 30.4031 0.0000 0.0000 0.0000
# 2 37.6367 135.3463 17.1186 0.0000 0.0000 0.0000
# 3 30.4031 17.1186 102.4796 0.0000 0.0000 0.0000
# 4 0.0000 0.0000 0.0000 15.4768 0.0000 0.0000
# 5 0.0000 0.0000 0.0000 0.0000 24.5678 0.0000
# 6 0.0000 0.0000 0.0000 0.0000 0.0000 42.1150
#
#
#
# Elastic Compliance Matrix: (Units=1/GPa)
#
#
# Indices 1 2 3 4 5 6 
#
# 1 0.011127 -0.002734 -0.002844 0.000000 0.000000 0.000000
# 2 -0.002734 0.008220 -0.000562 0.000000 0.000000 0.000000
# 3 -0.002844 -0.000562 0.010696 0.000000 0.000000 0.000000
# 4 0.000000 0.000000 0.000000 0.064613 0.000000 0.000000
# 5 0.000000 0.000000 0.000000 0.000000 0.040704 0.000000
# 6 0.000000 0.000000 0.000000 0.000000 0.000000 0.023745
#
#
# Mechanical properties :
#
#
# Convention : Reuss Voigt Hill
#
# Bulk Modulus (GPa) = 56.30149 57.22581 56.76365
# Shear Modulus (GPa) = 28.19986 33.73573 30.96780
#
# Velocity S-wave (km/s) = 3.40299 3.72205 3.56609
# Velocity P-wave (km/s) = 6.20973 6.47854 6.34556
#
# Compressibility (1/GPa) = 0.01776152
#
# Stress axis : x y z
#
# Youngs Moduli (GPa) = 89.86870 121.65577 93.49505
#
# Poissons Ratio (x) = 0.33267 0.26594
# Poissons Ratio (y) = 0.24575 0.05253
# Poissons Ratio (z) = 0.25562 0.06835
#
# Static dielectric constant tensor:
#      x y z
#    x 2.008620 0.000000 0.000000 
#    y 0.000000 1.972650 0.000000 
#    z 0.000000 0.000000 2.016150 
# 
# From -- ./inp_files/17147.got.cif
#   From: 2010.05.17/outbox.cif.g08.bks.cpg/sg43_9_cif.got.tgz:17147.got - 2010.06.03 19:21:55.
