data_PCOD9371651
_publ_section_title
;
Structure prediction by ZEFSAII (Michael W. Deem and Ramdas Pophale) SiO2 
 PCOD9371651
Probable space group: F D D 2
;
_chemical_formula_sum "Si O2"
_cell_formula_units_Z 120
_cell_length_a 25.998602
_cell_length_b 22.653194
_cell_length_c 8.570547
_cell_angle_alpha 90.000000
_cell_angle_beta 90.000000
_cell_angle_gamma 90.000000
_cell_volume 5047.635439
_symmetry_space_group_name_H-M "F D D 2"
_symmetry_group_IT_number 43
_symmetry_cell_setting 'orthorhombic'
loop_
_space_group_symop_operation_xyz
x,y,z
-x,-y,z
1/4-x,1/4+y,1/4+z
1/4+x,1/4-y,1/4+z
x,1/2+y,1/2+z
-x,1/2-y,1/2+z
1/4-x,3/4+y,3/4+z
1/4+x,3/4-y,3/4+z
1/2+x,y,1/2+z
1/2-x,-y,1/2+z
3/4-x,1/4+y,3/4+z
3/4+x,1/4-y,3/4+z
1/2+x,1/2+y,z
1/2-x,1/2-y,z
3/4-x,3/4+y,1/4+z
3/4+x,3/4-y,1/4+z
loop_
_atom_site_type_symbol
_atom_site_label
_atom_site_fract_x
_atom_site_fract_y
_atom_site_fract_z
Si Si1 0.500000 0.000000 0.823750
Si Si2 0.477675 0.586258 0.608226
Si Si3 0.912312 0.050335 0.120856
Si Si4 0.372288 0.815330 0.529532
Si Si5 0.575782 0.116266 0.277729
Si Si6 0.463632 0.223351 0.022222
Si Si7 0.174078 0.485420 0.823504
Si Si8 0.593079 0.327791 0.279216
O O1 0.547586 0.994310 0.701405
O O2 0.502007 0.944661 0.948404
O O3 0.423610 0.555948 0.653228
O O4 0.521922 0.584156 0.741430
O O5 0.465979 0.656973 0.594492
O O6 0.922312 0.110038 0.215275
O O7 0.853975 0.034388 0.167301
O O8 0.909929 0.066822 0.939558
O O9 0.403815 0.870712 0.452183
O O10 0.415973 0.765970 0.557010
O O11 0.573898 0.180431 0.192983
O O12 0.617836 0.083641 0.171342
O O13 0.455967 0.207023 0.841785
O O14 0.518129 0.254242 0.039086
O O15 0.138100 0.536278 0.892693
#
# Coordination Sequence:
#
# PCOD9371651 Si02
#       8
#     8  16  16  16  16  16  16  16
#     4  12  24  50  78 104 150 202 256 316 382 460
#     4  11  25  46  78 107 142 202 259 311 380 458
#     4  11  27  46  69 114 154 194 247 321 387 457
#     4  12  26  45  70 109 158 188 246 322 390 462
#     4  10  22  43  73 103 136 194 248 302 375 455
#     4  11  24  44  75 104 144 195 251 307 374 459
#     4  10  23  44  72 102 138 198 247 298 374 453
#     4  11  21  47  72 100 143 191 251 301 372 454
#
# _framework density 23.773508
#
# number of rings (size 3 to 8) (size 9 to 14) (size 15 to 20)
#    0.000    1.067    4.000    1.600    3.733    2.667 
#    0.000    1.333    0.000    0.000    0.000    0.000 
#    0.000    0.000    0.000    0.000    0.000    0.000 
#
# Total GULP energy -167232.803108 kJ/mol
# GULP energy per Si atom -5574.426770 kJ/mol
# Density = 2.371940 g / cm^3
# Si number density = 23.773508 Si / 1000 Ang^3
#
#
#
# Elastic Constant Matrix: (Units=GPa)
#
#
# Indices 1 2 3 4 5 6 
#
# 1 141.2666 36.7851 59.7142 0.0001 0.0001 0.0001
# 2 36.7851 57.7501 13.8936 0.0006 -0.0001 0.0002
# 3 59.7142 13.8936 105.9696 0.0020 -0.0002 0.0005
# 4 0.0001 0.0006 0.0020 20.6847 0.0000 0.0004
# 5 0.0001 -0.0001 -0.0002 0.0000 28.0520 -0.0004
# 6 0.0001 0.0002 0.0005 0.0004 -0.0004 24.9974
#
#
#
# Elastic Compliance Matrix: (Units=1/GPa)
#
#
# Indices 1 2 3 4 5 6 
#
# 1 0.010796 -0.005589 -0.005351 0.000001 0.000000 0.000000
# 2 -0.005589 0.020774 0.000426 -0.000001 0.000000 0.000000
# 3 -0.005351 0.000426 0.012396 -0.000001 0.000000 0.000000
# 4 0.000001 -0.000001 -0.000001 0.048345 0.000000 -0.000001
# 5 0.000000 0.000000 0.000000 0.000000 0.035648 0.000001
# 6 0.000000 0.000000 0.000000 -0.000001 0.000001 0.040004
#
#
# Mechanical properties :
#
#
# Convention : Reuss Voigt Hill
#
# Bulk Modulus (GPa) = 43.59682 58.41912 51.00797
# Shear Modulus (GPa) = 25.42753 27.71973 26.57363
#
# Velocity S-wave (km/s) = 3.27398 3.41837 3.34695
# Velocity P-wave (km/s) = 5.71578 6.34089 6.03643
#
# Compressibility (1/GPa) = 0.02293745
#
# Stress axis : x y z
#
# Youngs Moduli (GPa) = 92.62598 48.13752 80.67114
#
# Poissons Ratio (x) = 0.26906 0.43166
# Poissons Ratio (y) = 0.51773 -0.03437
# Poissons Ratio (z) = 0.49562 -0.02051
#
# Static dielectric constant tensor:
#      x y z
#    x 1.965860 0.000000 0.000000 
#    y 0.000000 2.009580 0.000000 
#    z 0.000000 0.000000 1.962170 
# 
# From -- ./inp_files/4341.got.cif
#   From: 2010.05.17/outbox.cif.g08.bks.cpg/sg43_3_cif.got.tgz:4341.got - 2010.06.03 19:21:55.
