data_PCOD9371708
_publ_section_title
;
Structure prediction by ZEFSAII (Michael W. Deem and Ramdas Pophale) SiO2 
 PCOD9371708
Probable space group: F D D 2
;
_chemical_formula_sum "Si O2"
_cell_formula_units_Z 72
_cell_length_a 18.686992
_cell_length_b 26.259106
_cell_length_c 5.663737
_cell_angle_alpha 90.000000
_cell_angle_beta 90.000000
_cell_angle_gamma 90.000000
_cell_volume 2779.216723
_symmetry_space_group_name_H-M "F D D 2"
_symmetry_group_IT_number 43
_symmetry_cell_setting 'orthorhombic'
loop_
_space_group_symop_operation_xyz
x,y,z
-x,-y,z
1/4-x,1/4+y,1/4+z
1/4+x,1/4-y,1/4+z
x,1/2+y,1/2+z
-x,1/2-y,1/2+z
1/4-x,3/4+y,3/4+z
1/4+x,3/4-y,3/4+z
1/2+x,y,1/2+z
1/2-x,-y,1/2+z
3/4-x,1/4+y,3/4+z
3/4+x,1/4-y,3/4+z
1/2+x,1/2+y,z
1/2-x,1/2-y,z
3/4-x,3/4+y,1/4+z
3/4+x,3/4-y,1/4+z
loop_
_atom_site_type_symbol
_atom_site_label
_atom_site_fract_x
_atom_site_fract_y
_atom_site_fract_z
Si Si1 0.649939 0.587017 0.319930
Si Si2 0.179705 0.162345 0.675161
Si Si3 0.698424 0.411003 0.787752
Si Si4 0.750000 0.250000 0.452850
Si Si5 0.376344 0.011602 0.559184
O O1 0.676044 0.604207 0.580579
O O2 0.582084 0.616971 0.212010
O O3 0.723977 0.599356 0.180776
O O4 0.637042 0.528406 0.265050
O O5 0.167881 0.191661 0.428868
O O6 0.109354 0.166468 0.833779
O O7 0.237402 0.197840 0.806234
O O8 0.692656 0.463638 0.935634
O O9 0.819568 0.240623 0.613576
#
# Coordination Sequence:
#
# PCOD9371708 Si02
#       5
#    16  16  16   8  16
#     4  11  26  46  72 104 145 182 247 301 360 448
#     4  10  24  45  73 104 138 192 242 288 375 430
#     4  10  26  45  68 107 141 188 241 296 371 433
#     4  10  22  44  74 104 144 190 244 298 358 442
#     4  10  24  45  71 104 143 184 242 301 362 434
#
# _framework density 25.906580000000002
#
# number of rings (size 3 to 8) (size 9 to 14) (size 15 to 20)
#    0.000    1.778    0.000    0.667   15.556    7.111 
#    0.000    0.000    0.000    0.000    0.000    0.000 
#    0.000    0.000    0.000    0.000    0.000    0.000 
#
# Total GULP energy -100580.967750 kJ/mol
# GULP energy per Si atom -5587.831542 kJ/mol
# Density = 2.584762 g / cm^3
# Si number density = 25.906580 Si / 1000 Ang^3
#
#
#
# Elastic Constant Matrix: (Units=GPa)
#
#
# Indices 1 2 3 4 5 6 
#
# 1 81.6220 24.1347 -4.4011 0.0282 -0.0269 -0.0193
# 2 24.1347 123.4683 33.9427 0.0018 -0.0019 -0.0005
# 3 -4.4011 33.9427 73.8426 0.0320 -0.0241 -0.0181
# 4 0.0282 0.0018 0.0320 60.5656 -0.0123 -0.0151
# 5 -0.0269 -0.0019 -0.0241 -0.0123 32.5710 0.0158
# 6 -0.0193 -0.0005 -0.0181 -0.0151 0.0158 41.2714
#
#
#
# Elastic Compliance Matrix: (Units=1/GPa)
#
#
# Indices 1 2 3 4 5 6 
#
# 1 0.013330 -0.003233 0.002280 -0.000007 0.000013 0.000007
# 2 -0.003233 0.010055 -0.004814 0.000004 -0.000006 -0.000004
# 3 0.002280 -0.004814 0.015891 -0.000009 0.000013 0.000008
# 4 -0.000007 0.000004 -0.000009 0.016511 0.000006 0.000006
# 5 0.000013 -0.000006 0.000013 0.000006 0.030702 -0.000012
# 6 0.000007 -0.000004 0.000008 0.000006 -0.000012 0.024230
#
#
# Mechanical properties :
#
#
# Convention : Reuss Voigt Hill
#
# Bulk Modulus (GPa) = 36.04504 42.92064 39.48284
# Shear Modulus (GPa) = 38.02270 41.89872 39.96071
#
# Velocity S-wave (km/s) = 3.83519 4.02593 3.93172
# Velocity P-wave (km/s) = 5.79269 6.18177 5.99039
#
# Compressibility (1/GPa) = 0.02774307
#
# Stress axis : x y z
#
# Youngs Moduli (GPa) = 75.01634 99.45619 62.92767
#
# Poissons Ratio (x) = 0.32151 -0.14350
# Poissons Ratio (y) = 0.24250 0.30296
# Poissons Ratio (z) = -0.17107 0.47883
#
# Static dielectric constant tensor:
#      x y z
#    x 2.023980 0.000000 0.000020 
#    y 0.000000 2.084280 -0.000020 
#    z 0.000020 -0.000020 2.049340 
# 
# From -- ./inp_files/709.got.cif
#   From: 2010.05.17/outbox.cif.g08.bks.cpg/sg43_1_cif.got.tgz:709.got - 2010.06.03 19:21:55.
