data_PCOD9371085
_publ_section_title
;
Structure prediction by ZEFSAII (Michael W. Deem and Ramdas Pophale) SiO2 
 PCOD9371085
Probable space group: F D D 2
;
_chemical_formula_sum "Si O2"
_cell_formula_units_Z 88
_cell_length_a 23.479266
_cell_length_b 10.232407
_cell_length_c 15.978991
_cell_angle_alpha 90.000000
_cell_angle_beta 90.000000
_cell_angle_gamma 90.000000
_cell_volume 3838.943093
_symmetry_space_group_name_H-M "F D D 2"
_symmetry_group_IT_number 43
_symmetry_cell_setting 'orthorhombic'
loop_
_space_group_symop_operation_xyz
x,y,z
-x,-y,z
1/4-x,1/4+y,1/4+z
1/4+x,1/4-y,1/4+z
x,1/2+y,1/2+z
-x,1/2-y,1/2+z
1/4-x,3/4+y,3/4+z
1/4+x,3/4-y,3/4+z
1/2+x,y,1/2+z
1/2-x,-y,1/2+z
3/4-x,1/4+y,3/4+z
3/4+x,1/4-y,3/4+z
1/2+x,1/2+y,z
1/2-x,1/2-y,z
3/4-x,3/4+y,1/4+z
3/4+x,3/4-y,1/4+z
loop_
_atom_site_type_symbol
_atom_site_label
_atom_site_fract_x
_atom_site_fract_y
_atom_site_fract_z
Si Si1 0.166088 0.243797 0.095130
Si Si2 0.703360 0.414644 0.877599
Si Si3 0.865517 0.557232 0.800013
Si Si4 0.500000 0.000000 0.493726
Si Si5 0.553337 0.720576 0.726553
Si Si6 0.354577 0.533229 0.119095
O O1 0.097884 0.262628 0.103410
O O2 0.194800 0.254362 0.185579
O O3 0.195734 0.342505 0.033322
O O4 0.172766 0.090779 0.073943
O O5 0.744101 0.377611 0.800666
O O6 0.667934 0.278043 0.888653
O O7 0.744146 0.464229 0.949657
O O8 0.910399 0.672413 0.779551
O O9 0.892690 0.413210 0.815336
O O10 0.830624 0.556867 0.712216
O O11 0.832848 0.572080 0.888150
#
# Coordination Sequence:
#
# PCOD9371085 Si02
#       6
#    16  16  16   8  16  16
#     4  10  26  41  76 107 143 187 256 306 363 452
#     4  10  24  44  75 104 146 194 248 299 370 447
#     4  10  21  38  71  99 140 190 239 291 374 443
#     4  12  22  46  78 106 136 210 244 298 372 460
#     4  11  24  45  71 104 152 188 238 318 377 428
#     4   9  20  41  68  99 137 190 244 290 346 461
#
# _framework density 22.922975999999998
#
# number of rings (size 3 to 8) (size 9 to 14) (size 15 to 20)
#    1.091    0.727    0.000    4.364    2.545    2.909 
#    0.000    0.000    8.000    0.000    0.000    0.000 
#    0.000    0.000    0.000    0.000    0.000    0.000 
#
# Total GULP energy -122706.522098 kJ/mol
# GULP energy per Si atom -5577.569186 kJ/mol
# Density = 2.287080 g / cm^3
# Si number density = 22.922976 Si / 1000 Ang^3
#
#
#
# Elastic Constant Matrix: (Units=GPa)
#
#
# Indices 1 2 3 4 5 6 
#
# 1 114.7666 40.7135 59.4636 0.0000 0.0000 0.0000
# 2 40.7135 125.4935 71.4137 0.0000 0.0000 0.0000
# 3 59.4636 71.4137 125.5293 0.0000 0.0000 0.0000
# 4 0.0000 0.0000 0.0000 34.1877 0.0000 0.0000
# 5 0.0000 0.0000 0.0000 0.0000 41.4238 0.0000
# 6 0.0000 0.0000 0.0000 0.0000 0.0000 19.9935
#
#
#
# Elastic Compliance Matrix: (Units=1/GPa)
#
#
# Indices 1 2 3 4 5 6 
#
# 1 0.011622 -0.000943 -0.004969 0.000000 0.000000 0.000000
# 2 -0.000943 0.011860 -0.006300 0.000000 0.000000 0.000000
# 3 -0.004969 -0.006300 0.013904 0.000000 0.000000 0.000000
# 4 0.000000 0.000000 0.000000 0.029250 0.000000 0.000000
# 5 0.000000 0.000000 0.000000 0.000000 0.024141 0.000000
# 6 0.000000 0.000000 0.000000 0.000000 0.000000 0.050016
#
#
# Mechanical properties :
#
#
# Convention : Reuss Voigt Hill
#
# Bulk Modulus (GPa) = 77.14968 78.77457 77.96213
# Shear Modulus (GPa) = 29.49164 32.06756 30.77960
#
# Velocity S-wave (km/s) = 3.59075 3.74428 3.66832
# Velocity P-wave (km/s) = 7.13585 7.28919 7.21293
#
# Compressibility (1/GPa) = 0.01296182
#
# Stress axis : x y z
#
# Youngs Moduli (GPa) = 86.04003 84.31888 71.91918
#
# Poissons Ratio (x) = 0.07950 0.35738
# Poissons Ratio (y) = 0.08112 0.45312
# Poissons Ratio (z) = 0.42755 0.53124
#
# Static dielectric constant tensor:
#      x y z
#    x 1.928520 0.000000 0.000000 
#    y 0.000000 1.863930 0.000000 
#    z 0.000000 0.000000 1.900880 
# 
# From -- ./inp_files/11471.got.cif
#   From: 2010.05.17/outbox.cif.g08.bks.cpg/sg43_6_cif.got.tgz:11471.got - 2010.06.03 19:21:55.
