data_PCOD9371518
_publ_section_title
;
Structure prediction by ZEFSAII (Michael W. Deem and Ramdas Pophale) SiO2 
 PCOD9371518
Probable space group: F D D 2
;
_chemical_formula_sum "Si O2"
_cell_formula_units_Z 88
_cell_length_a 22.714512
_cell_length_b 10.998022
_cell_length_c 16.330809
_cell_angle_alpha 90.000000
_cell_angle_beta 90.000000
_cell_angle_gamma 90.000000
_cell_volume 4079.676195
_symmetry_space_group_name_H-M "F D D 2"
_symmetry_group_IT_number 43
_symmetry_cell_setting 'orthorhombic'
loop_
_space_group_symop_operation_xyz
x,y,z
-x,-y,z
1/4-x,1/4+y,1/4+z
1/4+x,1/4-y,1/4+z
x,1/2+y,1/2+z
-x,1/2-y,1/2+z
1/4-x,3/4+y,3/4+z
1/4+x,3/4-y,3/4+z
1/2+x,y,1/2+z
1/2-x,-y,1/2+z
3/4-x,1/4+y,3/4+z
3/4+x,1/4-y,3/4+z
1/2+x,1/2+y,z
1/2-x,1/2-y,z
3/4-x,3/4+y,1/4+z
3/4+x,3/4-y,1/4+z
loop_
_atom_site_type_symbol
_atom_site_label
_atom_site_fract_x
_atom_site_fract_y
_atom_site_fract_z
Si Si1 0.674537 0.598651 0.457100
Si Si2 0.750000 0.750000 0.351914
Si Si3 0.336444 0.256799 0.004968
Si Si4 0.024740 0.746611 0.504403
Si Si5 0.248559 0.551151 0.567357
Si Si6 0.823662 0.630540 0.841560
O O1 0.693352 0.717998 0.407726
O O2 0.732803 0.556039 0.506533
O O3 0.660437 0.490364 0.394018
O O4 0.622358 0.606236 0.521844
O O5 0.739861 0.868077 0.296797
O O6 0.322592 0.236670 0.908877
O O7 0.405616 0.237314 0.012065
O O8 0.299269 0.153532 0.052475
O O9 0.311518 0.383708 0.039330
O O10 0.003145 0.740016 0.410614
O O11 0.988330 0.850543 0.550116
#
# Coordination Sequence:
#
# PCOD9371518 Si02
#       6
#    16   8  16  16  16  16
#     4  10  22  45  60  96 131 173 217 272 320 391
#     4  10  24  40  60  96 132 168 222 264 332 378
#     4  10  22  42  66  98 134 166 222 275 317 399
#     4  11  23  43  69  98 130 180 213 274 328 392
#     4  10  22  41  68  97 127 174 224 263 331 380
#     4  10  23  44  65  95 135 171 223 265 333 384
#
# _framework density 21.570340000000002
#
# number of rings (size 3 to 8) (size 9 to 14) (size 15 to 20)
#    0.000    1.818    1.818    1.091    2.545    7.273 
#    6.545    0.000    0.000    0.000    0.000    0.000 
#    0.000    0.000    0.000    0.000    0.000    0.000 
#
# Total GULP energy -123021.732578 kJ/mol
# GULP energy per Si atom -5591.896935 kJ/mol
# Density = 2.152124 g / cm^3
# Si number density = 21.570340 Si / 1000 Ang^3
#
#
#
# Elastic Constant Matrix: (Units=GPa)
#
#
# Indices 1 2 3 4 5 6 
#
# 1 112.8859 5.0933 47.0668 0.0000 0.0000 0.0000
# 2 5.0933 33.6443 18.1464 0.0000 0.0000 0.0000
# 3 47.0668 18.1464 114.8519 0.0000 0.0000 0.0000
# 4 0.0000 0.0000 0.0000 8.2881 0.0000 0.0000
# 5 0.0000 0.0000 0.0000 0.0000 37.8467 0.0000
# 6 0.0000 0.0000 0.0000 0.0000 0.0000 18.3649
#
#
#
# Elastic Compliance Matrix: (Units=1/GPa)
#
#
# Indices 1 2 3 4 5 6 
#
# 1 0.010704 0.000815 -0.004515 0.000000 0.000000 0.000000
# 2 0.000815 0.032554 -0.005477 0.000000 0.000000 0.000000
# 3 -0.004515 -0.005477 0.011423 0.000000 0.000000 0.000000
# 4 0.000000 0.000000 0.000000 0.120655 0.000000 0.000000
# 5 0.000000 0.000000 0.000000 0.000000 0.026422 0.000000
# 6 0.000000 0.000000 0.000000 0.000000 0.000000 0.054452
#
#
# Mechanical properties :
#
#
# Convention : Reuss Voigt Hill
#
# Bulk Modulus (GPa) = 27.52925 44.66613 36.09769
# Shear Modulus (GPa) = 17.44140 25.63831 21.53986
#
# Velocity S-wave (km/s) = 2.84664 3.45133 3.16347
# Velocity P-wave (km/s) = 4.85744 6.05264 5.48768
#
# Compressibility (1/GPa) = 0.03632500
#
# Stress axis : x y z
#
# Youngs Moduli (GPa) = 93.41938 30.71848 87.54457
#
# Poissons Ratio (x) = -0.02503 0.39531
# Poissons Ratio (y) = -0.07613 0.47952
# Poissons Ratio (z) = 0.42183 0.16826
#
# Static dielectric constant tensor:
#      x y z
#    x 1.788450 0.000000 0.000000 
#    y 0.000000 1.795730 0.000000 
#    z 0.000000 0.000000 1.771700 
# 
# From -- ./inp_files/11218.got.cif
#   From: 2010.05.17/outbox.cif.g08.bks.cpg/sg43_6_cif.got.tgz:11218.got - 2010.06.03 19:21:55.
