data_PCOD9371750
_publ_section_title
;
Structure prediction by ZEFSAII (Michael W. Deem and Ramdas Pophale) SiO2 
 PCOD9371750
Probable space group: F D D 2
;
_chemical_formula_sum "Si O2"
_cell_formula_units_Z 96
_cell_length_a 17.135122
_cell_length_b 21.925805
_cell_length_c 9.395174
_cell_angle_alpha 90.000000
_cell_angle_beta 90.000000
_cell_angle_gamma 90.000000
_cell_volume 3529.779495
_symmetry_space_group_name_H-M "F D D 2"
_symmetry_group_IT_number 43
_symmetry_cell_setting 'orthorhombic'
loop_
_space_group_symop_operation_xyz
x,y,z
-x,-y,z
1/4-x,1/4+y,1/4+z
1/4+x,1/4-y,1/4+z
x,1/2+y,1/2+z
-x,1/2-y,1/2+z
1/4-x,3/4+y,3/4+z
1/4+x,3/4-y,3/4+z
1/2+x,y,1/2+z
1/2-x,-y,1/2+z
3/4-x,1/4+y,3/4+z
3/4+x,1/4-y,3/4+z
1/2+x,1/2+y,z
1/2-x,1/2-y,z
3/4-x,3/4+y,1/4+z
3/4+x,3/4-y,1/4+z
loop_
_atom_site_type_symbol
_atom_site_label
_atom_site_fract_x
_atom_site_fract_y
_atom_site_fract_z
Si Si1 0.568249 0.086083 0.579970
Si Si2 0.250000 0.250000 0.517840
Si Si3 0.500000 0.000000 0.373647
Si Si4 0.266995 0.085890 0.789251
Si Si5 0.904249 0.072453 0.657219
Si Si6 0.277850 0.997961 0.046334
Si Si7 0.380969 0.672215 0.124295
O O1 0.569864 0.028019 0.471119
O O2 0.582447 0.141874 0.478531
O O3 0.629800 0.096990 0.708680
O O4 0.493889 0.061044 0.670327
O O5 0.325851 0.233011 0.605182
O O6 0.468109 0.053166 0.273048
O O7 0.337385 0.127446 0.732413
O O8 0.268273 0.029380 0.678499
O O9 0.194190 0.133483 0.791196
O O10 0.261322 0.056038 0.946632
O O11 0.863699 0.010551 0.609078
O O12 0.286952 0.941966 0.937007
#
# Coordination Sequence:
#
# PCOD9371750 Si02
#       7
#    16   8   8  16  16  16  16
#     4   9  22  40  70  99 134 175 232 274 351 402
#     4   7  18  39  66  98 123 177 216 268 327 417
#     4  11  22  41  72 104 143 175 240 288 341 413
#     4  12  28  45  71 101 140 180 236 284 348 411
#     4  12  24  43  68 100 139 184 222 292 342 402
#     4  12  28  45  71 101 140 180 236 284 348 411
#     4  10  22  46  70  95 137 186 223 273 344 414
#
# _framework density 27.197165999999999
#
# number of rings (size 3 to 8) (size 9 to 14) (size 15 to 20)
#    1.000    0.333    0.000    5.000    4.667    2.667 
#    0.000    0.000    0.000    0.000    0.000    0.000 
#    0.000    0.000    0.000    0.000    0.000    0.000 
#
# Total GULP energy -133816.772718 kJ/mol
# GULP energy per Si atom -5575.698863 kJ/mol
# Density = 2.713526 g / cm^3
# Si number density = 27.197166 Si / 1000 Ang^3
#
#
#
# Elastic Constant Matrix: (Units=GPa)
#
#
# Indices 1 2 3 4 5 6 
#
# 1 53.4804 23.4992 21.1299 0.0000 0.0000 0.0000
# 2 23.4992 119.6470 46.5262 0.0000 0.0000 0.0000
# 3 21.1299 46.5262 121.0291 0.0000 0.0000 0.0000
# 4 0.0000 0.0000 0.0000 38.1526 0.0000 0.0000
# 5 0.0000 0.0000 0.0000 0.0000 34.3961 0.0000
# 6 0.0000 0.0000 0.0000 0.0000 0.0000 39.9193
#
#
#
# Elastic Compliance Matrix: (Units=1/GPa)
#
#
# Indices 1 2 3 4 5 6 
#
# 1 0.021067 -0.003183 -0.002454 0.000000 0.000000 0.000000
# 2 -0.003183 0.010308 -0.003407 0.000000 0.000000 0.000000
# 3 -0.002454 -0.003407 0.010001 0.000000 0.000000 0.000000
# 4 0.000000 0.000000 0.000000 0.026211 0.000000 0.000000
# 5 0.000000 0.000000 0.000000 0.000000 0.029073 0.000000
# 6 0.000000 0.000000 0.000000 0.000000 0.000000 0.025051
#
#
# Mechanical properties :
#
#
# Convention : Reuss Voigt Hill
#
# Bulk Modulus (GPa) = 42.94301 52.94081 47.94191
# Shear Modulus (GPa) = 33.88443 36.02701 34.95572
#
# Velocity S-wave (km/s) = 3.53353 3.64354 3.58896
# Velocity P-wave (km/s) = 5.69839 6.09986 5.90254
#
# Compressibility (1/GPa) = 0.02328667
#
# Stress axis : x y z
#
# Youngs Moduli (GPa) = 47.46796 97.01281 99.99385
#
# Poissons Ratio (x) = 0.30882 0.24541
# Poissons Ratio (y) = 0.15110 0.34066
# Poissons Ratio (z) = 0.11650 0.33051
#
# Static dielectric constant tensor:
#      x y z
#    x 2.164970 0.000000 0.000000 
#    y 0.000000 2.068180 0.000000 
#    z 0.000000 0.000000 2.156590 
# 
# From -- ./inp_files/3748.got.cif
#   From: 2010.05.17/outbox.cif.g08.bks.cpg/sg43_2_cif.got.tgz:3748.got - 2010.06.03 19:21:55.
