data_PCOD9371921
_publ_section_title
;
Structure prediction by ZEFSAII (Michael W. Deem and Ramdas Pophale) SiO2 
 PCOD9371921
Probable space group: F D D 2
;
_chemical_formula_sum "Si O2"
_cell_formula_units_Z 64
_cell_length_a 7.544805
_cell_length_b 17.263345
_cell_length_c 20.017820
_cell_angle_alpha 90.000000
_cell_angle_beta 90.000000
_cell_angle_gamma 90.000000
_cell_volume 2607.292463
_symmetry_space_group_name_H-M "F D D 2"
_symmetry_group_IT_number 43
_symmetry_cell_setting 'orthorhombic'
loop_
_space_group_symop_operation_xyz
x,y,z
-x,-y,z
1/4-x,1/4+y,1/4+z
1/4+x,1/4-y,1/4+z
x,1/2+y,1/2+z
-x,1/2-y,1/2+z
1/4-x,3/4+y,3/4+z
1/4+x,3/4-y,3/4+z
1/2+x,y,1/2+z
1/2-x,-y,1/2+z
3/4-x,1/4+y,3/4+z
3/4+x,1/4-y,3/4+z
1/2+x,1/2+y,z
1/2-x,1/2-y,z
3/4-x,3/4+y,1/4+z
3/4+x,3/4-y,1/4+z
loop_
_atom_site_type_symbol
_atom_site_label
_atom_site_fract_x
_atom_site_fract_y
_atom_site_fract_z
Si Si1 0.354273 0.669748 0.995280
Si Si2 0.808678 0.523954 0.416371
Si Si3 0.921494 0.358376 0.096179
Si Si4 0.245857 0.377169 0.993879
O O1 0.250000 0.750000 0.984441
O O2 0.310179 0.613089 0.932801
O O3 0.566888 0.666024 0.005347
O O4 0.255147 0.626739 0.056059
O O5 0.678877 0.483139 0.365092
O O6 0.785307 0.468767 0.481651
O O7 0.000000 0.500000 0.390177
O O8 0.933476 0.397856 0.168895
O O9 0.090548 0.372158 0.048062
#
# Coordination Sequence:
#
# PCOD9371921 Si02
#       4
#    16  16  16  16
#     4  11  24  40  73 110 140 198 247 296 380 453
#     4   8  20  45  68  97 152 182 233 315 369 434
#     4  10  23  44  75 100 150 191 243 304 386 437
#     4   9  23  44  70 104 147 187 237 312 366 446
#
# _framework density 24.546536
#
# number of rings (size 3 to 8) (size 9 to 14) (size 15 to 20)
#    1.500    1.000    0.000    0.000    3.500    5.000 
#    0.000   11.250    0.000    0.000    0.000    0.000 
#    0.000    0.000    0.000    0.000    0.000    0.000 
#
# Total GULP energy -89240.060487 kJ/mol
# GULP energy per Si atom -5577.503780 kJ/mol
# Density = 2.449067 g / cm^3
# Si number density = 24.546536 Si / 1000 Ang^3
#
#
#
# Elastic Constant Matrix: (Units=GPa)
#
#
# Indices 1 2 3 4 5 6 
#
# 1 143.7433 7.4200 50.4621 0.0000 0.0000 0.0000
# 2 7.4200 79.3764 -2.0816 0.0000 0.0000 0.0000
# 3 50.4621 -2.0816 84.2734 0.0000 0.0000 0.0000
# 4 0.0000 0.0000 0.0000 25.9411 0.0000 0.0000
# 5 0.0000 0.0000 0.0000 0.0000 36.1027 0.0000
# 6 0.0000 0.0000 0.0000 0.0000 0.0000 17.4832
#
#
#
# Elastic Compliance Matrix: (Units=1/GPa)
#
#
# Indices 1 2 3 4 5 6 
#
# 1 0.008883 -0.000970 -0.005343 0.000000 0.000000 0.000000
# 2 -0.000970 0.012712 0.000895 0.000000 0.000000 0.000000
# 3 -0.005343 0.000895 0.015087 0.000000 0.000000 0.000000
# 4 0.000000 0.000000 0.000000 0.038549 0.000000 0.000000
# 5 0.000000 0.000000 0.000000 0.000000 0.027699 0.000000
# 6 0.000000 0.000000 0.000000 0.000000 0.000000 0.057198
#
#
# Mechanical properties :
#
#
# Convention : Reuss Voigt Hill
#
# Bulk Modulus (GPa) = 38.69044 46.55491 42.62267
# Shear Modulus (GPa) = 27.84283 32.67822 30.26053
#
# Velocity S-wave (km/s) = 3.37157 3.65262 3.51491
# Velocity P-wave (km/s) = 5.56354 6.06597 5.82018
#
# Compressibility (1/GPa) = 0.02584618
#
# Stress axis : x y z
#
# Youngs Moduli (GPa) = 112.58017 78.66337 66.28027
#
# Poissons Ratio (x) = 0.07634 0.35412
# Poissons Ratio (y) = 0.10925 -0.05933
# Poissons Ratio (z) = 0.60149 -0.07041
#
# Static dielectric constant tensor:
#      x y z
#    x 2.005430 0.000000 0.000000 
#    y 0.000000 2.005300 0.000000 
#    z 0.000000 0.000000 1.996480 
# 
# From -- ./inp_files/20022.got.cif
#   From: 2010.05.17/outbox.cif.g08.bks.cpg/sg43_11_cif.got.tgz:20022.got - 2010.06.03 19:21:55.
