data_PCOD9371492
_publ_section_title
;
Structure prediction by ZEFSAII (Michael W. Deem and Ramdas Pophale) SiO2 
 PCOD9371492
Probable space group: F D D 2
;
_chemical_formula_sum "Si O2"
_cell_formula_units_Z 80
_cell_length_a 20.094251
_cell_length_b 17.067862
_cell_length_c 10.006920
_cell_angle_alpha 90.000000
_cell_angle_beta 90.000000
_cell_angle_gamma 90.000000
_cell_volume 3432.032355
_symmetry_space_group_name_H-M "F D D 2"
_symmetry_group_IT_number 43
_symmetry_cell_setting 'orthorhombic'
loop_
_space_group_symop_operation_xyz
x,y,z
-x,-y,z
1/4-x,1/4+y,1/4+z
1/4+x,1/4-y,1/4+z
x,1/2+y,1/2+z
-x,1/2-y,1/2+z
1/4-x,3/4+y,3/4+z
1/4+x,3/4-y,3/4+z
1/2+x,y,1/2+z
1/2-x,-y,1/2+z
3/4-x,1/4+y,3/4+z
3/4+x,1/4-y,3/4+z
1/2+x,1/2+y,z
1/2-x,1/2-y,z
3/4-x,3/4+y,1/4+z
3/4+x,3/4-y,1/4+z
loop_
_atom_site_type_symbol
_atom_site_label
_atom_site_fract_x
_atom_site_fract_y
_atom_site_fract_z
Si Si1 0.391853 0.773057 0.221960
Si Si2 0.669158 0.479377 0.178213
Si Si3 0.555409 0.835334 0.956007
Si Si4 0.750119 0.872536 0.090963
Si Si5 0.853588 0.250758 0.653355
O O1 0.408670 0.701069 0.321413
O O2 0.330706 0.830178 0.253555
O O3 0.455823 0.832481 0.231636
O O4 0.382117 0.756854 0.066382
O O5 0.726909 0.414418 0.183399
O O6 0.713078 0.557535 0.163250
O O7 0.624309 0.468385 0.047839
O O8 0.582078 0.776076 0.070649
O O9 0.809200 0.810758 0.066772
O O10 0.694736 0.824060 0.172415
#
# Coordination Sequence:
#
# PCOD9371492 Si02
#       5
#    16  16  16  16  16
#     4  10  23  40  64  96 129 172 213 279 331 394
#     4  11  23  39  66  96 130 166 221 276 322 387
#     4  10  22  41  64  92 129 172 217 267 339 396
#     4   9  22  42  65  93 128 174 220 263 336 398
#     4  10  22  42  70  92 124 174 224 266 327 412
#
# _framework density 23.309805000000001
#
# number of rings (size 3 to 8) (size 9 to 14) (size 15 to 20)
#    0.000    2.000    0.000    2.400   14.000    0.000 
#    0.000    0.000    0.000    0.000    0.000    0.000 
#    0.000    0.000    0.000    0.000    0.000    0.000 
#
# Total GULP energy -111577.208456 kJ/mol
# GULP energy per Si atom -5578.860423 kJ/mol
# Density = 2.325675 g / cm^3
# Si number density = 23.309805 Si / 1000 Ang^3
#
#
#
# Elastic Constant Matrix: (Units=GPa)
#
#
# Indices 1 2 3 4 5 6 
#
# 1 63.3762 6.5938 5.5505 0.0000 0.0000 0.0000
# 2 6.5938 20.5856 -7.5639 0.0000 0.0000 0.0000
# 3 5.5505 -7.5639 129.6393 0.0000 0.0000 0.0000
# 4 0.0000 0.0000 0.0000 3.4333 0.0000 0.0000
# 5 0.0000 0.0000 0.0000 0.0000 25.3726 0.0000
# 6 0.0000 0.0000 0.0000 0.0000 0.0000 -5.8607
#
#
#
# Elastic Compliance Matrix: (Units=1/GPa)
#
#
# Indices 1 2 3 4 5 6 
#
# 1 0.016457 -0.005652 -0.001034 0.000000 0.000000 0.000000
# 2 -0.005652 0.051583 0.003252 0.000000 0.000000 0.000000
# 3 -0.001034 0.003252 0.007948 0.000000 0.000000 0.000000
# 4 0.000000 0.000000 0.000000 0.291264 0.000000 0.000000
# 5 0.000000 0.000000 0.000000 0.000000 0.039413 0.000000
# 6 0.000000 0.000000 0.000000 0.000000 0.000000 -0.170629
#
#
# Mechanical properties :
#
#
# Convention : Reuss Voigt Hill
#
# Bulk Modulus (GPa) = 14.46778 24.75132 19.60955
# Shear Modulus (GPa) = 18.80098 18.52376 18.66237
#
# Velocity S-wave (km/s) = 2.84310 2.82206 2.83260
# Velocity P-wave (km/s) = 4.12284 4.61087 4.37367
#
# Compressibility (1/GPa) = 0.06911913
#
# Stress axis : x y z
#
# Youngs Moduli (GPa) = 60.76298 19.38634 125.82238
#
# Poissons Ratio (x) = 0.10956 0.13015
# Poissons Ratio (y) = 0.34341 -0.40912
# Poissons Ratio (z) = 0.06285 -0.06304
#
# Static dielectric constant tensor:
#      x y z
#    x 1.935200 0.000000 0.000000 
#    y 0.000000 2.002050 0.000000 
#    z 0.000000 0.000000 1.881830 
# 
# From -- ./inp_files/4144.got.cif
#   From: 2010.05.17/outbox.cif.g08.bks.cpg/sg43_3_cif.got.tgz:4144.got - 2010.06.03 19:21:55.
